#------------------------------------------------------------------------------
#$Date: 2016-03-21 01:21:50 +0200 (Mon, 21 Mar 2016) $
#$Revision: 178377 $
#$URL: svn://www.crystallography.net/cod/cif/4/00/21/4002100.cif $
#------------------------------------------------------------------------------
#
# This file is available in the Crystallography Open Database (COD),
# http://www.crystallography.net/
#
# All data on this site have been placed in the public domain by the
# contributors.
#
data_4002100
loop_
_publ_author_name
'Nanthamathee, Chompoonoot'
'Ling, Sanliang'
'Slater, Ben'
'Attfield, Martin P.'
_publ_section_title
;
 Contradistinct Thermoresponsive Behavior of Isostructural MIL-53 Type
 Metal--Organic Frameworks by Modifying the Framework Inorganic Anion
;
_journal_name_full               'Chemistry of Materials'
_journal_page_first              141223143002002
_journal_paper_doi               10.1021/cm503311x
_journal_year                    2014
_chemical_formula_sum            'C8 Al F O4'
_chemical_formula_weight         206.06
_chemical_name_systematic        ' ?'
_space_group_IT_number           74
_symmetry_cell_setting           orthorhombic
_symmetry_space_group_name_Hall  '-I 2b 2'
_symmetry_space_group_name_H-M   'I m m a'
_audit_creation_date             2014-08-28T13:17
_audit_creation_method           'from EXP file using GSAS2CIF'
_audit_update_record
' 2014-08-28T13:17  Initial CIF as created by GSAS2CIF'
_cell_angle_alpha                90.0
_cell_angle_beta                 90.0
_cell_angle_gamma                90.0
_cell_formula_units_Z            4
_cell_length_a                   6.56768(17)
_cell_length_b                   16.3984(5)
_cell_length_c                   13.1640(7)
_cell_volume                     1417.76(9)
_computing_structure_refinement  GSAS
_diffrn_radiation_polarisn_ratio 0.95
_diffrn_radiation_probe          x-ray
_diffrn_radiation_wavelength     0.825993
_exptl_absorpt_correction_T_max  1.00000
_exptl_absorpt_correction_T_min  1.00000
_exptl_absorpt_process_details
;   GSAS Absorption/surface roughness correction: function number 0
 No correction is applied.
;
_pd_block_id                     2014-08-28T13:17|400K|400k|i11
_pd_calc_method                  'Rietveld Refinement'
_pd_instr_location               ' ?'
_pd_meas_2theta_range_inc        0.003
_pd_meas_2theta_range_max        149.9955
_pd_meas_2theta_range_min        0.0015
_pd_meas_number_of_points        49999
_pd_phase_name                   400K
_pd_proc_2theta_range_inc        0.003
_pd_proc_2theta_range_max        150.0051
_pd_proc_2theta_range_min        0.011106
_pd_proc_info_datetime           2014-08-28T13:17:20
_pd_proc_info_excluded_regions   ' ?'
_pd_proc_ls_background_function
;   GSAS Background function number 1 with  2 terms.
 Shifted Chebyshev function of 1st kind
      1:    0.00000     2:    0.00000    
;
_pd_proc_ls_peak_cutoff          0.00010
_pd_proc_ls_profile_function
;
 CW Profile function number 4 with  18 terms
 Pseudovoigt profile coefficients as parameterized in
 P. Thompson, D.E. Cox & J.B. Hastings (1987). J. Appl. Cryst.,20,79-83.
 Asymmetry correction of L.W. Finger, D.E. Cox & A. P. Jephcoat (1994).
 J. Appl. Cryst.,27,892-900.
 Microstrain broadening by P.W. Stephens,  (1999). J. Appl. Cryst.,32,281-289.
 Peak tails are ignored  where the intensity is below 0.0001 times the peak
   Aniso. broadening axis   1.0   0.0   1.0
;
_pd_proc_ls_prof_R_factor        0.0334
_pd_proc_ls_prof_wR_expected     0.0248
_pd_proc_ls_prof_wR_factor       0.0426
_pd_proc_number_of_points        49999
_pd_spec_mounting                ' ?'
_refine_ls_goodness_of_fit_all   1.72
_refine_ls_matrix_type           full
_refine_ls_number_parameters     29
_refine_ls_number_restraints     0
_refine_ls_R_Fsqd_factor         0.18711
_refine_ls_shift/su_max          0.05
_refine_ls_shift/su_mean         0.01
_reflns_d_resolution_high        1.209
_reflns_d_resolution_low         8.199
_reflns_limit_h_max              5
_reflns_limit_h_min              0
_reflns_limit_k_max              13
_reflns_limit_k_min              0
_reflns_limit_l_max              11
_reflns_limit_l_min              0
_reflns_number_total             252
_cod_data_source_file            alf400K.cif
_cod_data_source_block           400K_publ
_cod_depositor_comments
;
The following automatic conversions were performed:

'_geom_bond_publ_flag' value 'N' changed to 'n' according to
/home/saulius/struct/COD-crude-data--automatic-downloads/rss-feeds/ACS/lib/dictionaries/cif_core.dic
dictionary named 'cif_core.dic' version 2.4.2 from 2011-04-26 (18
times).

'_geom_angle_publ_flag' value 'N' changed to 'n' according
to
/home/saulius/struct/COD-crude-data--automatic-downloads/rss-feeds/ACS/lib/dictionaries/cif_core.dic
dictionary named 'cif_core.dic' version 2.4.2 from 2011-04-26 (24
times).

Automatic conversion script
Id: cif_fix_values 2935 2014-11-11 08:27:57Z andrius 
;
_cod_database_code               4002100
#BEGIN Tags that were not found in dictionaries:
_gsas_exptl_extinct_corr_t_min   1.00000
_gsas_exptl_extinct_corr_t_max   1.00000
#END Tags that were not found in dictionaries
loop_
_symmetry_equiv_pos_site_id
_symmetry_equiv_pos_as_xyz
1 +x,+y,+z
2 -x,+y,+z
3 +x,-y+1/2,+z
4 -x,-y+1/2,+z
-1 -x,-y,-z
-2 +x,-y,-z
-3 -x,+y+1/2,-z
-4 +x,+y+1/2,-z
101 +x+1/2,+y+1/2,+z+1/2
102 -x+1/2,+y+1/2,+z+1/2
103 +x+1/2,-y,+z+1/2
104 -x+1/2,-y,+z+1/2
-101 -x+1/2,-y+1/2,-z+1/2
-102 +x+1/2,-y+1/2,-z+1/2
-103 -x+1/2,+y,-z+1/2
-104 +x+1/2,+y,-z+1/2
loop_
_atom_site_type_symbol
_atom_site_label
_atom_site_fract_x
_atom_site_fract_y
_atom_site_fract_z
_atom_site_occupancy
_atom_site_thermal_displace_type
_atom_site_U_iso_or_equiv
_atom_site_symmetry_multiplicity
Al Al1 0.25 0.25 0.75 1.0 Uiso 0.0120(16) 4
F F1 0.0 0.25 0.6937(6) 1.0 Uiso 0.0150(14) 4
O O1 0.1690(6) 0.16818(25) 0.83997(34) 1.0 Uiso 0.0150(14) 16
C C1 -0.1929(7) 0.0265(5) 0.9543(7) 1.0 Uiso 0.0316(25) 16
C C2 0.0 0.0641(6) 0.9498(9) 1.0 Uiso 0.0316(25) 8
C C3 0.0 0.1389(7) 0.8705(10) 1.0 Uiso 0.0316(25) 8
loop_
_atom_type_symbol
_atom_type_number_in_cell
_atom_type_scat_dispersion_real
_atom_type_scat_dispersion_imag
_atom_type_scat_Cromer_Mann_a1
_atom_type_scat_Cromer_Mann_a2
_atom_type_scat_Cromer_Mann_a3
_atom_type_scat_Cromer_Mann_a4
_atom_type_scat_Cromer_Mann_b1
_atom_type_scat_Cromer_Mann_b2
_atom_type_scat_Cromer_Mann_b3
_atom_type_scat_Cromer_Mann_b4
_atom_type_scat_Cromer_Mann_c
_atom_type_scat_source
Al 4.0 0.000 0.000 6.42020 3.03870 1.90020 0.74260 1.59360 31.5472 1.96460
85.0886 1.11510 International_Tables_Vol_C
F 4.0 0.000 0.000 3.53920 10.2825 2.64120 4.29440 1.51700 0.26150 1.02430
26.1476 0.27760 International_Tables_Vol_C
O 16.0 0.000 0.000 3.04850 13.2771 2.28680 5.70110 1.54630 0.32390 0.86700
32.9089 0.25080 International_Tables_Vol_C
C 32.0 0.000 0.000 2.31000 20.8439 1.02000 10.2075 1.58860 0.56870 0.86500
51.6512 0.21560 International_Tables_Vol_C
loop_
_geom_angle_atom_site_label_1
_geom_angle_atom_site_label_2
_geom_angle_atom_site_label_3
_geom_angle
_geom_angle_site_symmetry_1
_geom_angle_site_symmetry_3
_geom_angle_publ_flag
F1 Al1 F1 180.0 1_555 -101_546 n
F1 Al1 O1 90.07(18) 1_555 1_555 n
F1 Al1 O1 90.07(18) 1_555 3_555 n
F1 Al1 O1 89.93(18) 1_555 -101_566 n
F1 Al1 O1 89.93(18) 1_555 -103_566 n
F1 Al1 O1 89.93(18) -101_566 1_555 n
F1 Al1 O1 89.93(18) -101_566 3_555 n
F1 Al1 O1 90.07(18) -101_566 -101_566 n
F1 Al1 O1 90.07(18) -101_566 -103_566 n
O1 Al1 O1 91.87(31) 1_555 3_555 n
O1 Al1 O1 180.0 1_555 -101_566 n
O1 Al1 O1 88.13(31) 1_555 -103_566 n
O1 Al1 O1 88.13(31) 3_555 -101_566 n
O1 Al1 O1 180.0 3_555 -103_566 n
O1 Al1 O1 91.87(31) -101_566 -103_566 n
Al1 F1 Al1 131.4(5) 1_555 2_555 n
Al1 O1 C3 136.0(6) 1_555 1_555 n
C1 C1 C2 106.9(7) -2_557 1_555 n
C1 C2 C1 127.9(11) 1_555 2_555 n
C1 C2 C3 111.1(6) 1_555 1_555 n
C1 C2 C3 111.1(6) 2_555 1_555 n
O1 C3 O1 121.1(10) 1_555 2_555 n
O1 C3 C2 119.5(5) 1_555 1_555 n
O1 C3 C2 119.5(5) 2_555 1_555 n
loop_
_geom_bond_atom_site_label_1
_geom_bond_atom_site_label_2
_geom_bond_distance
_geom_bond_site_symmetry_2
_geom_bond_publ_flag
Al1 F1 1.8015(32) 1_555 n
Al1 F1 1.8015(32) -101_445 n
Al1 O1 1.8671(33) 1_555 n
Al1 O1 1.8671(33) 3_555 n
Al1 O1 1.8671(33) -101_445 n
Al1 O1 1.8671(33) -103_445 n
F1 Al1 1.8015(32) 1_555 n
F1 Al1 1.8015(32) 2_555 n
O1 Al1 1.8671(33) 1_555 n
O1 C3 1.274(5) 1_555 n
C1 C1 1.483(12) -2_557 n
C1 C2 1.410(7) 1_555 n
C2 C1 1.410(7) 1_555 n
C2 C1 1.410(7) 2_555 n
C2 C3 1.611(10) 1_555 n
C3 O1 1.274(5) 1_555 n
C3 O1 1.274(5) 2_555 n
C3 C2 1.611(10) 1_555 n
loop_
_pd_meas_intensity_total
_pd_proc_ls_weight
_pd_proc_intensity_bkg_calc
_pd_calc_intensity_total
14.0(20) 0.0 0.00 .
18.8(23) 0.0 0.00 .
25.7(29) 0.0 0.00 .
26.3(28) 0.0 0.00 .
59(4) 0.0 0.0 .
253(8) 0.0 0.0 .
163(7) 0.0 0.0 .
1113(19) 0.0 0.0 .
2015(24) 0.0 0.0 .
3877(33) 0.0 0.0 .
4505(35) 0.0 0.0 .
4312(35) 0.0 0. .
4298(37) 0.0 0. .
1646(22) 0.0 0.0 .
141(6) 0.0 0.0 .
81(5) 0.0 0.0 .
58(4) 0.0 0.0 .
49(4) 0.0 0.0 .
45(4) 0.0 0.0 .
82(5) 0.0 0.0 .
270(9) 0.0 0.0 .
422(11) 0.0 0.0 .
834(16) 0.0 0.0 .
1099(18) 0.0 0.0 .
1160(18) 0.0 0.0 .
1327(19) 0.0 0.0 .
1495(21) 0.0 0.0 .
1575(22) 0.0 0.0 .
1851(23) 0.0 0.0 .
1929(23) 0.0 0.0 .
2097(24) 0.0 0.0 .
2115(25) 0.0 0.0 .
1990(24) 0.0 0.0 .
1683(22) 0.0 0.0 .
1236(18) 0.0 0.0 .
726(15) 0.0 0.0 .
386(11) 0.0 0.0 .
248(9) 0.0 0.0 .
153(6) 0.0 0.0 .
93(5) 0.0 0.0 .
49(4) 0.0 0.0 .
32.5(30) 0.0 0.00 .
34.0(31) 0.0 0.00 .
33.9(31) 0.0 0.00 .
28.6(29) 0.0 0.00 .
28.1(28) 0.0 0.00 .
31.2(30) 0.0 0.00 .
27.2(28) 0.0 0.00 .
31.6(30) 0.0 0.00 .
33.1(30) 0.0 0.00 .
43(4) 0.0 0.0 .
27.7(28) 0.0 0.00 .
29.6(31) 0.0 0.00 .
21.0(25) 0.0 0.00 .
31.7(30) 0.0 0.00 .
33.9(31) 0.0 0.00 .
27.0(27) 0.0 0.00 .
32.0(34) 0.0 0.00 .
30.4(29) 0.0 0.00 .
37.6(33) 0.0 0.00 .
34.0(33) 0.0 0.00 .
28.9(31) 0.0 0.00 .
36.3(32) 0.0 0.00 .
34.7(32) 0.0 0.00 .
26.0(28) 0.0 0.00 .
26.5(27) 0.0 0.00 .
37(4) 0.0 0.0 .
31.2(30) 0.0 0.00 .
29.9(28) 0.0 0.00 .
46(4) 0.0 0.0 .
37.4(32) 0.0 0.00 .
34.2(30) 0.0 0.00 .
42.7(35) 0.0 0.00 .
42.7(35) 0.0 0.00 .
31.1(29) 0.0 0.00 .
37.3(33) 0.0 0.00 .
36.5(32) 0.0 0.00 .
44.8(35) 0.0 0.00 .
36.3(32) 0.0 0.00 .
28.7(30) 0.0 0.00 .
33.1(31) 0.0 0.00 .
33.4(31) 0.0 0.00 .
32.9(31) 0.0 0.00 .
34.7(31) 0.0 0.00 .
39.8(33) 0.0 0.00 .
33.8(32) 0.0 0.00 .
32.6(29) 0.0 0.00 .
34.5(31) 0.0 0.00 .
37.3(32) 0.0 0.00 .
41.0(34) 0.0 0.00 .
40.2(34) 0.0 0.00 .
47(4) 0.0 0.0 .
46(4) 0.0 0.0 .
46(4) 0.0 0.0 .
54(4) 0.0 0.0 .
71(4) 0.0 0.0 .
73(5) 0.0 0.0 .
83(5) 0.0 0.0 .
86(5) 0.0 0.0 .
97(5) 0.0 0.0 .
90(5) 0.0 0.0 .
101(5) 0.0 0.0 .
111(5) 0.0 0.0 .
121(6) 0.0 0.0 .
120(6) 0.0 0.0 .
148(7) 0.0 0.0 .
145(6) 0.0 0.0 .
165(7) 0.0 0.0 .
178(7) 0.0 0.0 .
172(7) 0.0 0.0 .
193(8) 0.0 0.0 .
197(8) 0.0 0.0 .
211(8) 0.0 0.0 .
227(8) 0.0 0.0 .
236(8) 0.0 0.0 .
249(9) 0.0 0.0 .
246(8) 0.0 0.0 .
248(8) 0.0 0.0 .
249(8) 0.0 0.0 .
282(9) 0.0 0.0 .
273(9) 0.0 0.0 .
269(9) 0.0 0.0 .
277(9) 0.0 0.0 .
292(9) 0.0 0.0 .
297(9) 0.0 0.0 .
311(10) 0.0 0.0 .
333(10) 0.0 0.0 .
346(10) 0.0 0.0 .
357(10) 0.0 0.0 .
355(10) 0.0 0.0 .
365(10) 0.0 0.0 .
385(11) 0.0 0.0 .
362(10) 0.0 0.0 .
373(10) 0.0 0.0 .
378(10) 0.0 0.0 .
415(11) 0.0 0.0 .
401(11) 0.0 0.0 .
435(11) 0.0 0.0 .
431(11) 0.0 0.0 .
429(11) 0.0 0.0 .
447(11) 0.0 0.0 .
481(12) 0.0 0.0 .
480(11) 0.0 0.0 .
472(12) 0.0 0.0 .
484(12) 0.0 0.0 .
464(12) 0.0 0.0 .
494(12) 0.0 0.0 .
482(11) 0.0 0.0 .
468(12) 0.0 0.0 .
495(12) 0.0 0.0 .
459(11) 0.0 0.0 .
497(12) 0.0 0.0 .
539(12) 0.0 0.0 .
525(12) 0.0 0.0 .
512(12) 0.0 0.0 .
531(12) 0.0 0.0 .
549(12) 0.0 0.0 .
538(12) 0.0 0.0 .
570(13) 0.0 0.0 .
564(13) 0.0 0.0 .
548(13) 0.0 0.0 .
529(12) 0.0 0.0 .
550(12) 0.0 0.0 .
549(13) 0.0 0.0 .
534(13) 0.0 0.0 .
532(12) 0.0 0.0 .
572(12) 0.0 0.0 .
543(12) 0.0 0.0 .
584(13) 0.0 0.0 .
586(13) 0.0 0.0 .
582(13) 0.0 0.0 .
589(13) 0.0 0.0 .
554(12) 0.0 0.0 .
580(13) 0.0 0.0 .
616(14) 0.0 0.0 .
598(13) 0.0 0.0 .
562(12) 0.0 0.0 .
570(12) 0.0 0.0 .
618(13) 0.0 0.0 .
618(14) 0.0 0.0 .
592(13) 0.0 0.0 .
586(13) 0.0 0.0 .
587(13) 0.0 0.0 .
626(14) 0.0 0.0 .
618(13) 0.0 0.0 .
638(14) 0.0 0.0 .
610(13) 0.0 0.0 .
647(14) 0.0 0.0 .
635(13) 0.0 0.0 .
631(14) 0.0 0.0 .
671(14) 0.0 0.0 .
632(13) 0.0 0.0 .
612(13) 0.0 0.0 .
669(14) 0.0 0.0 .
662(14) 0.0 0.0 .
657(13) 0.0 0.0 .
669(13) 0.0 0.0 .
665(14) 0.0 0.0 .
677(14) 0.0 0.0 .
667(14) 0.0 0.0 .
664(14) 0.0 0.0 .
687(14) 0.0 0.0 .
695(14) 0.0 0.0 .
657(14) 0.0 0.0 .
662(14) 0.0 0.0 .
708(14) 0.0 0.0 .
684(14) 0.0 0.0 .
685(14) 0.0 0.0 .
710(15) 0.0 0.0 .
694(14) 0.0 0.0 .
702(14) 0.0 0.0 .
746(14) 0.0 0.0 .
712(14) 0.0 0.0 .
712(15) 0.0 0.0 .
714(14) 0.0 0.0 .
691(14) 0.0 0.0 .
733(14) 0.0 0.0 .
781(15) 0.0 0.0 .
749(15) 0.0 0.0 .
778(15) 0.0 0.0 .
797(15) 0.0 0.0 .
793(15) 0.0 0.0 .
780(15) 0.0 0.0 .
727(15) 0.0 0.0 .
748(15) 0.0 0.0 .
758(14) 0.0 0.0 .
745(14) 0.0 0.0 .
732(15) 0.0 0.0 .
733(15) 0.0 0.0 .
759(15) 0.0 0.0 .
794(15) 0.0 0.0 .
801(15) 0.0 0.0 .
783(15) 0.0 0.0 .
812(15) 0.0 0.0 .
817(15) 0.0 0.0 .
783(15) 0.0 0.0 .
794(15) 0.0 0.0 .
784(15) 0.0 0.0 .
811(15) 0.0 0.0 .
801(15) 0.0 0.0 .
792(15) 0.0 0.0 .
791(15) 0.0 0.0 .
809(15) 0.0 0.0 .
806(15) 0.0 0.0 .
798(15) 0.0 0.0 .
824(15) 0.0 0.0 .
829(15) 0.0 0.0 .
813(16) 0.0 0.0 .
803(15) 0.0 0.0 .
836(15) 0.0 0.0 .
832(15) 0.0 0.0 .
870(16) 0.0 0.0 .
879(16) 0.0 0.0 .
835(15) 0.0 0.0 .
791(15) 0.0 0.0 .
835(15) 0.0 0.0 .
825(15) 0.0 0.0 .
867(16) 0.0 0.0 .
840(16) 0.0 0.0 .
846(15) 0.0 0.0 .
841(15) 0.0 0.0 .
865(16) 0.0 0.0 .
834(16) 0.0 0.0 .
896(16) 0.0 0.0 .
852(15) 0.0 0.0 .
852(15) 0.0 0.0 .
855(16) 0.0 0.0 .
821(16) 0.0 0.0 .
892(16) 0.0 0.0 .
888(15) 0.0 0.0 .
897(16) 0.0 0.0 .
898(16) 0.0 0.0 .
889(16) 0.0 0.0 .
892(16) 0.0 0.0 .
868(15) 0.0 0.0 .
912(16) 0.0 0.0 .
881(16) 0.0 0.0 .
859(16) 0.0 0.0 .
889(16) 0.0 0.0 .
906(16) 0.0 0.0 .
916(16) 0.0 0.0 .
921(16) 0.0 0.0 .
932(17) 0.0 0.0 .
889(16) 0.0 0.0 .
910(16) 0.0 0.0 .
924(16) 0.0 0.0 .
910(16) 0.0 0.0 .
896(16) 0.0 0.0 .
907(16) 0.0 0.0 .
891(15) 0.0 0.0 .
923(16) 0.0 0.0 .
900(16) 0.0 0.0 .
898(16) 0.0 0.0 .
898(16) 0.0 0.0 .
917(16) 0.0 0.0 .
935(16) 0.0 0.0 .
947(17) 0.0 0.0 .
878(16) 0.0 0.0 .
921(16) 0.0 0.0 .
910(16) 0.0 0.0 .
945(17) 0.0 0.0 .
924(17) 0.0 0.0 .
948(17) 0.0 0.0 .
947(16) 0.0 0.0 .
956(16) 0.0 0.0 .
946(17) 0.0 0.0 .
914(17) 0.0 0.0 .
930(16) 0.0 0.0 .
946(16) 0.0 0.0 .
951(16) 0.0 0.0 .
986(17) 0.0 0.0 .
988(18) 0.0 0.0 .
918(16) 0.0 0.0 .
973(16) 0.0 0.0 .
979(16) 0.0 0.0 .
991(17) 0.0 0.0 .
911(17) 0.0 0.0 .
947(17) 0.0 0.0 .
1013(17) 0.0 0.0 .
1008(17) 0.0 0.0 .
969(17) 0.0 0.0 .
950(17) 0.0 0.0 .
961(17) 0.0 0.0 .
990(16) 0.0 0.0 .
1005(17) 0.0 0.0 .
1025(17) 0.0 0.0 .
950(17) 0.0 0.0 .
965(17) 0.0 0.0 .
984(16) 0.0 0.0 .
1024(17) 0.0 0.0 .
1023(17) 0.0 0.0 .
982(17) 0.0 0.0 .
1007(17) 0.0 0.0 .
1044(17) 0.0 0.0 .
993(17) 0.0 0.0 .
1065(18) 0.0 0.0 .
1039(18) 0.0 0.0 .
992(17) 0.0 0.0 .
1012(17) 0.0 0.0 .
1015(17) 0.0 0.0 .
1033(18) 0.0 0.0 .
1058(18) 0.0 0.0 .
1046(17) 0.0 0.0 .
985(16) 0.0 0.0 .
1036(17) 0.0 0.0 .
994(17) 0.0 0.0 .
1022(17) 0.0 0.0 .
1048(17) 0.0 0.0 .
1024(17) 0.0 0.0 .
1055(18) 0.0 0.0 .
1058(18) 0.0 0.0 .
1043(17) 0.0 0.0 .
1066(17) 0.0 0.0 .
1081(17) 0.0 0.0 .
1113(18) 0.0 0.0 .
1099(18) 0.0 0.0 .
1137(18) 0.0 0.0 .
1074(17) 0.0 0.0 .
1131(17) 0.0 0.0 .
1074(18) 0.0 0.0 .
1038(18) 0.0 0.0 .
1083(18) 0.0 0.0 .
1090(17) 0.0 0.0 .
1126(17) 0.0 0.0 .
1118(18) 0.0 0.0 .
1097(18) 0.0 0.0 .
1095(18) 0.0 0.0 .
1133(17) 0.0 0.0 .
1107(17) 0.0 0.0 .
1111(18) 0.0 0.0 .
1137(18) 0.0 0.0 .
1168(18) 0.0 0.0 .
1144(18) 0.0 0.0 .
1164(18) 0.0 0.0 .
1089(18) 0.0 0.0 .
1134(19) 0.0 0.0 .
1174(19) 0.0 0.0 .
1179(18) 0.0 0.0 .
1140(18) 0.0 0.0 .
1161(18) 0.0 0.0 .
1162(19) 0.0 0.0 .
1171(18) 0.0 0.0 .
1131(17) 0.0 0.0 .
1134(18) 0.0 0.0 .
1160(18) 0.0 0.0 .
1172(19) 0.0 0.0 .
1159(18) 0.0 0.0 .
1187(18) 0.0 0.0 .
1164(18) 0.0 0.0 .
1222(19) 0.0 0.0 .
1172(18) 0.0 0.0 .
1157(18) 0.0 0.0 .
1208(18) 0.0 0.0 .
1173(18) 0.0 0.0 .
1220(19) 0.0 0.0 .
1184(18) 0.0 0.0 .
1157(18) 0.0 0.0 .
1165(18) 0.0 0.0 .
1248(19) 0.0 0.0 .
1217(19) 0.0 0.0 .
1176(19) 0.0 0.0 .
1190(18) 0.0 0.0 .
1195(18) 0.0 0.0 .
1173(18) 0.0 0.0 .
1196(19) 0.0 0.0 .
1189(19) 0.0 0.0 .
1232(19) 0.0 0.0 .
1228(18) 0.0 0.0 .
1166(18) 0.0 0.0 .
1179(19) 0.0 0.0 .
1221(19) 0.0 0.0 .
1220(18) 0.0 0.0 .
1224(18) 0.0 0.0 .
1206(19) 0.0 0.0 .
1219(20) 0.0 0.0 .
1230(19) 0.0 0.0 .
1188(18) 0.0 0.0 .
1255(18) 0.0 0.0 .
1269(19) 0.0 0.0 .
1277(20) 0.0 0.0 .
1286(19) 0.0 0.0 .
1266(19) 0.0 0.0 .
1206(18) 0.0 0.0 .
1197(18) 0.0 0.0 .
1301(20) 0.0 0.0 .
1231(19) 0.0 0.0 .
1232(18) 0.0 0.0 .
1242(18) 0.0 0.0 .
1214(19) 0.0 0.0 .
1269(20) 0.0 0.0 .
1205(19) 0.0 0.0 .
1253(18) 0.0 0.0 .
1240(19) 0.0 0.0 .
1238(19) 0.0 0.0 .
1193(19) 0.0 0.0 .
1236(19) 0.0 0.0 .
1228(18) 0.0 0.0 .
1224(18) 0.0 0.0 .
1289(20) 0.0 0.0 .
1250(19) 0.0 0.0 .
1274(19) 0.0 0.0 .
1277(18) 0.0 0.0 .
1247(19) 0.0 0.0 .
1244(19) 0.0 0.0 .
1278(19) 0.0 0.0 .
1230(19) 0.0 0.0 .
1224(18) 0.0 0.0 .
1285(19) 0.0 0.0 .
1243(19) 0.0 0.0 .
1273(19) 0.0 0.0 .
1291(19) 0.0 0.0 .
1262(18) 0.0 0.0 .
1276(19) 0.0 0.0 .
1265(20) 0.0 0.0 .
1255(19) 0.0 0.0 .
1219(18) 0.0 0.0 .
1240(18) 0.0 0.0 .
1247(19) 0.0 0.0 .
1270(20) 0.0 0.0 .
1251(19) 0.0 0.0 .
1241(18) 0.0 0.0 .
1274(18) 0.0 0.0 .
1255(19) 0.0 0.0 .
1267(20) 0.0 0.0 .
1228(19) 0.0 0.0 .
1290(19) 0.0 0.0 .
1280(19) 0.0 0.0 .
1242(19) 0.0 0.0 .
1315(20) 0.0 0.0 .
1271(19) 0.0 0.0 .
1223(18) 0.0 0.0 .
1255(19) 0.0 0.0 .
1315(20) 0.0 0.0 .
1295(20) 0.0 0.0 .
1254(19) 0.0 0.0 .
1273(18) 0.0 0.0 .
1259(19) 0.0 0.0 .
1244(19) 0.0 0.0 .
1255(19) 0.0 0.0 .
1262(19) 0.0 0.0 .
1245(18) 0.0 0.0 .
1301(19) 0.0 0.0 .
1264(19) 0.0 0.0 .
1259(19) 0.0 0.0 .
1286(19) 0.0 0.0 .
1310(19) 0.0 0.0 .
1291(19) 0.0 0.0 .
1272(19) 0.0 0.0 .
1254(19) 0.0 0.0 .
1275(19) 0.0 0.0 .
1293(19) 0.0 0.0 .
1302(19) 0.0 0.0 .
1264(19) 0.0 0.0 .
1292(20) 0.0 0.0 .
1225(19) 0.0 0.0 .
1214(18) 0.0 0.0 .
1261(19) 0.0 0.0 .
1252(19) 0.0 0.0 .
1200(19) 0.0 0.0 .
1268(19) 0.0 0.0 .
1305(19) 0.0 0.0 .
1261(19) 0.0 0.0 .
1296(20) 0.0 0.0 .
1289(19) 0.0 0.0 .
1211(18) 0.0 0.0 .
1236(18) 0.0 0.0 .
1190(18) 0.0 0.0 .
1212(19) 0.0 0.0 .
1244(19) 0.0 0.0 .
1285(19) 0.0 0.0 .
1340(19) 0.0 0.0 .
1270(19) 0.0 0.0 .
1223(19) 0.0 0.0 .
1242(19) 0.0 0.0 .
1307(19) 0.0 0.0 .
1264(18) 0.0 0.0 .
1222(19) 0.0 0.0 .
1232(20) 0.0 0.0 .
1263(19) 0.0 0.0 .
1261(19) 0.0 0.0 .
1256(18) 0.0 0.0 .
1243(19) 0.0 0.0 .
1265(20) 0.0 0.0 .
1227(19) 0.0 0.0 .
1233(18) 0.0 0.0 .
1297(19) 0.0 0.0 .
1250(19) 0.0 0.0 .
1226(19) 0.0 0.0 .
1278(19) 0.0 0.0 .
1276(19) 0.0 0.0 .
1221(18) 0.0 0.0 .
1258(19) 0.0 0.0 .
1246(19) 0.0 0.0 .
1287(19) 0.0 0.0 .
1218(18) 0.0 0.0 .
1205(18) 0.0 0.0 .
1260(19) 0.0 0.0 .
1242(19) 0.0 0.0 .
1242(19) 0.0 0.0 .
1277(19) 0.0 0.0 .
1218(19) 0.0 0.0 .
1232(19) 0.0 0.0 .
1249(19) 0.0 0.0 .
1253(19) 0.0 0.0 .
1243(18) 0.0 0.0 .
1219(19) 0.0 0.0 .
1254(19) 0.0 0.0 .
1264(19) 0.0 0.0 .
1254(19) 0.0 0.0 .
1255(18) 0.0 0.0 .
1269(19) 0.0 0.0 .
1226(19) 0.0 0.0 .
1201(19) 0.0 0.0 .
1214(18) 0.0 0.0 .
1254(18) 0.0 0.0 .
1248(19) 0.0 0.0 .
1205(19) 0.0 0.0 .
1187(19) 0.0 0.0 .
1207(18) 0.0 0.0 .
1225(18) 0.0 0.0 .
1247(19) 0.0 0.0 .
1281(20) 0.0 0.0 .
1292(19) 0.0 0.0 .
1216(18) 0.0 0.0 .
1194(18) 0.0 0.0 .
1200(19) 0.0 0.0 .
1208(19) 0.0 0.0 .
1243(19) 0.0 0.0 .
1209(18) 0.0 0.0 .
1240(18) 0.0 0.0 .
1242(19) 0.0 0.0 .
1194(19) 0.0 0.0 .
1157(18) 0.0 0.0 .
1259(18) 0.0 0.0 .
1220(18) 0.0 0.0 .
1227(19) 0.0 0.0 .
1221(19) 0.0 0.0 .
1204(19) 0.0 0.0 .
1268(18) 0.0 0.0 .
1205(18) 0.0 0.0 .
1226(19) 0.0 0.0 .
1242(19) 0.0 0.0 .
1253(19) 0.0 0.0 .
1236(18) 0.0 0.0 .
1247(19) 0.0 0.0 .
1160(18) 0.0 0.0 .
1197(19) 0.0 0.0 .
1193(19) 0.0 0.0 .
1192(18) 0.0 0.0 .
1236(19) 0.0 0.0 .
1181(18) 0.0 0.0 .
1178(18) 0.0 0.0 .
1178(18) 0.0 0.0 .
1175(18) 0.0 0.0 .
1169(18) 0.0 0.0 .
1191(19) 0.0 0.0 .
1206(19) 0.0 0.0 .
1224(18) 0.0 0.0 .
1219(18) 0.0 0.0 .
1290(20) 0.0 0.0 .
1199(19) 0.0 0.0 .
1173(18) 0.0 0.0 .
1170(18) 0.0 0.0 .
1194(18) 0.0 0.0 .
1199(19) 0.0 0.0 .
1185(19) 0.0 0.0 .
1181(18) 0.0 0.0 .
1212(18) 0.0 0.0 .
1220(18) 0.0 0.0 .
1181(19) 0.0 0.0 .
1137(19) 0.0 0.0 .
1156(18) 0.0 0.0 .
1173(18) 0.0 0.0 .
1179(18) 0.0 0.0 .
1122(18) 0.0 0.0 .
1120(19) 0.0 0.0 .
1168(19) 0.0 0.0 .
1185(18) 0.0 0.0 .
1216(18) 0.0 0.0 .
1196(19) 0.0 0.0 .
1174(19) 0.0 0.0 .
1166(18) 0.0 0.0 .
1132(17) 0.0 0.0 .
1185(18) 0.0 0.0 .
1170(18) 0.0 0.0 .
1139(18) 0.0 0.0 .
1148(18) 0.0 0.0 .
1156(18) 0.0 0.0 .
1196(18) 0.0 0.0 .
1141(18) 0.0 0.0 .
1164(19) 0.0 0.0 .
1188(19) 0.0 0.0 .
1151(18) 0.0 0.0 .
1151(18) 0.0 0.0 .
1109(18) 0.0 0.0 .
1101(18) 0.0 0.0 .
1154(18) 0.0 0.0 .
1150(18) 0.0 0.0 .
1147(18) 0.0 0.0 .
1085(18) 0.0 0.0 .
1140(18) 0.0 0.0 .
1119(18) 0.0 0.0 .
1141(18) 0.0 0.0 .
1134(18) 0.0 0.0 .
1126(18) 0.0 0.0 .
1096(18) 0.0 0.0 .
1143(18) 0.0 0.0 .
1152(18) 0.0 0.0 .
1113(18) 0.0 0.0 .
1155(19) 0.0 0.0 .
1103(18) 0.0 0.0 .
1099(17) 0.0 0.0 .
1141(17) 0.0 0.0 .
1110(18) 0.0 0.0 .
1088(18) 0.0 0.0 .
1112(18) 0.0 0.0 .
1158(18) 0.0 0.0 .
1200(18) 0.0 0.0 .
1098(18) 0.0 0.0 .
1124(18) 0.0 0.0 .
1130(18) 0.0 0.0 .
1087(17) 0.0 0.0 .
1146(18) 0.0 0.0 .
1174(18) 0.0 0.0 .
1149(19) 0.0 0.0 .
1105(18) 0.0 0.0 .
1129(17) 0.0 0.0 .
1069(17) 0.0 0.0 .
1099(18) 0.0 0.0 .
1088(18) 0.0 0.0 .
1151(18) 0.0 0.0 .
1102(17) 0.0 0.0 .
1112(17) 0.0 0.0 .
1133(18) 0.0 0.0 .
1097(18) 0.0 0.0 .
1102(18) 0.0 0.0 .
1127(17) 0.0 0.0 .
1061(17) 0.0 0.0 .
1084(18) 0.0 0.0 .
1075(18) 0.0 0.0 .
1137(18) 0.0 0.0 .
1100(17) 0.0 0.0 .
1090(17) 0.0 0.0 .
1090(18) 0.0 0.0 .
1059(18) 0.0 0.0 .
1097(18) 0.0 0.0 .
1109(17) 0.0 0.0 .
1051(17) 0.0 0.0 .
1069(18) 0.0 0.0 .
1067(18) 0.0 0.0 .
1071(17) 0.0 0.0 .
1142(18) 0.0 0.0 .
1113(18) 0.0 0.0 .
1123(18) 0.0 0.0 .
1127(18) 0.0 0.0 .
1091(18) 0.0 0.0 .
1111(17) 0.0 0.0 .
1116(18) 0.0 0.0 .
1130(18) 0.0 0.0 .
1082(18) 0.0 0.0 .
1056(17) 0.0 0.0 .
1061(17) 0.0 0.0 .
1088(18) 0.0 0.0 .
1058(18) 0.0 0.0 .
1130(18) 0.0 0.0 .
1095(17) 0.0 0.0 .
1061(17) 0.0 0.0 .
1057(18) 0.0 0.0 .
1090(18) 0.0 0.0 .
1038(17) 0.0 0.0 .
1108(17) 0.0 0.0 .
1067(17) 0.0 0.0 .
1063(18) 0.0 0.0 .
1139(19) 0.0 0.0 .
1103(18) 0.0 0.0 .
1050(17) 0.0 0.0 .
1070(17) 0.0 0.0 .
1053(17) 0.0 0.0 .
1010(17) 0.0 0.0 .
1087(18) 0.0 0.0 .
1061(17) 0.0 0.0 .
1065(17) 0.0 0.0 .
1079(18) 0.0 0.0 .
1054(18) 0.0 0.0 .
1062(18) 0.0 0.0 .
1035(17) 0.0 0.0 .
1022(17) 0.0 0.0 .
1099(18) 0.0 0.0 .
1093(18) 0.0 0.0 .
1014(17) 0.0 0.0 .
1070(17) 0.0 0.0 .
1091(17) 0.0 0.0 .
1035(17) 0.0 0.0 .
1011(17) 0.0 0.0 .
1029(17) 0.0 0.0 .
1029(17) 0.0 0.0 .
1027(17) 0.0 0.0 .
1045(17) 0.0 0.0 .
1080(18) 0.0 0.0 .
1069(18) 0.0 0.0 .
1006(16) 0.0 0.0 .
1025(17) 0.0 0.0 .
1070(18) 0.0 0.0 .
1039(17) 0.0 0.0 .
1078(18) 0.0 0.0 .
1018(17) 0.0 0.0 .
1046(17) 0.0 0.0 .
1017(17) 0.0 0.0 .
1024(17) 0.0 0.0 .
1000(17) 0.0 0.0 .
998(16) 0.0 0.0 .
994(17) 0.0 0.0 .
1030(17) 0.0 0.0 .
1032(17) 0.0 0.0 .
1008(17) 0.0 0.0 .
1036(17) 0.0 0.0 .
1064(17) 0.0 0.0 .
1009(17) 0.0 0.0 .
995(17) 0.0 0.0 .
993(16) 0.0 0.0 .
1041(17) 0.0 0.0 .
1004(17) 0.0 0.0 .
960(17) 0.0 0.0 .
973(17) 0.0 0.0 .
1021(17) 0.0 0.0 .
1031(17) 0.0 0.0 .
987(17) 0.0 0.0 .
955(17) 0.0 0.0 .
979(17) 0.0 0.0 .
1071(17) 0.0 0.0 .
1045(17) 0.0 0.0 .
989(17) 0.0 0.0 .
1005(18) 0.0 0.0 .
997(17) 0.0 0.0 .
1024(17) 0.0 0.0 .
1015(17) 0.0 0.0 .
1015(17) 0.0 0.0 .
1000(17) 0.0 0.0 .
968(17) 0.0 0.0 .
963(16) 0.0 0.0 .
1066(17) 0.0 0.0 .
982(17) 0.0 0.0 .
979(17) 0.0 0.0 .
1015(17) 0.0 0.0 .
1037(17) 0.0 0.0 .
1007(17) 0.0 0.0 .
995(17) 0.0 0.0 .
1006(17) 0.0 0.0 .
990(17) 0.0 0.0 .
990(16) 0.0 0.0 .
997(17) 0.0 0.0 .
963(17) 0.0 0.0 .
950(17) 0.0 0.0 .
988(17) 0.0 0.0 .
984(16) 0.0 0.0 .
1012(17) 0.0 0.0 .
980(17) 0.0 0.0 .
949(16) 0.0 0.0 .
991(17) 0.0 0.0 .
972(16) 0.0 0.0 .
1005(17) 0.0 0.0 .
959(17) 0.0 0.0 .
936(16) 0.0 0.0 .
967(16) 0.0 0.0 .
958(16) 0.0 0.0 .
968(17) 0.0 0.0 .
967(17) 0.0 0.0 .
974(17) 0.0 0.0 .
994(16) 0.0 0.0 .
956(16) 0.0 0.0 .
1002(17) 0.0 0.0 .
966(17) 0.0 0.0 .
998(17) 0.0 0.0 .
991(16) 0.0 0.0 .
1010(17) 0.0 0.0 .
985(17) 0.0 0.0 .
922(17) 0.0 0.0 .
972(17) 0.0 0.0 .
954(16) 0.0 0.0 .
1009(17) 0.0 0.0 .
984(17) 0.0 0.0 .
928(17) 0.0 0.0 .
956(16) 0.0 0.0 .
980(16) 0.0 0.0 .
954(16) 0.0 0.0 .
986(17) 0.0 0.0 .
965(17) 0.0 0.0 .
990(17) 0.0 0.0 .
972(16) 0.0 0.0 .
965(16) 0.0 0.0 .
964(17) 0.0 0.0 .
993(17) 0.0 0.0 .
965(17) 0.0 0.0 .
977(16) 0.0 0.0 .
965(16) 0.0 0.0 .
962(17) 0.0 0.0 .
944(17) 0.0 0.0 .
932(16) 0.0 0.0 .
963(16) 0.0 0.0 .
972(17) 0.0 0.0 .
965(17) 0.0 0.0 .
968(17) 0.0 0.0 .
925(16) 0.0 0.0 .
950(16) 0.0 0.0 .
967(17) 0.0 0.0 .
925(17) 0.0 0.0 .
903(16) 0.0 0.0 .
941(16) 0.0 0.0 .
939(16) 0.0 0.0 .
961(17) 0.0 0.0 .
964(17) 0.0 0.0 .
942(17) 0.0 0.0 .
931(16) 0.0 0.0 .
912(16) 0.0 0.0 .
967(17) 0.0 0.0 .
954(17) 0.0 0.0 .
934(16) 0.0 0.0 .
941(16) 0.0 0.0 .
883(15) 0.0 0.0 .
951(17) 0.0 0.0 .
924(17) 0.0 0.0 .
920(16) 0.0 0.0 .
920(16) 0.0 0.0 .
963(16) 0.0 0.0 .
951(17) 0.0 0.0 .
903(17) 0.0 0.0 .
919(16) 0.0 0.0 .
921(16) 0.0 0.0 .
953(16) 0.0 0.0 .
913(16) 0.0 0.0 .
884(17) 0.0 0.0 .
938(16) 0.0 0.0 .
896(16) 0.0 0.0 .
870(15) 0.0 0.0 .
938(16) 0.0 0.0 .
912(17) 0.0 0.0 .
885(16) 0.0 0.0 .
921(16) 0.0 0.0 .
923(16) 0.0 0.0 .
918(16) 0.0 0.0 .
910(17) 0.0 0.0 .
940(17) 0.0 0.0 .
950(16) 0.0 0.0 .
875(15) 0.0 0.0 .
905(16) 0.0 0.0 .
962(17) 0.0 0.0 .
900(16) 0.0 0.0 .
855(15) 0.0 0.0 .
876(16) 0.0 0.0 .
914(16) 0.0 0.0 .
893(16) 0.0 0.0 .
889(16) 0.0 0.0 .
922(16) 0.0 0.0 .
923(16) 0.0 0.0 .
963(17) 0.0 0.0 .
922(16) 0.0 0.0 .
907(16) 0.0 0.0 .
923(16) 0.0 0.0 .
898(16) 0.0 0.0 .
931(17) 0.0 0.0 .
894(16) 0.0 0.0 .
903(16) 0.0 0.0 .
878(15) 0.0 0.0 .
894(16) 0.0 0.0 .
925(17) 0.0 0.0 .
889(16) 0.0 0.0 .
840(15) 0.0 0.0 .
893(16) 0.0 0.0 .
857(16) 0.0 0.0 .
898(16) 0.0 0.0 .
925(16) 0.0 0.0 .
886(16) 0.0 0.0 .
865(15) 0.0 0.0 .
888(16) 0.0 0.0 .
890(16) 0.0 0.0 .
864(16) 0.0 0.0 .
890(16) 0.0 0.0 .
890(16) 0.0 0.0 .
891(16) 0.0 0.0 .
914(17) 0.0 0.0 .
899(16) 0.0 0.0 .
869(15) 0.0 0.0 .
872(15) 0.0 0.0 .
880(16) 0.0 0.0 .
875(16) 0.0 0.0 .
858(16) 0.0 0.0 .
864(15) 0.0 0.0 .
886(16) 0.0 0.0 .
861(16) 0.0 0.0 .
878(16) 0.0 0.0 .
896(16) 0.0 0.0 .
894(16) 0.0 0.0 .
866(15) 0.0 0.0 .
855(16) 0.0 0.0 .
819(16) 0.0 0.0 .
879(16) 0.0 0.0 .
835(15) 0.0 0.0 .
829(15) 0.0 0.0 .
871(16) 0.0 0.0 .
887(16) 0.0 0.0 .
875(16) 0.0 0.0 .
871(15) 0.0 0.0 .
907(16) 0.0 0.0 .
870(16) 0.0 0.0 .
874(16) 0.0 0.0 .
885(16) 0.0 0.0 .
865(15) 0.0 0.0 .
905(16) 0.0 0.0 .
897(16) 0.0 0.0 .
899(16) 0.0 0.0 .
847(15) 0.0 0.0 .
862(15) 0.0 0.0 .
869(16) 0.0 0.0 .
858(16) 0.0 0.0 .
889(16) 0.0 0.0 .
831(15) 0.0 0.0 .
851(15) 0.0 0.0 .
861(16) 0.0 0.0 .
836(16) 0.0 0.0 .
860(16) 0.0 0.0 .
885(15) 0.0 0.0 .
847(15) 0.0 0.0 .
844(16) 0.0 0.0 .
842(16) 0.0 0.0 .
877(16) 0.0 0.0 .
835(15) 0.0 0.0 .
869(15) 0.0 0.0 .
870(16) 0.0 0.0 .
839(16) 0.0 0.0 .
889(16) 0.0 0.0 .
850(15) 0.0 0.0 .
870(15) 0.0 0.0 .
842(16) 0.0 0.0 .
806(16) 0.0 0.0 .
837(16) 0.0 0.0 .
870(15) 0.0 0.0 .
860(15) 0.0 0.0 .
849(16) 0.0 0.0 .
827(16) 0.0 0.0 .
862(16) 0.0 0.0 .
884(15) 0.0 0.0 .
855(15) 0.0 0.0 .
863(16) 0.0 0.0 .
849(16) 0.0 0.0 .
807(15) 0.0 0.0 .
796(15) 0.0 0.0 .
864(15) 0.0 0.0 .
860(16) 0.0 0.0 .
853(16) 0.0 0.0 .
855(16) 0.0 0.0 .
837(15) 0.0 0.0 .
826(15) 0.0 0.0 .
846(16) 0.0 0.0 .
824(16) 0.0 0.0 .
825(15) 0.0 0.0 .
840(15) 0.0 0.0 .
826(15) 0.0 0.0 .
845(16) 0.0 0.0 .
786(15) 0.0 0.0 .
876(16) 0.0 0.0 .
828(15) 0.0 0.0 .
824(15) 0.0 0.0 .
864(16) 0.0 0.0 .
823(15) 0.0 0.0 .
876(15) 0.0 0.0 .
824(15) 0.0 0.0 .
809(15) 0.0 0.0 .
804(16) 0.0 0.0 .
788(15) 0.0 0.0 .
788(15) 0.0 0.0 .
802(15) 0.0 0.0 .
798(15) 0.0 0.0 .
825(16) 0.0 0.0 .
778(15) 0.0 0.0 .
820(15) 0.0 0.0 .
840(15) 0.0 0.0 .
844(16) 0.0 0.0 .
847(16) 0.0 0.0 .
802(15) 0.0 0.0 .
801(15) 0.0 0.0 .
786(15) 0.0 0.0 .
786(15) 0.0 0.0 .
785(16) 0.0 0.0 .
814(15) 0.0 0.0 .
796(15) 0.0 0.0 .
870(15) 0.0 0.0 .
772(15) 0.0 0.0 .
792(16) 0.0 0.0 .
802(15) 0.0 0.0 .
833(15) 0.0 0.0 .
805(15) 0.0 0.0 .
769(15) 0.0 0.0 .
797(16) 0.0 0.0 .
805(15) 0.0 0.0 .
759(14) 0.0 0.0 .
819(15) 0.0 0.0 .
836(16) 0.0 0.0 .
809(16) 0.0 0.0 .
794(15) 0.0 0.0 .
776(14) 0.0 0.0 .
794(15) 0.0 0.0 .
790(15) 0.0 0.0 .
765(15) 0.0 0.0 .
790(15) 0.0 0.0 .
802(15) 0.0 0.0 .
827(15) 0.0 0.0 .
784(15) 0.0 0.0 .
794(15) 0.0 0.0 .
765(15) 0.0 0.0 .
800(15) 0.0 0.0 .
804(15) 0.0 0.0 .
787(15) 0.0 0.0 .
783(15) 0.0 0.0 .
789(15) 0.0 0.0 .
797(15) 0.0 0.0 .
774(15) 0.0 0.0 .
799(16) 0.0 0.0 .
812(15) 0.0 0.0 .
781(15) 0.0 0.0 .
783(14) 0.0 0.0 .
788(15) 0.0 0.0 .
788(15) 0.0 0.0 .
809(15) 0.0 0.0 .
777(15) 0.0 0.0 .
782(14) 0.0 0.0 .
759(15) 0.0 0.0 .
802(16) 0.0 0.0 .
779(15) 0.0 0.0 .
774(14) 0.0 0.0 .
807(15) 0.0 0.0 .
758(15) 0.0 0.0 .
759(15) 0.0 0.0 .
766(15) 0.0 0.0 .
724(14) 0.0 0.0 .
761(14) 0.0 0.0 .
771(15) 0.0 0.0 .
737(15) 0.0 0.0 .
780(15) 0.0 0.0 .
771(14) 0.0 0.0 .
773(15) 0.0 0.0 .
773(15) 0.0 0.0 .
730(15) 0.0 0.0 .
804(15) 0.0 0.0 .
717(14) 0.0 0.0 .
719(14) 0.0 0.0 .
751(15) 0.0 0.0 .
746(15) 0.0 0.0 .
771(15) 0.0 0.0 .
728(14) 0.0 0.0 .
730(14) 0.0 0.0 .
770(15) 0.0 0.0 .
774(15) 0.0 0.0 .
760(15) 0.0 0.0 .
781(14) 0.0 0.0 .
749(14) 0.0 0.0 .
786(15) 0.0 0.0 .
737(14) 0.0 0.0 .
720(14) 0.0 0.0 .
744(14) 0.0 0.0 .
723(14) 0.0 0.0 .
756(15) 0.0 0.0 .
748(15) 0.0 0.0 .
804(15) 0.0 0.0 .
734(14) 0.0 0.0 .
721(15) 0.0 0.0 .
741(15) 0.0 0.0 .
776(15) 0.0 0.0 .
743(14) 0.0 0.0 .
759(14) 0.0 0.0 .
772(15) 0.0 0.0 .
757(15) 0.0 0.0 .
774(15) 0.0 0.0 .
756(14) 0.0 0.0 .
735(14) 0.0 0.0 .
744(15) 0.0 0.0 .
741(15) 0.0 0.0 .
737(14) 0.0 0.0 .
757(14) 0.0 0.0 .
725(14) 0.0 0.0 .
734(15) 0.0 0.0 .
731(15) 0.0 0.0 .
784(15) 0.0 0.0 .
727(14) 0.0 0.0 .
731(14) 0.0 0.0 .
718(14) 0.0 0.0 .
715(15) 0.0 0.0 .
710(14) 0.0 0.0 .
754(14) 0.0 0.0 .
724(14) 0.0 0.0 .
732(14) 0.0 0.0 .
718(15) 0.0 0.0 .
716(14) 0.0 0.0 .
706(14) 0.0 0.0 .
758(15) 0.0 0.0 .
767(15) 0.0 0.0 .
732(15) 0.0 0.0 .
712(14) 0.0 0.0 .
723(14) 0.0 0.0 .
737(14) 0.0 0.0 .
739(14) 0.0 0.0 .
730(15) 0.0 0.0 .
720(14) 0.0 0.0 .
734(14) 0.0 0.0 .
729(14) 0.0 0.0 .
779(15) 0.0 0.0 .
706(14) 0.0 0.0 .
731(14) 0.0 0.0 .
766(14) 0.0 0.0 .
732(15) 0.0 0.0 .
717(14) 0.0 0.0 .
722(15) 0.0 0.0 .
722(14) 0.0 0.0 .
738(14) 0.0 0.0 .
722(14) 0.0 0.0 .
711(14) 0.0 0.0 .
690(14) 0.0 0.0 .
761(15) 0.0 0.0 .
747(14) 0.0 0.0 .
740(15) 0.0 0.0 .
702(15) 0.0 0.0 .
685(14) 0.0 0.0 .
702(14) 0.0 0.0 .
708(14) 0.0 0.0 .
746(15) 0.0 0.0 .
695(15) 0.0 0.0 .
688(14) 0.0 0.0 .
712(14) 0.0 0.0 .
686(14) 0.0 0.0 .
706(14) 0.0 0.0 .
720(15) 0.0 0.0 .
719(14) 0.0 0.0 .
722(14) 0.0 0.0 .
758(14) 0.0 0.0 .
699(14) 0.0 0.0 .
690(15) 0.0 0.0 .
705(14) 0.0 0.0 .
716(14) 0.0 0.0 .
687(14) 0.0 0.0 .
665(14) 0.0 0.0 .
666(14) 0.0 0.0 .
723(15) 0.0 0.0 .
684(14) 0.0 0.0 .
681(14) 0.0 0.0 .
704(14) 0.0 0.0 .
710(15) 0.0 0.0 .
720(14) 0.0 0.0 .
701(14) 0.0 0.0 .
728(14) 0.0 0.0 .
732(15) 0.0 0.0 .
670(14) 0.0 0.0 .
730(15) 0.0 0.0 .
692(14) 0.0 0.0 .
659(13) 0.0 0.0 .
683(14) 0.0 0.0 .
690(14) 0.0 0.0 .
714(14) 0.0 0.0 .
676(13) 0.0 0.0 .
705(14) 0.0 0.0 .
677(14) 0.0 0.0 .
702(14) 0.0 0.0 .
714(14) 0.0 0.0 .
695(14) 0.0 0.0 .
673(14) 0.0 0.0 .
717(15) 0.0 0.0 .
677(14) 0.0 0.0 .
697(14) 0.0 0.0 .
679(14) 0.0 0.0 .
715(14) 0.0 0.0 .
671(14) 0.0 0.0 .
726(14) 0.0 0.0 .
701(14) 0.0 0.0 .
679(14) 0.0 0.0 .
700(14) 0.0 0.0 .
708(15) 0.0 0.0 .
659(14) 0.0 0.0 .
715(14) 0.0 0.0 .
677(13) 0.0 0.0 .
722(15) 0.0 0.0 .
686(15) 0.0 0.0 .
670(14) 0.0 0.0 .
680(13) 0.0 0.0 .
680(14) 0.0 0.0 .
685(14) 0.0 0.0 .
672(15) 0.0 0.0 .
682(14) 0.0 0.0 .
689(14) 0.0 0.0 .
638(13) 0.0 0.0 .
663(14) 0.0 0.0 .
705(15) 0.0 0.0 .
662(14) 0.0 0.0 .
678(13) 0.0 0.0 .
654(13) 0.0 0.0 .
712(15) 0.0 0.0 .
706(15) 0.0 0.0 .
678(14) 0.0 0.0 .
678(13) 0.0 0.0 .
657(13) 0.0 0.0 .
667(14) 0.0 0.0 .
659(14) 0.0 0.0 .
648(14) 0.0 0.0 .
683(14) 0.0 0.0 .
668(14) 0.0 0.0 .
685(14) 0.0 0.0 .
668(14) 0.0 0.0 .
678(14) 0.0 0.0 .
696(14) 0.0 0.0 .
656(14) 0.0 0.0 .
670(14) 0.0 0.0 .
685(14) 0.0 0.0 .
691(14) 0.0 0.0 .
683(14) 0.0 0.0 .
675(14) 0.0 0.0 .
711(15) 0.0 0.0 .
713(14) 0.0 0.0 .
681(14) 0.0 0.0 .
672(13) 0.0 0.0 .
630(14) 0.0 0.0 .
670(14) 0.0 0.0 .
709(14) 0.0 0.0 .
681(14) 0.0 0.0 .
676(13) 0.0 0.0 .
679(14) 0.0 0.0 .
637(14) 0.0 0.0 .
650(14) 0.0 0.0 .
709(14) 0.0 0.0 .
659(13) 0.0 0.0 .
690(14) 0.0 0.0 .
739(15) 0.0 0.0 .
694(14) 0.0 0.0 .
690(14) 0.0 0.0 .
695(14) 0.0 0.0 .
686(14) 0.0 0.0 .
665(14) 0.0 0.0 .
688(14) 0.0 0.0 .
648(13) 0.0 0.0 .
662(13) 0.0 0.0 .
690(14) 0.0 0.0 .
710(15) 0.0 0.0 .
673(14) 0.0 0.0 .
686(14) 0.0 0.0 .
689(14) 0.0 0.0 .
656(14) 0.0 0.0 .
650(14) 0.0 0.0 .
690(14) 0.0 0.0 .
690(14) 0.0 0.0 .
672(14) 0.0 0.0 .
680(14) 0.0 0.0 .
648(14) 0.0 0.0 .
671(14) 0.0 0.0 .
672(13) 0.0 0.0 .
659(14) 0.0 0.0 .
643(14) 0.0 0.0 .
682(14) 0.0 0.0 .
657(14) 0.0 0.0 .
661(13) 0.0 0.0 .
697(14) 0.0 0.0 .
659(14) 0.0 0.0 .
671(14) 0.0 0.0 .
692(14) 0.0 0.0 .
683(14) 0.0 0.0 .
663(14) 0.0 0.0 .
697(14) 0.0 0.0 .
642(14) 0.0 0.0 .
677(14) 0.0 0.0 .
634(13) 0.0 0.0 .
647(14) 0.0 0.0 .
656(14) 0.0 0.0 .
646(13) 0.0 0.0 .
630(13) 0.0 0.0 .
681(14) 0.0 0.0 .
646(14) 0.0 0.0 .
652(14) 0.0 0.0 .
640(14) 0.0 0.0 .
634(13) 0.0 0.0 .
670(13) 0.0 0.0 .
652(14) 0.0 0.0 .
661(14) 0.0 0.0 .
671(14) 0.0 0.0 .
660(13) 0.0 0.0 .
641(13) 0.0 0.0 .
640(14) 0.0 0.0 .
623(14) 0.0 0.0 .
654(14) 0.0 0.0 .
628(13) 0.0 0.0 .
645(13) 0.0 0.0 .
673(14) 0.0 0.0 .
661(14) 0.0 0.0 .
631(13) 0.0 0.0 .
660(13) 0.0 0.0 .
657(13) 0.0 0.0 .
651(14) 0.0 0.0 .
629(14) 0.0 0.0 .
657(14) 0.0 0.0 .
689(14) 0.0 0.0 .
689(14) 0.0 0.0 .
692(14) 0.0 0.0 .
639(14) 0.0 0.0 .
623(13) 0.0 0.0 .
662(13) 0.0 0.0 .
659(14) 0.0 0.0 .
672(14) 0.0 0.0 .
611(14) 0.0 0.0 .
652(14) 0.0 0.0 .
673(13) 0.0 0.0 .
637(13) 0.0 0.0 .
631(14) 0.0 0.0 .
616(13) 0.0 0.0 .
665(14) 0.0 0.0 .
625(13) 0.0 0.0 .
640(13) 0.0 0.0 .
696(14) 0.0 0.0 .
638(14) 0.0 0.0 .
627(13) 0.0 0.0 .
640(13) 0.0 0.0 .
623(13) 0.0 0.0 .
645(14) 0.0 0.0 .
670(14) 0.0 0.0 .
656(13) 0.0 0.0 .
640(13) 0.0 0.0 .
650(14) 0.0 0.0 .
628(14) 0.0 0.0 .
631(13) 0.0 0.0 .
637(13) 0.0 0.0 .
649(13) 0.0 0.0 .
638(13) 0.0 0.0 .
610(14) 0.0 0.0 .
652(14) 0.0 0.0 .
637(13) 0.0 0.0 .
666(13) 0.0 0.0 .
641(13) 0.0 0.0 .
656(14) 0.0 0.0 .
636(14) 0.0 0.0 .
658(13) 0.0 0.0 .
649(13) 0.0 0.0 .
651(14) 0.0 0.0 .
655(14) 0.0 0.0 .
652(14) 0.0 0.0 .
612(13) 0.0 0.0 .
654(13) 0.0 0.0 .
644(14) 0.0 0.0 .
631(14) 0.0 0.0 .
658(14) 0.0 0.0 .
624(13) 0.0 0.0 .
651(13) 0.0 0.0 .
661(14) 0.0 0.0 .
628(14) 0.0 0.0 .
636(14) 0.0 0.0 .
665(13) 0.0 0.0 .
688(14) 0.0 0.0 .
642(13) 0.0 0.0 .
624(14) 0.0 0.0 .
637(13) 0.0 0.0 .
650(13) 0.0 0.0 .
639(13) 0.0 0.0 .
629(13) 0.0 0.0 .
632(14) 0.0 0.0 .
610(13) 0.0 0.0 .
631(13) 0.0 0.0 .
645(13) 0.0 0.0 .
635(14) 0.0 0.0 .
634(14) 0.0 0.0 .
661(14) 0.0 0.0 .
624(13) 0.0 0.0 .
635(14) 0.0 0.0 .
606(13) 0.0 0.0 .
646(14) 0.0 0.0 .
628(13) 0.0 0.0 .
653(13) 0.0 0.0 .
641(14) 0.0 0.0 .
657(14) 0.0 0.0 .
634(13) 0.0 0.0 .
640(13) 0.0 0.0 .
615(13) 0.0 0.0 .
656(14) 0.0 0.0 .
640(14) 0.0 0.0 .
684(14) 0.0 0.0 .
657(13) 0.0 0.0 .
657(13) 0.0 0.0 .
647(14) 0.0 0.0 .
665(14) 0.0 0.0 .
643(13) 0.0 0.0 .
652(13) 0.0 0.0 .
636(13) 0.0 0.0 .
633(13) 0.0 0.0 .
653(14) 0.0 0.0 .
639(13) 0.0 0.0 .
654(13) 0.0 0.0 .
655(13) 0.0 0.0 .
676(14) 0.0 0.0 .
664(14) 0.0 0.0 .
661(14) 0.0 0.0 .
618(13) 0.0 0.0 .
634(13) 0.0 0.0 .
652(14) 0.0 0.0 .
646(14) 0.0 0.0 .
664(14) 0.0 0.0 .
669(13) 0.0 0.0 .
666(14) 0.0 0.0 .
664(14) 0.0 0.0 .
658(14) 0.0 0.0 .
657(14) 0.0 0.0 .
619(13) 0.0 0.0 .
682(14) 0.0 0.0 .
657(14) 0.0 0.0 .
680(14) 0.0 0.0 .
672(14) 0.0 0.0 .
647(13) 0.0 0.0 .
627(13) 0.0 0.0 .
667(14) 0.0 0.0 .
676(14) 0.0 0.0 .
644(13) 0.0 0.0 .
646(13) 0.0 0.0 .
670(14) 0.0 0.0 .
719(15) 0.0 0.0 .
656(14) 0.0 0.0 .
670(14) 0.0 0.0 .
690(14) 0.0 0.0 .
697(14) 0.0 0.0 .
717(15) 0.0 0.0 .
735(15) 0.0 0.0 .
674(14) 0.0 0.0 .
713(14) 0.0 0.0 .
672(14) 0.0 0.0 .
703(15) 0.0 0.0 .
677(14) 0.0 0.0 .
702(14) 0.0 0.0 .
692(14) 0.0 0.0 .
724(14) 0.0 0.0 .
720(15) 0.0 0.0 .
760(15) 0.0 0.0 .
772(15) 0.0 0.0 .
716(14) 0.0 0.0 .
719(14) 0.0 0.0 .
734(15) 0.0 0.0 .
722(14) 0.0 0.0 .
721(14) 0.0 0.0 .
756(14) 0.0 0.0 .
743(15) 0.0 0.0 .
774(16) 0.0 0.0 .
780(15) 0.0 0.0 .
760(14) 0.0 0.0 .
780(15) 0.0 0.0 .
824(16) 0.0 0.0 .
818(16) 0.0 0.0 .
810(15) 0.0 0.0 .
868(15) 0.0 0.0 .
911(16) 0.0 0.0 .
834(15) 0.0 0.0 .
875(16) 0.0 0.0 .
957(17) 0.0 0.0 .
931(16) 0.0 0.0 .
971(16) 0.0 0.0 .
1018(17) 0.0 0.0 .
1076(18) 0.0 0.0 .
1129(18) 0.0 0.0 .
1095(17) 0.0 0.0 .
1180(18) 0.0 0.0 .
1245(19) 0.0 0.0 .
1309(19) 0.0 0.0 .
1339(19) 0.0 0.0 .
1386(19) 0.0 0.0 .
1496(21) 0.0 0.0 .
1540(21) 0.0 0.0 .
1629(22) 0.0 0.0 .
1624(21) 0.0 0.0 .
1633(21) 0.0 0.0 .
1804(23) 0.0 0.0 .
1954(24) 0.0 0.0 .
2154(25) 0.0 0.0 .
2358(26) 0.0 0.0 .
2549(26) 0.0 0.0 .
2826(29) 0.0 0.0 .
3191(31) 0.0 0.0 .
3644(33) 0.0 0.0 .
4182(34) 0.0 0.0 .
4816(36) 0.0 0. .
5581(40) 0.0 0. .
6454(45) 0.0 0. .
7360(46) 0.0 0. .
8502(48) 0.0 0. .
9678(51) 0.0 0. .
10891(56) 0.0 0. .
12152(62) 0.0 0. .
13413(63) 0.0 0. .
14761(64) 0.0 0. .
16237(67) 0.0 0. .
17655(72) 0.0 0. .
19582(79) 0.0 0. .
22064(81) 0.0 0. .
24668(83) 0.0 0. .
27625(89) 0.0 0. .
30905(96) 0.0 0. .
34110(110) 0.0 0. .
36760(110) 0.0 0. .
37740(100) 0.0 0. .
35840(100) 0.0 0. .
31831(99) 0.0 0. .
27253(92) 0.0 0. .
22648(82) 0.0 0. .
18776(72) 0.0 0. .
15188(66) 0.0 0. .
12923(62) 0.0 0. .
10930(57) 0.0 0. .
8984(51) 0.0 0. .
7579(45) 0.0 0. .
6605(43) 0.0 0. .
5648(41) 0.0 0. .
4943(38) 0.0 0. .
4298(35) 0.0 0.0 .
3777(32) 0.0 0.0 .
3381(31) 0.0 0.0 .
2933(29) 0.0 0.0 .
2674(28) 0.0 0.0 .
2494(26) 0.0 0.0 .
2238(25) 0.0 0.0 .
2048(25) 0.0 0.0 .
1892(24) 0.0 0.0 .
1778(23) 0.0 0.0 .
1662(21) 0.0 0.0 .
1549(20) 0.0 0.0 .
1449(21) 0.0 0.0 .
1403(20) 0.0 0.0 .
1377(20) 0.0 0.0 .
1289(19) 0.0 0.0 .
1202(18) 0.0 0.0 .
1180(18) 0.0 0.0 .
1123(18) 0.0 0.0 .
1047(17) 0.0 0.0 .
1075(17) 0.0 0.0 .
1040(17) 0.0 0.0 .
1008(17) 0.0 0.0 .
984(17) 0.0 0.0 .
969(17) 0.0 0.0 .
943(16) 0.0 0.0 .
870(15) 0.0 0.0 .
876(16) 0.0 0.0 .
889(17) 0.0 0.0 .
888(16) 0.0 0.0 .
839(15) 0.0 0.0 .
837(15) 0.0 0.0 .
808(15) 0.0 0.0 .
801(16) 0.0 0.0 .
801(15) 0.0 0.0 .
761(14) 0.0 0.0 .
788(15) 0.0 0.0 .
788(15) 0.0 0.0 .
753(15) 0.0 0.0 .
751(15) 0.0 0.0 .
770(14) 0.0 0.0 .
716(14) 0.0 0.0 .
747(15) 0.0 0.0 .
737(15) 0.0 0.0 .
682(14) 0.0 0.0 .
721(14) 0.0 0.0 .
701(14) 0.0 0.0 .
719(14) 0.0 0.0 .
744(15) 0.0 0.0 .
719(14) 0.0 0.0 .
719(14) 0.0 0.0 .
658(14) 0.0 0.0 .
672(14) 0.0 0.0 .
675(14) 0.0 0.0 .
724(14) 0.0 0.0 .
679(14) 0.0 0.0 .
704(14) 0.0 0.0 .
676(14) 0.0 0.0 .
671(14) 0.0 0.0 .
616(13) 0.0 0.0 .
662(13) 0.0 0.0 .
641(14) 0.0 0.0 .
636(14) 0.0 0.0 .
651(14) 0.0 0.0 .
648(13) 0.0 0.0 .
645(13) 0.0 0.0 .
632(14) 0.0 0.0 .
657(14) 0.0 0.0 .
646(14) 0.0 0.0 .
632(13) 0.0 0.0 .
651(13) 0.0 0.0 .
632(13) 0.0 0.0 .
616(14) 0.0 0.0 .
600(13) 0.0 0.0 .
586(13) 0.0 0.0 .
621(13) 0.0 0.0 .
606(13) 0.0 0.0 .
618(14) 0.0 0.0 .
616(13) 0.0 0.0 .
632(13) 0.0 0.0 .
620(13) 0.0 0.0 .
618(13) 0.0 0.0 .
620(14) 0.0 0.0 .
582(13) 0.0 0.0 .
583(13) 0.0 0.0 .
604(13) 0.0 0.0 .
623(13) 0.0 0.0 .
624(14) 0.0 0.0 .
583(13) 0.0 0.0 .
605(13) 0.0 0.0 .
632(13) 0.0 0.0 .
592(13) 0.0 0.0 .
616(14) 0.0 0.0 .
617(13) 0.0 0.0 .
596(13) 0.0 0.0 .
596(13) 0.0 0.0 .
600(13) 0.0 0.0 .
631(14) 0.0 0.0 .
619(13) 0.0 0.0 .
640(13) 0.0 0.0 .
616(13) 0.0 0.0 .
569(13) 0.0 0.0 .
603(13) 0.0 0.0 .
597(13) 0.0 0.0 .
581(13) 0.0 0.0 .
558(12) 0.0 0.0 .
579(13) 0.0 0.0 .
578(13) 0.0 0.0 .
609(13) 0.0 0.0 .
596(13) 0.0 0.0 .
574(13) 0.0 0.0 .
573(13) 0.0 0.0 .
618(13) 0.0 0.0 .
572(12) 0.0 0.0 .
593(13) 0.0 0.0 .
568(13) 0.0 0.0 .
595(13) 0.0 0.0 .
573(13) 0.0 0.0 .
589(13) 0.0 0.0 .
593(13) 0.00632 581.2 38.8
578(13) 0.00608 581.2 38.2
595(14) 0.00548 581.1 37.7
588(13) 0.00587 580.8 37.1
594(13) 0.00622 580.4 36.6
592(13) 0.00629 580.1 36.1
574(13) 0.00611 579.7 35.6
588(13) 0.00562 579.4 35.1
596(13) 0.00606 579.0 34.6
600(13) 0.00620 578.7 34.1
576(12) 0.00648 578.3 33.6
568(13) 0.00611 578.0 33.2
581(14) 0.00541 577.6 32.7
593(13) 0.00590 577.3 32.3
606(13) 0.00611 576.9 31.9
576(12) 0.00641 576.6 31.4
592(13) 0.00580 576.2 31.0
585(13) 0.00557 575.9 30.6
556(13) 0.00608 575.5 30.2
562(12) 0.00663 575.2 29.8
592(13) 0.00616 574.8 29.5
608(13) 0.00573 574.5 29.1
588(13) 0.00561 574.1 28.7
571(13) 0.00613 573.8 28.4
597(13) 0.00623 573.4 28.0
560(12) 0.00643 573.1 27.7
560(13) 0.00616 572.7 27.3
579(13) 0.00594 572.4 27.0
563(13) 0.00617 572.0 26.7
557(12) 0.00665 571.7 26.4
563(13) 0.00622 571.3 26.0
566(13) 0.00614 571.0 25.7
570(13) 0.00609 570.6 25.4
578(13) 0.00613 570.3 25.1
547(12) 0.00684 569.9 24.8
557(13) 0.00625 569.6 24.6
542(13) 0.00629 569.2 24.3
592(13) 0.00575 568.9 24.0
548(12) 0.00657 568.5 23.7
567(12) 0.00654 568.2 23.5
574(13) 0.00608 567.8 23.2
551(13) 0.00618 567.5 22.9
551(13) 0.00620 567.1 22.7
562(12) 0.00647 566.8 22.4
551(12) 0.00676 566.4 22.2
532(12) 0.00655 566.1 22.0
559(13) 0.00593 565.7 21.7
570(13) 0.00621 565.4 21.5
577(13) 0.00629 565.1 21.3
555(12) 0.00670 564.7 21.0
551(13) 0.00630 564.4 20.8
558(13) 0.00579 564.0 20.6
591(13) 0.00580 563.7 20.4
575(12) 0.00642 563.3 20.2
549(12) 0.00680 563.0 20.0
547(12) 0.00643 562.6 19.8
548(13) 0.00598 562.3 19.6
563(13) 0.00611 561.9 19.4
554(12) 0.00661 561.6 19.2
541(12) 0.00681 561.2 19.0
562(13) 0.00605 560.9 18.8
538(13) 0.00591 560.5 18.6
535(12) 0.00658 560.2 18.4
546(12) 0.00683 559.8 18.3
557(12) 0.00656 559.5 18.1
576(13) 0.00607 559.1 17.9
547(13) 0.00620 558.8 17.7
562(13) 0.00619 558.4 17.6
516(12) 0.00727 558.1 17.4
563(13) 0.00639 557.7 17.3
558(13) 0.00624 557.4 17.1
563(13) 0.00583 557.0 16.9
539(13) 0.00630 556.7 16.8
556(12) 0.00667 556.3 16.6
563(12) 0.00647 556.0 16.5
546(13) 0.00639 555.6 16.3
545(13) 0.00617 555.3 16.2
541(12) 0.00641 554.9 16.0
591(13) 0.00630 554.6 15.9
546(12) 0.00653 554.2 15.8
521(12) 0.00650 553.9 15.6
522(12) 0.00643 553.5 15.5
520(12) 0.00677 553.2 15.4
539(12) 0.00687 552.8 15.2
578(13) 0.00617 552.5 15.1
550(13) 0.00617 552.1 15.0
543(13) 0.00624 551.8 14.9
510(12) 0.00705 551.4 14.7
510(12) 0.00729 551.1 14.6
547(13) 0.00633 550.7 14.5
536(13) 0.00631 550.4 14.4
553(13) 0.00621 550.0 14.3
576(13) 0.00610 549.7 14.1
531(12) 0.00703 549.3 14.0
539(12) 0.00661 549.0 13.9
542(13) 0.00617 548.6 13.8
527(12) 0.00670 548.3 13.7
560(12) 0.00654 547.9 13.6
539(12) 0.00688 547.6 13.5
506(12) 0.00697 547.2 13.4
529(13) 0.00635 546.9 13.3
525(12) 0.00659 546.5 13.2
532(12) 0.00690 546.2 13.1
540(12) 0.00689 545.8 13.0
564(13) 0.00619 545.5 12.9
561(13) 0.00577 545.1 12.8
526(12) 0.00663 544.8 12.7
570(12) 0.00653 544.4 12.6
557(12) 0.00668 544.1 12.6
546(13) 0.00624 543.7 12.5
554(13) 0.00566 543.4 12.4
526(12) 0.00676 543.0 12.3
554(12) 0.00672 542.7 12.2
565(12) 0.00646 542.3 12.1
536(12) 0.00653 542.0 12.1
563(13) 0.00566 541.6 12.0
523(12) 0.00675 541.3 11.9
514(12) 0.00712 540.9 11.8
517(12) 0.00717 540.6 11.7
533(12) 0.00642 540.2 11.7
540(13) 0.00606 539.9 11.6
546(13) 0.00630 539.5 11.5
553(12) 0.00665 539.2 11.5
554(12) 0.00645 538.8 11.4
536(12) 0.00647 538.5 11.3
553(13) 0.00600 538.2 11.3
558(13) 0.00584 537.8 11.2
518(12) 0.00710 537.5 11.1
500(12) 0.00718 537.1 11.1
529(12) 0.00652 536.8 11.0
533(12) 0.00645 536.4 11.0
550(13) 0.00624 536.1 10.9
545(12) 0.00680 535.7 10.8
531(12) 0.00674 535.4 10.8
525(12) 0.00642 535.0 10.7
554(13) 0.00609 534.7 10.7
544(13) 0.00635 534.3 10.6
515(12) 0.00724 534.0 10.6
531(12) 0.00649 533.6 10.5
547(13) 0.00617 533.3 10.5
540(13) 0.00638 532.9 10.4
564(13) 0.00633 532.6 10.4
518(12) 0.00716 532.2 10.3
561(13) 0.00611 531.9 10.3
525(12) 0.00654 531.5 10.3
524(12) 0.00669 531.2 10.2
538(12) 0.00678 530.8 10.2
542(12) 0.00679 530.5 10.1
568(13) 0.00608 530.1 10.1
575(13) 0.00573 529.8 10.1
526(12) 0.00676 529.4 10.0
537(12) 0.00688 529.1 10.0
539(12) 0.00669 528.7 10.0
545(13) 0.00615 528.4 9.9
559(13) 0.00581 528.0 9.9
549(13) 0.00631 527.7 9.9
540(12) 0.00686 527.3 9.9
527(12) 0.00692 527.0 9.8
507(12) 0.00706 526.6 9.8
550(13) 0.00581 526.3 9.8
542(12) 0.00647 525.9 9.8
530(12) 0.00695 525.6 9.8
550(12) 0.00661 525.2 9.8
501(12) 0.00704 524.9 9.7
556(13) 0.00566 524.5 9.7
548(13) 0.00632 524.2 9.7
521(12) 0.00701 523.8 9.7
527(12) 0.00689 523.5 9.7
560(13) 0.00615 523.1 9.7
527(13) 0.00627 523.0 9.7
566(13) 0.00612 522.8 9.7
557(12) 0.00660 522.7 9.7
548(12) 0.00665 522.6 9.7
526(12) 0.00655 522.5 9.7
533(13) 0.00616 522.3 9.7
531(12) 0.00657 522.2 9.8
526(12) 0.00711 522.1 9.8
523(12) 0.00702 522.0 9.8
512(12) 0.00670 521.8 9.8
520(12) 0.00664 521.7 9.8
543(12) 0.00648 521.6 9.9
510(12) 0.00727 521.5 9.9
535(12) 0.00650 521.3 9.9
549(13) 0.00613 521.2 10.0
522(13) 0.00638 521.1 10.0
502(12) 0.00688 521.0 10.1
519(12) 0.00713 520.8 10.1
522(12) 0.00685 520.7 10.2
527(12) 0.00642 520.6 10.2
536(13) 0.00636 520.5 10.3
528(12) 0.00675 520.3 10.4
523(12) 0.00713 520.2 10.5
549(13) 0.00619 520.1 10.5
517(12) 0.00663 520.0 10.6
533(12) 0.00642 519.8 10.7
534(12) 0.00684 519.7 10.8
530(12) 0.00695 519.6 10.9
558(13) 0.00605 519.5 11.1
486(12) 0.00692 519.3 11.2
509(12) 0.00668 519.2 11.3
544(12) 0.00665 519.1 11.5
519(12) 0.00718 519.0 11.6
515(12) 0.00670 518.8 11.8
517(13) 0.00625 518.7 12.0
519(12) 0.00659 518.6 12.2
501(12) 0.00734 518.5 12.4
532(12) 0.00703 518.3 12.6
555(13) 0.00628 518.2 12.8
519(13) 0.00624 518.1 13.1
519(12) 0.00640 518.0 13.4
507(12) 0.00728 517.8 13.7
553(12) 0.00674 517.7 14.0
524(12) 0.00667 517.6 14.3
534(13) 0.00599 517.5 14.7
540(12) 0.00652 517.3 15.1
538(12) 0.00698 517.2 15.5
531(12) 0.00677 517.1 16.0
549(13) 0.00632 517.0 16.5
518(12) 0.00643 516.8 17.0
563(13) 0.00615 516.7 17.6
557(12) 0.00675 516.6 18.2
564(12) 0.00644 516.5 18.9
565(13) 0.00631 516.3 19.7
528(12) 0.00650 516.2 20.5
540(12) 0.00649 516.1 21.4
537(12) 0.00690 516.0 22.5
528(12) 0.00669 515.8 23.6
548(13) 0.00616 515.7 24.9
536(13) 0.00636 515.6 26.4
567(13) 0.00604 515.5 28.0
568(12) 0.00656 515.3 29.9
563(13) 0.00640 515.2 32.1
568(13) 0.00605 515.1 34.7
588(13) 0.00566 515.0 37.7
541(12) 0.00660 514.8 41.2
579(13) 0.00637 514.7 45.3
582(13) 0.00607 514.6 50.2
597(13) 0.00565 514.5 55.9
608(13) 0.00570 514.3 62.5
598(13) 0.00598 514.2 70.2
584(13) 0.00636 514.1 79.1
593(13) 0.00576 514.0 89.2
617(14) 0.00539 513.8 100.7
648(14) 0.00535 513.7 113.6
676(14) 0.00541 513.6 127.9
661(13) 0.00566 513.5 143.5
669(14) 0.00505 513.3 160.3
669(14) 0.00494 513.2 178.0
705(14) 0.00485 513.1 196.2
723(14) 0.00501 513.0 214.2
692(14) 0.00534 512.8 231.3
698(14) 0.00506 512.7 246.4
728(15) 0.00457 512.6 258.5
713(14) 0.00489 512.5 266.4
744(14) 0.00491 512.3 269.4
732(14) 0.00511 512.2 267.2
715(15) 0.00471 512.1 259.9
688(15) 0.00466 512.0 248.3
705(14) 0.00493 511.8 233.5
685(14) 0.00539 511.7 216.6
654(13) 0.00574 511.6 198.6
656(14) 0.00536 511.5 180.3
622(14) 0.00527 511.3 162.5
614(13) 0.00570 511.2 145.5
577(12) 0.00641 511.1 129.7
585(13) 0.00629 511.0 115.1
606(13) 0.00566 510.8 102.0
560(13) 0.00613 510.7 90.2
558(13) 0.00629 510.6 79.8
568(12) 0.00659 510.5 70.7
550(12) 0.00656 510.3 62.8
578(13) 0.00581 510.2 56.0
538(13) 0.00638 510.1 50.1
556(13) 0.00623 510.0 45.1
564(12) 0.00663 509.8 40.8
532(12) 0.00669 509.7 37.2
516(12) 0.00697 509.6 34.1
526(13) 0.00630 509.5 31.4
515(12) 0.00674 509.3 29.1
504(12) 0.00741 509.2 27.1
534(12) 0.00680 509.1 25.4
500(12) 0.00711 509.0 23.8
517(13) 0.00625 508.8 22.5
533(12) 0.00644 508.7 21.3
530(12) 0.00704 508.6 20.2
514(12) 0.00672 508.5 19.2
536(13) 0.00633 508.3 18.3
530(13) 0.00628 508.2 17.5
547(13) 0.00633 508.1 16.7
552(12) 0.00676 508.0 16.0
555(13) 0.00609 507.8 15.4
508(12) 0.00661 507.7 14.8
517(12) 0.00649 507.6 14.2
498(12) 0.00726 507.5 13.7
518(12) 0.00716 507.3 13.2
479(12) 0.00718 507.2 12.8
485(12) 0.00700 507.1 12.3
541(13) 0.00638 507.0 12.0
516(12) 0.00706 506.8 11.6
492(11) 0.00766 506.7 11.2
527(12) 0.00649 506.6 10.9
502(12) 0.00651 506.5 10.6
480(12) 0.00717 506.3 10.3
501(12) 0.00722 506.2 10.0
506(12) 0.00737 506.1 9.8
509(12) 0.00671 506.0 9.5
523(13) 0.00638 505.8 9.3
508(12) 0.00678 505.7 9.1
500(12) 0.00737 505.6 8.9
524(12) 0.00700 505.5 8.7
496(12) 0.00688 505.3 8.5
525(13) 0.00596 505.2 8.3
502(12) 0.00696 505.1 8.1
530(12) 0.00702 505.0 7.9
537(12) 0.00678 504.8 7.8
488(12) 0.00707 504.7 7.6
496(13) 0.00639 504.6 7.5
491(12) 0.00684 504.5 7.3
516(12) 0.00729 504.3 7.2
519(12) 0.00693 504.2 7.1
501(12) 0.00717 504.1 7.0
519(12) 0.00652 504.0 6.8
506(12) 0.00680 503.8 6.7
509(12) 0.00726 503.7 6.6
517(12) 0.00697 503.6 6.5
507(12) 0.00689 503.5 6.4
512(12) 0.00656 503.3 6.3
508(12) 0.00666 503.2 6.2
536(12) 0.00692 503.1 6.1
516(12) 0.00702 503.0 6.0
510(12) 0.00683 502.8 5.9
508(12) 0.00684 502.7 5.9
510(12) 0.00689 502.6 5.8
518(12) 0.00718 502.5 5.7
530(12) 0.00662 502.3 5.6
494(12) 0.00717 502.2 5.6
512(12) 0.00675 502.1 5.5
504(12) 0.00686 502.0 5.4
517(12) 0.00725 501.8 5.4
531(12) 0.00650 501.7 5.3
515(12) 0.00649 501.6 5.2
489(12) 0.00716 501.5 5.2
513(12) 0.00699 501.3 5.1
478(11) 0.00773 501.2 5.1
505(12) 0.00686 501.1 5.0
476(12) 0.00708 501.0 4.9
505(12) 0.00669 500.8 4.9
511(12) 0.00720 500.7 4.8
520(12) 0.00719 500.6 4.8
496(12) 0.00700 500.5 4.7
487(12) 0.00675 500.3 4.7
491(12) 0.00696 500.2 4.6
476(11) 0.00785 500.1 4.6
478(11) 0.00783 500.0 4.6
517(12) 0.00657 499.8 4.5
528(13) 0.00618 499.7 4.5
484(12) 0.00711 499.6 4.4
468(11) 0.00786 499.5 4.4
499(12) 0.00729 499.3 4.3
487(12) 0.00713 499.2 4.3
480(12) 0.00674 499.1 4.3
506(12) 0.00698 499.0 4.2
493(12) 0.00745 498.8 4.2
500(12) 0.00734 498.7 4.2
484(12) 0.00722 498.6 4.1
505(13) 0.00637 498.5 4.1
524(12) 0.00670 498.3 4.1
528(12) 0.00701 498.2 4.0
487(12) 0.00738 498.1 4.0
474(12) 0.00735 498.0 4.0
489(12) 0.00679 497.8 3.9
492(12) 0.00715 497.7 3.9
486(11) 0.00761 497.6 3.9
473(11) 0.00786 497.5 3.8
494(12) 0.00691 497.3 3.8
497(12) 0.00657 497.2 3.8
508(12) 0.00676 497.1 3.8
490(12) 0.00752 497.0 3.7
503(12) 0.00714 496.8 3.7
496(12) 0.00710 496.7 3.7
475(12) 0.00719 496.6 3.6
498(12) 0.00703 496.5 3.6
496(12) 0.00756 496.3 3.6
506(12) 0.00701 496.2 3.6
495(12) 0.00704 496.1 3.5
514(12) 0.00673 496.0 3.5
513(12) 0.00706 495.8 3.5
514(12) 0.00723 495.7 3.5
508(12) 0.00686 495.6 3.5
481(12) 0.00703 495.6 3.4
494(12) 0.00695 495.6 3.4
485(11) 0.00757 495.5 3.4
494(12) 0.00747 495.5 3.4
485(12) 0.00723 495.5 3.3
512(12) 0.00642 495.5 3.3
466(11) 0.00757 495.4 3.3
472(11) 0.00765 495.4 3.3
482(11) 0.00776 495.4 3.3
510(12) 0.00662 495.3 3.2
494(12) 0.00691 495.3 3.2
529(12) 0.00648 495.3 3.2
501(12) 0.00731 495.3 3.2
514(12) 0.00729 495.2 3.2
493(12) 0.00712 495.2 3.2
529(13) 0.00626 495.2 3.1
504(12) 0.00713 495.2 3.1
503(12) 0.00736 495.1 3.1
509(12) 0.00726 495.1 3.1
484(12) 0.00707 495.1 3.1
495(12) 0.00642 495.0 3.0
495(12) 0.00700 495.0 3.0
493(12) 0.00746 495.0 3.0
483(11) 0.00769 495.0 3.0
498(12) 0.00707 494.9 3.0
498(12) 0.00657 494.9 3.0
499(12) 0.00694 494.9 2.9
506(12) 0.00735 494.9 2.9
503(12) 0.00739 494.8 2.9
488(12) 0.00719 494.8 2.9
476(12) 0.00696 494.8 2.9
519(12) 0.00662 494.7 2.9
516(12) 0.00720 494.7 2.9
507(12) 0.00730 494.7 2.8
463(11) 0.00761 494.7 2.8
462(12) 0.00706 494.6 2.8
464(12) 0.00734 494.6 2.8
518(12) 0.00715 494.6 2.8
506(12) 0.00708 494.6 2.8
520(12) 0.00661 494.5 2.8
482(12) 0.00701 494.5 2.7
478(12) 0.00720 494.5 2.7
523(12) 0.00707 494.4 2.7
514(12) 0.00693 494.4 2.7
503(12) 0.00667 494.4 2.7
506(12) 0.00658 494.4 2.7
486(12) 0.00729 494.3 2.7
502(12) 0.00739 494.3 2.7
513(12) 0.00688 494.3 2.6
535(12) 0.00641 494.3 2.6
494(12) 0.00725 494.2 2.6
501(12) 0.00721 494.2 2.6
525(12) 0.00712 494.2 2.6
486(12) 0.00730 494.1 2.6
497(12) 0.00689 494.1 2.6
482(12) 0.00729 494.1 2.6
510(12) 0.00713 494.1 2.6
533(12) 0.00695 494.0 2.5
512(12) 0.00659 494.0 2.5
496(12) 0.00688 494.0 2.5
527(12) 0.00650 494.0 2.5
520(12) 0.00689 493.9 2.5
493(11) 0.00757 493.9 2.5
510(12) 0.00685 493.9 2.5
502(12) 0.00663 493.8 2.5
518(12) 0.00673 493.8 2.5
524(12) 0.00715 493.8 2.4
507(12) 0.00727 493.8 2.4
473(12) 0.00747 493.7 2.4
499(12) 0.00653 493.7 2.4
496(12) 0.00718 493.7 2.4
521(12) 0.00709 493.7 2.4
507(12) 0.00718 493.6 2.4
496(12) 0.00702 493.6 2.4
529(13) 0.00603 493.6 2.4
535(12) 0.00654 493.5 2.4
493(12) 0.00748 493.5 2.3
489(12) 0.00756 493.5 2.3
520(12) 0.00662 493.5 2.3
501(12) 0.00642 493.4 2.3
497(12) 0.00700 493.4 2.3
511(12) 0.00726 493.4 2.3
534(12) 0.00692 493.4 2.3
513(12) 0.00677 493.3 2.3
506(12) 0.00665 493.3 2.3
539(13) 0.00624 493.3 2.3
527(12) 0.00700 493.2 2.3
483(11) 0.00763 493.2 2.3
510(12) 0.00681 493.2 2.2
508(12) 0.00680 493.2 2.2
539(13) 0.00628 493.1 2.2
500(12) 0.00740 493.1 2.2
500(12) 0.00724 493.1 2.2
513(12) 0.00696 493.1 2.2
532(12) 0.00655 493.0 2.2
519(12) 0.00671 493.0 2.2
528(12) 0.00710 493.0 2.2
508(12) 0.00683 492.9 2.2
470(11) 0.00757 492.9 2.2
529(13) 0.00636 492.9 2.2
527(12) 0.00687 492.9 2.1
515(12) 0.00724 492.8 2.1
503(12) 0.00708 492.8 2.1
500(12) 0.00676 492.8 2.1
483(12) 0.00730 492.8 2.1
537(12) 0.00676 492.7 2.1
519(12) 0.00711 492.7 2.1
489(12) 0.00712 492.7 2.1
514(12) 0.00657 492.6 2.1
487(12) 0.00709 492.6 2.1
492(12) 0.00730 492.6 2.1
506(12) 0.00739 492.6 2.1
495(12) 0.00725 492.5 2.1
493(12) 0.00676 492.5 2.1
508(12) 0.00669 492.5 2.1
478(11) 0.00762 492.4 2.0
464(11) 0.00802 492.4 2.0
479(12) 0.00712 492.4 2.0
490(12) 0.00653 492.4 2.0
478(12) 0.00716 492.3 2.0
476(11) 0.00768 492.3 2.0
502(12) 0.00736 492.3 2.0
483(12) 0.00744 492.3 2.0
489(12) 0.00644 492.2 2.0
480(12) 0.00729 492.2 2.0
514(12) 0.00719 492.2 2.0
497(12) 0.00756 492.1 2.0
474(12) 0.00729 492.1 2.0
475(12) 0.00681 492.1 2.0
469(12) 0.00728 492.1 2.0
485(11) 0.00760 492.0 2.0
501(12) 0.00728 492.0 1.9
481(12) 0.00732 492.0 1.9
482(12) 0.00696 492.0 1.9
524(12) 0.00658 491.9 1.9
496(12) 0.00756 491.9 1.9
469(11) 0.00774 491.9 1.9
518(12) 0.00655 491.8 1.9
496(12) 0.00683 491.8 1.9
501(12) 0.00700 491.8 1.9
486(11) 0.00764 491.8 1.9
510(12) 0.00697 491.7 1.9
485(12) 0.00703 491.7 1.9
494(12) 0.00694 491.7 1.9
485(12) 0.00718 491.7 1.9
478(11) 0.00769 491.6 1.9
473(11) 0.00761 491.6 1.9
480(12) 0.00721 491.6 1.9
501(12) 0.00681 491.5 1.9
496(12) 0.00716 491.5 1.9
469(11) 0.00787 491.5 1.9
508(12) 0.00671 491.5 1.8
466(12) 0.00749 491.4 1.8
509(12) 0.00690 491.4 1.8
491(12) 0.00741 491.4 1.8
533(12) 0.00691 491.4 1.8
502(12) 0.00700 491.3 1.8
502(12) 0.00671 491.3 1.8
488(12) 0.00727 491.3 1.8
503(12) 0.00737 491.2 1.8
458(11) 0.00806 491.2 1.8
495(12) 0.00689 491.2 1.8
502(12) 0.00659 491.2 1.8
472(12) 0.00743 491.1 1.8
489(12) 0.00749 491.1 1.8
523(12) 0.00714 491.1 1.8
520(12) 0.00666 491.1 1.8
512(12) 0.00644 491.0 2.2
508(12) 0.00683 491.0 2.2
492(12) 0.00743 491.0 2.2
473(11) 0.00781 490.9 2.2
496(12) 0.00683 490.9 2.2
482(13) 0.00639 490.9 2.2
497(12) 0.00692 490.9 2.2
492(11) 0.00757 490.8 2.2
488(12) 0.00741 490.8 2.2
473(12) 0.00739 490.8 2.2
529(13) 0.00606 490.8 2.2
491(12) 0.00714 490.7 2.2
483(11) 0.00761 490.7 2.2
489(12) 0.00751 490.7 2.2
500(12) 0.00700 490.6 2.2
470(12) 0.00731 490.6 2.2
497(12) 0.00706 490.6 2.2
517(12) 0.00722 490.6 2.2
501(12) 0.00722 490.5 2.2
463(11) 0.00767 490.5 2.2
505(12) 0.00666 490.5 2.2
513(12) 0.00668 490.5 2.2
474(11) 0.00787 490.4 2.2
474(11) 0.00763 490.4 2.2
484(12) 0.00722 490.4 2.2
508(12) 0.00656 490.3 2.2
467(12) 0.00738 490.3 2.2
496(12) 0.00747 490.3 2.2
510(12) 0.00697 490.3 2.2
516(12) 0.00653 490.2 2.2
505(12) 0.00671 490.2 2.2
489(12) 0.00716 490.2 2.2
476(11) 0.00776 490.2 2.2
475(12) 0.00727 490.1 2.2
462(12) 0.00736 490.1 2.2
463(12) 0.00733 490.1 2.2
490(12) 0.00730 490.0 2.2
492(12) 0.00756 490.0 2.2
522(12) 0.00646 490.0 2.2
513(13) 0.00636 490.0 2.2
521(12) 0.00643 489.9 2.2
479(11) 0.00768 489.9 2.2
447(11) 0.00823 489.9 2.2
470(12) 0.00735 489.9 2.2
484(12) 0.00674 489.8 2.2
484(12) 0.00712 489.8 2.2
524(12) 0.00699 489.8 2.2
505(12) 0.00732 489.7 2.2
482(12) 0.00728 489.7 2.2
493(12) 0.00650 489.7 2.2
500(12) 0.00700 489.7 2.2
504(12) 0.00724 489.6 2.2
523(12) 0.00713 489.6 2.2
510(12) 0.00674 489.6 2.2
495(12) 0.00661 489.6 2.2
512(12) 0.00679 489.5 2.2
501(12) 0.00749 489.5 2.2
508(12) 0.00715 489.5 2.2
489(12) 0.00706 489.4 2.2
486(12) 0.00656 489.4 2.2
476(12) 0.00728 489.4 2.2
497(12) 0.00749 489.4 2.3
483(11) 0.00763 489.5 2.3
484(12) 0.00717 489.6 2.3
487(12) 0.00658 489.6 2.3
493(12) 0.00707 489.7 2.3
515(12) 0.00722 489.8 2.3
488(12) 0.00751 489.8 2.3
529(13) 0.00636 489.9 2.3
493(12) 0.00669 490.0 2.3
509(12) 0.00676 490.0 2.3
516(12) 0.00723 490.1 2.3
507(12) 0.00720 490.2 2.3
508(12) 0.00672 490.2 2.3
477(12) 0.00702 490.3 2.3
500(12) 0.00695 490.4 2.4
486(11) 0.00773 490.4 2.4
498(12) 0.00720 490.5 2.4
485(12) 0.00697 490.6 2.4
476(12) 0.00708 490.6 2.4
490(12) 0.00733 490.7 2.4
469(11) 0.00794 490.8 2.4
492(12) 0.00697 490.8 2.4
494(12) 0.00676 490.9 2.4
466(12) 0.00749 491.0 2.5
503(12) 0.00701 491.1 2.5
496(12) 0.00745 491.1 2.5
474(12) 0.00723 491.2 2.5
487(12) 0.00679 491.3 2.5
460(11) 0.00773 491.3 2.5
489(12) 0.00720 491.4 2.5
476(11) 0.00782 491.5 3.0
478(12) 0.00744 491.5 3.0
516(12) 0.00648 491.6 3.0
500(12) 0.00705 491.7 3.0
478(12) 0.00746 491.7 3.1
485(11) 0.00769 491.8 3.1
511(12) 0.00683 491.9 3.1
460(12) 0.00742 491.9 3.1
481(12) 0.00716 492.0 3.1
504(12) 0.00737 492.1 3.2
496(12) 0.00747 492.1 3.2
490(12) 0.00718 492.2 3.2
523(13) 0.00602 492.3 3.2
488(12) 0.00712 492.4 3.3
479(11) 0.00775 492.4 3.3
490(11) 0.00761 492.5 3.3
455(11) 0.00780 492.6 3.4
459(12) 0.00714 492.6 3.4
488(12) 0.00723 492.7 3.4
498(12) 0.00750 492.8 3.5
485(11) 0.00766 492.8 3.5
487(12) 0.00731 492.9 3.6
509(13) 0.00640 493.0 3.6
482(12) 0.00737 493.0 3.6
495(12) 0.00754 493.1 3.7
475(11) 0.00763 493.2 3.7
497(12) 0.00708 493.2 3.8
503(12) 0.00678 493.3 3.8
519(12) 0.00666 493.4 3.9
503(12) 0.00740 493.4 4.0
506(12) 0.00714 493.5 4.0
508(12) 0.00670 493.6 4.1
474(12) 0.00700 493.7 4.2
500(12) 0.00699 493.7 4.2
490(11) 0.00757 493.8 4.3
497(12) 0.00700 493.9 4.4
521(12) 0.00663 493.9 4.5
487(12) 0.00720 494.0 4.6
478(12) 0.00738 494.1 4.7
512(12) 0.00730 494.1 4.8
491(12) 0.00715 494.2 4.9
524(12) 0.00641 494.3 5.1
511(12) 0.00659 494.3 5.2
481(12) 0.00731 494.4 5.3
495(12) 0.00753 494.5 5.5
478(12) 0.00730 494.5 5.7
475(12) 0.00705 494.6 5.9
473(12) 0.00735 494.7 6.1
486(12) 0.00735 494.7 6.3
492(12) 0.00751 494.8 6.6
487(12) 0.00705 494.9 6.8
482(12) 0.00706 494.9 7.1
480(12) 0.00722 495.0 7.5
508(12) 0.00706 495.1 7.8
508(12) 0.00734 495.2 8.2
487(12) 0.00740 495.2 8.6
516(13) 0.00640 495.3 9.1
497(12) 0.00684 495.4 9.6
500(12) 0.00723 495.4 10.1
491(11) 0.00761 495.5 10.7
503(12) 0.00695 495.6 11.3
502(13) 0.00635 495.6 12.0
505(12) 0.00690 495.7 12.7
506(12) 0.00733 495.8 13.4
505(12) 0.00731 495.8 14.2
467(12) 0.00746 495.9 15.1
477(12) 0.00684 496.0 16.0
526(12) 0.00657 496.0 16.9
516(12) 0.00711 496.1 17.9
523(12) 0.00701 496.2 18.9
490(12) 0.00726 496.2 19.9
522(13) 0.00634 496.3 20.9
547(13) 0.00618 496.4 21.9
492(12) 0.00756 496.5 22.9
507(12) 0.00730 496.5 23.9
525(12) 0.00667 496.6 24.8
484(12) 0.00677 496.7 25.6
484(12) 0.00697 496.7 26.2
516(12) 0.00724 496.8 26.8
477(12) 0.00753 496.9 27.2
481(12) 0.00721 496.9 27.4
528(13) 0.00606 497.0 27.4
458(12) 0.00753 497.1 27.2
473(11) 0.00786 497.1 26.9
509(12) 0.00707 497.2 26.4
513(12) 0.00675 497.3 25.7
501(12) 0.00667 497.3 25.0
496(12) 0.00714 497.4 24.1
500(12) 0.00743 497.5 23.2
499(12) 0.00703 497.5 22.2
502(12) 0.00672 497.6 21.2
487(12) 0.00710 497.7 20.2
477(12) 0.00741 497.7 19.2
484(11) 0.00767 497.8 18.2
481(12) 0.00739 497.9 17.2
500(12) 0.00670 498.0 16.3
524(12) 0.00654 498.0 15.4
510(12) 0.00708 498.1 14.6
520(12) 0.00714 498.2 13.8
503(12) 0.00702 498.2 13.0
530(13) 0.00623 498.3 12.3
485(12) 0.00714 498.4 11.7
482(12) 0.00736 498.4 11.1
480(11) 0.00782 498.5 10.5
501(12) 0.00693 498.6 10.0
474(12) 0.00704 498.6 9.5
471(12) 0.00745 498.7 9.0
488(12) 0.00755 498.8 8.6
530(12) 0.00695 498.8 8.2
493(12) 0.00699 498.9 7.9
533(13) 0.00588 499.0 7.6
495(12) 0.00715 499.0 7.3
480(11) 0.00768 499.1 7.0
506(12) 0.00731 499.2 6.8
486(12) 0.00720 499.3 6.6
465(12) 0.00707 499.3 6.4
488(12) 0.00724 499.4 6.2
518(12) 0.00707 499.5 6.0
508(12) 0.00728 499.5 5.9
494(12) 0.00686 499.6 5.7
479(12) 0.00721 499.7 5.6
514(12) 0.00686 499.7 5.5
490(12) 0.00749 499.8 5.4
479(12) 0.00747 499.9 5.3
530(12) 0.00659 499.9 5.2
517(13) 0.00632 500.0 5.1
507(12) 0.00689 500.1 5.0
513(12) 0.00723 500.1 5.0
503(12) 0.00730 500.2 4.9
532(13) 0.00638 500.3 4.8
509(12) 0.00676 500.3 4.8
476(12) 0.00743 500.4 4.7
494(12) 0.00749 500.5 4.7
497(12) 0.00727 500.6 4.6
498(12) 0.00698 500.6 4.6
527(13) 0.00634 500.7 4.5
503(12) 0.00690 500.8 4.5
521(12) 0.00714 500.8 4.5
505(12) 0.00697 500.9 4.4
479(12) 0.00729 501.0 4.4
492(12) 0.00707 501.0 4.4
494(12) 0.00719 501.1 4.4
521(12) 0.00712 501.2 4.3
531(12) 0.00645 501.2 4.3
496(12) 0.00675 501.3 4.3
484(12) 0.00716 501.4 4.3
480(12) 0.00736 501.4 4.3
482(11) 0.00772 501.5 4.3
523(12) 0.00658 501.6 4.2
512(12) 0.00646 501.6 4.2
487(12) 0.00707 501.7 4.2
472(12) 0.00754 501.8 4.2
492(12) 0.00756 501.8 4.2
491(12) 0.00699 501.9 4.2
504(12) 0.00659 502.0 4.2
492(12) 0.00693 502.1 4.2
473(11) 0.00771 502.1 4.2
474(11) 0.00779 502.2 4.2
512(12) 0.00673 502.3 4.2
539(13) 0.00604 502.3 4.2
528(12) 0.00655 502.4 4.2
486(11) 0.00768 502.5 4.2
499(12) 0.00733 502.5 4.2
509(12) 0.00675 502.6 4.2
497(13) 0.00633 502.7 4.2
507(12) 0.00671 502.7 4.2
474(11) 0.00781 502.8 4.2
487(11) 0.00773 502.9 4.2
513(12) 0.00678 502.9 4.2
513(13) 0.00630 503.0 4.2
489(12) 0.00722 503.1 4.2
505(12) 0.00733 503.1 4.3
516(12) 0.00726 503.2 4.3
508(12) 0.00679 503.3 4.3
507(12) 0.00644 503.4 4.3
475(12) 0.00744 503.4 4.3
478(11) 0.00783 503.5 4.3
530(12) 0.00678 503.6 4.3
495(12) 0.00713 503.6 4.3
472(12) 0.00739 503.7 4.4
518(12) 0.00658 503.8 4.4
506(12) 0.00737 503.8 4.4
538(12) 0.00676 503.9 4.4
519(12) 0.00684 504.0 4.4
532(13) 0.00631 504.0 4.4
504(12) 0.00685 504.1 4.5
502(12) 0.00745 504.2 4.5
518(12) 0.00679 504.2 4.5
483(12) 0.00710 504.3 4.5
481(12) 0.00711 504.4 4.5
495(12) 0.00685 504.4 4.6
492(11) 0.00760 504.5 4.6
490(12) 0.00728 504.6 4.6
502(12) 0.00671 504.6 4.6
487(12) 0.00719 504.7 4.7
482(12) 0.00740 504.8 4.7
509(12) 0.00731 504.9 4.7
510(12) 0.00669 504.9 4.8
513(12) 0.00657 505.0 4.8
484(12) 0.00707 505.1 4.8
482(12) 0.00748 505.1 4.8
529(12) 0.00700 505.2 4.9
522(12) 0.00659 505.3 4.9
524(12) 0.00642 505.3 4.9
543(12) 0.00642 505.4 5.0
525(12) 0.00696 505.5 5.0
525(12) 0.00708 505.5 5.0
517(12) 0.00674 505.6 5.1
553(13) 0.00592 505.7 5.1
541(12) 0.00652 505.7 5.2
498(12) 0.00740 505.8 5.2
529(12) 0.00706 505.9 5.2
501(12) 0.00699 505.9 5.3
539(13) 0.00597 506.0 5.3
554(13) 0.00612 506.1 5.4
501(12) 0.00735 506.2 5.4
499(12) 0.00731 506.2 5.4
476(12) 0.00750 506.3 5.5
503(13) 0.00637 506.4 5.5
496(12) 0.00699 506.4 5.6
529(12) 0.00706 506.5 5.6
524(12) 0.00706 506.6 5.7
518(12) 0.00653 506.6 5.7
471(12) 0.00688 506.7 5.8
475(12) 0.00735 506.8 5.8
510(12) 0.00735 506.8 5.9
517(12) 0.00703 506.9 5.9
511(12) 0.00697 507.0 6.0
532(13) 0.00615 507.0 6.1
512(12) 0.00691 507.1 6.1
544(12) 0.00680 507.2 6.2
540(12) 0.00670 507.2 6.2
526(12) 0.00650 507.3 6.3
525(13) 0.00639 507.4 6.4
495(12) 0.00704 507.5 6.4
491(12) 0.00755 507.5 6.5
494(12) 0.00732 507.6 6.6
505(12) 0.00698 507.7 6.7
527(13) 0.00636 507.7 6.7
495(12) 0.00723 507.8 6.8
490(12) 0.00756 507.9 6.9
507(12) 0.00717 507.9 7.0
528(12) 0.00646 508.0 7.0
527(13) 0.00628 508.1 7.1
508(12) 0.00693 508.2 7.2
525(12) 0.00709 508.4 7.3
507(12) 0.00694 508.7 7.4
490(12) 0.00712 508.9 7.5
510(12) 0.00679 509.1 7.6
507(12) 0.00710 509.4 7.7
512(12) 0.00724 509.6 7.8
488(12) 0.00683 509.8 7.9
523(12) 0.00640 510.0 8.0
520(12) 0.00663 510.3 8.1
490(12) 0.00748 510.5 8.2
507(12) 0.00730 510.7 8.3
515(12) 0.00678 511.0 8.4
512(12) 0.00648 511.2 8.5
500(12) 0.00697 511.4 8.7
507(12) 0.00720 511.6 8.8
500(12) 0.00750 511.9 8.9
506(12) 0.00669 512.1 9.0
509(12) 0.00651 512.3 9.2
513(12) 0.00687 512.6 9.3
521(12) 0.00707 512.8 9.5
532(12) 0.00694 513.0 9.6
513(12) 0.00689 513.3 9.8
498(12) 0.00643 513.5 9.9
500(12) 0.00706 513.7 10.1
496(12) 0.00749 513.9 10.3
509(12) 0.00727 514.2 10.4
499(12) 0.00694 514.4 10.6
494(12) 0.00680 514.6 10.8
502(12) 0.00701 514.9 11.0
552(12) 0.00675 515.1 11.2
531(12) 0.00702 515.3 11.4
515(12) 0.00680 515.5 11.6
505(12) 0.00654 515.8 11.8
515(12) 0.00671 516.0 12.0
533(12) 0.00698 516.2 12.2
509(12) 0.00714 516.5 12.5
517(12) 0.00674 516.7 12.7
523(12) 0.00654 516.9 13.0
508(12) 0.00695 517.1 13.2
525(12) 0.00706 517.4 13.5
517(12) 0.00678 517.6 13.8
502(12) 0.00687 517.8 14.1
519(12) 0.00648 518.1 14.4
514(12) 0.00677 518.3 14.7
523(12) 0.00707 518.5 15.0
511(12) 0.00704 518.7 15.4
535(12) 0.00640 519.0 15.7
567(13) 0.00588 519.2 16.1
522(12) 0.00693 519.4 16.4
490(11) 0.00762 519.7 16.8
515(12) 0.00693 519.9 17.2
514(12) 0.00652 520.1 17.7
524(12) 0.00651 520.3 18.1
558(13) 0.00632 520.6 18.6
510(12) 0.00728 520.8 19.0
476(12) 0.00730 521.0 19.5
518(12) 0.00664 521.3 20.1
582(13) 0.00584 521.5 20.6
571(13) 0.00627 521.7 21.2
549(12) 0.00683 522.0 21.8
521(12) 0.00663 522.2 22.4
543(13) 0.00609 522.4 23.1
540(12) 0.00661 522.6 23.7
519(12) 0.00698 522.9 24.5
519(12) 0.00710 523.1 25.2
534(12) 0.00663 523.3 26.0
541(13) 0.00612 523.6 26.8
539(12) 0.00640 523.8 27.7
521(12) 0.00705 524.0 28.6
558(12) 0.00670 524.2 29.6
522(12) 0.00662 524.5 30.6
525(13) 0.00620 524.7 31.7
538(12) 0.00641 524.9 32.9
551(12) 0.00667 525.2 34.1
553(12) 0.00667 525.4 35.4
590(13) 0.00570 525.6 36.7
592(14) 0.00532 525.8 38.2
587(13) 0.00598 526.1 39.7
562(12) 0.00664 526.3 41.4
527(12) 0.00688 526.5 43.1
523(12) 0.00671 526.8 45.0
547(13) 0.00599 527.0 47.0
548(12) 0.00644 527.2 49.1
562(12) 0.00666 527.4 51.4
565(12) 0.00643 527.7 53.8
547(12) 0.00647 527.9 56.5
577(13) 0.00578 528.1 59.3
564(13) 0.00597 528.4 62.4
595(13) 0.00619 528.6 65.7
575(13) 0.00631 528.8 69.3
534(12) 0.00664 529.0 73.2
575(13) 0.00589 529.3 77.4
570(13) 0.00627 529.5 82.1
566(12) 0.00660 529.7 87.2
563(13) 0.00630 530.0 92.8
597(13) 0.00587 530.2 98.9
613(13) 0.00552 530.4 105.6
601(13) 0.00594 530.6 113.1
615(13) 0.00603 530.9 121.4
631(13) 0.00562 531.1 130.6
636(13) 0.00554 531.3 140.9
726(15) 0.00471 531.6 152.6
672(14) 0.00537 531.8 165.9
689(14) 0.00536 532.0 181.1
734(15) 0.00467 532.3 198.9
720(15) 0.00475 532.5 219.9
788(15) 0.00437 532.7 245.4
809(15) 0.00441 532.9 276.7
880(15) 0.00424 533.2 316.2
924(16) 0.00378 533.4 366.6
1013(17) 0.003290 533.6 431.7
1097(18) 0.003175 533.9 516.0
1279(19) 0.002809 534.1 624.8
1359(19) 0.002735 534.3 763.7
1529(21) 0.002254 534.5 938.2
1742(23) 0.001865 534.8 1152.7
1913(23) 0.001815 535.0 1410.2
2224(25) 0.001647 535.2 1710.3
2582(26) 0.001438 535.5 2048.3
2831(29) 0.001224 535.7 2413.7
3206(32) 0.001003 535.9 2787.5
3557(32) 0.000970 536.1 3140.3
3938(33) 0.000935 536.4 3431.8
4313(34) 0.000855 536.6 3617.2
4434(36) 0.000782 537. 3662.
4278(37) 0.000749 537. 3556.
3935(34) 0.000876 537.3 3320.6
3499(31) 0.001061 537.5 2998.1
3048(29) 0.001185 537.7 2632.3
2653(28) 0.001293 538.0 2259.0
2370(27) 0.001359 538.2 1903.4
2053(24) 0.001721 538.4 1580.3
1872(22) 0.001986 538.7 1297.7
1610(21) 0.002260 538.9 1058.3
1471(21) 0.002369 539.1 860.9
1347(20) 0.002426 539.3 702.0
1224(19) 0.002836 539.6 576.3
1130(17) 0.003301 539.8 478.4
1083(17) 0.003363 540.0 402.7
982(17) 0.00358 540.3 344.2
900(16) 0.00380 540.5 298.8
859(16) 0.00403 540.7 263.0
828(15) 0.00447 541.0 234.4
806(15) 0.00433 541.2 211.0
766(15) 0.00455 541.4 191.4
773(15) 0.00436 541.6 174.8
731(14) 0.00488 541.9 160.4
708(14) 0.00524 542.1 147.9
695(14) 0.00493 542.3 136.8
654(14) 0.00526 542.6 127.0
649(14) 0.00526 542.8 118.2
609(13) 0.00586 543.0 110.3
634(13) 0.00583 543.2 103.1
617(13) 0.00558 543.5 96.7
631(14) 0.00542 543.7 90.8
610(13) 0.00569 543.9 85.5
580(13) 0.00620 544.2 80.6
612(13) 0.00601 544.4 76.2
565(13) 0.00621 544.6 72.1
586(13) 0.00561 544.8 68.4
591(13) 0.00574 545.1 64.9
587(13) 0.00612 545.3 61.7
608(13) 0.00615 545.5 58.7
621(13) 0.00557 545.8 56.0
570(13) 0.00568 546.0 53.5
553(13) 0.00634 546.2 51.1
567(12) 0.00656 546.4 48.9
547(12) 0.00679 546.7 46.8
598(13) 0.00581 546.9 44.9
553(13) 0.00593 547.1 43.1
545(13) 0.00639 547.4 41.4
582(13) 0.00637 547.6 39.8
614(13) 0.00607 547.8 38.4
569(13) 0.00606 548.0 37.0
586(14) 0.00532 548.3 35.7
575(13) 0.00612 548.5 34.4
587(13) 0.00632 548.7 33.2
531(12) 0.00699 549.0 32.1
534(12) 0.00665 549.2 31.1
551(13) 0.00593 549.4 30.1
548(13) 0.00623 549.7 29.2
556(12) 0.00659 549.9 28.3
578(13) 0.00634 550.1 27.4
584(13) 0.00615 550.3 26.6
571(13) 0.00604 550.6 25.9
606(13) 0.00569 550.8 25.2
571(12) 0.00650 551.0 24.5
553(12) 0.00645 551.3 23.8
574(13) 0.00593 551.5 23.2
579(13) 0.00585 551.7 22.6
572(13) 0.00605 551.9 22.0
541(12) 0.00685 552.2 21.5
565(13) 0.00631 552.4 21.0
539(12) 0.00660 552.6 20.5
581(13) 0.00579 552.9 20.0
550(12) 0.00640 553.1 19.5
605(13) 0.00612 553.3 19.1
539(12) 0.00670 553.5 18.7
552(13) 0.00621 553.8 18.3
586(13) 0.00583 554.0 17.9
565(13) 0.00634 554.2 17.5
548(12) 0.00680 554.5 17.2
558(13) 0.00630 554.7 16.8
541(13) 0.00621 554.9 16.5
538(13) 0.00634 555.1 16.2
553(12) 0.00642 555.4 15.9
572(12) 0.00647 555.6 15.6
560(13) 0.00617 555.8 15.3
579(13) 0.00591 556.1 15.1
567(13) 0.00610 556.3 14.8
560(13) 0.00633 556.5 14.6
584(13) 0.00634 556.7 14.3
575(13) 0.00591 557.0 14.1
556(13) 0.00599 557.2 13.9
572(13) 0.00616 557.4 13.7
609(13) 0.00601 557.7 13.5
556(12) 0.00665 557.9 13.3
561(13) 0.00620 558.1 13.1
548(13) 0.00602 558.3 12.9
557(13) 0.00623 558.6 12.7
519(12) 0.00709 558.8 12.5
550(12) 0.00684 559.0 12.4
573(13) 0.00617 559.3 12.2
612(14) 0.00507 559.5 12.1
572(13) 0.00613 559.7 11.9
574(12) 0.00647 560.0 11.8
538(12) 0.00686 560.2 11.6
537(12) 0.00658 560.4 11.5
565(13) 0.00565 560.6 11.4
568(13) 0.00602 560.9 11.2
558(12) 0.00665 561.1 11.1
571(13) 0.00626 561.3 11.0
557(13) 0.00630 561.6 10.9
601(14) 0.00531 561.8 10.8
524(12) 0.00659 562.0 10.7
563(12) 0.00662 562.2 10.6
537(12) 0.00669 562.5 10.5
585(13) 0.00586 562.7 10.4
558(13) 0.00612 562.9 10.3
561(13) 0.00626 563.2 10.2
540(12) 0.00691 563.4 10.1
585(13) 0.00611 563.6 10.0
578(13) 0.00578 563.8 10.0
528(13) 0.00634 564.1 9.9
568(13) 0.00611 564.3 9.8
583(12) 0.00641 564.5 9.7
573(13) 0.00611 564.8 9.7
561(13) 0.00609 565.0 9.6
553(13) 0.00631 565.2 9.5
586(13) 0.00618 565.4 9.5
569(12) 0.00653 565.7 9.4
578(13) 0.00624 565.9 9.4
567(13) 0.00601 566.1 9.3
544(12) 0.00657 566.4 9.3
564(12) 0.00641 566.6 9.2
566(12) 0.00657 566.8 9.2
561(13) 0.00597 567.0 9.1
547(13) 0.00603 567.3 9.1
557(13) 0.00615 567.5 9.0
521(12) 0.00694 567.7 9.0
567(12) 0.00657 568.0 9.0
603(13) 0.00567 568.2 8.9
587(13) 0.00562 568.4 8.9
553(13) 0.00625 568.7 8.9
568(12) 0.00642 568.9 8.8
574(12) 0.00644 569.1 8.8
553(12) 0.00646 569.3 8.8
558(13) 0.00587 569.6 8.7
565(13) 0.00620 569.8 8.7
550(12) 0.00679 570.0 8.7
563(12) 0.00666 570.3 8.7
577(13) 0.00608 570.5 8.7
573(13) 0.00567 570.7 8.6
580(13) 0.00610 570.9 8.6
586(13) 0.00632 571.2 8.6
590(13) 0.00625 571.4 8.6
590(13) 0.00604 571.6 8.6
601(14) 0.00535 571.9 8.6
560(13) 0.00633 572.1 8.6
575(12) 0.00641 572.3 8.6
565(12) 0.00645 572.5 8.5
560(13) 0.00610 572.8 8.5
561(13) 0.00586 573.0 8.5
599(13) 0.00570 573.2 8.5
575(12) 0.00647 573.5 8.5
557(12) 0.00664 573.7 8.6
580(13) 0.00604 573.9 8.6
578(13) 0.00582 574.1 8.6
584(13) 0.00595 574.4 8.6
558(12) 0.00668 574.6 8.6
561(12) 0.00654 574.8 8.6
569(13) 0.00612 575.1 8.6
560(13) 0.00595 575.3 8.6
590(13) 0.00583 575.5 8.6
562(12) 0.00656 575.7 8.6
600(13) 0.00590 576.0 8.7
634(14) 0.00541 576.2 8.7
586(13) 0.00587 576.4 8.7
587(13) 0.00602 576.7 8.7
567(12) 0.00661 576.9 8.7
577(13) 0.00606 577.1 8.7
570(13) 0.00581 577.4 8.8
593(13) 0.00574 577.6 8.8
577(13) 0.00616 577.8 8.8
571(12) 0.00654 578.0 8.8
577(13) 0.00604 578.3 8.9
580(13) 0.00580 578.5 8.9
591(13) 0.00581 578.7 8.9
598(13) 0.00613 579.0 8.9
610(13) 0.00602 579.2 9.0
568(13) 0.00621 579.6 9.0
583(13) 0.00566 580.1 9.0
587(13) 0.00587 580.5 9.1
606(13) 0.00600 581.0 9.1
612(13) 0.00608 581.5 9.1
598(13) 0.00590 582.0 9.2
572(13) 0.00574 582.4 9.2
580(13) 0.00608 582.9 9.2
556(12) 0.00662 583.4 9.3
602(13) 0.00617 583.8 9.3
577(13) 0.00609 584.3 9.4
575(13) 0.00577 584.8 9.4
601(13) 0.00579 585.2 9.5
583(13) 0.00631 585.7 9.5
607(13) 0.00613 586.2 9.6
595(13) 0.00584 586.6 9.6
575(13) 0.00560 587.1 9.7
595(13) 0.00554 587.6 9.7
611(13) 0.00613 588.0 9.8
607(13) 0.00602 588.5 9.8
595(13) 0.00585 589.0 9.9
579(13) 0.00559 589.4 10.0
573(13) 0.00595 589.9 10.0
598(13) 0.00621 590.4 10.1
627(13) 0.00580 590.8 10.1
625(13) 0.00555 591.3 10.2
596(14) 0.00543 591.8 10.3
548(13) 0.00618 592.3 10.3
576(12) 0.00648 592.7 10.4
583(13) 0.00614 593.2 10.5
586(13) 0.00579 593.7 10.6
571(13) 0.00603 594.1 10.6
572(13) 0.00604 594.6 10.7
568(12) 0.00656 595.1 10.8
597(13) 0.00605 595.5 10.9
589(13) 0.00580 596.0 11.0
630(14) 0.00527 596.5 11.1
570(13) 0.00622 596.9 11.1
613(13) 0.00608 597.4 11.2
553(12) 0.00646 597.9 11.3
595(13) 0.00559 598.3 11.4
593(13) 0.00577 598.8 11.5
605(13) 0.00578 599.3 11.6
628(13) 0.00591 599.7 11.7
628(13) 0.00566 600.2 11.8
600(13) 0.00571 600.7 11.9
583(13) 0.00589 601.1 12.0
604(13) 0.00579 601.6 12.2
604(13) 0.00618 602.1 12.3
570(13) 0.00613 602.6 12.4
610(14) 0.00549 603.0 12.5
598(13) 0.00574 603.5 12.6
596(13) 0.00620 604.0 12.7
564(12) 0.00657 604.4 12.9
592(13) 0.00596 604.9 13.0
590(13) 0.00571 605.4 13.1
621(13) 0.00564 605.8 13.3
621(13) 0.00583 606.3 13.4
573(12) 0.00652 606.8 13.6
611(13) 0.00567 607.2 13.7
611(14) 0.00538 607.7 13.9
617(13) 0.00566 608.2 14.0
583(13) 0.00640 608.6 14.2
601(13) 0.00612 609.1 14.3
603(13) 0.00582 609.6 14.5
590(13) 0.00550 610.0 14.7
607(13) 0.00574 610.5 14.8
580(13) 0.00628 611.0 15.0
571(12) 0.00654 611.5 15.2
596(13) 0.00576 611.9 15.4
622(14) 0.00518 612.4 15.6
637(13) 0.00550 612.9 15.8
604(13) 0.00620 613.3 16.0
639(13) 0.00575 613.8 16.2
626(13) 0.00557 614.3 16.4
591(13) 0.00568 614.7 16.6
619(13) 0.00549 615.2 16.8
623(13) 0.00595 615.7 17.0
657(13) 0.00555 616.1 17.2
646(14) 0.00540 616.6 17.5
606(13) 0.00567 617.1 17.7
631(14) 0.00546 617.5 18.0
638(13) 0.00580 618.0 18.2
590(13) 0.00610 618.5 18.5
648(14) 0.00521 618.9 18.8
605(13) 0.00576 619.4 19.0
628(13) 0.00562 619.9 19.3
602(13) 0.00614 620.3 19.6
611(13) 0.00590 620.8 19.9
627(14) 0.00543 621.3 20.2
585(13) 0.00599 621.8 20.5
634(13) 0.00567 622.2 20.8
621(13) 0.00600 622.7 21.2
620(13) 0.00557 623.2 21.5
634(14) 0.00535 623.6 21.8
629(14) 0.00542 624.1 22.2
620(13) 0.00568 624.6 22.6
631(13) 0.00594 625.0 23.0
635(14) 0.00537 625.5 23.3
627(14) 0.00541 626.0 23.7
649(14) 0.00522 626.4 24.2
635(13) 0.00574 626.9 24.6
664(13) 0.00561 627.4 25.0
656(14) 0.00531 627.8 25.5
599(13) 0.00561 628.3 25.9
607(13) 0.00569 628.8 26.4
610(13) 0.00594 629.2 26.9
619(13) 0.00608 629.7 27.4
635(14) 0.00524 630.2 27.9
650(14) 0.00499 630.6 28.5
644(13) 0.00554 631.1 29.0
628(13) 0.00587 631.6 29.6
625(13) 0.00592 632.1 30.2
626(13) 0.00566 632.5 30.8
644(14) 0.00501 633.0 31.5
613(13) 0.00582 633.5 32.1
606(13) 0.00612 633.9 32.8
632(13) 0.00583 634.4 33.5
627(13) 0.00562 634.9 34.2
664(14) 0.00484 635.3 35.0
628(13) 0.00565 635.8 35.8
637(13) 0.00581 636.3 36.6
668(13) 0.00552 636.7 37.4
662(14) 0.00538 637.2 38.3
634(14) 0.00533 637.7 39.2
692(14) 0.00504 638.1 40.1
646(13) 0.00576 638.6 41.1
679(14) 0.00531 639.1 42.1
644(14) 0.00546 639.5 43.1
672(14) 0.00492 640.0 44.2
654(14) 0.00520 640.5 45.3
654(13) 0.00570 641.0 46.5
683(14) 0.00517 641.4 47.8
660(14) 0.00524 641.9 49.0
682(14) 0.00500 642.4 50.4
693(14) 0.00499 642.8 51.7
717(14) 0.00518 643.3 53.2
676(14) 0.00532 643.8 54.7
659(14) 0.00513 644.2 56.3
670(14) 0.00518 644.7 57.9
701(14) 0.00512 645.2 59.7
671(13) 0.00553 645.6 61.5
679(14) 0.00515 646.1 63.4
672(14) 0.00513 646.6 65.4
694(14) 0.00496 647.0 67.4
735(14) 0.00482 647.5 69.6
706(14) 0.00527 648.0 71.9
703(14) 0.00502 648.4 74.3
677(14) 0.00510 648.9 76.9
694(14) 0.00501 649.4 79.6
695(14) 0.00524 649.8 82.4
704(14) 0.00533 650.3 85.4
707(14) 0.00491 650.8 88.5
709(15) 0.00465 651.3 91.8
727(14) 0.00480 651.7 95.4
739(14) 0.00494 652.2 99.1
737(14) 0.00502 652.7 103.0
738(15) 0.00458 653.1 107.2
703(15) 0.00469 653.6 111.7
728(15) 0.00474 654.1 116.4
711(14) 0.00514 654.5 121.5
764(14) 0.00487 655.0 126.9
751(15) 0.00468 655.5 132.7
734(15) 0.00447 655.9 138.8
771(15) 0.00445 656.4 145.4
754(14) 0.00491 656.9 152.5
741(14) 0.00500 657.3 160.2
754(15) 0.00470 657.8 168.4
764(15) 0.00431 658.3 177.2
785(15) 0.00445 658.7 186.8
790(15) 0.00474 659.2 197.2
814(15) 0.00454 659.7 208.4
832(15) 0.00418 660.1 220.7
860(16) 0.00379 660.6 234.0
840(15) 0.00426 661.1 248.6
886(15) 0.00421 661.6 264.7
906(16) 0.00397 662.0 282.4
931(17) 0.00362 662.5 302.0
900(17) 0.00366 663.0 324.0
942(17) 0.00362 663.4 348.7
960(16) 0.00391 663.9 376.6
1016(17) 0.00353 664.4 408.7
1050(17) 0.003269 664.8 445.6
1093(18) 0.003083 665.3 488.8
1186(19) 0.002921 665.8 539.6
1261(18) 0.002946 666.2 599.7
1313(19) 0.002710 666.7 671.5
1355(20) 0.002526 667.2 757.4
1442(21) 0.002320 667.6 860.2
1549(21) 0.002236 668.1 983.0
1728(22) 0.002159 668.6 1129.1
1877(23) 0.001896 669.0 1301.8
2113(25) 0.001626 669.5 1504.1
2334(26) 0.001481 670.0 1738.4
2703(28) 0.001304 670.5 2006.6
2979(28) 0.001244 670.9 2309.0
3508(32) 0.000988 671.4 2644.4
3785(34) 0.000888 671.9 3008.8
4188(35) 0.000821 672.3 3394.6
4786(37) 0.000742 673. 3790.
5191(37) 0.000713 673. 4175.
5470(40) 0.000632 674. 4526.
5854(42) 0.000562 674. 4813.
5963(42) 0.000574 675. 5004.
5985(41) 0.000604 675. 5077.
5831(40) 0.000632 676. 5020.
5445(40) 0.000630 676. 4842.
5032(39) 0.000660 677. 4565.
4656(36) 0.000755 677. 4220.
4311(34) 0.000852 677.5 3837.3
3805(32) 0.000966 677.9 3442.8
3543(32) 0.000967 678.4 3055.5
3252(32) 0.000984 678.9 2688.5
2925(29) 0.001186 679.3 2350.0
2736(27) 0.001347 679.8 2044.0
2550(26) 0.001449 680.3 1772.4
2387(26) 0.001452 680.8 1534.7
2197(26) 0.001485 681.2 1329.3
2031(24) 0.001710 681.7 1153.9
1929(23) 0.001917 682.2 1005.4
1797(22) 0.002050 682.6 880.6
1677(22) 0.002049 683.1 776.3
1607(22) 0.002026 683.6 689.3
1501(21) 0.002313 684.0 616.8
1417(20) 0.002627 684.5 556.1
1353(19) 0.002714 685.0 505.2
1303(19) 0.002692 685.4 462.2
1276(19) 0.002638 685.9 425.6
1244(19) 0.002757 686.4 394.2
1179(18) 0.003162 686.8 367.0
1151(18) 0.003129 687.3 343.4
1093(18) 0.003158 687.8 322.7
1059(18) 0.003257 688.2 304.6
1065(17) 0.003290 688.7 288.8
1007(16) 0.00367 689.2 274.9
982(16) 0.00368 689.6 262.9
981(17) 0.003490 690.1 252.6
971(17) 0.00358 690.6 244.0
951(16) 0.00370 691.1 236.9
950(16) 0.00390 691.5 231.5
981(17) 0.00354 692.0 227.7
924(16) 0.00368 692.5 225.5
931(17) 0.00359 692.9 224.9
927(16) 0.00387 693.4 226.0
928(16) 0.00397 693.9 228.8
938(16) 0.00373 694.3 233.2
944(17) 0.00355 694.8 239.2
926(16) 0.00369 695.3 246.6
911(16) 0.00392 695.7 255.4
934(16) 0.00397 696.2 265.2
949(17) 0.00353 696.7 275.5
940(17) 0.00357 697.1 285.9
949(17) 0.00367 697.6 295.4
939(16) 0.00391 698.1 303.3
947(16) 0.00394 698.5 308.4
974(17) 0.00352 699.0 310.0
951(17) 0.003452 699.5 307.5
942(16) 0.00370 700.0 300.8
963(16) 0.00384 700.4 290.3
926(16) 0.00394 700.9 276.7
864(16) 0.00408 701.4 260.8
903(17) 0.00358 701.8 243.8
885(16) 0.00392 702.3 226.3
868(15) 0.00421 702.8 209.0
862(15) 0.00430 703.2 192.4
825(15) 0.00419 703.7 176.7
809(16) 0.00395 704.2 162.2
782(15) 0.00444 704.6 148.8
779(14) 0.00481 705.1 136.7
801(15) 0.00463 705.6 125.8
764(15) 0.00462 706.0 116.1
803(16) 0.00396 706.5 107.5
797(15) 0.00427 707.0 99.9
760(14) 0.00489 707.4 93.2
777(15) 0.00467 707.9 87.2
773(15) 0.00450 708.4 82.0
779(15) 0.00423 708.8 77.4
733(15) 0.00468 709.3 73.4
741(14) 0.00495 709.8 69.7
731(14) 0.00493 710.3 66.5
734(15) 0.00465 710.7 63.6
755(15) 0.00436 711.2 60.9
751(15) 0.00448 711.7 58.5
727(14) 0.00508 712.1 56.3
687(14) 0.00521 712.6 54.3
721(15) 0.00469 713.1 52.4
734(15) 0.00461 713.5 50.7
721(14) 0.00481 714.0 49.0
715(14) 0.00513 714.5 47.5
722(14) 0.00488 714.9 46.0
740(15) 0.00460 715.4 44.7
717(15) 0.00472 715.9 43.4
701(14) 0.00500 716.3 42.2
739(14) 0.00496 716.8 41.0
759(15) 0.00469 717.3 39.9
763(15) 0.00448 717.7 38.8
726(14) 0.00479 718.2 37.9
718(14) 0.00506 718.7 36.9
710(14) 0.00519 719.1 36.0
710(14) 0.00485 719.6 35.1
713(15) 0.00473 720.1 34.3
727(14) 0.00478 720.6 33.5
709(14) 0.00501 721.0 32.7
732(14) 0.00511 721.5 32.0
730(15) 0.00468 722.0 31.3
727(15) 0.00455 722.4 30.6
692(14) 0.00494 722.9 30.0
725(14) 0.00506 723.4 29.4
717(14) 0.00520 723.8 28.8
721(14) 0.00497 724.3 28.2
750(15) 0.00445 724.8 27.6
752(15) 0.00463 725.2 27.1
697(14) 0.00532 725.7 26.6
743(14) 0.00499 726.2 26.1
743(15) 0.00473 726.6 25.6
769(15) 0.00421 727.1 25.1
783(15) 0.00448 727.6 24.7
761(14) 0.00489 728.0 24.2
722(14) 0.00514 728.5 23.8
728(15) 0.00475 729.0 23.4
751(15) 0.00426 729.5 23.0
693(14) 0.00505 729.9 22.7
754(14) 0.00491 730.4 22.3
720(14) 0.00516 730.9 21.9
738(15) 0.00460 731.3 21.6
718(15) 0.00465 731.8 21.3
736(14) 0.00483 732.3 20.9
735(14) 0.00506 732.7 20.6
730(14) 0.00500 733.2 20.3
742(15) 0.00469 733.7 20.0
729(15) 0.00459 734.1 19.8
719(15) 0.00473 734.6 19.5
769(14) 0.00480 735.1 19.2
759(14) 0.00481 735.5 19.0
758(15) 0.00456 736.0 18.7
752(15) 0.00455 736.5 18.5
751(15) 0.00457 736.9 18.2
722(14) 0.00514 737.4 18.0
735(14) 0.00477 737.9 17.8
739(15) 0.00459 738.3 17.6
707(14) 0.00491 738.8 17.4
746(15) 0.00474 739.3 17.2
729(14) 0.00508 739.8 17.0
715(14) 0.00485 740.2 16.8
736(15) 0.00456 740.7 16.6
741(15) 0.00466 741.2 16.4
746(14) 0.00477 741.6 16.3
743(14) 0.00504 742.1 16.1
706(14) 0.00500 742.6 16.0
741(15) 0.00463 743.0 15.8
725(14) 0.00496 743.5 15.7
741(14) 0.00498 744.0 15.5
744(14) 0.00503 744.4 15.4
762(15) 0.00458 744.9 15.3
719(15) 0.00472 745.4 15.1
737(15) 0.00469 745.8 15.0
729(14) 0.00498 746.3 14.9
780(14) 0.00481 746.8 14.8
725(14) 0.00482 747.2 14.7
781(15) 0.00417 747.7 14.6
777(15) 0.00443 748.2 14.5
752(14) 0.00490 748.6 14.5
784(15) 0.00469 749.1 14.4
758(15) 0.00448 749.6 14.3
748(15) 0.00427 750.2 14.2
733(14) 0.00485 750.7 14.2
747(14) 0.00496 751.2 14.1
730(14) 0.00510 751.7 14.1
755(15) 0.00474 752.2 14.0
763(15) 0.00425 752.7 14.0
754(15) 0.00464 753.2 14.0
764(14) 0.00485 753.8 14.0
750(14) 0.00496 754.3 13.9
748(15) 0.00466 754.8 13.9
725(15) 0.00450 755.3 13.9
757(15) 0.00454 755.8 13.9
773(14) 0.00481 756.3 14.0
766(14) 0.00476 756.8 14.0
766(15) 0.00450 757.3 14.0
728(15) 0.00452 757.9 14.1
745(15) 0.00456 758.4 14.1
748(14) 0.00495 758.9 14.2
795(15) 0.00454 759.4 14.2
762(15) 0.00456 759.9 14.3
769(15) 0.00442 760.4 14.4
781(15) 0.00441 760.9 14.5
796(15) 0.00465 761.5 14.7
785(15) 0.00451 762.0 14.8
801(15) 0.00426 762.5 15.0
750(15) 0.00464 763.0 15.1
774(15) 0.00457 763.5 15.3
767(14) 0.00484 764.0 15.5
764(15) 0.00460 764.5 15.8
777(15) 0.00438 765.1 16.0
791(15) 0.00433 765.6 16.3
774(15) 0.00464 766.1 16.6
791(15) 0.00473 766.6 17.0
752(15) 0.00462 767.1 17.3
755(15) 0.00449 767.6 17.8
767(15) 0.00447 768.1 18.2
804(15) 0.00447 768.7 18.7
781(14) 0.00478 769.2 19.3
778(15) 0.00440 769.7 19.9
769(15) 0.00433 770.2 20.6
780(15) 0.00435 770.7 21.3
750(14) 0.00487 771.2 22.2
779(15) 0.00475 771.7 23.1
796(15) 0.00438 772.3 24.1
784(15) 0.00425 772.8 25.3
779(15) 0.00457 773.3 26.6
801(15) 0.00459 773.8 28.1
810(15) 0.00456 774.3 29.7
833(16) 0.00409 774.8 31.6
786(16) 0.00414 775.3 33.8
802(15) 0.00435 775.8 36.2
826(15) 0.00446 776.4 39.1
772(14) 0.00481 776.9 42.5
782(15) 0.00448 777.4 46.6
804(16) 0.00402 777.9 51.6
836(15) 0.00421 778.4 58.1
870(15) 0.00425 778.9 66.4
880(15) 0.00419 779.4 77.6
891(16) 0.00388 780.0 92.6
937(17) 0.003398 780.5 112.9
962(17) 0.00359 781.0 140.1
988(16) 0.00377 781.5 175.8
1050(17) 0.003479 782.0 221.5
1060(17) 0.003371 782.5 278.2
1155(19) 0.002874 783.0 345.8
1211(19) 0.002862 783.6 423.2
1240(18) 0.003004 784.1 506.8
1387(20) 0.002621 784.6 590.6
1415(20) 0.002493 785.1 665.1
1472(21) 0.002307 785.6 717.9
1527(21) 0.002279 786.1 737.7
1544(20) 0.002399 786.6 719.3
1485(20) 0.002400 787.2 667.5
1331(20) 0.002562 787.7 593.6
1277(20) 0.002613 788.2 509.9
1145(18) 0.003097 788.7 426.0
1074(17) 0.003455 789.2 348.3
1013(17) 0.00352 789.7 280.1
956(17) 0.00357 790.2 222.9
958(17) 0.00359 790.7 176.7
872(16) 0.00412 791.3 140.6
837(15) 0.00446 791.8 113.1
862(16) 0.00399 792.3 92.5
857(16) 0.00397 792.8 77.2
853(16) 0.00412 793.3 65.8
854(15) 0.00427 793.8 57.3
838(15) 0.00444 794.3 50.8
825(15) 0.00420 794.9 45.6
827(16) 0.00408 795.4 41.4
818(15) 0.00430 795.9 37.9
852(15) 0.00427 796.4 34.9
818(15) 0.00455 796.9 32.4
831(15) 0.00422 797.4 30.1
809(16) 0.00415 797.9 28.2
774(15) 0.00464 798.5 26.4
803(15) 0.00456 799.0 24.9
806(15) 0.00458 799.5 23.5
772(15) 0.00461 800.0 22.3
809(16) 0.00413 800.5 21.2
830(16) 0.00415 801.0 20.1
784(15) 0.00465 801.5 19.2
763(14) 0.00488 802.1 18.4
789(15) 0.00437 802.6 17.6
784(16) 0.00408 803.1 16.9
779(15) 0.00445 803.6 16.3
770(14) 0.00483 804.1 15.7
780(15) 0.00473 804.6 15.2
788(15) 0.00462 805.1 14.7
815(16) 0.00408 805.7 14.2
794(15) 0.00436 806.2 13.8
841(15) 0.00448 806.7 13.4
807(15) 0.00451 807.2 13.0
812(15) 0.00419 807.7 12.7
823(16) 0.00403 808.2 12.4
817(15) 0.00428 808.7 12.1
845(15) 0.00438 809.2 11.8
808(15) 0.00448 809.8 11.5
816(15) 0.00424 810.3 11.3
840(16) 0.00392 810.8 11.0
802(15) 0.00428 811.3 10.8
843(15) 0.00442 811.8 10.6
796(15) 0.00452 812.3 10.4
818(16) 0.00408 812.8 10.3
796(16) 0.00416 813.4 10.1
814(15) 0.00433 813.9 9.9
794(15) 0.00468 814.4 9.8
836(15) 0.00427 814.9 9.6
832(16) 0.00412 815.4 9.5
834(16) 0.00409 815.9 9.4
825(15) 0.00435 816.4 9.3
831(15) 0.00447 817.0 9.1
808(15) 0.00438 817.5 9.0
818(16) 0.00411 818.0 8.9
835(16) 0.00405 818.5 8.8
803(15) 0.00445 819.0 8.8
781(14) 0.00477 819.5 8.7
846(16) 0.00410 820.0 8.6
834(16) 0.00395 820.6 8.5
795(15) 0.00440 821.1 8.4
851(15) 0.00421 821.6 8.4
826(15) 0.00451 822.1 8.3
804(15) 0.00429 822.6 8.3
850(16) 0.00387 823.1 8.2
821(15) 0.00429 823.6 8.2
853(15) 0.00431 824.2 8.1
835(15) 0.00444 824.7 8.1
852(16) 0.00400 825.2 8.0
831(16) 0.00391 825.7 8.0
848(16) 0.00409 826.2 8.0
829(15) 0.00445 826.7 7.9
834(15) 0.00446 827.2 7.9
788(15) 0.00442 827.7 7.9
792(16) 0.00416 828.3 7.8
828(15) 0.00417 828.8 7.8
813(15) 0.00458 829.3 7.8
841(15) 0.00437 829.8 7.8
783(15) 0.00436 830.3 7.8
845(16) 0.00383 830.8 7.8
836(15) 0.00419 831.3 7.8
837(15) 0.00442 831.9 7.7
839(15) 0.00437 832.4 7.7
861(16) 0.00395 832.9 7.7
817(16) 0.00395 833.4 7.7
854(16) 0.00406 833.9 7.7
929(16) 0.00400 834.4 7.8
847(15) 0.00429 834.9 7.8
850(16) 0.00414 835.5 7.8
852(16) 0.00393 836.0 7.8
807(15) 0.00436 836.5 7.8
860(15) 0.00431 837.0 7.8
826(15) 0.00441 837.5 7.8
854(16) 0.00399 838.0 7.9
813(15) 0.00420 838.5 7.9
875(16) 0.00396 839.1 7.9
865(15) 0.00427 839.6 7.9
883(16) 0.00404 840.1 8.0
820(15) 0.00425 840.6 8.0
838(16) 0.00406 841.1 8.0
846(16) 0.00415 841.6 8.1
853(15) 0.00438 842.1 8.1
886(16) 0.00396 842.7 8.2
884(16) 0.00392 843.2 8.2
886(16) 0.00383 843.7 8.3
857(16) 0.00414 844.3 8.3
854(15) 0.00434 844.8 8.4
832(16) 0.00414 845.3 8.4
804(15) 0.00419 845.9 8.5
873(16) 0.00390 846.4 8.5
850(15) 0.00422 846.9 8.6
838(15) 0.00447 847.5 8.7
908(16) 0.00377 848.0 8.7
868(16) 0.00384 848.5 8.8
885(16) 0.00385 849.1 8.9
880(16) 0.00412 849.6 9.0
864(15) 0.00433 850.1 9.1
835(15) 0.00418 850.7 9.2
864(16) 0.00376 851.2 9.3
892(16) 0.00381 851.7 9.3
892(16) 0.00412 852.2 9.5
898(16) 0.00413 852.8 9.6
890(16) 0.00392 853.3 9.7
888(16) 0.00367 853.8 9.8
844(15) 0.00418 854.4 9.9
847(15) 0.00435 854.9 10.0
851(15) 0.00436 855.4 10.2
885(16) 0.00398 856.0 10.3
874(16) 0.00370 856.5 10.4
851(16) 0.00412 857.0 10.6
871(15) 0.00428 857.6 10.7
844(15) 0.00435 858.1 10.9
832(16) 0.00413 858.6 11.1
861(16) 0.00372 859.2 11.2
861(16) 0.00401 859.7 11.4
875(15) 0.00420 860.2 11.6
867(16) 0.00415 860.8 11.8
875(16) 0.00391 861.3 12.0
898(16) 0.00375 861.8 12.2
883(16) 0.00392 862.4 12.4
864(15) 0.00434 862.9 12.6
877(16) 0.00404 863.4 12.9
845(16) 0.00400 863.9 13.1
869(16) 0.00382 864.5 13.4
912(16) 0.00375 865.0 13.7
907(16) 0.00406 865.5 13.9
895(16) 0.00400 866.1 14.2
892(16) 0.00376 866.6 14.5
877(16) 0.00393 867.1 14.9
877(16) 0.00397 867.7 15.2
899(16) 0.00414 868.2 15.5
875(16) 0.00407 868.7 15.9
892(16) 0.00381 869.3 16.3
893(16) 0.00374 869.8 16.7
847(15) 0.00421 870.3 17.1
864(15) 0.00431 870.9 17.6
891(16) 0.00389 871.4 18.0
887(16) 0.00371 871.9 18.5
896(16) 0.00378 872.5 19.0
937(16) 0.00378 873.0 19.6
938(16) 0.00396 873.5 20.1
933(16) 0.00373 874.1 20.7
904(16) 0.00375 874.6 21.4
906(16) 0.00387 875.1 22.0
874(16) 0.00414 875.6 22.7
862(15) 0.00431 876.2 23.5
917(16) 0.00373 876.7 24.3
869(16) 0.00384 877.2 25.1
925(16) 0.00368 877.8 26.0
910(16) 0.00406 878.3 26.9
894(16) 0.00411 878.8 27.9
898(16) 0.00382 879.4 28.9
927(17) 0.00358 879.9 30.0
934(16) 0.00371 880.4 31.2
905(16) 0.00410 881.0 32.5
925(16) 0.00401 881.5 33.8
911(16) 0.00388 882.0 35.3
913(17) 0.00356 882.6 36.8
951(17) 0.00366 883.1 38.4
890(15) 0.00420 883.6 40.2
874(15) 0.00417 884.2 42.1
917(16) 0.00379 884.7 44.2
944(17) 0.003418 885.2 46.4
890(16) 0.00398 885.8 48.8
930(16) 0.00400 886.3 51.5
952(16) 0.00383 886.8 54.4
928(16) 0.00385 887.3 57.5
981(17) 0.003337 887.9 61.0
937(17) 0.00363 888.4 64.9
936(16) 0.00394 888.9 69.2
946(16) 0.00383 889.5 74.1
940(17) 0.00366 890.0 79.5
928(17) 0.00363 890.5 85.6
949(16) 0.00368 891.1 92.6
1004(16) 0.00370 891.6 100.5
961(16) 0.00373 892.1 109.5
1036(17) 0.003320 892.7 119.7
1014(17) 0.003319 893.2 131.3
991(17) 0.00352 893.7 144.6
1016(17) 0.00364 894.3 159.6
1019(17) 0.003483 894.8 176.7
1034(17) 0.003301 895.3 195.9
1071(18) 0.003217 895.9 217.4
1139(18) 0.003086 896.4 241.5
1145(18) 0.003244 896.9 268.1
1158(18) 0.003024 897.5 297.5
1227(19) 0.002752 898.0 329.6
1259(19) 0.002772 898.5 364.2
1274(19) 0.002837 899.0 401.1
1367(19) 0.002722 899.6 440.0
1404(20) 0.002426 900.1 480.2
1478(21) 0.002215 900.6 520.7
1488(21) 0.002327 901.2 560.3
1523(20) 0.002386 901.7 597.2
1576(21) 0.002368 902.2 629.6
1661(22) 0.002084 902.8 655.6
1663(22) 0.002002 903.3 673.1
1685(22) 0.002073 903.8 680.7
1634(21) 0.002249 904.4 677.9
1590(21) 0.002337 904.9 664.9
1507(21) 0.002313 905.4 642.7
1539(22) 0.002067 906.0 613.1
1437(20) 0.002405 906.5 578.0
1480(20) 0.002495 907.0 539.4
1458(20) 0.002559 907.6 499.2
1398(20) 0.002510 908.1 458.7
1341(20) 0.002415 908.6 419.1
1330(20) 0.002620 909.2 381.1
1308(19) 0.002851 909.7 345.4
1276(19) 0.002876 910.2 312.1
1216(19) 0.002874 910.7 281.4
1225(19) 0.002646 911.3 253.5
1201(18) 0.002932 911.8 228.2
1168(18) 0.003181 912.3 205.5
1153(18) 0.003173 912.9 185.2
1201(19) 0.002878 913.4 167.1
1147(19) 0.002886 913.9 151.2
1127(18) 0.002987 914.5 137.1
1090(17) 0.003429 915.0 124.7
1079(17) 0.003342 915.5 113.8
1125(18) 0.003007 916.1 104.2
1094(18) 0.003060 916.6 95.8
1038(17) 0.003323 917.1 88.4
1023(17) 0.00362 917.7 81.9
1021(17) 0.003501 918.2 76.2
1052(18) 0.003232 918.7 71.0
1012(17) 0.003326 919.3 66.5
997(17) 0.003469 919.8 62.4
991(16) 0.00374 920.3 58.7
1045(17) 0.003417 920.9 55.3
1010(17) 0.003374 921.4 52.3
1021(17) 0.003351 921.9 49.5
1065(17) 0.003316 922.4 47.0
972(16) 0.00382 923.0 44.7
973(17) 0.00358 923.5 42.5
974(17) 0.003400 924.0 40.5
970(17) 0.00357 924.6 38.7
992(17) 0.00359 925.1 37.0
1009(16) 0.00369 925.6 35.3
1013(17) 0.003423 926.2 33.8
968(17) 0.003490 926.7 32.4
982(17) 0.003493 927.2 31.1
1013(17) 0.00356 927.8 29.9
964(16) 0.00387 928.3 28.7
969(17) 0.00358 928.8 27.6
984(17) 0.003335 929.4 26.6
1011(17) 0.003401 929.9 25.6
1008(17) 0.00366 930.4 24.7
972(16) 0.00384 931.0 23.9
980(17) 0.00353 931.5 23.0
968(17) 0.003463 932.0 22.3
977(17) 0.00359 932.5 21.5
990(16) 0.00372 933.1 20.8
949(16) 0.00388 933.6 20.2
1006(17) 0.003426 934.1 19.5
966(17) 0.003356 934.7 18.9
988(17) 0.003404 935.2 18.4
970(16) 0.00378 935.7 17.8
957(16) 0.00384 936.3 17.3
995(17) 0.003440 936.8 16.8
970(17) 0.003296 937.3 16.3
941(16) 0.00372 937.9 15.9
935(16) 0.00399 938.4 15.5
925(16) 0.00400 938.9 15.1
991(17) 0.003418 939.5 14.7
946(17) 0.003473 940.0 14.3
947(16) 0.00370 940.5 13.9
958(16) 0.00387 941.1 13.6
967(16) 0.00378 941.6 13.2
990(17) 0.003435 942.1 12.9
991(17) 0.003396 942.7 12.6
948(17) 0.00364 943.2 12.3
971(16) 0.00382 943.7 12.0
996(17) 0.00363 944.2 11.8
970(17) 0.00358 944.8 11.5
969(17) 0.00353 945.3 11.3
969(17) 0.00361 945.8 11.0
958(16) 0.00388 946.4 10.8
964(16) 0.00372 946.9 10.5
949(17) 0.00359 947.4 10.3
998(17) 0.003407 948.0 10.1
957(17) 0.00360 948.5 9.9
942(16) 0.00396 949.0 9.7
938(16) 0.00379 949.6 9.5
957(17) 0.00353 950.1 9.3
989(17) 0.003414 950.6 9.2
1015(17) 0.003500 951.2 9.1
940(16) 0.00393 951.7 8.9
956(17) 0.00363 952.2 8.7
968(17) 0.00352 952.8 8.6
982(17) 0.00355 953.3 8.4
990(17) 0.00363 953.8 8.3
958(16) 0.00389 954.4 8.1
930(16) 0.00373 954.9 8.0
965(17) 0.00351 955.4 7.9
972(17) 0.00359 955.9 7.7
930(16) 0.00396 956.5 7.6
1006(16) 0.00370 957.0 7.5
1011(17) 0.003385 957.5 7.4
994(18) 0.003233 958.1 7.3
995(17) 0.00351 958.6 7.2
920(16) 0.00402 959.1 7.1
969(16) 0.00380 959.7 6.9
982(17) 0.003476 960.2 6.8
954(17) 0.003412 960.7 6.8
1006(17) 0.003463 961.3 6.7
968(16) 0.00383 961.8 6.6
1015(17) 0.00363 962.3 6.5
967(17) 0.00361 962.9 6.4
996(18) 0.003205 963.4 6.3
1021(17) 0.003365 963.9 6.2
970(16) 0.00387 964.5 6.1
977(16) 0.00378 965.0 6.1
1043(17) 0.003306 965.5 6.0
1016(18) 0.003193 966.1 5.9
992(17) 0.00353 966.6 5.8
961(16) 0.00390 967.1 5.8
996(17) 0.00365 967.6 5.7
979(17) 0.003477 968.2 5.6
975(17) 0.003386 968.7 5.6
1026(17) 0.003345 969.2 5.5
1024(17) 0.00364 969.8 5.4
983(16) 0.00369 970.3 5.4
939(16) 0.00371 970.8 5.3
942(17) 0.00352 971.4 5.3
964(17) 0.00362 971.9 5.2
1023(17) 0.00363 972.4 5.2
967(16) 0.00374 973.0 5.1
986(17) 0.00356 973.5 5.1
993(17) 0.003429 974.0 5.0
994(17) 0.00357 974.6 5.0
1021(17) 0.00365 975.1 4.9
980(17) 0.00364 975.6 4.9
986(17) 0.003431 976.2 4.8
1008(17) 0.003349 976.7 4.8
1029(17) 0.003434 977.2 4.7
975(16) 0.00380 977.8 4.7
991(17) 0.003457 978.3 4.7
976(17) 0.003487 978.8 4.6
984(17) 0.00358 979.3 4.6
979(16) 0.00371 979.9 4.6
958(16) 0.00388 980.4 4.5
965(17) 0.00359 980.9 4.5
961(17) 0.003489 981.5 4.5
997(17) 0.003399 982.0 4.4
978(16) 0.00369 982.5 4.4
1012(17) 0.00367 983.1 4.4
1011(17) 0.003413 983.6 4.4
978(17) 0.003340 984.1 4.3
1002(17) 0.003288 984.7 4.3
987(16) 0.00377 985.2 4.3
960(16) 0.00385 985.7 4.3
1025(17) 0.003357 986.3 4.2
1016(18) 0.003160 986.8 4.2
1011(17) 0.003426 987.3 4.2
1010(16) 0.00370 987.9 4.2
1031(17) 0.00362 988.4 4.2
1068(17) 0.003298 988.9 4.2
1049(18) 0.003079 989.5 4.2
1001(17) 0.003493 990.0 4.2
1003(16) 0.00369 990.5 4.2
1048(17) 0.00354 991.0 4.2
1039(17) 0.003340 991.6 4.2
962(17) 0.003460 992.1 4.2
998(17) 0.00351 992.6 4.2
990(16) 0.00374 993.2 4.2
993(16) 0.00370 993.7 4.2
1008(17) 0.003426 994.2 4.2
990(17) 0.003332 994.8 4.2
988(17) 0.003492 995.3 4.2
1004(16) 0.00370 995.8 4.3
979(16) 0.00369 996.4 4.3
979(17) 0.00355 996.9 4.3
1003(17) 0.003369 997.4 4.3
995(17) 0.003442 998.0 4.3
997(16) 0.00374 998.5 4.4
956(16) 0.00371 999.0 4.4
985(17) 0.003487 999.6 4.4
1021(18) 0.003260 1000.1 4.5
1013(17) 0.003445 1000.6 4.5
1014(16) 0.00368 1001.1 4.5
1051(17) 0.003357 1001.7 4.6
998(17) 0.003418 1002.2 4.6
1054(18) 0.003228 1002.7 4.6
1002(17) 0.00356 1003.3 4.7
988(16) 0.00377 1003.8 4.7
1008(17) 0.003482 1004.3 4.7
1044(18) 0.003264 1004.9 4.8
1022(17) 0.003387 1005.4 4.8
1003(17) 0.00357 1005.9 4.8
1018(17) 0.00364 1006.5 4.8
992(17) 0.003440 1007.0 4.8
1013(17) 0.003297 1007.5 4.8
1011(17) 0.003424 1008.1 4.8
1034(17) 0.003491 1008.6 4.8
1014(17) 0.00363 1009.1 4.8
990(17) 0.00356 1009.6 4.8
1038(18) 0.003134 1009.6 4.7
1041(17) 0.003283 1009.7 4.7
1016(17) 0.00363 1009.8 4.6
1033(17) 0.00361 1009.8 4.6
1016(17) 0.003318 1009.9 4.6
999(18) 0.003161 1010.0 4.5
992(17) 0.00354 1010.0 4.5
983(16) 0.00371 1010.1 4.4
971(16) 0.00384 1010.2 4.3
1016(17) 0.003351 1010.2 4.3
1003(18) 0.003210 1010.3 4.2
994(17) 0.00357 1010.3 4.2
1025(17) 0.00361 1010.4 4.1
1030(17) 0.00361 1010.5 4.1
1083(18) 0.003191 1010.5 4.0
996(17) 0.003352 1010.6 4.0
1038(17) 0.003331 1010.7 4.0
993(16) 0.00372 1010.7 3.9
991(16) 0.00372 1010.8 3.9
1017(17) 0.003392 1010.8 3.8
979(17) 0.003368 1010.9 3.8
978(17) 0.00353 1011.0 3.8
972(16) 0.00381 1011.0 3.8
991(17) 0.00365 1011.1 3.7
1014(17) 0.003391 1011.2 3.7
989(17) 0.003383 1011.2 3.7
997(17) 0.003490 1011.3 3.7
1026(17) 0.00364 1011.4 3.7
1004(17) 0.00362 1011.4 3.6
997(17) 0.00354 1011.5 3.6
1007(17) 0.003371 1011.5 3.6
1038(17) 0.003325 1011.6 3.6
1027(17) 0.00363 1011.7 3.6
1030(17) 0.003486 1011.7 3.6
1021(17) 0.003424 1011.8 3.6
1030(17) 0.003315 1011.9 3.6
1026(17) 0.003372 1011.9 3.6
1022(17) 0.00366 1012.0 3.6
958(17) 0.00367 1012.1 3.6
1029(17) 0.003316 1012.1 3.6
1059(18) 0.003259 1012.2 3.6
1043(17) 0.003497 1012.2 3.6
1051(17) 0.00353 1012.3 3.7
1012(17) 0.003392 1012.4 3.7
1017(17) 0.003334 1012.4 3.7
1040(17) 0.003362 1012.5 3.7
1043(17) 0.003488 1012.6 3.7
1039(17) 0.00355 1012.6 3.8
1022(17) 0.003345 1012.7 3.8
992(17) 0.003389 1012.7 3.8
1008(17) 0.003406 1012.8 3.8
1057(17) 0.003456 1012.9 3.9
1019(17) 0.00362 1012.9 3.9
1041(17) 0.003337 1013.0 3.9
998(17) 0.003349 1013.1 4.0
1023(17) 0.003425 1013.1 4.0
985(16) 0.00369 1013.2 4.1
1001(16) 0.00372 1013.3 4.1
1037(17) 0.003380 1013.3 4.2
1048(18) 0.003002 1013.4 4.2
995(17) 0.00352 1013.4 4.3
1050(17) 0.00354 1013.5 4.3
1041(17) 0.00359 1013.6 4.4
1011(17) 0.003436 1013.6 4.5
1001(18) 0.003204 1013.7 4.5
1009(17) 0.003493 1013.8 4.6
1022(17) 0.00362 1013.8 4.7
982(16) 0.00373 1013.9 4.8
1001(17) 0.003499 1014.0 4.9
1009(18) 0.003254 1014.0 5.0
1049(17) 0.003316 1014.1 5.1
1071(17) 0.003447 1014.1 5.2
1064(17) 0.003424 1014.2 5.3
1029(17) 0.003366 1014.3 5.4
1052(18) 0.003144 1014.3 5.6
1066(18) 0.003257 1014.4 5.7
989(16) 0.00372 1014.5 5.8
1043(17) 0.00353 1014.5 6.0
1041(17) 0.003275 1014.6 6.2
1045(18) 0.003190 1014.7 6.4
1014(17) 0.003424 1014.7 6.6
1030(17) 0.00357 1014.8 6.8
998(17) 0.00363 1014.8 7.0
1004(17) 0.003424 1014.9 7.3
1034(18) 0.003240 1015.0 7.5
1010(17) 0.003494 1015.0 7.8
1026(17) 0.00361 1015.1 8.1
1024(17) 0.003413 1015.2 8.5
1013(17) 0.003432 1015.2 8.9
1013(17) 0.003438 1015.3 9.3
1043(17) 0.003381 1015.3 9.7
997(16) 0.00373 1015.4 10.2
1042(17) 0.003360 1015.5 10.6
1033(17) 0.003324 1015.5 11.2
1038(17) 0.003298 1015.6 11.8
1023(17) 0.00351 1015.7 12.5
1052(17) 0.00351 1015.7 13.2
1101(18) 0.003117 1015.8 14.0
1050(18) 0.003201 1015.9 14.9
1028(17) 0.003339 1015.9 15.8
1054(17) 0.003481 1016.0 16.8
1019(17) 0.00363 1016.0 17.9
1033(17) 0.003405 1016.1 19.1
1056(18) 0.003090 1016.2 20.3
1010(17) 0.003439 1016.2 21.7
1040(17) 0.00353 1016.3 23.1
1045(17) 0.00357 1016.4 24.6
1043(17) 0.003359 1016.4 26.1
1072(18) 0.003009 1016.5 27.8
1015(17) 0.003505 1016.6 29.5
1051(17) 0.003491 1016.6 31.3
1030(17) 0.00360 1016.7 33.1
984(17) 0.00355 1016.7 35.0
1073(18) 0.002985 1016.8 36.9
1037(17) 0.003416 1016.9 38.8
1051(17) 0.00351 1016.9 40.6
1054(17) 0.003506 1017.0 42.3
1049(18) 0.003253 1017.1 44.0
1042(18) 0.003170 1017.1 45.4
1071(18) 0.003234 1017.2 46.7
1023(17) 0.00361 1017.3 47.7
1015(17) 0.00355 1017.3 48.4
1084(18) 0.003120 1017.4 48.8
1090(18) 0.003058 1017.4 48.9
1079(18) 0.003239 1017.5 48.7
1074(17) 0.003446 1017.6 48.2
1051(17) 0.003434 1017.6 47.3
1074(18) 0.003176 1017.7 46.2
1075(18) 0.003141 1017.8 44.9
1070(18) 0.003233 1017.8 43.3
1116(17) 0.003327 1017.9 41.6
1057(17) 0.003386 1017.9 39.8
1054(18) 0.003250 1018.0 38.0
1048(18) 0.003234 1018.1 36.1
999(17) 0.00359 1018.1 34.2
1055(17) 0.00354 1018.2 32.4
1053(17) 0.003361 1018.3 30.5
972(17) 0.00354 1018.3 28.7
1032(17) 0.003315 1018.4 27.0
1061(17) 0.003344 1018.5 25.4
1024(17) 0.00363 1018.5 23.8
1047(17) 0.003273 1018.6 22.4
1024(17) 0.003369 1018.6 21.0
1067(18) 0.003223 1018.7 19.7
1016(17) 0.00357 1018.8 18.4
1023(17) 0.00363 1018.8 17.3
1052(17) 0.003284 1018.9 16.2
1022(18) 0.003249 1019.0 15.2
994(17) 0.00354 1019.0 14.3
1060(17) 0.003450 1019.1 13.5
1025(17) 0.00364 1019.2 12.7
1055(17) 0.003303 1019.2 11.9
1049(18) 0.003132 1019.3 11.3
1068(18) 0.003229 1019.3 10.6
1032(17) 0.00354 1019.4 10.1
1063(17) 0.00351 1019.5 9.6
1021(17) 0.003464 1019.5 9.1
1037(18) 0.003128 1019.6 8.6
1041(17) 0.003372 1019.7 8.2
1021(17) 0.00358 1019.7 7.8
1084(17) 0.003422 1019.8 7.5
1077(18) 0.003230 1019.8 7.2
1080(18) 0.002931 1019.9 6.9
1035(17) 0.003426 1020.0 6.6
1040(17) 0.00358 1020.0 6.3
1011(17) 0.00365 1020.1 6.1
1053(18) 0.003224 1020.2 5.9
998(17) 0.003296 1020.2 5.7
1014(17) 0.003388 1020.3 5.5
1002(16) 0.00370 1020.4 5.3
1044(17) 0.00352 1020.4 5.1
1077(18) 0.003185 1020.5 5.0
1015(17) 0.003281 1020.5 4.8
1061(18) 0.003261 1020.6 4.7
1063(17) 0.003498 1020.7 4.6
1071(17) 0.003396 1020.7 4.4
1014(17) 0.003451 1020.8 4.3
1043(18) 0.003161 1020.9 4.2
1030(17) 0.003318 1020.9 4.1
1005(16) 0.00371 1021.0 4.0
1016(17) 0.003504 1021.1 3.9
991(17) 0.003466 1021.1 3.8
1030(18) 0.003182 1021.2 3.7
1021(17) 0.003427 1021.2 3.6
1045(17) 0.00358 1021.3 3.5
1001(17) 0.00359 1021.4 3.5
997(17) 0.003442 1021.4 3.4
1027(17) 0.003301 1021.5 3.3
1047(17) 0.003316 1021.6 3.3
1025(17) 0.00364 1021.6 3.2
1038(17) 0.003342 1021.7 3.1
1060(18) 0.003155 1021.8 3.1
1020(17) 0.003397 1021.8 3.0
1024(17) 0.003476 1021.9 3.0
1008(17) 0.00367 1021.9 2.9
1048(18) 0.003225 1022.0 2.8
1036(18) 0.003220 1022.1 2.8
1041(17) 0.003398 1022.1 2.8
1032(17) 0.00354 1022.2 2.7
1011(16) 0.00368 1022.3 2.7
1033(17) 0.003285 1022.3 2.6
997(17) 0.003437 1022.4 2.6
1004(17) 0.003423 1022.4 2.5
1023(17) 0.00355 1022.5 2.5
1022(17) 0.00366 1022.6 2.5
1050(17) 0.003308 1022.6 2.4
1045(18) 0.003114 1022.7 2.4
1030(17) 0.003322 1022.8 2.4
1012(17) 0.00362 1022.8 2.3
1042(17) 0.00356 1022.9 2.3
1019(17) 0.003402 1023.0 2.3
979(17) 0.003315 1023.0 2.2
1043(17) 0.003351 1023.1 2.2
1011(16) 0.00368 1023.1 2.2
1000(16) 0.00371 1023.2 2.1
1036(17) 0.003350 1023.3 2.1
1035(18) 0.003152 1023.3 2.1
1086(18) 0.003151 1023.4 2.1
1020(17) 0.00362 1023.5 2.0
1032(17) 0.00354 1023.5 2.0
976(17) 0.00351 1023.6 2.0
946(17) 0.00353 1023.7 2.0
955(17) 0.00366 1023.7 1.9
1046(17) 0.00355 1023.8 1.9
994(17) 0.00363 1023.8 1.9
987(17) 0.003483 1023.9 1.9
1002(17) 0.003346 1024.0 1.9
1018(17) 0.003355 1024.0 1.8
1037(17) 0.00357 1024.1 1.8
1053(17) 0.003450 1024.2 1.8
1061(18) 0.003194 1024.2 1.8
992(17) 0.003442 1024.3 1.8
1022(17) 0.003323 1024.3 1.8
1015(17) 0.00366 1024.4 1.7
1017(17) 0.003483 1024.5 1.7
1017(17) 0.003302 1024.5 1.7
1056(18) 0.003166 1024.2 1.7
973(17) 0.00361 1023.7 1.7
982(16) 0.00379 1023.2 1.7
1021(17) 0.003489 1022.7 1.7
1041(17) 0.003311 1022.3 1.6
1009(17) 0.003492 1021.8 1.6
1024(17) 0.003465 1021.3 1.6
1035(17) 0.00359 1020.8 1.6
1049(18) 0.003248 1020.4 1.6
1033(17) 0.003295 1019.9 1.6
1035(17) 0.003359 1019.4 1.6
1040(17) 0.003498 1019.0 1.6
1006(16) 0.00370 1018.5 1.5
1038(17) 0.003305 1018.0 1.5
1011(17) 0.003273 1017.5 1.5
1036(17) 0.003389 1017.1 1.5
1036(17) 0.00353 1016.6 1.5
1053(17) 0.003491 1016.1 1.5
1025(17) 0.003436 1015.6 1.5
1009(17) 0.003307 1015.2 1.5
1006(17) 0.003431 1014.7 1.5
1097(17) 0.003357 1014.2 1.4
1026(17) 0.00359 1013.7 1.4
1015(17) 0.00352 1013.3 1.4
1065(18) 0.003069 1012.8 1.4
1041(17) 0.003372 1012.3 1.4
1026(17) 0.00361 1011.9 1.4
1068(17) 0.003462 1011.4 1.4
1019(17) 0.003456 1010.9 1.4
1044(18) 0.003055 1010.4 1.4
1016(17) 0.003385 1010.0 1.4
1001(16) 0.00370 1009.5 1.4
1004(16) 0.00368 1009.0 1.4
1032(17) 0.003350 1008.5 1.3
1005(18) 0.003216 1008.1 1.3
1010(17) 0.003373 1007.6 1.3
1031(17) 0.00360 1007.1 1.3
1044(17) 0.003493 1006.6 1.4
1023(17) 0.003394 1006.2 1.4
1017(18) 0.003176 1005.7 1.4
1016(17) 0.003359 1005.2 1.4
1027(17) 0.00363 1004.8 1.4
985(16) 0.00374 1004.3 1.4
1042(17) 0.003290 1003.8 1.3
1032(18) 0.003255 1003.3 1.3
1002(17) 0.003481 1002.9 1.3
1034(17) 0.00358 1002.4 1.3
1014(17) 0.003433 1001.9 1.3
953(17) 0.00365 1001.4 1.3
997(17) 0.003448 1001.0 1.3
1013(17) 0.00354 1000.5 1.3
1041(17) 0.00360 1000.0 1.3
943(16) 0.00375 999.6 1.3
1000(17) 0.003398 999.1 1.3
983(17) 0.00358 998.6 1.3
1016(17) 0.003477 998.1 1.3
1003(16) 0.00371 997.7 1.3
1019(17) 0.003373 997.2 1.3
999(17) 0.003427 996.7 1.3
989(17) 0.00353 996.2 1.3
1008(17) 0.00355 995.8 1.3
1011(16) 0.00368 995.3 1.3
980(17) 0.003466 994.8 1.3
1016(18) 0.003229 994.3 1.2
983(17) 0.00358 993.9 1.2
1051(17) 0.003414 993.4 1.2
1033(17) 0.00362 992.9 1.2
973(17) 0.00357 992.5 1.2
989(17) 0.003326 992.0 1.2
1054(18) 0.003260 991.5 1.2
1001(16) 0.00369 991.0 1.2
988(16) 0.00378 990.6 1.2
990(17) 0.00355 990.1 1.2
1024(18) 0.003176 989.6 1.2
1049(17) 0.003285 989.1 1.2
1011(17) 0.00364 988.7 1.2
992(16) 0.00369 988.2 1.2
971(17) 0.00361 987.7 1.2
994(17) 0.003271 987.3 1.2
979(17) 0.00355 986.8 1.2
1008(16) 0.00369 986.3 1.2
988(16) 0.00374 985.8 1.2
933(16) 0.00381 985.4 1.2
974(18) 0.003262 984.9 1.2
958(17) 0.00364 984.4 1.2
1007(16) 0.00371 983.9 1.2
983(16) 0.00371 983.5 1.2
959(17) 0.00360 983.0 1.2
959(17) 0.003412 982.5 1.2
973(17) 0.00361 982.0 1.2
1015(17) 0.00367 981.6 1.2
995(17) 0.00366 981.1 1.2
970(17) 0.00359 980.6 1.2
984(17) 0.003371 980.2 1.2
969(17) 0.00355 979.7 1.2
985(16) 0.00376 979.2 1.2
986(17) 0.00360 978.7 1.1
1041(18) 0.003218 978.3 1.1
1022(17) 0.003302 977.8 1.1
991(17) 0.00356 977.3 1.1
1006(16) 0.00371 976.8 1.1
985(17) 0.00358 976.4 1.1
1036(18) 0.003247 975.9 1.1
1009(17) 0.003339 975.4 1.1
971(17) 0.00365 974.9 1.1
998(16) 0.00373 974.5 1.1
958(17) 0.00366 974.0 1.1
985(17) 0.003426 973.5 1.1
990(17) 0.003421 973.1 1.1
962(16) 0.00374 972.6 1.1
1000(16) 0.00373 972.1 1.1
991(17) 0.003490 971.6 1.1
1030(18) 0.003238 971.2 1.1
1021(17) 0.003422 970.7 1.1
979(16) 0.00375 970.2 1.1
992(16) 0.00373 969.7 1.1
941(16) 0.00377 969.3 1.1
961(17) 0.003452 968.8 1.1
937(16) 0.00380 968.3 1.1
956(16) 0.00381 967.9 1.1
923(16) 0.00404 967.4 1.1
937(17) 0.00367 966.9 1.1
973(17) 0.003367 966.4 1.1
1005(17) 0.003462 966.0 1.1
953(16) 0.00392 965.5 1.1
972(16) 0.00385 965.0 1.1
988(17) 0.00352 964.5 1.1
987(18) 0.003236 964.1 1.1
985(17) 0.00356 963.6 1.1
955(16) 0.00387 963.1 1.1
973(16) 0.00378 962.6 1.1
963(17) 0.00367 962.2 1.1
945(17) 0.003433 961.7 1.1
955(17) 0.00360 961.2 1.1
1008(16) 0.00371 960.8 1.1
948(16) 0.00386 960.3 1.1
954(17) 0.00367 959.8 1.1
1012(18) 0.003183 959.3 1.1
969(17) 0.00362 958.9 1.1
994(16) 0.00375 958.4 1.1
975(16) 0.00373 957.9 1.1
958(17) 0.00360 957.4 1.1
949(17) 0.003502 957.0 1.1
980(17) 0.003416 956.5 1.1
975(16) 0.00381 956.0 1.1
1000(17) 0.00358 955.6 1.1
989(17) 0.003411 955.1 1.1
955(17) 0.00356 954.6 1.1
952(17) 0.00364 954.1 1.1
931(16) 0.00398 953.7 1.1
945(16) 0.00382 953.2 1.1
982(17) 0.003451 952.7 1.1
975(17) 0.003450 952.2 1.1
975(17) 0.00358 951.8 1.1
970(16) 0.00384 951.3 1.1
986(17) 0.00365 950.8 1.1
973(17) 0.003493 950.3 1.1
949(17) 0.00364 949.9 1.1
983(17) 0.00366 949.4 1.1
956(16) 0.00388 948.9 1.1
952(17) 0.00362 948.5 1.1
955(17) 0.00354 948.0 1.1
911(16) 0.00383 947.5 1.1
953(16) 0.00376 947.0 1.1
965(16) 0.00383 946.6 1.1
978(17) 0.003500 946.1 1.1
988(17) 0.003326 945.6 1.1
933(16) 0.00376 945.1 1.1
959(16) 0.00379 944.7 1.1
981(16) 0.00382 944.2 1.1
914(16) 0.00384 943.7 1.1
883(16) 0.00375 943.3 1.1
955(17) 0.00354 942.8 1.1
916(16) 0.00401 942.3 1.1
915(16) 0.00406 941.8 1.1
897(16) 0.00404 941.4 1.1
970(17) 0.003329 940.9 1.1
948(17) 0.00364 940.4 1.1
970(16) 0.00381 939.9 1.1
962(16) 0.00379 939.5 1.1
980(17) 0.00352 939.0 1.1
930(17) 0.00354 938.5 1.1
945(17) 0.00367 938.0 1.1
965(16) 0.00389 937.6 1.1
916(16) 0.00400 937.1 1.1
944(16) 0.00371 936.6 1.1
942(17) 0.003479 936.2 1.1
941(16) 0.00369 935.7 1.1
917(16) 0.00406 935.2 1.1
960(16) 0.00382 934.7 1.1
945(17) 0.00365 934.3 1.1
888(16) 0.00383 933.8 1.1
950(17) 0.00364 933.3 1.1
889(15) 0.00420 932.8 1.1
952(16) 0.00379 932.4 1.1
940(16) 0.00371 931.9 1.1
935(16) 0.00372 931.4 1.1
964(17) 0.00354 930.9 1.1
950(16) 0.00392 930.5 1.1
946(16) 0.00370 930.0 1.1
922(17) 0.00366 929.5 1.1
923(17) 0.00362 929.1 1.1
904(16) 0.00384 928.6 1.1
954(16) 0.00391 928.1 1.1
951(16) 0.00367 927.6 1.2
912(16) 0.00379 927.2 1.2
983(17) 0.003460 926.7 1.2
984(17) 0.00363 926.2 1.2
909(16) 0.00410 925.7 1.2
901(16) 0.00385 925.3 1.2
944(17) 0.00358 924.8 1.2
937(16) 0.00373 924.3 1.2
958(16) 0.00375 923.9 1.2
918(16) 0.00405 923.4 1.2
914(16) 0.00380 922.9 1.2
905(17) 0.00361 922.4 1.2
898(16) 0.00391 922.0 1.2
924(16) 0.00400 921.5 1.2
977(16) 0.00378 921.0 1.2
967(17) 0.00353 920.5 1.2
962(17) 0.003395 920.1 1.2
911(16) 0.00381 919.6 1.2
915(16) 0.00409 919.1 1.2
910(16) 0.00407 918.6 1.2
920(16) 0.00378 918.2 1.2
914(17) 0.00357 917.7 1.2
926(16) 0.00374 917.2 1.2
979(16) 0.00377 916.8 1.2
941(16) 0.00396 916.3 1.2
946(17) 0.00367 915.8 1.2
887(17) 0.00367 915.3 1.2
892(16) 0.00390 914.9 1.2
917(16) 0.00402 914.4 1.2
916(16) 0.00402 913.9 1.2
923(16) 0.00383 913.4 1.2
905(17) 0.00362 913.0 1.2
909(16) 0.00379 912.5 1.2
903(16) 0.00413 912.0 1.3
941(16) 0.00388 911.6 1.3
898(16) 0.00391 911.1 1.3
914(16) 0.00367 910.6 1.3
875(16) 0.00403 910.1 1.3
887(15) 0.00418 909.7 1.3
935(16) 0.00388 909.2 1.3
943(17) 0.00362 908.7 1.3
917(16) 0.00374 908.2 1.3
924(16) 0.00379 907.8 1.3
936(16) 0.00399 907.3 1.3
922(16) 0.00388 906.8 1.3
899(16) 0.00385 906.3 1.3
927(17) 0.00359 905.9 1.3
879(16) 0.00391 905.4 1.3
910(16) 0.00406 904.9 1.3
896(16) 0.00400 904.5 1.3
949(17) 0.00357 904.0 1.3
958(17) 0.00352 903.5 1.3
892(16) 0.00394 903.0 1.3
904(16) 0.00413 902.6 1.4
958(17) 0.00353 902.1 1.4
892(16) 0.00375 901.6 1.4
899(16) 0.00382 901.1 1.4
927(16) 0.00390 900.7 1.4
914(16) 0.00408 900.2 1.4
892(16) 0.00386 899.7 1.4
913(17) 0.00360 899.2 1.4
884(16) 0.00391 898.8 1.4
874(16) 0.00414 898.3 1.4
890(15) 0.00417 897.8 1.4
957(17) 0.00355 897.4 1.4
897(16) 0.00369 896.9 1.4
873(16) 0.00400 896.4 1.4
875(15) 0.00417 895.9 1.5
903(16) 0.00411 895.5 1.5
919(16) 0.00378 895.0 1.5
931(17) 0.00353 894.5 1.5
915(16) 0.00387 894.0 1.5
910(16) 0.00408 893.6 1.5
891(16) 0.00415 893.1 1.5
964(17) 0.00360 892.6 1.5
929(17) 0.003486 892.2 1.5
923(16) 0.00375 891.7 1.5
912(16) 0.00405 891.2 1.6
892(16) 0.00412 890.7 1.6
884(16) 0.00395 890.3 1.6
866(16) 0.00387 889.8 1.6
878(16) 0.00402 889.3 1.6
922(16) 0.00404 888.8 1.6
921(16) 0.00397 888.4 1.6
879(16) 0.00394 887.9 1.6
867(16) 0.00381 887.4 1.6
894(16) 0.00380 886.9 1.7
846(15) 0.00440 886.5 1.7
886(16) 0.00404 886.0 1.7
845(16) 0.00406 885.5 1.7
872(16) 0.00382 885.1 1.7
912(16) 0.00369 884.6 1.7
901(16) 0.00413 884.1 1.8
855(15) 0.00417 883.6 1.8
891(16) 0.00382 883.2 1.8
853(16) 0.00402 882.7 1.8
897(16) 0.00389 882.2 1.8
887(15) 0.00420 881.7 1.8
896(16) 0.00390 881.3 1.9
916(16) 0.00383 880.8 1.9
896(16) 0.00386 880.3 1.9
897(16) 0.00395 879.8 1.9
914(16) 0.00408 879.4 1.9
868(16) 0.00404 878.9 2.0
893(16) 0.00371 878.4 2.0
921(17) 0.00365 878.0 2.0
871(15) 0.00420 877.5 2.0
902(16) 0.00412 877.0 2.1
867(16) 0.00409 876.5 2.1
908(16) 0.00374 876.1 2.1
877(16) 0.00403 875.6 2.2
910(16) 0.00400 875.1 2.2
814(15) 0.00457 874.6 2.2
866(16) 0.00400 874.2 2.3
899(17) 0.00367 873.7 2.3
872(16) 0.00407 873.2 2.4
906(16) 0.00403 872.7 2.4
889(15) 0.00418 872.3 2.4
917(16) 0.00375 871.8 2.5
917(17) 0.00357 871.3 2.5
877(16) 0.00402 870.8 2.6
877(15) 0.00422 870.4 2.7
860(15) 0.00432 869.9 2.7
875(16) 0.00399 869.4 2.8
919(17) 0.003475 868.9 2.9
868(16) 0.00401 868.5 2.9
920(16) 0.00403 868.0 3.0
847(15) 0.00434 867.5 3.1
840(15) 0.00420 867.0 3.2
886(16) 0.00374 866.6 3.3
875(16) 0.00402 866.1 3.4
837(15) 0.00444 865.6 3.5
839(15) 0.00440 865.2 3.6
864(16) 0.00399 864.7 3.7
887(16) 0.00370 864.2 3.9
883(16) 0.00394 863.7 4.0
873(15) 0.00422 863.3 4.1
841(15) 0.00439 862.8 4.3
883(16) 0.00406 862.3 4.4
845(16) 0.00414 861.8 4.6
876(16) 0.00391 861.4 4.8
852(15) 0.00434 860.9 5.0
899(16) 0.00407 860.4 5.2
877(16) 0.00399 859.9 5.4
898(16) 0.00377 859.5 5.6
865(16) 0.00400 859.0 5.8
843(15) 0.00443 858.5 6.0
858(15) 0.00419 858.0 6.2
888(16) 0.00382 857.6 6.5
848(16) 0.00398 857.1 6.7
835(15) 0.00425 856.6 6.9
883(15) 0.00422 856.1 7.2
903(16) 0.00384 855.7 7.4
892(16) 0.00380 855.2 7.6
876(16) 0.00392 854.7 7.8
892(16) 0.00397 854.3 8.0
906(16) 0.00411 853.8 8.2
854(16) 0.00402 853.3 8.3
867(16) 0.00388 852.8 8.5
864(16) 0.00404 852.4 8.6
880(16) 0.00413 851.9 8.6
885(15) 0.00421 851.4 8.7
926(16) 0.00375 850.9 8.7
866(16) 0.00383 850.5 8.7
839(15) 0.00420 850.0 8.6
819(15) 0.00446 849.5 8.5
856(15) 0.00438 849.0 8.4
891(16) 0.00392 848.6 8.3
915(17) 0.00354 848.1 8.2
850(16) 0.00407 847.6 8.0
848(15) 0.00437 847.1 7.8
852(15) 0.00437 846.7 7.6
862(16) 0.00400 846.2 7.4
789(16) 0.00414 845.7 7.2
887(16) 0.00385 845.2 7.1
783(15) 0.00471 844.8 6.9
828(15) 0.00443 844.3 6.7
831(15) 0.00419 843.8 6.5
836(16) 0.00395 843.3 6.3
891(16) 0.00389 842.9 6.1
852(15) 0.00439 842.4 6.0
844(15) 0.00432 841.9 5.8
827(16) 0.00415 841.5 5.7
832(16) 0.00397 841.0 5.5
853(16) 0.00406 840.5 5.4
831(15) 0.00452 840.0 5.3
849(15) 0.00432 839.6 5.2
859(16) 0.00397 839.1 5.0
860(16) 0.00384 838.6 4.9
848(16) 0.00411 838.1 4.9
831(15) 0.00447 837.7 4.8
839(15) 0.00428 837.2 4.7
855(16) 0.00403 836.7 4.6
852(16) 0.00389 836.2 4.6
804(15) 0.00445 835.8 4.5
832(15) 0.00446 835.3 4.5
827(15) 0.00434 834.8 4.4
814(15) 0.00423 834.3 4.4
830(16) 0.00405 833.9 4.4
803(15) 0.00441 833.4 4.4
819(15) 0.00454 832.9 4.4
812(15) 0.00438 832.4 4.3
812(15) 0.00420 832.0 4.3
835(16) 0.00406 831.5 4.3
838(15) 0.00424 831.0 4.3
802(15) 0.00465 830.5 4.4
862(16) 0.00397 830.1 4.4
817(16) 0.00407 829.6 4.4
818(15) 0.00419 829.1 4.4
791(15) 0.00465 828.7 4.4
829(15) 0.00448 828.2 4.5
842(16) 0.00409 827.7 4.5
811(16) 0.00410 827.2 4.5
796(15) 0.00434 826.8 4.6
779(15) 0.00463 826.3 4.6
788(15) 0.00473 825.8 4.7
819(15) 0.00418 825.3 4.7
833(16) 0.00400 824.9 4.8
817(15) 0.00429 824.4 4.8
841(15) 0.00434 823.9 4.9
860(15) 0.00431 823.4 5.0
802(15) 0.00437 823.0 5.0
834(16) 0.00393 822.5 5.1
836(15) 0.00420 822.0 5.2
842(15) 0.00441 821.5 5.3
827(15) 0.00449 821.1 5.4
788(15) 0.00449 820.6 5.5
814(16) 0.00395 820.1 5.6
809(15) 0.00434 819.6 5.7
833(15) 0.00447 819.2 5.8
817(15) 0.00445 818.7 5.9
822(16) 0.00413 818.2 6.0
840(16) 0.00386 817.7 6.1
808(15) 0.00433 817.3 6.3
798(15) 0.00469 816.8 6.4
780(15) 0.00461 816.3 6.6
816(16) 0.00409 815.9 6.7
808(16) 0.00407 815.4 6.9
838(16) 0.00405 814.9 7.1
831(15) 0.00442 814.4 7.3
795(15) 0.00463 814.0 7.5
835(15) 0.00417 813.5 7.7
818(16) 0.00414 813.0 7.9
779(15) 0.00450 812.5 8.1
795(15) 0.00468 812.1 8.4
793(15) 0.00443 811.6 8.6
819(15) 0.00419 811.1 8.9
815(16) 0.00416 810.6 9.2
800(15) 0.00431 810.2 9.5
795(15) 0.00468 809.7 9.9
796(15) 0.00452 809.2 10.2
842(16) 0.00400 808.7 10.6
829(16) 0.00411 808.3 11.0
782(15) 0.00460 807.8 11.5
809(15) 0.00458 807.3 12.0
823(15) 0.00422 806.8 12.5
787(15) 0.00432 806.4 13.0
812(15) 0.00424 805.9 13.6
826(15) 0.00434 805.4 14.3
830(15) 0.00447 804.9 15.0
798(15) 0.00430 804.5 15.7
802(16) 0.00413 804.0 16.6
784(15) 0.00430 803.5 17.5
758(14) 0.00477 803.1 18.5
832(15) 0.00446 802.6 19.6
800(15) 0.00439 802.1 20.8
820(16) 0.00399 801.6 22.2
832(16) 0.00414 801.2 23.7
842(15) 0.00433 800.7 25.3
822(15) 0.00453 800.2 27.2
806(15) 0.00430 799.7 29.3
797(16) 0.00410 799.3 31.7
845(16) 0.00411 798.8 34.4
852(15) 0.00426 798.3 37.4
819(15) 0.00451 797.8 41.0
850(16) 0.00402 797.4 45.1
860(16) 0.00379 796.9 50.0
867(16) 0.00405 796.4 55.9
877(15) 0.00416 795.9 63.2
855(15) 0.00431 795.5 72.5
894(16) 0.00384 795.0 84.5
904(17) 0.00364 794.5 100.6
892(16) 0.00384 794.0 122.0
910(16) 0.00406 793.6 150.6
951(16) 0.00384 793.1 188.5
1001(17) 0.003378 792.6 237.4
1041(18) 0.003131 792.2 299.0
1107(18) 0.003065 791.7 373.9
1171(18) 0.003184 791.2 461.3
1281(19) 0.002794 790.7 557.8
1354(20) 0.002569 790.3 656.5
1432(21) 0.002346 789.8 745.7
1590(22) 0.002122 789.3 809.2
1657(21) 0.002236 788.8 831.4
1675(22) 0.002111 788.4 806.0
1559(21) 0.002194 787.9 740.1
1448(21) 0.002294 787.4 649.8
1340(19) 0.002657 786.9 551.0
1211(18) 0.003031 786.5 455.0
1164(18) 0.003023 786.0 368.5
1070(18) 0.003198 785.5 294.6
1018(17) 0.003310 785.0 234.0
922(16) 0.00387 784.6 186.0
934(16) 0.00394 784.1 148.9
918(16) 0.00379 783.6 120.9
898(17) 0.00364 783.1 100.0
822(16) 0.00416 782.7 84.4
815(15) 0.00440 782.2 72.6
803(15) 0.00458 781.7 63.6
801(15) 0.00433 781.2 56.4
862(16) 0.00380 780.8 50.7
826(15) 0.00427 780.3 45.9
866(15) 0.00419 779.8 41.9
810(15) 0.00464 779.4 38.5
779(15) 0.00447 778.9 35.5
806(16) 0.00405 778.4 32.9
801(15) 0.00437 777.9 30.7
802(15) 0.00452 777.5 28.7
793(15) 0.00468 777.0 26.9
833(16) 0.00415 776.5 25.3
829(16) 0.00393 776.0 23.9
780(15) 0.00453 775.6 22.6
774(14) 0.00481 775.1 21.5
781(14) 0.00476 774.6 20.5
809(15) 0.00427 774.1 19.5
790(16) 0.00405 773.7 18.7
777(15) 0.00445 773.2 18.0
763(14) 0.00485 772.7 17.3
788(14) 0.00477 772.2 16.7
772(15) 0.00440 771.8 16.1
758(15) 0.00434 771.3 15.6
789(15) 0.00442 770.8 15.1
766(14) 0.00486 770.3 14.7
767(14) 0.00482 769.9 14.3
787(15) 0.00436 769.4 14.0
781(15) 0.00432 768.9 13.6
772(15) 0.00439 768.4 13.3
716(14) 0.00521 768.0 13.1
764(15) 0.00471 767.5 12.8
765(15) 0.00451 767.0 12.6
773(15) 0.00436 766.6 12.4
754(15) 0.00471 766.1 12.3
750(14) 0.00494 765.6 12.1
786(15) 0.00453 765.1 12.0
748(15) 0.00459 764.7 11.8
758(15) 0.00447 764.2 11.7
803(15) 0.00423 763.7 11.6
776(14) 0.00482 763.2 11.6
792(15) 0.00445 762.8 11.5
770(15) 0.00437 762.3 11.5
809(16) 0.00412 761.8 11.4
794(15) 0.00443 761.3 11.4
773(14) 0.00485 760.9 11.4
775(15) 0.00461 760.4 11.4
770(15) 0.00446 759.9 11.4
753(15) 0.00458 759.4 11.4
768(15) 0.00467 759.0 11.4
745(14) 0.00497 758.5 11.5
763(15) 0.00461 758.0 11.6
745(15) 0.00450 757.5 11.6
739(15) 0.00461 757.1 11.7
733(14) 0.00494 756.6 11.8
764(14) 0.00489 756.1 11.9
736(15) 0.00475 755.6 12.0
769(15) 0.00422 755.2 12.2
734(14) 0.00478 754.7 12.3
763(14) 0.00481 754.2 12.5
738(14) 0.00506 753.8 12.7
753(15) 0.00463 753.3 12.9
755(15) 0.00433 752.8 13.1
741(15) 0.00465 752.3 13.3
755(14) 0.00489 751.8 13.5
780(15) 0.00475 751.3 13.7
748(15) 0.00471 750.8 13.9
757(15) 0.00427 750.3 14.1
767(15) 0.00456 749.8 14.3
763(14) 0.00481 749.3 14.5
730(14) 0.00504 748.8 14.7
767(15) 0.00459 748.3 14.9
710(14) 0.00476 747.8 15.1
721(14) 0.00492 747.3 15.4
767(14) 0.00483 746.8 15.7
773(14) 0.00477 746.3 15.9
750(15) 0.00461 745.8 16.3
726(15) 0.00458 745.3 16.6
753(15) 0.00456 744.8 17.0
738(14) 0.00505 744.3 17.3
698(14) 0.00527 743.8 17.7
721(15) 0.00475 743.3 18.2
764(15) 0.00428 742.8 18.6
733(15) 0.00473 742.3 19.1
771(14) 0.00485 741.8 19.6
758(15) 0.00467 741.3 20.2
732(15) 0.00475 740.8 20.8
751(15) 0.00449 740.3 21.4
734(14) 0.00479 739.8 22.0
732(14) 0.00507 739.3 22.7
737(14) 0.00486 738.8 23.4
705(14) 0.00480 738.3 24.2
695(14) 0.00497 737.8 25.0
753(15) 0.00453 737.3 25.8
734(14) 0.00507 736.8 26.7
725(14) 0.00489 736.3 27.7
736(15) 0.00460 735.8 28.7
750(15) 0.00455 735.3 29.8
797(15) 0.00441 734.8 31.0
738(14) 0.00504 734.3 32.2
728(15) 0.00464 733.8 33.5
713(15) 0.00472 733.3 34.9
754(15) 0.00452 732.8 36.4
795(15) 0.00451 732.3 38.0
756(14) 0.00490 731.8 39.7
742(15) 0.00475 731.3 41.6
792(16) 0.00413 730.8 43.6
750(15) 0.00466 730.3 45.8
755(14) 0.00480 729.8 48.1
728(14) 0.00506 729.3 50.7
747(15) 0.00460 728.8 53.4
745(15) 0.00437 728.3 56.5
763(15) 0.00453 727.8 59.8
761(14) 0.00486 727.3 63.6
779(15) 0.00472 726.8 67.7
739(15) 0.00473 726.3 72.2
777(16) 0.00412 725.8 77.4
789(15) 0.00444 725.3 83.1
800(15) 0.00466 724.8 89.6
822(15) 0.00448 724.3 97.0
799(15) 0.00439 723.8 105.3
800(15) 0.00418 723.3 114.7
816(15) 0.00427 722.8 125.4
827(15) 0.00447 722.3 137.5
875(15) 0.00419 721.8 151.2
857(16) 0.00401 721.3 166.7
874(16) 0.00379 720.8 184.1
924(16) 0.00373 720.3 203.6
888(15) 0.00420 719.8 225.3
935(16) 0.00385 719.3 249.4
963(17) 0.00357 718.8 275.9
1005(18) 0.003180 718.3 304.9
1035(17) 0.003291 717.8 336.4
1070(17) 0.003468 717.3 370.1
1124(18) 0.003211 716.8 405.8
1190(19) 0.002867 716.3 442.9
1238(19) 0.002660 715.8 480.8
1233(19) 0.002834 715.3 518.3
1343(19) 0.002783 714.8 554.2
1343(19) 0.002701 714.3 586.7
1366(20) 0.002591 713.8 614.0
1395(20) 0.002436 713.3 634.3
1324(19) 0.002664 712.8 646.1
1379(19) 0.002701 712.3 648.5
1376(20) 0.002575 711.8 641.1
1309(20) 0.002622 711.4 624.7
1236(19) 0.002793 710.9 600.5
1200(18) 0.002945 710.4 570.3
1180(18) 0.003150 709.9 535.8
1123(18) 0.003157 709.4 499.0
1118(18) 0.003040 708.9 461.2
1042(17) 0.003338 708.4 423.7
1029(17) 0.00352 707.9 387.3
987(16) 0.00379 707.4 352.7
975(17) 0.003460 706.9 320.2
947(17) 0.00352 706.4 290.1
975(17) 0.00356 705.9 262.5
983(16) 0.00369 705.4 237.3
874(15) 0.00429 704.9 214.5
888(16) 0.00394 704.4 194.1
884(16) 0.00375 703.9 175.8
872(16) 0.00398 703.4 159.5
833(15) 0.00444 702.9 145.1
867(15) 0.00427 702.4 132.4
836(15) 0.00426 701.9 121.1
851(16) 0.00385 701.4 111.2
809(15) 0.00423 700.9 102.5
793(15) 0.00467 700.4 94.8
753(14) 0.00494 699.9 88.0
802(15) 0.00435 699.4 82.0
800(16) 0.00401 698.9 76.7
766(15) 0.00459 698.4 72.0
815(15) 0.00454 697.9 67.8
759(14) 0.00489 697.4 64.1
786(15) 0.00442 696.9 60.7
778(16) 0.00410 696.4 57.6
741(14) 0.00477 695.9 54.9
778(14) 0.00479 695.4 52.3
730(14) 0.00499 694.9 50.1
736(15) 0.00472 694.4 48.0
765(15) 0.00432 693.9 46.1
719(14) 0.00484 693.4 44.3
729(14) 0.00507 692.9 42.7
748(14) 0.00490 692.4 41.3
718(14) 0.00489 691.9 39.9
733(15) 0.00456 691.4 38.7
744(15) 0.00445 690.9 37.6
735(14) 0.00502 690.4 36.6
705(14) 0.00517 689.9 35.7
709(14) 0.00482 689.4 34.9
741(15) 0.00452 688.9 34.2
747(15) 0.00467 688.4 33.6
719(14) 0.00518 687.9 33.0
660(14) 0.00523 687.4 32.6
731(15) 0.00465 686.9 32.2
693(14) 0.00495 686.4 31.9
704(14) 0.00506 685.9 31.7
730(14) 0.00509 685.4 31.7
704(14) 0.00494 684.9 31.7
736(15) 0.00462 684.4 31.8
718(14) 0.00478 683.9 32.1
666(14) 0.00545 683.4 32.5
672(13) 0.00554 682.9 33.0
720(14) 0.00481 682.4 33.6
741(15) 0.00458 681.9 34.5
732(15) 0.00473 681.4 35.5
711(14) 0.00512 680.9 36.6
689(14) 0.00544 680.4 38.0
714(15) 0.00472 679.9 39.6
732(15) 0.00449 679.4 41.4
686(14) 0.00511 678.9 43.4
683(14) 0.00536 678.4 45.6
680(13) 0.00550 677.9 48.0
725(15) 0.00475 677.4 50.7
722(15) 0.00443 676.9 53.6
729(14) 0.00478 676.4 56.6
731(14) 0.00506 675.9 59.9
728(14) 0.00510 675.4 63.2
729(14) 0.00489 674.9 66.5
749(15) 0.00428 674.4 69.8
751(15) 0.00454 673.9 73.0
771(14) 0.00478 673.4 75.8
730(14) 0.00506 672.9 78.2
762(15) 0.00460 672.4 80.0
774(15) 0.00427 671.9 81.2
760(15) 0.00466 671.4 81.6
798(15) 0.00468 670.9 81.2
763(14) 0.00480 670.4 80.1
736(15) 0.00468 669.9 78.4
704(15) 0.00475 669.4 76.1
723(14) 0.00479 668.9 73.4
745(14) 0.00502 668.4 70.5
727(14) 0.00509 667.9 67.4
712(14) 0.00491 667.4 64.3
709(14) 0.00479 666.9 61.3
722(14) 0.00480 666.4 58.5
728(14) 0.00511 665.9 55.8
714(14) 0.00512 665.4 53.4
655(14) 0.00545 664.9 51.3
708(15) 0.00471 664.4 49.5
708(14) 0.00490 663.9 47.9
723(14) 0.00517 663.4 46.6
723(14) 0.00485 662.9 45.7
703(14) 0.00488 662.4 45.0
690(14) 0.00494 661.9 44.6
701(14) 0.00506 661.4 44.6
694(14) 0.00537 660.9 44.8
672(14) 0.00522 660.4 45.2
686(14) 0.00501 659.9 46.0
685(14) 0.00513 659.4 47.0
683(14) 0.00532 658.9 48.2
695(14) 0.00534 658.4 49.7
692(14) 0.00501 657.9 51.4
669(14) 0.00506 657.4 53.3
675(14) 0.00517 656.9 55.4
702(14) 0.00520 656.4 57.6
693(14) 0.00538 655.9 59.9
691(14) 0.00511 655.4 62.3
644(14) 0.00530 654.9 64.7
675(14) 0.00517 654.4 67.0
711(14) 0.00516 653.9 69.3
746(14) 0.00502 653.4 71.3
710(14) 0.00483 652.9 73.1
713(15) 0.00452 652.4 74.5
692(14) 0.00503 651.9 75.5
681(14) 0.00539 651.4 76.0
713(14) 0.00526 650.9 76.0
720(14) 0.00496 650.4 75.4
714(15) 0.00447 649.9 74.4
684(14) 0.00510 649.4 72.8
706(14) 0.00525 648.9 70.8
673(13) 0.00551 648.4 68.5
708(14) 0.00480 647.9 65.9
741(15) 0.00427 647.4 63.1
702(14) 0.00500 646.9 60.2
685(14) 0.00543 646.4 57.2
670(13) 0.00550 645.9 54.2
693(14) 0.00507 645.4 51.2
662(14) 0.00501 644.9 48.3
672(14) 0.00512 644.4 45.5
680(14) 0.00540 643.9 42.8
668(13) 0.00550 643.4 40.3
650(14) 0.00527 642.9 37.9
643(14) 0.00527 642.4 35.6
667(14) 0.00524 641.9 33.5
690(14) 0.00544 641.4 31.5
646(13) 0.00558 640.9 29.7
670(14) 0.00521 640.4 28.0
639(14) 0.00536 639.9 26.4
647(14) 0.00533 639.4 25.0
650(13) 0.00570 638.9 23.6
619(13) 0.00583 638.4 22.4
630(13) 0.00550 637.9 21.3
635(14) 0.00526 637.4 20.3
619(13) 0.00575 636.9 19.4
637(13) 0.00582 636.4 18.5
664(14) 0.00536 635.9 17.8
645(14) 0.00530 635.4 17.1
669(14) 0.00501 634.9 16.5
634(13) 0.00559 634.4 15.9
638(13) 0.00587 633.9 15.4
640(14) 0.00548 633.4 14.9
693(14) 0.00477 632.9 14.5
634(13) 0.00550 632.4 14.1
650(13) 0.00554 631.9 13.8
632(13) 0.00595 631.4 13.5
643(14) 0.00530 630.9 13.3
660(14) 0.00488 630.4 13.1
634(14) 0.00541 629.9 12.9
658(13) 0.00557 629.4 12.7
623(13) 0.00597 628.9 12.6
641(14) 0.00544 628.4 12.5
606(13) 0.00551 627.9 12.4
648(14) 0.00537 627.4 12.4
640(13) 0.00577 626.9 12.4
608(13) 0.00603 626.4 12.4
640(14) 0.00547 625.9 12.5
615(14) 0.00527 625.4 12.6
624(13) 0.00562 624.9 12.7
680(14) 0.00548 624.4 12.9
631(13) 0.00586 623.9 13.2
619(13) 0.00563 623.4 13.5
647(14) 0.00498 622.9 14.0
610(13) 0.00590 622.4 14.5
638(13) 0.00581 621.9 15.2
611(13) 0.00603 621.4 16.1
632(14) 0.00534 620.9 17.4
652(14) 0.00489 620.4 19.3
626(13) 0.00553 619.9 21.9
673(13) 0.00558 619.4 25.9
638(13) 0.00567 618.9 31.7
641(14) 0.00548 618.4 40.0
670(14) 0.00484 617.9 51.3
663(14) 0.00519 617.4 65.9
691(14) 0.00535 616.9 83.5
731(14) 0.00499 616.4 103.0
755(15) 0.00455 615.9 121.9
792(16) 0.00413 615.4 136.2
772(15) 0.00444 614.9 141.3
771(14) 0.00479 614.4 135.0
720(14) 0.00501 613.9 119.9
716(14) 0.00486 613.4 100.5
695(14) 0.00507 612.9 80.8
716(14) 0.00494 612.4 63.2
662(13) 0.00561 611.9 48.7
640(13) 0.00560 611.4 37.4
624(13) 0.00559 610.9 29.1
641(14) 0.00542 610.4 23.3
638(13) 0.00556 609.9 19.2
626(13) 0.00595 609.4 16.4
596(13) 0.00590 608.9 14.4
618(13) 0.00560 608.4 13.0
642(14) 0.00544 607.9 11.8
620(13) 0.00582 607.4 10.9
586(12) 0.00640 606.9 10.1
624(14) 0.00547 606.4 9.5
639(14) 0.00515 605.9 8.9
610(13) 0.00571 605.4 8.4
612(13) 0.00591 604.9 8.0
610(13) 0.00611 604.4 7.6
589(13) 0.00602 603.9 7.3
604(13) 0.00556 603.4 6.9
584(13) 0.00600 602.9 6.7
593(13) 0.00621 602.4 6.4
598(13) 0.00623 601.9 6.2
650(14) 0.00537 601.4 6.0
615(14) 0.00533 600.9 5.8
616(13) 0.00566 600.4 5.6
638(13) 0.00579 599.9 5.4
619(13) 0.00598 599.4 5.2
608(13) 0.00572 598.9 5.1
624(14) 0.00505 598.4 4.9
590(13) 0.00594 597.9 4.8
619(13) 0.00604 597.4 4.7
602(13) 0.00620 596.9 4.6
583(13) 0.00599 596.4 4.5
603(14) 0.00531 595.9 4.4
609(13) 0.00564 595.4 4.3
625(13) 0.00595 594.9 4.2
570(12) 0.00652 594.4 4.1
590(13) 0.00584 593.9 4.0
600(14) 0.00548 593.4 3.9
610(13) 0.00572 592.9 3.8
611(13) 0.00603 592.4 3.8
598(13) 0.00610 591.9 3.7
624(13) 0.00562 591.4 3.6
608(13) 0.00552 590.9 3.6
582(13) 0.00577 590.4 3.5
585(13) 0.00630 589.9 3.5
585(13) 0.00616 589.4 3.4
574(13) 0.00610 588.9 3.3
608(13) 0.00554 588.4 3.3
556(13) 0.00639 587.9 3.2
610(13) 0.00611 587.4 3.2
610(13) 0.00587 586.9 3.1
598(13) 0.00565 586.4 3.1
594(13) 0.00576 585.9 3.1
581(13) 0.00605 585.4 3.0
581(12) 0.00645 584.9 3.0
596(13) 0.00596 584.4 2.9
575(13) 0.00612 583.9 2.9
601(13) 0.00583 583.4 2.9
608(13) 0.00590 582.9 2.8
568(12) 0.00649 582.4 2.8
538(12) 0.00652 581.9 2.8
548(13) 0.00623 581.4 2.7
595(13) 0.00569 581.0 2.7
576(13) 0.00631 580.7 2.7
566(12) 0.00659 580.3 2.6
551(12) 0.00658 580.0 2.6
599(13) 0.00554 579.6 2.6
592(13) 0.00580 579.3 2.6
572(13) 0.00636 578.9 2.5
597(13) 0.00618 578.5 2.5
584(13) 0.00586 578.2 2.5
565(13) 0.00580 577.8 2.5
567(13) 0.00623 577.5 2.4
571(12) 0.00644 577.1 2.4
586(13) 0.00635 576.8 2.4
578(13) 0.00610 576.4 2.4
583(13) 0.00553 576.1 2.4
579(13) 0.00589 575.7 2.4
594(13) 0.00621 575.3 2.3
562(12) 0.00655 575.0 2.3
564(13) 0.00617 574.6 2.3
556(13) 0.00575 574.3 2.3
587(13) 0.00592 573.9 2.3
579(13) 0.00635 573.6 2.2
571(12) 0.00643 573.2 2.2
577(13) 0.00610 572.8 2.2
585(13) 0.00556 572.5 2.2
525(12) 0.00651 572.1 2.2
555(12) 0.00672 571.8 2.2
567(12) 0.00644 571.4 2.2
604(13) 0.00565 571.1 2.1
576(13) 0.00582 570.7 2.1
565(13) 0.00614 570.3 2.1
546(12) 0.00680 570.0 2.1
578(13) 0.00627 569.6 2.1
568(13) 0.00612 569.3 2.1
568(13) 0.00584 568.9 2.1
576(13) 0.00597 568.6 2.1
567(12) 0.00660 568.2 2.0
536(12) 0.00674 567.9 2.0
559(13) 0.00613 567.5 2.0
596(13) 0.00570 567.1 2.0
627(13) 0.00570 566.8 2.0
588(13) 0.00638 566.4 2.0
562(13) 0.00609 566.1 2.0
558(13) 0.00621 565.7 2.0
589(13) 0.00576 565.4 2.0
554(12) 0.00659 565.0 2.0
552(12) 0.00676 564.6 2.0
593(13) 0.00577 564.3 2.0
570(13) 0.00605 563.9 1.9
563(13) 0.00622 563.6 1.9
545(12) 0.00669 563.2 1.9
577(12) 0.00643 562.9 1.9
569(13) 0.00609 562.5 1.9
570(13) 0.00587 562.1 1.9
532(12) 0.00662 561.8 1.9
568(12) 0.00645 561.4 1.9
543(12) 0.00683 561.1 1.9
555(13) 0.00608 560.7 1.9
561(13) 0.00603 560.4 1.9
597(13) 0.00591 560.0 1.9
549(12) 0.00665 559.7 1.9
579(12) 0.00645 559.3 1.9
540(12) 0.00658 558.9 1.9
572(13) 0.00564 558.6 1.9
577(13) 0.00611 558.2 1.9
558(12) 0.00672 557.9 1.9
595(13) 0.00620 557.5 1.9
549(12) 0.00648 557.2 1.9
564(13) 0.00570 556.8 2.0
576(13) 0.00612 556.4 2.0
577(12) 0.00644 556.1 2.0
604(13) 0.00611 555.7 2.0
573(13) 0.00605 555.4 2.0
553(13) 0.00614 555.0 2.0
549(13) 0.00629 554.7 2.0
559(12) 0.00657 554.3 2.0
542(12) 0.00672 554.0 2.0
550(13) 0.00624 553.6 2.1
548(13) 0.00608 553.2 2.1
542(13) 0.00640 552.9 2.1
564(12) 0.00660 552.5 2.1
560(12) 0.00643 552.2 2.1
556(13) 0.00614 551.8 2.1
533(12) 0.00652 551.5 2.1
540(12) 0.00661 551.1 2.1
568(12) 0.00649 550.7 2.1
592(13) 0.00622 550.4 2.1
563(13) 0.00623 550.0 2.1
560(13) 0.00604 549.7 2.1
555(12) 0.00644 549.3 2.1
595(13) 0.00628 549.0 2.1
558(13) 0.00639 548.6 2.1
561(13) 0.00603 548.2 2.1
580(13) 0.00585 547.9 2.1
590(13) 0.00605 547.5 2.1
563(12) 0.00671 547.2 2.1
523(12) 0.00671 546.8 2.1
541(13) 0.00630 546.5 2.1
561(13) 0.00594 546.1 2.1
529(12) 0.00686 545.8 2.1
547(12) 0.00679 545.4 2.1
545(13) 0.00631 545.0 2.1
551(13) 0.00597 544.7 2.1
530(12) 0.00666 544.3 2.1
563(12) 0.00646 544.0 2.1
570(12) 0.00650 543.7 2.1
584(13) 0.00579 543.4 2.1
519(12) 0.00643 543.2 2.1
550(13) 0.00637 542.9 2.1
568(12) 0.00653 542.7 2.1
568(12) 0.00654 542.4 2.1
562(13) 0.00635 542.1 2.1
536(13) 0.00604 541.9 2.1
542(12) 0.00650 541.6 2.1
544(12) 0.00680 541.4 2.2
525(12) 0.00707 541.1 2.2
557(13) 0.00628 540.8 2.2
555(13) 0.00574 540.6 2.2
547(13) 0.00613 540.3 2.3
529(12) 0.00699 540.0 2.3
586(13) 0.00635 539.8 2.3
535(12) 0.00664 539.5 2.3
543(13) 0.00601 539.3 2.4
554(13) 0.00634 539.0 2.4
554(12) 0.00664 538.7 2.4
536(12) 0.00681 538.5 2.5
535(12) 0.00647 538.2 2.5
567(13) 0.00570 538.0 2.6
539(12) 0.00646 537.7 2.6
530(12) 0.00706 537.4 2.7
570(13) 0.00625 537.2 2.8
564(13) 0.00610 536.9 2.8
551(13) 0.00625 536.7 2.9
551(13) 0.00631 536.4 3.0
534(12) 0.00698 536.1 3.1
529(12) 0.00695 535.9 3.1
558(13) 0.00610 535.6 3.2
537(13) 0.00640 535.4 3.4
564(13) 0.00616 535.1 3.5
554(12) 0.00672 534.8 3.6
550(12) 0.00659 534.6 3.7
540(13) 0.00616 534.3 3.9
488(12) 0.00696 534.1 4.0
563(13) 0.00614 533.8 4.2
547(12) 0.00686 533.5 4.4
531(12) 0.00647 533.3 4.6
546(13) 0.00607 533.0 4.9
531(12) 0.00647 532.8 5.2
504(12) 0.00704 532.5 5.5
553(12) 0.00673 532.2 5.8
536(12) 0.00643 532.0 6.2
565(13) 0.00575 531.7 6.6
532(13) 0.00638 531.5 7.1
535(12) 0.00680 531.2 7.6
533(12) 0.00697 530.9 8.2
557(13) 0.00625 530.7 9.0
553(13) 0.00605 530.4 9.8
558(13) 0.00622 530.2 10.8
544(12) 0.00678 529.9 12.0
549(12) 0.00678 529.6 13.4
555(13) 0.00621 529.4 15.2
525(13) 0.00621 529.1 17.6
552(13) 0.00627 528.9 20.7
574(13) 0.00636 528.6 24.8
604(13) 0.00618 528.3 30.4
589(13) 0.00587 528.1 37.9
568(13) 0.00565 527.8 47.8
577(13) 0.00597 527.6 60.6
627(13) 0.00590 527.3 76.3
619(13) 0.00600 527.0 95.0
639(14) 0.00534 526.8 116.0
649(14) 0.00498 526.5 137.8
668(14) 0.00510 526.3 157.3
696(14) 0.00536 526.0 170.5
708(14) 0.00521 525.7 173.7
720(14) 0.00487 525.5 165.8
686(14) 0.00489 525.2 149.3
674(14) 0.00513 525.0 128.3
625(13) 0.00599 524.7 106.7
567(12) 0.00640 524.4 86.5
573(13) 0.00603 524.2 69.1
550(13) 0.00619 523.9 54.7
586(13) 0.00580 523.7 43.2
549(12) 0.00679 523.4 34.4
540(12) 0.00664 523.1 27.8
530(12) 0.00648 522.9 22.9
520(12) 0.00647 522.6 19.3
552(13) 0.00616 522.3 16.5
538(12) 0.00698 522.1 14.4
555(12) 0.00650 521.8 12.8
534(13) 0.00624 521.6 11.5
548(13) 0.00597 521.3 10.4
538(13) 0.00639 521.0 9.5
500(12) 0.00747 520.8 8.7
542(13) 0.00639 520.5 8.1
542(13) 0.00619 520.3 7.5
522(13) 0.00626 520.0 7.0
538(12) 0.00660 519.7 6.5
505(12) 0.00733 519.5 6.1
521(12) 0.00666 519.2 5.8
558(13) 0.00594 519.0 5.5
534(12) 0.00662 518.7 5.2
533(12) 0.00687 518.4 4.9
525(12) 0.00707 518.2 4.7
519(12) 0.00663 517.9 4.5
515(13) 0.00638 517.7 4.3
496(12) 0.00702 517.4 4.2
522(12) 0.00671 517.1 4.0
525(12) 0.00707 516.9 3.9
516(12) 0.00694 516.6 3.8
509(12) 0.00665 516.4 3.6
530(12) 0.00661 516.1 3.5
521(12) 0.00701 515.8 3.5
550(12) 0.00672 515.6 3.4
491(12) 0.00710 515.3 3.3
520(13) 0.00616 515.1 3.2
539(13) 0.00631 514.8 3.2
512(12) 0.00703 514.5 3.1
507(12) 0.00731 514.3 3.1
565(13) 0.00616 514.0 3.0
504(12) 0.00657 513.8 3.0
529(13) 0.00624 513.5 2.9
485(11) 0.00759 513.2 2.9
507(12) 0.00727 513.0 2.9
537(13) 0.00624 512.7 2.8
506(12) 0.00658 512.5 2.8
558(13) 0.00621 512.2 2.8
539(12) 0.00697 511.9 2.8
531(12) 0.00678 511.7 2.8
514(12) 0.00685 511.4 2.8
536(13) 0.00595 511.2 2.8
529(13) 0.00631 510.9 2.8
498(12) 0.00747 510.6 2.8
497(12) 0.00731 510.4 2.8
510(12) 0.00646 510.1 2.8
492(12) 0.00687 509.9 2.8
527(12) 0.00664 509.6 2.8
521(12) 0.00712 509.3 2.8
509(12) 0.00714 509.1 2.8
512(12) 0.00665 508.8 2.9
525(12) 0.00651 508.6 2.9
531(12) 0.00664 508.3 2.9
532(12) 0.00701 508.0 3.0
529(12) 0.00663 507.8 3.0
504(12) 0.00700 507.5 3.0
521(12) 0.00669 507.3 3.1
488(12) 0.00735 507.0 3.1
527(12) 0.00700 506.7 3.2
484(12) 0.00729 506.5 3.3
528(12) 0.00653 506.2 3.3
534(13) 0.00634 506.0 3.4
523(12) 0.00688 505.7 3.5
508(12) 0.00725 505.4 3.5
530(12) 0.00657 505.2 3.6
523(12) 0.00651 504.9 3.7
515(12) 0.00669 504.7 3.8
495(12) 0.00749 504.4 3.9
546(12) 0.00682 504.1 4.0
490(12) 0.00731 503.9 4.1
494(12) 0.00678 503.6 4.3
515(12) 0.00672 503.3 4.4
526(12) 0.00704 503.1 4.5
531(12) 0.00701 502.8 4.7
477(12) 0.00741 502.6 4.8
498(12) 0.00653 502.3 5.0
496(12) 0.00713 502.0 5.2
505(12) 0.00722 501.8 5.3
496(12) 0.00739 501.5 5.5
518(12) 0.00662 501.3 5.7
496(12) 0.00678 501.0 5.9
533(12) 0.00673 500.7 6.1
517(12) 0.00719 500.5 6.3
493(12) 0.00752 500.2 6.6
538(12) 0.00644 500.0 6.8
504(12) 0.00661 499.7 7.1
540(12) 0.00641 499.4 7.3
518(12) 0.00724 499.2 7.6
510(12) 0.00710 498.9 7.8
488(12) 0.00737 498.7 8.1
496(12) 0.00670 498.4 8.4
479(12) 0.00714 498.1 8.6
529(12) 0.00695 497.9 8.9
527(12) 0.00690 497.6 9.2
532(12) 0.00666 497.4 9.5
548(13) 0.00617 497.1 9.8
507(12) 0.00683 496.8 10.0
530(12) 0.00701 496.6 10.3
508(12) 0.00718 496.3 10.6
522(12) 0.00661 496.1 10.9
508(12) 0.00651 495.8 11.1
508(12) 0.00694 495.5 11.3
527(12) 0.00704 495.3 11.5
521(12) 0.00679 495.0 11.8
497(12) 0.00710 494.8 12.0
498(12) 0.00692 494.5 12.1
509(12) 0.00699 494.2 12.4
543(12) 0.00686 494.0 12.6
519(12) 0.00684 493.7 12.8
522(12) 0.00658 493.5 13.1
481(12) 0.00736 493.2 13.4
523(12) 0.00688 492.9 13.7
518(12) 0.00715 492.7 14.1
503(12) 0.00689 492.4 14.5
505(12) 0.00656 492.2 15.0
527(12) 0.00655 491.9 15.3
500(12) 0.00734 491.6 15.5
498(12) 0.00744 491.4 15.4
493(12) 0.00726 491.1 15.1
525(13) 0.00637 490.9 14.5
514(12) 0.00676 490.6 13.7
496(12) 0.00737 490.3 12.8
526(12) 0.00712 490.1 12.0
529(12) 0.00666 489.8 11.2
529(13) 0.00628 489.6 10.4
518(12) 0.00691 489.3 9.8
504(12) 0.00739 489.0 9.2
481(11) 0.00773 488.8 8.6
481(12) 0.00723 488.5 8.2
500(13) 0.00635 488.3 7.8
552(13) 0.00626 488.0 7.4
512(12) 0.00740 487.7 7.0
497(12) 0.00739 487.5 6.7
528(12) 0.00643 487.2 6.4
498(12) 0.00644 487.0 6.2
495(12) 0.00693 486.7 5.9
457(11) 0.00823 486.4 5.7
468(11) 0.00779 486.2 5.5
486(12) 0.00724 485.9 5.2
471(12) 0.00716 485.6 5.0
493(12) 0.00706 485.4 4.8
529(12) 0.00703 485.1 4.7
520(12) 0.00694 484.9 4.5
513(12) 0.00666 484.6 4.3
486(12) 0.00705 484.3 4.2
479(12) 0.00755 484.1 4.0
470(11) 0.00788 483.8 3.9
498(12) 0.00729 483.6 3.7
499(12) 0.00700 483.3 3.6
486(12) 0.00708 483.0 3.5
505(12) 0.00675 482.8 3.4
496(11) 0.00763 482.5 3.3
480(12) 0.00727 482.3 3.2
493(12) 0.00686 482.0 3.1
503(12) 0.00653 481.7 3.0
490(12) 0.00710 481.5 2.9
484(11) 0.00767 481.2 2.8
499(12) 0.00696 481.0 2.7
517(13) 0.00623 480.7 2.7
508(12) 0.00673 480.4 2.6
483(12) 0.00727 480.2 2.5
466(11) 0.00796 479.9 2.5
490(12) 0.00703 479.7 2.4
504(12) 0.00652 479.4 2.4
488(12) 0.00710 479.1 2.3
499(12) 0.00731 478.9 2.3
490(11) 0.00765 478.6 2.2
494(12) 0.00702 478.4 2.2
503(12) 0.00668 478.1 2.1
494(12) 0.00703 477.8 2.1
521(12) 0.00703 477.6 2.0
493(12) 0.00755 477.3 2.0
470(12) 0.00741 477.1 2.0
495(12) 0.00676 476.8 1.9
475(12) 0.00745 476.5 1.9
486(11) 0.00757 476.3 1.9
485(11) 0.00771 476.0 1.8
491(12) 0.00698 475.8 1.8
464(12) 0.00696 475.5 1.8
487(12) 0.00724 475.2 1.8
491(12) 0.00755 475.0 1.7
482(11) 0.00770 474.7 1.7
481(12) 0.00719 474.5 1.7
479(12) 0.00666 474.2 1.7
464(12) 0.00742 473.9 1.6
449(11) 0.00837 473.7 1.7
497(12) 0.00725 473.4 1.7
466(12) 0.00752 473.2 1.6
482(12) 0.00686 472.9 1.6
480(12) 0.00726 472.6 1.6
453(11) 0.00825 472.4 1.6
457(11) 0.00813 472.1 1.6
476(12) 0.00719 471.9 1.6
475(12) 0.00728 471.6 1.5
466(12) 0.00744 471.3 1.5
455(11) 0.00810 471.1 1.5
444(11) 0.00820 470.8 1.5
474(12) 0.00728 470.6 1.5
471(12) 0.00726 470.3 1.5
461(11) 0.00762 470.0 1.5
452(11) 0.00826 469.8 1.5
463(11) 0.00774 469.5 1.5
505(12) 0.00678 469.3 1.4
480(12) 0.00725 469.0 1.4
449(11) 0.00799 468.7 1.4
459(11) 0.00809 468.5 1.4
490(12) 0.00732 468.2 1.4
471(12) 0.00725 468.0 1.4
466(12) 0.00730 467.7 1.4
456(11) 0.00785 467.4 1.4
469(11) 0.00796 467.2 1.4
460(11) 0.00764 467.0 1.4
454(12) 0.00753 466.8 1.4
479(12) 0.00737 466.6 1.4
477(12) 0.00753 466.4 1.4
479(11) 0.00785 466.2 1.3
463(11) 0.00757 466.0 1.3
483(12) 0.00689 465.8 1.3
474(12) 0.00728 465.6 1.3
483(12) 0.00750 465.4 1.3
488(11) 0.00761 465.2 1.3
432(11) 0.00800 465.0 1.3
462(12) 0.00694 464.8 1.3
480(12) 0.00719 464.6 1.3
456(11) 0.00819 464.4 1.3
454(11) 0.00823 464.2 1.3
467(12) 0.00748 464.0 1.3
470(12) 0.00688 463.7 1.3
441(11) 0.00821 463.5 1.3
492(11) 0.00760 463.3 1.3
464(11) 0.00804 463.1 1.3
478(12) 0.00744 462.9 1.3
499(12) 0.00650 462.7 1.3
453(11) 0.00794 462.5 1.3
473(11) 0.00789 462.3 1.3
456(11) 0.00815 462.1 1.3
449(11) 0.00761 461.9 1.3
450(12) 0.00725 461.7 1.3
460(11) 0.00780 461.5 1.3
458(11) 0.00807 461.3 1.3
452(11) 0.00820 461.1 1.3
469(12) 0.00753 460.9 1.3
499(12) 0.00672 460.7 1.3
470(12) 0.00743 460.5 1.3
482(11) 0.00771 460.3 1.3
495(12) 0.00713 460.1 1.3
455(11) 0.00762 459.9 1.4
461(12) 0.00742 459.7 1.4
469(12) 0.00729 459.5 1.4
464(11) 0.00799 459.3 1.4
474(12) 0.00734 459.1 1.4
460(12) 0.00730 458.9 1.4
472(12) 0.00729 458.7 1.4
463(11) 0.00779 458.5 1.4
434(11) 0.00860 458.3 1.4
473(11) 0.00757 458.1 1.4
477(12) 0.00706 457.9 1.4
452(12) 0.00733 457.7 1.5
456(11) 0.00795 457.5 1.5
455(11) 0.00826 457.3 1.5
451(12) 0.00742 457.0 1.5
457(12) 0.00744 456.8 1.5
476(12) 0.00730 456.6 1.5
500(12) 0.00704 456.4 1.6
473(11) 0.00796 456.2 1.6
491(12) 0.00693 456.0 1.6
455(12) 0.00740 455.8 1.6
461(12) 0.00731 455.6 1.6
458(11) 0.00815 455.4 1.7
487(12) 0.00755 455.2 1.7
430(11) 0.00797 455.0 1.7
473(12) 0.00682 454.8 1.8
458(11) 0.00777 454.6 1.8
439(11) 0.00847 454.4 1.8
436(11) 0.00853 454.2 1.9
466(12) 0.00750 454.0 1.9
460(12) 0.00684 453.8 2.0
456(11) 0.00759 453.6 2.0
478(11) 0.00772 453.4 2.1
486(11) 0.00762 453.2 2.1
442(11) 0.00804 453.0 2.2
467(12) 0.00677 452.8 2.3
415(11) 0.00876 452.6 2.4
441(11) 0.00837 452.4 2.5
456(11) 0.00791 452.2 2.5
441(11) 0.00796 452.0 2.7
460(12) 0.00714 451.8 2.8
461(12) 0.00737 451.6 2.9
462(11) 0.00808 451.4 3.0
462(11) 0.00793 451.2 3.2
457(12) 0.00743 451.0 3.4
453(12) 0.00741 450.8 3.6
456(11) 0.00760 450.6 3.9
472(11) 0.00793 450.3 4.2
455(11) 0.00803 450.1 4.5
460(11) 0.00764 449.9 4.9
464(12) 0.00719 449.7 5.4
452(11) 0.00774 449.5 5.9
458(11) 0.00811 449.3 6.5
414(11) 0.00867 449.1 7.2
456(12) 0.00750 448.9 8.1
444(11) 0.00767 448.7 9.0
454(11) 0.00784 448.5 10.1
462(11) 0.00803 448.3 11.3
461(11) 0.00785 448.1 12.6
473(12) 0.00724 447.9 14.1
447(12) 0.00748 447.7 15.6
446(11) 0.00783 447.5 17.2
436(11) 0.00860 447.3 18.8
476(12) 0.00712 447.1 20.3
446(12) 0.00750 446.9 21.7
456(12) 0.00740 446.7 22.7
498(12) 0.00725 446.5 23.3
495(12) 0.00750 446.3 23.4
471(12) 0.00723 446.1 23.0
452(12) 0.00753 445.9 22.2
467(12) 0.00748 445.7 21.0
476(11) 0.00769 445.5 19.6
474(11) 0.00784 445.3 18.0
454(11) 0.00773 445.1 16.4
449(12) 0.00722 444.9 14.8
437(11) 0.00801 444.7 13.3
472(11) 0.00772 444.5 11.9
461(11) 0.00809 444.3 10.7
469(12) 0.00728 444.1 9.6
455(12) 0.00702 443.9 8.6
474(12) 0.00709 443.6 7.7
444(11) 0.00840 443.4 6.9
449(11) 0.00829 443.2 6.3
465(11) 0.00759 443.0 5.7
460(12) 0.00707 442.8 5.2
475(12) 0.00721 442.6 4.8
452(11) 0.00826 442.4 4.5
457(11) 0.00815 442.2 4.2
466(12) 0.00731 442.0 3.9
458(12) 0.00721 441.8 3.7
453(11) 0.00764 441.6 3.5
440(11) 0.00846 441.4 3.3
452(11) 0.00793 441.2 3.2
458(12) 0.00754 441.0 3.1
453(12) 0.00715 440.8 3.0
475(12) 0.00731 440.6 2.9
448(11) 0.00832 440.4 2.8
446(11) 0.00820 440.2 2.7
441(11) 0.00797 440.0 2.6
454(12) 0.00750 439.8 2.6
437(11) 0.00796 439.6 2.5
453(11) 0.00822 439.4 2.5
446(11) 0.00797 439.2 2.4
454(11) 0.00765 439.0 2.4
428(11) 0.00813 438.8 2.4
447(11) 0.00766 438.6 2.3
457(11) 0.00815 438.4 2.3
478(12) 0.00746 438.2 2.3
468(12) 0.00715 438.0 2.3
432(11) 0.00797 437.8 2.3
435(11) 0.00819 437.6 2.3
419(11) 0.00893 437.4 2.3
436(11) 0.00798 437.2 2.3
441(11) 0.00775 437.0 2.3
462(12) 0.00735 436.7 2.3
440(11) 0.00838 436.5 2.3
430(11) 0.00854 436.3 2.3
460(11) 0.00759 436.1 2.3
426(11) 0.00807 435.9 2.4
467(12) 0.00752 435.7 2.4
452(11) 0.00807 435.5 2.4
424(11) 0.00879 435.3 2.4
436(11) 0.00799 435.1 2.5
436(11) 0.00793 434.9 2.5
430(11) 0.00835 434.7 2.5
416(11) 0.00902 434.5 2.6
421(11) 0.00876 434.3 2.6
409(11) 0.00826 434.1 2.6
417(11) 0.00800 433.9 2.7
456(12) 0.00754 433.7 2.7
449(11) 0.00817 433.5 2.7
430(11) 0.00873 433.3 2.8
461(12) 0.00745 433.1 2.8
436(12) 0.00756 432.9 2.9
422(11) 0.00811 432.7 2.9
442(11) 0.00840 432.5 2.9
420(11) 0.00867 432.3 3.0
468(12) 0.00703 432.1 3.0
424(11) 0.00759 431.9 3.0
411(11) 0.00839 431.7 3.1
425(11) 0.00883 431.5 3.1
427(11) 0.00856 431.3 3.1
457(11) 0.00762 431.1 3.1
435(11) 0.00771 430.9 3.2
444(11) 0.00762 430.7 3.2
432(11) 0.00856 430.5 3.2
408(10) 0.00907 430.3 3.2
442(11) 0.00801 430.0 3.2
433(11) 0.00778 429.8 3.2
420(11) 0.00798 429.6 3.1
415(11) 0.00900 429.4 3.1
439(11) 0.00832 429.2 3.1
445(11) 0.00785 429.0 3.1
423(11) 0.00833 428.8 3.0
430(11) 0.00824 428.6 3.0
430(11) 0.00866 428.4 3.0
424(11) 0.00856 428.2 2.9
434(11) 0.00787 428.0 2.9
419(11) 0.00812 427.8 2.8
435(11) 0.00817 427.6 2.8
440(11) 0.00841 427.4 2.7
403(11) 0.00901 427.2 2.7
454(12) 0.00714 427.0 2.6
441(11) 0.00792 426.8 2.6
473(12) 0.00746 426.6 2.5
432(11) 0.00855 426.4 2.5
433(11) 0.00815 426.2 2.4
434(11) 0.00770 426.0 2.4
444(11) 0.00773 425.8 2.3
447(11) 0.00807 425.6 2.3
413(11) 0.00903 425.4 2.3
418(11) 0.00831 425.2 2.2
452(12) 0.00734 425.0 2.2
414(11) 0.00887 424.8 2.1
427(11) 0.00851 424.6 2.1
430(11) 0.00872 424.4 2.1
391(11) 0.00902 424.2 2.0
446(12) 0.00735 424.0 2.0
445(11) 0.00802 423.8 2.0
424(11) 0.00877 423.6 1.9
409(10) 0.00907 423.3 1.9
416(11) 0.00817 423.1 1.9
396(11) 0.00820 422.9 1.8
437(11) 0.00794 422.7 1.8
434(11) 0.00854 422.5 1.8
427(11) 0.00861 422.3 1.8
425(11) 0.00834 422.1 1.8
418(11) 0.00774 421.9 1.7
424(11) 0.00822 421.7 1.7
473(11) 0.00794 421.5 1.7
441(11) 0.00834 421.3 1.7
455(11) 0.00768 421.1 1.7
439(12) 0.00745 420.9 1.7
423(11) 0.00820 420.7 1.6
431(11) 0.00867 420.5 1.6
443(11) 0.00830 420.3 1.6
417(11) 0.00819 420.1 1.6
422(11) 0.00793 419.9 1.6
431(11) 0.00820 419.7 1.6
404(10) 0.00921 419.5 1.6
433(11) 0.00829 419.3 1.6
388(11) 0.00905 419.1 1.6
428(11) 0.00790 418.9 1.6
439(11) 0.00793 418.7 1.5
440(11) 0.00845 418.5 1.5
408(11) 0.00873 418.4 1.5
406(11) 0.00848 418.3 1.5
424(11) 0.00791 418.1 1.5
442(11) 0.00792 418.0 1.5
412(11) 0.00906 417.9 1.5
431(11) 0.00810 417.8 1.5
443(11) 0.00761 417.7 1.5
426(11) 0.00827 417.5 1.5
413(11) 0.00881 417.4 1.5
412(11) 0.00905 417.3 1.5
409(11) 0.00828 417.2 1.5
421(11) 0.00832 417.1 1.5
455(12) 0.00747 416.9 1.5
442(11) 0.00803 416.8 1.5
423(11) 0.00882 416.7 1.5
439(11) 0.00776 416.6 1.5
431(11) 0.00784 416.5 1.5
420(11) 0.00846 416.4 1.5
435(11) 0.00837 416.2 1.5
415(11) 0.00898 416.1 1.5
427(11) 0.00809 416.0 1.5
452(12) 0.00715 415.9 1.5
423(11) 0.00811 415.8 1.5
415(11) 0.00867 415.6 1.5
425(11) 0.00884 415.5 1.5
417(11) 0.00844 415.4 1.5
423(11) 0.00777 415.3 1.5
406(11) 0.00871 415.2 1.5
420(11) 0.00879 415.0 1.6
419(11) 0.00887 414.9 1.6
438(11) 0.00812 414.8 1.6
441(12) 0.00743 414.7 1.6
400(11) 0.00856 414.6 1.6
421(11) 0.00856 414.4 1.6
431(11) 0.00848 414.3 1.6
433(11) 0.00795 414.2 1.6
419(11) 0.00782 414.1 1.6
441(11) 0.00779 414.0 1.6
416(11) 0.00889 413.9 1.6
400(10) 0.00917 413.7 1.6
403(11) 0.00890 413.6 1.6
445(12) 0.00755 413.5 1.6
418(11) 0.00805 413.4 1.6
420(11) 0.00893 413.3 1.6
433(11) 0.00823 413.1 1.6
417(11) 0.00852 413.0 1.7
431(11) 0.00801 412.9 1.7
409(11) 0.00879 412.8 1.7
421(11) 0.00885 412.7 1.7
417(11) 0.00834 412.5 1.7
405(11) 0.00856 412.4 1.7
408(11) 0.00850 412.3 1.7
445(11) 0.00770 412.2 1.7
462(11) 0.00806 412.1 1.7
442(11) 0.00782 412.0 1.7
445(12) 0.00749 411.8 1.7
443(11) 0.00795 411.7 1.8
430(11) 0.00800 411.6 1.8
443(11) 0.00847 411.5 1.8
416(11) 0.00835 411.4 1.8
436(11) 0.00782 411.2 1.8
404(11) 0.00895 411.1 1.8
421(11) 0.00848 411.0 1.8
428(11) 0.00869 410.9 1.8
417(11) 0.00825 410.8 1.9
391(11) 0.00854 410.6 1.9
389(10) 0.00909 410.5 1.9
443(11) 0.00833 410.4 1.9
402(10) 0.00922 410.3 1.9
394(11) 0.00873 410.2 1.9
431(12) 0.00749 410.1 1.9
406(11) 0.00857 409.9 1.9
428(11) 0.00861 409.8 2.0
423(11) 0.00891 409.7 2.0
390(11) 0.00900 409.6 2.0
400(11) 0.00828 409.5 2.0
434(11) 0.00825 409.3 2.0
465(11) 0.00790 409.2 2.0
410(11) 0.00903 409.1 2.1
436(11) 0.00790 409.0 2.1
425(11) 0.00770 408.9 2.1
424(11) 0.00793 408.7 2.1
423(11) 0.00873 408.6 2.1
432(11) 0.00862 408.5 2.1
422(11) 0.00817 408.4 2.2
434(12) 0.00752 408.3 2.2
402(11) 0.00868 408.2 2.2
410(11) 0.00903 408.0 2.2
422(11) 0.00866 407.9 2.2
425(11) 0.00793 407.8 2.3
421(11) 0.00764 407.7 2.3
407(11) 0.00821 407.6 2.3
380(10) 0.00987 407.4 2.3
390(10) 0.00930 407.3 2.4
401(11) 0.00856 407.2 2.4
408(11) 0.00830 407.1 2.4
409(11) 0.00875 407.0 2.4
415(11) 0.00895 406.8 2.5
427(11) 0.00832 406.7 2.5
401(11) 0.00877 406.6 2.5
394(11) 0.00864 406.5 2.5
379(10) 0.00931 406.4 2.6
402(10) 0.00921 406.2 2.6
423(11) 0.00835 406.1 2.6
396(11) 0.00852 406.0 2.7
419(11) 0.00829 405.9 2.7
433(11) 0.00837 405.8 2.7
413(11) 0.00895 405.7 2.8
406(11) 0.00862 405.5 2.8
369(10) 0.00953 405.4 2.8
400(11) 0.00841 405.3 2.9
376(10) 0.00934 405.2 2.9
426(11) 0.00877 405.1 2.9
413(11) 0.00861 404.9 3.0
422(11) 0.00789 404.8 3.0
417(11) 0.00841 404.7 3.1
432(11) 0.00835 404.6 3.1
431(11) 0.00866 404.5 3.2
394(10) 0.00908 404.3 3.2
410(11) 0.00824 404.2 3.2
418(11) 0.00830 404.1 3.3
417(11) 0.00872 404.0 3.3
375(10) 0.00995 403.9 3.4
436(11) 0.00787 403.8 3.4
406(11) 0.00811 403.6 3.5
386(11) 0.00901 403.5 3.6
395(10) 0.00914 403.4 3.6
413(10) 0.00907 403.3 3.7
384(10) 0.00934 403.2 3.7
432(12) 0.00717 403.0 3.8
385(10) 0.00919 402.9 3.9
395(10) 0.00944 402.8 3.9
407(10) 0.00909 402.7 4.0
421(11) 0.00828 402.6 4.1
397(11) 0.00836 402.4 4.2
403(11) 0.00874 402.3 4.2
400(10) 0.00928 402.2 4.3
399(10) 0.00944 402.1 4.4
370(10) 0.00947 402.0 4.5
390(11) 0.00840 401.9 4.6
400(11) 0.00868 401.7 4.7
385(10) 0.00954 401.6 4.8
385(10) 0.00937 401.5 4.9
398(11) 0.00859 401.4 5.0
412(11) 0.00793 401.3 5.1
414(11) 0.00823 401.1 5.3
412(11) 0.00905 401.0 5.4
425(11) 0.00855 400.9 5.5
416(11) 0.00834 400.8 5.7
420(11) 0.00820 400.7 5.8
433(11) 0.00806 400.6 6.0
383(10) 0.00962 400.5 6.1
402(10) 0.00916 400.4 6.3
410(11) 0.00838 400.3 6.5
428(11) 0.00785 400.2 6.7
416(11) 0.00848 400.1 6.9
408(11) 0.00907 400.0 7.1
391(11) 0.00875 399.9 7.3
403(11) 0.00828 399.8 7.5
399(11) 0.00858 399.7 7.8
410(11) 0.00863 399.6 8.1
434(11) 0.00848 399.5 8.4
438(11) 0.00816 399.4 8.7
455(12) 0.00710 399.3 9.0
404(11) 0.00872 399.2 9.4
400(10) 0.00924 399.1 9.7
385(10) 0.00957 399.0 10.2
421(11) 0.00826 398.9 10.6
406(11) 0.00847 398.8 11.1
411(11) 0.00842 398.7 11.6
422(11) 0.00890 398.6 12.2
425(11) 0.00873 398.5 12.8
429(11) 0.00788 398.4 13.5
426(11) 0.00769 398.3 14.2
389(10) 0.00916 398.2 15.1
397(10) 0.00930 398.1 16.0
438(11) 0.00831 398.0 17.0
408(11) 0.00819 397.9 18.1
397(11) 0.00814 397.8 19.4
426(11) 0.00834 397.7 20.9
411(11) 0.00897 397.6 22.6
451(11) 0.00820 397.5 24.5
430(11) 0.00792 397.4 26.8
403(11) 0.00808 397.3 29.6
435(11) 0.00808 397.2 32.9
442(11) 0.00836 397.1 36.8
442(11) 0.00824 397.0 41.6
425(11) 0.00841 396.8 47.4
446(12) 0.00754 396.7 54.5
454(11) 0.00770 396.6 63.0
487(11) 0.00763 396.5 73.2
498(12) 0.00718 396.4 85.1
495(12) 0.00713 396.3 99.0
540(13) 0.00613 396.2 114.7
538(13) 0.00634 396.1 132.1
599(13) 0.00620 396.0 150.7
591(13) 0.00616 395.9 169.5
646(14) 0.00533 395.8 187.0
658(14) 0.00508 395.7 201.0
638(14) 0.00539 395.6 209.5
648(13) 0.00572 395.5 210.9
612(13) 0.00585 395.4 205.1
593(13) 0.00581 395.3 193.1
582(13) 0.00571 395.2 177.0
556(13) 0.00613 395.1 159.1
561(12) 0.00665 395.0 141.0
554(13) 0.00636 394.9 123.8
560(13) 0.00594 394.8 108.3
503(12) 0.00690 394.7 94.7
493(12) 0.00733 394.6 83.1
460(11) 0.00806 394.5 73.4
480(12) 0.00741 394.4 65.5
469(12) 0.00719 394.3 59.4
465(12) 0.00755 394.2 54.7
480(12) 0.00750 394.1 51.3
447(11) 0.00835 394.0 49.2
462(12) 0.00733 393.9 48.2
450(12) 0.00749 393.8 48.1
467(12) 0.00752 393.7 49.1
455(11) 0.00818 393.6 50.9
455(11) 0.00825 393.5 53.7
492(12) 0.00718 393.4 57.2
487(12) 0.00689 393.3 61.5
504(12) 0.00676 393.2 66.3
479(11) 0.00761 393.1 71.4
476(11) 0.00773 393.0 76.3
480(12) 0.00741 392.9 80.4
480(12) 0.00686 392.8 82.9
489(12) 0.00689 392.7 83.5
491(12) 0.00741 392.6 81.9
498(12) 0.00741 392.5 78.4
462(11) 0.00781 392.4 73.5
472(12) 0.00689 392.3 68.0
455(11) 0.00770 392.2 62.3
442(11) 0.00834 392.1 56.9
444(11) 0.00825 392.0 52.0
452(12) 0.00756 391.9 47.6
456(12) 0.00705 391.8 44.0
439(11) 0.00793 391.7 40.9
407(10) 0.00921 391.6 38.4
404(10) 0.00912 391.5 36.5
417(11) 0.00835 391.4 35.0
402(11) 0.00834 391.3 33.9
416(11) 0.00827 391.1 33.2
424(11) 0.00877 391.0 32.8
425(11) 0.00850 390.9 32.6
404(11) 0.00854 390.8 32.7
403(11) 0.00821 390.7 32.9
416(11) 0.00821 390.6 33.3
406(10) 0.00920 390.5 33.9
434(11) 0.00822 390.4 34.5
436(11) 0.00771 390.3 35.4
401(11) 0.00853 390.2 36.3
413(11) 0.00845 390.1 37.4
410(10) 0.00921 390.0 38.5
426(11) 0.00813 389.9 39.9
400(11) 0.00855 389.8 41.3
421(11) 0.00827 389.7 42.9
427(11) 0.00825 389.6 44.6
409(11) 0.00903 389.5 46.5
452(11) 0.00766 389.4 48.6
425(11) 0.00801 389.3 50.9
421(11) 0.00810 389.2 53.4
454(12) 0.00749 389.1 56.2
418(11) 0.00893 389.0 59.2
454(12) 0.00754 388.9 62.7
441(12) 0.00748 388.8 66.6
416(11) 0.00817 388.7 71.0
435(11) 0.00840 388.6 76.2
462(11) 0.00799 388.5 82.4
469(12) 0.00729 388.4 89.8
471(12) 0.00701 388.3 98.8
497(12) 0.00709 388.2 109.9
530(12) 0.00690 388.1 123.7
513(12) 0.00723 388.0 140.9
529(12) 0.00679 387.9 162.2
552(13) 0.00598 387.8 188.5
619(13) 0.00550 387.7 220.5
635(13) 0.00584 387.6 258.8
667(13) 0.00557 387.5 303.7
729(14) 0.00477 387.4 354.9
746(15) 0.00431 387.3 411.3
823(16) 0.00410 387.2 470.1
889(15) 0.00422 387.1 526.4
933(16) 0.00395 387.0 573.0
953(17) 0.00362 386.9 601.8
946(17) 0.003475 386.8 606.5
945(16) 0.00369 386.7 585.9
905(16) 0.00412 386.6 544.5
802(15) 0.00460 386.5 490.2
750(15) 0.00455 386.4 430.7
731(15) 0.00448 386.3 372.0
728(14) 0.00480 386.2 317.5
679(13) 0.00549 386.1 269.1
644(13) 0.00560 386.0 227.3
607(13) 0.00570 385.9 192.0
603(14) 0.00546 385.8 162.7
572(13) 0.00607 385.7 138.8
520(12) 0.00713 385.5 119.4
495(12) 0.00724 385.4 103.7
499(12) 0.00668 385.3 91.1
458(12) 0.00732 385.2 80.9
480(12) 0.00735 385.1 72.5
468(11) 0.00797 385.0 65.6
460(11) 0.00781 384.9 59.8
455(11) 0.00766 384.8 54.9
432(11) 0.00807 384.7 50.7
436(11) 0.00813 384.6 47.1
437(11) 0.00846 384.5 43.9
432(11) 0.00825 384.4 41.0
433(11) 0.00796 384.3 38.5
443(11) 0.00780 384.2 36.3
415(11) 0.00858 384.1 34.3
402(10) 0.00916 384.0 32.5
424(11) 0.00795 383.9 30.9
413(11) 0.00825 383.8 29.4
426(11) 0.00802 383.7 28.1
414(11) 0.00854 383.6 26.9
393(10) 0.00952 383.5 25.8
427(11) 0.00792 383.4 24.8
413(11) 0.00830 383.3 24.0
420(11) 0.00852 383.2 23.1
412(11) 0.00898 383.1 22.4
413(11) 0.00906 383.0 21.7
411(11) 0.00847 382.9 21.2
404(11) 0.00827 382.8 20.6
400(11) 0.00887 382.7 20.1
402(10) 0.00928 382.6 19.7
420(11) 0.00882 382.5 19.3
411(11) 0.00871 382.4 19.0
368(10) 0.00916 382.3 18.7
389(11) 0.00895 382.2 18.4
383(10) 0.00964 382.1 18.2
418(11) 0.00886 382.0 18.0
395(11) 0.00837 381.9 17.8
397(11) 0.00807 381.8 17.7
379(10) 0.00941 381.7 17.6
423(11) 0.00867 381.6 17.6
422(11) 0.00872 381.5 17.6
394(10) 0.00908 381.4 17.6
399(11) 0.00849 381.3 17.7
412(11) 0.00872 381.2 17.8
419(11) 0.00891 381.1 17.9
407(11) 0.00901 381.0 18.1
368(10) 0.00976 380.9 18.3
407(11) 0.00819 380.8 18.5
406(11) 0.00874 380.7 18.8
384(10) 0.00972 380.6 19.1
416(11) 0.00871 380.5 19.5
409(11) 0.00821 380.4 19.9
393(11) 0.00840 380.3 20.4
413(11) 0.00819 380.2 21.0
403(10) 0.00921 380.1 21.6
418(11) 0.00847 380.0 22.3
430(11) 0.00785 379.8 23.1
420(11) 0.00817 379.7 24.0
417(11) 0.00841 379.6 25.0
406(10) 0.00912 379.5 26.1
419(11) 0.00845 379.4 27.4
411(11) 0.00817 379.3 28.9
413(11) 0.00821 379.2 30.5
427(11) 0.00844 379.1 32.4
444(11) 0.00834 379.0 34.5
416(11) 0.00846 378.9 36.9
431(11) 0.00768 378.8 39.6
445(11) 0.00764 378.7 42.6
428(11) 0.00842 378.6 46.1
444(11) 0.00840 378.5 50.0
449(11) 0.00787 378.4 54.3
459(12) 0.00717 378.3 59.2
439(11) 0.00819 378.2 64.6
486(12) 0.00749 378.1 70.6
461(11) 0.00806 378.0 77.2
436(11) 0.00811 377.9 84.5
478(12) 0.00673 377.8 92.3
496(12) 0.00695 377.7 100.8
521(12) 0.00709 377.6 109.7
529(12) 0.00700 377.5 119.1
522(12) 0.00677 377.4 128.7
562(13) 0.00579 377.3 138.4
524(12) 0.00681 377.2 147.7
508(12) 0.00739 377.1 156.4
560(12) 0.00658 377.0 164.1
576(13) 0.00597 376.9 170.1
538(13) 0.00595 376.8 174.2
564(13) 0.00621 376.7 176.0
597(13) 0.00621 376.6 175.3
590(13) 0.00615 376.5 172.3
578(13) 0.00596 376.4 167.1
520(12) 0.00645 376.3 160.2
537(12) 0.00666 376.2 151.9
546(12) 0.00684 376.1 142.7
511(12) 0.00709 376.0 133.1
505(12) 0.00692 375.9 123.3
468(12) 0.00724 375.8 113.7
456(11) 0.00764 375.7 104.4
486(11) 0.00760 375.6 95.7
442(11) 0.00815 375.5 87.4
436(11) 0.00765 375.4 79.8
436(11) 0.00758 375.3 72.8
438(11) 0.00774 375.2 66.4
439(11) 0.00850 375.1 60.6
421(11) 0.00847 375.0 55.3
430(11) 0.00825 374.9 50.6
437(11) 0.00775 374.8 46.4
422(11) 0.00867 374.7 42.7
400(10) 0.00939 374.6 39.3
361(10) 0.00980 374.5 36.3
398(11) 0.00845 374.4 33.7
408(11) 0.00834 374.2 31.3
415(11) 0.00873 374.1 29.3
399(10) 0.00932 374.0 27.4
381(11) 0.00863 373.9 25.7
385(11) 0.00858 373.8 24.2
382(10) 0.00918 373.7 22.9
400(11) 0.00895 373.6 21.7
388(10) 0.00965 373.5 20.6
399(11) 0.00872 373.4 19.7
389(11) 0.00883 373.3 18.8
382(10) 0.00920 373.2 18.0
387(10) 0.00932 373.1 17.2
403(10) 0.00932 373.0 16.5
409(11) 0.00823 372.9 15.9
391(11) 0.00865 372.8 15.3
400(11) 0.00874 372.7 14.8
378(10) 0.00944 372.6 14.3
377(10) 0.00980 372.5 13.8
366(10) 0.00943 372.4 13.4
355(10) 0.00946 372.3 13.0
413(11) 0.00834 372.2 12.6
391(10) 0.00951 372.1 12.2
364(10) 0.01031 372.0 11.9
364(10) 0.00957 371.9 11.6
397(11) 0.00793 371.8 11.3
388(11) 0.00894 371.7 11.0
376(10) 0.00996 371.6 10.8
383(10) 0.00956 371.5 10.5
369(10) 0.00948 371.4 10.3
365(10) 0.00914 371.3 10.1
342(10) 0.01000 371.2 9.9
352(10) 0.01072 371.1 9.7
353(10) 0.01052 371.0 9.5
366(10) 0.00974 370.9 9.4
372(11) 0.00906 370.8 9.2
383(10) 0.00928 370.7 9.1
382(10) 0.00973 370.6 8.9
375(10) 0.00985 370.5 8.8
370(10) 0.00945 370.4 8.7
369(11) 0.00891 370.3 8.6
367(10) 0.00931 370.2 8.5
357(10) 0.01027 370.1 8.4
377(10) 0.00954 370.0 8.3
373(10) 0.00947 369.9 8.2
375(10) 0.00920 369.8 8.1
377(10) 0.00926 369.7 8.0
372(10) 0.01002 369.6 8.0
402(11) 0.00893 369.5 7.9
378(11) 0.00884 369.4 7.9
355(10) 0.00964 369.3 7.8
381(11) 0.00892 369.2 7.8
349(10) 0.01065 369.1 7.7
378(10) 0.00917 369.0 7.7
356(10) 0.00930 368.9 7.7
384(11) 0.00869 368.8 7.7
409(11) 0.00871 368.7 7.6
368(10) 0.01005 368.6 7.6
366(10) 0.00949 368.5 7.6
369(10) 0.00907 368.4 7.6
365(10) 0.00965 368.3 7.6
382(10) 0.00947 368.2 7.6
356(10) 0.01053 368.1 7.6
403(11) 0.00887 368.0 7.7
370(10) 0.00919 367.9 7.7
367(10) 0.00946 367.8 7.7
356(10) 0.01029 367.7 7.8
387(10) 0.00957 367.6 7.8
361(10) 0.00936 367.5 7.9
378(11) 0.00835 367.4 7.9
388(11) 0.00889 367.3 8.0
370(10) 0.00963 367.2 8.1
365(10) 0.01029 367.1 8.2
383(10) 0.00910 367.0 8.3
360(11) 0.00876 366.9 8.4
371(10) 0.00947 366.8 8.6
373(10) 0.01004 366.7 8.7
402(10) 0.00913 366.6 8.9
363(10) 0.00950 366.5 9.1
369(11) 0.00868 366.4 9.3
394(11) 0.00851 366.3 9.6
386(10) 0.00960 366.3 9.9
366(10) 0.01014 366.2 10.2
359(10) 0.00966 366.1 10.7
375(11) 0.00851 366.0 11.2
385(11) 0.00878 365.9 11.8
381(10) 0.00978 365.8 12.6
363(10) 0.01020 365.7 13.7
383(10) 0.00912 365.6 15.1
374(11) 0.00892 365.5 17.0
376(10) 0.00921 365.4 19.5
399(10) 0.00924 365.3 22.6
374(10) 0.00949 365.2 26.6
400(11) 0.00859 365.1 31.3
395(11) 0.00862 365.0 36.6
391(11) 0.00882 364.9 42.0
406(10) 0.00917 364.8 46.6
394(11) 0.00897 364.7 49.2
384(11) 0.00892 364.6 48.9
402(11) 0.00843 364.5 46.0
431(11) 0.00806 364.4 41.4
431(11) 0.00863 364.3 36.2
393(11) 0.00881 364.2 31.3
353(10) 0.00969 364.1 27.0
372(10) 0.00919 364.0 23.5
395(11) 0.00901 363.9 20.8
411(11) 0.00904 363.9 18.8
381(11) 0.00890 363.8 17.3
375(11) 0.00881 363.7 16.3
376(10) 0.00932 363.6 15.5
393(10) 0.00916 363.5 15.0
401(10) 0.00924 363.4 14.7
405(11) 0.00853 363.3 14.5
393(11) 0.00858 363.2 14.4
380(11) 0.00900 363.1 14.4
387(10) 0.00928 363.0 14.4
392(10) 0.00958 362.9 14.5
386(10) 0.00910 362.8 14.6
377(11) 0.00881 362.7 14.8
389(11) 0.00884 362.6 14.9
377(10) 0.00973 362.5 15.1
429(11) 0.00876 362.4 15.4
407(11) 0.00834 362.3 15.6
403(11) 0.00780 362.2 15.9
362(10) 0.00975 362.1 16.2
385(10) 0.00958 362.0 16.5
384(10) 0.00958 361.9 16.9
376(10) 0.00962 361.8 17.3
394(11) 0.00833 361.7 17.7
388(11) 0.00895 361.6 18.1
344(10) 0.01084 361.6 18.5
380(10) 0.00967 361.5 19.0
369(10) 0.00959 361.4 19.5
362(10) 0.00912 361.3 20.0
383(11) 0.00904 361.2 20.6
367(10) 0.01015 361.1 21.2
376(10) 0.00985 361.0 21.8
387(11) 0.00851 360.9 22.5
395(11) 0.00832 360.8 23.2
380(10) 0.00920 360.7 24.0
373(10) 0.00987 360.6 24.8
388(10) 0.00920 360.5 25.6
392(11) 0.00854 360.4 26.5
386(11) 0.00844 360.3 27.5
361(10) 0.00970 360.2 28.5
402(10) 0.00929 360.1 29.7
413(11) 0.00849 360.0 30.8
386(11) 0.00902 359.9 32.1
413(11) 0.00820 359.8 33.5
396(11) 0.00907 359.7 34.9
414(11) 0.00899 359.6 36.4
385(10) 0.00936 359.5 38.1
405(11) 0.00843 359.4 39.8
399(11) 0.00870 359.3 41.7
384(10) 0.00925 359.2 43.7
390(10) 0.00958 359.2 45.7
381(10) 0.00933 359.1 47.9
395(11) 0.00853 359.0 50.2
412(11) 0.00849 358.9 52.6
442(11) 0.00817 358.8 55.0
393(10) 0.00947 358.7 57.5
408(11) 0.00856 358.6 60.0
437(11) 0.00758 358.5 62.5
447(11) 0.00771 358.4 65.0
447(11) 0.00822 358.3 67.4
435(11) 0.00861 358.2 69.5
467(12) 0.00753 358.1 71.5
430(11) 0.00792 358.0 73.1
444(11) 0.00793 357.9 74.4
436(11) 0.00855 357.8 75.2
456(11) 0.00821 357.7 75.6
463(12) 0.00743 357.6 75.5
416(11) 0.00774 357.5 74.9
436(11) 0.00798 357.4 73.9
407(10) 0.00910 357.3 72.6
435(11) 0.00851 357.2 70.9
417(11) 0.00845 357.1 69.0
454(12) 0.00703 357.0 66.9
414(11) 0.00845 356.9 64.8
394(10) 0.00937 356.9 62.5
442(11) 0.00828 356.8 60.3
410(11) 0.00859 356.7 58.2
410(11) 0.00798 356.6 56.1
380(10) 0.00939 356.5 54.1
403(10) 0.00932 356.4 52.2
413(11) 0.00874 356.3 50.4
394(11) 0.00877 356.2 48.8
374(11) 0.00906 356.1 47.3
397(11) 0.00866 356.0 46.0
394(10) 0.00948 355.9 44.7
387(10) 0.00944 355.8 43.7
369(10) 0.00989 355.7 42.7
362(10) 0.00948 355.6 42.0
340(10) 0.01014 355.5 41.3
391(10) 0.00948 355.4 40.8
413(11) 0.00872 355.3 40.4
408(11) 0.00844 355.2 40.1
389(11) 0.00866 355.1 39.9
398(11) 0.00866 355.0 39.9
375(10) 0.00996 354.9 40.0
397(11) 0.00898 354.8 40.3
409(11) 0.00807 354.7 40.6
383(10) 0.00915 354.6 41.1
406(11) 0.00877 354.5 41.8
392(10) 0.00947 354.5 42.5
383(10) 0.00917 354.4 43.5
407(11) 0.00797 354.3 44.5
374(10) 0.00915 354.2 45.8
381(10) 0.00952 354.1 47.2
390(10) 0.00957 354.0 48.9
394(11) 0.00881 353.9 50.8
405(11) 0.00828 353.8 52.9
425(11) 0.00809 353.7 55.2
403(11) 0.00900 353.6 57.9
424(11) 0.00870 353.5 60.9
405(11) 0.00860 353.4 64.2
368(10) 0.00920 353.3 67.9
414(11) 0.00851 353.2 72.0
417(11) 0.00886 353.1 76.5
435(11) 0.00846 353.0 81.5
427(11) 0.00831 352.9 87.0
435(12) 0.00747 352.8 93.1
429(11) 0.00811 352.7 99.7
449(11) 0.00829 352.6 107.0
478(11) 0.00781 352.5 114.8
462(12) 0.00747 352.4 123.4
486(13) 0.00639 352.3 132.6
491(12) 0.00699 352.2 142.5
482(11) 0.00772 352.2 153.1
512(12) 0.00726 352.1 164.3
525(12) 0.00647 352.0 176.1
513(12) 0.00645 351.9 188.4
552(13) 0.00619 351.8 201.1
572(12) 0.00648 351.7 214.0
574(13) 0.00633 351.6 226.9
576(13) 0.00609 351.5 239.5
587(13) 0.00552 351.4 251.6
572(13) 0.00599 351.3 262.8
620(13) 0.00598 351.2 272.7
605(13) 0.00603 351.1 280.9
566(13) 0.00624 351.0 287.3
599(14) 0.00540 350.9 291.5
562(13) 0.00616 350.8 293.4
582(12) 0.00643 350.7 293.1
569(13) 0.00633 350.6 290.6
578(13) 0.00587 350.5 286.1
565(13) 0.00607 350.4 279.7
570(13) 0.00615 350.3 271.6
563(12) 0.00661 350.2 262.1
561(13) 0.00622 350.1 251.5
562(13) 0.00585 350.0 239.8
549(13) 0.00618 349.9 227.4
485(11) 0.00760 349.8 214.5
507(12) 0.00733 349.8 201.3
474(11) 0.00757 349.7 188.2
537(13) 0.00609 349.6 175.4
464(11) 0.00775 349.5 162.9
471(11) 0.00763 349.4 151.0
440(11) 0.00838 349.3 139.7
438(11) 0.00785 349.2 129.1
453(12) 0.00739 349.1 119.2
425(11) 0.00850 349.0 110.1
447(11) 0.00829 348.9 101.7
437(11) 0.00839 348.8 94.0
413(11) 0.00856 348.7 86.9
419(11) 0.00789 348.6 80.5
402(11) 0.00856 348.5 74.6
427(11) 0.00861 348.4 69.3
425(11) 0.00873 348.3 64.5
402(11) 0.00871 348.2 60.2
401(11) 0.00794 348.1 56.2
367(10) 0.00945 348.0 52.7
392(10) 0.00926 347.9 49.5
381(10) 0.00971 347.8 46.6
398(11) 0.00894 347.7 43.9
410(11) 0.00777 347.6 41.5
381(11) 0.00898 347.5 39.3
356(10) 0.01049 347.5 37.3
388(10) 0.00965 347.4 35.5
391(11) 0.00879 347.3 33.9
380(11) 0.00849 347.2 32.3
367(10) 0.00927 347.1 30.9
382(10) 0.00968 347.0 29.6
368(10) 0.01009 346.9 28.4
370(10) 0.00933 346.8 27.3
370(11) 0.00882 346.7 26.2
392(11) 0.00831 346.6 25.2
389(10) 0.00967 346.5 24.3
387(10) 0.00924 346.4 23.5
378(10) 0.00910 346.3 22.7
355(10) 0.00936 346.2 21.9
393(11) 0.00831 346.1 21.2
359(10) 0.01042 346.0 20.5
371(10) 0.00963 345.9 19.9
379(11) 0.00898 345.8 19.3
386(11) 0.00846 345.7 18.8
363(10) 0.00949 345.6 18.3
361(10) 0.01034 345.5 17.8
360(10) 0.01022 345.4 17.3
376(11) 0.00891 345.3 16.9
346(10) 0.00992 345.2 16.5
348(10) 0.01016 345.1 16.1
361(10) 0.01041 345.1 15.7
359(10) 0.01005 345.0 15.4
339(10) 0.01029 344.9 15.0
355(10) 0.00989 344.8 14.7
367(10) 0.00988 344.7 14.5
371(10) 0.01011 344.6 14.2
371(10) 0.00936 344.5 14.0
374(11) 0.00880 344.4 13.8
330(10) 0.01060 344.3 13.6
373(10) 0.00977 344.2 13.4
352(10) 0.01065 344.1 13.2
343(10) 0.00984 344.0 13.1
353(10) 0.00928 343.9 13.0
357(10) 0.00968 343.8 12.9
350(10) 0.01053 343.7 12.8
348(10) 0.01057 343.6 12.7
352(10) 0.00940 343.5 12.7
336(10) 0.00949 343.4 12.7
355(10) 0.00963 343.3 12.7
335(9) 0.01119 343.2 12.7
379(10) 0.00987 343.1 12.8
344(10) 0.01052 343.0 12.9
363(11) 0.00861 342.9 13.0
338(10) 0.01034 342.8 13.1
327(10) 0.01105 342.8 13.3
351(10) 0.01069 342.7 13.4
360(10) 0.00982 342.6 13.7
369(11) 0.00871 342.5 13.9
346(10) 0.01026 342.4 14.1
338(10) 0.01107 342.3 14.4
341(10) 0.01081 342.2 14.7
345(10) 0.01030 342.1 15.0
353(10) 0.00950 342.0 15.3
363(10) 0.00928 341.9 15.7
357(10) 0.01052 341.8 16.0
376(10) 0.00956 341.7 16.3
321(10) 0.01045 341.6 16.6
336(10) 0.00958 341.5 16.9
326(10) 0.01084 341.4 17.2
341(10) 0.01089 341.3 17.4
320(9) 0.01143 341.2 17.6
368(10) 0.00937 341.1 17.7
357(10) 0.00940 341.0 17.8
352(10) 0.00996 340.9 17.8
378(10) 0.00986 340.8 17.7
331(10) 0.01105 340.7 17.5
346(10) 0.00972 340.6 17.3
337(10) 0.00997 340.5 17.0
357(10) 0.00975 340.4 16.7
356(10) 0.01050 340.4 16.3
337(10) 0.01075 340.3 15.8
331(10) 0.01027 340.2 15.3
343(10) 0.00986 340.1 14.9
354(10) 0.01027 340.0 14.4
359(10) 0.01044 339.9 13.9
347(10) 0.00998 339.8 13.4
349(10) 0.00954 339.7 12.9
348(10) 0.00997 339.6 12.4
338(10) 0.01092 339.5 11.9
352(10) 0.01053 339.4 11.5
364(10) 0.00942 339.3 11.1
363(11) 0.00898 339.2 10.7
331(10) 0.01050 339.1 10.3
333(9) 0.01110 339.0 9.9
341(10) 0.01082 338.9 9.6
363(10) 0.00952 338.8 9.3
329(10) 0.01002 338.7 9.0
338(10) 0.00993 338.6 8.7
338(10) 0.01086 338.5 8.4
353(10) 0.01059 338.4 8.2
352(10) 0.00994 338.3 8.0
355(10) 0.00918 338.2 7.8
320(10) 0.01102 338.1 7.6
344(10) 0.01057 338.1 7.4
322(9) 0.01163 338.0 7.2
335(10) 0.01033 337.9 7.1
349(11) 0.00894 337.8 7.0
351(10) 0.00987 337.7 6.8
336(10) 0.01098 337.6 6.7
353(10) 0.01050 337.5 6.6
348(10) 0.01024 337.4 6.5
330(10) 0.01033 337.3 6.4
356(10) 0.00973 337.2 6.3
345(10) 0.01081 337.1 6.3
337(10) 0.01077 337.0 6.2
358(10) 0.00991 336.9 6.1
345(10) 0.00987 336.8 6.1
338(10) 0.01014 336.7 6.0
342(10) 0.01099 336.6 6.0
334(10) 0.01100 336.5 6.0
315(9) 0.01117 336.4 5.9
321(10) 0.01067 336.3 5.9
344(10) 0.00992 336.2 5.9
327(9) 0.01140 336.1 5.9
368(10) 0.00995 336.0 5.9
357(10) 0.00967 335.9 5.9
331(10) 0.01014 335.8 5.9
330(10) 0.01072 335.7 5.9
335(9) 0.01112 335.7 5.9
337(10) 0.01046 335.6 5.9
341(10) 0.01007 335.5 5.9
359(10) 0.00949 335.4 5.9
339(10) 0.01026 335.3 6.0
326(9) 0.01133 335.2 6.0
335(10) 0.01066 335.1 6.0
345(10) 0.00954 335.0 6.1
351(10) 0.00984 334.9 6.1
340(10) 0.01062 334.8 6.2
305(9) 0.01221 334.7 6.2
326(10) 0.01078 334.6 6.3
353(10) 0.00959 334.5 6.4
329(10) 0.01072 334.4 6.5
356(10) 0.01028 334.3 6.6
358(10) 0.01039 334.2 6.7
324(9) 0.01113 334.1 6.8
351(10) 0.00928 334.0 6.9
321(9) 0.01146 333.9 7.1
348(10) 0.01070 333.8 7.2
344(10) 0.01081 333.7 7.4
355(10) 0.00993 333.6 7.5
321(10) 0.01045 333.5 7.7
350(10) 0.00998 333.4 7.9
353(10) 0.01060 333.4 8.1
367(10) 0.00984 333.3 8.4
362(10) 0.00942 333.2 8.6
321(10) 0.01024 333.1 8.9
333(10) 0.01037 333.0 9.2
325(9) 0.01141 332.9 9.5
326(9) 0.01113 332.8 9.8
337(10) 0.01049 332.7 10.2
344(10) 0.00916 332.6 10.5
339(10) 0.01029 332.5 10.9
352(10) 0.01058 332.4 11.4
371(10) 0.00992 332.3 11.8
336(10) 0.01062 332.2 12.3
353(10) 0.00970 332.1 12.8
355(10) 0.01008 332.0 13.4
328(9) 0.01134 331.9 13.9
334(10) 0.01052 331.8 14.5
342(10) 0.00965 331.7 15.1
373(11) 0.00890 331.6 15.8
362(10) 0.00978 331.5 16.5
335(9) 0.01117 331.4 17.2
355(10) 0.00979 331.3 17.9
352(10) 0.00945 331.2 18.7
344(10) 0.00951 331.1 19.5
361(10) 0.00981 331.0 20.2
355(10) 0.01046 331.0 21.1
342(10) 0.01034 330.9 21.9
360(10) 0.00950 330.8 22.7
356(10) 0.00987 330.7 23.5
351(10) 0.01024 330.6 24.3
364(10) 0.01029 330.5 25.0
338(10) 0.01048 330.4 25.7
358(10) 0.00952 330.3 26.4
371(10) 0.00927 330.2 27.0
328(10) 0.01100 330.1 27.5
355(10) 0.01047 330.0 28.0
336(10) 0.01015 329.9 28.3
346(10) 0.00945 329.8 28.6
354(10) 0.00986 329.7 28.7
366(10) 0.01008 329.6 28.8
355(10) 0.01043 329.5 28.7
344(10) 0.01002 329.4 28.5
338(10) 0.00969 329.3 28.2
378(11) 0.00906 329.2 27.8
356(10) 0.01046 329.1 27.3
322(9) 0.01155 329.0 26.7
347(10) 0.00999 328.9 26.1
362(11) 0.00888 328.8 25.4
356(10) 0.00981 328.7 24.6
331(10) 0.01102 328.7 23.9
334(10) 0.01100 328.6 23.1
335(10) 0.01035 328.5 22.3
350(10) 0.00929 328.4 21.4
351(10) 0.01007 328.3 20.6
339(10) 0.01086 328.2 19.8
317(9) 0.01192 328.1 19.0
307(9) 0.01134 328.0 18.3
339(10) 0.00936 327.9 17.5
371(10) 0.00910 327.8 16.8
328(9) 0.01144 327.7 16.1
324(9) 0.01112 327.6 15.4
360(10) 0.00929 327.5 14.8
351(10) 0.00950 327.4 14.2
330(10) 0.01074 327.3 13.6
327(9) 0.01142 327.2 13.0
330(9) 0.01115 327.1 12.5
324(10) 0.01084 327.0 12.0
329(10) 0.01031 326.9 11.6
341(10) 0.01016 326.8 11.1
337(9) 0.01109 326.7 10.7
317(10) 0.01108 326.6 10.3
315(9) 0.01130 326.5 10.0
317(10) 0.01076 326.4 9.6
338(10) 0.01051 326.4 9.3
317(9) 0.01174 326.3 9.0
315(9) 0.01120 326.2 8.8
344(10) 0.01014 326.1 8.5
351(10) 0.00928 326.0 8.3
335(10) 0.01079 325.9 8.1
333(9) 0.01113 325.8 7.9
324(10) 0.01081 325.7 7.7
337(10) 0.01004 325.6 7.5
343(10) 0.00980 325.5 7.4
332(10) 0.01086 325.4 7.3
341(10) 0.01084 325.3 7.1
325(10) 0.01046 325.2 7.0
305(9) 0.01159 325.1 6.9
332(10) 0.01044 325.0 6.8
334(10) 0.01059 324.9 6.8
325(9) 0.01136 324.8 6.7
332(10) 0.00989 324.7 6.6
305(10) 0.01102 324.6 6.6
316(9) 0.01136 324.5 6.5
347(10) 0.01056 324.4 6.5
325(9) 0.01137 324.3 6.5
305(9) 0.01135 324.2 6.5
303(10) 0.01082 324.1 6.4
314(10) 0.01104 324.0 6.4
342(10) 0.01056 324.0 6.4
318(9) 0.01186 323.9 6.4
323(10) 0.01066 323.8 6.4
309(9) 0.01115 323.7 6.5
318(10) 0.01106 323.6 6.5
328(10) 0.01104 323.5 6.5
345(10) 0.01070 323.4 6.5
323(10) 0.01074 323.3 6.6
327(10) 0.00999 323.2 6.6
316(9) 0.01130 323.1 6.6
334(9) 0.01111 323.0 6.7
317(9) 0.01174 322.9 6.7
326(10) 0.01084 322.8 6.7
337(10) 0.00970 322.7 6.8
308(9) 0.01164 322.6 6.8
318(9) 0.01169 322.5 6.9
321(9) 0.01132 322.4 6.9
328(10) 0.01045 322.3 6.9
338(10) 0.01017 322.2 7.0
309(9) 0.01179 322.1 7.0
344(10) 0.01086 322.0 7.1
332(10) 0.01089 321.9 7.1
329(10) 0.01041 321.8 7.1
337(10) 0.01015 321.7 7.1
335(10) 0.01039 321.7 7.2
329(9) 0.01132 321.6 7.2
330(10) 0.01097 321.5 7.2
292(9) 0.01218 321.4 7.2
346(10) 0.00936 321.3 7.2
318(10) 0.01079 321.2 7.2
307(9) 0.01218 321.1 7.2
317(9) 0.01142 321.0 7.2
312(10) 0.01080 320.9 7.2
316(10) 0.01074 320.8 7.2
315(9) 0.01129 320.7 7.1
324(9) 0.01149 320.6 7.1
342(10) 0.01004 320.5 7.0
319(10) 0.01093 320.4 7.0
323(10) 0.01088 320.3 6.9
306(9) 0.01160 320.2 6.8
344(10) 0.01086 320.1 6.8
330(10) 0.01001 320.0 6.7
336(10) 0.00972 319.9 6.6
335(10) 0.01025 319.9 6.6
324(9) 0.01130 319.8 6.5
323(9) 0.01152 319.7 6.4
325(10) 0.01066 319.6 6.3
303(9) 0.01117 319.6 6.2
322(10) 0.01047 319.5 6.1
303(9) 0.01186 319.4 6.0
320(9) 0.01149 319.4 5.9
323(10) 0.01086 319.3 5.8
341(10) 0.00950 319.2 5.7
344(10) 0.00996 319.2 5.6
338(10) 0.01104 319.1 5.5
310(9) 0.01211 319.0 5.4
315(10) 0.01101 318.9 5.3
336(10) 0.00941 318.9 5.2
330(10) 0.01058 318.8 5.1
315(9) 0.01181 318.7 5.0
300(9) 0.01249 318.7 4.9
306(9) 0.01128 318.6 4.8
319(10) 0.01010 318.5 4.7
297(9) 0.01177 318.4 4.6
324(9) 0.01151 318.4 4.5
313(9) 0.01195 318.3 4.4
319(10) 0.01026 318.2 4.3
315(10) 0.00996 318.2 4.2
300(9) 0.01125 318.1 4.2
293(9) 0.01278 318.0 4.1
311(9) 0.01191 317.9 4.0
309(10) 0.01089 317.9 3.9
318(10) 0.01060 317.8 3.8
325(10) 0.01034 317.7 3.8
310(9) 0.01200 317.7 3.7
321(9) 0.01113 317.6 3.6
328(10) 0.01075 317.5 3.6
318(10) 0.01065 317.5 3.5
325(10) 0.01054 317.4 3.4
311(9) 0.01197 317.3 3.4
301(9) 0.01176 317.2 3.3
282(9) 0.01215 317.2 3.3
316(10) 0.01062 317.1 3.2
303(9) 0.01184 317.0 3.2
307(9) 0.01221 317.0 3.1
302(9) 0.01155 316.9 3.1
296(9) 0.01155 316.8 3.0
333(10) 0.01030 316.7 3.0
312(9) 0.01146 316.7 2.9
329(9) 0.01129 316.6 2.9
320(10) 0.01041 316.5 2.9
313(10) 0.01052 316.5 2.8
302(9) 0.01157 316.4 2.8
318(10) 0.01107 316.3 2.7
318(9) 0.01157 316.3 2.7
327(9) 0.01108 316.2 2.7
328(10) 0.01068 316.1 2.7
318(10) 0.01088 316.0 2.6
304(9) 0.01210 316.0 2.6
333(9) 0.01124 315.9 2.6
324(10) 0.01073 315.8 2.5
328(10) 0.00974 315.8 2.5
308(9) 0.01121 315.7 2.5
314(9) 0.01177 315.6 2.5
288(9) 0.01286 315.5 2.4
326(10) 0.01028 315.5 2.4
324(10) 0.00962 315.4 2.4
297(9) 0.01182 315.3 2.4
314(9) 0.01170 315.3 2.4
340(10) 0.01103 315.2 2.4
329(10) 0.01088 315.1 2.3
325(10) 0.01013 315.1 2.3
318(10) 0.01070 315.0 2.3
300(9) 0.01228 314.9 2.3
306(9) 0.01203 314.8 2.3
342(10) 0.01044 314.8 2.3
329(10) 0.01005 314.7 2.3
315(9) 0.01112 314.6 2.3
325(9) 0.01130 314.6 2.2
295(9) 0.01251 314.5 2.2
319(10) 0.01102 314.4 2.2
314(10) 0.01076 314.3 2.2
298(9) 0.01127 314.3 2.2
321(9) 0.01155 314.2 2.2
315(9) 0.01158 314.1 2.2
302(9) 0.01169 314.1 2.2
309(10) 0.01101 314.0 2.2
329(10) 0.01050 313.9 2.2
334(9) 0.01120 313.9 2.2
322(10) 0.01087 313.8 2.2
344(10) 0.00936 313.7 2.2
328(10) 0.01043 313.6 2.2
326(10) 0.01091 313.6 2.2
329(9) 0.01123 313.5 2.2
306(9) 0.01182 313.4 2.2
326(10) 0.01069 313.4 2.2
315(9) 0.01135 313.3 2.2
303(9) 0.01154 313.2 2.3
336(9) 0.01113 313.1 2.3
335(10) 0.01034 313.1 2.3
315(10) 0.01063 313.0 2.3
306(10) 0.01088 312.9 2.3
293(9) 0.01212 312.9 2.3
318(9) 0.01176 312.8 2.3
320(10) 0.01049 312.7 2.4
310(10) 0.01045 312.6 2.4
314(10) 0.01104 312.6 2.4
323(9) 0.01141 312.5 2.4
316(9) 0.01194 312.4 2.5
294(9) 0.01190 312.4 2.5
323(10) 0.00976 312.3 2.5
311(10) 0.01069 312.2 2.6
320(9) 0.01132 312.2 2.6
340(10) 0.01089 312.1 2.7
323(10) 0.01075 312.0 2.7
324(10) 0.01001 311.9 2.8
306(9) 0.01146 311.9 2.9
303(9) 0.01224 311.8 3.0
290(9) 0.01277 311.7 3.0
323(9) 0.01111 311.7 3.1
320(10) 0.01032 311.6 3.2
311(9) 0.01131 311.5 3.4
316(9) 0.01178 311.4 3.5
318(9) 0.01150 311.4 3.7
294(9) 0.01201 311.3 3.8
304(9) 0.01126 311.2 4.0
330(10) 0.01060 311.2 4.3
317(9) 0.01179 311.1 4.6
299(9) 0.01238 311.0 4.9
306(9) 0.01122 311.0 5.3
315(9) 0.01117 310.9 5.8
317(10) 0.01088 310.8 6.4
318(9) 0.01178 310.7 7.1
297(9) 0.01217 310.7 8.0
294(9) 0.01185 310.6 9.0
313(10) 0.01042 310.5 10.1
316(10) 0.01097 310.5 11.5
317(9) 0.01171 310.4 13.0
303(9) 0.01186 310.3 14.7
312(10) 0.01101 310.2 16.5
307(9) 0.01188 310.2 18.4
325(9) 0.01123 310.1 20.1
337(9) 0.01120 310.0 21.6
321(10) 0.01081 310.0 22.6
305(9) 0.01126 309.9 22.9
304(9) 0.01143 309.8 22.4
297(9) 0.01195 309.8 21.4
312(9) 0.01197 309.7 19.9
322(10) 0.01076 309.6 18.1
324(10) 0.01028 309.5 16.3
311(9) 0.01162 309.5 14.5
328(10) 0.01094 309.4 12.8
323(9) 0.01153 309.3 11.4
303(9) 0.01158 309.3 10.1
306(10) 0.01095 309.2 9.0
319(10) 0.01081 309.1 8.1
302(9) 0.01232 309.0 7.3
303(9) 0.01234 309.0 6.6
316(10) 0.01076 308.9 6.1
295(9) 0.01123 308.8 5.7
323(10) 0.01095 308.8 5.3
304(9) 0.01209 308.7 5.0
296(9) 0.01262 308.6 4.8
296(9) 0.01156 308.6 4.6
310(10) 0.01025 308.5 4.4
316(10) 0.01105 308.4 4.3
299(9) 0.01222 308.3 4.2
291(9) 0.01286 308.3 4.1
304(9) 0.01166 308.2 4.0
318(10) 0.01032 308.1 4.0
284(9) 0.01255 308.1 3.9
296(9) 0.01247 308.0 3.9
312(9) 0.01193 307.9 3.9
301(9) 0.01215 307.8 3.9
337(10) 0.00951 307.8 3.9
294(9) 0.01244 307.7 3.9
303(9) 0.01219 307.6 3.9
307(9) 0.01152 307.6 4.0
323(10) 0.01025 307.5 4.0
311(10) 0.01088 307.4 4.1
293(9) 0.01188 307.3 4.2
265(8) 0.01399 307.3 4.3
315(9) 0.01152 307.2 4.4
307(9) 0.01136 307.1 4.5
297(9) 0.01135 307.1 4.7
295(9) 0.01182 307.0 4.8
323(9) 0.01159 306.9 5.0
306(9) 0.01157 306.9 5.3
290(9) 0.01195 306.8 5.5
321(10) 0.01027 306.7 5.8
305(9) 0.01147 306.6 6.1
301(9) 0.01229 306.6 6.4
316(9) 0.01123 306.5 6.7
283(9) 0.01229 306.4 7.0
291(9) 0.01153 306.4 7.2
312(9) 0.01137 306.3 7.5
308(9) 0.01204 306.2 7.7
293(9) 0.01219 306.1 7.8
292(9) 0.01188 306.1 7.8
298(9) 0.01159 306.0 7.7
313(9) 0.01148 305.9 7.6
298(9) 0.01250 305.9 7.3
309(9) 0.01133 305.8 7.1
307(10) 0.01090 305.7 6.8
289(9) 0.01192 305.7 6.5
313(9) 0.01156 305.6 6.2
297(9) 0.01252 305.5 5.9
304(9) 0.01120 305.4 5.7
314(10) 0.01055 305.4 5.4
305(9) 0.01143 305.3 5.2
301(9) 0.01208 305.2 5.0
298(9) 0.01246 305.2 4.9
307(9) 0.01140 305.1 4.7
306(10) 0.01093 305.0 4.6
307(9) 0.01155 304.9 4.5
284(9) 0.01275 304.9 4.4
310(9) 0.01189 304.8 4.4
289(9) 0.01207 304.7 4.3
317(10) 0.01026 304.7 4.3
312(9) 0.01151 304.6 4.3
328(9) 0.01144 304.5 4.2
297(9) 0.01250 304.5 4.2
307(10) 0.01107 304.4 4.2
294(10) 0.01095 304.3 4.3
299(9) 0.01136 304.2 4.3
292(9) 0.01270 304.2 4.3
305(9) 0.01208 304.1 4.4
325(10) 0.00990 304.0 4.4
301(10) 0.01069 304.0 4.4
305(9) 0.01118 303.9 4.5
287(9) 0.01293 303.8 4.6
315(9) 0.01134 303.7 4.6
299(9) 0.01167 303.7 4.7
311(10) 0.01090 303.6 4.8
290(9) 0.01217 303.5 4.8
287(9) 0.01291 303.5 4.9
313(9) 0.01154 303.4 5.0
284(9) 0.01189 303.3 5.1
306(10) 0.01071 303.2 5.2
336(10) 0.01039 303.2 5.3
291(9) 0.01261 303.1 5.4
309(9) 0.01154 303.0 5.6
285(9) 0.01184 303.0 5.7
305(10) 0.01099 302.9 5.8
305(9) 0.01149 302.8 5.9
307(9) 0.01209 302.8 6.1
316(10) 0.01087 302.7 6.2
313(10) 0.01087 302.6 6.4
289(9) 0.01229 302.5 6.5
314(9) 0.01143 302.5 6.7
314(9) 0.01194 302.4 6.8
305(9) 0.01123 302.3 7.0
299(9) 0.01151 302.3 7.2
315(9) 0.01137 302.2 7.3
306(9) 0.01209 302.1 7.5
320(9) 0.01161 302.0 7.7
332(10) 0.01055 302.0 7.9
313(10) 0.01040 301.9 8.1
302(9) 0.01124 301.8 8.2
310(9) 0.01183 301.8 8.4
293(9) 0.01283 301.7 8.6
315(10) 0.01091 301.6 8.8
285(9) 0.01175 301.6 9.0
294(9) 0.01233 301.5 9.2
312(9) 0.01176 301.4 9.3
325(9) 0.01116 301.3 9.5
327(10) 0.01039 301.3 9.7
297(9) 0.01115 301.2 9.8
316(10) 0.01088 301.1 10.0
290(9) 0.01287 301.1 10.2
294(9) 0.01276 301.0 10.3
309(9) 0.01112 300.9 10.4
305(10) 0.01079 300.8 10.5
312(10) 0.01089 300.8 10.7
296(9) 0.01241 300.7 10.8
314(9) 0.01190 300.6 10.8
305(9) 0.01142 300.6 10.9
298(10) 0.01093 300.5 11.0
316(10) 0.01080 300.4 11.1
335(10) 0.01103 300.4 11.1
331(9) 0.01119 300.3 11.1
298(9) 0.01200 300.2 11.2
322(10) 0.01038 300.1 11.2
303(9) 0.01158 300.1 11.2
303(9) 0.01231 300.0 11.2
284(9) 0.01311 299.9 11.2
310(9) 0.01111 299.9 11.2
287(9) 0.01168 299.8 11.2
301(9) 0.01147 299.7 11.2
309(9) 0.01199 299.6 11.2
298(9) 0.01187 299.6 11.2
320(10) 0.01041 299.5 11.2
326(10) 0.01082 299.4 11.2
300(9) 0.01175 299.4 11.2
317(9) 0.01177 299.3 11.2
309(9) 0.01138 299.2 11.3
302(9) 0.01118 299.2 11.3
304(9) 0.01128 299.1 11.3
312(9) 0.01147 299.0 11.4
313(9) 0.01188 298.9 11.5
311(9) 0.01121 298.9 11.6
317(10) 0.01022 298.8 11.7
331(10) 0.01049 298.7 11.8
314(9) 0.01178 298.7 11.9
297(9) 0.01247 298.6 12.1
331(10) 0.00999 298.5 12.2
311(10) 0.01084 298.4 12.4
296(9) 0.01199 298.4 12.6
316(9) 0.01114 298.3 12.8
327(9) 0.01145 298.2 13.0
307(9) 0.01123 298.2 13.3
308(10) 0.01071 298.1 13.5
340(10) 0.01009 298.0 13.8
339(10) 0.01084 297.9 14.0
325(9) 0.01161 297.9 14.3
314(9) 0.01127 297.8 14.6
299(9) 0.01131 297.7 14.9
322(10) 0.01067 297.7 15.1
326(9) 0.01118 297.6 15.4
339(10) 0.01097 297.5 15.6
319(10) 0.01066 297.5 15.9
339(10) 0.00953 297.4 16.1
340(10) 0.01027 297.3 16.3
339(10) 0.01089 297.2 16.5
303(9) 0.01208 297.2 16.6
353(10) 0.00980 297.1 16.7
325(10) 0.01033 297.0 16.7
316(9) 0.01109 297.0 16.8
314(9) 0.01188 296.9 16.7
347(10) 0.01038 296.8 16.6
314(10) 0.01107 296.7 16.5
302(9) 0.01121 296.7 16.3
334(10) 0.01032 296.6 16.1
332(9) 0.01121 296.5 15.9
332(10) 0.01105 296.5 15.6
332(10) 0.01070 296.4 15.3
333(10) 0.01018 296.3 14.9
326(10) 0.01066 296.3 14.6
329(9) 0.01138 296.2 14.2
299(9) 0.01191 296.1 13.8
314(10) 0.01103 296.0 13.4
316(10) 0.01079 296.0 13.1
294(9) 0.01213 295.9 12.7
307(9) 0.01210 295.8 12.3
313(9) 0.01161 295.8 11.9
337(10) 0.01010 295.7 11.5
320(10) 0.01056 295.6 11.1
298(9) 0.01224 295.5 10.8
316(9) 0.01157 295.5 10.4
291(9) 0.01202 295.4 10.1
317(10) 0.01028 295.3 9.8
320(10) 0.01067 295.3 9.5
291(9) 0.01234 295.2 9.2
286(9) 0.01296 295.1 8.9
318(10) 0.01061 295.1 8.7
309(10) 0.01088 295.0 8.4
283(9) 0.01245 294.9 8.2
305(9) 0.01179 294.8 8.0
293(9) 0.01261 294.8 7.8
308(9) 0.01124 294.7 7.6
296(9) 0.01158 294.6 7.4
311(9) 0.01113 294.6 7.3
299(9) 0.01227 294.5 7.1
294(9) 0.01267 294.4 7.0
309(9) 0.01116 294.3 6.9
282(9) 0.01127 294.3 6.8
292(9) 0.01197 294.2 6.7
309(9) 0.01191 294.1 6.6
290(9) 0.01280 294.1 6.5
276(9) 0.01282 294.0 6.4
270(9) 0.01197 293.9 6.3
294(9) 0.01189 293.9 6.2
294(9) 0.01266 293.8 6.2
318(9) 0.01160 293.7 6.1
314(10) 0.01083 293.6 6.1
300(10) 0.01072 293.6 6.0
279(9) 0.01300 293.5 6.0
302(9) 0.01225 293.4 5.9
297(9) 0.01235 293.4 5.8
298(9) 0.01170 293.3 5.8
292(9) 0.01208 293.2 5.7
301(9) 0.01157 293.1 5.7
297(9) 0.01266 293.1 5.6
315(9) 0.01149 293.0 5.5
301(9) 0.01132 292.9 5.5
283(9) 0.01178 292.9 5.4
286(9) 0.01185 292.8 5.3
305(9) 0.01220 292.7 5.2
280(9) 0.01294 292.6 5.2
297(9) 0.01140 292.6 5.1
282(9) 0.01235 292.5 5.0
285(9) 0.01198 292.4 4.9
277(9) 0.01332 292.4 4.8
313(9) 0.01144 292.3 4.7
288(9) 0.01192 292.2 4.6
299(9) 0.01121 292.2 4.5
277(9) 0.01308 292.1 4.5
283(9) 0.01317 292.0 4.4
307(9) 0.01163 291.9 4.3
286(9) 0.01218 291.9 4.2
278(9) 0.01275 291.8 4.1
298(9) 0.01220 291.7 4.0
268(8) 0.01397 291.7 3.9
306(10) 0.01091 291.6 3.8
294(9) 0.01129 291.5 3.8
295(9) 0.01181 291.4 3.7
298(9) 0.01245 291.4 3.6
299(9) 0.01252 291.3 3.5
276(9) 0.01254 291.2 3.4
314(10) 0.01049 291.2 3.4
320(10) 0.01042 291.1 3.3
279(9) 0.01279 291.0 3.2
285(9) 0.01292 291.0 3.2
276(9) 0.01259 290.9 3.1
282(10) 0.01107 290.8 3.1
285(9) 0.01152 290.7 3.0
292(9) 0.01219 290.7 3.0
308(9) 0.01212 290.6 2.9
296(9) 0.01210 290.5 2.9
302(10) 0.01050 290.5 2.8
280(9) 0.01285 290.4 2.8
292(9) 0.01274 290.3 2.7
289(9) 0.01276 290.2 2.7
295(9) 0.01171 290.2 2.6
258(9) 0.01339 290.1 2.6
285(9) 0.01197 290.0 2.6
279(9) 0.01317 290.0 2.5
275(9) 0.01346 289.9 2.5
289(9) 0.01188 289.8 2.5
309(10) 0.01018 289.8 2.4
274(9) 0.01227 289.7 2.4
277(9) 0.01323 289.6 2.4
290(9) 0.01241 289.5 2.4
276(9) 0.01263 289.5 2.3
299(9) 0.01122 289.4 2.3
307(10) 0.01104 289.3 2.3
307(9) 0.01209 289.3 2.3
284(9) 0.01290 289.2 2.3
294(9) 0.01168 289.1 2.3
285(9) 0.01168 289.0 2.2
301(9) 0.01114 289.0 2.2
306(9) 0.01207 288.9 2.2
295(9) 0.01216 288.8 2.2
303(9) 0.01117 288.8 2.2
289(9) 0.01181 288.8 2.2
293(9) 0.01207 288.8 2.2
284(9) 0.01311 288.8 2.1
300(9) 0.01152 288.8 2.1
279(9) 0.01187 288.8 2.1
291(9) 0.01167 288.8 2.1
304(9) 0.01154 288.8 2.1
292(9) 0.01286 288.8 2.1
284(9) 0.01236 288.8 2.1
302(9) 0.01116 288.8 2.0
289(9) 0.01204 288.8 2.0
283(9) 0.01269 288.8 2.0
250(8) 0.01465 288.8 2.0
274(9) 0.01259 288.8 2.0
293(10) 0.01105 288.8 2.0
282(9) 0.01182 288.8 2.0
281(9) 0.01305 288.8 2.0
283(9) 0.01322 288.8 1.9
288(9) 0.01255 288.8 1.9
299(10) 0.01089 288.8 1.9
277(9) 0.01296 288.8 1.9
284(9) 0.01290 288.8 1.9
298(9) 0.01233 288.8 1.9
270(9) 0.01247 288.8 1.9
275(9) 0.01165 288.8 1.9
283(9) 0.01197 288.8 1.9
302(9) 0.01223 288.8 1.9
273(9) 0.01362 288.8 1.9
261(9) 0.01335 288.8 1.9
300(10) 0.01105 288.8 1.9
314(9) 0.01128 288.8 1.9
296(9) 0.01266 288.8 1.9
295(9) 0.01197 288.8 1.9
284(9) 0.01180 288.8 1.9
260(9) 0.01314 288.8 1.8
285(9) 0.01227 288.8 1.8
274(9) 0.01359 288.8 1.8
267(9) 0.01371 288.8 1.8
282(9) 0.01238 288.8 1.8
292(9) 0.01142 288.8 1.8
292(9) 0.01202 288.9 1.8
306(9) 0.01226 288.9 1.8
283(9) 0.01294 288.9 1.8
291(9) 0.01190 288.9 1.8
289(9) 0.01172 288.9 1.8
264(9) 0.01253 288.9 1.8
290(9) 0.01291 288.9 1.8
280(9) 0.01265 288.9 1.8
248(8) 0.01465 288.9 1.8
306(10) 0.01078 288.9 1.8
284(9) 0.01251 288.9 1.8
271(9) 0.01367 288.9 1.8
293(9) 0.01217 288.9 1.8
294(9) 0.01152 288.9 1.9
260(9) 0.01357 288.9 1.9
286(9) 0.01248 288.9 1.9
276(9) 0.01354 288.9 1.9
288(9) 0.01170 288.9 1.9
286(9) 0.01178 288.9 1.9
273(9) 0.01279 288.9 1.9
289(9) 0.01279 288.9 1.9
299(9) 0.01236 288.9 1.9
273(9) 0.01290 288.9 1.9
263(9) 0.01291 288.9 1.9
266(9) 0.01319 288.9 1.9
290(9) 0.01274 288.9 1.9
281(9) 0.01317 288.9 1.9
280(9) 0.01248 288.9 1.9
290(9) 0.01139 288.9 1.9
272(9) 0.01309 288.9 1.9
286(9) 0.01304 288.9 1.9
282(9) 0.01312 288.9 1.9
311(9) 0.01112 288.9 1.9
278(9) 0.01181 288.9 1.9
274(9) 0.01230 288.9 2.0
267(8) 0.01401 288.9 2.0
286(9) 0.01296 288.9 2.0
279(9) 0.01302 288.9 2.0
277(9) 0.01228 288.9 2.0
292(9) 0.01193 288.9 2.0
314(9) 0.01197 289.0 2.0
317(9) 0.01172 289.0 2.0
294(9) 0.01198 289.0 2.0
290(9) 0.01129 289.0 2.0
288(9) 0.01185 289.0 2.0
268(8) 0.01400 289.0 2.1
275(9) 0.01340 289.0 2.1
283(9) 0.01240 289.0 2.1
292(9) 0.01147 289.0 2.1
295(9) 0.01176 289.0 2.1
288(9) 0.01288 289.0 2.1
286(9) 0.01269 289.0 2.1
273(9) 0.01273 289.0 2.1
269(9) 0.01263 289.0 2.2
279(9) 0.01254 289.0 2.2
285(9) 0.01299 289.0 2.2
291(9) 0.01244 289.0 2.2
295(9) 0.01188 289.0 2.2
273(9) 0.01239 289.0 2.2
258(9) 0.01368 289.0 2.2
270(9) 0.01368 289.0 2.3
284(9) 0.01195 289.0 2.3
271(9) 0.01261 289.0 2.3
295(9) 0.01162 289.0 2.3
261(9) 0.01362 289.0 2.3
292(9) 0.01267 289.0 2.4
327(10) 0.01069 289.0 2.4
284(9) 0.01246 289.0 2.4
272(9) 0.01295 289.0 2.4
283(9) 0.01303 289.0 2.5
279(9) 0.01330 289.0 2.5
272(9) 0.01271 289.0 2.5
286(9) 0.01206 289.0 2.6
264(9) 0.01351 289.0 2.6
272(9) 0.01346 289.0 2.6
260(8) 0.01431 289.0 2.7
269(9) 0.01317 289.0 2.7
289(9) 0.01143 289.0 2.7
278(9) 0.01239 289.0 2.8
295(9) 0.01243 289.0 2.8
290(9) 0.01291 289.1 2.9
272(9) 0.01278 289.1 2.9
289(10) 0.01075 289.1 3.0
260(9) 0.01331 289.1 3.0
265(8) 0.01408 289.1 3.1
270(8) 0.01401 289.1 3.1
296(9) 0.01182 289.1 3.2
286(10) 0.01100 289.1 3.3
280(9) 0.01271 289.1 3.3
303(9) 0.01232 289.1 3.4
276(9) 0.01352 289.1 3.5
287(9) 0.01268 289.1 3.6
288(9) 0.01156 289.1 3.7
290(9) 0.01174 289.1 3.8
286(9) 0.01278 289.1 3.8
289(9) 0.01281 289.1 3.9
258(8) 0.01410 289.1 4.0
285(9) 0.01168 289.1 4.2
294(9) 0.01149 289.1 4.3
293(9) 0.01271 289.1 4.4
265(8) 0.01385 289.1 4.5
277(9) 0.01312 289.1 4.6
274(9) 0.01221 289.1 4.7
295(9) 0.01124 289.1 4.9
294(9) 0.01263 289.1 5.0
308(9) 0.01141 289.1 5.1
294(9) 0.01194 289.1 5.2
302(10) 0.01062 289.1 5.4
273(9) 0.01292 289.1 5.5
295(9) 0.01238 289.1 5.6
283(9) 0.01266 289.1 5.7
285(9) 0.01207 289.1 5.8
287(9) 0.01197 289.1 5.9
288(9) 0.01236 289.1 6.0
292(9) 0.01270 289.1 6.0
272(9) 0.01321 289.1 6.1
281(9) 0.01189 289.1 6.1
268(9) 0.01327 289.1 6.1
275(9) 0.01303 289.1 6.1
270(9) 0.01375 289.1 6.1
277(9) 0.01277 289.2 6.1
289(9) 0.01179 289.2 6.1
296(9) 0.01202 289.2 6.0
318(9) 0.01121 289.2 6.0
283(9) 0.01303 289.2 5.9
280(9) 0.01269 289.2 5.8
276(9) 0.01225 289.2 5.8
287(9) 0.01205 289.2 5.7
277(9) 0.01328 289.2 5.6
276(9) 0.01355 289.2 5.5
255(8) 0.01400 289.2 5.5
267(9) 0.01233 289.2 5.4
304(9) 0.01135 289.2 5.3
299(9) 0.01223 289.2 5.3
287(9) 0.01268 289.2 5.2
291(9) 0.01168 289.2 5.2
297(10) 0.01096 289.2 5.1
294(9) 0.01182 289.2 5.1
280(9) 0.01323 289.2 5.0
292(9) 0.01233 289.2 5.0
288(9) 0.01176 289.2 5.0
288(10) 0.01100 289.2 4.9
296(9) 0.01128 289.2 4.9
277(9) 0.01348 289.2 4.9
279(9) 0.01290 289.2 4.9
269(9) 0.01286 289.2 4.9
272(9) 0.01168 289.2 4.9
297(9) 0.01126 289.2 4.9
287(9) 0.01295 289.2 4.9
278(9) 0.01339 289.2 4.9
303(9) 0.01155 289.2 4.9
306(10) 0.01070 289.2 4.9
315(10) 0.01080 289.2 5.0
289(9) 0.01298 289.2 5.0
279(9) 0.01279 289.2 5.0
290(9) 0.01197 289.2 5.0
274(9) 0.01224 289.2 5.1
280(9) 0.01229 289.2 5.1
296(9) 0.01263 289.2 5.2
311(9) 0.01117 289.2 5.2
273(9) 0.01227 289.3 5.3
286(9) 0.01220 289.3 5.3
291(9) 0.01241 289.3 5.4
283(9) 0.01326 289.3 5.4
291(9) 0.01174 289.3 5.5
288(9) 0.01183 289.3 5.6
310(10) 0.01101 289.3 5.6
304(9) 0.01201 289.3 5.7
284(9) 0.01315 289.3 5.8
304(9) 0.01122 289.3 5.9
295(9) 0.01162 289.3 5.9
301(9) 0.01167 289.3 6.0
288(9) 0.01244 289.3 6.1
275(9) 0.01353 289.3 6.2
279(9) 0.01248 289.3 6.3
295(10) 0.01090 289.3 6.4
276(9) 0.01275 289.3 6.5
298(9) 0.01217 289.3 6.6
288(9) 0.01298 289.3 6.7
271(9) 0.01270 289.3 6.8
289(9) 0.01122 289.3 6.9
285(9) 0.01243 289.3 7.1
307(9) 0.01205 289.3 7.2
295(9) 0.01265 289.3 7.3
297(9) 0.01142 289.3 7.5
292(10) 0.01027 289.3 7.6
278(9) 0.01228 289.3 7.8
286(9) 0.01288 289.3 7.9
302(9) 0.01217 289.3 8.1
271(9) 0.01309 289.3 8.2
285(9) 0.01135 289.3 8.4
286(9) 0.01226 289.3 8.6
292(9) 0.01257 289.3 8.8
301(9) 0.01244 289.3 8.9
287(9) 0.01198 289.3 9.1
291(9) 0.01131 289.3 9.3
308(9) 0.01127 289.3 9.5
291(9) 0.01297 289.3 9.8
292(9) 0.01278 289.3 10.0
292(9) 0.01174 289.3 10.2
296(9) 0.01131 289.4 10.5
283(9) 0.01189 289.4 10.7
282(9) 0.01312 289.4 11.0
303(9) 0.01184 289.4 11.3
281(9) 0.01245 289.4 11.6
286(9) 0.01195 289.4 11.8
287(9) 0.01218 289.4 12.2
281(9) 0.01324 289.4 12.5
286(9) 0.01220 289.4 12.8
317(10) 0.01042 289.4 13.2
276(9) 0.01258 289.4 13.5
326(10) 0.01059 289.4 13.9
308(9) 0.01199 289.4 14.3
315(10) 0.01083 289.4 14.7
294(9) 0.01153 289.4 15.2
322(10) 0.01060 289.4 15.6
326(10) 0.01054 289.4 16.1
305(9) 0.01214 289.4 16.6
303(9) 0.01165 289.4 17.2
301(9) 0.01135 289.4 17.7
303(9) 0.01137 289.4 18.3
303(9) 0.01172 289.4 18.9
311(9) 0.01175 289.4 19.6
307(9) 0.01159 289.4 20.3
328(10) 0.00991 289.4 21.0
318(10) 0.01086 289.4 21.8
320(9) 0.01134 289.4 22.6
323(9) 0.01156 289.4 23.5
324(10) 0.01088 289.4 24.4
323(10) 0.01000 289.4 25.4
301(9) 0.01150 289.4 26.4
344(10) 0.01076 289.4 27.5
333(9) 0.01116 289.4 28.7
331(10) 0.01078 289.4 30.0
332(10) 0.00945 289.4 31.3
314(9) 0.01119 289.4 32.8
344(10) 0.01095 289.4 34.4
335(10) 0.01083 289.4 36.1
323(10) 0.01089 289.4 38.0
328(10) 0.00956 289.5 40.0
299(9) 0.01150 289.5 42.2
341(10) 0.01083 289.5 44.6
354(10) 0.01056 289.5 47.2
355(10) 0.00978 289.5 50.2
366(11) 0.00863 289.5 53.5
345(10) 0.01009 289.5 57.1
355(10) 0.01060 289.5 61.2
357(10) 0.01036 289.5 65.9
381(11) 0.00904 289.5 71.2
364(11) 0.00906 289.5 77.3
383(11) 0.00895 289.5 84.3
379(10) 0.00984 289.5 92.4
360(10) 0.01010 289.5 101.7
418(11) 0.00817 289.5 112.4
435(11) 0.00769 289.5 124.8
431(11) 0.00820 289.5 139.1
463(11) 0.00804 289.5 155.4
462(11) 0.00789 289.5 174.0
484(12) 0.00706 289.5 195.1
508(12) 0.00660 289.5 218.8
536(12) 0.00656 289.5 245.0
550(12) 0.00675 289.5 273.6
605(13) 0.00567 289.5 304.1
622(14) 0.00541 289.5 335.7
652(14) 0.00524 289.5 367.4
683(14) 0.00522 289.5 397.3
711(14) 0.00522 289.5 423.7
711(14) 0.00496 289.5 444.8
693(14) 0.00491 289.5 459.4
718(14) 0.00478 289.5 467.3
702(14) 0.00517 289.5 469.1
719(14) 0.00518 289.5 465.9
685(14) 0.00507 289.5 459.1
701(15) 0.00469 289.5 449.7
683(14) 0.00518 289.5 438.1
696(14) 0.00522 289.5 424.2
716(14) 0.00521 289.5 407.9
730(15) 0.00466 289.5 388.8
697(15) 0.00467 289.5 367.1
671(14) 0.00521 289.6 343.0
650(13) 0.00563 289.6 317.6
604(13) 0.00616 289.6 291.6
609(13) 0.00560 289.6 265.8
579(13) 0.00558 289.6 241.1
529(12) 0.00673 289.6 217.8
506(12) 0.00739 289.6 196.3
462(11) 0.00803 289.6 176.7
455(11) 0.00763 289.6 159.0
445(12) 0.00723 289.6 143.2
445(11) 0.00758 289.6 129.1
392(10) 0.00938 289.6 116.6
374(10) 0.00978 289.6 105.6
381(10) 0.00911 289.6 96.0
375(10) 0.00929 289.6 87.4
393(11) 0.00894 289.6 80.0
354(10) 0.01042 289.6 73.4
336(10) 0.01076 289.6 67.6
319(10) 0.01099 289.6 62.5
333(10) 0.00988 289.6 58.1
339(10) 0.01006 289.6 54.1
331(9) 0.01142 289.6 50.5
355(10) 0.01031 289.6 47.4
352(10) 0.01016 289.6 44.5
334(10) 0.01051 289.6 42.0
323(10) 0.01104 289.6 39.6
331(9) 0.01112 289.6 37.5
337(10) 0.01047 289.6 35.6
329(10) 0.01024 289.6 33.9
321(10) 0.01041 289.6 32.3
308(9) 0.01142 289.6 30.8
309(9) 0.01206 289.6 29.4
317(9) 0.01126 289.6 28.1
308(10) 0.01073 289.6 26.9
307(9) 0.01121 289.6 25.8
333(10) 0.01066 289.6 24.8
314(9) 0.01181 289.6 23.9
312(9) 0.01153 289.6 23.0
307(10) 0.01103 289.6 22.2
317(10) 0.01062 289.6 21.4
287(9) 0.01241 289.7 20.7
289(9) 0.01288 289.7 20.0
292(9) 0.01195 289.7 19.4
302(10) 0.01087 289.7 18.8
300(9) 0.01153 289.7 18.2
297(9) 0.01199 289.7 17.7
298(9) 0.01243 289.7 17.2
306(9) 0.01139 289.7 16.8
329(10) 0.01031 289.7 16.3
314(9) 0.01138 289.7 15.9
317(9) 0.01188 289.7 15.5
316(9) 0.01182 289.7 15.2
310(10) 0.01088 289.7 14.9
297(10) 0.01100 289.7 14.6
319(10) 0.01016 289.7 14.3
321(9) 0.01162 289.7 14.1
305(9) 0.01213 289.7 13.8
304(9) 0.01172 289.7 13.6
296(10) 0.01080 289.7 13.4
285(9) 0.01259 289.7 13.3
314(9) 0.01167 289.7 13.1
305(9) 0.01208 289.7 13.0
315(9) 0.01143 289.7 12.9
316(10) 0.01013 289.7 12.8
275(9) 0.01275 289.7 12.8
317(9) 0.01182 289.7 12.8
275(9) 0.01344 289.7 12.8
307(9) 0.01142 289.7 12.8
322(10) 0.01066 289.7 12.9
304(9) 0.01153 289.7 13.0
292(9) 0.01280 289.7 13.2
309(9) 0.01186 289.7 13.4
309(10) 0.01068 289.7 13.7
312(10) 0.01017 289.7 14.1
302(9) 0.01115 289.7 14.5
302(9) 0.01227 289.7 15.1
313(9) 0.01128 289.7 15.7
315(9) 0.01116 289.7 16.6
297(9) 0.01120 289.7 17.6
304(9) 0.01138 289.7 18.9
334(10) 0.01101 289.8 20.5
292(9) 0.01239 289.8 22.6
317(10) 0.01066 289.8 25.4
314(10) 0.01067 289.8 29.1
328(10) 0.01046 289.8 33.8
358(10) 0.01043 289.8 39.9
357(10) 0.01015 289.8 47.7
356(10) 0.00977 289.8 57.3
353(10) 0.00995 289.8 68.7
402(11) 0.00862 289.8 81.6
379(10) 0.00992 289.8 94.7
387(11) 0.00883 289.8 105.8
389(11) 0.00877 289.8 112.1
390(10) 0.00908 289.8 111.4
404(11) 0.00893 289.8 103.9
382(10) 0.00986 289.8 92.0
376(11) 0.00905 289.8 78.7
362(10) 0.00924 289.8 65.9
361(10) 0.00961 289.8 54.6
343(10) 0.01074 289.8 45.2
310(9) 0.01182 289.8 37.6
305(9) 0.01155 289.8 31.6
329(10) 0.00975 289.8 27.0
329(10) 0.01053 289.8 23.3
314(9) 0.01173 289.8 20.5
325(9) 0.01142 289.8 18.3
327(10) 0.01061 289.8 16.6
329(10) 0.00987 289.8 15.2
308(9) 0.01139 289.8 14.1
302(9) 0.01234 289.8 13.1
287(9) 0.01270 289.8 12.3
311(10) 0.01056 289.8 11.6
297(10) 0.01093 289.8 11.0
316(9) 0.01122 289.8 10.5
313(9) 0.01192 289.8 10.0
307(9) 0.01193 289.8 9.6
312(10) 0.01089 289.8 9.2
301(10) 0.01072 289.8 8.9
289(9) 0.01182 289.8 8.6
278(9) 0.01356 289.8 8.4
307(9) 0.01185 289.9 8.1
275(9) 0.01284 289.9 7.9
291(9) 0.01119 289.9 7.7
297(9) 0.01139 289.9 7.6
315(9) 0.01184 289.9 7.4
300(9) 0.01187 289.9 7.3
272(9) 0.01242 289.9 7.1
287(9) 0.01169 289.9 7.0
301(9) 0.01166 289.9 6.9
288(9) 0.01283 289.9 6.8
294(9) 0.01228 289.9 6.7
301(9) 0.01114 289.9 6.6
298(9) 0.01132 289.9 6.5
284(9) 0.01243 289.9 6.5
302(9) 0.01251 289.9 6.4
293(9) 0.01162 289.9 6.3
303(9) 0.01117 289.9 6.3
319(10) 0.01066 289.9 6.2
292(9) 0.01182 289.9 6.2
282(9) 0.01337 289.9 6.1
298(9) 0.01184 289.9 6.1
299(9) 0.01182 289.9 6.1
295(9) 0.01214 289.9 6.0
306(9) 0.01179 289.9 6.0
296(9) 0.01240 289.9 6.0
304(9) 0.01157 289.9 6.0
274(9) 0.01263 289.9 5.9
300(9) 0.01159 289.9 5.9
294(9) 0.01213 289.9 5.9
271(8) 0.01392 289.9 5.9
302(9) 0.01183 289.9 5.9
306(10) 0.01107 289.9 5.9
295(9) 0.01146 289.9 5.9
286(9) 0.01301 289.9 5.9
288(9) 0.01274 289.9 5.9
287(9) 0.01215 289.9 5.9
275(9) 0.01188 289.9 5.9
299(9) 0.01132 289.9 5.9
292(9) 0.01255 289.9 5.9
295(9) 0.01247 289.9 5.9
270(9) 0.01301 290.0 5.9
287(9) 0.01144 290.0 6.0
297(9) 0.01180 290.0 6.0
310(9) 0.01212 290.0 6.0
282(9) 0.01289 290.0 6.0
304(9) 0.01158 290.0 6.0
302(10) 0.01044 290.0 6.1
277(9) 0.01285 290.0 6.1
294(9) 0.01275 290.0 6.1
318(10) 0.01094 290.0 6.2
291(9) 0.01234 290.0 6.2
313(10) 0.01044 290.0 6.2
317(10) 0.01100 290.0 6.3
295(9) 0.01255 290.0 6.3
310(9) 0.01166 290.0 6.4
307(10) 0.01097 290.0 6.4
285(9) 0.01208 290.0 6.5
285(9) 0.01204 290.0 6.5
291(9) 0.01278 290.0 6.6
299(9) 0.01223 290.0 6.6
290(9) 0.01219 290.0 6.7
314(10) 0.01077 290.0 6.7
314(10) 0.01095 290.0 6.8
312(9) 0.01196 290.0 6.9
304(9) 0.01156 290.0 6.9
299(9) 0.01171 290.0 7.0
291(9) 0.01227 290.0 7.1
287(9) 0.01274 290.0 7.1
295(9) 0.01252 290.0 7.2
305(9) 0.01119 290.0 7.3
295(9) 0.01140 290.0 7.4
317(10) 0.01059 290.0 7.5
308(9) 0.01169 290.0 7.5
314(9) 0.01166 290.0 7.6
315(10) 0.01102 290.0 7.7
286(9) 0.01174 290.0 7.8
295(9) 0.01183 290.0 7.9
301(9) 0.01166 290.0 8.0
282(9) 0.01317 290.0 8.1
312(10) 0.01103 290.0 8.2
261(9) 0.01271 290.0 8.3
312(10) 0.01077 290.0 8.4
321(9) 0.01148 290.0 8.5
280(9) 0.01321 290.0 8.6
301(9) 0.01166 290.0 8.8
316(10) 0.01034 290.1 8.9
310(9) 0.01133 290.1 9.0
314(9) 0.01185 290.1 9.1
298(9) 0.01235 290.1 9.2
292(9) 0.01196 290.1 9.4
319(10) 0.00960 290.1 9.5
278(9) 0.01281 290.1 9.6
293(9) 0.01239 290.1 9.8
268(8) 0.01384 290.1 9.9
308(9) 0.01119 290.1 10.0
329(10) 0.00950 290.1 10.2
311(10) 0.01097 290.1 10.3
310(9) 0.01180 290.1 10.4
275(9) 0.01319 290.1 10.6
287(9) 0.01195 290.1 10.7
285(9) 0.01160 290.1 10.9
304(9) 0.01119 290.1 11.0
292(9) 0.01259 290.1 11.2
311(9) 0.01168 290.1 11.3
319(10) 0.01074 290.1 11.4
319(10) 0.01037 290.1 11.6
299(9) 0.01170 290.1 11.7
285(9) 0.01288 290.1 11.9
305(9) 0.01191 290.1 12.0
308(9) 0.01123 290.1 12.2
302(10) 0.01090 290.1 12.3
297(9) 0.01161 290.1 12.5
314(9) 0.01192 290.1 12.6
300(9) 0.01148 290.1 12.8
294(9) 0.01135 290.1 12.9
296(9) 0.01174 290.1 13.1
311(9) 0.01140 290.1 13.3
289(9) 0.01304 290.1 13.4
290(9) 0.01190 290.1 13.6
301(9) 0.01126 290.1 13.8
330(10) 0.01032 290.1 13.9
329(10) 0.01095 290.1 14.1
352(10) 0.01052 290.1 14.3
313(9) 0.01122 290.1 14.5
307(10) 0.01101 290.1 14.7
331(10) 0.01039 290.1 14.9
317(9) 0.01173 290.1 15.1
323(9) 0.01119 290.1 15.4
285(9) 0.01281 290.1 15.6
300(9) 0.01120 290.1 15.9
317(10) 0.01077 290.1 16.1
310(9) 0.01168 290.1 16.4
317(9) 0.01173 290.2 16.7
300(9) 0.01180 290.2 17.1
298(9) 0.01113 290.2 17.4
316(10) 0.01101 290.2 17.8
315(9) 0.01193 290.2 18.2
310(9) 0.01203 290.2 18.7
328(10) 0.01054 290.2 19.1
329(10) 0.00950 290.2 19.6
320(10) 0.01068 290.2 20.2
305(9) 0.01219 290.2 20.8
318(9) 0.01184 290.2 21.4
299(9) 0.01178 290.2 22.1
315(10) 0.01039 290.2 22.9
319(10) 0.01081 290.2 23.7
321(9) 0.01139 290.2 24.6
330(9) 0.01122 290.2 25.6
339(10) 0.01013 290.2 26.6
347(10) 0.00948 290.2 27.8
338(10) 0.01046 290.2 29.1
364(10) 0.01014 290.2 30.5
349(10) 0.01047 290.2 32.1
344(10) 0.00992 290.2 33.8
315(10) 0.01028 290.2 35.7
304(9) 0.01109 290.2 37.9
357(10) 0.01046 290.2 40.3
336(10) 0.01068 290.2 43.0
330(10) 0.01078 290.2 46.2
343(10) 0.00973 290.2 49.8
328(10) 0.01070 290.2 54.0
369(10) 0.01005 290.2 59.1
371(10) 0.00933 290.2 65.2
347(10) 0.01011 290.2 72.8
381(11) 0.00886 290.2 82.6
374(10) 0.00926 290.2 95.2
402(10) 0.00931 290.2 111.7
431(11) 0.00808 290.2 133.1
477(12) 0.00698 290.2 160.7
459(11) 0.00774 290.2 195.1
517(12) 0.00696 290.2 236.6
536(12) 0.00695 290.2 283.6
664(14) 0.00520 290.2 332.0
684(14) 0.00486 290.2 373.2
708(14) 0.00486 290.2 395.5
738(14) 0.00493 290.2 391.1
702(14) 0.00530 290.2 362.3
679(14) 0.00501 290.2 319.6
592(13) 0.00557 290.2 273.5
564(13) 0.00593 290.3 231.1
516(12) 0.00713 290.3 194.9
491(12) 0.00753 290.3 165.8
510(12) 0.00663 290.3 143.1
470(12) 0.00703 290.3 125.8
445(11) 0.00768 290.3 113.0
428(11) 0.00870 290.3 103.4
423(11) 0.00886 290.3 96.3
425(11) 0.00814 290.3 90.8
393(11) 0.00811 290.3 86.7
364(10) 0.00984 290.3 83.4
405(10) 0.00923 290.3 80.7
364(10) 0.01019 290.3 78.6
365(10) 0.00966 290.3 76.9
376(11) 0.00865 290.3 75.5
377(10) 0.00918 290.3 74.4
371(10) 0.00986 290.3 73.6
369(10) 0.00975 290.3 73.0
381(11) 0.00879 290.3 72.6
362(10) 0.00948 290.3 72.4
365(10) 0.00992 290.3 72.3
380(10) 0.00974 290.3 72.4
361(10) 0.01009 290.3 72.5
354(10) 0.00989 290.3 72.8
400(11) 0.00837 290.3 73.1
365(10) 0.00968 290.3 73.4
359(10) 0.01043 290.3 73.8
362(10) 0.00976 290.3 74.1
347(10) 0.00990 290.3 74.4
349(10) 0.00937 290.3 74.6
362(10) 0.00948 290.3 74.7
362(10) 0.01034 290.3 74.6
342(10) 0.01014 290.3 74.5
361(10) 0.00927 290.3 74.2
351(10) 0.00973 290.3 73.7
394(11) 0.00886 290.3 73.0
369(10) 0.01012 290.3 72.2
360(10) 0.00995 290.3 71.2
354(10) 0.00943 290.3 70.1
364(11) 0.00898 290.3 68.9
358(10) 0.00993 290.3 67.6
355(10) 0.01048 290.3 66.2
356(10) 0.00980 290.3 64.8
342(10) 0.01019 290.3 63.3
347(10) 0.01003 290.3 61.8
366(10) 0.00940 290.3 60.3
342(10) 0.01093 290.3 58.8
329(10) 0.01052 290.4 57.1
338(10) 0.00971 290.4 55.3
332(10) 0.00998 290.4 53.5
332(10) 0.01101 290.4 51.6
340(10) 0.01094 290.4 49.7
341(10) 0.00984 290.4 47.9
311(10) 0.01061 290.4 46.1
322(10) 0.01099 290.4 44.5
335(10) 0.01074 290.4 43.0
331(9) 0.01135 290.4 41.5
299(9) 0.01155 290.4 40.2
342(10) 0.00935 290.4 39.0
344(10) 0.01026 290.4 37.8
341(10) 0.01078 290.4 36.8
330(9) 0.01127 290.4 35.8
317(9) 0.01149 290.4 34.9
352(11) 0.00898 290.4 34.1
318(10) 0.01090 290.4 33.3
324(9) 0.01151 290.4 32.7
317(9) 0.01159 290.4 32.0
333(10) 0.01049 290.4 31.5
303(10) 0.01076 290.4 31.0
329(10) 0.01083 290.4 30.6
330(9) 0.01128 290.4 30.2
323(9) 0.01149 290.4 29.9
324(10) 0.01068 290.4 29.6
309(10) 0.01042 290.4 29.4
319(10) 0.01059 290.4 29.2
326(9) 0.01159 290.4 29.1
329(10) 0.01105 290.4 29.0
315(10) 0.01105 290.4 29.0
301(10) 0.01097 290.4 29.0
306(9) 0.01165 290.4 29.1
331(9) 0.01132 290.4 29.2
336(10) 0.01065 290.4 29.3
318(10) 0.01080 290.4 29.5
335(10) 0.00990 290.4 29.7
306(9) 0.01161 290.4 30.0
316(9) 0.01177 290.4 30.4
315(9) 0.01122 290.4 30.7
310(10) 0.01094 290.4 31.2
309(10) 0.01063 290.4 31.6
325(9) 0.01127 290.4 32.2
322(9) 0.01143 290.4 32.7
320(10) 0.01104 290.4 33.4
337(10) 0.01011 290.4 34.1
328(10) 0.01064 290.4 34.9
324(10) 0.01082 290.4 35.7
322(9) 0.01178 290.5 36.6
330(10) 0.01050 290.5 37.7
334(10) 0.00975 290.5 38.8
353(10) 0.00959 290.5 40.0
334(9) 0.01112 290.5 41.3
325(9) 0.01157 290.5 42.7
351(10) 0.00982 290.5 44.3
340(10) 0.00953 290.5 45.9
333(10) 0.01025 290.5 47.8
338(10) 0.01055 290.5 49.8
349(10) 0.01057 290.5 51.9
346(10) 0.00971 290.5 54.3
337(10) 0.00969 290.5 56.8
367(10) 0.00936 290.5 59.6
361(10) 0.01014 290.5 62.5
352(10) 0.01067 290.5 65.7
355(10) 0.00948 290.5 69.1
349(11) 0.00889 290.5 72.7
387(11) 0.00860 290.5 76.6
374(10) 0.01001 290.5 80.7
402(10) 0.00923 290.5 85.1
387(11) 0.00894 290.5 89.6
406(11) 0.00818 290.5 94.4
413(11) 0.00836 290.5 99.4
417(11) 0.00878 290.5 104.4
425(11) 0.00859 290.5 109.6
426(11) 0.00812 290.5 114.8
440(12) 0.00749 290.5 120.0
407(11) 0.00866 290.5 124.9
424(11) 0.00874 290.5 129.7
424(11) 0.00851 290.5 134.0
434(11) 0.00806 290.5 137.9
459(12) 0.00714 290.5 141.3
438(11) 0.00781 290.5 144.0
438(11) 0.00850 290.5 146.2
478(12) 0.00749 290.5 147.8
461(12) 0.00736 290.5 148.9
468(12) 0.00723 290.5 149.6
467(11) 0.00765 290.5 150.1
458(11) 0.00813 290.5 150.5
453(11) 0.00804 290.5 151.2
453(12) 0.00735 290.5 152.3
441(12) 0.00750 290.5 154.0
433(11) 0.00826 290.5 156.5
454(11) 0.00824 290.5 160.1
439(11) 0.00783 290.5 164.9
433(11) 0.00777 290.5 171.1
459(12) 0.00745 290.6 178.7
448(11) 0.00823 290.6 187.8
461(11) 0.00805 290.6 198.3
491(12) 0.00686 290.6 210.0
507(12) 0.00651 290.6 222.2
512(12) 0.00698 290.6 234.2
580(13) 0.00627 290.6 244.8
564(12) 0.00659 290.6 252.8
529(12) 0.00661 290.6 257.1
537(13) 0.00623 290.6 257.1
510(12) 0.00691 290.6 253.2
499(12) 0.00727 290.6 246.2
525(12) 0.00709 290.6 237.4
493(12) 0.00711 290.6 228.1
498(12) 0.00661 290.6 219.3
483(12) 0.00710 290.6 211.5
492(12) 0.00754 290.6 205.1
450(11) 0.00832 290.6 200.4
487(12) 0.00712 290.6 197.3
506(13) 0.00629 290.6 195.9
501(12) 0.00695 290.6 196.0
498(12) 0.00748 290.6 197.5
489(12) 0.00747 290.6 200.4
489(12) 0.00701 290.6 204.3
501(12) 0.00668 290.6 209.3
518(12) 0.00683 290.6 215.0
518(12) 0.00722 290.6 221.5
535(12) 0.00684 290.6 228.4
574(13) 0.00609 290.6 235.6
577(13) 0.00572 290.6 243.0
577(13) 0.00596 290.6 250.3
599(13) 0.00622 290.6 257.4
538(12) 0.00671 290.6 263.9
544(13) 0.00635 290.6 269.8
563(13) 0.00584 290.6 274.8
563(13) 0.00616 290.6 278.8
562(12) 0.00665 290.6 281.5
563(12) 0.00651 290.6 282.9
587(13) 0.00573 290.6 282.8
542(13) 0.00630 290.6 281.3
541(13) 0.00637 290.6 278.4
547(12) 0.00681 290.6 274.1
531(12) 0.00676 290.6 268.5
539(13) 0.00635 290.6 261.7
548(13) 0.00616 290.6 253.9
520(12) 0.00684 290.6 245.2
487(11) 0.00763 290.6 235.7
506(12) 0.00682 290.7 225.8
496(12) 0.00667 290.7 215.5
494(12) 0.00685 290.7 205.2
470(11) 0.00757 290.7 194.9
428(11) 0.00862 290.7 184.8
428(11) 0.00792 290.7 174.9
455(12) 0.00728 290.7 165.4
440(11) 0.00757 290.7 156.2
425(11) 0.00814 290.7 147.5
436(11) 0.00848 290.7 139.2
407(11) 0.00828 290.7 131.3
407(11) 0.00807 290.7 123.9
399(11) 0.00870 290.7 116.9
396(10) 0.00929 290.7 110.3
407(10) 0.00921 290.7 104.1
381(10) 0.00927 290.7 98.4
414(11) 0.00764 290.7 93.0
370(10) 0.00939 290.7 87.9
380(10) 0.00958 290.7 83.2
376(10) 0.00975 290.7 78.8
380(10) 0.00920 290.7 74.8
366(11) 0.00853 290.7 71.0
351(10) 0.00997 290.7 67.5
356(10) 0.01025 290.7 64.2
362(10) 0.01007 290.7 61.2
359(10) 0.00948 290.7 58.4
357(11) 0.00876 290.7 55.8
339(10) 0.01024 290.7 53.4
353(10) 0.01051 290.7 51.2
391(10) 0.00942 290.7 49.1
351(10) 0.01000 290.7 47.2
365(11) 0.00906 290.7 45.4
378(11) 0.00906 290.7 43.7
345(10) 0.01072 290.7 42.2
371(10) 0.00990 290.7 40.8
385(11) 0.00881 290.7 39.4
365(11) 0.00882 290.7 38.2
336(10) 0.01006 290.7 37.0
364(10) 0.01012 290.7 35.9
347(10) 0.01012 290.7 34.8
321(10) 0.01086 290.7 33.8
314(10) 0.01039 290.7 32.9
336(10) 0.01008 290.7 32.0
382(10) 0.00971 290.7 31.2
349(10) 0.01005 290.7 30.4
338(10) 0.01024 290.7 29.7
334(10) 0.01065 290.7 28.9
354(10) 0.00987 290.8 28.3
333(9) 0.01120 290.8 27.6
328(10) 0.01098 290.8 27.0
325(10) 0.01059 290.8 26.4
330(10) 0.01028 290.8 25.8
313(9) 0.01137 290.8 25.2
340(10) 0.01096 290.8 24.7
314(9) 0.01118 290.8 24.2
303(9) 0.01123 290.8 23.7
307(9) 0.01151 290.8 23.2
328(9) 0.01124 290.8 22.7
315(9) 0.01175 290.8 22.3
325(10) 0.01075 290.8 21.8
318(10) 0.01093 290.8 21.4
324(10) 0.01094 290.8 21.0
306(9) 0.01215 290.8 20.6
316(9) 0.01179 290.8 20.3
287(9) 0.01203 290.8 19.9
326(10) 0.00979 290.8 19.6
313(10) 0.01067 290.8 19.3
311(9) 0.01191 290.8 19.0
331(9) 0.01125 290.8 18.7
318(9) 0.01114 290.8 18.4
323(10) 0.01007 290.8 18.2
306(9) 0.01115 290.8 17.9
324(9) 0.01149 290.8 17.7
311(9) 0.01199 290.8 17.5
304(9) 0.01131 290.8 17.3
313(10) 0.01005 290.8 17.2
310(9) 0.01114 290.8 17.0
302(9) 0.01216 290.8 16.9
290(9) 0.01291 290.8 16.8
299(9) 0.01167 290.8 16.8
310(10) 0.01094 290.8 16.7
310(9) 0.01135 290.8 16.7
301(9) 0.01235 290.8 16.7
313(9) 0.01190 290.8 16.8
323(10) 0.01027 290.8 16.9
298(9) 0.01125 290.8 17.0
318(10) 0.01065 290.8 17.2
299(9) 0.01239 290.8 17.4
302(9) 0.01193 290.8 17.7
311(10) 0.01072 290.8 18.0
304(10) 0.01103 290.8 18.4
321(10) 0.01054 290.8 18.8
313(9) 0.01199 290.8 19.3
317(9) 0.01142 290.8 19.9
310(9) 0.01109 290.8 20.6
301(9) 0.01139 290.9 21.3
346(10) 0.00984 290.9 22.1
320(9) 0.01157 290.9 23.0
343(10) 0.01018 290.9 24.0
313(9) 0.01121 290.9 25.0
318(9) 0.01111 290.9 26.1
320(9) 0.01119 290.9 27.3
323(9) 0.01161 290.9 28.5
328(10) 0.01056 290.9 29.7
304(9) 0.01161 290.9 30.9
322(10) 0.01039 290.9 32.1
344(10) 0.01024 290.9 33.2
342(10) 0.01084 290.9 34.2
325(10) 0.01076 290.9 35.0
304(9) 0.01154 290.9 35.6
344(10) 0.01019 290.9 35.9
344(10) 0.01084 290.9 35.9
334(9) 0.01112 290.9 35.7
336(10) 0.01025 290.9 35.2
316(10) 0.01080 290.9 34.4
353(10) 0.00969 290.9 33.4
310(9) 0.01182 290.9 32.3
327(9) 0.01132 290.9 31.0
340(10) 0.01004 290.9 29.6
339(10) 0.00960 290.9 28.2
325(10) 0.01071 290.9 26.8
294(9) 0.01256 290.9 25.4
315(9) 0.01173 290.9 24.0
321(10) 0.01101 290.9 22.7
326(10) 0.00944 290.9 21.5
297(9) 0.01151 290.9 20.3
311(9) 0.01202 290.9 19.2
293(9) 0.01257 290.9 18.2
332(10) 0.01040 290.9 17.3
325(10) 0.00999 290.9 16.4
304(9) 0.01144 290.9 15.6
297(9) 0.01244 290.9 14.9
304(9) 0.01203 290.9 14.2
307(9) 0.01144 290.9 13.6
326(10) 0.00989 290.9 13.1
323(10) 0.01074 290.9 12.6
308(9) 0.01197 290.9 12.1
306(9) 0.01184 290.9 11.7
312(9) 0.01125 290.9 11.3
290(9) 0.01163 290.9 11.0
305(9) 0.01130 290.9 10.7
304(9) 0.01229 290.9 10.4
309(9) 0.01176 291.0 10.2
298(9) 0.01164 291.0 10.0
300(10) 0.01090 291.0 9.8
304(9) 0.01147 291.0 9.6
282(9) 0.01324 291.0 9.4
290(9) 0.01220 291.0 9.3
315(10) 0.01083 291.0 9.2
305(9) 0.01130 291.0 9.0
287(9) 0.01241 291.0 8.9
299(9) 0.01240 291.0 8.9
304(9) 0.01162 291.0 8.8
325(10) 0.01010 291.0 8.7
305(10) 0.01103 291.0 8.7
303(9) 0.01139 291.0 8.6
300(9) 0.01227 291.0 8.6
278(9) 0.01288 291.0 8.6
286(9) 0.01249 291.0 8.6
309(9) 0.01136 291.0 8.6
315(9) 0.01152 291.0 8.6
319(9) 0.01152 291.0 8.7
298(9) 0.01197 291.0 8.7
322(10) 0.01016 291.0 8.8
340(10) 0.01013 291.0 8.9
321(9) 0.01130 291.0 9.0
291(9) 0.01271 291.0 9.2
285(9) 0.01228 291.0 9.3
301(10) 0.01105 291.0 9.5
298(9) 0.01160 291.0 9.7
295(9) 0.01256 291.0 9.9
332(9) 0.01113 291.0 10.2
296(9) 0.01190 291.0 10.5
317(10) 0.01003 291.0 10.8
305(9) 0.01140 291.0 11.2
310(9) 0.01171 291.0 11.6
284(9) 0.01315 291.0 12.0
298(9) 0.01156 291.0 12.5
299(10) 0.01083 291.0 13.0
296(9) 0.01188 291.0 13.6
295(9) 0.01258 291.0 14.1
324(9) 0.01153 291.0 14.8
292(9) 0.01220 291.0 15.4
300(10) 0.01069 291.0 16.1
303(9) 0.01161 291.0 16.8
310(9) 0.01197 291.0 17.5
311(9) 0.01184 291.0 18.2
315(10) 0.01101 291.0 18.9
305(10) 0.01072 291.0 19.6
286(9) 0.01195 291.1 20.2
318(9) 0.01153 291.1 20.7
334(10) 0.01082 291.1 21.1
301(9) 0.01170 291.1 21.5
315(10) 0.01049 291.1 21.7
310(9) 0.01112 291.1 21.7
331(9) 0.01123 291.1 21.6
306(9) 0.01216 291.1 21.4
319(10) 0.01056 291.1 21.1
306(10) 0.01082 291.1 20.6
293(9) 0.01169 291.1 20.0
314(9) 0.01190 291.1 19.4
307(9) 0.01114 291.1 18.7
323(10) 0.01025 291.1 17.9
295(9) 0.01199 291.1 17.2
274(9) 0.01371 291.1 16.4
283(9) 0.01329 291.1 15.6
304(9) 0.01123 291.1 14.9
304(10) 0.01099 291.1 14.2
282(9) 0.01238 291.1 13.5
290(9) 0.01261 291.1 12.8
287(9) 0.01282 291.1 12.2
307(10) 0.01107 291.1 11.6
289(9) 0.01126 291.1 11.1
280(9) 0.01254 291.1 10.6
308(9) 0.01184 291.1 10.1
276(9) 0.01353 291.1 9.7
305(10) 0.01106 291.1 9.3
308(10) 0.01054 291.1 8.9
297(9) 0.01207 291.1 8.6
296(9) 0.01235 291.1 8.3
305(9) 0.01222 291.1 8.0
299(9) 0.01185 291.1 7.7
308(10) 0.01034 291.1 7.5
301(9) 0.01139 291.1 7.2
283(9) 0.01290 291.1 7.0
276(9) 0.01372 291.1 6.9
317(10) 0.01046 291.1 6.7
301(10) 0.01095 291.1 6.5
303(9) 0.01165 291.1 6.4
308(9) 0.01193 291.1 6.3
299(9) 0.01203 291.1 6.2
292(9) 0.01199 291.1 6.0
288(9) 0.01171 291.1 6.0
303(9) 0.01144 291.1 5.9
298(9) 0.01243 291.1 5.8
296(9) 0.01223 291.1 5.7
301(10) 0.01088 291.2 5.6
286(9) 0.01179 291.2 5.6
298(9) 0.01144 291.2 5.5
304(9) 0.01220 291.2 5.4
306(9) 0.01185 291.2 5.4
304(9) 0.01179 291.2 5.3
302(9) 0.01115 291.2 5.3
293(9) 0.01197 291.2 5.2
296(9) 0.01255 291.2 5.2
305(9) 0.01158 291.2 5.2
299(9) 0.01130 291.2 5.1
305(10) 0.01084 291.2 5.1
297(9) 0.01171 291.2 5.1
271(9) 0.01373 291.2 5.1
293(9) 0.01221 291.2 5.0
295(9) 0.01170 291.2 5.0
279(9) 0.01236 291.2 5.0
308(9) 0.01137 291.2 5.0
315(9) 0.01183 291.2 5.0
301(9) 0.01180 291.2 4.9
302(9) 0.01145 291.2 4.9
319(10) 0.01077 291.2 4.9
316(9) 0.01148 291.2 4.9
295(9) 0.01267 291.2 4.9
289(9) 0.01174 291.2 4.9
289(9) 0.01128 291.2 4.9
306(9) 0.01117 291.2 4.9
288(9) 0.01286 291.2 4.9
278(9) 0.01339 291.2 4.9
279(9) 0.01254 291.2 4.9
288(9) 0.01126 291.2 4.9
293(9) 0.01177 291.2 4.9
294(9) 0.01262 291.2 4.9
311(9) 0.01191 291.2 4.9
318(10) 0.01057 291.2 5.0
296(9) 0.01126 291.2 5.0
295(9) 0.01182 291.2 5.0
307(9) 0.01205 291.2 5.0
310(9) 0.01189 291.2 5.0
291(9) 0.01176 291.2 5.0
289(9) 0.01125 291.2 5.1
305(9) 0.01166 291.2 5.1
302(9) 0.01208 291.2 5.1
274(9) 0.01364 291.2 5.1
316(10) 0.01051 291.2 5.1
302(10) 0.01084 291.2 5.2
286(9) 0.01241 291.2 5.2
294(9) 0.01263 291.1 5.2
296(9) 0.01243 291.1 5.3
294(9) 0.01186 291.1 5.3
270(9) 0.01276 291.1 5.3
310(10) 0.01107 291.0 5.4
279(9) 0.01308 291.0 5.4
291(9) 0.01271 291.0 5.5
297(9) 0.01156 291.0 5.5
282(9) 0.01178 290.9 5.6
295(9) 0.01129 290.9 5.6
269(9) 0.01372 290.9 5.7
289(9) 0.01245 290.9 5.7
288(9) 0.01189 290.8 5.8
296(9) 0.01137 290.8 5.8
304(9) 0.01152 290.8 5.9
298(9) 0.01261 290.8 6.0
296(9) 0.01201 290.7 6.0
293(9) 0.01143 290.7 6.1
320(10) 0.01035 290.7 6.2
291(9) 0.01208 290.7 6.3
307(9) 0.01217 290.6 6.3
310(9) 0.01120 290.6 6.4
302(9) 0.01131 290.6 6.5
306(10) 0.01079 290.6 6.6
290(9) 0.01240 290.5 6.7
303(9) 0.01209 290.5 6.8
306(9) 0.01126 290.5 6.9
293(9) 0.01170 290.5 7.0
327(10) 0.01021 290.4 7.1
300(9) 0.01203 290.4 7.3
286(9) 0.01311 290.4 7.4
270(9) 0.01316 290.4 7.5
297(10) 0.01095 290.4 7.7
297(9) 0.01140 290.3 7.8
299(9) 0.01193 290.3 8.0
279(9) 0.01350 290.3 8.2
316(10) 0.01076 290.3 8.3
307(10) 0.01075 290.2 8.5
308(9) 0.01142 290.2 8.7
303(9) 0.01211 290.2 8.9
287(9) 0.01305 290.2 9.1
310(10) 0.01092 290.1 9.4
302(10) 0.01070 290.1 9.6
321(10) 0.01064 290.1 9.9
311(9) 0.01178 290.1 10.1
325(9) 0.01132 290.0 10.4
309(9) 0.01138 290.0 10.7
308(10) 0.01062 290.0 11.1
293(9) 0.01199 290.0 11.4
328(9) 0.01120 289.9 11.8
327(9) 0.01115 289.9 12.2
300(9) 0.01149 289.9 12.7
315(10) 0.01024 289.9 13.1
305(9) 0.01140 289.8 13.6
312(9) 0.01188 289.8 14.2
308(9) 0.01194 289.8 14.8
304(9) 0.01136 289.8 15.4
319(10) 0.01019 289.7 16.1
319(10) 0.01075 289.7 16.9
307(9) 0.01215 289.7 17.7
312(9) 0.01147 289.7 18.6
311(9) 0.01122 289.6 19.6
304(9) 0.01164 289.6 20.7
334(10) 0.01019 289.6 21.9
317(9) 0.01170 289.6 23.2
317(9) 0.01154 289.5 24.6
329(10) 0.01054 289.5 26.1
338(10) 0.01007 289.5 27.8
339(10) 0.01027 289.5 29.6
310(9) 0.01205 289.4 31.6
329(10) 0.01078 289.4 33.7
355(10) 0.00960 289.4 36.0
331(10) 0.01072 289.4 38.4
347(10) 0.01024 289.4 41.0
335(10) 0.01106 289.3 43.8
347(10) 0.00971 289.3 46.6
320(10) 0.01050 289.3 49.6
337(10) 0.01031 289.3 52.6
335(10) 0.01078 289.2 55.6
341(10) 0.01083 289.2 58.6
327(10) 0.01078 289.2 61.4
354(10) 0.00942 289.2 63.9
347(10) 0.01015 289.1 66.1
363(10) 0.01007 289.1 67.9
368(10) 0.01009 289.1 69.2
370(10) 0.00925 289.1 69.8
357(11) 0.00899 289.0 69.9
343(10) 0.01003 289.0 69.3
314(9) 0.01178 289.0 68.2
334(10) 0.01101 289.0 66.7
362(10) 0.00932 288.9 64.8
355(11) 0.00900 288.9 62.5
358(10) 0.00963 288.9 60.1
354(10) 0.01048 288.9 57.6
349(10) 0.01069 288.8 55.1
334(10) 0.01026 288.8 52.6
372(11) 0.00854 288.8 50.1
359(10) 0.00983 288.8 47.8
347(10) 0.01084 288.7 45.5
349(10) 0.01057 288.7 43.4
331(10) 0.01061 288.7 41.4
350(10) 0.00924 288.7 39.6
343(10) 0.00988 288.6 37.9
334(10) 0.01098 288.6 36.3
341(10) 0.01078 288.6 34.8
348(10) 0.00976 288.6 33.5
338(10) 0.00979 288.5 32.3
327(10) 0.01051 288.5 31.2
326(9) 0.01140 288.5 30.2
331(10) 0.01092 288.5 29.4
327(10) 0.01045 288.5 28.6
307(10) 0.01092 288.4 27.9
331(10) 0.01052 288.4 27.2
318(9) 0.01177 288.4 26.7
328(10) 0.01077 288.4 26.2
300(9) 0.01177 288.3 25.8
320(10) 0.01032 288.3 25.4
309(10) 0.01092 288.3 25.1
303(9) 0.01221 288.3 24.8
326(10) 0.01086 288.2 24.6
308(10) 0.01108 288.2 24.4
304(9) 0.01122 288.2 24.3
283(9) 0.01222 288.2 24.2
314(9) 0.01190 288.1 24.2
312(9) 0.01121 288.1 24.1
316(10) 0.01038 288.1 24.1
312(9) 0.01112 288.1 24.2
333(10) 0.01054 288.0 24.3
310(9) 0.01202 288.0 24.4
284(9) 0.01247 288.0 24.5
331(10) 0.01012 288.0 24.7
322(10) 0.01092 287.9 24.8
318(9) 0.01149 287.9 25.1
328(9) 0.01133 287.9 25.3
331(10) 0.01076 287.9 25.6
348(10) 0.00938 287.8 25.9
312(9) 0.01115 287.8 26.2
302(9) 0.01206 287.8 26.6
303(9) 0.01244 287.8 27.1
317(10) 0.01096 287.7 27.6
310(10) 0.01040 287.7 28.2
329(10) 0.01036 287.7 28.8
326(9) 0.01119 287.7 29.6
338(10) 0.01105 287.6 30.4
356(10) 0.00980 287.6 31.5
357(11) 0.00900 287.6 32.7
361(10) 0.00944 287.6 34.1
331(9) 0.01135 287.5 35.8
349(10) 0.01059 287.5 37.8
332(10) 0.01050 287.5 40.0
368(11) 0.00881 287.5 42.6
366(10) 0.00947 287.5 45.5
362(10) 0.01013 287.4 48.7
364(10) 0.01027 287.4 52.0
382(11) 0.00894 287.4 55.4
394(11) 0.00828 287.4 58.6
388(11) 0.00895 287.3 61.1
378(10) 0.00987 287.3 62.8
379(10) 0.00928 287.3 63.3
367(10) 0.00940 287.3 62.7
406(11) 0.00802 287.2 60.9
379(10) 0.00931 287.2 58.5
362(10) 0.01021 287.2 55.6
374(10) 0.00957 287.2 52.7
360(10) 0.00948 287.1 49.9
362(10) 0.00952 287.1 47.4
369(10) 0.00941 287.1 45.1
323(9) 0.01155 287.1 43.2
346(10) 0.01011 287.0 41.6
321(10) 0.01104 287.0 40.3
349(10) 0.01017 287.0 39.2
361(10) 0.00979 287.0 38.4
353(10) 0.01055 286.9 37.7
335(10) 0.01078 286.9 37.2
331(10) 0.01013 286.9 36.9
329(10) 0.01010 286.9 36.7
331(10) 0.01090 286.8 36.5
312(9) 0.01179 286.8 36.4
333(10) 0.01041 286.8 36.3
330(10) 0.01028 286.8 36.3
312(9) 0.01165 286.7 36.2
317(9) 0.01137 286.7 36.2
334(9) 0.01118 286.7 36.2
335(10) 0.01045 286.7 36.2
339(10) 0.00971 286.6 36.1
327(10) 0.01046 286.6 36.1
357(10) 0.01019 286.6 36.0
340(10) 0.01095 286.6 35.9
319(9) 0.01138 286.6 35.8
303(9) 0.01141 286.5 35.6
319(9) 0.01110 286.5 35.5
335(10) 0.01101 286.5 35.3
310(9) 0.01195 286.5 35.0
331(10) 0.01036 286.4 34.8
335(10) 0.00939 286.4 34.5
306(9) 0.01143 286.4 34.2
321(9) 0.01141 286.4 33.9
308(9) 0.01211 286.3 33.5
310(9) 0.01140 286.3 33.2
313(10) 0.01056 286.3 32.8
306(9) 0.01187 286.3 32.4
336(9) 0.01117 286.2 32.0
312(9) 0.01159 286.2 31.7
293(9) 0.01168 286.2 31.3
305(10) 0.01073 286.2 30.9
312(10) 0.01103 286.1 30.5
308(9) 0.01215 286.1 30.1
304(9) 0.01205 286.1 29.8
335(10) 0.01044 286.1 29.4
308(9) 0.01130 286.0 29.1
320(10) 0.01066 286.0 28.7
310(9) 0.01202 286.0 28.4
341(10) 0.01033 286.0 28.1
304(9) 0.01158 285.9 27.8
314(10) 0.01087 285.9 27.6
325(10) 0.01088 285.9 27.4
309(9) 0.01193 285.9 27.2
305(9) 0.01168 285.8 27.0
327(10) 0.01033 285.8 26.8
321(10) 0.01097 285.8 26.7
326(10) 0.01062 285.8 26.5
313(9) 0.01195 285.7 26.4
300(9) 0.01191 285.7 26.3
310(10) 0.01083 285.7 26.3
319(10) 0.01077 285.7 26.2
305(9) 0.01222 285.6 26.2
337(10) 0.01097 285.6 26.2
315(10) 0.01055 285.6 26.2
312(10) 0.01032 285.6 26.2
290(9) 0.01185 285.6 26.2
324(9) 0.01116 285.5 26.2
345(10) 0.01077 285.5 26.2
327(10) 0.01084 285.5 26.2
329(10) 0.00982 285.5 26.2
312(9) 0.01131 285.4 26.1
307(9) 0.01196 285.4 26.1
332(9) 0.01128 285.4 26.0
331(10) 0.01055 285.4 26.0
333(10) 0.00985 285.3 25.9
329(10) 0.01098 285.3 25.7
319(9) 0.01156 285.3 25.6
316(9) 0.01163 285.3 25.4
304(9) 0.01148 285.2 25.2
303(10) 0.01052 285.2 25.0
290(9) 0.01218 285.2 24.7
303(9) 0.01230 285.2 24.4
309(9) 0.01202 285.1 24.1
329(10) 0.01036 285.1 23.8
319(10) 0.01006 285.1 23.5
322(10) 0.01085 285.1 23.1
315(9) 0.01175 285.0 22.8
295(9) 0.01224 285.0 22.4
291(9) 0.01221 285.0 22.1
308(10) 0.01051 285.0 21.8
307(10) 0.01101 284.9 21.4
302(9) 0.01226 284.9 21.1
285(9) 0.01242 284.9 20.8
306(9) 0.01140 284.9 20.5
294(9) 0.01191 284.8 20.2
309(9) 0.01116 284.8 20.0
303(9) 0.01245 284.8 19.8
281(9) 0.01271 284.8 19.6
310(9) 0.01131 284.7 19.4
320(10) 0.01079 284.7 19.2
321(10) 0.01063 284.7 19.1
295(9) 0.01266 284.7 19.1
307(9) 0.01137 284.7 19.0
332(10) 0.00975 284.6 19.0
289(9) 0.01214 284.6 19.1
301(9) 0.01190 284.6 19.2
306(9) 0.01213 284.6 19.3
325(10) 0.01077 284.5 19.5
313(10) 0.01065 284.5 19.8
306(10) 0.01100 284.5 20.2
308(9) 0.01141 284.5 20.6
303(9) 0.01221 284.4 21.2
322(10) 0.01081 284.4 21.8
327(10) 0.01011 284.4 22.6
316(10) 0.01099 284.4 23.6
338(10) 0.01048 284.3 24.6
344(10) 0.01091 284.3 25.9
321(10) 0.01104 284.3 27.3
336(10) 0.00953 284.3 28.9
294(9) 0.01181 284.2 30.7
340(10) 0.01081 284.2 32.7
325(9) 0.01129 284.2 34.9
316(10) 0.01055 284.2 37.2
339(10) 0.00929 284.1 39.8
300(9) 0.01205 284.1 42.4
328(9) 0.01129 284.1 45.1
342(10) 0.01092 284.1 47.7
350(10) 0.01009 284.0 50.2
346(10) 0.00970 284.0 52.3
332(10) 0.01079 284.0 54.1
364(10) 0.01023 284.0 55.5
326(9) 0.01144 283.9 56.5
358(10) 0.00970 283.9 57.3
369(11) 0.00875 283.9 57.9
353(10) 0.00987 283.9 58.5
364(10) 0.01014 283.8 59.3
364(10) 0.00999 283.8 60.4
335(10) 0.01061 283.8 62.0
351(10) 0.00937 283.8 63.9
379(10) 0.00937 283.7 66.5
362(10) 0.01025 283.7 69.5
378(10) 0.00967 283.7 73.2
392(11) 0.00873 283.7 77.4
388(11) 0.00893 283.7 82.2
402(11) 0.00873 283.6 87.4
398(10) 0.00938 283.6 93.0
404(11) 0.00904 283.6 98.9
450(11) 0.00787 283.6 104.9
452(11) 0.00770 283.5 110.7
475(12) 0.00712 283.5 116.1
507(12) 0.00734 283.5 120.7
473(12) 0.00754 283.5 124.3
436(11) 0.00801 283.4 126.6
456(12) 0.00749 283.4 127.2
437(11) 0.00808 283.4 126.3
442(11) 0.00845 283.4 123.7
432(11) 0.00815 283.3 119.8
426(11) 0.00806 283.3 114.7
396(11) 0.00891 283.3 108.7
411(11) 0.00875 283.3 102.2
422(11) 0.00878 283.2 95.4
388(10) 0.00928 283.2 88.5
391(11) 0.00866 283.2 81.8
339(10) 0.01034 283.2 75.3
363(10) 0.00979 283.1 69.2
365(10) 0.01033 283.1 63.4
358(10) 0.00968 283.1 58.1
342(10) 0.01028 283.1 53.2
385(10) 0.00920 283.0 48.7
361(10) 0.01028 283.0 44.7
340(10) 0.01091 283.0 41.0
344(10) 0.01043 283.0 37.7
345(10) 0.00969 282.9 34.8
334(10) 0.00996 282.9 32.1
320(9) 0.01141 282.9 29.8
305(9) 0.01214 282.9 27.7
324(10) 0.01066 282.8 25.8
297(10) 0.01092 282.8 24.2
318(10) 0.01086 282.8 22.7
342(10) 0.01063 282.8 21.4
340(10) 0.01103 282.8 20.2
326(10) 0.01084 282.7 19.2
302(10) 0.01092 282.7 18.3
321(10) 0.01074 282.7 17.4
299(9) 0.01243 282.7 16.7
290(9) 0.01269 282.6 16.0
303(9) 0.01134 282.6 15.4
305(10) 0.01068 282.6 14.8
279(9) 0.01258 282.6 14.3
283(9) 0.01320 282.5 13.9
291(9) 0.01225 282.5 13.4
292(9) 0.01159 282.5 13.1
280(9) 0.01185 282.5 12.7
282(9) 0.01228 282.4 12.4
288(9) 0.01293 282.4 12.1
300(9) 0.01213 282.4 11.9
284(9) 0.01252 282.4 11.6
309(9) 0.01112 282.3 11.4
315(10) 0.01063 282.3 11.2
273(9) 0.01371 282.3 11.1
293(9) 0.01205 282.3 10.9
286(9) 0.01144 282.2 10.8
307(10) 0.01086 282.2 10.7
302(9) 0.01165 282.2 10.6
270(8) 0.01389 282.2 10.6
277(9) 0.01295 282.1 10.5
290(9) 0.01205 282.1 10.5
317(10) 0.01071 282.1 10.5
306(9) 0.01150 282.1 10.5
291(9) 0.01280 282.0 10.5
275(9) 0.01308 282.0 10.5
299(9) 0.01117 282.0 10.6
305(10) 0.01101 282.0 10.6
288(9) 0.01260 281.9 10.7
281(9) 0.01333 281.9 10.8
284(9) 0.01205 281.9 10.9
288(9) 0.01165 281.9 11.0
284(9) 0.01219 281.8 11.1
302(9) 0.01210 281.8 11.2
308(9) 0.01196 281.8 11.3
304(9) 0.01138 281.8 11.4
296(9) 0.01130 281.8 11.6
281(9) 0.01215 281.7 11.7
276(9) 0.01341 281.7 11.8
310(9) 0.01178 281.7 12.0
323(10) 0.01048 281.7 12.1
306(10) 0.01032 281.6 12.2
307(10) 0.01065 281.6 12.3
277(9) 0.01321 281.6 12.4
289(9) 0.01267 281.6 12.5
302(9) 0.01136 281.5 12.5
309(10) 0.01053 281.5 12.6
304(9) 0.01186 281.5 12.6
299(9) 0.01235 281.5 12.6
297(9) 0.01251 281.4 12.5
285(9) 0.01260 281.4 12.5
292(9) 0.01114 281.4 12.4
297(9) 0.01173 281.4 12.3
308(9) 0.01211 281.3 12.1
280(9) 0.01294 281.3 12.0
270(9) 0.01262 281.3 11.8
268(9) 0.01232 281.3 11.6
263(9) 0.01303 281.2 11.4
283(9) 0.01304 281.2 11.2
290(9) 0.01239 281.2 10.9
292(9) 0.01186 281.2 10.7
297(9) 0.01142 281.1 10.5
276(9) 0.01218 281.1 10.2
287(9) 0.01288 281.1 10.0
272(9) 0.01293 281.1 9.7
286(9) 0.01207 281.0 9.5
293(9) 0.01134 281.0 9.3
261(9) 0.01329 281.0 9.0
300(9) 0.01245 281.0 8.8
278(9) 0.01281 280.9 8.6
258(8) 0.01389 280.9 8.4
282(9) 0.01221 280.9 8.2
303(9) 0.01139 280.9 8.0
273(9) 0.01362 280.9 7.8
302(9) 0.01153 280.8 7.6
290(9) 0.01210 280.8 7.5
269(9) 0.01283 280.8 7.3
288(9) 0.01194 280.8 7.2
273(9) 0.01358 280.7 7.0
271(9) 0.01278 280.7 6.9
297(9) 0.01133 280.7 6.8
296(9) 0.01167 280.7 6.6
268(9) 0.01348 280.6 6.5
300(9) 0.01230 280.6 6.4
291(9) 0.01150 280.6 6.3
284(9) 0.01154 280.6 6.2
305(10) 0.01085 280.5 6.1
300(9) 0.01209 280.5 6.1
273(9) 0.01353 280.5 6.0
276(9) 0.01299 280.5 5.9
293(9) 0.01111 280.4 5.9
285(9) 0.01207 280.4 5.8
280(9) 0.01341 280.4 5.7
274(9) 0.01344 280.4 5.7
266(9) 0.01282 280.3 5.7
269(9) 0.01256 280.3 5.6
308(9) 0.01150 280.3 5.6
281(9) 0.01316 280.3 5.5
271(9) 0.01341 280.2 5.5
252(9) 0.01380 280.2 5.5
277(9) 0.01134 280.2 5.5
296(9) 0.01124 280.2 5.4
269(9) 0.01371 280.1 5.4
289(9) 0.01260 280.1 5.4
307(9) 0.01125 280.1 5.4
305(10) 0.01098 280.1 5.4
278(9) 0.01202 280.0 5.4
282(9) 0.01336 280.0 5.4
290(9) 0.01253 280.0 5.3
267(9) 0.01322 280.0 5.3
289(9) 0.01153 279.9 5.3
291(9) 0.01221 279.9 5.3
291(9) 0.01282 279.9 5.3
270(9) 0.01336 279.9 5.3
275(9) 0.01284 279.9 5.3
278(9) 0.01232 279.8 5.3
277(9) 0.01218 279.8 5.3
255(8) 0.01465 279.8 5.3
267(9) 0.01316 279.8 5.3
289(9) 0.01138 279.7 5.3
272(9) 0.01242 279.7 5.3
266(9) 0.01260 279.7 5.3
276(9) 0.01348 279.7 5.3
273(9) 0.01293 279.6 5.3
269(9) 0.01242 279.6 5.3
287(9) 0.01203 279.6 5.3
292(9) 0.01242 279.6 5.3
297(9) 0.01264 279.5 5.3
289(9) 0.01241 279.5 5.3
294(9) 0.01131 279.5 5.3
290(9) 0.01268 279.5 5.3
300(9) 0.01221 279.4 5.3
260(8) 0.01429 279.4 5.3
272(9) 0.01262 279.4 5.3
270(9) 0.01225 279.4 5.3
283(9) 0.01260 279.3 5.3
271(9) 0.01365 279.3 5.3
259(8) 0.01443 279.3 5.3
271(9) 0.01266 279.3 5.2
272(9) 0.01184 279.2 5.2
296(9) 0.01143 279.2 5.2
285(9) 0.01301 279.2 5.2
262(8) 0.01398 279.2 5.2
272(9) 0.01247 279.1 5.1
279(9) 0.01146 279.1 5.1
293(9) 0.01159 279.1 5.1
281(9) 0.01260 279.1 5.1
279(9) 0.01354 279.0 5.1
303(9) 0.01123 279.0 5.0
309(10) 0.01031 279.0 5.0
291(9) 0.01175 279.0 5.0
254(8) 0.01460 279.0 4.9
292(9) 0.01247 278.9 4.9
296(9) 0.01177 278.9 4.9
268(9) 0.01250 278.9 4.8
281(9) 0.01198 278.9 4.8
274(9) 0.01354 278.8 4.8
277(9) 0.01326 278.8 4.8
264(9) 0.01296 278.8 4.7
266(9) 0.01232 278.8 4.7
271(9) 0.01230 278.7 4.7
273(9) 0.01371 278.7 4.6
312(9) 0.01166 278.7 4.6
291(9) 0.01143 278.7 4.5
283(9) 0.01188 278.7 4.5
281(9) 0.01193 278.7 4.5
268(8) 0.01395 278.6 4.4
266(9) 0.01321 278.6 4.4
299(9) 0.01130 278.6 4.4
285(9) 0.01202 278.6 4.3
279(9) 0.01243 278.6 4.3
267(8) 0.01410 278.6 4.3
268(9) 0.01312 278.5 4.2
308(9) 0.01120 278.5 4.2
287(9) 0.01225 278.5 4.2
301(9) 0.01166 278.5 4.2
291(9) 0.01283 278.5 4.1
263(9) 0.01360 278.5 4.1
286(9) 0.01179 278.5 4.1
282(9) 0.01216 278.4 4.0
276(9) 0.01307 278.4 4.0
282(9) 0.01303 278.4 4.0
268(9) 0.01314 278.4 4.0
274(9) 0.01167 278.4 3.9
274(9) 0.01234 278.4 3.9
271(9) 0.01357 278.3 3.9
284(9) 0.01308 278.3 3.8
262(9) 0.01278 278.3 3.8
273(9) 0.01166 278.3 3.8
280(9) 0.01258 278.3 3.8
311(9) 0.01164 278.3 3.8
307(9) 0.01216 278.2 3.7
283(9) 0.01271 278.2 3.7
264(9) 0.01260 278.2 3.7
276(9) 0.01274 278.2 3.7
274(9) 0.01358 278.2 3.7
276(9) 0.01349 278.2 3.6
286(9) 0.01220 278.2 3.6
269(9) 0.01163 278.1 3.6
266(9) 0.01336 278.1 3.6
287(9) 0.01290 278.1 3.6
292(9) 0.01243 278.1 3.6
270(9) 0.01320 278.1 3.5
282(9) 0.01160 278.1 3.5
285(9) 0.01202 278.0 3.5
284(9) 0.01299 278.0 3.5
266(8) 0.01386 278.0 3.5
263(9) 0.01334 278.0 3.5
268(9) 0.01259 278.0 3.5
259(9) 0.01335 278.0 3.5
299(9) 0.01239 277.9 3.5
275(9) 0.01337 277.9 3.5
273(9) 0.01234 277.9 3.4
264(9) 0.01245 277.9 3.4
256(9) 0.01323 277.9 3.4
286(9) 0.01302 277.9 3.4
251(8) 0.01446 277.8 3.4
277(9) 0.01221 277.8 3.4
290(9) 0.01191 277.8 3.4
296(9) 0.01188 277.8 3.4
276(9) 0.01349 277.8 3.4
272(9) 0.01311 277.8 3.4
296(9) 0.01176 277.8 3.4
288(9) 0.01167 277.7 3.4
293(9) 0.01192 277.7 3.4
278(9) 0.01336 277.7 3.4
294(9) 0.01166 277.7 3.4
296(9) 0.01129 277.7 3.4
289(9) 0.01143 277.7 3.4
266(9) 0.01359 277.6 3.4
274(9) 0.01359 277.6 3.5
290(9) 0.01241 277.6 3.5
282(9) 0.01197 277.6 3.5
265(9) 0.01352 277.6 3.5
284(9) 0.01276 277.6 3.5
293(9) 0.01286 277.5 3.5
286(9) 0.01211 277.5 3.5
278(9) 0.01184 277.5 3.5
271(9) 0.01296 277.5 3.5
266(8) 0.01400 277.5 3.6
263(8) 0.01404 277.5 3.6
288(9) 0.01171 277.4 3.6
279(9) 0.01110 277.4 3.6
291(9) 0.01154 277.4 3.6
248(8) 0.01479 277.4 3.6
297(9) 0.01240 277.4 3.7
279(9) 0.01249 277.4 3.7
266(9) 0.01259 277.4 3.7
314(9) 0.01110 277.3 3.7
332(9) 0.01119 277.3 3.8
284(9) 0.01316 277.3 3.8
251(8) 0.01474 277.3 3.8
276(9) 0.01208 277.3 3.8
260(9) 0.01349 277.3 3.9
284(9) 0.01306 277.2 3.9
289(9) 0.01261 277.2 4.0
292(9) 0.01198 277.2 4.0
272(9) 0.01213 277.2 4.0
274(9) 0.01267 277.2 4.1
268(8) 0.01395 277.2 4.1
262(8) 0.01394 277.1 4.2
260(9) 0.01380 277.1 4.2
295(9) 0.01143 277.1 4.3
282(9) 0.01204 277.1 4.3
297(9) 0.01240 277.1 4.4
281(9) 0.01295 277.1 4.4
281(9) 0.01259 277.0 4.5
273(9) 0.01269 277.0 4.6
308(10) 0.01103 277.0 4.6
295(9) 0.01261 277.0 4.7
304(9) 0.01166 277.0 4.8
272(9) 0.01232 277.0 4.9
289(9) 0.01145 277.0 5.0
273(9) 0.01271 276.9 5.1
281(9) 0.01336 276.9 5.2
248(8) 0.01410 276.9 5.3
279(9) 0.01234 276.9 5.4
281(9) 0.01240 276.9 5.6
291(9) 0.01245 276.9 5.7
275(9) 0.01342 276.8 5.9
267(9) 0.01319 276.8 6.0
296(9) 0.01161 276.8 6.2
284(9) 0.01211 276.8 6.5
271(9) 0.01375 276.8 6.7
262(8) 0.01415 276.8 7.0
263(9) 0.01324 276.7 7.3
285(9) 0.01134 276.7 7.7
292(9) 0.01174 276.7 8.1
276(9) 0.01326 276.7 8.6
281(9) 0.01338 276.7 9.2
272(9) 0.01283 276.7 9.9
287(9) 0.01123 276.6 10.7
286(9) 0.01201 276.6 11.6
286(9) 0.01296 276.6 12.7
293(9) 0.01250 276.6 13.9
293(9) 0.01159 276.6 15.3
295(10) 0.01105 276.6 16.8
277(9) 0.01271 276.6 18.5
290(9) 0.01276 276.5 20.3
305(9) 0.01196 276.5 22.1
316(9) 0.01122 276.5 24.0
305(10) 0.01049 276.5 25.9
316(10) 0.01094 276.5 27.5
296(9) 0.01249 276.5 28.7
304(9) 0.01190 276.4 29.5
299(9) 0.01164 276.4 29.6
300(9) 0.01115 276.4 29.2
291(9) 0.01206 276.4 28.2
311(9) 0.01209 276.4 26.8
329(9) 0.01126 276.4 25.2
295(9) 0.01199 276.3 23.5
282(9) 0.01215 276.3 21.7
270(9) 0.01291 276.3 20.1
273(9) 0.01363 276.3 18.5
258(8) 0.01421 276.3 17.1
296(10) 0.01062 276.3 15.9
271(9) 0.01286 276.3 14.8
302(9) 0.01137 276.2 13.9
290(9) 0.01285 276.2 13.1
289(9) 0.01146 276.2 12.5
291(9) 0.01129 276.2 12.0
304(10) 0.01092 276.2 11.6
281(9) 0.01292 276.2 11.2
283(9) 0.01303 276.1 11.0
283(9) 0.01268 276.1 10.8
280(9) 0.01267 276.1 10.7
289(9) 0.01211 276.1 10.7
291(9) 0.01191 276.1 10.6
293(9) 0.01273 276.1 10.7
279(9) 0.01247 276.0 10.7
293(9) 0.01139 276.0 10.8
304(9) 0.01129 276.0 11.0
284(9) 0.01286 276.0 11.2
278(9) 0.01344 276.0 11.4
280(9) 0.01233 276.0 11.6
279(9) 0.01210 275.9 11.9
281(9) 0.01264 275.9 12.3
254(8) 0.01425 275.9 12.6
276(9) 0.01368 275.9 13.0
274(9) 0.01309 275.9 13.5
295(10) 0.01102 275.9 14.0
304(9) 0.01144 275.9 14.6
283(9) 0.01302 275.8 15.2
278(9) 0.01347 275.8 15.9
279(9) 0.01285 275.8 16.6
294(9) 0.01128 275.8 17.4
303(9) 0.01153 275.8 18.3
276(9) 0.01322 275.8 19.2
298(9) 0.01235 275.7 20.1
278(9) 0.01244 275.7 21.1
298(10) 0.01085 275.7 22.1
286(9) 0.01214 275.7 23.2
291(9) 0.01280 275.7 24.2
301(9) 0.01205 275.7 25.2
313(9) 0.01109 275.6 26.1
317(10) 0.01025 275.6 26.9
290(9) 0.01258 275.6 27.6
302(9) 0.01230 275.6 28.1
330(10) 0.01104 275.6 28.5
313(9) 0.01156 275.6 28.7
300(9) 0.01127 275.5 28.7
298(9) 0.01163 275.5 28.6
289(9) 0.01265 275.5 28.4
309(9) 0.01199 275.5 28.1
292(9) 0.01180 275.5 27.8
297(10) 0.01101 275.5 27.4
293(9) 0.01209 275.5 27.1
310(9) 0.01192 275.4 26.8
293(9) 0.01256 275.4 26.6
304(9) 0.01114 275.4 26.5
321(10) 0.01030 275.4 26.4
270(9) 0.01324 275.4 26.5
281(9) 0.01316 275.4 26.6
305(9) 0.01173 275.3 26.8
306(10) 0.01096 275.3 27.2
284(9) 0.01179 275.3 27.6
296(9) 0.01196 275.3 28.1
276(9) 0.01356 275.3 28.8
279(9) 0.01253 275.3 29.5
297(9) 0.01180 275.2 30.4
311(9) 0.01131 275.2 31.4
287(9) 0.01287 275.2 32.5
288(9) 0.01294 275.2 33.7
291(9) 0.01151 275.2 35.0
299(9) 0.01139 275.2 36.4
315(9) 0.01129 275.1 37.9
316(9) 0.01175 275.1 39.6
303(9) 0.01231 275.1 41.3
344(10) 0.00992 275.1 43.2
310(10) 0.01067 275.1 45.1
303(9) 0.01158 275.1 47.2
342(10) 0.01071 275.1 49.3
344(10) 0.01074 275.0 51.5
335(10) 0.01073 275.0 53.8
380(11) 0.00851 275.0 56.2
359(10) 0.00959 275.0 58.6
350(10) 0.01049 275.0 61.1
323(9) 0.01149 275.0 63.5
340(10) 0.01045 274.9 65.9
361(11) 0.00905 274.9 68.3
372(10) 0.00940 274.9 70.5
357(10) 0.01030 274.9 72.7
372(10) 0.00990 274.9 74.7
344(10) 0.01011 274.9 76.4
337(10) 0.00972 274.8 77.9
354(10) 0.00957 274.8 79.2
339(10) 0.01096 274.8 80.1
368(10) 0.00991 274.8 80.7
361(10) 0.00988 274.8 81.0
360(10) 0.00915 274.8 81.0
352(10) 0.01007 274.7 80.6
373(10) 0.01006 274.7 79.9
366(10) 0.01005 274.7 78.9
369(10) 0.00968 274.7 77.7
361(10) 0.00952 274.7 76.3
345(10) 0.01014 274.7 74.7
371(10) 0.01005 274.7 73.0
336(10) 0.01060 274.6 71.2
357(10) 0.00911 274.6 69.4
318(10) 0.01069 274.6 67.5
317(10) 0.01106 274.6 65.6
349(10) 0.01078 274.6 63.7
346(10) 0.01029 274.6 61.8
343(10) 0.01001 274.5 60.0
335(10) 0.00979 274.5 58.3
315(10) 0.01089 274.5 56.6
343(10) 0.01094 274.5 54.9
339(10) 0.01000 274.5 53.4
311(10) 0.01088 274.5 51.9
324(10) 0.01096 274.4 50.5
308(9) 0.01179 274.4 49.2
330(9) 0.01133 274.4 47.9
314(9) 0.01127 274.4 46.7
335(10) 0.01011 274.4 45.5
294(9) 0.01158 274.4 44.5
304(9) 0.01180 274.4 43.4
313(9) 0.01191 274.3 42.4
303(9) 0.01143 274.3 41.5
323(10) 0.00997 274.3 40.6
322(10) 0.01084 274.3 39.8
312(9) 0.01166 274.3 38.9
314(9) 0.01189 274.3 38.1
327(10) 0.01065 274.2 37.4
312(10) 0.01051 274.2 36.6
323(10) 0.01065 274.2 35.9
309(9) 0.01199 274.2 35.2
314(9) 0.01181 274.2 34.5
343(10) 0.00997 274.2 33.8
289(10) 0.01103 274.1 33.1
301(10) 0.01105 274.1 32.4
318(9) 0.01167 274.1 31.8
295(9) 0.01251 274.1 31.1
301(9) 0.01144 274.1 30.5
325(10) 0.01016 274.1 29.9
312(10) 0.01098 274.0 29.3
290(9) 0.01295 274.0 28.6
289(9) 0.01274 274.0 28.0
289(9) 0.01183 274.0 27.5
307(10) 0.01088 274.0 26.9
300(9) 0.01177 274.0 26.3
309(9) 0.01207 274.0 25.7
285(9) 0.01273 273.9 25.2
309(9) 0.01110 273.9 24.6
300(9) 0.01143 273.9 24.1
278(9) 0.01269 273.9 23.6
305(9) 0.01224 273.9 23.0
291(9) 0.01200 273.9 22.5
309(9) 0.01130 273.8 22.0
307(9) 0.01128 273.8 21.6
304(9) 0.01158 273.8 21.1
294(9) 0.01277 273.8 20.7
289(9) 0.01210 273.8 20.2
315(10) 0.01084 273.8 19.8
300(9) 0.01138 273.7 19.4
280(9) 0.01298 273.7 19.0
281(9) 0.01314 273.7 18.6
283(9) 0.01284 273.7 18.2
302(9) 0.01108 273.7 17.8
310(10) 0.01086 273.7 17.5
291(9) 0.01249 273.6 17.2
286(9) 0.01297 273.6 16.8
284(9) 0.01188 273.6 16.5
281(9) 0.01203 273.6 16.2
298(9) 0.01162 273.6 15.9
293(9) 0.01219 273.6 15.7
299(9) 0.01245 273.6 15.4
271(9) 0.01282 273.5 15.2
274(9) 0.01163 273.5 14.9
266(9) 0.01275 273.5 14.7
300(9) 0.01219 273.5 14.5
277(9) 0.01331 273.5 14.3
299(9) 0.01148 273.5 14.1
262(9) 0.01289 273.4 14.0
277(9) 0.01280 273.4 13.8
266(8) 0.01385 273.4 13.6
279(9) 0.01307 273.4 13.5
275(9) 0.01297 273.4 13.4
276(9) 0.01209 273.4 13.3
297(9) 0.01176 273.3 13.2
299(9) 0.01250 273.3 13.1
270(8) 0.01385 273.3 13.0
279(9) 0.01236 273.3 13.0
284(9) 0.01143 273.3 12.9
297(9) 0.01175 273.3 12.9
306(9) 0.01206 273.2 12.9
297(9) 0.01252 273.2 12.9
293(9) 0.01172 273.2 12.9
271(9) 0.01225 273.2 12.9
291(9) 0.01191 273.2 12.9
276(9) 0.01360 273.2 13.0
270(9) 0.01374 273.2 13.0
274(9) 0.01257 273.1 13.1
270(9) 0.01233 273.1 13.2
278(9) 0.01226 273.1 13.2
263(8) 0.01431 273.1 13.3
289(9) 0.01259 273.1 13.4
279(9) 0.01286 273.1 13.6
283(9) 0.01211 273.0 13.7
290(9) 0.01173 273.0 13.8
271(9) 0.01367 273.0 14.0
268(9) 0.01357 273.0 14.1
302(9) 0.01127 273.0 14.3
310(10) 0.01078 273.0 14.4
301(9) 0.01164 272.9 14.6
275(9) 0.01353 272.9 14.7
268(9) 0.01350 272.9 14.8
270(9) 0.01266 272.9 15.0
289(9) 0.01133 272.9 15.1
260(9) 0.01361 272.9 15.2
276(9) 0.01362 272.8 15.3
294(9) 0.01216 272.8 15.4
268(9) 0.01314 272.8 15.5
284(9) 0.01202 272.8 15.6
290(9) 0.01282 272.8 15.7
286(9) 0.01298 272.8 15.7
285(9) 0.01249 272.8 15.7
298(9) 0.01123 272.7 15.8
291(9) 0.01177 272.7 15.8
298(9) 0.01210 272.7 15.8
305(9) 0.01241 272.7 15.8
286(9) 0.01249 272.7 15.8
299(9) 0.01118 272.7 15.9
294(9) 0.01204 272.6 15.9
328(9) 0.01117 272.6 15.9
305(9) 0.01238 272.6 15.9
305(9) 0.01174 272.6 15.9
314(10) 0.01020 272.6 15.9
282(9) 0.01262 272.6 16.0
292(9) 0.01281 272.5 16.0
299(9) 0.01217 272.5 16.0
296(9) 0.01140 272.5 16.1
291(9) 0.01114 272.5 16.1
302(9) 0.01131 272.5 16.2
293(9) 0.01270 272.5 16.2
279(9) 0.01336 272.5 16.3
296(9) 0.01143 272.4 16.3
311(10) 0.01055 272.4 16.4
310(9) 0.01129 272.4 16.4
311(9) 0.01204 272.4 16.5
311(9) 0.01159 272.4 16.5
299(9) 0.01128 272.4 16.6
291(9) 0.01141 272.3 16.6
309(9) 0.01110 272.3 16.6
297(9) 0.01252 272.3 16.7
282(9) 0.01305 272.3 16.7
284(9) 0.01253 272.3 16.8
288(9) 0.01175 272.3 16.8
302(9) 0.01142 272.2 16.8
306(9) 0.01226 272.2 16.9
291(9) 0.01231 272.2 16.9
274(9) 0.01267 272.2 16.9
278(9) 0.01171 272.2 17.0
306(9) 0.01130 272.2 17.0
291(9) 0.01298 272.1 17.0
285(9) 0.01236 272.1 17.0
268(9) 0.01222 272.1 17.1
276(9) 0.01166 272.1 17.1
275(9) 0.01290 272.1 17.1
284(9) 0.01293 272.1 17.1
287(9) 0.01207 272.1 17.2
291(9) 0.01124 272.0 17.2
281(9) 0.01217 272.0 17.2
279(9) 0.01275 272.0 17.3
294(9) 0.01264 272.0 17.3
291(9) 0.01194 272.0 17.4
279(9) 0.01215 272.0 17.5
266(9) 0.01300 271.9 17.6
293(9) 0.01243 271.9 17.7
292(9) 0.01273 271.9 17.8
277(9) 0.01231 271.9 17.9
276(9) 0.01210 271.9 18.1
289(9) 0.01200 271.9 18.3
278(9) 0.01332 271.8 18.5
330(9) 0.01117 271.8 18.8
302(9) 0.01148 271.8 19.1
267(9) 0.01243 271.8 19.5
303(9) 0.01137 271.8 19.9
304(9) 0.01215 271.8 20.5
273(9) 0.01355 271.7 21.1
298(9) 0.01168 271.7 21.9
299(10) 0.01074 271.7 22.8
288(9) 0.01185 271.7 23.8
300(9) 0.01231 271.7 25.0
308(9) 0.01222 271.7 26.4
300(9) 0.01169 271.7 28.0
308(10) 0.01065 271.6 29.8
303(9) 0.01123 271.6 31.8
312(9) 0.01204 271.6 34.0
324(9) 0.01117 271.6 36.3
315(9) 0.01119 271.6 38.7
315(10) 0.01024 271.6 41.1
345(10) 0.01005 271.5 43.3
332(9) 0.01129 271.5 45.2
330(10) 0.01100 271.5 46.5
374(11) 0.00891 271.5 47.2
363(11) 0.00906 271.5 47.2
340(10) 0.00989 271.5 46.5
355(10) 0.01039 271.4 45.3
321(9) 0.01133 271.4 43.6
333(10) 0.01041 271.4 41.8
327(10) 0.01070 271.4 40.0
336(10) 0.01035 271.4 38.2
338(10) 0.01102 271.4 36.6
316(9) 0.01142 271.3 35.2
332(10) 0.01020 271.3 34.0
317(9) 0.01109 271.3 33.0
320(9) 0.01131 271.3 32.2
315(9) 0.01191 271.3 31.6
314(9) 0.01137 271.3 31.0
315(10) 0.01088 271.3 30.5
306(9) 0.01116 271.2 30.0
298(9) 0.01190 271.2 29.4
294(9) 0.01276 271.2 28.7
305(9) 0.01145 271.2 28.0
317(10) 0.01061 271.2 27.2
291(9) 0.01189 271.2 26.4
309(9) 0.01169 271.1 25.6
294(9) 0.01279 271.1 24.9
291(9) 0.01212 271.1 24.2
335(10) 0.00968 271.1 23.5
281(9) 0.01280 271.1 22.9
293(9) 0.01251 271.1 22.4
308(9) 0.01218 271.0 21.9
286(9) 0.01178 271.0 21.5
287(9) 0.01117 271.0 21.1
300(9) 0.01166 271.0 20.8
298(9) 0.01245 271.0 20.5
284(9) 0.01328 271.0 20.3
292(9) 0.01190 270.9 20.1
269(9) 0.01233 270.9 20.0
300(9) 0.01109 270.9 19.9
295(9) 0.01242 270.9 19.8
324(9) 0.01149 270.9 19.7
289(9) 0.01232 270.9 19.7
294(10) 0.01103 270.9 19.6
285(9) 0.01265 270.8 19.6
308(9) 0.01203 270.8 19.6
284(9) 0.01308 270.8 19.7
297(9) 0.01144 270.8 19.7
272(9) 0.01197 270.8 19.8
288(9) 0.01224 270.8 19.8
285(9) 0.01314 270.7 19.9
262(9) 0.01377 270.7 20.0
296(9) 0.01116 270.7 20.1
263(9) 0.01316 270.7 20.2
277(9) 0.01223 270.7 20.3
284(9) 0.01310 270.7 20.5
275(9) 0.01299 270.6 20.6
284(9) 0.01233 270.6 20.8
277(9) 0.01238 270.6 21.0
290(9) 0.01213 270.6 21.2
301(9) 0.01239 270.6 21.4
280(9) 0.01283 270.6 21.6
296(9) 0.01143 270.6 21.8
291(9) 0.01171 270.5 22.0
281(9) 0.01241 270.5 22.3
284(9) 0.01323 270.5 22.5
291(9) 0.01206 270.5 22.8
312(10) 0.01084 270.5 23.1
288(9) 0.01218 270.5 23.4
296(9) 0.01246 270.4 23.7
279(9) 0.01331 270.4 24.0
282(9) 0.01231 270.4 24.3
290(9) 0.01158 270.4 24.7
284(9) 0.01155 270.4 25.0
276(9) 0.01315 270.4 25.4
271(9) 0.01373 270.3 25.8
288(9) 0.01223 270.3 26.2
298(9) 0.01134 270.3 26.7
303(9) 0.01109 270.3 27.1
295(9) 0.01227 270.3 27.6
308(9) 0.01205 270.3 28.0
304(9) 0.01127 270.2 28.4
277(9) 0.01185 270.2 28.9
282(9) 0.01239 270.2 29.2
304(9) 0.01209 270.2 29.5
303(9) 0.01205 270.2 29.8
305(9) 0.01139 270.2 30.0
297(10) 0.01084 270.2 30.1
309(9) 0.01115 270.1 30.1
314(9) 0.01174 270.1 30.2
316(9) 0.01175 270.1 30.2
302(9) 0.01162 270.1 30.3
296(9) 0.01165 270.1 30.5
309(10) 0.01078 270.1 30.8
294(9) 0.01270 270.0 31.2
293(9) 0.01247 270.0 31.8
288(9) 0.01193 270.0 32.5
287(10) 0.01102 270.0 33.6
320(10) 0.01043 270.0 34.8
299(9) 0.01244 270.0 36.4
286(9) 0.01268 269.9 38.3
299(9) 0.01169 269.9 40.5
309(10) 0.01037 269.9 43.1
307(10) 0.01103 269.9 46.0
316(9) 0.01180 269.9 49.3
324(10) 0.01093 269.9 52.8
328(10) 0.01067 269.8 56.6
333(10) 0.00998 269.8 60.4
324(10) 0.01082 269.8 64.1
320(9) 0.01152 269.8 67.3
358(10) 0.01002 269.8 69.8
374(11) 0.00836 269.8 71.4
317(9) 0.01112 269.8 71.9
341(10) 0.01022 269.7 71.4
342(10) 0.01075 269.7 70.0
312(9) 0.01144 269.7 68.1
313(9) 0.01123 269.7 65.7
350(10) 0.00966 269.7 63.1
315(10) 0.01106 269.7 60.5
348(10) 0.01074 269.6 57.8
324(10) 0.01039 269.6 55.2
318(10) 0.01051 269.6 52.6
327(10) 0.01079 269.6 50.2
308(9) 0.01153 269.6 47.9
327(9) 0.01143 269.6 45.7
309(10) 0.01074 269.5 43.7
303(10) 0.01094 269.5 41.9
288(9) 0.01170 269.5 40.3
282(9) 0.01304 269.5 38.9
287(9) 0.01282 269.5 37.6
320(10) 0.01075 269.5 36.5
297(9) 0.01151 269.4 35.6
291(9) 0.01219 269.4 34.8
281(9) 0.01292 269.4 34.2
316(9) 0.01185 269.4 33.8
283(9) 0.01237 269.4 33.5
318(10) 0.00974 269.4 33.4
307(9) 0.01110 269.4 33.5
314(9) 0.01137 269.3 33.7
309(9) 0.01202 269.3 34.0
292(9) 0.01180 269.3 34.6
307(10) 0.01088 269.3 35.2
291(9) 0.01205 269.3 36.1
279(9) 0.01344 269.3 37.1
293(9) 0.01254 269.2 38.2
295(9) 0.01231 269.2 39.5
328(10) 0.01005 269.2 40.9
304(9) 0.01181 269.2 42.4
302(9) 0.01234 269.2 44.1
354(10) 0.01027 269.2 45.8
324(10) 0.01069 269.1 47.7
303(10) 0.01082 269.1 49.6
325(10) 0.01055 269.1 51.6
316(9) 0.01173 269.1 53.6
326(10) 0.01101 269.1 55.5
313(9) 0.01140 269.1 57.4
328(10) 0.01009 269.0 59.2
314(10) 0.01101 269.0 60.8
325(9) 0.01140 269.0 62.2
335(10) 0.01080 269.0 63.4
309(9) 0.01122 269.0 64.3
340(10) 0.00989 269.0 64.9
329(10) 0.01099 269.0 65.1
313(9) 0.01194 268.9 64.9
325(10) 0.01089 268.9 64.4
332(10) 0.01024 268.9 63.4
323(10) 0.01087 268.9 62.1
310(9) 0.01119 268.9 60.5
305(9) 0.01221 268.9 58.6
325(10) 0.01026 268.8 56.5
304(9) 0.01137 268.8 54.1
319(10) 0.01076 268.8 51.7
314(9) 0.01190 268.8 49.2
289(9) 0.01283 268.8 46.7
291(9) 0.01156 268.8 44.2
261(9) 0.01276 268.7 41.8
281(9) 0.01213 268.7 39.5
297(9) 0.01222 268.7 37.2
270(8) 0.01389 268.7 35.1
283(9) 0.01177 268.7 33.1
269(9) 0.01254 268.7 31.2
277(9) 0.01234 268.7 29.4
280(9) 0.01324 268.6 27.7
293(9) 0.01287 268.6 26.2
299(9) 0.01179 268.6 24.7
301(10) 0.01049 268.6 23.4
253(8) 0.01393 268.6 22.2
274(9) 0.01350 268.6 21.1
282(9) 0.01321 268.5 20.1
287(9) 0.01203 268.5 19.1
281(9) 0.01190 268.5 18.3
287(9) 0.01248 268.5 17.5
273(9) 0.01364 268.5 16.8
295(9) 0.01249 268.5 16.2
284(9) 0.01246 268.4 15.6
278(9) 0.01197 268.4 15.1
292(9) 0.01173 268.4 14.7
276(9) 0.01363 268.4 14.3
293(9) 0.01246 268.4 13.9
286(9) 0.01240 268.4 13.6
284(9) 0.01157 268.3 13.3
282(9) 0.01238 268.3 13.1
298(9) 0.01240 268.3 12.9
257(8) 0.01431 268.3 12.8
275(9) 0.01215 268.3 12.7
272(9) 0.01182 268.3 12.6
261(9) 0.01290 268.3 12.5
280(9) 0.01317 268.2 12.5
276(9) 0.01354 268.2 12.5
272(9) 0.01298 268.2 12.5
271(9) 0.01235 268.2 12.6
246(8) 0.01406 268.2 12.6
252(8) 0.01462 268.2 12.7
290(9) 0.01210 268.1 12.8
289(9) 0.01193 268.1 12.9
262(9) 0.01338 268.1 13.1
271(9) 0.01291 268.1 13.2
279(9) 0.01337 268.1 13.3
292(9) 0.01183 268.1 13.4
297(9) 0.01144 268.0 13.5
289(9) 0.01133 268.0 13.6
275(9) 0.01287 268.0 13.6
270(8) 0.01394 268.0 13.6
257(9) 0.01371 268.0 13.6
256(9) 0.01368 268.0 13.5
272(9) 0.01268 267.9 13.4
279(9) 0.01283 267.9 13.2
271(9) 0.01377 267.9 13.0
258(9) 0.01356 267.9 12.8
251(9) 0.01352 267.9 12.5
256(9) 0.01374 267.9 12.3
250(8) 0.01431 267.9 12.0
289(9) 0.01276 267.8 11.7
270(9) 0.01281 267.8 11.4
259(9) 0.01245 267.8 11.1
247(8) 0.01400 267.8 10.8
266(8) 0.01411 267.8 10.5
273(9) 0.01339 267.8 10.2
258(8) 0.01386 267.7 10.0
273(9) 0.01207 267.7 9.7
297(9) 0.01171 267.7 9.5
262(8) 0.01420 267.7 9.3
255(8) 0.01462 267.7 9.1
269(9) 0.01301 267.7 8.9
284(9) 0.01191 267.6 8.7
273(9) 0.01318 267.6 8.6
283(9) 0.01332 267.6 8.4
271(9) 0.01337 267.6 8.3
262(9) 0.01314 267.6 8.2
261(9) 0.01282 267.6 8.1
255(9) 0.01360 267.5 8.0
280(9) 0.01319 267.5 8.0
271(9) 0.01352 267.5 7.9
270(9) 0.01323 267.5 7.9
263(9) 0.01296 267.5 7.8
288(9) 0.01199 267.5 7.8
260(8) 0.01435 267.5 7.8
266(9) 0.01362 267.5 7.8
293(9) 0.01177 267.5 7.8
265(9) 0.01297 267.5 7.8
277(9) 0.01238 267.5 7.8
288(9) 0.01294 267.5 7.9
291(9) 0.01210 267.5 7.9
283(9) 0.01234 267.4 8.0
270(9) 0.01278 267.4 8.0
283(9) 0.01209 267.4 8.1
262(8) 0.01424 267.4 8.2
272(9) 0.01316 267.4 8.3
251(8) 0.01397 267.4 8.4
279(9) 0.01225 267.4 8.5
292(9) 0.01192 267.4 8.6
261(8) 0.01428 267.4 8.8
254(9) 0.01375 267.4 8.9
253(9) 0.01361 267.4 9.1
272(9) 0.01294 267.4 9.2
266(8) 0.01393 267.4 9.4
269(8) 0.01385 267.4 9.6
256(8) 0.01405 267.4 9.8
275(9) 0.01232 267.3 10.1
269(9) 0.01306 267.3 10.3
266(8) 0.01401 267.3 10.6
281(9) 0.01320 267.3 10.9
268(9) 0.01335 267.3 11.2
277(9) 0.01214 267.3 11.5
274(9) 0.01294 267.3 11.9
267(8) 0.01392 267.3 12.3
273(9) 0.01348 267.3 12.7
284(9) 0.01252 267.3 13.1
271(9) 0.01214 267.3 13.6
254(8) 0.01429 267.3 14.1
262(8) 0.01413 267.3 14.7
304(9) 0.01201 267.3 15.2
299(9) 0.01119 267.2 15.8
286(9) 0.01141 267.2 16.5
309(10) 0.01083 267.2 17.2
284(9) 0.01331 267.2 17.9
288(9) 0.01284 267.2 18.6
278(9) 0.01282 267.2 19.5
280(9) 0.01177 267.2 20.3
279(9) 0.01246 267.2 21.2
286(9) 0.01305 267.2 22.1
279(9) 0.01271 267.2 23.1
268(9) 0.01232 267.2 24.1
289(9) 0.01164 267.2 25.2
287(9) 0.01229 267.2 26.3
310(9) 0.01210 267.2 27.4
285(9) 0.01271 267.2 28.6
283(9) 0.01245 267.1 29.8
291(9) 0.01152 267.1 31.0
271(9) 0.01334 267.1 32.3
316(9) 0.01160 267.1 33.6
271(9) 0.01364 267.1 34.8
306(9) 0.01131 267.1 36.1
291(9) 0.01198 267.1 37.3
312(9) 0.01124 267.1 38.5
334(9) 0.01115 267.1 39.7
315(9) 0.01125 267.1 40.8
308(9) 0.01137 267.1 41.8
320(10) 0.01075 267.1 42.7
323(10) 0.01105 267.1 43.5
316(9) 0.01182 267.1 44.2
283(9) 0.01254 267.0 44.7
308(10) 0.01066 267.0 45.1
306(9) 0.01124 267.0 45.3
291(9) 0.01211 267.0 45.3
304(9) 0.01248 267.0 45.2
307(9) 0.01123 267.0 44.9
295(9) 0.01143 267.0 44.4
295(9) 0.01189 267.0 43.8
293(9) 0.01230 267.0 43.1
313(9) 0.01194 267.0 42.2
299(9) 0.01167 267.0 41.3
289(9) 0.01194 267.0 40.2
309(10) 0.01086 267.0 39.1
301(9) 0.01213 267.0 37.9
267(8) 0.01387 267.0 36.7
289(9) 0.01208 266.9 35.5
311(10) 0.01021 266.9 34.3
281(9) 0.01269 266.9 33.0
306(9) 0.01206 266.9 31.8
282(9) 0.01313 266.9 30.6
279(9) 0.01243 266.9 29.4
279(9) 0.01169 266.9 28.3
287(9) 0.01226 266.9 27.2
303(9) 0.01207 266.9 26.1
263(8) 0.01422 266.9 25.0
296(9) 0.01163 266.9 24.1
276(9) 0.01193 266.9 23.1
295(9) 0.01184 266.9 22.2
277(9) 0.01356 266.9 21.3
305(9) 0.01167 266.8 20.5
275(9) 0.01264 266.8 19.7
271(9) 0.01259 266.8 19.0
279(9) 0.01272 266.8 18.3
294(9) 0.01263 266.8 17.7
278(9) 0.01339 266.8 17.1
285(9) 0.01240 266.8 16.5
282(9) 0.01221 266.8 16.0
258(8) 0.01391 266.8 15.5
282(9) 0.01318 266.8 15.1
270(9) 0.01350 266.8 14.6
284(9) 0.01219 266.8 14.3
285(9) 0.01213 266.8 13.9
285(9) 0.01252 266.8 13.6
287(9) 0.01297 266.8 13.3
275(9) 0.01284 266.7 13.0
281(9) 0.01205 266.7 12.8
281(9) 0.01224 266.7 12.6
252(8) 0.01416 266.7 12.4
266(8) 0.01409 266.7 12.3
255(9) 0.01338 266.7 12.1
261(9) 0.01299 266.7 12.0
273(9) 0.01287 266.7 12.0
286(9) 0.01259 266.7 11.9
285(9) 0.01309 266.7 11.9
267(9) 0.01304 266.7 11.9
245(8) 0.01415 266.7 11.9
256(9) 0.01361 266.7 12.0
285(9) 0.01261 266.7 12.0
269(9) 0.01381 266.6 12.1
282(9) 0.01219 266.6 12.3
283(9) 0.01183 266.6 12.4
267(9) 0.01361 266.6 12.6
271(9) 0.01336 266.6 12.9
254(8) 0.01464 266.6 13.1
266(9) 0.01298 266.6 13.4
265(9) 0.01222 266.6 13.8
278(9) 0.01264 266.6 14.1
280(9) 0.01331 266.6 14.6
277(9) 0.01330 266.6 15.0
269(9) 0.01296 266.6 15.6
269(9) 0.01245 266.6 16.1
291(9) 0.01210 266.6 16.8
298(9) 0.01244 266.6 17.5
282(9) 0.01319 266.5 18.2
301(9) 0.01137 266.5 19.0
301(10) 0.01066 266.5 19.9
299(9) 0.01204 266.5 20.8
276(9) 0.01361 266.5 21.8
287(9) 0.01262 266.5 22.9
322(10) 0.01081 266.5 24.0
298(9) 0.01136 266.5 25.2
283(9) 0.01226 266.5 26.4
273(8) 0.01390 266.5 27.7
288(9) 0.01273 266.5 29.1
311(10) 0.01099 266.5 30.4
270(9) 0.01306 266.5 31.8
287(9) 0.01222 266.5 33.2
287(9) 0.01301 266.4 34.5
283(9) 0.01291 266.4 35.8
296(9) 0.01184 266.4 37.0
291(9) 0.01193 266.4 38.2
296(9) 0.01171 266.4 39.1
301(9) 0.01233 266.4 39.9
286(9) 0.01273 266.4 40.5
305(9) 0.01127 266.4 40.9
283(9) 0.01219 266.4 41.1
313(9) 0.01134 266.4 41.0
286(9) 0.01290 266.4 40.7
289(9) 0.01242 266.4 40.1
290(9) 0.01187 266.4 39.4
302(9) 0.01156 266.4 38.5
300(9) 0.01200 266.4 37.4
299(9) 0.01244 266.3 36.3
317(10) 0.01068 266.3 35.0
317(10) 0.01036 266.3 33.7
302(9) 0.01154 266.3 32.4
289(9) 0.01287 266.3 31.1
273(9) 0.01371 266.3 29.8
271(9) 0.01262 266.3 28.5
302(10) 0.01058 266.3 27.3
283(9) 0.01248 266.3 26.1
312(9) 0.01177 266.3 24.9
278(9) 0.01354 266.3 23.9
307(9) 0.01123 266.3 22.9
300(9) 0.01114 266.3 21.9
287(9) 0.01193 266.3 21.1
301(9) 0.01200 266.2 20.3
296(9) 0.01238 266.2 19.6
303(10) 0.01097 266.2 18.9
296(9) 0.01111 266.2 18.3
293(9) 0.01208 266.2 17.8
276(9) 0.01368 266.2 17.3
298(9) 0.01231 266.2 16.9
298(9) 0.01136 266.2 16.5
290(9) 0.01123 266.2 16.2
300(9) 0.01153 266.2 15.9
252(8) 0.01458 266.2 15.7
275(9) 0.01355 266.2 15.5
284(9) 0.01240 266.2 15.4
291(9) 0.01131 266.2 15.3
278(9) 0.01257 266.2 15.2
278(9) 0.01345 266.1 15.2
296(9) 0.01223 266.1 15.2
288(9) 0.01213 266.1 15.2
273(9) 0.01253 266.1 15.3
265(9) 0.01305 266.1 15.4
280(9) 0.01326 266.1 15.5
284(9) 0.01258 266.1 15.7
300(9) 0.01148 266.1 15.8
302(10) 0.01091 266.1 16.0
277(9) 0.01276 266.1 16.2
288(9) 0.01282 266.1 16.4
287(9) 0.01231 266.1 16.6
282(9) 0.01253 266.1 16.9
270(9) 0.01307 266.1 17.1
269(9) 0.01360 266.0 17.3
289(9) 0.01298 266.0 17.6
279(9) 0.01291 266.0 17.8
298(9) 0.01126 266.0 18.1
288(9) 0.01197 266.0 18.3
282(9) 0.01292 266.0 18.5
290(9) 0.01281 266.0 18.8
280(9) 0.01296 266.0 19.0
293(9) 0.01142 266.0 19.1
304(9) 0.01111 266.0 19.3
306(9) 0.01172 266.0 19.4
293(9) 0.01271 266.0 19.5
291(9) 0.01219 266.0 19.6
305(10) 0.01081 266.0 19.7
293(9) 0.01239 266.0 19.7
289(9) 0.01282 265.9 19.7
270(9) 0.01362 265.9 19.6
286(9) 0.01232 265.9 19.5
311(10) 0.01066 265.9 19.4
296(9) 0.01208 265.9 19.3
299(9) 0.01228 265.9 19.1
281(9) 0.01334 265.9 18.9
277(9) 0.01223 265.9 18.7
258(9) 0.01272 265.9 18.5
265(9) 0.01319 265.9 18.2
304(9) 0.01233 265.9 18.0
315(9) 0.01167 265.9 17.7
302(9) 0.01110 265.9 17.4
295(10) 0.01070 265.9 17.1
298(9) 0.01133 265.8 16.8
289(9) 0.01282 265.8 16.5
326(9) 0.01154 265.8 16.2
306(9) 0.01155 265.8 15.9
274(9) 0.01226 265.8 15.6
278(9) 0.01229 265.8 15.3
286(9) 0.01304 265.8 15.0
277(9) 0.01313 265.8 14.7
282(9) 0.01259 265.8 14.4
302(10) 0.01073 265.8 14.2
299(9) 0.01160 265.8 13.9
288(9) 0.01302 265.8 13.7
301(9) 0.01192 265.8 13.4
287(9) 0.01229 265.8 13.2
291(9) 0.01195 265.8 13.0
288(9) 0.01169 265.7 12.8
287(9) 0.01287 265.7 12.6
287(9) 0.01215 265.7 12.5
289(9) 0.01166 265.7 12.3
279(9) 0.01250 265.7 12.2
302(9) 0.01145 265.7 12.1
290(9) 0.01300 265.7 12.0
295(9) 0.01215 265.7 11.9
273(9) 0.01296 265.7 11.8
266(9) 0.01313 265.7 11.8
263(9) 0.01346 265.7 11.8
263(8) 0.01412 265.7 11.7
266(9) 0.01280 265.7 11.7
290(9) 0.01144 265.7 11.7
274(9) 0.01305 265.6 11.8
278(9) 0.01299 265.6 11.8
266(8) 0.01410 265.6 11.9
275(9) 0.01229 265.6 12.0
262(9) 0.01262 265.6 12.1
280(9) 0.01274 265.6 12.2
267(9) 0.01346 265.6 12.3
283(9) 0.01309 265.6 12.4
257(8) 0.01388 265.6 12.6
277(9) 0.01181 265.6 12.8
256(9) 0.01364 265.6 12.9
286(9) 0.01310 265.6 13.2
296(9) 0.01222 265.6 13.4
272(9) 0.01259 265.6 13.6
267(9) 0.01198 265.6 13.9
263(9) 0.01355 265.5 14.1
303(9) 0.01215 265.5 14.4
282(9) 0.01305 265.5 14.7
277(9) 0.01267 265.5 15.1
297(10) 0.01100 265.5 15.4
287(9) 0.01225 265.5 15.8
278(9) 0.01369 265.5 16.1
291(9) 0.01265 265.5 16.5
263(8) 0.01396 265.5 16.9
281(9) 0.01171 265.5 17.3
289(9) 0.01184 265.5 17.8
276(9) 0.01352 265.5 18.2
290(9) 0.01239 265.5 18.7
275(9) 0.01285 265.5 19.1
277(9) 0.01156 265.4 19.6
286(9) 0.01176 265.4 20.1
281(9) 0.01333 265.4 20.6
288(9) 0.01236 265.4 21.1
274(9) 0.01271 265.4 21.6
274(9) 0.01236 265.4 22.1
290(9) 0.01177 265.4 22.6
301(9) 0.01224 265.4 23.1
287(9) 0.01256 265.4 23.6
277(9) 0.01301 265.4 24.1
279(9) 0.01260 265.4 24.6
294(9) 0.01190 265.4 25.1
285(9) 0.01302 265.4 25.5
298(9) 0.01179 265.4 25.9
295(9) 0.01155 265.4 26.3
281(9) 0.01254 265.3 26.7
295(9) 0.01221 265.3 27.0
305(9) 0.01220 265.3 27.3
315(9) 0.01112 265.3 27.6
294(9) 0.01146 265.3 27.8
276(9) 0.01228 265.3 27.9
258(9) 0.01384 265.3 28.0
273(9) 0.01365 265.3 28.1
275(9) 0.01282 265.3 28.1
292(9) 0.01180 265.3 28.1
265(9) 0.01333 265.3 28.0
271(8) 0.01393 265.3 27.9
293(9) 0.01247 265.3 27.7
279(9) 0.01262 265.3 27.5
282(9) 0.01131 265.2 27.2
281(9) 0.01202 265.2 26.9
286(9) 0.01225 265.2 26.5
281(9) 0.01349 265.2 26.2
270(9) 0.01336 265.2 25.8
291(9) 0.01136 265.2 25.3
321(10) 0.01078 265.2 24.9
248(8) 0.01515 265.2 24.4
274(9) 0.01346 265.2 23.9
311(9) 0.01130 265.2 23.4
304(10) 0.01067 265.2 22.9
272(9) 0.01286 265.2 22.4
263(8) 0.01398 265.2 21.9
271(9) 0.01349 265.2 21.4
298(9) 0.01187 265.2 20.9
288(9) 0.01162 265.1 20.4
287(9) 0.01189 265.1 19.9
287(9) 0.01294 265.1 19.4
299(9) 0.01210 265.1 18.9
299(9) 0.01178 265.1 18.4
282(9) 0.01168 265.1 18.0
285(9) 0.01232 265.1 17.5
266(9) 0.01373 265.1 17.1
267(8) 0.01386 265.1 16.7
271(9) 0.01323 265.1 16.2
290(9) 0.01164 265.1 15.9
259(9) 0.01354 265.1 15.5
263(8) 0.01413 265.1 15.1
248(8) 0.01489 265.1 14.8
283(9) 0.01246 265.1 14.4
289(9) 0.01195 265.0 14.1
282(9) 0.01272 265.0 13.8
273(9) 0.01371 265.0 13.5
282(9) 0.01241 265.0 13.2
274(9) 0.01250 265.0 12.9
276(9) 0.01247 265.0 12.7
267(9) 0.01317 265.0 12.5
265(8) 0.01406 265.0 12.2
283(9) 0.01242 265.0 12.0
285(9) 0.01191 265.0 11.8
257(8) 0.01403 265.0 11.6
264(9) 0.01379 265.0 11.5
277(9) 0.01348 265.0 11.3
286(9) 0.01185 265.0 11.2
277(9) 0.01245 264.9 11.0
282(9) 0.01227 264.9 10.9
274(9) 0.01352 264.9 10.8
255(8) 0.01456 264.9 10.7
280(9) 0.01215 264.9 10.6
292(10) 0.01082 264.9 10.5
290(9) 0.01151 264.9 10.4
265(8) 0.01394 264.9 10.4
279(9) 0.01312 264.9 10.3
266(9) 0.01316 264.9 10.3
282(9) 0.01174 264.9 10.2
271(9) 0.01299 264.9 10.2
287(9) 0.01273 264.9 10.2
280(9) 0.01342 264.9 10.2
293(9) 0.01178 264.9 10.2
267(9) 0.01222 264.8 10.2
280(9) 0.01262 264.8 10.2
274(9) 0.01340 264.8 10.2
274(9) 0.01351 264.8 10.3
267(9) 0.01324 264.8 10.3
264(9) 0.01257 264.8 10.4
278(9) 0.01261 264.8 10.4
282(9) 0.01310 264.8 10.5
272(9) 0.01358 264.8 10.6
293(9) 0.01156 264.8 10.7
279(9) 0.01204 264.8 10.7
287(9) 0.01238 264.8 10.9
295(9) 0.01283 264.8 11.0
273(9) 0.01342 264.8 11.1
271(9) 0.01254 264.7 11.2
298(9) 0.01114 264.7 11.3
279(9) 0.01252 264.7 11.5
266(8) 0.01388 264.7 11.6
265(9) 0.01378 264.7 11.8
272(9) 0.01303 264.7 12.0
267(9) 0.01256 264.7 12.1
290(9) 0.01206 264.7 12.3
279(9) 0.01332 264.7 12.5
278(9) 0.01293 264.7 12.7
281(9) 0.01238 264.7 12.9
267(9) 0.01291 264.7 13.1
290(9) 0.01221 264.7 13.3
288(9) 0.01283 264.7 13.5
268(9) 0.01378 264.7 13.7
263(9) 0.01313 264.6 13.9
265(9) 0.01347 264.6 14.1
289(9) 0.01277 264.6 14.3
282(9) 0.01325 264.6 14.5
276(9) 0.01247 264.6 14.7
271(9) 0.01256 264.6 14.9
275(9) 0.01257 264.6 15.1
301(9) 0.01185 264.6 15.3
270(8) 0.01387 264.6 15.5
275(9) 0.01248 264.6 15.6
282(9) 0.01160 264.6 15.7
286(9) 0.01236 264.6 15.9
295(9) 0.01193 264.6 16.0
254(8) 0.01475 264.6 16.1
263(9) 0.01378 264.5 16.2
274(9) 0.01228 264.5 16.2
271(9) 0.01286 264.5 16.3
281(9) 0.01331 264.5 16.4
298(9) 0.01241 264.5 16.4
311(9) 0.01127 264.5 16.5
281(9) 0.01180 264.5 16.5
291(9) 0.01196 264.5 16.6
275(9) 0.01350 264.5 16.6
274(9) 0.01338 264.5 16.6
278(9) 0.01258 264.5 16.7
272(9) 0.01242 264.5 16.8
297(9) 0.01149 264.5 16.8
275(9) 0.01350 264.5 16.9
274(9) 0.01358 264.5 17.0
298(9) 0.01130 264.4 17.1
274(9) 0.01189 264.4 17.3
272(9) 0.01265 264.4 17.4
255(8) 0.01453 264.4 17.6
272(9) 0.01292 264.4 17.8
272(9) 0.01264 264.4 18.1
292(9) 0.01134 264.4 18.4
283(9) 0.01247 264.4 18.7
296(9) 0.01264 264.4 19.1
294(9) 0.01209 264.4 19.7
282(9) 0.01195 264.4 20.3
282(9) 0.01169 264.4 21.1
297(10) 0.01103 264.4 22.0
289(9) 0.01270 264.4 23.2
298(9) 0.01233 264.3 24.6
290(9) 0.01175 264.3 26.3
291(9) 0.01137 264.3 28.3
286(9) 0.01259 264.3 30.6
298(9) 0.01256 264.3 33.2
309(9) 0.01134 264.3 36.0
323(10) 0.01048 264.3 39.0
315(10) 0.01078 264.3 42.0
299(9) 0.01177 264.3 44.7
297(9) 0.01241 264.3 46.8
299(9) 0.01184 264.3 47.9
305(10) 0.01082 264.3 48.0
306(9) 0.01149 264.3 46.9
296(9) 0.01236 264.3 44.9
296(9) 0.01240 264.3 42.3
297(9) 0.01177 264.2 39.5
302(9) 0.01136 264.2 36.6
306(9) 0.01132 264.2 34.0
290(9) 0.01263 264.2 31.6
278(9) 0.01327 264.2 29.4
308(9) 0.01140 264.2 27.6
314(10) 0.00999 264.2 26.1
301(9) 0.01112 264.2 24.8
293(9) 0.01255 264.2 23.7
272(9) 0.01355 264.2 22.8
283(9) 0.01263 264.2 22.1
318(10) 0.01011 264.2 21.5
299(9) 0.01219 264.2 20.9
287(9) 0.01278 264.2 20.5
294(9) 0.01253 264.1 20.1
278(9) 0.01288 264.1 19.7
302(10) 0.01070 264.1 19.4
281(9) 0.01233 264.1 19.1
300(9) 0.01211 264.1 18.7
307(9) 0.01201 264.1 18.4
288(9) 0.01269 264.1 18.2
307(10) 0.01055 264.1 17.9
308(10) 0.01106 264.1 17.6
288(9) 0.01241 264.1 17.3
280(9) 0.01283 264.1 17.0
276(9) 0.01250 264.1 16.8
287(9) 0.01131 264.1 16.5
284(9) 0.01195 264.1 16.2
291(9) 0.01259 264.1 15.9
275(9) 0.01320 264.0 15.7
278(9) 0.01236 264.0 15.4
288(9) 0.01145 264.0 15.2
275(9) 0.01256 264.0 14.9
287(9) 0.01300 264.0 14.6
257(9) 0.01369 264.0 14.4
250(9) 0.01374 264.0 14.1
297(9) 0.01118 264.0 13.9
292(9) 0.01137 264.0 13.7
289(9) 0.01281 264.0 13.4
283(9) 0.01225 264.0 13.2
282(9) 0.01195 264.0 13.0
268(9) 0.01297 264.0 12.8
264(9) 0.01358 264.0 12.6
265(8) 0.01410 263.9 12.3
304(9) 0.01186 263.9 12.1
290(9) 0.01191 263.9 11.9
272(9) 0.01232 263.9 11.8
288(9) 0.01232 263.9 11.6
267(8) 0.01405 263.9 11.4
267(9) 0.01321 263.9 11.2
268(9) 0.01262 263.9 11.0
269(9) 0.01328 263.9 10.9
280(9) 0.01284 263.9 10.7
282(9) 0.01327 263.9 10.6
273(9) 0.01278 263.9 10.4
277(9) 0.01176 263.9 10.3
265(9) 0.01318 263.9 10.1
273(9) 0.01362 263.9 10.0
269(8) 0.01400 263.8 9.9
246(8) 0.01437 263.8 9.8
286(9) 0.01112 263.8 9.7
299(9) 0.01184 263.8 9.5
277(9) 0.01343 263.8 9.4
276(9) 0.01345 263.8 9.3
248(8) 0.01427 263.8 9.3
265(9) 0.01211 263.8 9.2
257(9) 0.01358 263.8 9.1
266(9) 0.01380 263.8 9.0
285(9) 0.01312 263.8 8.9
250(8) 0.01443 263.8 8.9
290(10) 0.01063 263.8 8.8
285(9) 0.01203 263.8 8.8
276(9) 0.01348 263.8 8.7
267(9) 0.01371 263.8 8.7
273(9) 0.01320 263.8 8.6
273(9) 0.01234 263.8 8.6
279(9) 0.01219 263.8 8.6
277(9) 0.01355 263.8 8.6
289(9) 0.01239 263.8 8.5
282(9) 0.01241 263.8 8.5
274(9) 0.01206 263.8 8.5
279(9) 0.01194 263.8 8.5
267(8) 0.01389 263.8 8.5
257(8) 0.01432 263.8 8.6
282(9) 0.01208 263.8 8.6
282(9) 0.01191 263.8 8.6
288(9) 0.01199 263.8 8.6
285(9) 0.01322 263.8 8.7
269(9) 0.01326 263.8 8.7
267(9) 0.01293 263.8 8.8
294(10) 0.01092 263.8 8.9
264(9) 0.01325 263.8 9.0
276(9) 0.01356 263.8 9.0
264(9) 0.01345 263.8 9.2
261(9) 0.01301 263.8 9.3
278(9) 0.01266 263.8 9.4
277(9) 0.01303 263.8 9.6
266(8) 0.01395 263.8 9.7
275(9) 0.01222 263.8 9.9
293(10) 0.01107 263.8 10.2
277(9) 0.01259 263.8 10.4
298(9) 0.01198 263.8 10.8
283(9) 0.01306 263.8 11.1
294(9) 0.01129 263.8 11.6
308(10) 0.01042 263.8 12.1
284(9) 0.01254 263.8 12.7
279(9) 0.01292 263.8 13.5
301(9) 0.01237 263.8 14.5
286(9) 0.01222 263.8 15.7
326(10) 0.00991 263.8 17.1
301(9) 0.01188 263.8 18.8
314(9) 0.01160 263.8 20.9
304(9) 0.01215 263.8 23.4
304(9) 0.01172 263.8 26.2
313(10) 0.01020 263.8 29.5
294(9) 0.01207 263.8 33.1
306(9) 0.01221 263.8 37.0
302(9) 0.01224 263.8 41.1
329(10) 0.01040 263.8 45.2
322(10) 0.00999 263.8 48.9
331(10) 0.01045 263.8 51.8
332(9) 0.01129 263.8 53.5
339(10) 0.01079 263.8 53.7
308(9) 0.01188 263.8 52.5
326(10) 0.00999 263.8 49.9
323(10) 0.01088 263.8 46.4
328(9) 0.01126 263.8 42.4
296(9) 0.01260 263.8 38.2
309(9) 0.01138 263.8 34.2
309(10) 0.01072 263.8 30.4
295(9) 0.01154 263.8 27.0
279(9) 0.01331 263.8 24.0
298(9) 0.01220 263.8 21.4
303(9) 0.01126 263.8 19.2
288(9) 0.01153 263.8 17.3
279(9) 0.01209 263.8 15.8
276(9) 0.01337 263.8 14.5
284(9) 0.01271 263.8 13.4
297(9) 0.01174 263.8 12.6
295(9) 0.01164 263.8 11.9
276(9) 0.01294 263.8 11.3
277(9) 0.01350 263.8 10.8
269(9) 0.01359 263.8 10.4
273(9) 0.01276 263.8 10.1
284(9) 0.01176 263.8 9.8
277(9) 0.01271 263.8 9.5
275(9) 0.01346 263.8 9.3
287(9) 0.01202 263.8 9.1
285(9) 0.01214 263.8 8.9
276(9) 0.01271 263.8 8.7
267(9) 0.01363 263.8 8.6
279(9) 0.01328 263.8 8.5
297(9) 0.01166 263.8 8.4
271(9) 0.01263 263.8 8.2
285(9) 0.01218 263.8 8.2
274(9) 0.01292 263.8 8.1
265(8) 0.01417 263.8 8.0
272(9) 0.01242 263.8 7.9
270(9) 0.01206 263.8 7.9
246(8) 0.01417 263.8 7.8
258(8) 0.01404 263.8 7.7
282(9) 0.01312 263.8 7.7
292(9) 0.01225 263.8 7.7
277(9) 0.01190 263.8 7.6
285(9) 0.01182 263.8 7.6
271(9) 0.01375 263.8 7.6
270(8) 0.01390 263.8 7.5
277(9) 0.01248 263.8 7.5
266(9) 0.01198 263.8 7.5
276(9) 0.01237 263.8 7.5
270(9) 0.01354 263.8 7.5
266(9) 0.01383 263.8 7.5
276(9) 0.01238 263.8 7.5
281(9) 0.01138 263.8 7.5
261(9) 0.01334 263.8 7.6
274(9) 0.01370 263.8 7.6
249(8) 0.01463 263.8 7.7
293(9) 0.01169 263.8 7.8
270(9) 0.01311 263.8 7.9
296(9) 0.01196 263.8 8.1
277(9) 0.01359 263.8 8.3
275(9) 0.01279 263.8 8.5
279(9) 0.01228 263.8 8.8
257(9) 0.01342 263.8 9.2
267(9) 0.01305 263.8 9.6
283(9) 0.01322 263.8 10.1
288(9) 0.01271 263.8 10.6
284(9) 0.01242 263.8 11.2
307(10) 0.01059 263.8 11.8
297(9) 0.01172 263.8 12.4
291(9) 0.01279 263.8 12.9
295(9) 0.01162 263.8 13.3
285(9) 0.01203 263.8 13.5
282(9) 0.01207 263.8 13.5
297(9) 0.01147 263.8 13.3
285(9) 0.01305 263.8 12.9
287(9) 0.01200 263.8 12.3
272(9) 0.01229 263.8 11.7
264(9) 0.01319 263.8 11.0
273(9) 0.01322 263.8 10.4
267(8) 0.01388 263.8 9.8
281(9) 0.01195 263.8 9.2
307(10) 0.01087 263.8 8.7
304(9) 0.01181 263.8 8.3
280(9) 0.01291 263.8 7.9
270(9) 0.01358 263.8 7.6
266(9) 0.01249 263.8 7.4
251(9) 0.01317 263.8 7.1
285(9) 0.01221 263.8 7.0
283(9) 0.01291 263.8 6.8
269(9) 0.01371 263.8 6.7
259(9) 0.01340 263.8 6.6
249(9) 0.01297 263.8 6.5
284(9) 0.01156 263.8 6.4
249(8) 0.01459 263.8 6.3
258(8) 0.01418 263.8 6.3
254(9) 0.01355 263.8 6.2
293(10) 0.01095 263.8 6.2
267(9) 0.01321 263.8 6.1
265(8) 0.01398 263.8 6.1
270(9) 0.01374 263.8 6.1
270(9) 0.01323 263.8 6.1
285(9) 0.01121 263.8 6.0
256(9) 0.01381 263.8 6.0
259(8) 0.01446 263.8 6.0
274(9) 0.01331 263.8 6.0
261(9) 0.01335 263.8 6.0
263(9) 0.01246 263.8 6.0
260(9) 0.01325 263.8 6.0
285(9) 0.01326 263.8 6.0
249(8) 0.01477 263.8 6.0
257(9) 0.01353 263.8 6.0
281(9) 0.01182 263.8 6.0
267(9) 0.01281 263.8 6.0
267(9) 0.01376 263.8 6.1
248(8) 0.01483 263.8 6.1
283(9) 0.01157 263.8 6.1
261(9) 0.01293 263.8 6.1
286(9) 0.01259 263.8 6.2
290(9) 0.01269 263.8 6.2
286(9) 0.01245 263.8 6.2
261(9) 0.01358 263.8 6.3
286(9) 0.01201 263.9 6.3
272(9) 0.01337 263.9 6.4
262(8) 0.01404 263.9 6.4
285(9) 0.01218 264.0 6.5
279(9) 0.01233 264.0 6.5
282(9) 0.01233 264.0 6.6
255(9) 0.01360 264.0 6.7
252(8) 0.01478 264.1 6.7
262(9) 0.01353 264.1 6.8
292(9) 0.01151 264.1 6.9
280(9) 0.01282 264.1 7.0
270(9) 0.01357 264.2 7.1
257(8) 0.01425 264.2 7.1
282(9) 0.01215 264.2 7.2
293(9) 0.01135 264.3 7.3
293(9) 0.01141 264.3 7.4
279(9) 0.01307 264.3 7.6
266(8) 0.01386 264.3 7.7
267(9) 0.01289 264.4 7.8
268(9) 0.01223 264.4 7.9
275(9) 0.01272 264.4 8.1
264(8) 0.01423 264.5 8.2
289(9) 0.01288 264.5 8.4
279(9) 0.01226 264.5 8.5
273(9) 0.01176 264.5 8.7
278(9) 0.01251 264.6 8.9
307(9) 0.01200 264.6 9.1
307(9) 0.01214 264.6 9.3
279(9) 0.01290 264.6 9.5
275(9) 0.01201 264.7 9.7
281(9) 0.01231 264.7 10.0
292(9) 0.01281 264.7 10.2
285(9) 0.01293 264.8 10.5
268(9) 0.01308 264.8 10.8
292(10) 0.01094 264.8 11.2
284(9) 0.01221 264.8 11.5
291(9) 0.01267 264.9 11.9
271(9) 0.01332 264.9 12.4
271(9) 0.01270 264.9 12.8
270(9) 0.01236 264.9 13.4
296(9) 0.01177 265.0 13.9
299(9) 0.01245 265.0 14.6
271(9) 0.01298 265.0 15.3
276(9) 0.01264 265.1 16.0
286(9) 0.01161 265.1 16.9
293(9) 0.01281 265.1 17.7
271(9) 0.01333 265.1 18.7
295(9) 0.01160 265.2 19.8
273(9) 0.01244 265.2 20.9
291(9) 0.01210 265.2 22.1
299(9) 0.01248 265.2 23.3
274(9) 0.01309 265.3 24.6
312(10) 0.01066 265.3 25.9
293(9) 0.01159 265.3 27.1
299(9) 0.01183 265.4 28.3
304(9) 0.01240 265.4 29.4
302(9) 0.01156 265.4 30.3
294(9) 0.01211 265.4 31.1
330(10) 0.01053 265.5 31.6
326(9) 0.01120 265.5 31.9
297(9) 0.01251 265.5 31.9
292(9) 0.01155 265.5 31.7
294(9) 0.01160 265.6 31.3
320(10) 0.01024 265.6 30.8
267(9) 0.01381 265.6 30.1
311(9) 0.01202 265.7 29.3
308(9) 0.01114 265.7 28.4
334(10) 0.00980 265.7 27.5
294(9) 0.01195 265.7 26.5
265(9) 0.01362 265.8 25.5
294(9) 0.01244 265.8 24.6
299(9) 0.01153 265.8 23.7
290(9) 0.01115 265.8 22.8
275(9) 0.01273 265.9 21.9
266(8) 0.01401 265.9 21.2
273(9) 0.01347 265.9 20.5
273(9) 0.01276 266.0 19.8
254(9) 0.01290 266.0 19.2
286(9) 0.01222 266.0 18.6
293(9) 0.01278 266.0 18.1
281(9) 0.01307 266.1 17.7
287(9) 0.01195 266.1 17.2
301(10) 0.01090 266.1 16.9
299(9) 0.01166 266.1 16.5
270(8) 0.01397 266.2 16.2
275(9) 0.01331 266.2 15.9
253(9) 0.01307 266.2 15.6
271(9) 0.01178 266.3 15.3
279(9) 0.01155 266.3 15.1
283(9) 0.01322 266.3 14.8
305(9) 0.01156 266.3 14.6
307(10) 0.01042 266.4 14.4
290(9) 0.01179 266.4 14.2
282(9) 0.01214 266.4 14.0
272(9) 0.01345 266.4 13.8
259(9) 0.01374 266.5 13.7
290(9) 0.01155 266.5 13.5
305(10) 0.01097 266.5 13.3
283(9) 0.01242 266.6 13.2
278(9) 0.01344 266.6 13.0
280(9) 0.01305 266.6 12.9
285(9) 0.01226 266.6 12.7
273(9) 0.01255 266.7 12.6
263(9) 0.01373 266.7 12.4
295(9) 0.01252 266.7 12.3
295(9) 0.01181 266.7 12.2
276(9) 0.01289 266.8 12.1
288(9) 0.01191 266.8 11.9
265(9) 0.01337 266.8 11.8
294(9) 0.01260 266.9 11.7
290(9) 0.01223 266.9 11.6
276(9) 0.01256 266.9 11.5
282(9) 0.01187 266.9 11.4
275(9) 0.01282 267.0 11.3
293(9) 0.01260 267.0 11.2
297(9) 0.01127 267.0 11.1
292(9) 0.01127 267.0 11.0
278(9) 0.01289 267.1 10.9
287(9) 0.01253 267.1 10.9
278(9) 0.01350 267.1 10.8
304(10) 0.01092 267.2 10.7
261(9) 0.01323 267.2 10.6
269(9) 0.01331 267.2 10.6
271(9) 0.01318 267.2 10.5
250(8) 0.01478 267.3 10.4
262(9) 0.01382 267.3 10.4
279(9) 0.01169 267.3 10.3
270(9) 0.01221 267.3 10.3
280(9) 0.01332 267.4 10.2
277(9) 0.01349 267.4 10.2
274(9) 0.01205 267.4 10.1
282(9) 0.01120 267.5 10.0
278(9) 0.01256 267.5 10.0
292(9) 0.01272 267.5 9.9
279(9) 0.01296 267.5 9.9
263(9) 0.01353 267.6 9.9
270(9) 0.01205 267.6 9.8
288(9) 0.01124 267.6 9.8
280(9) 0.01329 267.6 9.7
279(9) 0.01303 267.7 9.7
286(9) 0.01216 267.7 9.6
275(9) 0.01230 267.7 9.6
288(9) 0.01175 267.8 9.5
289(9) 0.01280 267.8 9.5
284(9) 0.01298 267.8 9.5
272(9) 0.01251 267.8 9.4
274(9) 0.01187 267.9 9.4
265(9) 0.01295 267.9 9.3
284(9) 0.01319 267.9 9.3
285(9) 0.01267 268.0 9.3
302(10) 0.01099 268.0 9.2
317(10) 0.01073 268.0 9.2
291(9) 0.01262 268.0 9.1
284(9) 0.01308 268.1 9.1
269(9) 0.01315 268.1 9.1
290(9) 0.01140 268.1 9.0
297(9) 0.01165 268.1 9.0
299(9) 0.01177 268.2 9.0
298(9) 0.01252 268.2 9.0
268(9) 0.01280 268.2 8.9
264(9) 0.01268 268.3 8.9
286(9) 0.01222 268.3 8.9
283(9) 0.01249 268.3 8.9
278(9) 0.01338 268.3 8.9
276(9) 0.01260 268.4 8.9
288(9) 0.01147 268.4 8.9
268(9) 0.01238 268.4 8.9
242(8) 0.01542 268.4 8.9
289(9) 0.01257 268.5 8.9
313(10) 0.01100 268.5 8.9
275(9) 0.01166 268.5 8.9
282(9) 0.01247 268.6 9.0
293(9) 0.01274 268.6 9.0
297(9) 0.01247 268.6 9.1
286(9) 0.01247 268.6 9.1
291(9) 0.01120 268.7 9.2
288(9) 0.01194 268.7 9.3
273(8) 0.01388 268.7 9.3
302(9) 0.01194 268.7 9.4
279(9) 0.01256 268.8 9.6
301(10) 0.01087 268.8 9.7
299(9) 0.01192 268.8 9.8
279(9) 0.01359 268.9 10.0
280(9) 0.01272 268.9 10.2
289(9) 0.01196 268.9 10.4
292(9) 0.01129 268.9 10.6
276(9) 0.01247 269.0 10.9
269(9) 0.01382 269.0 11.3
287(9) 0.01243 269.0 11.7
285(9) 0.01236 269.0 12.1
283(9) 0.01190 269.1 12.7
270(9) 0.01307 269.1 13.3
289(9) 0.01276 269.1 14.1
289(9) 0.01208 269.2 14.9
290(9) 0.01185 269.2 15.9
293(9) 0.01128 269.2 17.1
301(9) 0.01133 269.2 18.4
307(9) 0.01218 269.3 19.9
305(9) 0.01182 269.3 21.5
284(9) 0.01228 269.3 23.3
279(9) 0.01226 269.3 25.1
261(9) 0.01352 269.4 27.0
273(9) 0.01367 269.4 28.8
308(9) 0.01133 269.4 30.4
310(10) 0.01076 269.5 31.7
282(9) 0.01213 269.5 32.6
299(9) 0.01170 269.5 32.9
320(9) 0.01160 269.5 32.7
317(10) 0.01066 269.6 31.9
300(10) 0.01101 269.6 30.8
314(10) 0.01096 269.6 29.4
308(9) 0.01165 269.6 28.0
277(9) 0.01341 269.7 26.5
290(9) 0.01212 269.7 25.1
278(9) 0.01210 269.7 23.8
290(9) 0.01173 269.8 22.7
288(9) 0.01258 269.8 21.7
308(9) 0.01185 269.8 20.9
281(9) 0.01262 269.8 20.3
290(9) 0.01187 269.9 19.8
295(9) 0.01174 269.9 19.5
272(9) 0.01316 269.9 19.3
280(9) 0.01350 269.9 19.2
272(9) 0.01241 270.0 19.2
279(9) 0.01164 270.0 19.4
296(9) 0.01206 270.0 19.7
309(9) 0.01184 270.1 20.0
297(9) 0.01246 270.1 20.5
311(9) 0.01129 270.1 21.0
287(9) 0.01177 270.1 21.7
314(10) 0.01092 270.2 22.5
315(9) 0.01169 270.2 23.5
321(9) 0.01158 270.2 24.6
323(10) 0.01096 270.2 25.9
315(10) 0.01018 270.3 27.4
307(9) 0.01139 270.3 29.2
300(9) 0.01248 270.3 31.2
314(9) 0.01150 270.4 33.5
312(9) 0.01120 270.4 36.2
309(10) 0.01088 270.4 39.2
332(10) 0.01017 270.4 42.6
313(9) 0.01195 270.5 46.3
321(10) 0.01102 270.5 50.4
349(10) 0.00965 270.5 54.7
316(10) 0.01070 270.5 59.2
325(10) 0.01054 270.6 63.7
346(10) 0.01071 270.6 68.1
317(9) 0.01115 270.6 72.1
333(10) 0.01016 270.7 75.3
331(10) 0.01035 270.7 77.6
353(10) 0.00987 270.7 78.7
347(10) 0.01078 270.7 78.7
332(10) 0.01082 270.8 77.5
342(10) 0.01009 270.8 75.5
361(10) 0.00948 270.8 73.0
339(10) 0.01064 270.8 70.3
345(10) 0.01077 270.9 67.6
304(9) 0.01140 270.9 65.2
323(10) 0.01049 270.9 63.2
319(10) 0.01084 271.0 61.5
311(9) 0.01184 271.0 60.3
333(9) 0.01115 271.0 59.5
340(10) 0.01034 271.0 59.0
340(10) 0.00975 271.1 58.7
320(10) 0.01084 271.1 58.3
325(9) 0.01136 271.1 57.7
330(9) 0.01123 271.1 56.7
339(10) 0.01024 271.2 55.2
336(10) 0.00949 271.2 53.3
304(9) 0.01121 271.2 50.9
320(9) 0.01133 271.3 48.3
323(9) 0.01172 271.3 45.6
276(9) 0.01273 271.3 42.8
287(9) 0.01141 271.3 40.2
309(10) 0.01102 271.4 37.8
313(9) 0.01166 271.4 35.6
305(9) 0.01208 271.4 33.6
297(9) 0.01214 271.4 31.9
306(10) 0.01021 271.5 30.4
283(9) 0.01218 271.5 29.2
306(9) 0.01229 271.5 28.1
299(9) 0.01229 271.6 27.3
274(9) 0.01327 271.6 26.7
305(10) 0.01087 271.6 26.3
311(10) 0.01093 271.6 26.0
310(9) 0.01207 271.7 25.8
299(9) 0.01218 271.7 25.8
318(10) 0.01053 271.7 25.9
305(10) 0.01070 271.8 26.1
320(10) 0.01076 271.8 26.4
299(9) 0.01242 271.8 26.9
316(9) 0.01154 271.8 27.3
300(9) 0.01175 271.9 27.9
328(10) 0.00985 271.9 28.6
295(9) 0.01158 271.9 29.3
329(9) 0.01145 271.9 30.0
306(9) 0.01169 272.0 30.8
301(9) 0.01174 272.0 31.7
294(9) 0.01118 272.0 32.6
279(9) 0.01260 272.1 33.5
304(9) 0.01239 272.1 34.4
317(10) 0.01079 272.1 35.3
289(9) 0.01213 272.1 36.2
278(9) 0.01263 272.2 37.0
308(9) 0.01169 272.2 37.8
321(9) 0.01159 272.2 38.6
308(9) 0.01137 272.2 39.2
281(9) 0.01218 272.3 39.8
322(10) 0.01074 272.3 40.3
311(9) 0.01192 272.3 40.6
321(9) 0.01136 272.4 40.9
317(10) 0.01091 272.4 41.0
323(10) 0.01027 272.4 41.0
307(9) 0.01150 272.4 40.9
297(9) 0.01207 272.5 40.6
316(9) 0.01160 272.5 40.2
301(9) 0.01131 272.5 39.6
319(10) 0.01039 272.5 38.9
305(9) 0.01175 272.6 38.2
287(9) 0.01276 272.6 37.3
305(9) 0.01214 272.6 36.3
297(9) 0.01183 272.7 35.3
328(10) 0.00938 272.7 34.2
303(9) 0.01152 272.7 33.2
324(9) 0.01134 272.7 32.1
305(9) 0.01209 272.8 31.0
292(9) 0.01162 272.8 29.9
267(9) 0.01149 272.8 28.9
270(9) 0.01250 272.8 27.9
296(9) 0.01217 272.9 26.9
282(9) 0.01341 272.9 26.0
320(10) 0.01064 272.9 25.1
303(10) 0.01064 273.0 24.3
281(9) 0.01210 273.0 23.6
285(9) 0.01308 273.0 22.9
308(9) 0.01185 273.0 22.3
307(10) 0.01080 273.1 21.7
312(10) 0.01037 273.1 21.2
306(9) 0.01148 273.1 20.7
280(9) 0.01321 273.1 20.3
302(9) 0.01223 273.2 19.9
287(9) 0.01248 273.2 19.6
328(10) 0.01029 273.2 19.3
286(9) 0.01248 273.3 19.0
290(9) 0.01274 273.3 18.8
305(9) 0.01169 273.3 18.6
295(9) 0.01175 273.3 18.4
297(9) 0.01128 273.4 18.2
292(9) 0.01197 273.4 18.1
315(9) 0.01175 273.4 18.0
298(9) 0.01173 273.4 17.8
300(9) 0.01138 273.5 17.7
290(9) 0.01147 273.5 17.7
298(9) 0.01161 273.5 17.6
300(9) 0.01240 273.6 17.6
294(9) 0.01205 273.6 17.5
292(9) 0.01157 273.6 17.6
292(9) 0.01147 273.6 17.7
302(9) 0.01171 273.7 17.8
308(9) 0.01214 273.7 18.0
266(9) 0.01287 273.7 18.3
288(9) 0.01141 273.7 18.6
299(9) 0.01149 273.8 19.1
285(9) 0.01305 273.8 19.6
283(9) 0.01298 273.8 20.3
290(9) 0.01199 273.9 21.2
300(10) 0.01081 273.9 22.2
304(9) 0.01159 273.9 23.3
286(9) 0.01298 273.9 24.6
296(9) 0.01255 274.0 26.1
303(9) 0.01126 274.0 27.8
291(10) 0.01100 274.0 29.6
312(10) 0.01068 274.0 31.6
323(9) 0.01130 274.1 33.8
330(9) 0.01113 274.1 36.0
336(10) 0.01034 274.1 38.3
332(10) 0.00959 274.2 40.5
346(10) 0.00978 274.2 42.6
336(10) 0.01088 274.2 44.5
333(9) 0.01114 274.2 45.9
318(10) 0.01071 274.3 46.9
324(10) 0.00993 274.3 47.3
336(10) 0.01020 274.3 47.1
302(9) 0.01214 274.3 46.3
327(9) 0.01119 274.4 45.0
320(10) 0.01062 274.4 43.2
317(10) 0.01050 274.4 41.2
306(9) 0.01130 274.5 38.9
299(9) 0.01248 274.5 36.7
307(9) 0.01180 274.5 34.4
308(9) 0.01120 274.5 32.3
293(9) 0.01122 274.6 30.2
300(9) 0.01138 274.6 28.3
317(9) 0.01169 274.6 26.6
301(9) 0.01207 274.6 25.1
312(9) 0.01115 274.7 23.8
300(9) 0.01166 274.7 22.6
310(9) 0.01117 274.7 21.6
284(9) 0.01306 274.8 20.8
277(9) 0.01290 274.8 20.2
291(9) 0.01210 274.8 19.7
329(10) 0.01009 274.8 19.4
299(9) 0.01181 274.9 19.2
308(9) 0.01214 274.9 19.1
278(9) 0.01289 274.9 19.2
293(9) 0.01147 274.9 19.4
304(9) 0.01117 275.0 19.7
298(9) 0.01233 275.0 20.2
313(9) 0.01183 275.0 20.7
297(9) 0.01160 275.1 21.4
315(10) 0.01029 275.1 22.2
281(9) 0.01213 275.1 23.2
318(9) 0.01122 275.1 24.2
317(9) 0.01183 275.2 25.4
322(10) 0.01079 275.2 26.7
320(10) 0.01065 275.2 28.1
301(9) 0.01151 275.2 29.7
306(9) 0.01183 275.3 31.4
345(10) 0.01070 275.3 33.1
293(9) 0.01163 275.3 35.0
299(10) 0.01051 275.4 36.9
293(9) 0.01163 275.4 38.8
306(9) 0.01210 275.4 40.8
321(9) 0.01165 275.4 42.7
319(9) 0.01111 275.5 44.5
299(10) 0.01079 275.5 46.2
315(9) 0.01112 275.5 47.6
344(10) 0.01070 275.6 48.8
310(9) 0.01178 275.6 49.6
314(10) 0.01078 275.6 50.1
321(10) 0.00995 275.6 50.1
310(9) 0.01159 275.7 49.7
341(10) 0.01076 275.7 48.9
319(9) 0.01166 275.7 47.8
311(9) 0.01117 275.7 46.3
298(10) 0.01107 275.8 44.6
308(9) 0.01140 275.8 42.8
320(9) 0.01151 275.8 40.8
307(9) 0.01196 275.9 38.8
294(9) 0.01176 275.9 36.7
322(10) 0.01011 275.9 34.7
297(9) 0.01194 275.9 32.8
316(9) 0.01193 276.0 30.9
295(9) 0.01222 276.0 29.1
278(9) 0.01290 276.0 27.4
303(9) 0.01124 276.0 25.9
308(9) 0.01150 276.1 24.4
266(8) 0.01385 276.1 23.1
297(9) 0.01201 276.1 21.9
280(9) 0.01190 276.2 20.8
275(9) 0.01231 276.2 19.9
294(9) 0.01176 276.2 19.0
294(9) 0.01260 276.2 18.3
286(9) 0.01216 276.3 17.7
302(10) 0.01089 276.3 17.2
267(9) 0.01314 276.3 16.8
304(9) 0.01174 276.3 16.4
296(9) 0.01240 276.4 16.2
290(9) 0.01242 276.4 16.1
308(10) 0.01083 276.4 16.0
306(10) 0.01099 276.5 16.1
320(10) 0.01102 276.5 16.2
309(9) 0.01195 276.5 16.4
277(9) 0.01264 276.5 16.7
302(10) 0.01079 276.6 17.0
273(9) 0.01301 276.6 17.4
317(9) 0.01124 276.6 17.8
323(9) 0.01149 276.6 18.2
287(9) 0.01196 276.7 18.6
277(9) 0.01171 276.7 19.0
297(9) 0.01217 276.7 19.4
305(9) 0.01188 276.8 19.7
314(9) 0.01172 276.8 19.9
308(10) 0.01088 276.8 20.0
273(9) 0.01175 276.8 20.0
310(10) 0.01048 276.9 19.8
317(9) 0.01175 276.9 19.5
302(9) 0.01214 276.9 19.1
321(10) 0.01071 276.9 18.6
299(10) 0.01098 277.0 18.0
285(9) 0.01221 277.0 17.4
317(9) 0.01170 277.0 16.8
268(8) 0.01389 277.1 16.1
291(9) 0.01211 277.1 15.4
304(10) 0.01073 277.1 14.8
272(9) 0.01297 277.1 14.2
289(9) 0.01283 277.2 13.7
290(9) 0.01243 277.2 13.2
314(10) 0.01079 277.2 12.7
269(9) 0.01241 277.2 12.3
283(9) 0.01157 277.3 11.9
299(9) 0.01241 277.3 11.6
313(9) 0.01131 277.3 11.3
292(9) 0.01181 277.4 11.1
282(9) 0.01148 277.4 10.9
292(9) 0.01165 277.4 10.8
312(9) 0.01185 277.4 10.7
302(9) 0.01185 277.5 10.7
271(9) 0.01283 277.5 10.7
290(9) 0.01207 277.5 10.8
298(9) 0.01201 277.5 10.9
287(9) 0.01298 277.6 11.1
270(9) 0.01298 277.6 11.3
293(9) 0.01127 277.6 11.6
257(9) 0.01304 277.7 12.0
281(9) 0.01238 277.7 12.5
318(9) 0.01152 277.7 13.0
329(10) 0.01089 277.7 13.6
307(9) 0.01126 277.8 14.3
293(9) 0.01185 277.8 15.1
289(9) 0.01248 277.8 16.0
268(8) 0.01392 277.8 17.0
283(9) 0.01211 277.9 18.1
311(10) 0.01066 277.9 19.2
302(9) 0.01208 277.9 20.5
308(9) 0.01190 278.0 21.7
305(9) 0.01218 278.0 23.0
298(9) 0.01153 278.0 24.3
270(9) 0.01247 278.0 25.5
281(9) 0.01253 278.1 26.6
305(9) 0.01207 278.1 27.5
312(9) 0.01177 278.1 28.1
324(10) 0.01064 278.1 28.4
300(9) 0.01120 278.2 28.4
294(9) 0.01155 278.2 28.0
295(9) 0.01250 278.2 27.5
306(9) 0.01202 278.3 26.7
288(9) 0.01251 278.3 25.7
281(9) 0.01162 278.3 24.7
309(9) 0.01116 278.3 23.7
307(9) 0.01212 278.4 22.7
292(9) 0.01271 278.4 21.7
306(9) 0.01152 278.4 20.8
265(9) 0.01252 278.4 20.0
299(9) 0.01126 278.5 19.4
282(9) 0.01290 278.5 18.8
293(9) 0.01253 278.5 18.3
295(9) 0.01215 278.6 18.0
295(9) 0.01143 278.6 17.7
290(9) 0.01157 278.6 17.6
281(9) 0.01328 278.6 17.5
290(9) 0.01222 278.7 17.6
299(9) 0.01190 278.7 17.7
287(9) 0.01167 278.7 17.9
294(9) 0.01121 278.7 18.2
278(9) 0.01339 278.8 18.6
293(9) 0.01256 278.8 19.0
289(9) 0.01194 278.8 19.5
298(9) 0.01110 278.9 20.1
311(9) 0.01143 278.9 20.7
328(9) 0.01134 278.9 21.4
289(9) 0.01241 278.9 22.1
294(9) 0.01160 279.0 22.9
287(9) 0.01228 279.0 23.7
314(10) 0.01105 279.0 24.5
300(9) 0.01227 279.1 25.4
305(9) 0.01133 279.1 26.3
310(10) 0.01090 279.1 27.2
294(9) 0.01205 279.1 28.2
310(9) 0.01142 279.2 29.1
312(9) 0.01192 279.2 30.0
297(9) 0.01150 279.2 30.9
318(10) 0.01058 279.2 31.8
318(10) 0.01108 279.3 32.7
323(9) 0.01135 279.3 33.4
315(9) 0.01160 279.3 34.2
306(9) 0.01141 279.4 34.8
308(10) 0.01077 279.4 35.3
298(9) 0.01195 279.4 35.7
322(10) 0.01098 279.4 36.0
289(9) 0.01288 279.5 36.2
333(10) 0.00957 279.5 36.2
311(10) 0.01044 279.5 36.1
327(10) 0.01021 279.5 35.9
307(9) 0.01159 279.6 35.5
300(9) 0.01227 279.6 35.0
292(9) 0.01212 279.6 34.4
303(10) 0.01067 279.7 33.7
295(9) 0.01165 279.7 33.0
318(9) 0.01134 279.7 32.1
293(9) 0.01274 279.7 31.2
290(9) 0.01195 279.8 30.3
322(10) 0.00951 279.8 29.3
289(9) 0.01184 279.8 28.3
304(9) 0.01221 279.8 27.3
282(9) 0.01309 279.9 26.3
309(10) 0.01084 279.9 25.3
307(10) 0.01046 279.9 24.3
282(9) 0.01191 280.0 23.3
318(9) 0.01156 280.0 22.4
295(9) 0.01243 280.0 21.5
294(9) 0.01184 280.0 20.6
304(10) 0.01096 280.1 19.7
291(9) 0.01198 280.1 18.9
292(9) 0.01259 280.1 18.2
321(9) 0.01126 280.1 17.4
303(9) 0.01164 280.2 16.7
295(9) 0.01210 280.2 16.1
299(9) 0.01144 280.2 15.4
262(8) 0.01412 280.3 14.8
287(9) 0.01222 280.3 14.3
283(9) 0.01239 280.3 13.8
291(9) 0.01166 280.3 13.3
311(9) 0.01128 280.4 12.8
296(9) 0.01257 280.4 12.4
292(9) 0.01197 280.4 12.0
311(10) 0.01057 280.4 11.6
291(9) 0.01214 280.5 11.3
292(9) 0.01236 280.5 10.9
293(9) 0.01279 280.5 10.6
284(9) 0.01257 280.6 10.4
266(9) 0.01319 280.6 10.1
291(9) 0.01134 280.6 9.9
283(9) 0.01246 280.6 9.6
283(9) 0.01334 280.7 9.5
294(9) 0.01140 280.7 9.3
299(10) 0.01069 280.7 9.1
312(10) 0.01081 280.7 9.0
299(9) 0.01239 280.8 8.8
286(9) 0.01305 280.8 8.7
292(9) 0.01176 280.8 8.6
295(10) 0.01076 280.9 8.5
305(9) 0.01116 280.9 8.4
300(9) 0.01232 280.9 8.3
289(9) 0.01286 280.9 8.2
288(9) 0.01201 281.0 8.1
309(10) 0.01015 281.0 8.1
298(9) 0.01188 281.0 8.0
307(9) 0.01203 281.0 8.0
305(9) 0.01207 281.1 7.9
321(10) 0.01099 281.1 7.9
300(10) 0.01080 281.1 7.8
280(9) 0.01214 281.2 7.8
290(9) 0.01274 281.2 7.7
306(9) 0.01197 281.2 7.7
300(9) 0.01186 281.2 7.6
285(9) 0.01147 281.3 7.6
276(9) 0.01290 281.3 7.6
312(9) 0.01192 281.3 7.5
305(9) 0.01192 281.3 7.5
292(9) 0.01233 281.3 7.4
293(9) 0.01165 281.4 7.4
295(9) 0.01192 281.4 7.3
305(9) 0.01209 281.4 7.3
294(9) 0.01216 281.4 7.2
307(9) 0.01108 281.4 7.2
316(10) 0.01099 281.5 7.1
303(9) 0.01169 281.5 7.1
283(9) 0.01319 281.5 7.0
298(9) 0.01164 281.5 7.0
308(10) 0.01087 281.5 6.9
310(10) 0.01076 281.6 6.9
308(9) 0.01126 281.6 6.8
297(9) 0.01235 281.6 6.8
300(9) 0.01184 281.6 6.8
294(9) 0.01122 281.7 6.7
305(9) 0.01110 281.7 6.7
294(9) 0.01185 281.7 6.6
315(9) 0.01175 281.7 6.6
310(9) 0.01136 281.7 6.6
292(9) 0.01136 281.8 6.5
291(9) 0.01190 281.8 6.5
325(9) 0.01127 281.8 6.5
313(9) 0.01183 281.8 6.5
291(9) 0.01146 281.8 6.5
286(9) 0.01172 281.9 6.5
290(9) 0.01236 281.9 6.5
310(9) 0.01175 281.9 6.5
301(9) 0.01226 281.9 6.5
297(9) 0.01194 281.9 6.5
308(10) 0.01018 282.0 6.6
297(10) 0.01103 282.0 6.6
287(9) 0.01261 282.0 6.6
286(9) 0.01299 282.0 6.7
279(9) 0.01269 282.0 6.7
293(9) 0.01108 282.1 6.8
282(9) 0.01194 282.1 6.9
303(9) 0.01199 282.1 7.0
300(9) 0.01246 282.1 7.1
309(9) 0.01119 282.1 7.2
303(10) 0.01023 282.2 7.4
289(9) 0.01191 282.2 7.6
282(9) 0.01327 282.2 7.7
296(9) 0.01262 282.2 8.0
321(10) 0.01055 282.2 8.2
310(10) 0.01053 282.3 8.5
301(9) 0.01134 282.3 8.8
279(9) 0.01307 282.3 9.2
292(9) 0.01243 282.3 9.6
289(9) 0.01264 282.3 10.1
281(9) 0.01248 282.4 10.7
312(10) 0.01053 282.4 11.3
282(9) 0.01311 282.4 12.0
289(9) 0.01307 282.4 12.8
315(10) 0.01046 282.4 13.7
295(9) 0.01109 282.5 14.7
289(9) 0.01196 282.5 15.8
312(9) 0.01206 282.5 17.0
301(9) 0.01179 282.5 18.4
321(10) 0.01070 282.5 19.8
273(9) 0.01273 282.6 21.4
291(9) 0.01202 282.6 23.0
306(9) 0.01219 282.6 24.7
315(9) 0.01135 282.6 26.5
296(9) 0.01184 282.6 28.2
325(10) 0.01049 282.7 29.9
317(9) 0.01128 282.7 31.5
339(10) 0.01105 282.7 32.8
317(9) 0.01123 282.7 34.0
354(10) 0.00931 282.8 34.7
304(9) 0.01148 282.8 35.1
305(9) 0.01206 282.8 35.1
306(9) 0.01202 282.8 34.7
308(9) 0.01118 282.8 33.9
307(9) 0.01133 282.9 32.8
292(9) 0.01236 282.9 31.4
310(9) 0.01176 282.9 29.8
295(9) 0.01238 282.9 28.1
317(10) 0.01091 282.9 26.4
301(9) 0.01139 283.0 24.7
333(10) 0.01052 283.0 23.0
319(9) 0.01153 283.0 21.4
302(9) 0.01251 283.0 19.9
309(9) 0.01147 283.0 18.5
304(10) 0.01068 283.1 17.2
280(9) 0.01262 283.1 16.1
316(9) 0.01166 283.1 15.0
292(9) 0.01280 283.1 14.1
271(9) 0.01257 283.1 13.2
303(10) 0.01053 283.2 12.5
305(9) 0.01182 283.2 11.9
322(9) 0.01160 283.2 11.3
313(9) 0.01176 283.2 10.8
286(9) 0.01252 283.2 10.4
297(10) 0.01095 283.3 10.0
296(9) 0.01188 283.3 9.7
315(9) 0.01176 283.3 9.4
304(9) 0.01227 283.3 9.2
304(9) 0.01155 283.3 9.0
302(10) 0.01063 283.4 8.8
306(9) 0.01143 283.4 8.7
313(9) 0.01185 283.4 8.6
286(9) 0.01259 283.4 8.5
302(10) 0.01079 283.4 8.4
313(10) 0.01047 283.5 8.3
270(9) 0.01316 283.5 8.3
317(9) 0.01177 283.5 8.2
292(9) 0.01219 283.5 8.2
329(10) 0.01061 283.5 8.2
305(9) 0.01129 283.6 8.2
299(9) 0.01160 283.6 8.2
280(9) 0.01309 283.6 8.2
294(9) 0.01222 283.6 8.3
291(9) 0.01153 283.6 8.3
287(9) 0.01175 283.7 8.4
301(9) 0.01179 283.7 8.4
305(9) 0.01204 283.7 8.5
306(9) 0.01124 283.7 8.5
310(10) 0.01078 283.7 8.6
306(9) 0.01146 283.8 8.7
301(9) 0.01170 283.8 8.8
292(9) 0.01277 283.8 8.9
281(9) 0.01231 283.8 9.0
288(9) 0.01187 283.9 9.1
319(10) 0.01070 283.9 9.3
302(9) 0.01213 283.9 9.4
294(9) 0.01279 283.9 9.5
291(9) 0.01240 283.9 9.7
308(10) 0.01066 284.0 9.8
300(9) 0.01143 284.0 10.0
285(9) 0.01280 284.0 10.2
288(9) 0.01296 284.0 10.4
301(9) 0.01117 284.0 10.6
327(10) 0.00981 284.1 10.8
298(9) 0.01175 284.1 11.0
292(9) 0.01216 284.1 11.3
290(9) 0.01298 284.1 11.6
302(9) 0.01119 284.1 11.8
310(10) 0.01034 284.2 12.2
290(9) 0.01217 284.2 12.5
302(9) 0.01218 284.2 12.9
330(9) 0.01115 284.2 13.3
310(9) 0.01127 284.2 13.7
315(10) 0.00996 284.3 14.2
319(10) 0.01095 284.3 14.7
305(9) 0.01208 284.3 15.3
322(9) 0.01117 284.3 15.9
319(10) 0.01042 284.3 16.7
322(10) 0.01007 284.4 17.5
322(10) 0.01078 284.4 18.5
299(9) 0.01264 284.4 19.5
294(9) 0.01241 284.4 20.7
308(10) 0.01090 284.4 22.0
323(10) 0.01008 284.5 23.5
311(9) 0.01122 284.5 25.2
313(9) 0.01184 284.5 27.0
311(9) 0.01146 284.5 29.0
339(10) 0.01014 284.5 31.2
358(10) 0.00926 284.6 33.5
358(10) 0.01004 284.6 36.0
360(10) 0.01023 284.6 38.5
356(10) 0.01039 284.6 41.2
387(11) 0.00876 284.6 43.7
342(10) 0.01014 284.7 46.2
348(10) 0.01009 284.7 48.4
367(10) 0.01013 284.7 50.1
353(10) 0.00982 284.7 51.4
352(10) 0.00958 284.7 52.0
357(10) 0.00969 284.8 52.1
380(10) 0.00915 284.8 51.5
374(10) 0.00996 284.8 50.4
343(10) 0.01009 284.8 49.0
316(10) 0.01105 284.8 47.3
364(10) 0.00918 284.9 45.6
338(10) 0.01080 284.9 43.8
316(9) 0.01170 284.9 42.2
340(10) 0.01040 284.9 40.7
334(10) 0.01014 285.0 39.3
326(10) 0.01034 285.0 38.2
316(9) 0.01112 285.0 37.4
341(10) 0.01100 285.0 36.8
314(10) 0.01106 285.0 36.4
335(10) 0.01009 285.1 36.4
308(9) 0.01169 285.1 36.5
347(10) 0.01037 285.1 37.0
327(9) 0.01133 285.1 37.7
354(10) 0.00947 285.1 38.7
320(10) 0.00996 285.2 39.9
351(10) 0.00954 285.2 41.3
349(10) 0.01074 285.2 43.1
329(9) 0.01129 285.2 45.0
336(10) 0.01057 285.2 47.1
361(11) 0.00879 285.3 49.5
347(10) 0.01002 285.3 51.9
342(10) 0.01089 285.3 54.5
382(10) 0.00943 285.3 57.1
378(10) 0.00941 285.3 59.6
392(11) 0.00858 285.4 61.9
403(11) 0.00856 285.4 63.9
383(10) 0.00977 285.4 65.5
389(10) 0.00938 285.4 66.5
377(10) 0.00935 285.4 66.9
383(11) 0.00850 285.5 66.6
355(10) 0.00971 285.5 65.6
353(10) 0.01042 285.5 64.0
354(10) 0.01044 285.5 61.9
361(10) 0.00977 285.5 59.4
360(10) 0.00954 285.6 56.6
340(10) 0.01035 285.6 53.7
328(9) 0.01129 285.6 50.8
318(9) 0.01125 285.6 47.9
323(9) 0.01121 285.6 45.1
323(10) 0.01063 285.7 42.4
318(9) 0.01113 285.7 39.9
324(9) 0.01142 285.7 37.6
322(10) 0.01101 285.7 35.4
319(10) 0.01055 285.7 33.4
331(10) 0.01058 285.8 31.6
327(9) 0.01125 285.8 30.0
311(9) 0.01199 285.8 28.5
349(10) 0.01006 285.8 27.1
318(10) 0.01100 285.8 25.9
289(9) 0.01262 285.9 24.9
326(10) 0.01103 285.9 23.9
323(9) 0.01146 285.9 23.0
333(10) 0.01052 285.9 22.3
336(10) 0.01013 285.9 21.6
335(10) 0.01021 286.0 20.9
332(10) 0.01088 286.0 20.4
309(9) 0.01205 286.0 19.9
292(9) 0.01200 286.0 19.4
312(10) 0.01023 286.1 19.0
319(10) 0.01087 286.1 18.6
321(9) 0.01122 286.1 18.3
305(9) 0.01232 286.1 18.0
305(9) 0.01135 286.1 17.7
310(10) 0.01023 286.2 17.5
294(9) 0.01184 286.2 17.2
276(9) 0.01346 286.2 17.0
303(9) 0.01229 286.2 16.8
295(9) 0.01165 286.2 16.7
301(10) 0.01058 286.3 16.5
299(9) 0.01177 286.3 16.4
314(9) 0.01184 286.3 16.3
298(9) 0.01200 286.3 16.2
323(10) 0.01057 286.3 16.1
305(10) 0.01062 286.4 16.1
316(10) 0.01100 286.4 16.0
325(9) 0.01146 286.4 16.0
311(9) 0.01163 286.4 16.0
295(9) 0.01165 286.4 16.0
330(10) 0.00976 286.5 16.1
335(10) 0.01017 286.5 16.1
307(9) 0.01185 286.5 16.2
290(9) 0.01235 286.5 16.3
321(10) 0.01061 286.5 16.4
320(10) 0.01093 286.6 16.6
322(10) 0.01085 286.6 16.7
334(9) 0.01116 286.6 16.9
313(9) 0.01164 286.6 17.2
310(9) 0.01146 286.6 17.4
322(10) 0.01049 286.7 17.7
307(9) 0.01135 286.7 18.0
324(9) 0.01140 286.7 18.3
317(9) 0.01127 286.7 18.6
330(10) 0.01046 286.7 19.0
313(10) 0.01095 286.8 19.4
310(10) 0.01084 286.8 19.8
282(9) 0.01332 286.8 20.3
312(10) 0.01088 286.8 20.8
313(10) 0.01066 286.8 21.3
307(9) 0.01154 286.9 21.9
304(9) 0.01187 286.9 22.4
312(9) 0.01201 286.9 23.0
318(10) 0.01063 286.9 23.7
309(10) 0.01094 286.9 24.3
307(9) 0.01110 287.0 25.0
316(10) 0.01102 287.0 25.6
316(9) 0.01178 287.0 26.3
300(9) 0.01152 287.0 27.0
297(9) 0.01146 287.0 27.7
327(10) 0.01074 287.1 28.4
320(9) 0.01140 287.1 29.1
312(9) 0.01181 287.1 29.7
347(10) 0.00969 287.1 30.4
305(10) 0.01074 287.1 31.0
338(10) 0.01019 287.2 31.6
325(9) 0.01141 287.2 32.2
305(9) 0.01206 287.2 32.7
320(10) 0.01087 287.2 33.2
340(10) 0.00925 287.3 33.7
339(10) 0.00981 287.3 34.2
326(9) 0.01143 287.3 34.6
324(9) 0.01125 287.3 35.0
303(9) 0.01149 287.3 35.4
324(10) 0.00992 287.4 35.8
312(9) 0.01126 287.4 36.2
326(9) 0.01129 287.4 36.6
325(9) 0.01140 287.4 36.9
321(10) 0.01050 287.4 37.2
318(10) 0.01031 287.5 37.5
343(10) 0.01000 287.5 37.8
314(9) 0.01194 287.5 38.0
337(10) 0.01086 287.5 38.2
334(10) 0.01021 287.5 38.4
334(10) 0.00988 287.6 38.5
321(10) 0.01054 287.6 38.6
307(9) 0.01201 287.6 38.7
335(10) 0.01059 287.6 38.7
317(10) 0.01092 287.6 38.7
313(10) 0.01105 287.7 38.6
322(9) 0.01112 287.7 38.5
325(9) 0.01137 287.7 38.4
338(10) 0.01079 287.7 38.3
332(10) 0.01060 287.7 38.2
341(10) 0.00984 287.8 38.0
343(10) 0.01017 287.8 37.8
310(9) 0.01190 287.8 37.7
322(10) 0.01102 287.8 37.5
312(10) 0.01082 287.8 37.3
315(10) 0.01079 287.9 37.2
343(10) 0.01019 287.9 37.0
311(9) 0.01198 287.9 36.9
319(10) 0.01106 287.9 36.8
334(10) 0.00999 287.9 36.7
330(10) 0.00998 288.0 36.7
332(10) 0.01093 288.0 36.7
311(9) 0.01194 288.0 36.7
311(9) 0.01125 288.0 36.7
316(10) 0.01044 288.0 36.8
322(10) 0.01065 288.1 36.9
344(10) 0.01068 288.1 37.1
327(9) 0.01113 288.1 37.3
302(9) 0.01123 288.1 37.5
326(10) 0.00992 288.1 37.8
354(10) 0.00979 288.2 38.1
343(10) 0.01076 288.2 38.5
352(10) 0.01044 288.2 39.0
347(10) 0.01005 288.2 39.5
353(10) 0.00931 288.2 40.1
339(10) 0.01030 288.3 40.7
336(9) 0.01116 288.3 41.5
352(10) 0.01052 288.3 42.3
338(10) 0.00979 288.3 43.2
337(10) 0.00928 288.4 44.2
352(10) 0.01016 288.4 45.3
355(10) 0.01071 288.4 46.5
341(10) 0.01086 288.4 47.9
350(10) 0.01010 288.4 49.3
360(10) 0.00910 288.5 50.8
355(10) 0.00962 288.5 52.5
337(9) 0.01120 288.5 54.2
358(10) 0.00987 288.5 56.1
323(9) 0.01112 288.5 58.0
343(10) 0.00967 288.6 59.9
372(10) 0.00917 288.6 61.8
347(10) 0.01060 288.6 63.7
354(10) 0.01006 288.6 65.4
348(10) 0.00984 288.6 67.0
333(10) 0.00996 288.7 68.3
354(10) 0.00977 288.7 69.2
342(10) 0.01082 288.7 69.7
322(10) 0.01102 288.7 69.7
348(10) 0.00988 288.7 69.2
319(10) 0.01085 288.8 68.3
306(9) 0.01147 288.8 66.9
359(10) 0.01037 288.8 65.0
341(10) 0.01018 288.8 62.9
371(10) 0.00907 288.8 60.5
348(10) 0.01003 288.9 58.0
344(10) 0.01018 288.9 55.4
332(9) 0.01121 288.9 52.7
326(10) 0.01072 288.9 50.1
353(10) 0.00953 288.9 47.6
367(10) 0.00909 289.0 45.2
326(10) 0.01083 289.0 42.9
322(9) 0.01145 289.0 40.7
337(10) 0.01021 289.0 38.6
365(11) 0.00907 289.0 36.7
313(9) 0.01131 289.1 34.9
324(9) 0.01122 289.1 33.2
334(10) 0.01100 289.1 31.7
313(9) 0.01138 289.1 30.3
304(10) 0.01082 289.1 29.0
299(9) 0.01146 289.2 27.8
313(9) 0.01167 289.2 26.7
314(9) 0.01176 289.2 25.7
321(10) 0.01099 289.2 24.8
346(10) 0.00930 289.2 24.0
306(9) 0.01161 289.3 23.2
292(9) 0.01277 289.3 22.5
328(9) 0.01124 289.3 21.9
315(10) 0.01079 289.3 21.3
298(10) 0.01102 289.3 20.7
316(10) 0.01103 289.4 20.2
307(9) 0.01182 289.4 19.8
297(9) 0.01276 289.4 19.4
310(9) 0.01109 289.4 19.0
324(10) 0.00965 289.5 18.6
308(9) 0.01110 289.5 18.2
329(9) 0.01116 289.5 17.9
312(9) 0.01160 289.5 17.6
306(9) 0.01118 289.5 17.4
308(10) 0.01023 289.6 17.1
298(9) 0.01152 289.6 16.9
331(9) 0.01120 289.6 16.6
304(9) 0.01177 289.6 16.4
309(9) 0.01113 289.6 16.2
307(9) 0.01126 289.7 16.1
305(9) 0.01152 289.7 15.9
300(9) 0.01233 289.7 15.7
305(9) 0.01207 289.7 15.6
306(9) 0.01126 289.7 15.5
292(9) 0.01137 289.8 15.3
290(9) 0.01185 289.8 15.2
303(9) 0.01241 289.8 15.1
313(9) 0.01129 289.8 15.0
311(10) 0.01062 289.8 15.0
321(10) 0.01033 289.9 14.9
321(10) 0.01065 289.9 14.8
307(9) 0.01221 289.9 14.8
288(9) 0.01253 289.9 14.7
289(9) 0.01213 289.9 14.7
306(9) 0.01111 290.0 14.7
313(9) 0.01159 290.0 14.7
283(9) 0.01312 290.0 14.6
276(9) 0.01231 290.0 14.6
289(9) 0.01175 290.0 14.7
313(9) 0.01135 290.1 14.7
323(9) 0.01140 290.1 14.7
329(9) 0.01134 290.1 14.7
314(10) 0.01092 290.1 14.8
304(10) 0.01082 290.1 14.8
300(9) 0.01189 290.2 14.9
308(9) 0.01152 290.2 15.0
314(9) 0.01190 290.2 15.1
340(10) 0.00992 290.2 15.2
272(9) 0.01234 290.2 15.3
313(10) 0.01093 290.3 15.5
322(9) 0.01152 290.3 15.6
323(9) 0.01158 290.3 15.8
306(9) 0.01140 290.3 15.9
325(10) 0.00988 290.3 16.1
335(10) 0.01038 290.4 16.3
335(9) 0.01113 290.4 16.6
326(9) 0.01138 290.4 16.8
302(9) 0.01147 290.4 17.1
323(10) 0.01008 290.4 17.3
336(10) 0.01028 290.5 17.6
309(9) 0.01210 290.5 17.9
301(9) 0.01231 290.5 18.2
321(10) 0.01065 290.5 18.6
308(10) 0.01084 290.6 18.9
321(10) 0.01094 290.6 19.2
329(9) 0.01127 290.6 19.6
314(9) 0.01176 290.6 19.9
331(10) 0.01047 290.6 20.2
338(10) 0.00970 290.7 20.5
312(9) 0.01113 290.7 20.7
331(9) 0.01132 290.7 20.9
341(10) 0.01062 290.7 21.1
339(10) 0.01055 290.7 21.2
349(10) 0.00930 290.8 21.3
336(10) 0.01025 290.8 21.2
321(9) 0.01156 290.8 21.2
325(9) 0.01113 290.8 21.0
338(10) 0.01041 290.8 20.8
328(10) 0.01044 290.9 20.5
310(9) 0.01178 290.9 20.1
345(10) 0.01090 290.9 19.7
331(10) 0.01106 290.9 19.3
328(10) 0.01011 290.9 18.8
309(9) 0.01135 291.0 18.3
330(10) 0.01085 291.0 17.8
313(9) 0.01199 291.0 17.3
299(9) 0.01166 291.0 16.8
321(10) 0.01043 291.0 16.3
324(10) 0.01091 291.1 15.8
309(9) 0.01207 291.1 15.3
308(9) 0.01213 291.1 14.8
328(10) 0.01022 291.1 14.4
333(10) 0.00975 291.1 13.9
326(10) 0.01069 291.2 13.5
314(9) 0.01166 291.2 13.1
315(9) 0.01189 291.2 12.7
286(9) 0.01253 291.2 12.4
305(10) 0.01080 291.2 12.0
298(9) 0.01221 291.3 11.7
314(9) 0.01183 291.3 11.4
324(9) 0.01132 291.3 11.1
300(9) 0.01180 291.3 10.9
316(10) 0.01031 291.3 10.6
302(9) 0.01203 291.4 10.4
294(9) 0.01269 291.4 10.1
269(9) 0.01350 291.4 9.9
301(9) 0.01147 291.4 9.7
306(10) 0.01018 291.4 9.5
302(9) 0.01163 291.5 9.3
300(9) 0.01233 291.5 9.2
307(9) 0.01209 291.5 9.0
291(9) 0.01191 291.5 8.9
307(10) 0.01082 291.5 8.7
321(9) 0.01117 291.6 8.6
323(9) 0.01150 291.6 8.5
279(9) 0.01329 291.6 8.3
277(9) 0.01273 291.6 8.2
292(10) 0.01104 291.7 8.1
286(9) 0.01193 291.7 8.0
308(9) 0.01209 291.7 7.9
314(9) 0.01167 291.7 7.9
311(9) 0.01119 291.7 7.8
292(9) 0.01180 291.8 7.7
287(9) 0.01199 291.8 7.6
330(9) 0.01126 291.8 7.6
308(9) 0.01146 291.8 7.5
302(9) 0.01167 291.8 7.5
323(10) 0.01079 291.9 7.4
309(9) 0.01168 291.9 7.4
311(9) 0.01190 291.9 7.3
311(9) 0.01122 291.9 7.3
328(10) 0.01044 291.9 7.3
297(9) 0.01190 292.0 7.2
311(9) 0.01147 292.0 7.2
300(9) 0.01239 292.0 7.2
304(9) 0.01175 292.0 7.1
303(9) 0.01134 292.0 7.1
316(10) 0.01079 292.1 7.1
297(9) 0.01232 292.1 7.0
307(9) 0.01215 292.1 7.0
315(10) 0.01092 292.1 7.0
314(10) 0.01063 292.1 7.0
317(10) 0.01104 292.2 6.9
299(9) 0.01224 292.2 6.9
277(9) 0.01328 292.2 6.9
304(9) 0.01145 292.2 6.9
310(10) 0.01081 292.2 6.9
325(10) 0.01090 292.3 6.9
336(10) 0.01106 292.3 6.9
293(9) 0.01259 292.3 6.9
286(9) 0.01213 292.3 6.9
280(9) 0.01195 292.3 6.9
308(9) 0.01132 292.4 6.9
319(9) 0.01151 292.4 6.9
326(9) 0.01148 292.4 7.0
333(10) 0.01020 292.4 7.0
316(10) 0.01024 292.4 7.0
295(9) 0.01179 292.5 7.1
302(9) 0.01214 292.5 7.1
293(9) 0.01203 292.5 7.1
299(9) 0.01121 292.5 7.2
303(10) 0.01082 292.5 7.2
311(9) 0.01175 292.5 7.3
308(9) 0.01206 292.5 7.4
298(9) 0.01234 292.5 7.4
333(10) 0.01059 292.6 7.5
313(10) 0.01082 292.6 7.5
279(9) 0.01272 292.6 7.6
287(9) 0.01308 292.6 7.7
315(9) 0.01154 292.6 7.7
277(9) 0.01285 292.6 7.8
304(10) 0.01099 292.6 7.9
307(9) 0.01120 292.6 7.9
290(9) 0.01281 292.6 8.0
292(9) 0.01176 292.6 8.1
303(9) 0.01131 292.6 8.1
289(9) 0.01233 292.6 8.2
310(9) 0.01148 292.7 8.2
308(9) 0.01201 292.7 8.3
314(9) 0.01112 292.7 8.3
304(9) 0.01134 292.7 8.3
312(9) 0.01111 292.7 8.4
317(9) 0.01126 292.7 8.4
325(9) 0.01141 292.7 8.4
286(9) 0.01240 292.7 8.4
300(9) 0.01128 292.7 8.4
301(9) 0.01173 292.7 8.4
274(9) 0.01288 292.7 8.4
309(9) 0.01204 292.8 8.3
308(9) 0.01110 292.8 8.3
296(9) 0.01166 292.8 8.3
276(9) 0.01288 292.8 8.3
276(9) 0.01307 292.8 8.2
314(9) 0.01170 292.8 8.2
310(10) 0.01094 292.8 8.2
279(9) 0.01164 292.8 8.1
293(9) 0.01190 292.8 8.1
323(9) 0.01114 292.8 8.0
304(9) 0.01211 292.8 8.0
322(10) 0.01068 292.9 7.9
324(10) 0.00984 292.9 7.9
303(10) 0.01105 292.9 7.8
298(9) 0.01235 292.9 7.8
321(9) 0.01139 292.9 7.7
310(9) 0.01151 292.9 7.7
291(9) 0.01120 292.9 7.6
290(9) 0.01179 292.9 7.6
315(9) 0.01162 292.9 7.5
338(10) 0.01093 292.9 7.5
310(9) 0.01121 292.9 7.4
290(9) 0.01168 292.9 7.3
314(10) 0.01107 293.0 7.3
311(9) 0.01184 293.0 7.2
307(9) 0.01164 293.0 7.2
297(9) 0.01157 293.0 7.1
313(10) 0.01060 293.0 7.1
301(9) 0.01156 293.0 7.0
297(9) 0.01245 293.0 7.0
299(9) 0.01208 293.0 6.9
300(9) 0.01168 293.0 6.9
313(10) 0.01075 293.0 6.8
285(9) 0.01247 293.0 6.8
319(9) 0.01157 293.1 6.7
278(9) 0.01279 293.1 6.7
299(9) 0.01150 293.1 6.7
319(10) 0.01063 293.1 6.6
290(9) 0.01234 293.1 6.6
320(9) 0.01153 293.1 6.5
292(9) 0.01221 293.1 6.5
284(9) 0.01132 293.1 6.5
292(9) 0.01163 293.1 6.4
294(9) 0.01166 293.1 6.4
307(9) 0.01214 293.1 6.4
304(9) 0.01176 293.2 6.3
349(10) 0.00953 293.2 6.3
286(9) 0.01239 293.2 6.3
310(9) 0.01158 293.2 6.2
325(9) 0.01153 293.2 6.2
281(9) 0.01225 293.2 6.2
311(10) 0.01085 293.2 6.1
316(10) 0.01077 293.2 6.1
315(9) 0.01125 293.2 6.1
319(9) 0.01186 293.2 6.1
321(10) 0.01104 293.2 6.1
322(10) 0.01047 293.2 6.0
288(9) 0.01223 293.3 6.0
293(9) 0.01234 293.3 6.0
301(9) 0.01225 293.3 6.0
314(9) 0.01110 293.3 6.0
310(10) 0.01072 293.3 6.0
329(10) 0.01038 293.3 5.9
293(9) 0.01261 293.3 5.9
316(9) 0.01166 293.3 5.9
314(10) 0.01088 293.3 5.9
304(10) 0.01026 293.3 5.9
290(9) 0.01185 293.3 5.9
293(9) 0.01284 293.4 5.9
323(9) 0.01140 293.4 5.9
324(10) 0.01029 293.4 5.9
305(10) 0.01084 293.4 5.9
313(9) 0.01142 293.4 6.0
285(9) 0.01315 293.4 6.0
300(9) 0.01234 293.4 6.0
291(9) 0.01185 293.4 6.0
302(10) 0.01078 293.4 6.0
320(10) 0.01060 293.4 6.0
317(9) 0.01170 293.4 6.1
308(9) 0.01191 293.5 6.1
303(9) 0.01143 293.5 6.1
319(10) 0.01050 293.5 6.2
295(9) 0.01212 293.5 6.2
291(9) 0.01269 293.5 6.3
306(9) 0.01155 293.5 6.3
298(9) 0.01178 293.5 6.4
297(9) 0.01120 293.5 6.4
298(9) 0.01162 293.5 6.5
285(9) 0.01305 293.5 6.6
297(9) 0.01216 293.5 6.7
326(10) 0.01040 293.6 6.7
288(9) 0.01154 293.6 6.8
288(9) 0.01235 293.6 6.9
320(9) 0.01175 293.6 7.0
300(9) 0.01142 293.6 7.2
306(9) 0.01122 293.6 7.3
296(9) 0.01196 293.6 7.4
307(9) 0.01160 293.6 7.6
307(9) 0.01209 293.6 7.7
319(10) 0.01092 293.6 7.9
304(9) 0.01117 293.6 8.1
282(9) 0.01215 293.6 8.3
319(10) 0.01075 293.7 8.5
292(9) 0.01279 293.7 8.7
294(9) 0.01179 293.7 9.0
317(10) 0.01032 293.7 9.2
289(9) 0.01220 293.7 9.5
279(9) 0.01319 293.7 9.8
324(9) 0.01136 293.7 10.0
285(9) 0.01241 293.7 10.4
290(9) 0.01127 293.7 10.7
312(10) 0.01101 293.7 11.0
306(9) 0.01195 293.7 11.4
319(9) 0.01153 293.8 11.7
318(10) 0.01091 293.8 12.1
291(10) 0.01100 293.8 12.5
326(10) 0.01048 293.8 12.9
334(9) 0.01117 293.8 13.3
313(9) 0.01193 293.8 13.6
297(9) 0.01191 293.8 14.0
314(10) 0.01037 293.8 14.4
308(9) 0.01148 293.8 14.7
289(9) 0.01286 293.8 15.0
310(9) 0.01168 293.8 15.3
321(10) 0.01053 293.9 15.6
294(9) 0.01154 293.9 15.8
325(10) 0.01037 293.9 15.9
319(9) 0.01178 293.9 16.0
330(10) 0.01092 293.9 16.1
315(10) 0.01080 293.9 16.1
302(9) 0.01110 293.9 16.0
320(10) 0.01094 293.9 15.9
277(9) 0.01334 293.9 15.8
313(9) 0.01169 293.9 15.6
309(9) 0.01139 293.9 15.4
322(10) 0.01063 293.9 15.2
333(10) 0.01064 294.0 15.0
293(9) 0.01266 294.0 14.7
303(9) 0.01160 294.0 14.4
305(9) 0.01128 294.0 14.2
308(10) 0.01072 294.0 13.9
317(10) 0.01084 294.0 13.6
309(9) 0.01219 294.0 13.4
308(9) 0.01121 294.0 13.1
311(9) 0.01128 294.0 12.9
324(10) 0.01075 294.0 12.7
306(9) 0.01186 294.0 12.5
289(9) 0.01277 294.1 12.3
317(10) 0.01101 294.1 12.1
294(9) 0.01204 294.1 11.9
318(10) 0.01093 294.1 11.8
322(9) 0.01113 294.1 11.7
331(9) 0.01122 294.1 11.6
294(9) 0.01177 294.1 11.5
302(10) 0.01095 294.1 11.4
297(9) 0.01199 294.1 11.4
288(9) 0.01253 294.1 11.3
310(9) 0.01188 294.1 11.3
306(10) 0.01091 294.2 11.3
326(10) 0.00976 294.2 11.3
297(9) 0.01190 294.2 11.3
294(9) 0.01249 294.2 11.4
313(9) 0.01182 294.2 11.4
328(10) 0.01064 294.2 11.5
294(9) 0.01108 294.2 11.6
275(9) 0.01282 294.2 11.7
312(9) 0.01169 294.2 11.8
317(9) 0.01172 294.2 11.9
286(9) 0.01191 294.2 12.1
299(10) 0.01055 294.2 12.3
286(9) 0.01250 294.3 12.5
312(9) 0.01185 294.3 12.7
300(9) 0.01220 294.3 13.0
266(9) 0.01301 294.3 13.2
308(10) 0.01025 294.3 13.5
309(9) 0.01119 294.3 13.9
314(9) 0.01177 294.3 14.3
310(9) 0.01206 294.3 14.7
308(9) 0.01133 294.3 15.1
306(10) 0.01064 294.3 15.6
307(10) 0.01100 294.3 16.1
310(9) 0.01213 294.4 16.7
329(10) 0.01105 294.4 17.3
303(9) 0.01160 294.4 18.0
316(10) 0.01050 294.4 18.6
313(10) 0.01088 294.4 19.4
307(9) 0.01223 294.4 20.1
308(9) 0.01185 294.4 20.9
312(10) 0.01086 294.4 21.7
321(10) 0.01028 294.4 22.6
308(9) 0.01142 294.4 23.4
325(9) 0.01144 294.4 24.3
321(10) 0.01075 294.5 25.1
320(10) 0.01059 294.5 25.9
308(9) 0.01148 294.5 26.6
339(10) 0.01029 294.5 27.3
328(9) 0.01142 294.5 27.9
348(10) 0.00967 294.5 28.3
325(10) 0.01038 294.5 28.7
317(10) 0.01084 294.5 28.8
328(10) 0.01073 294.5 28.9
330(9) 0.01123 294.5 28.7
322(10) 0.01066 294.5 28.5
335(10) 0.01024 294.6 28.0
331(10) 0.01064 294.6 27.5
324(9) 0.01115 294.6 26.8
333(9) 0.01113 294.6 26.0
322(10) 0.01088 294.6 25.2
309(10) 0.01087 294.6 24.3
332(10) 0.01038 294.6 23.3
297(9) 0.01261 294.6 22.4
314(9) 0.01180 294.6 21.5
329(10) 0.01066 294.6 20.5
311(10) 0.01064 294.6 19.6
316(9) 0.01116 294.6 18.7
297(9) 0.01269 294.7 17.8
294(9) 0.01245 294.7 17.0
314(9) 0.01121 294.7 16.2
310(10) 0.01022 294.7 15.5
306(9) 0.01115 294.7 14.8
301(9) 0.01227 294.7 14.1
284(9) 0.01300 294.7 13.5
302(10) 0.01105 294.7 13.0
308(10) 0.01042 294.7 12.4
312(10) 0.01092 294.7 12.0
296(9) 0.01278 294.7 11.5
295(9) 0.01245 294.8 11.1
299(9) 0.01172 294.8 10.7
317(10) 0.01040 294.8 10.4
302(9) 0.01189 294.8 10.0
312(9) 0.01191 294.8 9.8
296(9) 0.01219 294.8 9.5
321(10) 0.01063 294.8 9.3
327(10) 0.01032 294.8 9.1
333(10) 0.01024 294.8 8.9
329(9) 0.01133 294.8 8.7
315(9) 0.01137 294.8 8.5
288(9) 0.01207 294.9 8.4
312(10) 0.01104 294.9 8.3
301(9) 0.01171 294.9 8.2
326(9) 0.01140 294.9 8.1
320(10) 0.01102 294.9 8.0
341(10) 0.00967 294.9 7.9
307(10) 0.01100 294.9 7.8
300(9) 0.01168 294.9 7.8
270(9) 0.01359 294.9 7.7
279(9) 0.01240 294.9 7.6
289(9) 0.01199 294.9 7.6
313(9) 0.01117 294.9 7.5
316(9) 0.01127 295.0 7.5
283(9) 0.01311 295.0 7.4
302(9) 0.01128 295.0 7.4
293(9) 0.01174 295.0 7.3
309(9) 0.01142 295.0 7.3
325(9) 0.01108 295.0 7.2
313(9) 0.01176 295.0 7.1
305(10) 0.01107 295.0 7.1
316(10) 0.01020 295.0 7.0
296(9) 0.01163 295.0 6.9
276(9) 0.01354 295.0 6.9
306(9) 0.01197 295.1 6.8
305(9) 0.01120 295.1 6.7
305(10) 0.01097 295.1 6.6
289(9) 0.01191 295.1 6.6
300(9) 0.01214 295.1 6.5
288(9) 0.01282 295.1 6.4
308(9) 0.01111 295.1 6.4
290(9) 0.01159 295.1 6.3
322(10) 0.01073 295.1 6.2
307(9) 0.01197 295.1 6.2
317(9) 0.01153 295.1 6.1
311(9) 0.01125 295.2 6.1
297(10) 0.01096 295.2 6.0
326(10) 0.01012 295.2 6.0
298(9) 0.01252 295.2 5.9
283(9) 0.01305 295.2 5.9
300(9) 0.01177 295.2 5.8
318(10) 0.00990 295.2 5.8
303(9) 0.01143 295.2 5.8
314(9) 0.01184 295.2 5.7
299(9) 0.01190 295.2 5.7
307(9) 0.01147 295.2 5.7
311(10) 0.01102 295.3 5.7
300(9) 0.01170 295.3 5.7
307(9) 0.01214 295.3 5.7
299(9) 0.01179 295.3 5.7
287(9) 0.01180 295.3 5.7
293(9) 0.01115 295.3 5.7
309(9) 0.01133 295.3 5.8
285(9) 0.01304 295.3 5.8
292(9) 0.01200 295.3 5.8
316(10) 0.01076 295.3 5.9
289(9) 0.01183 295.3 5.9
301(9) 0.01144 295.3 5.9
318(9) 0.01171 295.4 6.0
299(9) 0.01174 295.4 6.1
328(10) 0.01014 295.4 6.2
295(9) 0.01171 295.4 6.2
298(9) 0.01182 295.4 6.3
306(9) 0.01215 295.4 6.5
321(10) 0.01104 295.4 6.6
320(10) 0.01072 295.4 6.7
304(9) 0.01149 295.4 6.9
291(9) 0.01232 295.4 7.0
285(9) 0.01312 295.4 7.2
319(10) 0.01060 295.5 7.5
317(10) 0.01044 295.5 7.7
318(10) 0.01071 295.5 8.0
285(9) 0.01285 295.5 8.3
317(9) 0.01177 295.5 8.6
305(9) 0.01125 295.5 9.0
310(10) 0.01006 295.5 9.5
298(9) 0.01128 295.5 9.9
286(9) 0.01273 295.5 10.5
311(9) 0.01187 295.5 11.0
302(9) 0.01116 295.5 11.6
296(9) 0.01114 295.6 12.3
349(10) 0.00979 295.6 13.0
326(9) 0.01137 295.6 13.8
316(9) 0.01172 295.6 14.6
332(10) 0.01040 295.6 15.4
325(10) 0.00988 295.6 16.3
321(10) 0.01077 295.6 17.1
323(9) 0.01136 295.6 17.9
326(9) 0.01124 295.6 18.7
340(10) 0.01009 295.6 19.3
297(9) 0.01142 295.6 19.8
317(10) 0.01094 295.6 20.2
334(9) 0.01108 295.7 20.4
309(9) 0.01191 295.7 20.4
312(9) 0.01139 295.7 20.3
317(10) 0.01073 295.7 20.1
313(9) 0.01112 295.7 19.7
335(10) 0.01106 295.7 19.4
289(9) 0.01247 295.7 18.9
331(10) 0.01018 295.7 18.5
323(10) 0.01032 295.7 18.1
314(9) 0.01115 295.7 17.7
325(9) 0.01136 295.7 17.4
311(9) 0.01152 295.8 17.1
311(9) 0.01165 295.8 16.9
313(10) 0.01093 295.8 16.7
293(9) 0.01218 295.8 16.6
311(9) 0.01197 295.8 16.5
318(10) 0.01089 295.8 16.5
304(9) 0.01152 295.8 16.5
314(10) 0.01105 295.8 16.6
285(9) 0.01240 295.8 16.7
284(9) 0.01310 295.8 16.9
322(10) 0.01069 295.8 17.1
319(10) 0.01058 295.9 17.3
325(10) 0.01039 295.9 17.5
309(9) 0.01185 295.9 17.8
327(9) 0.01128 295.9 18.0
331(10) 0.01059 295.9 18.3
299(9) 0.01162 295.9 18.5
306(10) 0.01105 295.9 18.8
323(9) 0.01120 295.9 19.0
319(9) 0.01171 295.9 19.3
320(10) 0.01084 295.9 19.5
310(10) 0.01074 295.9 19.7
295(9) 0.01207 295.9 19.8
307(9) 0.01166 296.0 20.0
303(9) 0.01256 296.0 20.1
336(10) 0.01005 296.0 20.2
316(10) 0.01031 296.0 20.2
312(9) 0.01126 296.0 20.2
326(9) 0.01120 296.0 20.2
323(9) 0.01159 296.0 20.2
317(9) 0.01110 296.0 20.2
310(10) 0.01047 296.0 20.1
348(10) 0.00962 296.0 20.0
308(9) 0.01217 296.0 19.9
303(9) 0.01222 296.1 19.8
339(10) 0.01009 296.1 19.7
301(9) 0.01140 296.1 19.6
331(10) 0.01082 296.1 19.5
330(9) 0.01135 296.1 19.4
346(10) 0.01034 296.1 19.4
313(9) 0.01124 296.1 19.3
340(10) 0.00978 296.1 19.2
338(10) 0.01043 296.1 19.2
333(9) 0.01126 296.1 19.2
316(9) 0.01148 296.1 19.2
314(10) 0.01097 296.2 19.3
324(10) 0.01005 296.2 19.4
319(9) 0.01112 296.2 19.5
318(9) 0.01171 296.2 19.6
303(9) 0.01189 296.2 19.8
290(9) 0.01263 296.2 20.1
312(10) 0.01090 296.2 20.3
321(9) 0.01127 296.2 20.6
337(10) 0.01102 296.2 21.0
299(9) 0.01181 296.2 21.4
311(10) 0.01075 296.2 21.8
314(10) 0.01079 296.3 22.3
328(10) 0.01046 296.3 22.8
321(9) 0.01156 296.3 23.3
303(9) 0.01148 296.3 23.8
321(10) 0.01023 296.3 24.3
346(10) 0.00966 296.3 24.8
324(10) 0.01076 296.3 25.3
323(9) 0.01169 296.3 25.8
331(10) 0.01047 296.3 26.2
317(10) 0.01071 296.3 26.4
320(10) 0.01057 296.3 26.6
319(9) 0.01131 296.3 26.7
341(10) 0.01081 296.4 26.6
323(10) 0.01052 296.4 26.4
304(10) 0.01067 296.4 26.1
325(10) 0.01034 296.4 25.6
317(9) 0.01141 296.4 25.0
311(9) 0.01199 296.4 24.4
320(10) 0.01059 296.4 23.7
299(10) 0.01099 296.4 22.9
314(10) 0.01050 296.4 22.2
334(10) 0.01088 296.4 21.4
323(9) 0.01165 296.4 20.6
325(10) 0.01079 296.5 19.8
286(9) 0.01206 296.5 19.1
329(10) 0.01050 296.5 18.4
325(9) 0.01141 296.5 17.7
333(10) 0.01097 296.5 17.1
307(9) 0.01122 296.5 16.5
310(10) 0.01044 296.5 16.0
309(9) 0.01109 296.5 15.5
318(9) 0.01181 296.5 15.0
354(10) 0.01000 296.5 14.6
323(10) 0.01091 296.5 14.2
310(10) 0.01079 296.6 13.9
306(9) 0.01169 296.6 13.6
341(10) 0.01087 296.6 13.4
335(10) 0.01079 296.6 13.1
302(9) 0.01181 296.6 13.0
300(10) 0.01054 296.6 12.8
323(10) 0.01033 296.6 12.7
293(9) 0.01254 296.6 12.7
326(10) 0.01094 296.6 12.7
296(9) 0.01159 296.6 12.7
312(10) 0.01069 296.6 12.7
312(10) 0.01070 296.6 12.8
298(9) 0.01250 296.7 13.0
293(9) 0.01240 296.7 13.1
282(9) 0.01309 296.7 13.4
312(10) 0.01100 296.7 13.6
312(9) 0.01145 296.7 14.0
285(9) 0.01294 296.7 14.3
299(9) 0.01167 296.7 14.7
320(10) 0.01069 296.7 15.2
316(10) 0.01107 296.7 15.7
319(9) 0.01154 296.7 16.3
296(9) 0.01259 296.7 16.9
306(10) 0.01084 296.8 17.6
321(10) 0.01033 296.8 18.3
296(9) 0.01192 296.8 19.0
287(9) 0.01244 296.8 19.8
319(9) 0.01162 296.8 20.6
277(9) 0.01293 296.8 21.4
304(10) 0.01074 296.8 22.2
305(9) 0.01163 296.8 23.0
313(9) 0.01199 296.8 23.7
304(9) 0.01221 296.8 24.3
335(10) 0.01044 296.8 24.9
330(10) 0.00991 296.9 25.3
303(9) 0.01134 296.9 25.6
308(9) 0.01196 296.9 25.7
312(9) 0.01193 296.9 25.7
327(10) 0.01022 296.9 25.4
301(10) 0.01089 296.9 25.1
319(10) 0.01060 296.9 24.6
319(9) 0.01159 296.9 23.9
329(10) 0.01074 296.9 23.2
321(10) 0.01089 296.9 22.4
334(10) 0.00949 296.9 21.6
283(9) 0.01255 296.9 20.7
325(9) 0.01135 297.0 19.9
308(9) 0.01196 297.0 19.0
326(10) 0.01064 297.0 18.2
301(9) 0.01109 297.0 17.4
291(9) 0.01199 297.0 16.6
299(9) 0.01243 297.0 15.9
328(10) 0.01099 297.0 15.3
329(10) 0.01064 297.0 14.6
311(10) 0.01085 297.0 14.1
316(10) 0.01097 297.0 13.6
345(10) 0.01077 297.0 13.1
318(9) 0.01125 297.1 12.7
305(9) 0.01125 297.1 12.3
306(10) 0.01092 297.1 12.0
305(9) 0.01150 297.1 11.7
337(10) 0.01100 297.1 11.5
323(10) 0.01077 297.1 11.3
308(9) 0.01113 297.1 11.1
293(9) 0.01142 297.1 11.0
285(9) 0.01169 297.1 10.9
298(9) 0.01249 297.1 10.9
308(9) 0.01123 297.1 10.9
305(9) 0.01137 297.2 11.0
294(9) 0.01167 297.2 11.1
281(9) 0.01284 297.2 11.3
293(9) 0.01263 297.2 11.6
311(9) 0.01122 297.2 11.8
294(9) 0.01186 297.2 12.2
298(9) 0.01162 297.2 12.6
307(9) 0.01172 297.2 13.0
286(9) 0.01304 297.2 13.6
326(10) 0.01086 297.2 14.1
294(9) 0.01139 297.2 14.7
286(9) 0.01228 297.3 15.3
316(9) 0.01143 297.3 15.9
303(9) 0.01223 297.3 16.5
311(9) 0.01134 297.3 17.0
318(10) 0.01017 297.3 17.4
304(9) 0.01148 297.3 17.6
317(9) 0.01126 297.3 17.7
322(9) 0.01159 297.3 17.7
338(10) 0.00972 297.3 17.5
331(10) 0.00971 297.3 17.2
317(10) 0.01088 297.3 16.7
319(9) 0.01156 297.3 16.3
311(9) 0.01189 297.4 15.8
325(10) 0.01075 297.4 15.3
335(10) 0.00976 297.4 14.9
329(10) 0.01055 297.4 14.5
312(9) 0.01195 297.4 14.1
317(9) 0.01138 297.4 13.8
270(9) 0.01296 297.4 13.5
316(10) 0.01015 297.4 13.3
323(10) 0.01062 297.4 13.2
309(9) 0.01212 297.4 13.0
320(9) 0.01132 297.4 13.0
287(9) 0.01241 297.5 12.9
311(10) 0.01093 297.5 12.9
302(9) 0.01199 297.5 12.9
290(9) 0.01286 297.5 13.0
322(10) 0.01102 297.5 13.1
302(9) 0.01137 297.5 13.2
291(9) 0.01140 297.5 13.3
315(10) 0.01106 297.5 13.5
305(9) 0.01201 297.5 13.6
322(10) 0.01106 297.5 13.8
286(9) 0.01246 297.5 14.1
309(10) 0.01080 297.6 14.3
308(10) 0.01090 297.6 14.6
325(9) 0.01141 297.6 14.8
300(9) 0.01181 297.6 15.2
296(9) 0.01162 297.6 15.5
308(9) 0.01145 297.6 15.9
324(9) 0.01117 297.6 16.3
291(9) 0.01260 297.6 16.7
309(9) 0.01136 297.6 17.2
306(10) 0.01085 297.6 17.8
323(10) 0.01069 297.6 18.4
320(9) 0.01145 297.6 19.0
321(9) 0.01148 297.7 19.8
333(10) 0.01040 297.7 20.6
329(10) 0.00996 297.7 21.5
333(10) 0.01011 297.7 22.5
310(9) 0.01166 297.7 23.7
334(9) 0.01121 297.7 24.9
307(9) 0.01137 297.7 26.4
312(10) 0.01075 297.7 27.9
327(10) 0.01103 297.7 29.7
337(10) 0.01098 297.7 31.6
341(10) 0.01088 297.7 33.8
337(10) 0.01019 297.8 36.1
344(10) 0.00918 297.8 38.7
360(10) 0.00940 297.8 41.5
383(10) 0.00950 297.8 44.6
337(9) 0.01114 297.8 47.9
346(10) 0.01012 297.8 51.5
348(10) 0.00946 297.8 55.2
367(10) 0.00962 297.8 59.2
361(10) 0.01023 297.8 63.4
396(10) 0.00938 297.8 67.7
380(10) 0.00917 297.8 72.1
426(12) 0.00744 297.9 76.5
423(11) 0.00824 297.9 80.8
405(10) 0.00920 297.9 84.8
419(11) 0.00882 297.9 88.6
429(11) 0.00815 297.9 91.8
406(11) 0.00834 297.9 94.4
429(11) 0.00810 297.9 96.3
410(11) 0.00906 297.9 97.3
432(11) 0.00842 297.9 97.4
448(11) 0.00760 297.9 96.6
415(11) 0.00767 297.9 95.0
374(10) 0.00932 297.9 92.6
388(10) 0.00960 298.0 89.5
374(10) 0.00955 298.0 86.0
371(11) 0.00899 298.0 82.0
360(10) 0.00934 298.0 77.8
355(10) 0.00982 298.0 73.4
365(10) 0.01005 298.0 69.0
359(10) 0.01014 298.0 64.7
348(10) 0.00971 298.0 60.5
352(10) 0.00983 298.0 56.4
374(10) 0.00943 298.0 52.5
368(10) 0.01023 298.0 48.9
354(10) 0.00999 298.1 45.4
312(10) 0.01083 298.1 42.2
335(10) 0.01024 298.1 39.2
319(9) 0.01155 298.1 36.4
333(10) 0.01093 298.1 33.9
333(10) 0.01045 298.1 31.6
323(10) 0.01052 298.1 29.4
334(10) 0.01027 298.1 27.5
300(9) 0.01229 298.1 25.8
310(9) 0.01179 298.1 24.2
308(9) 0.01122 298.1 22.7
321(10) 0.01027 298.2 21.4
309(9) 0.01163 298.2 20.3
313(9) 0.01161 298.2 19.2
302(9) 0.01223 298.2 18.2
316(10) 0.01099 298.2 17.4
342(10) 0.00938 298.2 16.6
334(10) 0.01070 298.2 15.9
308(9) 0.01204 298.2 15.3
306(9) 0.01195 298.2 14.7
292(9) 0.01206 298.2 14.2
311(10) 0.00985 298.2 13.7
314(10) 0.01064 298.3 13.3
321(9) 0.01130 298.3 12.9
296(9) 0.01251 298.3 12.5
322(10) 0.01095 298.3 12.2
307(10) 0.01063 298.3 11.9
333(10) 0.01037 298.3 11.6
332(9) 0.01113 298.3 11.4
321(9) 0.01161 298.3 11.1
303(9) 0.01176 298.3 10.9
306(10) 0.01059 298.3 10.7
299(9) 0.01130 298.3 10.6
298(9) 0.01211 298.3 10.4
298(9) 0.01251 298.4 10.3
315(10) 0.01089 298.4 10.2
338(10) 0.00970 298.4 10.0
291(9) 0.01160 298.4 9.9
316(9) 0.01178 298.4 9.8
306(9) 0.01158 298.4 9.8
296(9) 0.01130 298.4 9.7
296(9) 0.01121 298.4 9.6
313(10) 0.01087 298.4 9.5
327(9) 0.01137 298.4 9.5
320(9) 0.01131 298.4 9.4
315(10) 0.01100 298.5 9.3
321(10) 0.01051 298.5 9.3
285(9) 0.01213 298.5 9.2
333(9) 0.01114 298.5 9.2
307(9) 0.01163 298.5 9.1
320(10) 0.01072 298.5 9.0
317(10) 0.01097 298.5 9.0
324(10) 0.01071 298.5 8.9
303(9) 0.01231 298.5 8.8
310(9) 0.01131 298.5 8.7
313(10) 0.01083 298.5 8.7
304(9) 0.01121 298.6 8.6
294(9) 0.01258 298.6 8.5
303(9) 0.01231 298.6 8.5
311(9) 0.01119 298.6 8.4
316(10) 0.01036 298.6 8.4
296(9) 0.01168 298.6 8.3
308(9) 0.01192 298.6 8.3
327(9) 0.01112 298.6 8.2
311(9) 0.01119 298.6 8.2
327(10) 0.01012 298.6 8.2
313(9) 0.01122 298.6 8.1
309(9) 0.01205 298.6 8.1
299(9) 0.01230 298.7 8.1
290(9) 0.01186 298.7 8.1
298(10) 0.01043 298.7 8.1
311(9) 0.01140 298.7 8.1
328(9) 0.01119 298.7 8.1
345(10) 0.01056 298.7 8.2
303(9) 0.01125 298.7 8.2
298(10) 0.01064 298.7 8.2
315(9) 0.01109 298.7 8.3
275(9) 0.01348 298.7 8.3
304(9) 0.01175 298.7 8.4
325(10) 0.01056 298.7 8.4
334(10) 0.00954 298.7 8.5
306(9) 0.01139 298.7 8.6
302(9) 0.01228 298.7 8.6
302(9) 0.01223 298.7 8.7
307(10) 0.01092 298.7 8.8
293(10) 0.01105 298.7 8.9
294(9) 0.01190 298.7 9.0
330(9) 0.01118 298.6 9.1
285(9) 0.01285 298.6 9.2
316(10) 0.01061 298.6 9.3
301(9) 0.01165 298.6 9.4
314(9) 0.01124 298.6 9.5
297(9) 0.01252 298.6 9.6
304(9) 0.01147 298.6 9.7
313(10) 0.01067 298.6 9.8
304(9) 0.01153 298.6 9.9
312(9) 0.01110 298.6 10.0
294(9) 0.01266 298.6 10.1
315(9) 0.01118 298.6 10.2
299(9) 0.01129 298.6 10.2
299(9) 0.01116 298.5 10.3
283(9) 0.01257 298.5 10.4
315(9) 0.01183 298.5 10.4
297(9) 0.01164 298.5 10.5
312(10) 0.01090 298.5 10.5
316(10) 0.01105 298.5 10.6
302(9) 0.01213 298.5 10.6
302(9) 0.01235 298.5 10.6
329(10) 0.01033 298.5 10.7
307(10) 0.01096 298.5 10.7
331(10) 0.01023 298.5 10.7
313(9) 0.01182 298.5 10.7
285(9) 0.01293 298.5 10.8
296(9) 0.01168 298.4 10.8
304(10) 0.01078 298.4 10.8
310(9) 0.01120 298.4 10.8
304(9) 0.01197 298.4 10.8
303(9) 0.01255 298.4 10.8
297(9) 0.01173 298.4 10.9
322(10) 0.00999 298.4 10.9
299(9) 0.01186 298.4 10.9
292(9) 0.01293 298.4 10.9
331(9) 0.01110 298.4 11.0
326(9) 0.01117 298.4 11.0
287(9) 0.01167 298.4 11.0
304(9) 0.01137 298.4 11.1
306(9) 0.01199 298.4 11.1
295(9) 0.01225 298.3 11.2
292(9) 0.01209 298.3 11.2
309(10) 0.01064 298.3 11.2
314(10) 0.01103 298.3 11.3
308(9) 0.01203 298.3 11.4
310(9) 0.01138 298.3 11.4
314(10) 0.01090 298.3 11.5
305(10) 0.01064 298.3 11.6
291(9) 0.01162 298.3 11.6
327(9) 0.01143 298.3 11.7
315(9) 0.01162 298.3 11.8
303(9) 0.01138 298.3 11.9
316(10) 0.01055 298.3 12.0
294(9) 0.01191 298.2 12.1
316(9) 0.01169 298.2 12.2
343(10) 0.01056 298.2 12.3
333(10) 0.01052 298.2 12.5
315(9) 0.01110 298.2 12.6
299(9) 0.01178 298.2 12.8
299(9) 0.01243 298.2 13.0
304(9) 0.01137 298.2 13.1
310(9) 0.01129 298.2 13.3
319(9) 0.01132 298.2 13.5
351(10) 0.01038 298.2 13.8
319(9) 0.01157 298.2 14.0
315(10) 0.01094 298.2 14.2
310(10) 0.01105 298.1 14.5
314(10) 0.01103 298.1 14.8
289(9) 0.01250 298.1 15.1
323(9) 0.01148 298.1 15.4
299(9) 0.01138 298.1 15.8
304(10) 0.01094 298.1 16.1
320(10) 0.01069 298.1 16.5
317(9) 0.01156 298.1 16.9
301(9) 0.01241 298.1 17.4
281(9) 0.01198 298.1 17.8
306(10) 0.01050 298.1 18.3
336(10) 0.01008 298.1 18.8
333(10) 0.01075 298.1 19.4
324(9) 0.01149 298.0 19.9
323(10) 0.01071 298.0 20.5
336(10) 0.00946 298.0 21.1
306(9) 0.01144 298.0 21.8
322(9) 0.01133 298.0 22.5
338(10) 0.01095 298.0 23.2
295(9) 0.01173 298.0 24.0
304(10) 0.01038 298.0 24.8
324(10) 0.01036 298.0 25.6
322(9) 0.01147 298.0 26.5
327(9) 0.01117 298.0 27.4
302(9) 0.01165 298.0 28.3
329(10) 0.01004 298.0 29.3
330(10) 0.01050 297.9 30.3
334(9) 0.01116 297.9 31.3
347(10) 0.01064 297.9 32.4
320(9) 0.01118 297.9 33.5
342(10) 0.00967 297.9 34.6
354(10) 0.01015 297.9 35.8
341(10) 0.01094 297.9 37.0
346(10) 0.01042 297.9 38.2
345(10) 0.01005 297.9 39.4
360(10) 0.00936 297.9 40.7
345(10) 0.01031 297.9 41.9
350(10) 0.01065 297.9 43.2
334(10) 0.01089 297.9 44.4
329(10) 0.01045 297.8 45.7
364(11) 0.00905 297.8 46.9
361(10) 0.00937 297.8 48.1
320(9) 0.01166 297.8 49.3
372(10) 0.00938 297.8 50.4
348(10) 0.00982 297.8 51.5
365(10) 0.00908 297.8 52.6
373(10) 0.00919 297.8 53.6
381(10) 0.00976 297.8 54.5
351(10) 0.00987 297.8 55.3
343(10) 0.00960 297.8 56.1
363(10) 0.00954 297.8 56.9
379(10) 0.00947 297.8 57.5
365(10) 0.01017 297.8 58.0
377(10) 0.00912 297.7 58.5
342(10) 0.01016 297.7 58.8
354(10) 0.01007 297.7 59.1
351(10) 0.01046 297.7 59.2
342(10) 0.01083 297.7 59.2
346(10) 0.00990 297.7 59.1
375(11) 0.00852 297.7 58.8
354(10) 0.00961 297.7 58.4
347(10) 0.01039 297.7 57.9
353(10) 0.01064 297.7 57.3
351(10) 0.00980 297.7 56.5
344(10) 0.00947 297.7 55.5
381(11) 0.00872 297.7 54.5
374(10) 0.00971 297.6 53.4
352(10) 0.01068 297.6 52.1
333(10) 0.01019 297.6 50.8
325(10) 0.00965 297.6 49.5
319(10) 0.01079 297.6 48.1
334(10) 0.01091 297.6 46.6
338(9) 0.01113 297.6 45.2
360(10) 0.00990 297.6 43.7
324(10) 0.01044 297.6 42.3
327(10) 0.01045 297.6 40.8
327(9) 0.01131 297.6 39.4
342(10) 0.01091 297.6 38.0
335(10) 0.01019 297.6 36.7
323(10) 0.01012 297.5 35.4
309(9) 0.01155 297.5 34.2
340(10) 0.01098 297.5 32.9
297(9) 0.01228 297.5 31.8
313(9) 0.01117 297.5 30.7
324(10) 0.01005 297.5 29.6
311(10) 0.01091 297.5 28.6
320(9) 0.01172 297.5 27.6
324(9) 0.01119 297.5 26.7
324(10) 0.01092 297.5 25.8
307(10) 0.01082 297.5 25.0
304(9) 0.01135 297.5 24.2
308(9) 0.01211 297.5 23.5
330(10) 0.01075 297.4 22.8
332(10) 0.01060 297.4 22.1
319(10) 0.01076 297.4 21.5
318(9) 0.01131 297.4 20.9
316(9) 0.01184 297.4 20.4
307(9) 0.01148 297.4 19.8
294(9) 0.01166 297.4 19.3
303(9) 0.01115 297.4 18.9
304(9) 0.01155 297.4 18.4
300(9) 0.01246 297.4 18.0
315(10) 0.01102 297.4 17.6
290(9) 0.01167 297.4 17.2
303(9) 0.01141 297.4 16.9
302(9) 0.01206 297.3 16.5
319(9) 0.01170 297.3 16.2
312(10) 0.01100 297.3 15.9
289(9) 0.01155 297.3 15.6
283(9) 0.01227 297.3 15.4
333(10) 0.01101 297.3 15.1
313(9) 0.01201 297.3 14.8
294(9) 0.01168 297.3 14.6
307(10) 0.01058 297.3 14.4
303(9) 0.01172 297.3 14.2
293(9) 0.01266 297.3 14.0
302(9) 0.01221 297.3 13.7
328(10) 0.01089 297.3 13.6
302(10) 0.01080 297.2 13.4
300(9) 0.01109 297.2 13.2
291(9) 0.01288 297.2 13.0
297(9) 0.01259 297.2 12.8
322(10) 0.01090 297.2 12.7
316(10) 0.01057 297.2 12.5
305(9) 0.01154 297.2 12.4
315(9) 0.01185 297.2 12.2
291(9) 0.01251 297.2 12.1
304(9) 0.01159 297.2 11.9
308(10) 0.01068 297.2 11.8
293(9) 0.01166 297.2 11.7
325(9) 0.01138 297.2 11.5
292(9) 0.01234 297.1 11.4
298(10) 0.01099 297.1 11.3
321(10) 0.00959 297.1 11.2
307(10) 0.01102 297.1 11.0
315(9) 0.01184 297.1 10.9
328(9) 0.01124 297.1 10.8
326(10) 0.01070 297.1 10.7
322(10) 0.01045 297.1 10.6
320(10) 0.01097 297.1 10.5
309(9) 0.01202 297.1 10.4
281(9) 0.01300 297.1 10.3
307(9) 0.01134 297.1 10.2
303(9) 0.01139 297.1 10.1
294(9) 0.01125 297.1 10.0
312(9) 0.01192 297.0 9.9
308(9) 0.01140 297.0 9.8
313(10) 0.01081 297.0 9.7
297(9) 0.01147 297.0 9.6
311(9) 0.01127 297.0 9.6
321(9) 0.01153 297.0 9.5
313(9) 0.01117 297.0 9.4
300(9) 0.01157 297.0 9.3
270(9) 0.01366 297.0 9.3
288(9) 0.01301 297.0 9.2
297(9) 0.01239 297.0 9.1
304(10) 0.01107 297.0 9.1
292(9) 0.01156 297.0 9.0
304(9) 0.01183 296.9 8.9
302(9) 0.01220 296.9 8.9
295(9) 0.01259 296.9 8.8
296(9) 0.01164 296.9 8.8
284(9) 0.01181 296.9 8.7
303(9) 0.01162 296.9 8.6
309(9) 0.01180 296.9 8.6
287(9) 0.01318 296.9 8.6
287(9) 0.01248 296.9 8.5
303(10) 0.01068 296.9 8.5
291(9) 0.01183 296.9 8.4
311(9) 0.01174 296.9 8.4
298(9) 0.01261 296.9 8.4
291(9) 0.01162 296.8 8.3
284(9) 0.01147 296.8 8.3
300(9) 0.01116 296.8 8.3
303(9) 0.01209 296.8 8.2
288(9) 0.01298 296.8 8.2
293(9) 0.01221 296.8 8.2
302(9) 0.01112 296.8 8.2
288(9) 0.01170 296.8 8.2
285(9) 0.01310 296.8 8.2
297(9) 0.01253 296.8 8.1
291(9) 0.01165 296.8 8.1
308(10) 0.01089 296.8 8.1
289(9) 0.01167 296.8 8.1
304(9) 0.01210 296.7 8.1
307(9) 0.01168 296.7 8.1
285(9) 0.01245 296.7 8.1
276(9) 0.01231 296.7 8.1
310(9) 0.01133 296.7 8.1
310(9) 0.01205 296.7 8.2
307(9) 0.01173 296.7 8.2
319(10) 0.01050 296.7 8.2
315(10) 0.01050 296.7 8.2
300(9) 0.01160 296.7 8.2
291(9) 0.01269 296.7 8.2
316(9) 0.01144 296.7 8.3
316(10) 0.01097 296.7 8.3
291(9) 0.01183 296.6 8.3
295(9) 0.01157 296.6 8.4
294(9) 0.01274 296.6 8.4
268(9) 0.01302 296.6 8.4
283(9) 0.01226 296.6 8.5
313(10) 0.01103 296.6 8.5
310(9) 0.01155 296.6 8.6
294(9) 0.01261 296.6 8.6
293(9) 0.01207 296.6 8.7
311(9) 0.01114 296.6 8.7
301(9) 0.01150 296.6 8.8
287(9) 0.01239 296.6 8.8
277(9) 0.01350 296.6 8.9
273(9) 0.01290 296.5 8.9
292(10) 0.01091 296.5 9.0
291(9) 0.01154 296.5 9.1
274(9) 0.01352 296.5 9.1
302(9) 0.01230 296.5 9.2
284(9) 0.01205 296.5 9.3
292(9) 0.01113 296.5 9.4
301(9) 0.01173 296.5 9.4
306(9) 0.01206 296.5 9.5
302(9) 0.01227 296.5 9.6
303(9) 0.01154 296.5 9.7
292(10) 0.01096 296.5 9.8
313(10) 0.01105 296.5 9.8
324(9) 0.01155 296.4 9.9
306(9) 0.01200 296.4 10.0
290(9) 0.01225 296.4 10.1
296(9) 0.01141 296.4 10.2
316(10) 0.01095 296.4 10.2
281(9) 0.01332 296.4 10.3
306(9) 0.01208 296.4 10.4
323(10) 0.01066 296.4 10.5
310(10) 0.01086 296.4 10.6
310(10) 0.01100 296.4 10.6
295(9) 0.01244 296.4 10.7
293(9) 0.01252 296.4 10.8
284(9) 0.01236 296.4 10.9
291(9) 0.01130 296.4 10.9
311(10) 0.01074 296.3 11.0
308(9) 0.01206 296.3 11.1
282(9) 0.01230 296.3 11.2
302(9) 0.01137 296.3 11.2
289(9) 0.01212 296.3 11.3
317(10) 0.01096 296.3 11.4
283(9) 0.01317 296.3 11.4
296(9) 0.01149 296.3 11.5
282(9) 0.01250 296.3 11.6
298(9) 0.01152 296.3 11.6
304(9) 0.01194 296.3 11.7
287(9) 0.01301 296.3 11.8
325(10) 0.01090 296.3 11.8
317(10) 0.01069 296.2 11.9
322(10) 0.01050 296.2 11.9
314(9) 0.01163 296.2 12.0
304(9) 0.01220 296.2 12.1
315(10) 0.01094 296.2 12.1
306(10) 0.01067 296.2 12.2
322(10) 0.01077 296.1 12.3
317(9) 0.01177 296.1 12.4
280(9) 0.01320 296.1 12.4
294(9) 0.01154 296.1 12.5
295(9) 0.01173 296.0 12.6
311(9) 0.01133 296.0 12.6
317(9) 0.01125 296.0 12.7
310(9) 0.01185 296.0 12.8
308(9) 0.01152 295.9 12.8
278(9) 0.01194 295.9 12.9
305(9) 0.01114 295.9 13.0
297(9) 0.01226 295.9 13.0
296(9) 0.01279 295.8 13.1
282(9) 0.01266 295.8 13.2
319(10) 0.00978 295.8 13.2
324(10) 0.01065 295.8 13.3
283(9) 0.01322 295.7 13.3
312(9) 0.01168 295.7 13.4
310(9) 0.01117 295.7 13.4
297(9) 0.01126 295.7 13.4
299(9) 0.01200 295.6 13.5
303(9) 0.01212 295.6 13.5
316(9) 0.01172 295.6 13.5
326(10) 0.01076 295.6 13.5
311(10) 0.01094 295.5 13.5
323(10) 0.01075 295.5 13.5
302(9) 0.01249 295.5 13.5
289(9) 0.01252 295.5 13.5
330(10) 0.01052 295.4 13.5
321(10) 0.01021 295.4 13.4
312(10) 0.01088 295.4 13.4
308(9) 0.01198 295.4 13.4
282(9) 0.01245 295.3 13.3
307(10) 0.01102 295.3 13.3
307(10) 0.01070 295.3 13.2
285(9) 0.01217 295.3 13.2
312(9) 0.01181 295.2 13.1
318(9) 0.01115 295.2 13.0
336(10) 0.00998 295.2 13.0
304(9) 0.01112 295.2 12.9
313(9) 0.01152 295.1 12.8
285(9) 0.01297 295.1 12.8
313(10) 0.01087 295.1 12.7
320(10) 0.01051 295.1 12.6
303(9) 0.01124 295.1 12.6
297(9) 0.01191 295.0 12.5
313(9) 0.01183 295.0 12.4
293(9) 0.01222 295.0 12.4
304(9) 0.01133 295.0 12.3
293(9) 0.01248 294.9 12.2
317(9) 0.01131 294.9 12.2
285(9) 0.01318 294.9 12.1
307(9) 0.01118 294.9 12.0
319(10) 0.01012 294.8 12.0
303(9) 0.01168 294.8 11.9
293(9) 0.01242 294.8 11.9
281(9) 0.01315 294.8 11.8
278(9) 0.01262 294.7 11.8
319(10) 0.01006 294.7 11.8
307(9) 0.01180 294.7 11.7
325(9) 0.01143 294.7 11.7
295(9) 0.01252 294.6 11.7
286(9) 0.01260 294.6 11.6
273(9) 0.01260 294.6 11.6
294(9) 0.01184 294.6 11.6
308(9) 0.01190 294.5 11.6
326(9) 0.01126 294.5 11.6
293(9) 0.01212 294.5 11.6
331(10) 0.00954 294.5 11.7
297(9) 0.01207 294.4 11.7
291(9) 0.01304 294.4 11.8
306(9) 0.01187 294.4 11.8
314(9) 0.01122 294.4 11.9
312(10) 0.01026 294.3 12.0
296(9) 0.01164 294.3 12.2
290(9) 0.01273 294.3 12.3
316(9) 0.01158 294.3 12.6
299(9) 0.01155 294.2 12.8
306(10) 0.01060 294.2 13.1
314(10) 0.01083 294.2 13.5
299(9) 0.01241 294.2 14.0
327(10) 0.01105 294.1 14.5
306(9) 0.01147 294.1 15.1
300(10) 0.01097 294.1 15.9
321(10) 0.01091 294.1 16.7
313(9) 0.01199 294.0 17.7
309(9) 0.01147 294.0 18.7
307(10) 0.01097 294.0 19.9
291(9) 0.01216 294.0 21.2
337(10) 0.01045 294.0 22.6
317(9) 0.01180 293.9 24.0
305(9) 0.01177 293.9 25.4
328(10) 0.01046 293.9 26.8
315(10) 0.01085 293.9 28.0
343(10) 0.01029 293.8 28.9
322(9) 0.01157 293.8 29.6
333(10) 0.01035 293.8 29.9
332(10) 0.01010 293.8 29.7
309(9) 0.01119 293.7 29.1
307(9) 0.01196 293.7 28.2
325(9) 0.01134 293.7 27.0
312(10) 0.01102 293.7 25.7
331(10) 0.01008 293.6 24.2
345(10) 0.00992 293.6 22.8
306(9) 0.01184 293.6 21.3
320(9) 0.01159 293.6 20.0
303(10) 0.01100 293.5 18.7
299(10) 0.01108 293.5 17.6
323(10) 0.01064 293.5 16.6
293(9) 0.01266 293.5 15.7
292(9) 0.01272 293.4 14.9
311(9) 0.01135 293.4 14.2
283(9) 0.01142 293.4 13.6
288(9) 0.01210 293.4 13.1
294(9) 0.01254 293.3 12.7
314(9) 0.01186 293.3 12.4
318(10) 0.01092 293.3 12.1
317(10) 0.01007 293.3 11.9
279(9) 0.01276 293.2 11.7
278(9) 0.01339 293.2 11.6
305(9) 0.01191 293.2 11.5
334(10) 0.01043 293.2 11.4
316(10) 0.01028 293.1 11.3
313(9) 0.01112 293.1 11.3
297(9) 0.01243 293.1 11.3
296(9) 0.01246 293.1 11.3
318(10) 0.01107 293.0 11.3
294(9) 0.01157 293.0 11.4
281(9) 0.01225 293.0 11.4
285(9) 0.01296 293.0 11.5
304(9) 0.01174 292.9 11.6
313(9) 0.01115 292.9 11.7
302(10) 0.01104 292.9 11.8
288(9) 0.01211 292.9 11.9
318(9) 0.01177 292.8 12.0
314(9) 0.01149 292.8 12.1
303(9) 0.01159 292.8 12.3
313(10) 0.01102 292.8 12.5
311(9) 0.01122 292.8 12.6
332(9) 0.01121 292.7 12.8
297(9) 0.01149 292.7 13.0
310(10) 0.01083 292.7 13.3
310(9) 0.01118 292.7 13.5
305(9) 0.01159 292.6 13.7
268(9) 0.01383 292.6 14.0
309(9) 0.01141 292.6 14.3
305(9) 0.01125 292.6 14.6
299(9) 0.01182 292.5 14.9
303(9) 0.01197 292.5 15.2
308(9) 0.01215 292.5 15.5
283(9) 0.01239 292.5 15.9
275(9) 0.01197 292.4 16.2
289(9) 0.01174 292.4 16.5
325(10) 0.01107 292.4 16.9
323(9) 0.01132 292.4 17.2
310(10) 0.01068 292.3 17.6
271(9) 0.01241 292.3 17.9
282(9) 0.01271 292.3 18.2
287(9) 0.01273 292.3 18.5
308(9) 0.01201 292.2 18.8
303(9) 0.01126 292.2 19.1
320(10) 0.00997 292.2 19.4
319(10) 0.01075 292.2 19.7
278(9) 0.01325 292.1 20.0
319(9) 0.01172 292.1 20.3
321(10) 0.01102 292.1 20.6
316(10) 0.01012 292.1 20.9
297(9) 0.01187 292.0 21.3
332(9) 0.01115 292.0 21.6
321(9) 0.01177 292.0 22.0
310(9) 0.01114 292.0 22.3
327(10) 0.00966 291.9 22.7
302(9) 0.01160 291.9 23.1
316(9) 0.01174 291.9 23.5
310(9) 0.01194 291.9 23.9
328(10) 0.01037 291.8 24.3
317(10) 0.01022 291.8 24.7
306(9) 0.01138 291.8 25.2
329(9) 0.01124 291.8 25.6
314(9) 0.01155 291.7 26.0
294(9) 0.01220 291.7 26.4
329(10) 0.00994 291.7 26.8
321(10) 0.01052 291.7 27.3
323(9) 0.01135 291.7 27.7
299(9) 0.01203 291.6 28.1
318(10) 0.01075 291.6 28.5
306(10) 0.01092 291.6 28.8
307(9) 0.01146 291.6 29.2
327(9) 0.01127 291.5 29.5
304(9) 0.01154 291.5 29.8
306(10) 0.01104 291.5 30.1
334(10) 0.00994 291.5 30.4
326(9) 0.01119 291.4 30.7
325(9) 0.01145 291.4 30.9
343(10) 0.01005 291.4 31.1
327(10) 0.01025 291.4 31.3
340(10) 0.00950 291.3 31.5
325(10) 0.01100 291.3 31.7
306(9) 0.01212 291.3 31.8
325(10) 0.01058 291.3 31.9
301(9) 0.01162 291.2 32.0
322(10) 0.01076 291.2 32.1
333(10) 0.01059 291.2 32.1
322(9) 0.01147 291.2 32.2
322(10) 0.01078 291.1 32.2
337(10) 0.00933 291.1 32.3
317(10) 0.01098 291.1 32.3
345(10) 0.01049 291.1 32.3
320(9) 0.01154 291.0 32.3
324(10) 0.01080 291.0 32.3
349(10) 0.00938 291.0 32.3
333(10) 0.01052 291.0 32.3
316(9) 0.01175 290.9 32.3
335(10) 0.01080 290.9 32.3
324(10) 0.01079 290.9 32.3
322(10) 0.01018 290.9 32.3
336(10) 0.01074 290.8 32.3
324(9) 0.01140 290.8 32.3
315(9) 0.01176 290.8 32.2
296(9) 0.01169 290.8 32.1
304(10) 0.01069 290.7 32.0
315(10) 0.01071 290.7 31.9
308(9) 0.01224 290.7 31.6
301(9) 0.01231 290.7 31.3
318(9) 0.01135 290.6 31.0
318(10) 0.01059 290.6 30.6
312(9) 0.01135 290.6 30.1
339(10) 0.01084 290.6 29.5
307(9) 0.01185 290.5 29.0
342(10) 0.01009 290.5 28.4
308(10) 0.01082 290.5 27.7
304(9) 0.01143 290.5 27.1
316(9) 0.01174 290.5 26.5
305(9) 0.01198 290.4 25.9
324(10) 0.01073 290.4 25.3
313(10) 0.01091 290.4 24.7
309(9) 0.01162 290.4 24.2
299(9) 0.01243 290.3 23.7
310(9) 0.01140 290.3 23.3
320(10) 0.01067 290.3 22.9
334(10) 0.01001 290.3 22.5
305(9) 0.01165 290.2 22.2
277(9) 0.01336 290.2 22.0
321(10) 0.01054 290.2 21.9
307(10) 0.01072 290.2 21.8
310(9) 0.01130 290.1 21.7
300(9) 0.01228 290.1 21.8
296(9) 0.01242 290.1 21.9
320(10) 0.01099 290.1 22.1
317(10) 0.01086 290.0 22.3
314(9) 0.01109 290.0 22.6
302(9) 0.01196 290.0 22.9
297(9) 0.01243 290.0 23.2
327(10) 0.01042 289.9 23.4
342(10) 0.00977 289.9 23.7
314(9) 0.01165 289.9 23.8
324(9) 0.01121 289.9 23.8
297(9) 0.01256 289.8 23.6
287(9) 0.01253 289.8 23.3
290(9) 0.01172 289.8 22.8
308(9) 0.01138 289.8 22.2
310(9) 0.01194 289.7 21.5
285(9) 0.01312 289.7 20.8
292(9) 0.01189 289.7 20.0
316(10) 0.01058 289.7 19.2
318(10) 0.01060 289.6 18.5
272(9) 0.01349 289.6 17.8
324(9) 0.01127 289.6 17.1
291(9) 0.01197 289.6 16.5
304(10) 0.01018 289.5 16.0
303(9) 0.01131 289.5 15.5
307(9) 0.01219 289.5 15.1
315(9) 0.01154 289.5 14.7
300(9) 0.01154 289.4 14.4
292(9) 0.01141 289.4 14.2
307(9) 0.01132 289.4 13.9
308(9) 0.01217 289.4 13.7
288(9) 0.01264 289.4 13.6
320(10) 0.01015 289.3 13.5
298(10) 0.01099 289.3 13.4
309(10) 0.01103 289.3 13.3
302(9) 0.01234 289.3 13.2
295(9) 0.01235 289.2 13.2
308(10) 0.01086 289.2 13.2
295(10) 0.01098 289.2 13.3
310(10) 0.01089 289.2 13.3
290(9) 0.01293 289.1 13.4
307(9) 0.01153 289.1 13.5
294(9) 0.01190 289.1 13.7
306(10) 0.01094 289.1 13.8
306(9) 0.01136 289.0 14.0
283(9) 0.01302 289.0 14.3
312(9) 0.01132 289.0 14.5
303(9) 0.01169 289.0 14.8
307(9) 0.01127 288.9 15.2
307(9) 0.01150 288.9 15.5
316(9) 0.01174 288.9 15.9
285(9) 0.01216 288.9 16.4
328(10) 0.01005 288.8 16.8
287(9) 0.01216 288.8 17.3
308(9) 0.01165 288.8 17.9
329(9) 0.01125 288.8 18.4
298(9) 0.01158 288.7 19.0
298(9) 0.01116 288.7 19.5
283(9) 0.01212 288.7 20.1
290(9) 0.01247 288.7 20.6
325(9) 0.01143 288.6 21.2
352(10) 0.00981 288.6 21.7
329(10) 0.00985 288.6 22.1
308(10) 0.01104 288.6 22.6
305(9) 0.01230 288.5 23.0
301(9) 0.01249 288.5 23.3
303(9) 0.01151 288.5 23.7
281(9) 0.01140 288.5 24.0
299(9) 0.01144 288.4 24.3
309(9) 0.01204 288.4 24.6
312(9) 0.01189 288.4 24.8
314(9) 0.01125 288.4 25.1
300(10) 0.01100 288.3 25.4
342(10) 0.00959 288.3 25.6
319(9) 0.01158 288.3 25.8
297(9) 0.01251 288.3 25.9
311(9) 0.01118 288.2 26.0
309(10) 0.01043 288.2 25.9
307(9) 0.01134 288.2 25.8
336(10) 0.01107 288.2 25.5
324(9) 0.01128 288.2 25.2
304(9) 0.01168 288.1 24.9
317(10) 0.01032 288.1 24.5
310(9) 0.01151 288.1 24.1
286(9) 0.01295 288.1 23.7
307(9) 0.01184 288.0 23.4
313(9) 0.01145 288.0 23.1
332(10) 0.01016 288.0 22.8
336(10) 0.00976 288.0 22.6
296(9) 0.01262 287.9 22.4
328(10) 0.01107 287.9 22.2
310(10) 0.01103 287.9 22.0
290(9) 0.01183 287.9 21.9
301(9) 0.01159 287.8 21.8
321(9) 0.01174 287.8 21.6
295(9) 0.01207 287.8 21.5
308(10) 0.01088 287.8 21.3
316(10) 0.01062 287.7 21.1
321(10) 0.01108 287.7 20.9
311(9) 0.01197 287.7 20.7
312(9) 0.01110 287.7 20.4
332(10) 0.00992 287.6 20.1
305(9) 0.01128 287.6 19.8
282(9) 0.01254 287.6 19.4
307(9) 0.01200 287.6 19.0
301(9) 0.01158 287.5 18.6
306(10) 0.01077 287.5 18.2
318(10) 0.01078 287.5 17.7
317(9) 0.01173 287.5 17.3
314(9) 0.01176 287.4 16.8
333(10) 0.01041 287.4 16.3
304(10) 0.01104 287.4 15.8
340(10) 0.00995 287.4 15.4
324(9) 0.01146 287.3 14.9
292(9) 0.01263 287.3 14.4
296(9) 0.01208 287.3 13.9
324(10) 0.01026 287.3 13.5
310(9) 0.01122 287.2 13.0
285(9) 0.01264 287.2 12.6
333(9) 0.01112 287.2 12.2
308(9) 0.01118 287.2 11.8
285(10) 0.01096 287.1 11.4
285(9) 0.01191 287.1 11.0
299(9) 0.01233 287.1 10.6
277(9) 0.01315 287.1 10.2
281(9) 0.01218 287.1 9.9
278(9) 0.01133 287.0 9.6
317(10) 0.01021 287.0 9.3
311(9) 0.01203 287.0 9.0
310(9) 0.01158 287.0 8.7
291(9) 0.01166 286.9 8.4
295(10) 0.01072 286.9 8.1
286(9) 0.01198 286.9 7.9
320(9) 0.01161 286.9 7.7
301(9) 0.01214 286.8 7.4
296(9) 0.01185 286.8 7.2
315(10) 0.01038 286.8 7.0
303(9) 0.01126 286.8 6.8
268(8) 0.01392 286.7 6.7
299(9) 0.01185 286.7 6.5
297(9) 0.01133 286.7 6.3
283(9) 0.01206 286.7 6.2
288(9) 0.01213 286.6 6.0
289(9) 0.01260 286.6 5.9
289(9) 0.01199 286.6 5.7
316(10) 0.01057 286.6 5.6
305(10) 0.01098 286.5 5.5
305(9) 0.01115 286.5 5.4
275(9) 0.01351 286.5 5.3
299(9) 0.01181 286.5 5.2
308(10) 0.01092 286.4 5.1
304(9) 0.01142 286.4 5.0
298(9) 0.01197 286.4 4.9
283(9) 0.01316 286.4 4.8
274(9) 0.01245 286.3 4.7
280(9) 0.01225 286.3 4.7
297(9) 0.01143 286.3 4.6
305(9) 0.01195 286.3 4.5
290(9) 0.01297 286.2 4.5
288(9) 0.01199 286.2 4.4
328(10) 0.00998 286.2 4.4
284(9) 0.01249 286.2 4.3
276(9) 0.01323 286.1 4.2
268(9) 0.01378 286.1 4.2
271(9) 0.01231 286.1 4.1
290(9) 0.01134 286.1 4.1
320(10) 0.01063 286.0 4.1
272(9) 0.01330 286.0 4.0
300(9) 0.01238 286.0 4.0
301(9) 0.01178 286.0 3.9
266(9) 0.01216 286.0 3.9
283(9) 0.01214 285.9 3.9
310(9) 0.01150 285.9 3.9
301(9) 0.01230 285.9 3.8
277(9) 0.01266 285.9 3.8
306(10) 0.01024 285.8 3.8
283(9) 0.01220 285.8 3.7
294(9) 0.01267 285.8 3.7
262(8) 0.01422 285.8 3.7
307(10) 0.01071 285.7 3.7
283(9) 0.01179 285.7 3.7
287(9) 0.01228 285.7 3.6
276(9) 0.01372 285.7 3.6
286(9) 0.01283 285.6 3.6
288(9) 0.01215 285.6 3.6
278(9) 0.01204 285.6 3.6
272(9) 0.01274 285.6 3.6
287(9) 0.01298 285.5 3.6
282(9) 0.01303 285.5 3.5
282(9) 0.01227 285.5 3.5
284(9) 0.01177 285.5 3.5
295(9) 0.01171 285.4 3.5
283(9) 0.01328 285.4 3.5
309(9) 0.01190 285.4 3.5
307(9) 0.01118 285.4 3.5
294(9) 0.01114 285.3 3.5
300(9) 0.01146 285.3 3.5
283(9) 0.01297 285.3 3.5
259(8) 0.01396 285.3 3.5
296(9) 0.01124 285.2 3.5
289(9) 0.01192 285.2 3.5
290(9) 0.01227 285.2 3.5
293(9) 0.01274 285.2 3.5
286(9) 0.01226 285.1 3.5
294(9) 0.01135 285.1 3.5
304(9) 0.01131 285.1 3.5
295(9) 0.01247 285.1 3.5
305(9) 0.01219 285.0 3.6
272(9) 0.01297 285.0 3.6
284(9) 0.01215 285.0 3.6
300(9) 0.01179 285.0 3.6
280(9) 0.01288 285.0 3.6
292(9) 0.01273 285.0 3.6
299(9) 0.01162 285.1 3.6
295(9) 0.01138 285.1 3.7
314(10) 0.01098 285.1 3.7
283(9) 0.01302 285.1 3.7
285(9) 0.01307 285.1 3.7
286(9) 0.01245 285.1 3.7
314(10) 0.01007 285.1 3.8
310(9) 0.01133 285.1 3.8
300(9) 0.01242 285.1 3.8
298(9) 0.01232 285.2 3.9
298(9) 0.01145 285.2 3.9
299(10) 0.01067 285.2 3.9
286(9) 0.01177 285.2 4.0
295(9) 0.01244 285.2 4.0
301(9) 0.01204 285.2 4.0
296(9) 0.01184 285.2 4.1
307(10) 0.01060 285.2 4.1
306(9) 0.01166 285.3 4.2
301(9) 0.01239 285.3 4.2
291(9) 0.01252 285.3 4.3
316(10) 0.01076 285.3 4.3
280(9) 0.01204 285.3 4.4
301(9) 0.01154 285.3 4.4
308(9) 0.01205 285.3 4.5
303(9) 0.01224 285.3 4.5
297(9) 0.01168 285.4 4.6
278(9) 0.01190 285.4 4.7
277(9) 0.01291 285.4 4.7
289(9) 0.01288 285.4 4.8
304(9) 0.01157 285.4 4.9
291(9) 0.01130 285.4 4.9
299(10) 0.01106 285.4 5.0
273(9) 0.01345 285.4 5.1
313(9) 0.01201 285.5 5.2
290(9) 0.01137 285.5 5.3
299(10) 0.01103 285.5 5.3
304(9) 0.01131 285.5 5.4
283(9) 0.01284 285.5 5.5
294(9) 0.01265 285.5 5.6
292(9) 0.01233 285.5 5.7
292(9) 0.01184 285.5 5.8
299(9) 0.01161 285.5 5.9
287(9) 0.01261 285.6 6.0
277(9) 0.01348 285.6 6.1
288(9) 0.01210 285.6 6.3
278(9) 0.01225 285.6 6.4
268(9) 0.01360 285.6 6.5
307(9) 0.01186 285.6 6.6
302(9) 0.01224 285.6 6.7
292(9) 0.01201 285.6 6.8
314(10) 0.01041 285.7 6.9
292(9) 0.01207 285.7 7.0
277(9) 0.01344 285.7 7.2
311(9) 0.01201 285.7 7.3
299(9) 0.01199 285.7 7.4
309(10) 0.01081 285.7 7.5
280(9) 0.01272 285.7 7.6
276(9) 0.01341 285.7 7.7
299(9) 0.01245 285.8 7.8
299(9) 0.01195 285.8 7.9
311(10) 0.01032 285.8 8.0
304(9) 0.01141 285.8 8.1
283(9) 0.01318 285.8 8.2
296(9) 0.01229 285.8 8.3
308(9) 0.01148 285.8 8.3
314(10) 0.01016 285.8 8.4
279(9) 0.01286 285.9 8.5
282(9) 0.01319 285.9 8.5
317(9) 0.01146 285.9 8.6
312(9) 0.01120 285.9 8.7
285(9) 0.01172 285.9 8.7
325(10) 0.01085 285.9 8.7
318(9) 0.01154 285.9 8.8
294(9) 0.01244 285.9 8.8
311(10) 0.01100 286.0 8.9
262(9) 0.01362 286.0 8.9
299(9) 0.01131 286.0 8.9
287(9) 0.01308 286.0 9.0
288(9) 0.01224 286.0 9.0
289(9) 0.01183 286.0 9.1
317(10) 0.01054 286.0 9.1
275(9) 0.01258 286.0 9.1
302(9) 0.01213 286.0 9.2
331(9) 0.01117 286.1 9.2
324(10) 0.01031 286.1 9.3
277(9) 0.01247 286.1 9.4
277(9) 0.01309 286.1 9.4
275(9) 0.01366 286.1 9.5
308(9) 0.01134 286.1 9.6
300(9) 0.01150 286.1 9.7
274(9) 0.01270 286.1 9.8
281(9) 0.01252 286.2 9.9
293(9) 0.01277 286.2 10.0
270(9) 0.01276 286.2 10.1
274(9) 0.01252 286.2 10.2
286(9) 0.01190 286.2 10.4
286(9) 0.01250 286.2 10.5
301(9) 0.01238 286.2 10.7
318(10) 0.01066 286.2 10.9
300(9) 0.01125 286.3 11.1
279(9) 0.01270 286.3 11.3
296(9) 0.01223 286.3 11.5
287(9) 0.01286 286.3 11.7
288(9) 0.01180 286.3 12.0
305(10) 0.01030 286.3 12.2
294(9) 0.01209 286.3 12.5
302(9) 0.01237 286.3 12.8
308(9) 0.01196 286.4 13.2
307(9) 0.01172 286.4 13.5
315(10) 0.01023 286.4 13.8
313(10) 0.01097 286.4 14.2
310(9) 0.01204 286.4 14.6
292(9) 0.01264 286.4 15.0
304(9) 0.01162 286.4 15.5
296(9) 0.01109 286.4 15.9
320(10) 0.01087 286.5 16.4
295(9) 0.01284 286.5 16.9
283(9) 0.01285 286.5 17.4
284(9) 0.01194 286.5 17.9
311(10) 0.01063 286.5 18.4
301(9) 0.01154 286.5 19.0
289(9) 0.01283 286.5 19.5
308(9) 0.01198 286.5 20.1
302(9) 0.01143 286.5 20.6
305(10) 0.01072 286.6 21.2
297(9) 0.01123 286.6 21.7
294(9) 0.01257 286.6 22.3
313(9) 0.01139 286.6 22.8
290(9) 0.01253 286.6 23.3
307(9) 0.01133 286.6 23.8
299(9) 0.01152 286.6 24.2
287(9) 0.01294 286.6 24.6
328(9) 0.01112 286.7 24.9
337(10) 0.01025 286.7 25.2
329(10) 0.01015 286.7 25.4
331(10) 0.01077 286.7 25.6
314(9) 0.01178 286.7 25.6
328(10) 0.01050 286.7 25.7
322(10) 0.01073 286.7 25.6
322(10) 0.01067 286.7 25.5
311(9) 0.01174 286.8 25.3
303(9) 0.01212 286.8 25.1
315(9) 0.01128 286.8 24.8
314(10) 0.01104 286.8 24.5
316(10) 0.01102 286.8 24.2
315(9) 0.01144 286.8 23.8
299(9) 0.01236 286.8 23.4
301(9) 0.01151 286.8 23.0
316(10) 0.01032 286.9 22.5
321(10) 0.01095 286.9 22.1
311(9) 0.01184 286.9 21.6
313(9) 0.01173 286.9 21.2
318(10) 0.01091 286.9 20.7
300(9) 0.01122 286.9 20.3
308(9) 0.01135 286.9 19.9
297(9) 0.01252 286.9 19.5
312(9) 0.01168 286.9 19.2
303(9) 0.01164 287.0 18.8
334(10) 0.00955 287.0 18.5
313(10) 0.01095 287.0 18.2
310(9) 0.01190 287.0 18.0
309(9) 0.01180 287.0 17.8
339(10) 0.01001 287.0 17.6
302(10) 0.01089 287.0 17.5
322(10) 0.01034 287.0 17.4
290(9) 0.01289 287.1 17.4
298(9) 0.01243 287.1 17.4
324(10) 0.01081 287.1 17.4
330(10) 0.00951 287.1 17.5
300(9) 0.01150 287.1 17.7
299(9) 0.01262 287.1 17.8
337(10) 0.01054 287.1 18.0
281(9) 0.01243 287.1 18.3
305(10) 0.01100 287.2 18.5
312(9) 0.01151 287.2 18.7
314(9) 0.01187 287.2 18.9
304(9) 0.01171 287.2 19.0
314(10) 0.01103 287.2 19.1
288(9) 0.01208 287.2 19.0
325(10) 0.01064 287.2 18.9
303(9) 0.01220 287.2 18.6
297(9) 0.01180 287.3 18.2
292(9) 0.01173 287.3 17.7
316(10) 0.01047 287.3 17.2
300(9) 0.01214 287.3 16.6
313(9) 0.01187 287.3 15.9
307(9) 0.01153 287.3 15.3
325(10) 0.01046 287.3 14.7
280(9) 0.01266 287.3 14.0
285(9) 0.01261 287.4 13.4
297(9) 0.01249 287.4 12.9
292(9) 0.01199 287.4 12.4
307(10) 0.01096 287.4 11.9
302(9) 0.01128 287.4 11.4
289(9) 0.01257 287.4 11.0
284(9) 0.01320 287.4 10.6
297(9) 0.01201 287.4 10.2
296(9) 0.01191 287.4 9.9
292(9) 0.01258 287.5 9.6
323(10) 0.01103 287.5 9.3
303(9) 0.01221 287.5 9.1
295(9) 0.01185 287.5 8.9
305(10) 0.01043 287.5 8.7
296(9) 0.01175 287.5 8.5
273(9) 0.01357 287.5 8.3
289(9) 0.01286 287.5 8.1
263(9) 0.01349 287.6 7.9
281(9) 0.01116 287.6 7.8
282(9) 0.01263 287.6 7.6
296(9) 0.01240 287.6 7.5
301(9) 0.01215 287.6 7.3
269(9) 0.01344 287.6 7.2
308(10) 0.01007 287.6 7.1
327(10) 0.01017 287.6 7.0
277(9) 0.01367 287.7 6.9
288(9) 0.01284 287.7 6.7
274(9) 0.01303 287.7 6.6
277(9) 0.01217 287.7 6.5
286(9) 0.01254 287.7 6.4
270(9) 0.01362 287.7 6.3
296(9) 0.01238 287.7 6.3
281(9) 0.01277 287.7 6.2
284(9) 0.01139 287.8 6.1
293(9) 0.01154 287.8 6.0
279(9) 0.01313 287.8 5.9
289(9) 0.01255 287.8 5.9
305(9) 0.01132 287.8 5.8
301(10) 0.01108 287.8 5.7
285(9) 0.01225 287.8 5.7
285(9) 0.01299 287.8 5.6
283(9) 0.01258 287.8 5.5
277(9) 0.01276 287.9 5.5
290(9) 0.01212 287.9 5.4
294(9) 0.01194 287.9 5.4
290(9) 0.01274 287.9 5.3
302(9) 0.01200 287.9 5.3
274(9) 0.01248 287.9 5.2
295(9) 0.01156 287.9 5.2
301(9) 0.01206 287.9 5.2
305(9) 0.01209 288.0 5.1
296(9) 0.01146 288.0 5.1
304(10) 0.01093 288.0 5.1
312(10) 0.01107 288.0 5.1
289(9) 0.01252 288.0 5.0
290(9) 0.01281 288.0 5.0
291(9) 0.01178 288.0 5.0
299(9) 0.01154 288.0 5.0
260(8) 0.01408 288.1 5.0
281(9) 0.01325 288.1 5.0
288(9) 0.01299 288.1 5.0
296(9) 0.01187 288.1 5.0
301(9) 0.01115 288.1 5.0
298(9) 0.01169 288.1 5.0
283(9) 0.01300 288.1 5.0
313(9) 0.01172 288.1 5.0
278(9) 0.01218 288.2 5.1
293(10) 0.01103 288.2 5.1
289(9) 0.01166 288.2 5.1
272(9) 0.01345 288.2 5.2
298(9) 0.01247 288.2 5.2
297(9) 0.01142 288.2 5.3
304(10) 0.01063 288.2 5.3
298(9) 0.01163 288.2 5.4
306(9) 0.01201 288.3 5.5
289(9) 0.01231 288.3 5.6
287(9) 0.01212 288.3 5.7
311(10) 0.01021 288.3 5.8
283(9) 0.01239 288.3 5.9
295(9) 0.01280 288.3 6.0
255(8) 0.01451 288.3 6.2
297(9) 0.01194 288.3 6.3
303(9) 0.01140 288.3 6.5
303(9) 0.01121 288.4 6.7
297(9) 0.01249 288.4 6.9
307(9) 0.01183 288.4 7.1
299(9) 0.01155 288.4 7.3
306(10) 0.01040 288.4 7.6
323(10) 0.01028 288.4 7.8
307(9) 0.01205 288.4 8.0
315(9) 0.01149 288.4 8.3
314(9) 0.01127 288.5 8.5
314(10) 0.01068 288.5 8.7
290(9) 0.01193 288.5 9.0
289(9) 0.01278 288.5 9.1
298(9) 0.01176 288.5 9.3
293(9) 0.01169 288.5 9.4
292(9) 0.01208 288.5 9.5
323(10) 0.01098 288.5 9.5
304(9) 0.01218 288.6 9.5
294(9) 0.01208 288.6 9.4
309(10) 0.01079 288.6 9.3
293(9) 0.01183 288.6 9.2
294(9) 0.01242 288.6 9.1
303(9) 0.01233 288.6 9.0
296(9) 0.01186 288.6 8.8
318(10) 0.01035 288.6 8.7
314(10) 0.01105 288.7 8.6
300(9) 0.01232 288.7 8.4
298(9) 0.01240 288.7 8.3
294(9) 0.01182 288.7 8.2
289(9) 0.01140 288.7 8.1
301(9) 0.01153 288.7 8.1
293(9) 0.01260 288.7 8.0
298(9) 0.01264 288.7 8.0
275(9) 0.01269 288.8 7.9
282(9) 0.01135 288.8 7.9
307(10) 0.01096 288.8 7.9
294(9) 0.01262 288.8 7.9
281(9) 0.01330 288.8 7.9
315(10) 0.01104 288.8 7.9
312(10) 0.01031 288.8 7.9
290(9) 0.01167 288.8 8.0
286(9) 0.01295 288.8 8.0
296(9) 0.01237 288.9 8.1
302(9) 0.01204 288.9 8.1
304(10) 0.01076 288.9 8.2
296(9) 0.01159 288.9 8.2
278(9) 0.01338 288.9 8.3
301(9) 0.01207 288.9 8.4
294(9) 0.01131 288.9 8.4
311(10) 0.01041 288.9 8.5
336(10) 0.01048 289.0 8.6
302(9) 0.01232 289.0 8.7
317(9) 0.01153 289.0 8.7
299(9) 0.01180 289.0 8.8
305(10) 0.01091 289.0 8.9
297(9) 0.01125 289.0 9.0
294(9) 0.01267 289.0 9.0
292(9) 0.01255 289.0 9.1
286(9) 0.01222 289.1 9.2
307(10) 0.01090 289.1 9.3
298(9) 0.01201 289.1 9.3
293(9) 0.01261 289.1 9.4
315(9) 0.01144 289.1 9.5
310(10) 0.01086 289.1 9.5
300(10) 0.01096 289.1 9.6
329(10) 0.00997 289.1 9.6
314(9) 0.01194 289.2 9.7
311(9) 0.01154 289.2 9.7
302(9) 0.01126 289.2 9.8
301(9) 0.01140 289.2 9.8
302(9) 0.01177 289.2 9.9
278(9) 0.01335 289.2 9.9
302(9) 0.01122 289.2 9.9
301(10) 0.01083 289.2 10.0
299(9) 0.01110 289.2 10.0
307(9) 0.01175 289.3 10.0
315(9) 0.01189 289.3 10.0
319(10) 0.01061 289.3 10.0
305(10) 0.01057 289.3 10.0
299(9) 0.01159 289.3 10.0
302(9) 0.01227 289.3 10.0
313(9) 0.01191 289.3 10.0
317(9) 0.01113 289.3 10.0
309(10) 0.01075 289.4 10.0
305(9) 0.01148 289.4 10.0
298(9) 0.01228 289.4 10.0
296(9) 0.01253 289.4 10.0
293(9) 0.01195 289.4 10.0
310(10) 0.00986 289.4 9.9
279(9) 0.01223 289.4 9.9
295(9) 0.01250 289.4 9.9
316(9) 0.01163 289.5 9.8
290(9) 0.01180 289.5 9.8
292(10) 0.01026 289.5 9.8
298(9) 0.01119 289.5 9.7
283(9) 0.01298 289.5 9.7
265(8) 0.01403 289.5 9.7
281(9) 0.01207 289.5 9.6
275(9) 0.01220 289.5 9.6
310(10) 0.01083 289.6 9.6
293(9) 0.01288 289.6 9.5
316(9) 0.01127 289.6 9.5
317(9) 0.01122 289.6 9.4
345(10) 0.00923 289.6 9.4
281(9) 0.01252 289.6 9.3
298(9) 0.01222 289.6 9.3
280(9) 0.01290 289.6 9.2
322(10) 0.01041 289.7 9.2
303(9) 0.01113 289.7 9.2
309(9) 0.01146 289.7 9.1
321(9) 0.01169 289.7 9.1
299(9) 0.01226 289.7 9.0
307(9) 0.01164 289.7 9.0
288(9) 0.01237 289.7 8.9
293(9) 0.01197 289.7 8.9
286(9) 0.01301 289.7 8.8
322(10) 0.01105 289.8 8.8
306(10) 0.01105 289.8 8.7
300(9) 0.01147 289.8 8.7
285(9) 0.01280 289.8 8.6
270(9) 0.01360 289.8 8.6
284(9) 0.01221 289.8 8.5
295(9) 0.01214 289.8 8.5
301(9) 0.01179 289.8 8.4
293(9) 0.01244 289.9 8.4
296(9) 0.01258 289.9 8.3
315(10) 0.01107 289.9 8.2
313(10) 0.01023 289.9 8.2
310(9) 0.01113 289.9 8.1
291(9) 0.01247 289.9 8.1
299(9) 0.01241 289.9 8.0
301(9) 0.01148 289.9 7.9
298(9) 0.01149 290.0 7.9
306(9) 0.01151 290.0 7.8
297(9) 0.01229 290.0 7.7
285(9) 0.01315 290.0 7.7
285(9) 0.01270 290.0 7.6
280(9) 0.01227 290.0 7.5
305(9) 0.01142 290.0 7.4
307(9) 0.01209 290.0 7.4
303(9) 0.01207 289.9 7.3
292(9) 0.01168 289.9 7.2
296(10) 0.01073 289.9 7.1
308(9) 0.01129 289.9 7.1
283(9) 0.01301 289.9 7.0
308(9) 0.01192 289.9 6.9
302(9) 0.01156 289.9 6.9
317(10) 0.01018 289.9 6.8
287(9) 0.01222 289.9 6.7
303(9) 0.01217 289.9 6.7
289(9) 0.01263 289.9 6.6
305(9) 0.01131 289.8 6.5
291(9) 0.01150 289.8 6.5
311(9) 0.01141 289.8 6.4
292(9) 0.01268 289.8 6.3
307(9) 0.01182 289.8 6.3
308(10) 0.01062 289.8 6.2
295(9) 0.01131 289.8 6.1
293(9) 0.01208 289.8 6.1
314(9) 0.01185 289.8 6.0
280(9) 0.01260 289.8 6.0
300(9) 0.01155 289.8 5.9
306(10) 0.01067 289.8 5.9
310(10) 0.01105 289.7 5.8
307(9) 0.01205 289.7 5.8
298(9) 0.01220 289.7 5.8
289(9) 0.01198 289.7 5.7
306(10) 0.01088 289.7 5.7
305(9) 0.01157 289.7 5.6
284(9) 0.01307 289.7 5.6
290(9) 0.01195 289.7 5.6
305(10) 0.01092 289.7 5.6
295(9) 0.01199 289.7 5.5
290(9) 0.01255 289.7 5.5
298(9) 0.01258 289.6 5.5
276(9) 0.01282 289.6 5.5
282(9) 0.01189 289.6 5.4
290(9) 0.01224 289.6 5.4
296(9) 0.01188 289.6 5.4
284(9) 0.01325 289.6 5.4
297(9) 0.01148 289.6 5.4
312(10) 0.01050 289.6 5.4
306(9) 0.01154 289.6 5.4
295(9) 0.01241 289.6 5.4
309(9) 0.01197 289.6 5.4
302(10) 0.01102 289.5 5.4
265(9) 0.01249 289.5 5.4
286(9) 0.01198 289.5 5.4
292(9) 0.01287 289.5 5.4
305(9) 0.01190 289.5 5.4
293(9) 0.01202 289.5 5.4
270(9) 0.01241 289.5 5.4
304(9) 0.01135 289.5 5.4
283(9) 0.01332 289.5 5.4
283(9) 0.01264 289.5 5.4
273(9) 0.01290 289.5 5.5
316(10) 0.01052 289.5 5.5
314(9) 0.01124 289.4 5.5
270(9) 0.01381 289.4 5.5
297(9) 0.01211 289.4 5.5
286(9) 0.01258 289.4 5.6
295(9) 0.01122 289.4 5.6
299(9) 0.01163 289.4 5.6
302(9) 0.01246 289.4 5.7
296(9) 0.01179 289.4 5.7
309(9) 0.01126 289.4 5.7
288(9) 0.01175 289.4 5.8
304(9) 0.01169 289.4 5.8
297(9) 0.01243 289.3 5.9
292(9) 0.01244 289.3 5.9
287(9) 0.01205 289.3 6.0
264(9) 0.01290 289.3 6.0
279(9) 0.01206 289.3 6.0
273(9) 0.01358 289.3 6.1
285(9) 0.01268 289.3 6.2
311(9) 0.01110 289.3 6.2
297(9) 0.01181 289.3 6.3
285(9) 0.01267 289.3 6.3
286(9) 0.01287 289.3 6.4
294(9) 0.01215 289.2 6.4
288(9) 0.01217 289.2 6.5
295(9) 0.01199 289.2 6.6
290(9) 0.01214 289.2 6.6
317(9) 0.01170 289.2 6.7
297(9) 0.01173 289.2 6.8
303(9) 0.01124 289.2 6.8
302(9) 0.01172 289.2 6.9
284(9) 0.01212 289.2 7.0
304(9) 0.01224 289.2 7.1
309(10) 0.01085 289.2 7.1
286(9) 0.01154 289.2 7.2
266(9) 0.01338 289.1 7.3
299(9) 0.01221 289.1 7.4
315(9) 0.01174 289.1 7.5
271(9) 0.01299 289.1 7.6
291(9) 0.01128 289.1 7.6
294(9) 0.01177 289.1 7.7
296(9) 0.01268 289.1 7.8
295(9) 0.01267 289.1 7.9
293(9) 0.01207 289.1 8.0
295(9) 0.01159 289.1 8.1
301(9) 0.01167 289.1 8.2
270(9) 0.01360 289.0 8.3
302(9) 0.01220 289.0 8.4
290(9) 0.01183 289.0 8.5
273(9) 0.01196 289.0 8.6
299(9) 0.01117 289.0 8.7
314(9) 0.01207 289.0 8.8
298(9) 0.01223 289.0 8.9
268(9) 0.01313 289.0 9.0
303(10) 0.01030 289.0 9.1
314(10) 0.01084 289.0 9.2
307(9) 0.01205 289.0 9.3
288(9) 0.01288 288.9 9.4
281(9) 0.01237 288.9 9.6
288(9) 0.01118 288.9 9.7
262(9) 0.01315 288.9 9.8
296(9) 0.01262 288.9 9.9
284(9) 0.01258 288.9 10.1
297(9) 0.01123 288.9 10.2
293(9) 0.01152 288.9 10.4
307(9) 0.01137 288.9 10.5
301(9) 0.01241 288.9 10.7
310(9) 0.01109 288.9 10.9
281(9) 0.01179 288.9 11.1
294(9) 0.01128 288.8 11.3
296(9) 0.01227 288.8 11.5
307(9) 0.01202 288.8 11.7
295(9) 0.01203 288.8 11.9
289(9) 0.01193 288.8 12.1
316(10) 0.01038 288.8 12.4
299(9) 0.01166 288.8 12.7
280(9) 0.01317 288.8 12.9
312(9) 0.01115 288.8 13.2
288(9) 0.01212 288.8 13.5
297(9) 0.01109 288.8 13.8
320(10) 0.01088 288.7 14.0
331(9) 0.01122 288.7 14.3
301(9) 0.01151 288.7 14.6
283(9) 0.01210 288.7 14.8
324(10) 0.01048 288.7 15.0
316(9) 0.01162 288.7 15.1
302(9) 0.01230 288.7 15.2
301(9) 0.01171 288.7 15.2
278(9) 0.01165 288.7 15.2
282(9) 0.01227 288.7 15.2
287(9) 0.01277 288.7 15.1
290(9) 0.01281 288.6 14.9
292(9) 0.01189 288.6 14.8
273(9) 0.01227 288.6 14.6
296(9) 0.01187 288.6 14.4
261(8) 0.01402 288.6 14.2
288(9) 0.01282 288.6 14.1
270(9) 0.01238 288.6 13.9
269(9) 0.01165 288.6 13.8
268(9) 0.01276 288.6 13.6
294(9) 0.01224 288.6 13.5
304(9) 0.01228 288.6 13.4
312(10) 0.01083 288.6 13.3
302(10) 0.01081 288.5 13.3
287(9) 0.01198 288.5 13.2
301(9) 0.01221 288.5 13.2
275(9) 0.01346 288.5 13.2
289(9) 0.01202 288.5 13.2
331(10) 0.00978 288.5 13.3
288(9) 0.01210 288.5 13.3
315(9) 0.01166 288.5 13.4
294(9) 0.01229 288.5 13.5
281(9) 0.01259 288.5 13.6
305(10) 0.01107 288.5 13.8
324(10) 0.01059 288.4 13.9
305(9) 0.01220 288.4 14.1
325(10) 0.01091 288.4 14.3
306(9) 0.01121 288.4 14.5
289(9) 0.01199 288.4 14.7
277(9) 0.01301 288.4 14.9
300(9) 0.01245 288.4 15.1
297(9) 0.01161 288.4 15.4
296(9) 0.01146 288.4 15.7
304(10) 0.01098 288.4 15.9
299(9) 0.01192 288.4 16.2
295(9) 0.01256 288.3 16.5
315(9) 0.01112 288.3 16.8
292(9) 0.01150 288.3 17.1
300(9) 0.01165 288.3 17.5
312(9) 0.01158 288.3 17.8
282(9) 0.01319 288.3 18.1
279(9) 0.01184 288.3 18.4
295(9) 0.01130 288.3 18.8
276(9) 0.01280 288.3 19.1
304(9) 0.01199 288.3 19.4
312(9) 0.01188 288.3 19.7
310(10) 0.01091 288.3 20.0
301(10) 0.01088 288.2 20.3
326(10) 0.01022 288.2 20.5
318(10) 0.01106 288.2 20.7
306(9) 0.01232 288.2 20.8
287(9) 0.01211 288.2 20.9
296(10) 0.01097 288.2 21.0
300(9) 0.01161 288.2 21.0
292(9) 0.01261 288.2 20.9
289(9) 0.01252 288.2 20.8
270(9) 0.01283 288.2 20.6
286(10) 0.01072 288.2 20.4
278(9) 0.01280 288.1 20.1
298(9) 0.01254 288.1 19.8
296(9) 0.01224 288.1 19.5
295(9) 0.01214 288.1 19.2
300(9) 0.01130 288.1 18.9
312(9) 0.01165 288.1 18.6
331(10) 0.01107 288.1 18.3
306(9) 0.01233 288.1 18.0
288(9) 0.01248 288.1 17.7
293(9) 0.01126 288.1 17.5
313(10) 0.01087 288.1 17.2
314(9) 0.01191 288.0 16.9
296(9) 0.01233 288.0 16.7
297(9) 0.01162 288.0 16.5
299(9) 0.01136 288.0 16.2
314(10) 0.01108 288.0 16.0
302(9) 0.01243 288.0 15.8
315(9) 0.01115 288.0 15.6
301(9) 0.01116 288.0 15.5
317(10) 0.01078 288.0 15.3
285(9) 0.01244 288.0 15.1
283(9) 0.01326 288.0 15.0
291(9) 0.01232 288.0 14.8
295(9) 0.01176 287.9 14.6
306(9) 0.01126 287.9 14.5
279(9) 0.01254 287.9 14.3
296(9) 0.01267 287.9 14.1
275(9) 0.01275 287.9 13.9
269(9) 0.01313 287.9 13.7
299(9) 0.01157 287.9 13.6
313(9) 0.01142 287.9 13.4
304(9) 0.01220 287.9 13.2
276(9) 0.01297 287.9 13.0
303(10) 0.01060 287.9 12.7
276(9) 0.01316 287.8 12.5
299(9) 0.01199 287.8 12.3
298(9) 0.01227 287.8 12.2
292(9) 0.01149 287.8 12.0
291(9) 0.01112 287.8 11.8
300(9) 0.01161 287.8 11.6
278(9) 0.01323 287.8 11.4
289(9) 0.01301 287.8 11.3
313(10) 0.01066 287.8 11.1
300(10) 0.01085 287.8 11.0
290(9) 0.01224 287.8 10.8
282(9) 0.01309 287.7 10.7
277(9) 0.01346 287.7 10.5
297(9) 0.01151 287.7 10.4
299(10) 0.01061 287.7 10.3
293(9) 0.01227 287.7 10.2
301(9) 0.01235 287.7 10.1
296(9) 0.01264 287.7 10.0
299(9) 0.01157 287.7 9.9
298(10) 0.01044 287.7 9.8
272(9) 0.01293 287.7 9.7
268(8) 0.01412 287.7 9.7
277(9) 0.01315 287.7 9.6
285(9) 0.01214 287.6 9.5
317(10) 0.01011 287.6 9.5
313(9) 0.01132 287.6 9.4
291(9) 0.01276 287.6 9.4
285(9) 0.01280 287.6 9.3
285(9) 0.01227 287.6 9.3
290(9) 0.01185 287.6 9.3
296(9) 0.01149 287.6 9.2
271(9) 0.01376 287.6 9.2
293(9) 0.01218 287.6 9.2
278(9) 0.01299 287.6 9.2
301(9) 0.01131 287.5 9.2
286(9) 0.01207 287.5 9.2
290(9) 0.01279 287.5 9.2
311(9) 0.01165 287.5 9.1
314(10) 0.01056 287.5 9.1
279(9) 0.01213 287.5 9.1
296(9) 0.01168 287.5 9.1
309(9) 0.01223 287.5 9.1
268(9) 0.01305 287.5 9.2
302(10) 0.01103 287.5 9.2
293(9) 0.01190 287.5 9.2
298(9) . . .
287(9) . . .
301(9) . . .
277(9) . . .
284(9) . . .
296(9) . . .
291(9) . . .
283(9) . . .
301(10) . . .
306(9) . . .
275(9) . . .
300(9) . . .
272(9) . . .
287(9) . . .
297(9) . . .
284(9) . . .
294(9) . . .
288(9) . . .
298(10) . . .
290(9) . . .
287(9) . . .
269(9) . . .
266(9) . . .
296(10) . . .
312(10) . . .
309(9) . . .
277(9) . . .
264(9) . . .
286(9) . . .
309(9) . . .
307(9) . . .
292(9) . . .
282(9) . . .
286(9) . . .
308(9) . . .
280(9) . . .
292(9) . . .
288(9) . . .
293(9) . . .
309(10) . . .
317(9) . . .
303(9) . . .
323(10) . . .
303(10) . . .
286(9) . . .
297(9) . . .
308(9) . . .
303(10) . . .
324(10) . . .
339(10) . . .
347(10) . . .
327(10) . . .
304(10) . . .
304(10) . . .
297(9) . . .
296(9) . . .
300(9) . . .
297(10) . . .
288(9) . . .
294(9) . . .
279(9) . . .
324(10) . . .
283(9) . . .
288(9) . . .
320(9) . . .
277(9) . . .
304(9) . . .
290(10) . . .
272(9) . . .
282(9) . . .
313(9) . . .
268(9) . . .
275(9) . . .
295(9) . . .
279(9) . . .
295(9) . . .
272(9) . . .
299(10) . . .
282(9) . . .
311(9) . . .
290(9) . . .
285(9) . . .
293(9) . . .
278(9) . . .
298(9) . . .
283(9) . . .
293(9) . . .
307(10) . . .
313(9) . . .
304(9) . . .
273(9) . . .
308(9) . . .
280(9) . . .
293(9) . . .
288(9) . . .
289(9) . . .
299(9) . . .
306(10) . . .
275(9) . . .
286(9) . . .
309(9) . . .
296(9) . . .
272(9) . . .
296(9) . . .
280(9) . . .
279(9) . . .
314(10) . . .
296(9) . . .
263(8) . . .
308(9) . . .
293(9) . . .
258(9) . . .
281(9) . . .
280(9) . . .
276(9) . . .
277(9) . . .
306(10) . . .
293(9) . . .
279(9) . . .
253(8) . . .
302(9) . . .
280(9) . . .
274(9) . . .
302(9) . . .
296(9) . . .
290(9) . . .
288(10) . . .
259(9) . . .
258(8) . . .
279(9) . . .
258(9) . . .
271(9) . . .
291(9) . . .
284(9) . . .
289(9) . . .
273(9) . . .
269(9) . . .
279(9) . . .
270(9) . . .
278(9) . . .
295(10) . . .
279(9) . . .
270(9) . . .
284(9) . . .
279(9) . . .
277(9) . . .
285(9) . . .
284(9) . . .
297(9) . . .
286(9) . . .
292(9) . . .
293(9) . . .
284(9) . . .
283(9) . . .
310(10) . . .
283(9) . . .
262(9) . . .
292(9) . . .
274(9) . . .
248(8) . . .
275(9) . . .
309(9) . . .
280(9) . . .
267(8) . . .
303(9) . . .
278(9) . . .
265(9) . . .
268(9) . . .
270(9) . . .
273(9) . . .
257(9) . . .
269(9) . . .
289(9) . . .
274(9) . . .
289(9) . . .
287(9) . . .
265(9) . . .
271(9) . . .
264(8) . . .
249(8) . . .
273(9) . . .
270(9) . . .
285(9) . . .
281(9) . . .
273(9) . . .
297(9) . . .
297(9) . . .
276(9) . . .
276(9) . . .
276(9) . . .
289(9) . . .
266(9) . . .
251(8) . . .
261(9) . . .
266(9) . . .
275(9) . . .
270(9) . . .
264(8) . . .
260(9) . . .
272(9) . . .
291(9) . . .
269(9) . . .
285(9) . . .
283(9) . . .
279(9) . . .
267(9) . . .
268(9) . . .
275(9) . . .
266(9) . . .
271(9) . . .
265(9) . . .
271(9) . . .
280(9) . . .
281(9) . . .
268(9) . . .
291(9) . . .
275(9) . . .
275(9) . . .
279(9) . . .
271(9) . . .
264(9) . . .
258(8) . . .
261(8) . . .
275(9) . . .
290(10) . . .
283(9) . . .
269(9) . . .
275(9) . . .
259(8) . . .
285(9) . . .
266(9) . . .
268(9) . . .
252(8) . . .
289(9) . . .
256(9) . . .
257(9) . . .
278(9) . . .
269(9) . . .
269(9) . . .
265(9) . . .
257(9) . . .
262(8) . . .
273(9) . . .
280(9) . . .
288(9) . . .
288(9) . . .
270(9) . . .
281(9) . . .
268(9) . . .
296(9) . . .
295(9) . . .
278(9) . . .
281(9) . . .
286(9) . . .
272(9) . . .
274(9) . . .
285(9) . . .
257(9) . . .
292(9) . . .
285(9) . . .
292(9) . . .
305(9) . . .
294(9) . . .
274(9) . . .
266(9) . . .
286(9) . . .
303(9) . . .
273(9) . . .
283(10) . . .
281(9) . . .
301(9) . . .
267(8) . . .
289(9) . . .
279(9) . . .
263(9) . . .
261(8) . . .
277(9) . . .
262(9) . . .
261(9) . . .
257(8) . . .
267(8) . . .
287(9) . . .
265(9) . . .
269(9) . . .
283(9) . . .
252(8) . . .
287(9) . . .
262(8) . . .
280(9) . . .
284(9) . . .
288(9) . . .
305(9) . . .
270(9) . . .
245(9) . . .
254(9) . . .
277(9) . . .
269(9) . . .
295(9) . . .
281(9) . . .
256(9) . . .
273(9) . . .
287(9) . . .
263(9) . . .
304(10) . . .
299(9) . . .
291(9) . . .
258(9) . . .
279(9) . . .
288(9) . . .
281(9) . . .
292(9) . . .
291(9) . . .
293(9) . . .
281(9) . . .
320(9) . . .
296(9) . . .
290(9) . . .
294(9) . . .
306(9) . . .
280(9) . . .
270(9) . . .
284(9) . . .
325(10) . . .
284(9) . . .
278(9) . . .
286(9) . . .
279(9) . . .
300(10) . . .
293(9) . . .
294(9) . . .
306(9) . . .
278(9) . . .
286(9) . . .
258(9) . . .
273(9) . . .
276(9) . . .
290(9) . . .
270(9) . . .
268(9) . . .
259(8) . . .
261(8) . . .
286(9) . . .
283(9) . . .
288(9) . . .
283(9) . . .
273(9) . . .
276(9) . . .
258(9) . . .
297(9) . . .
259(8) . . .
270(9) . . .
274(9) . . .
259(9) . . .
275(9) . . .
289(9) . . .
286(9) . . .
306(10) . . .
290(9) . . .
268(9) . . .
304(9) . . .
277(9) . . .
279(9) . . .
268(9) . . .
289(9) . . .
294(9) . . .
276(9) . . .
290(9) . . .
288(9) . . .
275(9) . . .
285(9) . . .
263(9) . . .
274(9) . . .
290(9) . . .
301(9) . . .
280(9) . . .
312(10) . . .
297(9) . . .
269(9) . . .
282(9) . . .
281(9) . . .
304(9) . . .
295(9) . . .
299(9) . . .
289(9) . . .
316(9) . . .
285(9) . . .
309(10) . . .
290(9) . . .
283(9) . . .
272(9) . . .
301(9) . . .
300(9) . . .
287(9) . . .
270(8) . . .
297(9) . . .
284(9) . . .
287(9) . . .
274(9) . . .
264(8) . . .
268(9) . . .
266(9) . . .
255(9) . . .
267(9) . . .
266(8) . . .
268(9) . . .
266(9) . . .
270(9) . . .
288(9) . . .
290(9) . . .
301(9) . . .
286(9) . . .
315(10) . . .
255(8) . . .
287(9) . . .
307(9) . . .
289(9) . . .
292(9) . . .
282(9) . . .
287(9) . . .
300(9) . . .
278(9) . . .
283(9) . . .
293(9) . . .
293(9) . . .
289(9) . . .
286(9) . . .
295(9) . . .
307(9) . . .
266(8) . . .
289(9) . . .
294(10) . . .
287(9) . . .
299(9) . . .
291(9) . . .
283(9) . . .
286(10) . . .
260(8) . . .
289(9) . . .
291(9) . . .
258(9) . . .
285(9) . . .
285(9) . . .
283(9) . . .
267(9) . . .
289(9) . . .
293(9) . . .
241(8) . . .
255(8) . . .
269(9) . . .
285(9) . . .
280(9) . . .
248(8) . . .
274(9) . . .
287(9) . . .
273(9) . . .
280(9) . . .
263(8) . . .
287(9) . . .
277(9) . . .
264(9) . . .
255(8) . . .
262(9) . . .
250(8) . . .
263(9) . . .
238(8) . . .
245(8) . . .
263(8) . . .
253(8) . . .
255(8) . . .
263(9) . . .
275(9) . . .
258(8) . . .
253(8) . . .
257(9) . . .
263(9) . . .
263(9) . . .
269(9) . . .
267(9) . . .
276(9) . . .
279(9) . . .
270(9) . . .
270(8) . . .
259(8) . . .
253(9) . . .
255(9) . . .
256(9) . . .
266(8) . . .
253(8) . . .
251(8) . . .
254(9) . . .
256(9) . . .
259(8) . . .
266(9) . . .
281(9) . . .
286(9) . . .
269(9) . . .
263(8) . . .
275(9) . . .
237(8) . . .
258(9) . . .
264(8) . . .
276(9) . . .
243(8) . . .
250(9) . . .
253(9) . . .
273(9) . . .
240(8) . . .
268(9) . . .
270(9) . . .
244(8) . . .
252(8) . . .
253(8) . . .
242(9) . . .
259(9) . . .
265(9) . . .
264(8) . . .
263(8) . . .
256(9) . . .
248(9) . . .
260(9) . . .
266(9) . . .
255(8) . . .
270(9) . . .
258(9) . . .
262(9) . . .
254(8) . . .
260(8) . . .
267(9) . . .
260(9) . . .
247(8) . . .
250(8) . . .
259(8) . . .
267(9) . . .
252(8) . . .
281(9) . . .
249(8) . . .
252(8) . . .
261(9) . . .
227(8) . . .
261(9) . . .
256(8) . . .
258(8) . . .
255(9) . . .
256(9) . . .
265(9) . . .
245(8) . . .
263(9) . . .
252(9) . . .
252(9) . . .
242(8) . . .
268(8) . . .
252(9) . . .
266(9) . . .
259(9) . . .
266(9) . . .
257(8) . . .
251(8) . . .
263(9) . . .
255(8) . . .
249(8) . . .
254(8) . . .
246(8) . . .
248(8) . . .
288(9) . . .
246(8) . . .
239(8) . . .
277(9) . . .
241(9) . . .
256(8) . . .
245(8) . . .
242(8) . . .
267(9) . . .
250(9) . . .
258(9) . . .
254(8) . . .
244(8) . . .
243(8) . . .
256(9) . . .
227(8) . . .
239(8) . . .
262(8) . . .
248(8) . . .
239(8) . . .
250(8) . . .
255(8) . . .
254(8) . . .
252(8) . . .
261(9) . . .
274(9) . . .
257(8) . . .
264(9) . . .
241(8) . . .
253(9) . . .
288(9) . . .
247(8) . . .
239(8) . . .
254(9) . . .
245(8) . . .
267(9) . . .
261(8) . . .
239(8) . . .
259(9) . . .
267(9) . . .
265(9) . . .
235(8) . . .
247(9) . . .
238(8) . . .
244(8) . . .
288(9) . . .
264(8) . . .
249(8) . . .
259(9) . . .
264(9) . . .
258(8) . . .
246(8) . . .
255(8) . . .
255(9) . . .
277(9) . . .
231(8) . . .
244(8) . . .
273(9) . . .
263(9) . . .
250(9) . . .
272(9) . . .
260(8) . . .
253(8) . . .
237(8) . . .
252(9) . . .
265(8) . . .
259(8) . . .
255(8) . . .
251(9) . . .
265(9) . . .
253(8) . . .
245(8) . . .
241(8) . . .
249(9) . . .
238(8) . . .
243(8) . . .
264(9) . . .
250(8) . . .
263(9) . . .
249(9) . . .
248(8) . . .
259(8) . . .
272(9) . . .
253(9) . . .
260(9) . . .
232(8) . . .
270(9) . . .
251(9) . . .
253(9) . . .
233(8) . . .
249(8) . . .
249(9) . . .
255(9) . . .
248(8) . . .
275(9) . . .
255(8) . . .
259(9) . . .
261(9) . . .
251(9) . . .
263(9) . . .
239(8) . . .
238(8) . . .
270(9) . . .
237(8) . . .
244(8) . . .
247(8) . . .
263(9) . . .
248(9) . . .
253(9) . . .
222(8) . . .
260(8) . . .
230(8) . . .
262(9) . . .
236(8) . . .
250(8) . . .
253(8) . . .
258(9) . . .
254(9) . . .
259(9) . . .
225(8) . . .
245(8) . . .
240(8) . . .
239(8) . . .
233(8) . . .
262(9) . . .
238(8) . . .
233(8) . . .
263(9) . . .
248(9) . . .
233(8) . . .
252(8) . . .
227(8) . . .
225(8) . . .
249(8) . . .
269(8) . . .
262(9) . . .
254(9) . . .
226(8) . . .
240(8) . . .
253(8) . . .
239(8) . . .
248(9) . . .
245(8) . . .
260(9) . . .
240(8) . . .
233(8) . . .
242(8) . . .
237(8) . . .
248(8) . . .
231(8) . . .
249(9) . . .
243(9) . . .
217(8) . . .
257(8) . . .
233(8) . . .
242(8) . . .
231(8) . . .
229(8) . . .
249(8) . . .
241(8) . . .
231(8) . . .
243(9) . . .
256(8) . . .
241(8) . . .
244(8) . . .
230(8) . . .
237(9) . . .
251(9) . . .
246(8) . . .
242(8) . . .
237(8) . . .
240(9) . . .
221(8) . . .
249(8) . . .
223(8) . . .
249(8) . . .
239(8) . . .
251(8) . . .
251(8) . . .
250(8) . . .
242(8) . . .
247(9) . . .
221(8) . . .
243(8) . . .
257(8) . . .
238(8) . . .
235(8) . . .
236(8) . . .
246(8) . . .
236(8) . . .
251(8) . . .
221(8) . . .
243(8) . . .
250(8) . . .
248(8) . . .
260(9) . . .
243(8) . . .
234(8) . . .
245(8) . . .
244(8) . . .
261(9) . . .
251(8) . . .
253(8) . . .
238(8) . . .
252(9) . . .
241(9) . . .
234(8) . . .
243(8) . . .
278(9) . . .
260(9) . . .
255(9) . . .
254(8) . . .
258(8) . . .
271(9) . . .
254(9) . . .
270(9) . . .
252(8) . . .
260(8) . . .
261(8) . . .
243(8) . . .
260(9) . . .
253(8) . . .
252(8) . . .
264(8) . . .
250(8) . . .
253(9) . . .
234(8) . . .
243(8) . . .
258(8) . . .
253(8) . . .
246(9) . . .
254(9) . . .
225(8) . . .
246(8) . . .
216(8) . . .
241(8) . . .
243(8) . . .
218(8) . . .
247(8) . . .
245(8) . . .
223(8) . . .
208(8) . . .
258(8) . . .
244(8) . . .
227(8) . . .
231(8) . . .
226(8) . . .
233(8) . . .
243(8) . . .
250(9) . . .
237(8) . . .
240(8) . . .
239(8) . . .
233(8) . . .
227(8) . . .
210(8) . . .
228(8) . . .
239(8) . . .
225(8) . . .
223(8) . . .
211(8) . . .
227(8) . . .
243(8) . . .
222(8) . . .
227(8) . . .
225(8) . . .
227(8) . . .
230(8) . . .
238(8) . . .
219(8) . . .
230(8) . . .
230(8) . . .
220(8) . . .
231(8) . . .
226(8) . . .
259(9) . . .
211(8) . . .
236(8) . . .
219(8) . . .
224(8) . . .
212(8) . . .
225(8) . . .
216(8) . . .
234(8) . . .
227(8) . . .
222(8) . . .
218(8) . . .
223(8) . . .
222(8) . . .
220(8) . . .
209(8) . . .
219(8) . . .
228(8) . . .
231(8) . . .
233(8) . . .
214(8) . . .
215(8) . . .
219(8) . . .
220(8) . . .
217(8) . . .
238(8) . . .
233(8) . . .
224(8) . . .
222(8) . . .
226(8) . . .
219(8) . . .
227(8) . . .
222(8) . . .
206(8) . . .
215(8) . . .
221(8) . . .
233(8) . . .
217(8) . . .
229(8) . . .
218(8) . . .
224(8) . . .
217(8) . . .
236(8) . . .
220(8) . . .
230(8) . . .
225(8) . . .
226(8) . . .
218(8) . . .
217(8) . . .
240(8) . . .
216(8) . . .
215(8) . . .
232(8) . . .
228(8) . . .
226(8) . . .
220(8) . . .
206(8) . . .
216(8) . . .
215(8) . . .
235(8) . . .
211(8) . . .
209(8) . . .
225(8) . . .
236(8) . . .
229(8) . . .
211(8) . . .
222(8) . . .
216(8) . . .
214(8) . . .
224(8) . . .
223(8) . . .
196(7) . . .
211(8) . . .
216(8) . . .
223(8) . . .
223(8) . . .
205(8) . . .
205(8) . . .
203(8) . . .
216(8) . . .
211(8) . . .
225(8) . . .
210(8) . . .
231(8) . . .
230(8) . . .
204(7) . . .
214(8) . . .
218(8) . . .
210(8) . . .
220(8) . . .
216(8) . . .
233(8) . . .
222(8) . . .
223(8) . . .
216(8) . . .
230(8) . . .
234(8) . . .
218(8) . . .
215(8) . . .
219(8) . . .
211(8) . . .
207(8) . . .
223(8) . . .
238(8) . . .
218(8) . . .
225(8) . . .
229(8) . . .
219(8) . . .
234(8) . . .
212(8) . . .
209(8) . . .
247(9) . . .
213(8) . . .
229(8) . . .
218(8) . . .
232(8) . . .
211(8) . . .
227(8) . . .
228(8) . . .
210(7) . . .
232(8) . . .
221(8) . . .
222(8) . . .
216(8) . . .
252(8) . . .
215(8) . . .
205(8) . . .
213(8) . . .
223(8) . . .
225(8) . . .
211(8) . . .
211(8) . . .
209(8) . . .
216(8) . . .
216(8) . . .
198(8) . . .
208(8) . . .
206(8) . . .
203(7) . . .
248(8) . . .
210(8) . . .
222(8) . . .
204(7) . . .
236(8) . . .
231(8) . . .
232(8) . . .
205(8) . . .
217(8) . . .
233(8) . . .
211(8) . . .
218(8) . . .
230(9) . . .
219(8) . . .
228(8) . . .
226(8) . . .
256(9) . . .
210(8) . . .
208(8) . . .
219(8) . . .
222(8) . . .
213(8) . . .
207(8) . . .
224(8) . . .
227(8) . . .
205(8) . . .
217(8) . . .
217(8) . . .
200(8) . . .
211(8) . . .
212(8) . . .
185(7) . . .
206(8) . . .
217(8) . . .
227(8) . . .
224(8) . . .
223(8) . . .
223(8) . . .
220(8) . . .
216(8) . . .
214(8) . . .
209(8) . . .
208(8) . . .
220(8) . . .
217(8) . . .
225(8) . . .
215(8) . . .
214(8) . . .
222(8) . . .
248(8) . . .
197(8) . . .
191(8) . . .
198(7) . . .
196(7) . . .
227(8) . . .
233(8) . . .
216(8) . . .
206(8) . . .
222(8) . . .
228(8) . . .
224(8) . . .
213(8) . . .
208(8) . . .
207(7) . . .
228(8) . . .
215(8) . . .
226(8) . . .
199(8) . . .
201(7) . . .
217(8) . . .
206(8) . . .
202(8) . . .
210(8) . . .
205(7) . . .
200(7) . . .
224(8) . . .
232(8) . . .
218(8) . . .
215(8) . . .
219(8) . . .
230(8) . . .
216(8) . . .
220(8) . . .
217(8) . . .
215(8) . . .
216(8) . . .
213(8) . . .
227(8) . . .
222(8) . . .
213(8) . . .
211(8) . . .
198(8) . . .
233(8) . . .
223(8) . . .
216(8) . . .
211(8) . . .
233(8) . . .
187(7) . . .
227(8) . . .
229(8) . . .
219(8) . . .
203(8) . . .
218(8) . . .
214(8) . . .
239(8) . . .
237(8) . . .
216(8) . . .
200(7) . . .
229(8) . . .
221(8) . . .
238(8) . . .
220(8) . . .
216(8) . . .
232(8) . . .
219(8) . . .
195(8) . . .
215(8) . . .
203(7) . . .
231(8) . . .
231(8) . . .
216(8) . . .
229(8) . . .
199(7) . . .
204(8) . . .
217(8) . . .
187(7) . . .
205(8) . . .
204(7) . . .
189(8) . . .
190(8) . . .
198(8) . . .
192(7) . . .
209(8) . . .
231(8) . . .
206(8) . . .
195(8) . . .
197(8) . . .
204(7) . . .
181(7) . . .
210(8) . . .
215(8) . . .
229(8) . . .
201(7) . . .
241(8) . . .
221(8) . . .
193(8) . . .
199(7) . . .
209(8) . . .
215(8) . . .
197(8) . . .
192(7) . . .
193(7) . . .
189(7) . . .
212(8) . . .
216(8) . . .
218(8) . . .
197(7) . . .
211(8) . . .
192(7) . . .
199(8) . . .
207(8) . . .
186(7) . . .
211(8) . . .
210(8) . . .
217(8) . . .
215(8) . . .
212(8) . . .
194(7) . . .
193(7) . . .
206(8) . . .
178(7) . . .
194(7) . . .
216(8) . . .
199(8) . . .
180(7) . . .
214(8) . . .
220(8) . . .
217(8) . . .
210(8) . . .
203(8) . . .
206(8) . . .
198(7) . . .
220(8) . . .
207(8) . . .
220(8) . . .
217(8) . . .
224(8) . . .
216(8) . . .
213(8) . . .
212(8) . . .
203(8) . . .
194(7) . . .
201(8) . . .
201(8) . . .
212(8) . . .
206(7) . . .
216(8) . . .
214(8) . . .
213(8) . . .
213(8) . . .
204(7) . . .
205(7) . . .
206(8) . . .
199(8) . . .
190(8) . . .
199(7) . . .
195(7) . . .
207(8) . . .
198(8) . . .
205(8) . . .
189(7) . . .
206(7) . . .
204(8) . . .
189(8) . . .
203(8) . . .
198(7) . . .
198(7) . . .
187(7) . . .
208(8) . . .
222(8) . . .
194(7) . . .
206(8) . . .
220(8) . . .
203(8) . . .
220(8) . . .
213(8) . . .
187(7) . . .
196(8) . . .
183(7) . . .
210(8) . . .
194(7) . . .
197(8) . . .
209(8) . . .
195(8) . . .
200(7) . . .
198(7) . . .
209(8) . . .
209(8) . . .
195(7) . . .
220(8) . . .
206(7) . . .
201(8) . . .
207(8) . . .
195(8) . . .
173(7) . . .
184(7) . . .
207(8) . . .
206(8) . . .
198(8) . . .
222(8) . . .
212(8) . . .
192(8) . . .
216(8) . . .
206(8) . . .
201(7) . . .
197(7) . . .
187(7) . . .
202(8) . . .
205(8) . . .
201(7) . . .
203(7) . . .
174(7) . . .
210(8) . . .
206(8) . . .
219(8) . . .
191(7) . . .
178(7) . . .
177(7) . . .
191(7) . . .
195(7) . . .
201(7) . . .
198(8) . . .
198(8) . . .
198(7) . . .
211(8) . . .
203(8) . . .
201(8) . . .
194(8) . . .
224(8) . . .
207(7) . . .
198(8) . . .
200(8) . . .
195(8) . . .
185(7) . . .
188(7) . . .
197(7) . . .
199(8) . . .
189(7) . . .
195(7) . . .
198(7) . . .
217(8) . . .
192(8) . . .
210(8) . . .
189(7) . . .
195(7) . . .
212(8) . . .
209(8) . . .
197(8) . . .
194(7) . . .
194(7) . . .
198(8) . . .
207(8) . . .
207(8) . . .
196(7) . . .
209(7) . . .
182(7) . . .
200(8) . . .
209(8) . . .
201(7) . . .
213(8) . . .
211(8) . . .
214(8) . . .
223(8) . . .
204(7) . . .
184(7) . . .
198(8) . . .
205(8) . . .
213(8) . . .
220(8) . . .
182(7) . . .
200(8) . . .
193(8) . . .
211(8) . . .
195(7) . . .
204(8) . . .
208(8) . . .
213(8) . . .
207(8) . . .
206(7) . . .
196(8) . . .
188(7) . . .
203(8) . . .
199(7) . . .
190(7) . . .
192(7) . . .
206(8) . . .
216(8) . . .
187(7) . . .
190(7) . . .
198(8) . . .
200(8) . . .
191(8) . . .
213(8) . . .
207(7) . . .
184(7) . . .
217(8) . . .
197(8) . . .
172(7) . . .
191(7) . . .
203(8) . . .
201(8) . . .
207(8) . . .
200(7) . . .
194(7) . . .
184(7) . . .
221(8) . . .
192(7) . . .
202(7) . . .
197(7) . . .
190(8) . . .
217(8) . . .
207(8) . . .
199(7) . . .
211(8) . . .
214(8) . . .
199(8) . . .
209(8) . . .
210(8) . . .
208(8) . . .
211(8) . . .
206(8) . . .
224(8) . . .
216(8) . . .
207(8) . . .
213(8) . . .
184(7) . . .
193(7) . . .
205(7) . . .
201(7) . . .
209(8) . . .
203(8) . . .
212(8) . . .
196(7) . . .
215(8) . . .
199(8) . . .
189(7) . . .
198(7) . . .
199(7) . . .
193(7) . . .
194(8) . . .
193(7) . . .
215(8) . . .
189(7) . . .
208(8) . . .
190(8) . . .
219(8) . . .
184(7) . . .
211(8) . . .
203(8) . . .
208(8) . . .
185(7) . . .
210(8) . . .
214(8) . . .
216(8) . . .
196(8) . . .
210(8) . . .
175(7) . . .
197(7) . . .
203(8) . . .
197(8) . . .
193(7) . . .
195(7) . . .
180(7) . . .
184(7) . . .
166(7) . . .
209(8) . . .
174(7) . . .
202(7) . . .
199(8) . . .
198(8) . . .
193(7) . . .
200(7) . . .
183(7) . . .
188(7) . . .
169(7) . . .
172(7) . . .
194(7) . . .
186(7) . . .
191(7) . . .
188(7) . . .
194(7) . . .
187(7) . . .
193(7) . . .
195(8) . . .
191(7) . . .
180(7) . . .
187(7) . . .
176(7) . . .
204(8) . . .
194(7) . . .
186(7) . . .
185(7) . . .
209(8) . . .
204(8) . . .
195(7) . . .
211(8) . . .
202(7) . . .
191(7) . . .
211(8) . . .
188(7) . . .
178(7) . . .
191(7) . . .
190(7) . . .
195(8) . . .
210(8) . . .
176(7) . . .
198(7) . . .
197(7) . . .
201(8) . . .
206(8) . . .
227(8) . . .
208(7) . . .
206(8) . . .
200(8) . . .
192(7) . . .
197(7) . . .
205(7) . . .
199(8) . . .
184(7) . . .
179(7) . . .
177(7) . . .
179(7) . . .
203(8) . . .
207(8) . . .
205(8) . . .
201(7) . . .
195(7) . . .
196(8) . . .
218(8) . . .
196(7) . . .
180(7) . . .
192(7) . . .
193(7) . . .
194(7) . . .
203(8) . . .
190(7) . . .
176(7) . . .
188(8) . . .
159(7) . . .
204(8) . . .
186(7) . . .
199(8) . . .
184(7) . . .
213(8) . . .
191(7) . . .
203(7) . . .
191(7) . . .
187(8) . . .
203(8) . . .
192(7) . . .
180(7) . . .
183(7) . . .
178(7) . . .
187(7) . . .
175(7) . . .
161(7) . . .
188(7) . . .
215(8) . . .
184(7) . . .
197(7) . . .
183(7) . . .
183(7) . . .
185(8) . . .
198(8) . . .
218(8) . . .
185(7) . . .
195(8) . . .
196(8) . . .
178(7) . . .
193(7) . . .
177(7) . . .
186(7) . . .
178(7) . . .
179(7) . . .
170(7) . . .
190(7) . . .
176(7) . . .
176(7) . . .
183(7) . . .
179(7) . . .
191(8) . . .
197(8) . . .
179(7) . . .
180(7) . . .
180(7) . . .
171(7) . . .
189(8) . . .
183(7) . . .
168(7) . . .
194(7) . . .
203(8) . . .
198(8) . . .
207(8) . . .
205(7) . . .
180(7) . . .
186(7) . . .
166(7) . . .
183(8) . . .
185(7) . . .
202(7) . . .
193(7) . . .
187(8) . . .
179(7) . . .
184(7) . . .
196(7) . . .
166(7) . . .
204(8) . . .
230(8) . . .
189(7) . . .
169(7) . . .
181(7) . . .
196(8) . . .
192(8) . . .
188(7) . . .
194(7) . . .
189(7) . . .
201(8) . . .
189(7) . . .
207(7) . . .
171(7) . . .
177(7) . . .
174(7) . . .
187(7) . . .
167(7) . . .
187(8) . . .
184(7) . . .
207(8) . . .
188(7) . . .
187(7) . . .
192(7) . . .
172(7) . . .
181(7) . . .
179(7) . . .
175(7) . . .
180(7) . . .
173(7) . . .
177(7) . . .
185(7) . . .
208(7) . . .
203(8) . . .
161(7) . . .
174(7) . . .
198(7) . . .
184(7) . . .
197(8) . . .
176(7) . . .
181(7) . . .
185(7) . . .
197(7) . . .
196(8) . . .
190(8) . . .
183(7) . . .
183(7) . . .
197(7) . . .
199(7) . . .
169(7) . . .
166(7) . . .
186(7) . . .
176(7) . . .
174(7) . . .
173(7) . . .
182(7) . . .
179(7) . . .
179(7) . . .
170(7) . . .
174(7) . . .
180(7) . . .
198(7) . . .
167(7) . . .
171(7) . . .
191(8) . . .
185(7) . . .
171(7) . . .
173(7) . . .
201(8) . . .
184(7) . . .
179(7) . . .
201(7) . . .
184(7) . . .
166(7) . . .
171(7) . . .
190(7) . . .
181(7) . . .
196(7) . . .
192(7) . . .
193(8) . . .
170(7) . . .
194(7) . . .
174(7) . . .
194(8) . . .
187(7) . . .
191(7) . . .
169(7) . . .
183(7) . . .
183(8) . . .
184(7) . . .
198(7) . . .
188(7) . . .
199(8) . . .
196(8) . . .
199(8) . . .
185(7) . . .
181(7) . . .
195(7) . . .
195(8) . . .
169(7) . . .
176(7) . . .
201(7) . . .
199(8) . . .
192(8) . . .
179(7) . . .
199(7) . . .
175(7) . . .
201(8) . . .
200(8) . . .
188(7) . . .
187(7) . . .
203(7) . . .
186(8) . . .
199(8) . . .
181(7) . . .
196(7) . . .
186(7) . . .
186(7) . . .
173(7) . . .
185(7) . . .
182(7) . . .
185(7) . . .
176(7) . . .
192(8) . . .
197(7) . . .
205(7) . . .
182(7) . . .
194(8) . . .
173(7) . . .
198(7) . . .
198(7) . . .
159(7) . . .
188(7) . . .
203(8) . . .
192(7) . . .
186(7) . . .
187(7) . . .
182(8) . . .
202(8) . . .
187(7) . . .
198(7) . . .
180(7) . . .
169(7) . . .
177(7) . . .
181(7) . . .
199(7) . . .
183(7) . . .
199(8) . . .
173(7) . . .
207(7) . . .
190(7) . . .
194(7) . . .
197(8) . . .
184(7) . . .
197(7) . . .
184(7) . . .
195(8) . . .
199(8) . . .
185(7) . . .
186(7) . . .
184(7) . . .
191(7) . . .
189(8) . . .
193(8) . . .
169(7) . . .
183(7) . . .
182(7) . . .
190(7) . . .
184(7) . . .
197(7) . . .
194(7) . . .
187(7) . . .
202(8) . . .
187(7) . . .
173(7) . . .
170(7) . . .
161(7) . . .
192(8) . . .
184(7) . . .
182(7) . . .
187(7) . . .
190(8) . . .
188(7) . . .
182(7) . . .
195(7) . . .
171(7) . . .
201(8) . . .
184(7) . . .
184(7) . . .
182(7) . . .
189(7) . . .
182(8) . . .
187(7) . . .
168(7) . . .
201(7) . . .
178(7) . . .
186(8) . . .
168(7) . . .
185(7) . . .
199(7) . . .
186(7) . . .
185(8) . . .
180(7) . . .
200(7) . . .
180(7) . . .
200(7) . . .
198(8) . . .
182(7) . . .
179(7) . . .
170(7) . . .
182(7) . . .
189(8) . . .
180(7) . . .
187(7) . . .
161(7) . . .
175(7) . . .
184(7) . . .
188(7) . . .
167(7) . . .
186(7) . . .
203(8) . . .
160(7) . . .
151(7) . . .
161(7) . . .
186(7) . . .
190(7) . . .
189(7) . . .
180(7) . . .
185(7) . . .
179(7) . . .
188(8) . . .
187(7) . . .
177(7) . . .
176(7) . . .
176(7) . . .
194(8) . . .
193(8) . . .
172(7) . . .
171(7) . . .
173(7) . . .
201(8) . . .
180(7) . . .
175(7) . . .
172(7) . . .
173(7) . . .
190(8) . . .
185(7) . . .
178(7) . . .
185(7) . . .
159(7) . . .
172(7) . . .
172(7) . . .
169(7) . . .
175(7) . . .
171(7) . . .
180(7) . . .
182(7) . . .
160(7) . . .
182(7) . . .
180(7) . . .
177(7) . . .
179(7) . . .
185(7) . . .
174(7) . . .
197(8) . . .
193(8) . . .
194(8) . . .
182(7) . . .
168(7) . . .
186(7) . . .
197(7) . . .
193(7) . . .
173(7) . . .
167(7) . . .
191(8) . . .
195(8) . . .
183(7) . . .
190(7) . . .
172(7) . . .
195(8) . . .
182(7) . . .
165(7) . . .
165(7) . . .
169(7) . . .
183(7) . . .
183(7) . . .
186(7) . . .
177(7) . . .
169(7) . . .
177(7) . . .
172(7) . . .
166(7) . . .
177(7) . . .
184(7) . . .
188(7) . . .
202(8) . . .
176(7) . . .
183(7) . . .
195(7) . . .
181(7) . . .
174(7) . . .
183(7) . . .
185(7) . . .
174(7) . . .
195(8) . . .
170(7) . . .
173(7) . . .
167(7) . . .
168(7) . . .
191(8) . . .
164(7) . . .
180(7) . . .
154(6) . . .
174(7) . . .
175(7) . . .
169(7) . . .
174(7) . . .
182(7) . . .
165(7) . . .
183(7) . . .
175(7) . . .
157(6) . . .
171(7) . . .
186(7) . . .
185(7) . . .
157(7) . . .
180(7) . . .
185(7) . . .
183(7) . . .
190(8) . . .
198(7) . . .
189(7) . . .
180(7) . . .
170(7) . . .
171(7) . . .
184(7) . . .
187(7) . . .
177(7) . . .
164(7) . . .
178(7) . . .
180(7) . . .
198(7) . . .
169(7) . . .
172(7) . . .
158(7) . . .
149(6) . . .
171(7) . . .
157(7) . . .
175(7) . . .
181(7) . . .
183(7) . . .
176(7) . . .
197(8) . . .
193(8) . . .
179(7) . . .
154(6) . . .
180(7) . . .
181(7) . . .
191(8) . . .
182(7) . . .
162(7) . . .
174(7) . . .
189(8) . . .
170(7) . . .
172(7) . . .
185(7) . . .
172(7) . . .
185(7) . . .
184(7) . . .
191(7) . . .
179(7) . . .
184(7) . . .
176(7) . . .
191(8) . . .
183(7) . . .
180(7) . . .
153(7) . . .
162(7) . . .
169(7) . . .
179(7) . . .
174(7) . . .
147(6) . . .
172(7) . . .
184(7) . . .
171(7) . . .
185(7) . . .
169(7) . . .
178(7) . . .
162(7) . . .
198(7) . . .
187(7) . . .
173(7) . . .
192(8) . . .
194(7) . . .
173(7) . . .
187(7) . . .
180(7) . . .
173(7) . . .
170(7) . . .
160(7) . . .
185(7) . . .
192(8) . . .
161(7) . . .
171(7) . . .
175(7) . . .
168(7) . . .
188(7) . . .
163(7) . . .
192(8) . . .
179(7) . . .
193(7) . . .
187(7) . . .
176(7) . . .
152(6) . . .
183(7) . . .
164(7) . . .
164(7) . . .
180(7) . . .
162(7) . . .
185(7) . . .
178(7) . . .
202(8) . . .
176(7) . . .
162(7) . . .
158(7) . . .
176(7) . . .
173(7) . . .
189(7) . . .
182(7) . . .
188(7) . . .
168(7) . . .
203(8) . . .
193(8) . . .
191(7) . . .
167(7) . . .
171(7) . . .
175(7) . . .
186(7) . . .
174(7) . . .
198(7) . . .
179(7) . . .
189(7) . . .
183(7) . . .
160(7) . . .
181(7) . . .
187(7) . . .
165(7) . . .
192(8) . . .
164(7) . . .
179(7) . . .
173(7) . . .
192(8) . . .
198(7) . . .
190(7) . . .
157(6) . . .
183(7) . . .
180(8) . . .
182(7) . . .
186(7) . . .
185(7) . . .
178(7) . . .
177(7) . . .
190(7) . . .
175(7) . . .
177(7) . . .
156(7) . . .
185(8) . . .
164(7) . . .
165(7) . . .
183(7) . . .
172(7) . . .
168(7) . . .
178(7) . . .
176(7) . . .
169(7) . . .
175(7) . . .
188(7) . . .
185(7) . . .
196(7) . . .
175(7) . . .
172(7) . . .
159(7) . . .
171(7) . . .
190(7) . . .
164(7) . . .
168(7) . . .
185(7) . . .
181(7) . . .
176(7) . . .
161(7) . . .
195(8) . . .
172(7) . . .
189(7) . . .
173(7) . . .
163(7) . . .
169(7) . . .
169(7) . . .
161(7) . . .
162(7) . . .
173(7) . . .
174(8) . . .
151(7) . . .
170(7) . . .
154(6) . . .
173(7) . . .
148(6) . . .
177(7) . . .
177(7) . . .
174(7) . . .
176(7) . . .
176(7) . . .
154(7) . . .
187(7) . . .
188(7) . . .
159(7) . . .
164(7) . . .
167(7) . . .
171(7) . . .
173(7) . . .
188(8) . . .
170(7) . . .
191(7) . . .
170(7) . . .
166(7) . . .
168(7) . . .
190(7) . . .
179(7) . . .
189(7) . . .
158(7) . . .
175(7) . . .
159(7) . . .
177(7) . . .
193(7) . . .
172(7) . . .
182(7) . . .
162(7) . . .
158(7) . . .
187(7) . . .
182(7) . . .
159(7) . . .
182(7) . . .
189(7) . . .
172(7) . . .
162(7) . . .
181(8) . . .
180(7) . . .
152(6) . . .
182(7) . . .
166(7) . . .
171(7) . . .
177(7) . . .
157(6) . . .
181(7) . . .
175(7) . . .
165(7) . . .
172(7) . . .
166(7) . . .
170(7) . . .
163(7) . . .
198(8) . . .
179(7) . . .
176(7) . . .
170(7) . . .
162(7) . . .
194(8) . . .
194(8) . . .
163(7) . . .
170(7) . . .
174(7) . . .
176(7) . . .
185(7) . . .
182(7) . . .
185(7) . . .
174(7) . . .
165(7) . . .
163(7) . . .
163(7) . . .
162(7) . . .
182(7) . . .
173(7) . . .
170(7) . . .
162(7) . . .
178(7) . . .
178(7) . . .
174(7) . . .
183(7) . . .
184(7) . . .
184(7) . . .
190(8) . . .
176(7) . . .
171(7) . . .
161(7) . . .
177(7) . . .
184(7) . . .
197(8) . . .
179(7) . . .
183(7) . . .
175(7) . . .
181(8) . . .
170(7) . . .
161(7) . . .
174(7) . . .
169(7) . . .
155(7) . . .
163(7) . . .
159(7) . . .
161(7) . . .
183(7) . . .
184(8) . . .
162(7) . . .
185(7) . . .
188(7) . . .
164(7) . . .
176(7) . . .
163(7) . . .
175(7) . . .
155(7) . . .
149(7) . . .
170(7) . . .
182(7) . . .
175(7) . . .
174(7) . . .
183(7) . . .
168(7) . . .
170(7) . . .
165(7) . . .
167(7) . . .
172(7) . . .
161(7) . . .
166(7) . . .
165(7) . . .
167(7) . . .
165(7) . . .
171(7) . . .
169(7) . . .
182(7) . . .
176(7) . . .
169(7) . . .
160(7) . . .
176(7) . . .
171(7) . . .
175(7) . . .
169(7) . . .
165(7) . . .
168(7) . . .
170(7) . . .
182(7) . . .
162(7) . . .
190(8) . . .
190(7) . . .
175(7) . . .
179(7) . . .
183(8) . . .
179(7) . . .
193(7) . . .
187(7) . . .
199(8) . . .
173(7) . . .
173(7) . . .
183(7) . . .
187(7) . . .
171(7) . . .
189(8) . . .
186(7) . . .
184(7) . . .
183(7) . . .
170(7) . . .
188(8) . . .
179(7) . . .
186(7) . . .
173(7) . . .
174(7) . . .
166(7) . . .
166(7) . . .
174(7) . . .
181(7) . . .
177(7) . . .
210(8) . . .
176(7) . . .
156(6) . . .
174(7) . . .
173(7) . . .
167(7) . . .
177(7) . . .
163(7) . . .
150(6) . . .
174(7) . . .
175(7) . . .
155(7) . . .
151(6) . . .
169(7) . . .
172(7) . . .
165(7) . . .
164(7) . . .
188(7) . . .
154(7) . . .
167(7) . . .
170(7) . . .
171(7) . . .
173(7) . . .
160(7) . . .
176(7) . . .
186(7) . . .
204(8) . . .
160(7) . . .
149(6) . . .
164(7) . . .
169(7) . . .
156(6) . . .
169(7) . . .
160(7) . . .
162(7) . . .
159(7) . . .
169(7) . . .
184(7) . . .
196(7) . . .
166(7) . . .
173(7) . . .
165(7) . . .
175(7) . . .
153(7) . . .
178(8) . . .
166(7) . . .
154(6) . . .
155(6) . . .
182(7) . . .
160(7) . . .
164(7) . . .
170(7) . . .
168(7) . . .
169(7) . . .
182(7) . . .
158(7) . . .
182(7) . . .
174(7) . . .
169(7) . . .
168(7) . . .
179(7) . . .
174(7) . . .
162(7) . . .
181(7) . . .
161(7) . . .
185(7) . . .
178(7) . . .
178(7) . . .
173(7) . . .
154(6) . . .
174(7) . . .
193(7) . . .
160(7) . . .
175(7) . . .
169(7) . . .
173(7) . . .
171(7) . . .
154(7) . . .
165(7) . . .
177(7) . . .
165(7) . . .
194(7) . . .
178(7) . . .
181(7) . . .
191(7) . . .
175(7) . . .
158(7) . . .
174(7) . . .
170(7) . . .
183(7) . . .
163(7) . . .
173(7) . . .
183(7) . . .
187(8) . . .
183(7) . . .
176(7) . . .
154(6) . . .
179(7) . . .
168(7) . . .
185(7) . . .
184(7) . . .
167(7) . . .
182(7) . . .
179(7) . . .
176(7) . . .
168(7) . . .
182(7) . . .
173(7) . . .
201(8) . . .
173(7) . . .
174(7) . . .
188(7) . . .
193(8) . . .
192(8) . . .
169(7) . . .
168(7) . . .
173(7) . . .
185(8) . . .
180(7) . . .
178(7) . . .
170(7) . . .
163(7) . . .
178(7) . . .
192(7) . . .
176(7) . . .
166(7) . . .
182(7) . . .
193(8) . . .
173(7) . . .
169(7) . . .
181(7) . . .
172(7) . . .
175(7) . . .
165(7) . . .
171(7) . . .
177(7) . . .
174(7) . . .
176(7) . . .
176(7) . . .
169(7) . . .
169(7) . . .
179(7) . . .
170(7) . . .
183(7) . . .
189(7) . . .
172(7) . . .
178(7) . . .
185(7) . . .
180(7) . . .
169(7) . . .
176(7) . . .
162(7) . . .
162(7) . . .
188(7) . . .
164(7) . . .
169(7) . . .
183(7) . . .
158(7) . . .
144(6) . . .
169(7) . . .
154(7) . . .
174(7) . . .
186(7) . . .
183(7) . . .
172(7) . . .
168(7) . . .
176(7) . . .
173(7) . . .
172(7) . . .
155(6) . . .
170(7) . . .
172(7) . . .
167(7) . . .
185(7) . . .
187(7) . . .
176(7) . . .
164(7) . . .
169(7) . . .
176(7) . . .
186(7) . . .
162(7) . . .
173(8) . . .
173(7) . . .
177(7) . . .
177(7) . . .
187(7) . . .
177(7) . . .
168(7) . . .
189(7) . . .
193(7) . . .
162(7) . . .
206(8) . . .
162(7) . . .
161(7) . . .
160(7) . . .
180(7) . . .
186(8) . . .
157(7) . . .
166(7) . . .
181(7) . . .
191(7) . . .
163(7) . . .
179(7) . . .
190(7) . . .
179(7) . . .
172(7) . . .
210(8) . . .
194(7) . . .
197(7) . . .
168(7) . . .
177(7) . . .
202(8) . . .
191(7) . . .
182(7) . . .
182(7) . . .
177(7) . . .
185(7) . . .
171(7) . . .
175(7) . . .
162(7) . . .
166(7) . . .
180(7) . . .
185(7) . . .
170(7) . . .
186(7) . . .
187(8) . . .
185(7) . . .
176(7) . . .
173(7) . . .
172(7) . . .
191(8) . . .
171(7) . . .
172(7) . . .
158(6) . . .
171(7) . . .
163(7) . . .
173(7) . . .
168(7) . . .
170(7) . . .
170(7) . . .
176(7) . . .
167(7) . . .
194(7) . . .
175(7) . . .
176(7) . . .
181(7) . . .
165(7) . . .
186(7) . . .
170(7) . . .
163(7) . . .
173(7) . . .
170(7) . . .
173(7) . . .
157(7) . . .
172(7) . . .
153(6) . . .
156(6) . . .
175(7) . . .
173(7) . . .
180(7) . . .
165(7) . . .
162(7) . . .
175(7) . . .
186(7) . . .
169(7) . . .
166(7) . . .
161(7) . . .
182(7) . . .
145(6) . . .
164(7) . . .
175(7) . . .
162(7) . . .
173(7) . . .
178(7) . . .
180(8) . . .
158(7) . . .
185(7) . . .
187(7) . . .
186(7) . . .
166(7) . . .
165(7) . . .
176(7) . . .
170(7) . . .
193(8) . . .
167(7) . . .
185(7) . . .
188(7) . . .
175(7) . . .
182(7) . . .
164(7) . . .
168(7) . . .
143(6) . . .
174(7) . . .
165(7) . . .
174(7) . . .
177(7) . . .
158(7) . . .
178(7) . . .
173(7) . . .
186(7) . . .
166(7) . . .
162(7) . . .
168(7) . . .
167(7) . . .
166(7) . . .
170(7) . . .
182(7) . . .
169(7) . . .
159(7) . . .
177(7) . . .
178(7) . . .
184(7) . . .
189(7) . . .
187(8) . . .
180(7) . . .
167(7) . . .
160(7) . . .
171(7) . . .
174(7) . . .
181(7) . . .
174(7) . . .
184(7) . . .
166(7) . . .
193(8) . . .
187(8) . . .
182(7) . . .
156(7) . . .
172(7) . . .
168(7) . . .
172(7) . . .
164(7) . . .
174(7) . . .
153(7) . . .
177(7) . . .
165(7) . . .
190(7) . . .
200(7) . . .
177(7) . . .
165(7) . . .
179(7) . . .
170(7) . . .
158(7) . . .
176(7) . . .
175(7) . . .
174(7) . . .
163(7) . . .
168(7) . . .
160(7) . . .
173(7) . . .
178(7) . . .
193(7) . . .
173(7) . . .
177(7) . . .
173(7) . . .
160(7) . . .
176(7) . . .
171(7) . . .
162(7) . . .
167(7) . . .
166(7) . . .
164(7) . . .
173(7) . . .
168(7) . . .
178(7) . . .
161(7) . . .
169(7) . . .
161(7) . . .
171(7) . . .
168(7) . . .
187(7) . . .
147(6) . . .
154(7) . . .
182(8) . . .
187(7) . . .
177(7) . . .
188(7) . . .
177(7) . . .
165(7) . . .
173(7) . . .
206(8) . . .
171(7) . . .
162(7) . . .
176(7) . . .
173(7) . . .
175(7) . . .
170(7) . . .
171(7) . . .
181(8) . . .
189(8) . . .
174(7) . . .
177(7) . . .
163(7) . . .
166(7) . . .
164(7) . . .
166(7) . . .
181(7) . . .
176(7) . . .
174(7) . . .
166(7) . . .
178(7) . . .
177(7) . . .
197(8) . . .
180(7) . . .
176(7) . . .
193(7) . . .
166(7) . . .
155(7) . . .
172(7) . . .
180(7) . . .
169(7) . . .
165(7) . . .
181(7) . . .
173(7) . . .
171(7) . . .
186(7) . . .
179(7) . . .
180(7) . . .
180(7) . . .
172(7) . . .
184(7) . . .
158(7) . . .
179(7) . . .
148(6) . . .
174(7) . . .
168(7) . . .
173(7) . . .
177(7) . . .
183(7) . . .
168(7) . . .
167(7) . . .
182(7) . . .
185(8) . . .
183(7) . . .
177(7) . . .
188(7) . . .
175(7) . . .
176(7) . . .
181(7) . . .
189(7) . . .
171(7) . . .
169(7) . . .
182(7) . . .
181(7) . . .
156(6) . . .
161(7) . . .
193(8) . . .
164(7) . . .
154(7) . . .
176(7) . . .
175(7) . . .
184(7) . . .
175(7) . . .
165(7) . . .
174(7) . . .
158(7) . . .
154(7) . . .
160(7) . . .
175(7) . . .
173(7) . . .
154(7) . . .
185(7) . . .
161(7) . . .
162(7) . . .
164(7) . . .
190(7) . . .
167(7) . . .
178(7) . . .
167(7) . . .
179(7) . . .
166(7) . . .
167(7) . . .
167(7) . . .
188(7) . . .
164(7) . . .
179(7) . . .
172(7) . . .
170(7) . . .
164(7) . . .
169(7) . . .
180(7) . . .
176(7) . . .
181(7) . . .
160(7) . . .
175(7) . . .
164(7) . . .
169(7) . . .
187(8) . . .
155(6) . . .
166(7) . . .
193(8) . . .
167(7) . . .
182(7) . . .
164(7) . . .
174(7) . . .
179(7) . . .
179(7) . . .
184(7) . . .
193(7) . . .
168(7) . . .
175(7) . . .
181(7) . . .
168(7) . . .
180(7) . . .
175(7) . . .
168(7) . . .
166(7) . . .
170(7) . . .
178(7) . . .
177(7) . . .
171(7) . . .
180(7) . . .
181(7) . . .
168(7) . . .
173(7) . . .
171(7) . . .
175(7) . . .
186(7) . . .
193(7) . . .
170(7) . . .
176(7) . . .
186(8) . . .
166(7) . . .
168(7) . . .
165(7) . . .
164(7) . . .
163(7) . . .
176(7) . . .
175(7) . . .
182(7) . . .
176(7) . . .
187(7) . . .
175(7) . . .
162(7) . . .
163(7) . . .
163(7) . . .
191(7) . . .
205(7) . . .
178(7) . . .
162(7) . . .
186(8) . . .
191(8) . . .
176(7) . . .
180(7) . . .
175(7) . . .
175(7) . . .
165(7) . . .
179(7) . . .
173(7) . . .
185(7) . . .
179(8) . . .
166(7) . . .
187(7) . . .
194(7) . . .
170(7) . . .
175(7) . . .
174(7) . . .
177(7) . . .
178(7) . . .
175(7) . . .
179(7) . . .
181(7) . . .
172(7) . . .
179(7) . . .
182(7) . . .
212(8) . . .
174(7) . . .
160(7) . . .
181(7) . . .
179(7) . . .
171(7) . . .
174(7) . . .
175(7) . . .
182(7) . . .
174(7) . . .
173(7) . . .
190(7) . . .
190(7) . . .
170(7) . . .
172(7) . . .
165(7) . . .
168(7) . . .
170(7) . . .
172(7) . . .
174(7) . . .
175(7) . . .
146(6) . . .
174(7) . . .
168(7) . . .
177(8) . . .
180(7) . . .
162(7) . . .
163(7) . . .
165(7) . . .
177(7) . . .
155(7) . . .
155(6) . . .
166(7) . . .
180(7) . . .
168(7) . . .
193(8) . . .
176(7) . . .
184(7) . . .
168(7) . . .
178(7) . . .
156(7) . . .
160(7) . . .
173(7) . . .
169(7) . . .
186(7) . . .
175(7) . . .
173(7) . . .
149(7) . . .
170(7) . . .
166(7) . . .
176(7) . . .
175(7) . . .
175(7) . . .
168(7) . . .
150(7) . . .
181(7) . . .
160(7) . . .
150(6) . . .
185(8) . . .
186(7) . . .
189(7) . . .
187(7) . . .
172(7) . . .
174(7) . . .
176(7) . . .
162(7) . . .
169(7) . . .
161(7) . . .
146(6) . . .
161(7) . . .
180(7) . . .
179(7) . . .
170(7) . . .
180(7) . . .
177(7) . . .
180(7) . . .
169(7) . . .
187(7) . . .
175(7) . . .
173(7) . . .
172(7) . . .
157(7) . . .
180(7) . . .
162(7) . . .
169(7) . . .
175(7) . . .
157(7) . . .
158(7) . . .
151(6) . . .
152(7) . . .
170(7) . . .
168(7) . . .
181(7) . . .
164(7) . . .
173(7) . . .
160(7) . . .
173(7) . . .
168(7) . . .
169(7) . . .
160(7) . . .
193(7) . . .
156(7) . . .
167(7) . . .
165(7) . . .
156(7) . . .
152(6) . . .
165(7) . . .
170(7) . . .
177(7) . . .
151(6) . . .
181(7) . . .
167(7) . . .
183(8) . . .
171(7) . . .
173(7) . . .
165(7) . . .
190(7) . . .
171(7) . . .
165(7) . . .
170(7) . . .
170(7) . . .
196(8) . . .
180(7) . . .
173(7) . . .
184(7) . . .
165(7) . . .
189(8) . . .
163(7) . . .
159(7) . . .
151(6) . . .
165(7) . . .
184(7) . . .
161(7) . . .
176(7) . . .
173(7) . . .
176(7) . . .
176(7) . . .
176(7) . . .
164(7) . . .
169(7) . . .
162(7) . . .
168(7) . . .
156(7) . . .
183(7) . . .
163(7) . . .
166(7) . . .
176(8) . . .
167(7) . . .
172(7) . . .
155(6) . . .
182(7) . . .
154(7) . . .
163(7) . . .
165(7) . . .
171(7) . . .
153(7) . . .
171(7) . . .
185(7) . . .
194(7) . . .
165(7) . . .
161(7) . . .
151(7) . . .
171(7) . . .
160(7) . . .
174(7) . . .
165(7) . . .
174(7) . . .
171(7) . . .
166(7) . . .
166(7) . . .
161(7) . . .
170(7) . . .
175(7) . . .
167(7) . . .
171(7) . . .
169(7) . . .
173(7) . . .
170(7) . . .
151(6) . . .
144(6) . . .
161(7) . . .
167(7) . . .
165(7) . . .
163(7) . . .
164(7) . . .
162(7) . . .
184(7) . . .
164(7) . . .
184(7) . . .
178(7) . . .
168(7) . . .
168(7) . . .
193(7) . . .
196(7) . . .
167(7) . . .
181(7) . . .
173(7) . . .
169(7) . . .
183(7) . . .
168(7) . . .
145(6) . . .
177(7) . . .
162(7) . . .
140(6) . . .
153(7) . . .
176(7) . . .
175(7) . . .
173(7) . . .
168(7) . . .
162(7) . . .
162(7) . . .
164(7) . . .
153(6) . . .
169(7) . . .
169(7) . . .
179(7) . . .
185(7) . . .
178(7) . . .
160(7) . . .
144(6) . . .
161(7) . . .
177(7) . . .
169(7) . . .
171(7) . . .
176(7) . . .
152(7) . . .
150(7) . . .
165(7) . . .
164(7) . . .
178(7) . . .
179(7) . . .
172(7) . . .
169(7) . . .
165(7) . . .
173(7) . . .
179(7) . . .
181(7) . . .
166(7) . . .
161(7) . . .
172(7) . . .
173(7) . . .
170(7) . . .
163(7) . . .
154(7) . . .
162(7) . . .
155(7) . . .
174(7) . . .
164(7) . . .
164(7) . . .
162(7) . . .
179(7) . . .
170(7) . . .
169(7) . . .
162(7) . . .
175(7) . . .
159(7) . . .
166(7) . . .
161(7) . . .
153(7) . . .
175(7) . . .
177(7) . . .
178(7) . . .
174(7) . . .
160(7) . . .
176(7) . . .
176(7) . . .
176(7) . . .
179(7) . . .
164(7) . . .
167(7) . . .
167(7) . . .
174(7) . . .
176(7) . . .
167(7) . . .
157(7) . . .
159(7) . . .
150(6) . . .
159(7) . . .
155(7) . . .
175(7) . . .
189(7) . . .
173(7) . . .
183(7) . . .
168(7) . . .
182(7) . . .
170(7) . . .
148(6) . . .
174(7) . . .
163(7) . . .
159(7) . . .
157(7) . . .
147(6) . . .
166(7) . . .
166(7) . . .
179(7) . . .
168(7) . . .
159(7) . . .
172(7) . . .
184(7) . . .
175(7) . . .
169(7) . . .
172(7) . . .
184(7) . . .
152(7) . . .
173(7) . . .
174(7) . . .
158(6) . . .
146(6) . . .
173(7) . . .
146(7) . . .
170(7) . . .
185(7) . . .
176(7) . . .
164(7) . . .
153(7) . . .
167(7) . . .
180(7) . . .
169(7) . . .
152(7) . . .
181(7) . . .
169(7) . . .
182(7) . . .
171(7) . . .
162(7) . . .
146(6) . . .
162(7) . . .
159(7) . . .
153(6) . . .
177(7) . . .
167(7) . . .
188(7) . . .
167(7) . . .
169(7) . . .
175(7) . . .
166(7) . . .
192(7) . . .
161(7) . . .
172(7) . . .
156(7) . . .
169(7) . . .
167(7) . . .
168(7) . . .
172(7) . . .
155(7) . . .
149(6) . . .
156(6) . . .
165(7) . . .
159(7) . . .
171(7) . . .
176(7) . . .
173(7) . . .
174(7) . . .
172(7) . . .
186(7) . . .
177(7) . . .
175(7) . . .
168(7) . . .
162(7) . . .
165(7) . . .
184(7) . . .
164(7) . . .
165(7) . . .
159(7) . . .
156(7) . . .
154(6) . . .
153(6) . . .
175(7) . . .
149(7) . . .
152(7) . . .
157(6) . . .
166(7) . . .
180(7) . . .
163(7) . . .
151(6) . . .
167(7) . . .
166(7) . . .
178(7) . . .
170(7) . . .
174(7) . . .
165(7) . . .
155(7) . . .
162(7) . . .
151(6) . . .
175(7) . . .
175(7) . . .
160(7) . . .
169(7) . . .
165(7) . . .
170(7) . . .
164(7) . . .
186(7) . . .
147(6) . . .
157(7) . . .
164(7) . . .
167(7) . . .
177(7) . . .
179(7) . . .
161(7) . . .
167(7) . . .
184(7) . . .
168(7) . . .
167(7) . . .
170(7) . . .
166(7) . . .
162(7) . . .
176(7) . . .
170(7) . . .
161(7) . . .
155(6) . . .
170(7) . . .
164(7) . . .
167(7) . . .
168(7) . . .
183(7) . . .
168(7) . . .
176(7) . . .
164(7) . . .
162(7) . . .
181(7) . . .
174(7) . . .
162(7) . . .
159(7) . . .
176(7) . . .
155(6) . . .
164(7) . . .
158(6) . . .
173(7) . . .
170(7) . . .
164(7) . . .
152(6) . . .
158(7) . . .
151(7) . . .
158(7) . . .
149(6) . . .
179(7) . . .
163(7) . . .
161(7) . . .
153(7) . . .
178(7) . . .
147(6) . . .
163(7) . . .
148(7) . . .
161(7) . . .
173(7) . . .
169(7) . . .
143(6) . . .
140(6) . . .
151(6) . . .
155(6) . . .
161(7) . . .
151(7) . . .
158(7) . . .
166(7) . . .
166(7) . . .
151(7) . . .
154(7) . . .
166(7) . . .
159(7) . . .
150(6) . . .
174(7) . . .
166(7) . . .
159(7) . . .
164(7) . . .
163(7) . . .
166(7) . . .
154(7) . . .
162(7) . . .
171(7) . . .
159(7) . . .
150(7) . . .
149(7) . . .
171(7) . . .
170(7) . . .
156(7) . . .
169(7) . . .
166(7) . . .
158(7) . . .
161(7) . . .
163(7) . . .
156(7) . . .
148(6) . . .
158(7) . . .
161(7) . . .
169(7) . . .
151(7) . . .
146(7) . . .
158(7) . . .
186(7) . . .
199(7) . . .
177(7) . . .
172(7) . . .
158(7) . . .
158(7) . . .
152(7) . . .
161(7) . . .
183(7) . . .
157(7) . . .
178(7) . . .
166(7) . . .
169(7) . . .
182(7) . . .
164(7) . . .
174(7) . . .
176(7) . . .
166(7) . . .
184(7) . . .
160(7) . . .
161(7) . . .
168(7) . . .
153(7) . . .
177(7) . . .
154(6) . . .
154(6) . . .
180(7) . . .
154(7) . . .
170(7) . . .
167(7) . . .
186(7) . . .
163(7) . . .
151(7) . . .
168(7) . . .
172(7) . . .
163(7) . . .
169(7) . . .
177(7) . . .
183(7) . . .
193(7) . . .
175(7) . . .
179(7) . . .
164(7) . . .
169(7) . . .
164(7) . . .
175(7) . . .
158(7) . . .
149(7) . . .
166(7) . . .
168(7) . . .
142(6) . . .
145(6) . . .
176(7) . . .
169(7) . . .
155(6) . . .
160(7) . . .
150(7) . . .
155(7) . . .
167(7) . . .
163(7) . . .
160(7) . . .
166(7) . . .
175(7) . . .
157(7) . . .
171(7) . . .
182(7) . . .
163(7) . . .
165(7) . . .
189(7) . . .
174(7) . . .
161(7) . . .
160(7) . . .
169(7) . . .
161(7) . . .
170(7) . . .
146(6) . . .
173(7) . . .
182(7) . . .
167(7) . . .
179(7) . . .
167(7) . . .
185(8) . . .
183(7) . . .
175(7) . . .
181(7) . . .
174(7) . . .
168(7) . . .
166(7) . . .
175(7) . . .
183(7) . . .
175(7) . . .
163(7) . . .
146(7) . . .
177(7) . . .
181(7) . . .
171(7) . . .
155(7) . . .
175(7) . . .
148(6) . . .
143(6) . . .
161(7) . . .
168(7) . . .
163(7) . . .
171(7) . . .
170(7) . . .
165(7) . . .
136(6) . . .
156(7) . . .
175(7) . . .
163(7) . . .
161(7) . . .
163(7) . . .
162(7) . . .
161(7) . . .
149(7) . . .
166(7) . . .
164(7) . . .
173(7) . . .
184(7) . . .
173(7) . . .
158(7) . . .
176(7) . . .
180(7) . . .
181(7) . . .
151(7) . . .
146(7) . . .
160(7) . . .
163(7) . . .
174(7) . . .
161(7) . . .
169(7) . . .
147(6) . . .
154(7) . . .
166(7) . . .
164(7) . . .
161(7) . . .
181(7) . . .
173(7) . . .
162(7) . . .
162(7) . . .
157(7) . . .
160(7) . . .
156(6) . . .
162(7) . . .
153(7) . . .
182(7) . . .
171(7) . . .
190(7) . . .
163(7) . . .
180(7) . . .
169(7) . . .
173(7) . . .
155(6) . . .
163(7) . . .
181(7) . . .
175(7) . . .
183(7) . . .
171(7) . . .
176(7) . . .
154(7) . . .
155(7) . . .
171(7) . . .
167(7) . . .
173(7) . . .
163(7) . . .
161(7) . . .
164(7) . . .
172(7) . . .
168(7) . . .
169(7) . . .
183(7) . . .
173(7) . . .
180(7) . . .
166(7) . . .
177(7) . . .
176(7) . . .
185(7) . . .
167(7) . . .
184(7) . . .
165(7) . . .
165(7) . . .
155(6) . . .
166(7) . . .
178(7) . . .
170(7) . . .
158(7) . . .
180(7) . . .
176(7) . . .
160(7) . . .
158(7) . . .
163(7) . . .
173(7) . . .
149(6) . . .
162(7) . . .
175(7) . . .
153(7) . . .
155(6) . . .
162(7) . . .
161(7) . . .
156(7) . . .
165(7) . . .
147(6) . . .
137(6) . . .
153(7) . . .
177(7) . . .
162(7) . . .
161(7) . . .
163(7) . . .
164(7) . . .
169(7) . . .
161(7) . . .
155(6) . . .
159(7) . . .
168(7) . . .
175(7) . . .
179(7) . . .
154(6) . . .
165(7) . . .
173(7) . . .
170(7) . . .
154(6) . . .
158(7) . . .
146(6) . . .
164(7) . . .
168(7) . . .
161(7) . . .
158(6) . . .
146(7) . . .
158(7) . . .
159(7) . . .
148(6) . . .
144(6) . . .
158(7) . . .
164(7) . . .
165(7) . . .
142(6) . . .
169(7) . . .
168(7) . . .
165(7) . . .
157(7) . . .
169(7) . . .
148(6) . . .
150(7) . . .
144(6) . . .
158(7) . . .
156(6) . . .
144(6) . . .
160(7) . . .
163(7) . . .
166(7) . . .
157(7) . . .
158(7) . . .
160(7) . . .
162(7) . . .
155(7) . . .
170(7) . . .
168(7) . . .
156(7) . . .
160(7) . . .
146(6) . . .
161(7) . . .
156(7) . . .
172(7) . . .
170(7) . . .
168(7) . . .
159(7) . . .
165(7) . . .
194(8) . . .
174(7) . . .
163(7) . . .
155(6) . . .
158(7) . . .
168(7) . . .
190(8) . . .
185(7) . . .
169(7) . . .
153(7) . . .
154(7) . . .
151(6) . . .
166(7) . . .
158(6) . . .
172(7) . . .
174(7) . . .
155(7) . . .
152(6) . . .
161(7) . . .
151(7) . . .
178(8) . . .
165(7) . . .
157(6) . . .
151(6) . . .
153(7) . . .
168(7) . . .
172(7) . . .
158(7) . . .
142(6) . . .
151(7) . . .
168(7) . . .
165(7) . . .
173(7) . . .
162(7) . . .
153(7) . . .
174(7) . . .
171(7) . . .
172(7) . . .
178(7) . . .
157(7) . . .
157(7) . . .
162(7) . . .
177(7) . . .
144(6) . . .
162(7) . . .
147(6) . . .
164(7) . . .
155(6) . . .
171(7) . . .
158(7) . . .
141(6) . . .
146(6) . . .
165(7) . . .
153(7) . . .
145(7) . . .
151(7) . . .
164(7) . . .
161(7) . . .
164(7) . . .
166(7) . . .
163(7) . . .
149(6) . . .
182(7) . . .
167(7) . . .
159(7) . . .
158(7) . . .
154(6) . . .
170(7) . . .
186(7) . . .
155(7) . . .
161(7) . . .
150(6) . . .
153(6) . . .
149(7) . . .
172(7) . . .
149(7) . . .
155(6) . . .
157(7) . . .
155(7) . . .
143(6) . . .
161(7) . . .
160(7) . . .
151(6) . . .
145(6) . . .
181(7) . . .
151(7) . . .
152(6) . . .
173(7) . . .
167(7) . . .
149(6) . . .
153(7) . . .
167(7) . . .
162(7) . . .
163(7) . . .
159(7) . . .
152(6) . . .
154(6) . . .
155(7) . . .
154(7) . . .
170(7) . . .
176(7) . . .
164(7) . . .
151(7) . . .
148(7) . . .
164(7) . . .
169(7) . . .
150(6) . . .
168(7) . . .
176(7) . . .
164(7) . . .
163(7) . . .
162(7) . . .
156(7) . . .
156(7) . . .
152(7) . . .
159(7) . . .
150(6) . . .
157(7) . . .
144(7) . . .
143(6) . . .
167(7) . . .
166(7) . . .
146(7) . . .
149(7) . . .
151(6) . . .
170(7) . . .
167(7) . . .
160(7) . . .
156(7) . . .
152(7) . . .
141(6) . . .
173(7) . . .
143(7) . . .
145(7) . . .
130(6) . . .
142(6) . . .
159(7) . . .
175(7) . . .
170(7) . . .
167(7) . . .
142(6) . . .
159(7) . . .
165(7) . . .
148(7) . . .
151(6) . . .
142(6) . . .
139(6) . . .
154(7) . . .
156(7) . . .
169(7) . . .
149(6) . . .
164(7) . . .
149(7) . . .
159(7) . . .
163(7) . . .
171(7) . . .
143(6) . . .
155(7) . . .
142(6) . . .
148(6) . . .
145(6) . . .
150(6) . . .
159(7) . . .
132(6) . . .
157(7) . . .
182(7) . . .
162(7) . . .
175(7) . . .
153(7) . . .
164(7) . . .
151(6) . . .
176(7) . . .
159(7) . . .
152(7) . . .
147(6) . . .
142(6) . . .
156(7) . . .
157(7) . . .
155(7) . . .
154(6) . . .
157(7) . . .
159(7) . . .
162(7) . . .
141(6) . . .
147(6) . . .
142(6) . . .
148(7) . . .
148(7) . . .
143(7) . . .
146(6) . . .
158(7) . . .
136(6) . . .
151(7) . . .
158(7) . . .
143(6) . . .
170(7) . . .
167(7) . . .
160(7) . . .
161(7) . . .
143(6) . . .
162(7) . . .
155(7) . . .
159(7) . . .
173(7) . . .
165(7) . . .
166(7) . . .
159(7) . . .
156(7) . . .
160(7) . . .
149(6) . . .
167(7) . . .
161(7) . . .
167(7) . . .
153(6) . . .
164(7) . . .
151(7) . . .
154(7) . . .
161(7) . . .
172(7) . . .
161(7) . . .
161(7) . . .
157(7) . . .
166(7) . . .
166(7) . . .
165(7) . . .
151(7) . . .
141(7) . . .
166(7) . . .
172(7) . . .
169(7) . . .
174(7) . . .
155(7) . . .
143(6) . . .
167(7) . . .
154(7) . . .
141(6) . . .
155(7) . . .
161(7) . . .
163(7) . . .
167(7) . . .
163(7) . . .
169(7) . . .
154(7) . . .
149(6) . . .
175(7) . . .
156(7) . . .
158(7) . . .
161(7) . . .
146(6) . . .
152(7) . . .
153(7) . . .
161(7) . . .
161(7) . . .
151(6) . . .
174(7) . . .
166(7) . . .
159(7) . . .
136(6) . . .
165(7) . . .
151(7) . . .
173(7) . . .
161(7) . . .
131(6) . . .
148(6) . . .
171(7) . . .
160(7) . . .
180(7) . . .
165(7) . . .
142(6) . . .
157(7) . . .
161(7) . . .
138(6) . . .
167(7) . . .
170(7) . . .
165(7) . . .
148(7) . . .
154(7) . . .
138(6) . . .
157(7) . . .
157(7) . . .
159(7) . . .
138(6) . . .
147(6) . . .
156(7) . . .
156(7) . . .
137(6) . . .
165(7) . . .
154(6) . . .
141(6) . . .
148(6) . . .
151(6) . . .
148(6) . . .
163(7) . . .
147(7) . . .
157(7) . . .
161(7) . . .
173(7) . . .
167(7) . . .
166(7) . . .
147(6) . . .
145(6) . . .
175(7) . . .
174(7) . . .
165(7) . . .
147(6) . . .
154(7) . . .
137(6) . . .
166(7) . . .
149(7) . . .
154(7) . . .
179(7) . . .
164(7) . . .
161(7) . . .
152(7) . . .
179(8) . . .
153(7) . . .
153(6) . . .
155(6) . . .
150(7) . . .
160(7) . . .
158(7) . . .
161(7) . . .
158(7) . . .
154(7) . . .
161(7) . . .
174(7) . . .
170(7) . . .
152(7) . . .
152(6) . . .
149(7) . . .
133(6) . . .
158(7) . . .
162(7) . . .
165(7) . . .
162(7) . . .
153(7) . . .
157(6) . . .
154(7) . . .
151(7) . . .
154(7) . . .
160(7) . . .
167(7) . . .
144(6) . . .
144(6) . . .
167(7) . . .
172(7) . . .
163(7) . . .
154(7) . . .
140(6) . . .
171(7) . . .
174(7) . . .
142(6) . . .
152(7) . . .
158(7) . . .
152(7) . . .
154(7) . . .
150(6) . . .
160(7) . . .
154(7) . . .
162(7) . . .
175(7) . . .
160(7) . . .
163(7) . . .
166(7) . . .
160(7) . . .
154(6) . . .
151(6) . . .
150(7) . . .
167(7) . . .
168(7) . . .
162(7) . . .
174(7) . . .
165(7) . . .
154(7) . . .
163(7) . . .
158(7) . . .
142(6) . . .
153(7) . . .
149(7) . . .
153(7) . . .
138(6) . . .
142(6) . . .
160(7) . . .
164(7) . . .
178(7) . . .
148(6) . . .
169(7) . . .
167(7) . . .
169(7) . . .
151(6) . . .
151(6) . . .
150(6) . . .
156(7) . . .
157(7) . . .
151(6) . . .
166(7) . . .
177(7) . . .
160(7) . . .
158(7) . . .
168(7) . . .
143(6) . . .
165(7) . . .
161(7) . . .
155(7) . . .
162(7) . . .
141(6) . . .
161(7) . . .
143(7) . . .
179(7) . . .
161(7) . . .
150(6) . . .
146(6) . . .
155(7) . . .
152(7) . . .
161(7) . . .
181(7) . . .
167(7) . . .
153(7) . . .
163(7) . . .
167(7) . . .
151(6) . . .
161(7) . . .
162(7) . . .
168(7) . . .
144(6) . . .
135(6) . . .
154(7) . . .
165(7) . . .
163(7) . . .
160(7) . . .
155(6) . . .
159(7) . . .
157(7) . . .
155(7) . . .
142(6) . . .
162(7) . . .
158(7) . . .
171(7) . . .
152(7) . . .
156(6) . . .
162(7) . . .
170(7) . . .
167(7) . . .
157(7) . . .
147(6) . . .
172(7) . . .
165(7) . . .
154(7) . . .
147(6) . . .
165(7) . . .
143(6) . . .
170(7) . . .
160(7) . . .
142(6) . . .
150(6) . . .
160(7) . . .
150(7) . . .
130(6) . . .
133(6) . . .
169(7) . . .
178(7) . . .
165(7) . . .
148(7) . . .
154(6) . . .
156(7) . . .
155(7) . . .
147(7) . . .
160(7) . . .
195(7) . . .
167(7) . . .
163(7) . . .
145(7) . . .
152(7) . . .
144(6) . . .
154(7) . . .
148(7) . . .
161(7) . . .
141(6) . . .
143(6) . . .
164(7) . . .
167(7) . . .
156(7) . . .
162(7) . . .
159(7) . . .
142(6) . . .
151(7) . . .
141(6) . . .
139(6) . . .
132(6) . . .
152(7) . . .
156(7) . . .
166(7) . . .
149(7) . . .
146(6) . . .
132(6) . . .
148(7) . . .
167(7) . . .
175(7) . . .
164(7) . . .
158(7) . . .
176(7) . . .
171(7) . . .
137(6) . . .
146(6) . . .
151(7) . . .
139(7) . . .
152(7) . . .
150(6) . . .
155(7) . . .
145(7) . . .
159(7) . . .
143(6) . . .
152(6) . . .
139(6) . . .
166(7) . . .
160(7) . . .
157(7) . . .
160(7) . . .
146(6) . . .
153(7) . . .
152(7) . . .
145(6) . . .
150(6) . . .
144(6) . . .
170(7) . . .
157(7) . . .
141(6) . . .
141(6) . . .
146(6) . . .
151(7) . . .
149(7) . . .
157(7) . . .
151(6) . . .
152(6) . . .
165(7) . . .
154(7) . . .
162(7) . . .
150(6) . . .
153(6) . . .
170(7) . . .
153(7) . . .
162(7) . . .
174(7) . . .
157(7) . . .
156(7) . . .
156(7) . . .
160(7) . . .
146(6) . . .
156(7) . . .
158(7) . . .
165(7) . . .
146(6) . . .
143(6) . . .
140(6) . . .
156(7) . . .
150(7) . . .
146(6) . . .
161(7) . . .
158(7) . . .
146(7) . . .
165(7) . . .
144(6) . . .
154(6) . . .
143(6) . . .
162(7) . . .
144(6) . . .
158(7) . . .
172(7) . . .
146(6) . . .
151(7) . . .
163(7) . . .
171(7) . . .
153(6) . . .
132(6) . . .
157(7) . . .
157(7) . . .
153(6) . . .
167(7) . . .
162(7) . . .
162(7) . . .
146(6) . . .
161(7) . . .
158(7) . . .
142(6) . . .
165(7) . . .
154(7) . . .
150(6) . . .
167(7) . . .
153(7) . . .
146(6) . . .
143(6) . . .
147(6) . . .
156(7) . . .
144(6) . . .
159(7) . . .
157(7) . . .
178(7) . . .
144(6) . . .
160(7) . . .
153(7) . . .
157(7) . . .
158(7) . . .
167(7) . . .
172(7) . . .
144(6) . . .
156(7) . . .
146(6) . . .
160(7) . . .
153(7) . . .
152(6) . . .
168(7) . . .
150(6) . . .
147(7) . . .
166(7) . . .
157(7) . . .
139(6) . . .
149(6) . . .
140(6) . . .
140(7) . . .
149(6) . . .
155(6) . . .
147(6) . . .
149(7) . . .
144(7) . . .
157(7) . . .
147(6) . . .
156(6) . . .
156(7) . . .
148(7) . . .
158(7) . . .
138(6) . . .
139(6) . . .
139(6) . . .
137(6) . . .
153(7) . . .
149(6) . . .
163(7) . . .
155(7) . . .
144(7) . . .
152(7) . . .
163(7) . . .
168(7) . . .
156(7) . . .
166(7) . . .
163(7) . . .
140(6) . . .
149(7) . . .
160(7) . . .
149(7) . . .
151(6) . . .
158(7) . . .
167(7) . . .
149(6) . . .
146(6) . . .
141(6) . . .
156(6) . . .
164(7) . . .
180(7) . . .
162(7) . . .
174(7) . . .
164(7) . . .
148(6) . . .
153(7) . . .
153(7) . . .
160(7) . . .
164(7) . . .
151(7) . . .
149(7) . . .
151(7) . . .
144(6) . . .
139(6) . . .
151(7) . . .
156(7) . . .
148(7) . . .
161(7) . . .
168(7) . . .
148(6) . . .
146(7) . . .
158(7) . . .
158(6) . . .
155(6) . . .
175(7) . . .
153(7) . . .
156(7) . . .
135(6) . . .
178(7) . . .
157(7) . . .
140(7) . . .
163(7) . . .
141(6) . . .
151(6) . . .
152(6) . . .
165(7) . . .
158(7) . . .
147(6) . . .
143(6) . . .
136(6) . . .
134(6) . . .
144(7) . . .
144(6) . . .
130(6) . . .
155(7) . . .
149(7) . . .
146(6) . . .
137(6) . . .
160(7) . . .
151(7) . . .
130(6) . . .
151(7) . . .
141(6) . . .
146(7) . . .
158(7) . . .
153(7) . . .
147(6) . . .
147(6) . . .
150(7) . . .
150(7) . . .
133(6) . . .
159(7) . . .
154(7) . . .
157(7) . . .
148(7) . . .
160(7) . . .
148(6) . . .
142(6) . . .
161(7) . . .
160(7) . . .
160(7) . . .
152(6) . . .
150(7) . . .
147(6) . . .
151(7) . . .
129(6) . . .
165(7) . . .
161(7) . . .
147(6) . . .
155(7) . . .
146(7) . . .
155(6) . . .
162(7) . . .
154(7) . . .
169(7) . . .
173(7) . . .
138(6) . . .
141(6) . . .
161(7) . . .
147(6) . . .
158(7) . . .
160(7) . . .
152(7) . . .
149(7) . . .
160(7) . . .
169(7) . . .
146(6) . . .
135(6) . . .
133(6) . . .
139(6) . . .
143(6) . . .
140(6) . . .
163(7) . . .
164(7) . . .
178(7) . . .
147(6) . . .
152(6) . . .
159(7) . . .
135(6) . . .
151(7) . . .
144(6) . . .
157(7) . . .
139(6) . . .
167(7) . . .
155(7) . . .
139(6) . . .
173(7) . . .
141(6) . . .
136(7) . . .
147(7) . . .
163(7) . . .
168(7) . . .
160(7) . . .
169(7) . . .
146(6) . . .
149(6) . . .
141(6) . . .
143(6) . . .
146(7) . . .
137(6) . . .
142(6) . . .
152(6) . . .
141(6) . . .
146(7) . . .
157(7) . . .
158(6) . . .
150(7) . . .
154(7) . . .
128(6) . . .
158(7) . . .
150(6) . . .
152(7) . . .
148(7) . . .
151(7) . . .
145(6) . . .
141(6) . . .
148(7) . . .
143(7) . . .
166(7) . . .
163(7) . . .
151(6) . . .
155(7) . . .
147(7) . . .
134(6) . . .
146(6) . . .
132(6) . . .
152(7) . . .
137(6) . . .
139(6) . . .
153(6) . . .
139(6) . . .
148(7) . . .
152(7) . . .
147(6) . . .
147(6) . . .
155(6) . . .
157(7) . . .
153(7) . . .
149(6) . . .
146(6) . . .
159(7) . . .
138(6) . . .
138(6) . . .
139(6) . . .
141(6) . . .
147(6) . . .
145(6) . . .
141(7) . . .
138(6) . . .
165(7) . . .
142(6) . . .
149(7) . . .
143(7) . . .
144(7) . . .
149(6) . . .
149(6) . . .
143(7) . . .
128(6) . . .
121(6) . . .
149(6) . . .
163(7) . . .
142(6) . . .
138(6) . . .
154(7) . . .
146(6) . . .
128(6) . . .
128(6) . . .
138(6) . . .
140(6) . . .
153(6) . . .
154(7) . . .
148(7) . . .
141(6) . . .
145(6) . . .
133(6) . . .
147(6) . . .
139(6) . . .
154(7) . . .
152(7) . . .
155(6) . . .
143(6) . . .
158(7) . . .
153(6) . . .
145(6) . . .
147(6) . . .
151(6) . . .
162(7) . . .
150(6) . . .
137(6) . . .
149(6) . . .
133(6) . . .
143(7) . . .
134(6) . . .
151(6) . . .
150(6) . . .
151(7) . . .
160(7) . . .
152(7) . . .
167(7) . . .
142(6) . . .
143(7) . . .
156(7) . . .
159(7) . . .
148(6) . . .
159(7) . . .
137(6) . . .
145(6) . . .
139(6) . . .
150(6) . . .
158(7) . . .
139(7) . . .
138(7) . . .
156(7) . . .
141(6) . . .
154(7) . . .
164(7) . . .
153(7) . . .
141(6) . . .
143(6) . . .
131(6) . . .
143(6) . . .
149(7) . . .
150(6) . . .
145(6) . . .
139(6) . . .
146(7) . . .
147(6) . . .
124(6) . . .
146(6) . . .
155(7) . . .
144(7) . . .
146(7) . . .
140(6) . . .
140(6) . . .
161(7) . . .
148(7) . . .
148(7) . . .
139(6) . . .
139(6) . . .
132(6) . . .
137(7) . . .
162(7) . . .
143(6) . . .
149(7) . . .
144(6) . . .
158(7) . . .
147(7) . . .
158(7) . . .
143(6) . . .
154(7) . . .
166(7) . . .
152(7) . . .
152(6) . . .
149(7) . . .
126(6) . . .
138(6) . . .
140(7) . . .
161(7) . . .
138(6) . . .
139(6) . . .
129(6) . . .
158(7) . . .
154(6) . . .
145(7) . . .
151(7) . . .
152(7) . . .
169(7) . . .
146(6) . . .
159(7) . . .
162(7) . . .
128(6) . . .
126(6) . . .
140(6) . . .
143(7) . . .
160(7) . . .
165(7) . . .
149(7) . . .
159(7) . . .
148(7) . . .
143(7) . . .
161(7) . . .
158(7) . . .
159(7) . . .
155(7) . . .
164(7) . . .
148(7) . . .
142(6) . . .
152(6) . . .
160(7) . . .
157(7) . . .
169(7) . . .
157(6) . . .
145(6) . . .
161(7) . . .
162(7) . . .
140(6) . . .
162(7) . . .
163(7) . . .
170(7) . . .
153(7) . . .
166(7) . . .
160(7) . . .
169(7) . . .
161(7) . . .
133(6) . . .
159(7) . . .
158(7) . . .
153(7) . . .
145(7) . . .
170(7) . . .
159(7) . . .
170(7) . . .
167(7) . . .
163(7) . . .
155(7) . . .
166(7) . . .
159(7) . . .
140(6) . . .
149(7) . . .
152(7) . . .
147(6) . . .
134(6) . . .
159(7) . . .
150(7) . . .
153(6) . . .
144(6) . . .
153(6) . . .
147(6) . . .
139(6) . . .
165(7) . . .
141(6) . . .
168(7) . . .
158(7) . . .
145(7) . . .
152(7) . . .
149(6) . . .
144(6) . . .
155(7) . . .
159(7) . . .
154(7) . . .
143(6) . . .
138(6) . . .
146(7) . . .
146(6) . . .
174(7) . . .
156(6) . . .
140(6) . . .
149(7) . . .
127(6) . . .
135(6) . . .
137(6) . . .
140(6) . . .
136(6) . . .
140(7) . . .
130(6) . . .
143(6) . . .
156(7) . . .
134(6) . . .
139(6) . . .
159(7) . . .
155(6) . . .
128(6) . . .
136(6) . . .
136(6) . . .
149(6) . . .
152(6) . . .
142(6) . . .
150(7) . . .
161(7) . . .
161(7) . . .
140(6) . . .
150(7) . . .
153(7) . . .
153(7) . . .
144(6) . . .
150(6) . . .
142(6) . . .
157(7) . . .
137(6) . . .
143(6) . . .
155(6) . . .
146(6) . . .
153(7) . . .
151(7) . . .
157(7) . . .
147(6) . . .
152(7) . . .
153(7) . . .
166(7) . . .
154(6) . . .
154(6) . . .
139(6) . . .
144(7) . . .
140(6) . . .
160(7) . . .
152(6) . . .
151(7) . . .
139(6) . . .
146(6) . . .
158(7) . . .
137(6) . . .
127(6) . . .
140(7) . . .
134(6) . . .
151(6) . . .
146(6) . . .
155(7) . . .
152(7) . . .
146(7) . . .
140(6) . . .
152(7) . . .
152(7) . . .
140(7) . . .
143(6) . . .
154(6) . . .
130(6) . . .
141(7) . . .
138(6) . . .
169(7) . . .
148(6) . . .
158(7) . . .
127(6) . . .
152(7) . . .
156(7) . . .
145(6) . . .
145(6) . . .
166(7) . . .
150(6) . . .
156(7) . . .
147(6) . . .
156(7) . . .
143(6) . . .
141(6) . . .
151(6) . . .
159(6) . . .
164(7) . . .
173(7) . . .
155(7) . . .
148(6) . . .
131(6) . . .
152(7) . . .
156(7) . . .
142(6) . . .
156(6) . . .
148(6) . . .
152(7) . . .
148(7) . . .
164(7) . . .
135(6) . . .
158(7) . . .
154(7) . . .
124(6) . . .
143(6) . . .
141(6) . . .
148(6) . . .
135(6) . . .
139(6) . . .
153(7) . . .
127(6) . . .
137(6) . . .
150(6) . . .
156(7) . . .
139(6) . . .
167(7) . . .
148(7) . . .
124(6) . . .
138(6) . . .
146(6) . . .
147(6) . . .
164(7) . . .
166(7) . . .
167(7) . . .
161(7) . . .
145(6) . . .
154(7) . . .
136(6) . . .
140(6) . . .
148(6) . . .
153(6) . . .
142(6) . . .
147(7) . . .
143(6) . . .
161(7) . . .
147(6) . . .
145(6) . . .
143(6) . . .
148(6) . . .
146(6) . . .
153(6) . . .
135(6) . . .
150(7) . . .
155(7) . . .
144(6) . . .
135(6) . . .
146(6) . . .
145(6) . . .
138(6) . . .
161(7) . . .
142(6) . . .
141(6) . . .
145(7) . . .
135(7) . . .
134(6) . . .
173(7) . . .
145(6) . . .
155(7) . . .
156(7) . . .
144(6) . . .
152(7) . . .
154(7) . . .
144(7) . . .
150(6) . . .
142(6) . . .
151(7) . . .
143(6) . . .
139(7) . . .
138(6) . . .
148(6) . . .
140(6) . . .
143(7) . . .
132(6) . . .
140(6) . . .
147(6) . . .
132(6) . . .
140(7) . . .
137(6) . . .
148(7) . . .
135(6) . . .
145(7) . . .
154(7) . . .
151(7) . . .
151(6) . . .
152(6) . . .
147(6) . . .
151(7) . . .
161(7) . . .
159(7) . . .
152(6) . . .
150(6) . . .
146(7) . . .
148(6) . . .
143(6) . . .
150(7) . . .
156(7) . . .
138(7) . . .
140(6) . . .
151(6) . . .
143(6) . . .
149(7) . . .
124(6) . . .
154(7) . . .
152(6) . . .
147(6) . . .
146(7) . . .
139(7) . . .
124(6) . . .
150(6) . . .
153(6) . . .
159(7) . . .
144(7) . . .
128(6) . . .
141(6) . . .
153(7) . . .
147(7) . . .
147(6) . . .
142(6) . . .
136(6) . . .
133(6) . . .
135(6) . . .
133(6) . . .
149(6) . . .
140(6) . . .
126(6) . . .
146(7) . . .
136(6) . . .
143(6) . . .
146(6) . . .
129(6) . . .
135(6) . . .
139(6) . . .
142(6) . . .
140(6) . . .
149(7) . . .
152(7) . . .
139(6) . . .
145(6) . . .
148(6) . . .
129(6) . . .
147(7) . . .
137(6) . . .
140(6) . . .
146(6) . . .
125(6) . . .
143(7) . . .
145(6) . . .
132(6) . . .
155(7) . . .
137(6) . . .
135(6) . . .
146(7) . . .
142(6) . . .
138(6) . . .
124(6) . . .
145(7) . . .
146(7) . . .
120(6) . . .
142(6) . . .
142(6) . . .
126(6) . . .
127(6) . . .
136(6) . . .
158(7) . . .
146(7) . . .
146(6) . . .
157(7) . . .
147(6) . . .
152(6) . . .
133(6) . . .
143(7) . . .
140(6) . . .
128(6) . . .
117(6) . . .
133(6) . . .
124(6) . . .
141(6) . . .
142(6) . . .
149(7) . . .
154(7) . . .
131(6) . . .
145(6) . . .
145(6) . . .
148(7) . . .
121(6) . . .
123(6) . . .
140(6) . . .
150(6) . . .
145(6) . . .
131(6) . . .
136(6) . . .
142(6) . . .
150(6) . . .
153(7) . . .
139(6) . . .
127(6) . . .
143(6) . . .
155(6) . . .
127(6) . . .
146(7) . . .
128(6) . . .
131(6) . . .
132(6) . . .
135(6) . . .
144(6) . . .
147(7) . . .
139(6) . . .
134(6) . . .
144(6) . . .
147(6) . . .
147(6) . . .
125(6) . . .
121(6) . . .
143(6) . . .
174(7) . . .
132(6) . . .
127(6) . . .
144(6) . . .
145(7) . . .
141(6) . . .
142(6) . . .
139(6) . . .
138(7) . . .
142(7) . . .
137(6) . . .
139(6) . . .
140(6) . . .
164(7) . . .
154(7) . . .
146(6) . . .
152(6) . . .
152(6) . . .
142(6) . . .
128(6) . . .
140(6) . . .
145(6) . . .
152(6) . . .
131(6) . . .
133(7) . . .
114(6) . . .
128(6) . . .
163(7) . . .
148(7) . . .
146(7) . . .
139(6) . . .
139(6) . . .
140(6) . . .
149(6) . . .
143(6) . . .
139(6) . . .
132(6) . . .
130(6) . . .
148(7) . . .
153(7) . . .
137(6) . . .
143(6) . . .
135(6) . . .
147(7) . . .
148(7) . . .
162(7) . . .
152(6) . . .
147(6) . . .
129(6) . . .
136(6) . . .
150(7) . . .
137(6) . . .
141(6) . . .
137(6) . . .
136(6) . . .
126(6) . . .
146(6) . . .
137(6) . . .
124(6) . . .
124(6) . . .
151(6) . . .
145(6) . . .
139(6) . . .
141(7) . . .
151(7) . . .
143(6) . . .
134(6) . . .
133(6) . . .
131(6) . . .
119(6) . . .
126(6) . . .
134(6) . . .
141(7) . . .
148(7) . . .
132(6) . . .
144(6) . . .
125(6) . . .
129(6) . . .
136(7) . . .
140(6) . . .
139(6) . . .
142(6) . . .
140(6) . . .
134(6) . . .
162(7) . . .
145(6) . . .
150(6) . . .
134(6) . . .
143(7) . . .
140(6) . . .
144(6) . . .
133(6) . . .
152(7) . . .
142(7) . . .
156(7) . . .
132(6) . . .
140(6) . . .
148(6) . . .
135(6) . . .
139(6) . . .
141(6) . . .
137(6) . . .
132(6) . . .
139(6) . . .
147(6) . . .
143(6) . . .
138(6) . . .
121(6) . . .
142(6) . . .
151(6) . . .
158(7) . . .
151(7) . . .
120(6) . . .
142(6) . . .
148(6) . . .
143(6) . . .
140(6) . . .
141(6) . . .
144(7) . . .
137(6) . . .
142(6) . . .
141(7) . . .
124(6) . . .
140(6) . . .
126(6) . . .
139(6) . . .
127(6) . . .
138(7) . . .
151(7) . . .
150(6) . . .
155(6) . . .
141(6) . . .
139(6) . . .
132(6) . . .
134(6) . . .
131(6) . . .
151(7) . . .
139(6) . . .
130(6) . . .
151(6) . . .
130(6) . . .
137(6) . . .
127(6) . . .
137(6) . . .
134(6) . . .
155(7) . . .
149(7) . . .
121(6) . . .
138(6) . . .
137(6) . . .
140(6) . . .
118(6) . . .
130(6) . . .
151(6) . . .
144(6) . . .
142(6) . . .
132(6) . . .
132(6) . . .
134(6) . . .
119(6) . . .
150(7) . . .
143(7) . . .
134(6) . . .
131(6) . . .
139(6) . . .
137(6) . . .
147(7) . . .
115(6) . . .
128(6) . . .
135(6) . . .
136(6) . . .
120(6) . . .
146(7) . . .
146(6) . . .
135(6) . . .
142(6) . . .
130(6) . . .
148(7) . . .
151(6) . . .
137(6) . . .
140(6) . . .
143(7) . . .
137(6) . . .
144(6) . . .
131(6) . . .
144(7) . . .
146(7) . . .
140(6) . . .
134(6) . . .
144(6) . . .
142(6) . . .
125(6) . . .
143(6) . . .
144(6) . . .
150(6) . . .
136(6) . . .
141(7) . . .
131(6) . . .
144(6) . . .
134(6) . . .
132(6) . . .
146(6) . . .
140(6) . . .
152(6) . . .
144(6) . . .
139(6) . . .
133(6) . . .
129(6) . . .
131(6) . . .
123(6) . . .
127(6) . . .
130(6) . . .
135(6) . . .
147(6) . . .
151(6) . . .
140(6) . . .
153(7) . . .
147(7) . . .
132(6) . . .
151(7) . . .
150(7) . . .
143(6) . . .
154(7) . . .
124(6) . . .
131(6) . . .
141(7) . . .
132(6) . . .
140(6) . . .
130(6) . . .
119(6) . . .
122(6) . . .
136(6) . . .
131(6) . . .
134(6) . . .
131(6) . . .
137(6) . . .
134(6) . . .
136(6) . . .
138(6) . . .
139(6) . . .
140(7) . . .
131(6) . . .
128(6) . . .
133(6) . . .
113(5) . . .
136(6) . . .
144(7) . . .
142(6) . . .
128(6) . . .
131(6) . . .
131(6) . . .
138(6) . . .
133(6) . . .
125(6) . . .
142(7) . . .
141(7) . . .
149(6) . . .
143(6) . . .
133(6) . . .
118(6) . . .
128(6) . . .
117(6) . . .
124(6) . . .
130(6) . . .
146(7) . . .
162(7) . . .
134(6) . . .
146(6) . . .
131(6) . . .
128(6) . . .
133(6) . . .
138(6) . . .
150(6) . . .
140(6) . . .
144(7) . . .
132(6) . . .
131(6) . . .
130(6) . . .
133(6) . . .
137(7) . . .
126(6) . . .
140(6) . . .
143(6) . . .
142(6) . . .
127(6) . . .
139(6) . . .
138(6) . . .
131(6) . . .
135(6) . . .
125(6) . . .
143(7) . . .
137(6) . . .
145(6) . . .
127(6) . . .
139(6) . . .
126(6) . . .
120(6) . . .
141(6) . . .
135(6) . . .
145(6) . . .
126(6) . . .
123(6) . . .
129(6) . . .
124(6) . . .
130(6) . . .
143(6) . . .
146(6) . . .
127(6) . . .
148(7) . . .
121(6) . . .
128(6) . . .
138(6) . . .
142(6) . . .
133(6) . . .
138(6) . . .
140(6) . . .
141(6) . . .
128(6) . . .
147(7) . . .
139(6) . . .
126(6) . . .
130(6) . . .
139(6) . . .
112(6) . . .
147(7) . . .
124(6) . . .
144(6) . . .
130(6) . . .
133(6) . . .
148(6) . . .
150(6) . . .
141(6) . . .
134(6) . . .
142(7) . . .
144(6) . . .
130(6) . . .
149(6) . . .
126(6) . . .
142(7) . . .
142(6) . . .
144(6) . . .
123(6) . . .
126(6) . . .
116(6) . . .
143(6) . . .
132(6) . . .
148(7) . . .
145(7) . . .
139(6) . . .
145(6) . . .
145(6) . . .
150(7) . . .
133(6) . . .
137(6) . . .
140(6) . . .
129(6) . . .
130(6) . . .
130(6) . . .
125(6) . . .
137(6) . . .
135(6) . . .
127(6) . . .
138(7) . . .
139(6) . . .
134(6) . . .
140(6) . . .
137(6) . . .
131(6) . . .
132(6) . . .
142(6) . . .
122(6) . . .
136(6) . . .
147(7) . . .
138(6) . . .
140(6) . . .
134(6) . . .
147(7) . . .
154(7) . . .
139(6) . . .
135(6) . . .
140(6) . . .
132(6) . . .
136(7) . . .
120(6) . . .
132(6) . . .
135(6) . . .
150(7) . . .
129(6) . . .
152(7) . . .
139(6) . . .
139(6) . . .
138(6) . . .
126(6) . . .
155(7) . . .
130(6) . . .
140(6) . . .
126(6) . . .
141(6) . . .
131(6) . . .
136(6) . . .
142(6) . . .
125(6) . . .
134(6) . . .
150(7) . . .
134(6) . . .
132(6) . . .
125(6) . . .
141(6) . . .
137(6) . . .
141(6) . . .
149(7) . . .
140(6) . . .
117(6) . . .
142(6) . . .
131(6) . . .
125(6) . . .
130(6) . . .
118(6) . . .
124(6) . . .
145(6) . . .
147(6) . . .
125(6) . . .
128(6) . . .
132(6) . . .
134(6) . . .
141(6) . . .
133(6) . . .
160(7) . . .
139(6) . . .
137(6) . . .
133(6) . . .
109(6) . . .
133(6) . . .
144(6) . . .
127(6) . . .
140(6) . . .
154(7) . . .
141(7) . . .
125(6) . . .
126(6) . . .
139(6) . . .
130(6) . . .
137(6) . . .
130(6) . . .
138(6) . . .
133(6) . . .
135(6) . . .
136(6) . . .
128(6) . . .
126(6) . . .
123(6) . . .
124(6) . . .
122(6) . . .
120(6) . . .
130(6) . . .
134(6) . . .
120(6) . . .
128(6) . . .
129(6) . . .
131(6) . . .
131(6) . . .
121(6) . . .
149(6) . . .
125(6) . . .
138(6) . . .
122(6) . . .
122(6) . . .
131(6) . . .
130(6) . . .
141(6) . . .
140(7) . . .
139(6) . . .
145(6) . . .
128(6) . . .
143(7) . . .
137(6) . . .
139(6) . . .
129(6) . . .
125(6) . . .
146(6) . . .
127(6) . . .
136(6) . . .
142(6) . . .
121(6) . . .
137(6) . . .
143(7) . . .
131(6) . . .
117(6) . . .
116(6) . . .
138(7) . . .
125(6) . . .
143(6) . . .
131(6) . . .
113(6) . . .
118(6) . . .
130(6) . . .
151(7) . . .
144(6) . . .
126(6) . . .
122(6) . . .
163(7) . . .
136(6) . . .
143(6) . . .
118(6) . . .
145(7) . . .
130(6) . . .
145(6) . . .
131(6) . . .
149(7) . . .
137(6) . . .
119(6) . . .
141(7) . . .
130(6) . . .
122(6) . . .
130(6) . . .
133(6) . . .
126(6) . . .
126(6) . . .
140(6) . . .
126(6) . . .
131(6) . . .
139(6) . . .
134(6) . . .
130(6) . . .
130(6) . . .
133(6) . . .
125(6) . . .
128(6) . . .
137(6) . . .
142(7) . . .
144(6) . . .
134(6) . . .
142(6) . . .
134(6) . . .
118(6) . . .
126(6) . . .
132(6) . . .
119(6) . . .
142(6) . . .
150(7) . . .
123(6) . . .
143(6) . . .
121(6) . . .
115(6) . . .
130(6) . . .
117(6) . . .
119(6) . . .
132(6) . . .
128(6) . . .
140(6) . . .
139(6) . . .
130(6) . . .
143(6) . . .
131(6) . . .
117(6) . . .
144(6) . . .
129(6) . . .
139(6) . . .
142(6) . . .
139(6) . . .
134(6) . . .
132(6) . . .
133(6) . . .
136(7) . . .
125(6) . . .
134(6) . . .
127(6) . . .
149(7) . . .
132(6) . . .
119(6) . . .
111(6) . . .
149(6) . . .
134(6) . . .
145(7) . . .
136(7) . . .
127(6) . . .
122(6) . . .
127(6) . . .
142(7) . . .
137(6) . . .
124(6) . . .
127(6) . . .
131(6) . . .
125(6) . . .
131(6) . . .
118(6) . . .
142(6) . . .
126(6) . . .
146(7) . . .
137(6) . . .
134(6) . . .
143(6) . . .
140(6) . . .
128(6) . . .
115(6) . . .
121(6) . . .
130(6) . . .
145(6) . . .
135(6) . . .
126(6) . . .
130(6) . . .
126(6) . . .
131(6) . . .
120(6) . . .
115(6) . . .
123(6) . . .
121(6) . . .
132(6) . . .
123(6) . . .
121(6) . . .
125(6) . . .
138(6) . . .
151(7) . . .
111(6) . . .
138(6) . . .
137(6) . . .
139(6) . . .
129(6) . . .
127(6) . . .
142(6) . . .
152(6) . . .
126(6) . . .
131(6) . . .
133(6) . . .
119(6) . . .
124(6) . . .
116(6) . . .
133(7) . . .
117(6) . . .
108(5) . . .
129(6) . . .
135(6) . . .
123(6) . . .
143(7) . . .
141(6) . . .
118(6) . . .
131(6) . . .
124(6) . . .
135(6) . . .
144(6) . . .
116(6) . . .
126(6) . . .
126(6) . . .
131(6) . . .
135(6) . . .
131(6) . . .
115(6) . . .
135(7) . . .
139(7) . . .
128(6) . . .
137(6) . . .
127(6) . . .
117(6) . . .
129(6) . . .
141(6) . . .
133(6) . . .
134(6) . . .
142(7) . . .
128(6) . . .
136(6) . . .
140(7) . . .
129(6) . . .
147(6) . . .
156(7) . . .
143(6) . . .
125(6) . . .
124(6) . . .
124(6) . . .
127(6) . . .
110(5) . . .
126(6) . . .
135(6) . . .
147(7) . . .
134(6) . . .
131(6) . . .
129(6) . . .
140(6) . . .
122(6) . . .
139(6) . . .
125(6) . . .
133(6) . . .
126(6) . . .
130(6) . . .
133(6) . . .
131(6) . . .
130(6) . . .
136(7) . . .
130(6) . . .
133(6) . . .
137(6) . . .
140(7) . . .
126(6) . . .
124(6) . . .
132(6) . . .
128(6) . . .
131(6) . . .
131(6) . . .
124(6) . . .
136(6) . . .
136(6) . . .
135(6) . . .
139(6) . . .
128(6) . . .
139(6) . . .
116(6) . . .
109(6) . . .
118(6) . . .
116(6) . . .
141(6) . . .
137(6) . . .
131(6) . . .
128(6) . . .
126(6) . . .
126(6) . . .
138(6) . . .
123(6) . . .
119(6) . . .
144(6) . . .
123(6) . . .
117(6) . . .
130(6) . . .
144(7) . . .
131(6) . . .
138(6) . . .
129(6) . . .
130(6) . . .
145(6) . . .
124(6) . . .
135(6) . . .
127(6) . . .
130(6) . . .
136(6) . . .
134(6) . . .
132(6) . . .
125(6) . . .
123(6) . . .
127(6) . . .
121(6) . . .
130(6) . . .
133(6) . . .
133(6) . . .
128(6) . . .
128(6) . . .
149(6) . . .
128(6) . . .
119(6) . . .
137(6) . . .
129(6) . . .
131(6) . . .
133(6) . . .
128(6) . . .
134(6) . . .
124(6) . . .
128(6) . . .
136(6) . . .
120(6) . . .
127(6) . . .
135(6) . . .
141(6) . . .
129(6) . . .
147(7) . . .
135(6) . . .
124(6) . . .
138(6) . . .
136(6) . . .
127(6) . . .
122(6) . . .
120(6) . . .
127(6) . . .
131(6) . . .
135(6) . . .
132(6) . . .
136(6) . . .
132(6) . . .
140(7) . . .
138(6) . . .
130(6) . . .
146(6) . . .
136(6) . . .
127(6) . . .
131(6) . . .
137(6) . . .
131(6) . . .
131(6) . . .
140(7) . . .
120(6) . . .
121(6) . . .
121(6) . . .
123(6) . . .
149(7) . . .
138(6) . . .
125(6) . . .
136(6) . . .
128(6) . . .
136(6) . . .
132(6) . . .
120(6) . . .
130(6) . . .
134(6) . . .
132(6) . . .
123(6) . . .
123(6) . . .
122(6) . . .
122(6) . . .
139(6) . . .
121(6) . . .
131(6) . . .
126(6) . . .
131(6) . . .
157(7) . . .
123(6) . . .
127(6) . . .
120(6) . . .
129(6) . . .
134(6) . . .
139(6) . . .
129(6) . . .
134(6) . . .
143(7) . . .
136(6) . . .
130(6) . . .
122(6) . . .
128(6) . . .
135(6) . . .
149(6) . . .
130(6) . . .
120(6) . . .
137(6) . . .
125(6) . . .
120(6) . . .
133(6) . . .
131(6) . . .
126(6) . . .
119(6) . . .
130(6) . . .
137(6) . . .
144(6) . . .
130(6) . . .
124(6) . . .
113(6) . . .
113(6) . . .
122(6) . . .
122(6) . . .
120(6) . . .
134(6) . . .
140(6) . . .
148(6) . . .
151(7) . . .
140(6) . . .
132(6) . . .
117(6) . . .
124(6) . . .
122(6) . . .
137(6) . . .
138(6) . . .
118(6) . . .
126(6) . . .
135(6) . . .
135(6) . . .
135(6) . . .
122(6) . . .
134(6) . . .
122(6) . . .
142(6) . . .
160(7) . . .
124(6) . . .
144(7) . . .
135(6) . . .
124(6) . . .
113(6) . . .
136(6) . . .
141(7) . . .
130(6) . . .
134(6) . . .
133(6) . . .
127(6) . . .
132(6) . . .
133(6) . . .
126(6) . . .
127(6) . . .
118(6) . . .
116(6) . . .
125(6) . . .
119(6) . . .
137(6) . . .
132(6) . . .
131(6) . . .
142(7) . . .
123(6) . . .
130(6) . . .
138(6) . . .
131(6) . . .
124(6) . . .
132(6) . . .
136(6) . . .
137(6) . . .
133(6) . . .
124(6) . . .
129(6) . . .
135(6) . . .
127(6) . . .
121(6) . . .
139(6) . . .
149(7) . . .
123(6) . . .
136(6) . . .
135(6) . . .
142(7) . . .
131(6) . . .
132(6) . . .
117(6) . . .
131(6) . . .
130(6) . . .
104(5) . . .
137(6) . . .
122(6) . . .
121(6) . . .
135(6) . . .
137(6) . . .
134(6) . . .
136(6) . . .
133(6) . . .
143(6) . . .
140(6) . . .
123(6) . . .
119(6) . . .
118(6) . . .
137(6) . . .
126(6) . . .
114(6) . . .
124(6) . . .
116(6) . . .
108(5) . . .
119(6) . . .
146(6) . . .
133(6) . . .
117(6) . . .
124(6) . . .
115(6) . . .
122(6) . . .
126(6) . . .
133(6) . . .
117(6) . . .
131(6) . . .
127(6) . . .
136(6) . . .
131(6) . . .
124(6) . . .
116(6) . . .
124(6) . . .
120(6) . . .
139(6) . . .
134(6) . . .
130(6) . . .
123(6) . . .
123(6) . . .
125(6) . . .
126(6) . . .
126(6) . . .
130(6) . . .
122(6) . . .
138(6) . . .
124(6) . . .
124(6) . . .
143(6) . . .
118(6) . . .
131(6) . . .
116(6) . . .
130(6) . . .
132(6) . . .
115(6) . . .
143(7) . . .
126(6) . . .
145(6) . . .
133(6) . . .
127(6) . . .
124(6) . . .
114(5) . . .
145(6) . . .
132(6) . . .
133(6) . . .
119(6) . . .
132(6) . . .
133(6) . . .
127(6) . . .
134(7) . . .
120(6) . . .
125(6) . . .
128(6) . . .
116(6) . . .
116(6) . . .
133(6) . . .
149(6) . . .
131(6) . . .
95(5) . . .
125(6) . . .
128(6) . . .
132(6) . . .
134(6) . . .
142(6) . . .
124(6) . . .
115(6) . . .
111(5) . . .
115(6) . . .
134(6) . . .
130(6) . . .
131(6) . . .
131(6) . . .
113(6) . . .
119(6) . . .
137(6) . . .
115(6) . . .
122(6) . . .
117(6) . . .
127(6) . . .
113(6) . . .
130(6) . . .
136(6) . . .
120(6) . . .
133(7) . . .
129(6) . . .
119(6) . . .
130(6) . . .
125(6) . . .
123(6) . . .
141(6) . . .
119(6) . . .
123(6) . . .
116(6) . . .
132(6) . . .
123(6) . . .
112(5) . . .
132(6) . . .
127(6) . . .
122(6) . . .
128(6) . . .
131(6) . . .
128(6) . . .
141(7) . . .
126(6) . . .
143(7) . . .
122(6) . . .
142(6) . . .
129(6) . . .
116(6) . . .
128(6) . . .
110(5) . . .
125(6) . . .
128(6) . . .
142(6) . . .
113(6) . . .
120(6) . . .
126(6) . . .
124(6) . . .
138(6) . . .
121(6) . . .
131(6) . . .
139(6) . . .
111(6) . . .
119(6) . . .
131(6) . . .
128(6) . . .
127(6) . . .
129(6) . . .
121(6) . . .
153(6) . . .
140(6) . . .
128(6) . . .
120(6) . . .
123(6) . . .
114(6) . . .
125(6) . . .
124(6) . . .
115(6) . . .
121(6) . . .
125(6) . . .
139(6) . . .
122(6) . . .
125(6) . . .
123(6) . . .
124(6) . . .
134(6) . . .
132(6) . . .
132(6) . . .
130(6) . . .
126(6) . . .
135(6) . . .
148(7) . . .
130(6) . . .
120(6) . . .
128(6) . . .
127(6) . . .
126(6) . . .
107(5) . . .
130(6) . . .
139(6) . . .
113(6) . . .
110(6) . . .
117(6) . . .
121(6) . . .
122(6) . . .
141(6) . . .
138(6) . . .
127(6) . . .
120(6) . . .
126(6) . . .
126(6) . . .
123(6) . . .
123(6) . . .
129(6) . . .
127(6) . . .
119(6) . . .
107(6) . . .
131(6) . . .
137(6) . . .
123(6) . . .
125(6) . . .
130(6) . . .
133(6) . . .
127(6) . . .
121(6) . . .
135(6) . . .
142(7) . . .
132(6) . . .
129(6) . . .
125(6) . . .
123(6) . . .
123(6) . . .
134(6) . . .
117(6) . . .
118(6) . . .
120(6) . . .
125(6) . . .
130(6) . . .
136(6) . . .
127(6) . . .
121(6) . . .
120(6) . . .
121(6) . . .
138(6) . . .
113(5) . . .
138(6) . . .
144(7) . . .
122(6) . . .
131(6) . . .
136(6) . . .
123(6) . . .
129(6) . . .
120(6) . . .
127(6) . . .
128(6) . . .
131(6) . . .
127(6) . . .
129(6) . . .
117(6) . . .
117(6) . . .
134(6) . . .
135(6) . . .
112(6) . . .
147(6) . . .
133(6) . . .
123(6) . . .
115(6) . . .
131(6) . . .
120(6) . . .
122(6) . . .
126(6) . . .
126(6) . . .
116(6) . . .
117(6) . . .
116(6) . . .
133(6) . . .
128(6) . . .
125(6) . . .
118(6) . . .
133(6) . . .
125(6) . . .
118(6) . . .
129(6) . . .
123(6) . . .
123(6) . . .
136(7) . . .
124(6) . . .
135(6) . . .
117(6) . . .
125(6) . . .
134(7) . . .
139(6) . . .
139(6) . . .
131(6) . . .
121(6) . . .
127(6) . . .
124(6) . . .
130(6) . . .
119(6) . . .
131(6) . . .
126(6) . . .
139(6) . . .
136(6) . . .
114(6) . . .
124(6) . . .
119(6) . . .
139(6) . . .
140(6) . . .
126(6) . . .
128(6) . . .
131(6) . . .
121(6) . . .
123(6) . . .
116(6) . . .
120(6) . . .
139(6) . . .
116(6) . . .
116(6) . . .
108(5) . . .
111(6) . . .
116(6) . . .
131(6) . . .
123(6) . . .
135(6) . . .
144(6) . . .
132(6) . . .
133(6) . . .
135(6) . . .
138(6) . . .
117(6) . . .
142(6) . . .
136(6) . . .
131(6) . . .
141(6) . . .
133(6) . . .
126(6) . . .
134(6) . . .
136(6) . . .
142(7) . . .
141(7) . . .
127(6) . . .
110(5) . . .
129(6) . . .
123(6) . . .
139(7) . . .
130(6) . . .
120(6) . . .
145(6) . . .
125(6) . . .
132(6) . . .
132(6) . . .
135(6) . . .
124(6) . . .
141(7) . . .
111(6) . . .
116(6) . . .
132(6) . . .
135(6) . . .
126(6) . . .
128(6) . . .
150(6) . . .
150(6) . . .
119(6) . . .
128(6) . . .
138(6) . . .
134(6) . . .
128(6) . . .
149(7) . . .
154(7) . . .
149(7) . . .
138(6) . . .
146(6) . . .
148(7) . . .
146(7) . . .
148(7) . . .
137(6) . . .
144(6) . . .
128(6) . . .
110(6) . . .
144(6) . . .
145(6) . . .
131(6) . . .
110(6) . . .
138(7) . . .
128(6) . . .
139(6) . . .
119(6) . . .
146(7) . . .
128(6) . . .
129(6) . . .
120(6) . . .
134(6) . . .
127(6) . . .
137(7) . . .
117(6) . . .
123(6) . . .
140(6) . . .
142(6) . . .
131(6) . . .
128(6) . . .
144(6) . . .
120(6) . . .
129(6) . . .
127(6) . . .
126(6) . . .
119(6) . . .
132(6) . . .
140(6) . . .
118(6) . . .
122(6) . . .
135(6) . . .
132(6) . . .
131(6) . . .
137(6) . . .
140(6) . . .
135(6) . . .
139(6) . . .
137(6) . . .
139(6) . . .
140(6) . . .
122(6) . . .
136(6) . . .
139(6) . . .
137(6) . . .
125(6) . . .
141(6) . . .
147(7) . . .
148(7) . . .
121(6) . . .
121(6) . . .
128(6) . . .
135(6) . . .
116(6) . . .
119(6) . . .
132(6) . . .
127(6) . . .
134(6) . . .
139(7) . . .
122(6) . . .
137(6) . . .
127(6) . . .
122(6) . . .
130(6) . . .
131(6) . . .
110(5) . . .
135(6) . . .
123(6) . . .
131(6) . . .
151(7) . . .
134(6) . . .
133(6) . . .
128(6) . . .
132(6) . . .
126(6) . . .
130(6) . . .
136(6) . . .
133(6) . . .
113(6) . . .
133(6) . . .
124(6) . . .
116(6) . . .
133(6) . . .
115(6) . . .
118(6) . . .
137(6) . . .
129(6) . . .
135(6) . . .
127(6) . . .
131(6) . . .
134(6) . . .
131(6) . . .
119(6) . . .
121(6) . . .
134(6) . . .
118(6) . . .
126(6) . . .
142(7) . . .
124(6) . . .
133(6) . . .
121(6) . . .
128(6) . . .
131(6) . . .
133(6) . . .
136(6) . . .
136(6) . . .
133(6) . . .
130(6) . . .
130(6) . . .
121(6) . . .
122(6) . . .
144(6) . . .
144(7) . . .
127(6) . . .
128(6) . . .
129(6) . . .
116(6) . . .
124(6) . . .
131(6) . . .
131(6) . . .
136(6) . . .
124(6) . . .
130(6) . . .
121(6) . . .
127(6) . . .
145(6) . . .
141(6) . . .
138(7) . . .
132(6) . . .
125(6) . . .
135(6) . . .
139(6) . . .
142(6) . . .
128(6) . . .
135(6) . . .
157(7) . . .
135(6) . . .
149(7) . . .
125(6) . . .
152(6) . . .
128(6) . . .
120(6) . . .
130(6) . . .
140(6) . . .
121(6) . . .
128(6) . . .
130(6) . . .
120(6) . . .
133(6) . . .
133(6) . . .
126(6) . . .
131(6) . . .
126(6) . . .
115(6) . . .
139(6) . . .
131(6) . . .
136(6) . . .
124(6) . . .
125(6) . . .
141(6) . . .
129(6) . . .
117(6) . . .
125(6) . . .
134(6) . . .
115(6) . . .
126(6) . . .
113(6) . . .
130(6) . . .
126(6) . . .
131(6) . . .
121(6) . . .
111(6) . . .
122(6) . . .
127(6) . . .
139(6) . . .
137(6) . . .
124(6) . . .
118(6) . . .
132(6) . . .
142(6) . . .
137(6) . . .
121(6) . . .
128(6) . . .
145(6) . . .
130(6) . . .
116(6) . . .
126(6) . . .
110(6) . . .
117(6) . . .
121(6) . . .
143(7) . . .
127(6) . . .
127(6) . . .
117(6) . . .
118(6) . . .
127(6) . . .
123(6) . . .
130(6) . . .
106(5) . . .
127(6) . . .
139(6) . . .
134(6) . . .
127(6) . . .
128(6) . . .
134(6) . . .
126(6) . . .
126(6) . . .
142(6) . . .
122(6) . . .
128(6) . . .
123(6) . . .
121(6) . . .
122(6) . . .
121(6) . . .
126(6) . . .
132(7) . . .
133(6) . . .
124(6) . . .
112(6) . . .
113(6) . . .
119(6) . . .
130(6) . . .
134(6) . . .
118(6) . . .
128(6) . . .
147(7) . . .
130(6) . . .
136(6) . . .
138(6) . . .
135(6) . . .
128(6) . . .
146(7) . . .
135(6) . . .
142(6) . . .
124(6) . . .
137(6) . . .
133(6) . . .
129(6) . . .
124(6) . . .
144(7) . . .
130(6) . . .
113(6) . . .
118(6) . . .
132(6) . . .
144(6) . . .
149(7) . . .
135(6) . . .
130(6) . . .
126(6) . . .
131(6) . . .
134(6) . . .
117(6) . . .
125(6) . . .
118(6) . . .
121(6) . . .
134(6) . . .
127(6) . . .
118(6) . . .
122(6) . . .
125(6) . . .
127(6) . . .
119(6) . . .
119(6) . . .
129(6) . . .
115(6) . . .
108(6) . . .
110(6) . . .
137(6) . . .
129(6) . . .
130(6) . . .
130(6) . . .
139(6) . . .
125(6) . . .
125(6) . . .
121(6) . . .
113(6) . . .
138(6) . . .
133(6) . . .
134(6) . . .
118(6) . . .
117(6) . . .
144(6) . . .
142(6) . . .
122(6) . . .
123(6) . . .
110(6) . . .
137(6) . . .
131(6) . . .
132(6) . . .
127(6) . . .
117(6) . . .
118(6) . . .
128(6) . . .
118(6) . . .
122(6) . . .
147(7) . . .
126(6) . . .
121(6) . . .
125(6) . . .
129(6) . . .
125(6) . . .
119(6) . . .
123(6) . . .
126(6) . . .
123(6) . . .
126(6) . . .
132(6) . . .
127(6) . . .
126(6) . . .
129(6) . . .
136(6) . . .
116(6) . . .
127(6) . . .
133(7) . . .
132(6) . . .
127(6) . . .
126(6) . . .
133(6) . . .
126(6) . . .
135(6) . . .
117(6) . . .
146(6) . . .
125(6) . . .
122(6) . . .
135(6) . . .
129(6) . . .
141(6) . . .
129(6) . . .
131(6) . . .
137(6) . . .
122(6) . . .
128(6) . . .
141(7) . . .
113(6) . . .
123(6) . . .
130(6) . . .
124(6) . . .
125(6) . . .
118(6) . . .
139(6) . . .
135(6) . . .
143(6) . . .
130(6) . . .
137(6) . . .
125(6) . . .
133(6) . . .
129(6) . . .
116(6) . . .
114(6) . . .
121(6) . . .
121(6) . . .
114(6) . . .
136(7) . . .
128(6) . . .
126(6) . . .
115(6) . . .
129(6) . . .
127(6) . . .
144(7) . . .
119(6) . . .
130(6) . . .
118(6) . . .
133(7) . . .
121(6) . . .
122(6) . . .
132(6) . . .
147(7) . . .
124(6) . . .
128(6) . . .
107(5) . . .
141(6) . . .
120(6) . . .
119(6) . . .
131(6) . . .
117(6) . . .
124(6) . . .
124(6) . . .
123(6) . . .
120(6) . . .
156(6) . . .
132(6) . . .
132(6) . . .
135(6) . . .
133(6) . . .
148(6) . . .
151(6) . . .
140(6) . . .
117(6) . . .
133(6) . . .
140(6) . . .
123(6) . . .
124(6) . . .
121(6) . . .
131(6) . . .
130(6) . . .
132(6) . . .
127(6) . . .
108(6) . . .
137(6) . . .
134(6) . . .
137(6) . . .
133(6) . . .
144(6) . . .
132(6) . . .
135(6) . . .
118(6) . . .
134(7) . . .
127(6) . . .
132(6) . . .
137(6) . . .
133(6) . . .
127(6) . . .
124(6) . . .
114(6) . . .
139(6) . . .
131(6) . . .
121(6) . . .
120(6) . . .
145(6) . . .
133(6) . . .
130(6) . . .
124(6) . . .
127(6) . . .
138(6) . . .
123(6) . . .
124(6) . . .
126(6) . . .
126(6) . . .
106(5) . . .
130(6) . . .
112(6) . . .
138(7) . . .
123(6) . . .
130(6) . . .
125(6) . . .
134(6) . . .
133(6) . . .
131(6) . . .
138(6) . . .
116(6) . . .
120(6) . . .
124(6) . . .
108(5) . . .
118(6) . . .
123(6) . . .
132(6) . . .
131(6) . . .
120(6) . . .
140(6) . . .
114(6) . . .
118(6) . . .
125(6) . . .
141(6) . . .
123(6) . . .
134(6) . . .
136(6) . . .
147(7) . . .
119(6) . . .
119(6) . . .
119(6) . . .
128(7) . . .
129(6) . . .
136(6) . . .
138(6) . . .
121(6) . . .
133(7) . . .
127(6) . . .
137(6) . . .
142(6) . . .
128(6) . . .
128(6) . . .
132(6) . . .
131(6) . . .
107(5) . . .
119(6) . . .
122(6) . . .
117(6) . . .
118(6) . . .
125(6) . . .
127(6) . . .
117(6) . . .
121(6) . . .
108(5) . . .
130(6) . . .
137(6) . . .
137(6) . . .
139(6) . . .
146(6) . . .
134(6) . . .
110(6) . . .
119(6) . . .
132(6) . . .
128(6) . . .
134(7) . . .
124(6) . . .
134(6) . . .
121(6) . . .
118(6) . . .
155(7) . . .
139(7) . . .
133(6) . . .
122(6) . . .
123(6) . . .
129(6) . . .
128(6) . . .
124(6) . . .
116(6) . . .
147(6) . . .
134(6) . . .
132(6) . . .
142(6) . . .
128(6) . . .
143(6) . . .
130(6) . . .
124(6) . . .
118(6) . . .
113(6) . . .
110(6) . . .
110(5) . . .
124(6) . . .
124(6) . . .
124(6) . . .
137(6) . . .
122(6) . . .
121(6) . . .
116(6) . . .
128(6) . . .
111(6) . . .
114(6) . . .
113(6) . . .
100(5) . . .
111(6) . . .
115(6) . . .
117(6) . . .
112(6) . . .
112(6) . . .
113(6) . . .
145(7) . . .
133(6) . . .
123(6) . . .
106(5) . . .
119(6) . . .
121(6) . . .
125(6) . . .
109(6) . . .
118(6) . . .
111(6) . . .
123(6) . . .
119(6) . . .
118(6) . . .
116(6) . . .
123(6) . . .
120(6) . . .
117(6) . . .
125(6) . . .
109(6) . . .
122(6) . . .
117(6) . . .
114(6) . . .
108(6) . . .
113(6) . . .
126(6) . . .
121(6) . . .
107(5) . . .
107(5) . . .
106(6) . . .
111(6) . . .
106(5) . . .
121(6) . . .
110(6) . . .
123(6) . . .
124(6) . . .
105(5) . . .
119(6) . . .
119(6) . . .
130(6) . . .
120(6) . . .
116(6) . . .
124(6) . . .
127(6) . . .
113(6) . . .
114(6) . . .
122(6) . . .
125(6) . . .
117(6) . . .
118(6) . . .
123(6) . . .
114(6) . . .
115(6) . . .
126(6) . . .
126(6) . . .
119(6) . . .
133(6) . . .
116(6) . . .
115(6) . . .
132(6) . . .
129(6) . . .
112(5) . . .
121(6) . . .
134(6) . . .
126(6) . . .
110(6) . . .
129(6) . . .
116(6) . . .
114(6) . . .
106(5) . . .
113(5) . . .
115(6) . . .
128(6) . . .
112(6) . . .
115(6) . . .
128(6) . . .
114(6) . . .
130(6) . . .
124(6) . . .
114(6) . . .
112(5) . . .
92(5) . . .
109(5) . . .
115(6) . . .
105(5) . . .
120(6) . . .
118(6) . . .
114(6) . . .
128(6) . . .
123(6) . . .
134(6) . . .
112(6) . . .
133(6) . . .
112(6) . . .
130(6) . . .
122(6) . . .
132(6) . . .
133(6) . . .
108(6) . . .
117(6) . . .
128(6) . . .
124(6) . . .
121(6) . . .
128(6) . . .
124(6) . . .
125(6) . . .
138(6) . . .
126(6) . . .
118(6) . . .
129(6) . . .
129(6) . . .
130(6) . . .
122(6) . . .
121(6) . . .
129(6) . . .
120(6) . . .
113(6) . . .
107(6) . . .
124(6) . . .
119(6) . . .
113(6) . . .
126(6) . . .
133(6) . . .
117(6) . . .
135(6) . . .
121(6) . . .
127(6) . . .
132(6) . . .
122(6) . . .
123(6) . . .
111(6) . . .
124(6) . . .
124(6) . . .
111(6) . . .
124(6) . . .
119(6) . . .
120(6) . . .
122(6) . . .
123(6) . . .
128(6) . . .
133(6) . . .
133(6) . . .
127(6) . . .
121(6) . . .
116(6) . . .
127(6) . . .
134(6) . . .
125(6) . . .
114(6) . . .
120(6) . . .
107(6) . . .
116(6) . . .
123(6) . . .
110(5) . . .
114(6) . . .
129(6) . . .
105(6) . . .
103(5) . . .
114(6) . . .
109(5) . . .
121(6) . . .
121(6) . . .
131(6) . . .
135(6) . . .
114(6) . . .
106(6) . . .
115(6) . . .
121(6) . . .
121(6) . . .
115(6) . . .
141(7) . . .
128(6) . . .
108(5) . . .
137(6) . . .
137(6) . . .
116(6) . . .
112(6) . . .
105(5) . . .
131(6) . . .
116(6) . . .
130(6) . . .
111(6) . . .
111(6) . . .
117(6) . . .
124(6) . . .
122(6) . . .
122(6) . . .
113(6) . . .
117(6) . . .
123(6) . . .
119(6) . . .
131(6) . . .
145(7) . . .
127(6) . . .
129(6) . . .
120(6) . . .
99(5) . . .
113(6) . . .
117(6) . . .
127(6) . . .
124(6) . . .
113(6) . . .
122(6) . . .
122(6) . . .
124(6) . . .
130(6) . . .
131(6) . . .
132(6) . . .
121(6) . . .
116(6) . . .
126(6) . . .
129(6) . . .
111(6) . . .
125(6) . . .
115(6) . . .
125(6) . . .
118(6) . . .
118(6) . . .
113(6) . . .
126(6) . . .
125(6) . . .
132(6) . . .
133(6) . . .
123(6) . . .
114(6) . . .
119(6) . . .
130(6) . . .
140(6) . . .
121(6) . . .
117(6) . . .
132(6) . . .
132(6) . . .
110(5) . . .
120(6) . . .
122(6) . . .
124(6) . . .
107(5) . . .
127(6) . . .
112(6) . . .
115(6) . . .
116(6) . . .
113(6) . . .
110(5) . . .
108(5) . . .
117(6) . . .
125(6) . . .
118(6) . . .
123(6) . . .
134(6) . . .
115(6) . . .
123(6) . . .
117(6) . . .
118(6) . . .
116(6) . . .
115(6) . . .
126(6) . . .
127(6) . . .
123(6) . . .
132(6) . . .
116(6) . . .
112(6) . . .
115(6) . . .
115(6) . . .
124(6) . . .
134(6) . . .
121(6) . . .
121(6) . . .
128(6) . . .
119(6) . . .
130(6) . . .
120(6) . . .
114(6) . . .
113(6) . . .
129(6) . . .
105(6) . . .
125(6) . . .
112(5) . . .
127(6) . . .
131(6) . . .
132(6) . . .
121(6) . . .
114(6) . . .
138(6) . . .
132(6) . . .
132(6) . . .
126(6) . . .
113(5) . . .
129(6) . . .
138(6) . . .
125(6) . . .
124(6) . . .
131(6) . . .
116(6) . . .
113(6) . . .
121(6) . . .
122(6) . . .
116(6) . . .
124(6) . . .
115(6) . . .
118(6) . . .
121(6) . . .
118(6) . . .
117(6) . . .
121(6) . . .
126(6) . . .
106(5) . . .
111(5) . . .
135(6) . . .
114(6) . . .
129(6) . . .
132(6) . . .
126(6) . . .
113(6) . . .
113(6) . . .
111(6) . . .
121(6) . . .
109(5) . . .
119(6) . . .
112(6) . . .
127(6) . . .
109(5) . . .
131(6) . . .
115(6) . . .
127(6) . . .
132(6) . . .
120(6) . . .
131(6) . . .
117(6) . . .
119(6) . . .
111(6) . . .
121(6) . . .
110(5) . . .
132(6) . . .
133(6) . . .
114(6) . . .
125(6) . . .
125(6) . . .
130(6) . . .
110(6) . . .
120(6) . . .
115(6) . . .
118(6) . . .
123(6) . . .
121(6) . . .
122(6) . . .
113(6) . . .
121(6) . . .
115(6) . . .
113(6) . . .
131(6) . . .
125(6) . . .
122(6) . . .
117(6) . . .
123(6) . . .
110(6) . . .
109(5) . . .
133(6) . . .
117(6) . . .
112(5) . . .
120(6) . . .
118(6) . . .
118(6) . . .
113(6) . . .
118(6) . . .
123(6) . . .
120(6) . . .
122(6) . . .
117(6) . . .
120(6) . . .
123(6) . . .
120(6) . . .
115(6) . . .
121(6) . . .
118(6) . . .
117(6) . . .
112(6) . . .
109(6) . . .
118(6) . . .
122(6) . . .
114(6) . . .
117(6) . . .
138(6) . . .
132(6) . . .
109(5) . . .
128(6) . . .
112(6) . . .
130(6) . . .
122(6) . . .
110(6) . . .
132(6) . . .
146(6) . . .
114(6) . . .
102(5) . . .
124(6) . . .
122(6) . . .
121(6) . . .
125(6) . . .
106(5) . . .
112(6) . . .
107(5) . . .
115(6) . . .
125(6) . . .
116(6) . . .
119(6) . . .
124(6) . . .
134(6) . . .
118(6) . . .
110(6) . . .
127(6) . . .
130(6) . . .
130(6) . . .
125(6) . . .
118(6) . . .
108(6) . . .
111(5) . . .
102(5) . . .
127(6) . . .
122(6) . . .
123(6) . . .
105(5) . . .
119(6) . . .
121(6) . . .
130(6) . . .
113(5) . . .
125(6) . . .
130(6) . . .
118(6) . . .
113(6) . . .
139(6) . . .
129(6) . . .
124(6) . . .
122(6) . . .
133(6) . . .
120(6) . . .
120(6) . . .
127(6) . . .
122(6) . . .
127(6) . . .
109(6) . . .
134(6) . . .
124(6) . . .
118(6) . . .
128(6) . . .
131(6) . . .
123(6) . . .
115(6) . . .
116(6) . . .
117(6) . . .
135(6) . . .
130(6) . . .
115(6) . . .
109(5) . . .
125(6) . . .
127(6) . . .
143(6) . . .
118(6) . . .
112(6) . . .
137(6) . . .
119(6) . . .
137(6) . . .
122(6) . . .
127(6) . . .
111(6) . . .
121(6) . . .
111(6) . . .
110(6) . . .
119(6) . . .
136(6) . . .
139(6) . . .
123(6) . . .
136(7) . . .
123(6) . . .
107(5) . . .
112(5) . . .
110(6) . . .
105(6) . . .
116(6) . . .
119(6) . . .
120(6) . . .
115(6) . . .
124(6) . . .
128(6) . . .
121(6) . . .
122(6) . . .
109(6) . . .
143(7) . . .
116(6) . . .
132(6) . . .
120(6) . . .
114(6) . . .
120(6) . . .
125(6) . . .
122(6) . . .
132(6) . . .
122(6) . . .
107(5) . . .
117(6) . . .
117(6) . . .
133(6) . . .
127(6) . . .
141(7) . . .
123(6) . . .
123(6) . . .
127(6) . . .
120(6) . . .
129(6) . . .
116(6) . . .
115(6) . . .
125(6) . . .
126(6) . . .
114(6) . . .
120(6) . . .
134(6) . . .
130(6) . . .
128(6) . . .
115(6) . . .
123(6) . . .
113(6) . . .
133(6) . . .
124(6) . . .
115(6) . . .
108(5) . . .
118(6) . . .
129(6) . . .
133(6) . . .
138(6) . . .
126(6) . . .
114(6) . . .
121(6) . . .
125(6) . . .
121(6) . . .
132(6) . . .
105(5) . . .
122(6) . . .
114(6) . . .
138(6) . . .
101(5) . . .
118(6) . . .
120(6) . . .
120(6) . . .
124(6) . . .
125(6) . . .
117(6) . . .
120(6) . . .
113(6) . . .
123(6) . . .
101(5) . . .
127(6) . . .
115(6) . . .
120(6) . . .
132(6) . . .
132(6) . . .
112(6) . . .
130(6) . . .
112(6) . . .
122(6) . . .
115(6) . . .
113(6) . . .
124(6) . . .
125(6) . . .
119(6) . . .
113(6) . . .
130(6) . . .
131(6) . . .
121(6) . . .
121(6) . . .
122(6) . . .
125(6) . . .
128(6) . . .
114(6) . . .
117(6) . . .
111(5) . . .
123(6) . . .
125(6) . . .
125(6) . . .
122(6) . . .
134(6) . . .
129(6) . . .
130(6) . . .
131(6) . . .
124(6) . . .
128(6) . . .
116(6) . . .
112(6) . . .
134(6) . . .
124(6) . . .
115(6) . . .
121(6) . . .
118(6) . . .
112(6) . . .
114(6) . . .
124(6) . . .
104(5) . . .
123(6) . . .
116(6) . . .
122(6) . . .
130(6) . . .
126(6) . . .
120(6) . . .
121(6) . . .
129(6) . . .
116(6) . . .
117(6) . . .
118(6) . . .
130(6) . . .
130(6) . . .
117(6) . . .
103(5) . . .
122(6) . . .
125(6) . . .
120(6) . . .
105(5) . . .
121(6) . . .
118(6) . . .
124(6) . . .
126(6) . . .
114(6) . . .
135(6) . . .
120(6) . . .
97(5) . . .
113(6) . . .
116(6) . . .
106(5) . . .
130(6) . . .
124(6) . . .
122(6) . . .
125(6) . . .
139(7) . . .
114(6) . . .
129(6) . . .
132(6) . . .
109(5) . . .
136(7) . . .
121(6) . . .
110(6) . . .
119(6) . . .
129(6) . . .
112(6) . . .
116(6) . . .
121(6) . . .
117(6) . . .
113(6) . . .
116(6) . . .
127(6) . . .
133(6) . . .
130(6) . . .
125(6) . . .
128(6) . . .
124(6) . . .
115(6) . . .
123(6) . . .
118(6) . . .
119(6) . . .
122(6) . . .
125(6) . . .
116(6) . . .
122(6) . . .
127(6) . . .
135(6) . . .
134(6) . . .
121(6) . . .
123(6) . . .
113(6) . . .
120(6) . . .
127(6) . . .
126(6) . . .
121(6) . . .
130(6) . . .
124(6) . . .
122(6) . . .
119(6) . . .
122(6) . . .
119(6) . . .
125(6) . . .
125(6) . . .
117(6) . . .
126(6) . . .
122(6) . . .
136(6) . . .
120(6) . . .
119(6) . . .
121(6) . . .
128(6) . . .
111(6) . . .
114(6) . . .
125(6) . . .
118(6) . . .
119(6) . . .
134(6) . . .
108(5) . . .
132(6) . . .
124(6) . . .
122(6) . . .
124(6) . . .
124(6) . . .
127(6) . . .
131(6) . . .
117(6) . . .
122(6) . . .
135(6) . . .
119(6) . . .
120(6) . . .
140(6) . . .
111(5) . . .
139(6) . . .
131(6) . . .
125(6) . . .
122(6) . . .
125(6) . . .
116(6) . . .
126(6) . . .
148(7) . . .
140(6) . . .
126(6) . . .
131(6) . . .
145(7) . . .
134(6) . . .
133(6) . . .
133(6) . . .
118(6) . . .
136(7) . . .
128(6) . . .
125(6) . . .
139(6) . . .
139(7) . . .
117(6) . . .
135(6) . . .
129(6) . . .
141(6) . . .
138(6) . . .
126(6) . . .
142(6) . . .
121(6) . . .
132(6) . . .
126(6) . . .
140(7) . . .
119(6) . . .
112(5) . . .
124(6) . . .
120(6) . . .
123(6) . . .
140(6) . . .
139(6) . . .
134(6) . . .
131(6) . . .
129(6) . . .
120(6) . . .
119(6) . . .
115(6) . . .
119(6) . . .
130(6) . . .
128(6) . . .
135(6) . . .
133(6) . . .
125(6) . . .
133(6) . . .
121(6) . . .
126(6) . . .
136(6) . . .
121(6) . . .
119(6) . . .
128(6) . . .
128(6) . . .
131(6) . . .
130(6) . . .
119(6) . . .
118(6) . . .
121(6) . . .
120(6) . . .
123(6) . . .
128(6) . . .
129(6) . . .
116(6) . . .
135(6) . . .
129(6) . . .
123(6) . . .
125(6) . . .
123(6) . . .
115(6) . . .
126(6) . . .
130(6) . . .
120(6) . . .
120(6) . . .
129(6) . . .
110(6) . . .
133(6) . . .
124(6) . . .
113(6) . . .
117(6) . . .
118(6) . . .
127(6) . . .
114(6) . . .
127(6) . . .
138(6) . . .
136(7) . . .
115(6) . . .
119(6) . . .
121(6) . . .
135(6) . . .
126(6) . . .
121(6) . . .
140(6) . . .
120(6) . . .
148(7) . . .
116(6) . . .
140(6) . . .
116(6) . . .
130(6) . . .
111(6) . . .
129(6) . . .
121(6) . . .
124(6) . . .
123(6) . . .
119(6) . . .
121(6) . . .
123(6) . . .
131(6) . . .
122(6) . . .
124(6) . . .
113(6) . . .
134(6) . . .
141(6) . . .
132(6) . . .
104(5) . . .
130(6) . . .
114(6) . . .
116(6) . . .
114(6) . . .
145(7) . . .
124(6) . . .
134(6) . . .
131(6) . . .
124(6) . . .
137(7) . . .
123(6) . . .
110(6) . . .
124(6) . . .
128(6) . . .
114(6) . . .
127(6) . . .
114(6) . . .
127(6) . . .
110(5) . . .
125(6) . . .
122(6) . . .
124(6) . . .
120(6) . . .
115(6) . . .
129(6) . . .
126(6) . . .
124(6) . . .
119(6) . . .
120(6) . . .
123(6) . . .
131(6) . . .
128(6) . . .
119(6) . . .
124(6) . . .
126(6) . . .
133(6) . . .
127(6) . . .
114(6) . . .
119(6) . . .
120(6) . . .
120(6) . . .
124(6) . . .
142(7) . . .
115(6) . . .
116(6) . . .
130(6) . . .
132(6) . . .
131(6) . . .
132(6) . . .
107(5) . . .
110(5) . . .
129(6) . . .
105(5) . . .
134(7) . . .
122(6) . . .
106(5) . . .
101(5) . . .
119(6) . . .
119(6) . . .
103(6) . . .
109(5) . . .
110(5) . . .
120(6) . . .
124(6) . . .
125(6) . . .
126(6) . . .
120(6) . . .
132(6) . . .
125(6) . . .
116(6) . . .
131(6) . . .
119(6) . . .
116(6) . . .
116(6) . . .
121(6) . . .
115(6) . . .
141(6) . . .
104(6) . . .
125(6) . . .
141(6) . . .
118(6) . . .
140(6) . . .
122(6) . . .
129(6) . . .
123(6) . . .
111(6) . . .
113(6) . . .
119(6) . . .
136(6) . . .
121(6) . . .
128(6) . . .
119(6) . . .
125(6) . . .
121(6) . . .
108(5) . . .
120(6) . . .
108(6) . . .
127(6) . . .
126(6) . . .
120(6) . . .
108(5) . . .
123(6) . . .
116(6) . . .
123(6) . . .
137(6) . . .
138(6) . . .
132(6) . . .
126(6) . . .
122(6) . . .
129(6) . . .
118(6) . . .
114(6) . . .
135(7) . . .
124(6) . . .
128(6) . . .
124(6) . . .
115(6) . . .
115(6) . . .
129(6) . . .
115(6) . . .
128(6) . . .
123(6) . . .
126(6) . . .
131(6) . . .
124(6) . . .
119(6) . . .
109(5) . . .
121(6) . . .
109(6) . . .
115(6) . . .
124(6) . . .
123(6) . . .
121(6) . . .
140(6) . . .
123(6) . . .
131(6) . . .
127(6) . . .
121(6) . . .
127(6) . . .
118(6) . . .
131(6) . . .
104(6) . . .
116(6) . . .
106(5) . . .
120(6) . . .
107(6) . . .
131(6) . . .
137(6) . . .
112(6) . . .
124(6) . . .
116(6) . . .
116(6) . . .
146(6) . . .
121(6) . . .
123(6) . . .
122(6) . . .
132(7) . . .
121(6) . . .
129(6) . . .
112(5) . . .
120(6) . . .
109(6) . . .
116(6) . . .
127(6) . . .
135(6) . . .
118(6) . . .
124(6) . . .
113(6) . . .
126(6) . . .
128(6) . . .
144(6) . . .
112(6) . . .
122(6) . . .
137(6) . . .
143(6) . . .
129(6) . . .
120(6) . . .
124(6) . . .
135(6) . . .
133(6) . . .
121(6) . . .
112(6) . . .
131(6) . . .
101(5) . . .
110(6) . . .
122(6) . . .
129(6) . . .
122(6) . . .
121(6) . . .
121(6) . . .
133(6) . . .
120(6) . . .
120(6) . . .
110(6) . . .
122(6) . . .
125(6) . . .
135(6) . . .
123(6) . . .
129(6) . . .
115(6) . . .
115(6) . . .
124(6) . . .
135(6) . . .
122(6) . . .
111(6) . . .
127(6) . . .
127(6) . . .
115(6) . . .
135(6) . . .
109(6) . . .
124(6) . . .
128(6) . . .
127(6) . . .
116(6) . . .
121(6) . . .
122(6) . . .
110(6) . . .
122(6) . . .
112(6) . . .
119(6) . . .
124(6) . . .
114(6) . . .
112(5) . . .
117(6) . . .
130(6) . . .
122(6) . . .
116(6) . . .
127(6) . . .
119(6) . . .
112(6) . . .
122(6) . . .
118(6) . . .
121(6) . . .
116(6) . . .
129(6) . . .
109(6) . . .
129(6) . . .
109(5) . . .
125(6) . . .
123(6) . . .
132(6) . . .
137(6) . . .
131(6) . . .
121(6) . . .
126(6) . . .
129(6) . . .
127(6) . . .
125(6) . . .
125(6) . . .
125(6) . . .
107(5) . . .
119(6) . . .
118(6) . . .
119(6) . . .
118(6) . . .
127(6) . . .
124(6) . . .
121(6) . . .
123(6) . . .
116(6) . . .
135(6) . . .
126(6) . . .
122(6) . . .
123(6) . . .
135(7) . . .
120(6) . . .
115(6) . . .
117(6) . . .
137(6) . . .
109(6) . . .
120(6) . . .
132(6) . . .
132(6) . . .
116(6) . . .
121(6) . . .
132(7) . . .
116(6) . . .
143(6) . . .
130(6) . . .
130(6) . . .
119(6) . . .
112(6) . . .
125(6) . . .
115(6) . . .
131(6) . . .
118(6) . . .
131(6) . . .
132(6) . . .
134(6) . . .
124(6) . . .
119(6) . . .
121(6) . . .
129(6) . . .
132(6) . . .
129(6) . . .
110(6) . . .
116(6) . . .
125(6) . . .
122(6) . . .
125(6) . . .
125(6) . . .
129(6) . . .
126(6) . . .
130(6) . . .
128(6) . . .
125(6) . . .
118(6) . . .
130(6) . . .
110(6) . . .
135(6) . . .
130(6) . . .
123(6) . . .
141(7) . . .
118(6) . . .
124(6) . . .
122(6) . . .
118(6) . . .
126(6) . . .
127(6) . . .
128(6) . . .
125(6) . . .
124(6) . . .
127(6) . . .
117(6) . . .
139(6) . . .
114(6) . . .
126(6) . . .
117(6) . . .
136(7) . . .
121(6) . . .
127(6) . . .
136(6) . . .
117(6) . . .
121(6) . . .
131(6) . . .
124(6) . . .
117(6) . . .
121(6) . . .
110(6) . . .
119(6) . . .
127(6) . . .
110(6) . . .
119(6) . . .
113(6) . . .
125(6) . . .
125(6) . . .
133(6) . . .
139(6) . . .
115(6) . . .
119(6) . . .
130(6) . . .
131(6) . . .
107(6) . . .
126(6) . . .
123(6) . . .
121(6) . . .
126(6) . . .
133(6) . . .
122(6) . . .
116(6) . . .
136(6) . . .
119(6) . . .
127(6) . . .
121(6) . . .
115(6) . . .
135(6) . . .
142(6) . . .
139(7) . . .
120(6) . . .
132(6) . . .
123(6) . . .
120(6) . . .
118(6) . . .
125(6) . . .
123(6) . . .
126(6) . . .
147(7) . . .
132(6) . . .
123(6) . . .
136(6) . . .
135(6) . . .
128(6) . . .
123(6) . . .
119(6) . . .
135(6) . . .
117(6) . . .
123(6) . . .
131(6) . . .
131(6) . . .
112(6) . . .
124(6) . . .
126(6) . . .
132(6) . . .
111(6) . . .
128(6) . . .
127(6) . . .
125(6) . . .
122(6) . . .
140(6) . . .
139(6) . . .
125(6) . . .
111(6) . . .
115(6) . . .
137(6) . . .
133(6) . . .
123(6) . . .
117(6) . . .
121(6) . . .
110(5) . . .
118(6) . . .
124(6) . . .
120(6) . . .
128(6) . . .
128(6) . . .
130(6) . . .
131(6) . . .
127(6) . . .
140(7) . . .
102(5) . . .
118(6) . . .
113(6) . . .
132(6) . . .
126(6) . . .
127(6) . . .
115(6) . . .
127(6) . . .
117(6) . . .
125(6) . . .
142(6) . . .
130(6) . . .
124(6) . . .
125(6) . . .
120(6) . . .
98(5) . . .
142(6) . . .
119(6) . . .
113(6) . . .
123(6) . . .
132(6) . . .
128(6) . . .
122(6) . . .
124(6) . . .
122(6) . . .
133(6) . . .
126(6) . . .
127(6) . . .
121(6) . . .
120(6) . . .
125(6) . . .
100(5) . . .
125(6) . . .
115(6) . . .
107(5) . . .
127(6) . . .
122(6) . . .
118(6) . . .
124(6) . . .
122(6) . . .
121(6) . . .
136(6) . . .
127(6) . . .
118(6) . . .
131(6) . . .
118(6) . . .
111(6) . . .
131(7) . . .
125(6) . . .
125(6) . . .
142(6) . . .
141(6) . . .
120(6) . . .
125(6) . . .
133(6) . . .
117(6) . . .
113(6) . . .
122(6) . . .
124(6) . . .
123(6) . . .
116(6) . . .
131(6) . . .
121(6) . . .
115(6) . . .
126(6) . . .
125(6) . . .
125(6) . . .
117(6) . . .
117(6) . . .
132(6) . . .
128(6) . . .
116(6) . . .
124(6) . . .
127(6) . . .
114(6) . . .
123(6) . . .
125(6) . . .
124(6) . . .
104(5) . . .
128(6) . . .
107(6) . . .
136(7) . . .
117(6) . . .
116(6) . . .
124(6) . . .
134(6) . . .
115(6) . . .
134(6) . . .
132(6) . . .
117(6) . . .
126(6) . . .
114(6) . . .
108(5) . . .
119(6) . . .
122(6) . . .
117(6) . . .
114(6) . . .
116(6) . . .
116(6) . . .
124(6) . . .
129(6) . . .
123(6) . . .
141(6) . . .
133(6) . . .
116(6) . . .
116(6) . . .
124(6) . . .
122(6) . . .
120(6) . . .
116(6) . . .
121(6) . . .
125(6) . . .
130(6) . . .
162(7) . . .
130(6) . . .
135(6) . . .
128(6) . . .
129(6) . . .
129(6) . . .
125(6) . . .
111(6) . . .
145(6) . . .
121(6) . . .
113(6) . . .
119(6) . . .
133(6) . . .
140(7) . . .
118(6) . . .
123(6) . . .
117(6) . . .
119(6) . . .
126(6) . . .
124(6) . . .
132(6) . . .
124(6) . . .
116(6) . . .
119(6) . . .
112(5) . . .
120(6) . . .
115(6) . . .
113(6) . . .
120(6) . . .
131(6) . . .
147(6) . . .
132(6) . . .
125(6) . . .
124(6) . . .
108(5) . . .
115(6) . . .
139(6) . . .
113(6) . . .
96(5) . . .
119(6) . . .
111(5) . . .
120(6) . . .
123(6) . . .
128(6) . . .
114(6) . . .
137(6) . . .
130(6) . . .
126(6) . . .
125(6) . . .
112(6) . . .
112(6) . . .
119(6) . . .
132(6) . . .
128(6) . . .
117(6) . . .
129(6) . . .
139(6) . . .
117(6) . . .
118(6) . . .
126(6) . . .
111(6) . . .
122(6) . . .
107(5) . . .
122(6) . . .
121(6) . . .
132(6) . . .
108(6) . . .
114(6) . . .
124(6) . . .
129(6) . . .
114(6) . . .
112(6) . . .
114(6) . . .
119(6) . . .
130(6) . . .
138(6) . . .
123(6) . . .
120(6) . . .
127(6) . . .
118(6) . . .
123(6) . . .
112(6) . . .
110(6) . . .
123(6) . . .
117(6) . . .
120(6) . . .
115(6) . . .
124(6) . . .
123(6) . . .
128(6) . . .
121(6) . . .
108(6) . . .
122(6) . . .
152(6) . . .
115(6) . . .
111(6) . . .
127(6) . . .
115(6) . . .
121(6) . . .
129(6) . . .
123(6) . . .
123(6) . . .
121(6) . . .
118(6) . . .
102(5) . . .
117(6) . . .
126(6) . . .
107(6) . . .
119(6) . . .
134(6) . . .
118(6) . . .
116(6) . . .
118(6) . . .
136(6) . . .
115(6) . . .
120(6) . . .
133(6) . . .
133(6) . . .
122(6) . . .
122(6) . . .
110(6) . . .
122(6) . . .
127(6) . . .
130(6) . . .
115(6) . . .
113(6) . . .
126(6) . . .
108(5) . . .
126(6) . . .
119(6) . . .
120(6) . . .
107(5) . . .
99(5) . . .
127(6) . . .
123(6) . . .
119(6) . . .
124(6) . . .
112(6) . . .
125(6) . . .
127(6) . . .
118(6) . . .
131(6) . . .
136(6) . . .
115(6) . . .
113(6) . . .
122(6) . . .
111(6) . . .
126(6) . . .
108(6) . . .
119(6) . . .
123(6) . . .
107(5) . . .
126(6) . . .
115(6) . . .
127(6) . . .
119(6) . . .
117(6) . . .
126(6) . . .
122(6) . . .
134(6) . . .
131(6) . . .
126(6) . . .
114(6) . . .
115(6) . . .
122(6) . . .
127(6) . . .
130(6) . . .
124(6) . . .
129(6) . . .
126(6) . . .
119(6) . . .
117(6) . . .
122(6) . . .
135(6) . . .
118(6) . . .
123(6) . . .
123(6) . . .
134(6) . . .
117(6) . . .
119(6) . . .
122(6) . . .
129(6) . . .
109(5) . . .
129(6) . . .
140(7) . . .
130(6) . . .
122(6) . . .
118(6) . . .
116(6) . . .
127(6) . . .
130(6) . . .
124(6) . . .
110(5) . . .
117(6) . . .
121(6) . . .
119(6) . . .
127(6) . . .
114(6) . . .
102(5) . . .
130(6) . . .
129(6) . . .
110(5) . . .
108(5) . . .
116(6) . . .
123(6) . . .
118(6) . . .
119(6) . . .
121(6) . . .
124(6) . . .
131(6) . . .
119(6) . . .
123(6) . . .
116(6) . . .
121(6) . . .
126(6) . . .
136(6) . . .
113(6) . . .
122(6) . . .
117(6) . . .
115(6) . . .
109(5) . . .
116(6) . . .
126(6) . . .
121(6) . . .
137(6) . . .
115(6) . . .
120(6) . . .
143(6) . . .
122(6) . . .
107(6) . . .
122(6) . . .
129(6) . . .
123(6) . . .
118(6) . . .
111(6) . . .
123(6) . . .
117(6) . . .
105(5) . . .
122(6) . . .
115(6) . . .
113(6) . . .
118(6) . . .
115(6) . . .
127(6) . . .
129(6) . . .
126(6) . . .
112(5) . . .
118(6) . . .
116(6) . . .
124(6) . . .
120(6) . . .
122(6) . . .
113(6) . . .
105(5) . . .
109(5) . . .
116(6) . . .
116(6) . . .
112(6) . . .
131(6) . . .
107(6) . . .
116(6) . . .
110(6) . . .
108(6) . . .
128(6) . . .
122(6) . . .
118(6) . . .
122(6) . . .
116(6) . . .
100(5) . . .
119(6) . . .
121(6) . . .
114(6) . . .
114(6) . . .
121(6) . . .
128(6) . . .
101(5) . . .
132(6) . . .
128(6) . . .
122(6) . . .
123(6) . . .
116(6) . . .
118(6) . . .
131(6) . . .
132(6) . . .
134(6) . . .
127(6) . . .
120(6) . . .
133(6) . . .
113(6) . . .
130(6) . . .
128(6) . . .
127(6) . . .
134(6) . . .
111(6) . . .
113(6) . . .
121(6) . . .
138(6) . . .
113(6) . . .
104(5) . . .
109(5) . . .
135(6) . . .
128(6) . . .
121(6) . . .
124(6) . . .
122(6) . . .
126(6) . . .
121(6) . . .
101(5) . . .
110(6) . . .
123(6) . . .
126(6) . . .
117(6) . . .
116(6) . . .
117(6) . . .
114(6) . . .
108(6) . . .
122(6) . . .
110(6) . . .
109(5) . . .
115(6) . . .
122(6) . . .
117(6) . . .
127(6) . . .
132(6) . . .
119(6) . . .
102(5) . . .
122(6) . . .
111(6) . . .
119(6) . . .
121(6) . . .
117(6) . . .
101(6) . . .
109(6) . . .
120(6) . . .
125(6) . . .
112(6) . . .
114(6) . . .
119(6) . . .
111(6) . . .
106(5) . . .
113(6) . . .
133(6) . . .
145(7) . . .
112(5) . . .
127(6) . . .
119(6) . . .
126(6) . . .
114(6) . . .
114(6) . . .
123(6) . . .
124(6) . . .
122(6) . . .
118(6) . . .
141(6) . . .
124(6) . . .
123(6) . . .
114(6) . . .
119(6) . . .
125(6) . . .
113(6) . . .
134(6) . . .
125(6) . . .
120(6) . . .
123(6) . . .
118(6) . . .
132(6) . . .
123(6) . . .
123(6) . . .
115(6) . . .
122(6) . . .
127(6) . . .
119(6) . . .
113(6) . . .
123(6) . . .
116(6) . . .
114(6) . . .
113(6) . . .
124(6) . . .
130(6) . . .
122(6) . . .
119(6) . . .
122(6) . . .
105(5) . . .
107(5) . . .
124(6) . . .
98(5) . . .
107(6) . . .
116(6) . . .
126(6) . . .
116(6) . . .
132(6) . . .
112(6) . . .
106(5) . . .
124(6) . . .
114(6) . . .
135(7) . . .
108(6) . . .
124(6) . . .
115(6) . . .
97(5) . . .
128(6) . . .
116(6) . . .
134(6) . . .
119(6) . . .
121(6) . . .
133(6) . . .
125(6) . . .
129(6) . . .
114(6) . . .
118(6) . . .
122(6) . . .
110(6) . . .
120(6) . . .
117(6) . . .
127(6) . . .
130(6) . . .
117(6) . . .
118(6) . . .
116(6) . . .
130(6) . . .
111(6) . . .
110(6) . . .
117(6) . . .
138(7) . . .
124(6) . . .
115(6) . . .
120(6) . . .
126(6) . . .
117(6) . . .
126(6) . . .
97(5) . . .
128(6) . . .
121(6) . . .
126(6) . . .
121(6) . . .
124(6) . . .
124(6) . . .
123(6) . . .
119(6) . . .
110(6) . . .
118(6) . . .
116(6) . . .
122(6) . . .
124(6) . . .
119(6) . . .
126(6) . . .
126(6) . . .
113(6) . . .
108(5) . . .
100(6) . . .
105(6) . . .
113(6) . . .
120(6) . . .
129(6) . . .
120(6) . . .
131(6) . . .
127(6) . . .
109(6) . . .
110(6) . . .
130(6) . . .
113(5) . . .
123(6) . . .
122(6) . . .
118(6) . . .
113(6) . . .
112(6) . . .
112(6) . . .
125(6) . . .
129(6) . . .
118(6) . . .
124(6) . . .
123(6) . . .
113(6) . . .
124(6) . . .
132(6) . . .
124(6) . . .
136(6) . . .
117(6) . . .
135(6) . . .
124(6) . . .
115(6) . . .
120(6) . . .
119(6) . . .
122(6) . . .
122(6) . . .
112(6) . . .
121(6) . . .
113(6) . . .
125(6) . . .
121(6) . . .
123(6) . . .
124(6) . . .
126(6) . . .
118(6) . . .
134(6) . . .
110(6) . . .
117(6) . . .
111(6) . . .
110(6) . . .
117(6) . . .
116(6) . . .
122(6) . . .
111(6) . . .
113(6) . . .
132(6) . . .
119(6) . . .
121(6) . . .
123(6) . . .
123(6) . . .
109(5) . . .
116(6) . . .
113(6) . . .
131(6) . . .
110(6) . . .
110(6) . . .
117(6) . . .
111(6) . . .
119(6) . . .
125(6) . . .
124(6) . . .
115(6) . . .
115(6) . . .
111(6) . . .
119(6) . . .
136(6) . . .
117(6) . . .
112(6) . . .
122(6) . . .
123(6) . . .
103(5) . . .
108(5) . . .
117(6) . . .
126(6) . . .
122(6) . . .
131(6) . . .
123(6) . . .
124(6) . . .
127(6) . . .
128(6) . . .
130(6) . . .
127(6) . . .
118(6) . . .
117(6) . . .
119(6) . . .
122(6) . . .
132(6) . . .
120(6) . . .
122(6) . . .
125(6) . . .
123(6) . . .
111(6) . . .
97(5) . . .
106(6) . . .
119(6) . . .
111(5) . . .
115(6) . . .
115(6) . . .
115(6) . . .
107(6) . . .
117(6) . . .
119(6) . . .
113(6) . . .
128(6) . . .
106(5) . . .
122(6) . . .
112(6) . . .
115(6) . . .
114(6) . . .
107(6) . . .
114(6) . . .
125(6) . . .
115(6) . . .
121(6) . . .
104(5) . . .
121(6) . . .
119(6) . . .
113(6) . . .
113(6) . . .
113(5) . . .
124(6) . . .
115(6) . . .
130(7) . . .
121(6) . . .
118(6) . . .
107(5) . . .
119(6) . . .
121(6) . . .
118(6) . . .
112(6) . . .
116(6) . . .
128(6) . . .
114(6) . . .
104(5) . . .
107(5) . . .
112(5) . . .
119(6) . . .
116(6) . . .
120(6) . . .
129(6) . . .
111(6) . . .
111(6) . . .
114(6) . . .
101(5) . . .
133(6) . . .
116(6) . . .
116(6) . . .
128(6) . . .
119(6) . . .
105(5) . . .
118(6) . . .
115(6) . . .
135(6) . . .
111(6) . . .
118(6) . . .
104(5) . . .
115(6) . . .
132(6) . . .
125(6) . . .
123(6) . . .
111(6) . . .
125(6) . . .
126(6) . . .
134(6) . . .
127(6) . . .
127(6) . . .
122(6) . . .
135(6) . . .
118(6) . . .
122(6) . . .
120(6) . . .
120(6) . . .
116(6) . . .
122(6) . . .
116(6) . . .
117(6) . . .
115(6) . . .
118(6) . . .
105(5) . . .
128(6) . . .
120(6) . . .
112(6) . . .
139(6) . . .
110(5) . . .
109(5) . . .
107(6) . . .
109(6) . . .
125(6) . . .
121(6) . . .
125(6) . . .
123(6) . . .
129(6) . . .
128(6) . . .
127(6) . . .
119(6) . . .
126(6) . . .
113(6) . . .
100(5) . . .
131(6) . . .
113(6) . . .
118(6) . . .
121(6) . . .
128(6) . . .
121(6) . . .
122(6) . . .
108(6) . . .
112(6) . . .
135(6) . . .
102(5) . . .
113(6) . . .
121(6) . . .
119(6) . . .
115(6) . . .
132(6) . . .
122(6) . . .
117(6) . . .
129(6) . . .
112(6) . . .
101(5) . . .
108(5) . . .
122(6) . . .
122(6) . . .
116(6) . . .
103(5) . . .
120(6) . . .
113(6) . . .
112(6) . . .
103(5) . . .
111(5) . . .
113(6) . . .
114(6) . . .
121(6) . . .
119(6) . . .
115(6) . . .
121(6) . . .
114(6) . . .
99(5) . . .
114(6) . . .
110(6) . . .
120(6) . . .
125(6) . . .
125(6) . . .
116(6) . . .
105(5) . . .
114(6) . . .
118(6) . . .
117(6) . . .
128(6) . . .
119(6) . . .
101(5) . . .
113(6) . . .
110(6) . . .
115(6) . . .
106(5) . . .
116(6) . . .
125(6) . . .
110(6) . . .
110(5) . . .
106(6) . . .
108(6) . . .
104(5) . . .
114(6) . . .
143(6) . . .
118(6) . . .
111(6) . . .
113(6) . . .
111(6) . . .
117(6) . . .
133(6) . . .
115(6) . . .
95(5) . . .
118(6) . . .
126(6) . . .
122(6) . . .
115(6) . . .
122(6) . . .
135(6) . . .
124(6) . . .
120(6) . . .
108(6) . . .
115(6) . . .
116(6) . . .
117(6) . . .
117(6) . . .
126(6) . . .
121(6) . . .
97(5) . . .
128(6) . . .
132(6) . . .
115(6) . . .
124(6) . . .
102(5) . . .
114(6) . . .
98(5) . . .
117(6) . . .
119(6) . . .
116(6) . . .
130(6) . . .
125(6) . . .
110(6) . . .
115(6) . . .
108(5) . . .
104(6) . . .
118(6) . . .
113(6) . . .
123(6) . . .
124(6) . . .
120(6) . . .
109(6) . . .
106(5) . . .
131(6) . . .
123(6) . . .
111(6) . . .
120(6) . . .
124(6) . . .
127(6) . . .
106(5) . . .
104(6) . . .
118(6) . . .
106(5) . . .
113(6) . . .
103(5) . . .
116(6) . . .
127(6) . . .
109(6) . . .
121(6) . . .
134(6) . . .
132(6) . . .
113(6) . . .
109(6) . . .
109(5) . . .
123(6) . . .
115(6) . . .
136(6) . . .
131(6) . . .
126(6) . . .
121(6) . . .
136(6) . . .
122(6) . . .
122(6) . . .
124(6) . . .
113(6) . . .
114(6) . . .
113(6) . . .
116(6) . . .
121(6) . . .
130(6) . . .
113(6) . . .
113(6) . . .
122(6) . . .
119(6) . . .
129(6) . . .
111(6) . . .
112(6) . . .
117(6) . . .
114(6) . . .
124(6) . . .
111(6) . . .
107(6) . . .
121(6) . . .
110(5) . . .
118(6) . . .
116(6) . . .
124(6) . . .
112(6) . . .
120(6) . . .
114(6) . . .
105(6) . . .
119(6) . . .
116(6) . . .
125(6) . . .
124(6) . . .
118(6) . . .
108(6) . . .
122(6) . . .
133(6) . . .
114(6) . . .
104(6) . . .
115(6) . . .
130(6) . . .
127(6) . . .
126(6) . . .
123(6) . . .
114(6) . . .
125(6) . . .
116(6) . . .
117(6) . . .
114(6) . . .
129(6) . . .
120(6) . . .
113(5) . . .
111(6) . . .
118(6) . . .
112(6) . . .
132(6) . . .
128(6) . . .
111(6) . . .
115(6) . . .
119(6) . . .
127(6) . . .
102(5) . . .
115(6) . . .
98(5) . . .
120(6) . . .
128(6) . . .
119(6) . . .
107(6) . . .
133(6) . . .
119(6) . . .
124(6) . . .
125(6) . . .
126(6) . . .
128(6) . . .
120(6) . . .
109(5) . . .
104(5) . . .
119(6) . . .
134(6) . . .
118(6) . . .
117(6) . . .
100(5) . . .
135(6) . . .
128(6) . . .
106(5) . . .
90(5) . . .
114(6) . . .
127(6) . . .
125(6) . . .
120(6) . . .
114(6) . . .
118(6) . . .
130(7) . . .
107(6) . . .
113(6) . . .
116(6) . . .
108(5) . . .
119(6) . . .
103(5) . . .
121(6) . . .
110(5) . . .
120(6) . . .
118(6) . . .
123(6) . . .
109(5) . . .
118(6) . . .
118(6) . . .
120(6) . . .
123(6) . . .
136(6) . . .
120(6) . . .
100(5) . . .
109(6) . . .
109(6) . . .
123(6) . . .
112(6) . . .
112(6) . . .
127(6) . . .
131(6) . . .
125(6) . . .
108(6) . . .
111(6) . . .
128(6) . . .
124(6) . . .
120(6) . . .
107(6) . . .
113(6) . . .
114(6) . . .
120(6) . . .
121(6) . . .
112(6) . . .
126(6) . . .
116(6) . . .
107(5) . . .
118(6) . . .
98(5) . . .
106(6) . . .
112(6) . . .
125(6) . . .
123(6) . . .
121(6) . . .
119(6) . . .
128(6) . . .
117(6) . . .
106(5) . . .
103(5) . . .
118(6) . . .
105(5) . . .
101(5) . . .
109(6) . . .
114(6) . . .
119(6) . . .
115(6) . . .
117(6) . . .
108(5) . . .
118(6) . . .
111(6) . . .
105(5) . . .
110(5) . . .
122(6) . . .
128(6) . . .
121(6) . . .
107(5) . . .
121(6) . . .
116(6) . . .
119(6) . . .
121(6) . . .
115(6) . . .
110(5) . . .
98(5) . . .
120(6) . . .
116(6) . . .
116(6) . . .
112(6) . . .
106(5) . . .
102(6) . . .
105(5) . . .
110(6) . . .
135(6) . . .
105(5) . . .
124(6) . . .
124(6) . . .
119(6) . . .
109(5) . . .
112(6) . . .
119(6) . . .
110(6) . . .
110(5) . . .
116(6) . . .
103(6) . . .
120(6) . . .
117(6) . . .
121(6) . . .
113(6) . . .
102(5) . . .
115(6) . . .
131(6) . . .
115(6) . . .
112(5) . . .
122(6) . . .
113(6) . . .
106(5) . . .
118(6) . . .
113(5) . . .
123(6) . . .
113(6) . . .
109(6) . . .
116(6) . . .
126(6) . . .
130(6) . . .
124(6) . . .
112(6) . . .
96(5) . . .
105(6) . . .
108(6) . . .
117(6) . . .
113(6) . . .
116(6) . . .
100(5) . . .
114(6) . . .
102(5) . . .
122(6) . . .
127(6) . . .
113(6) . . .
110(6) . . .
118(6) . . .
107(6) . . .
126(6) . . .
112(6) . . .
116(6) . . .
120(6) . . .
108(5) . . .
111(5) . . .
114(6) . . .
109(6) . . .
115(6) . . .
116(6) . . .
114(6) . . .
102(5) . . .
107(6) . . .
113(6) . . .
115(6) . . .
110(5) . . .
124(6) . . .
115(6) . . .
119(6) . . .
101(5) . . .
111(6) . . .
125(6) . . .
122(6) . . .
106(6) . . .
100(5) . . .
107(5) . . .
120(6) . . .
113(6) . . .
127(6) . . .
121(6) . . .
119(6) . . .
121(6) . . .
128(6) . . .
123(6) . . .
110(5) . . .
103(5) . . .
129(6) . . .
116(6) . . .
121(6) . . .
136(6) . . .
119(6) . . .
109(6) . . .
110(6) . . .
117(6) . . .
116(6) . . .
115(6) . . .
110(6) . . .
114(6) . . .
111(5) . . .
125(6) . . .
122(6) . . .
108(6) . . .
119(6) . . .
115(6) . . .
114(6) . . .
113(6) . . .
121(6) . . .
112(6) . . .
125(6) . . .
110(5) . . .
120(6) . . .
100(6) . . .
108(6) . . .
107(5) . . .
106(5) . . .
114(6) . . .
110(6) . . .
102(5) . . .
106(5) . . .
119(6) . . .
127(6) . . .
112(6) . . .
101(5) . . .
116(6) . . .
111(5) . . .
103(5) . . .
117(6) . . .
120(6) . . .
120(6) . . .
111(5) . . .
126(6) . . .
121(6) . . .
126(6) . . .
122(6) . . .
93(5) . . .
101(5) . . .
127(6) . . .
112(6) . . .
122(6) . . .
108(6) . . .
119(6) . . .
110(6) . . .
118(6) . . .
115(6) . . .
100(6) . . .
104(6) . . .
112(6) . . .
110(6) . . .
116(6) . . .
113(6) . . .
116(6) . . .
118(6) . . .
96(5) . . .
115(6) . . .
118(6) . . .
134(6) . . .
124(6) . . .
124(6) . . .
108(5) . . .
109(6) . . .
111(6) . . .
116(6) . . .
99(5) . . .
116(6) . . .
116(6) . . .
119(6) . . .
105(6) . . .
116(6) . . .
113(6) . . .
103(5) . . .
106(6) . . .
110(6) . . .
117(6) . . .
109(6) . . .
118(6) . . .
117(6) . . .
110(6) . . .
121(6) . . .
126(6) . . .
122(6) . . .
128(6) . . .
113(6) . . .
102(5) . . .
106(5) . . .
125(6) . . .
114(6) . . .
118(6) . . .
105(5) . . .
115(6) . . .
118(6) . . .
120(6) . . .
115(6) . . .
99(5) . . .
121(6) . . .
96(5) . . .
108(6) . . .
104(5) . . .
123(6) . . .
106(5) . . .
115(6) . . .
104(5) . . .
120(6) . . .
94(5) . . .
105(6) . . .
111(6) . . .
109(6) . . .
99(5) . . .
112(5) . . .
121(6) . . .
109(6) . . .
116(6) . . .
121(6) . . .
120(6) . . .
117(6) . . .
102(6) . . .
114(6) . . .
120(6) . . .
114(6) . . .
104(6) . . .
123(6) . . .
112(6) . . .
116(6) . . .
104(5) . . .
109(6) . . .
106(6) . . .
113(6) . . .
102(5) . . .
104(5) . . .
105(6) . . .
107(5) . . .
107(6) . . .
122(6) . . .
117(6) . . .
114(6) . . .
115(6) . . .
108(6) . . .
104(5) . . .
113(6) . . .
103(6) . . .
115(6) . . .
115(6) . . .
105(5) . . .
119(6) . . .
117(6) . . .
129(6) . . .
113(6) . . .
119(6) . . .
108(6) . . .
102(6) . . .
109(6) . . .
108(6) . . .
117(6) . . .
121(6) . . .
116(6) . . .
124(6) . . .
120(6) . . .
125(6) . . .
113(6) . . .
113(6) . . .
123(6) . . .
103(5) . . .
118(6) . . .
109(5) . . .
112(6) . . .
112(6) . . .
113(6) . . .
117(6) . . .
112(6) . . .
107(6) . . .
104(5) . . .
104(5) . . .
114(6) . . .
110(6) . . .
110(6) . . .
118(6) . . .
105(5) . . .
121(6) . . .
112(6) . . .
116(6) . . .
123(6) . . .
102(5) . . .
105(5) . . .
107(6) . . .
112(6) . . .
126(6) . . .
114(6) . . .
124(6) . . .
106(5) . . .
122(6) . . .
107(6) . . .
109(5) . . .
103(5) . . .
108(6) . . .
119(6) . . .
109(6) . . .
126(6) . . .
134(6) . . .
117(6) . . .
119(6) . . .
110(6) . . .
122(6) . . .
111(6) . . .
108(6) . . .
104(5) . . .
114(6) . . .
119(6) . . .
99(5) . . .
92(5) . . .
118(6) . . .
103(5) . . .
97(5) . . .
110(6) . . .
111(6) . . .
113(6) . . .
114(6) . . .
114(6) . . .
111(6) . . .
118(6) . . .
96(5) . . .
107(5) . . .
104(5) . . .
129(6) . . .
128(6) . . .
99(5) . . .
114(6) . . .
108(5) . . .
123(6) . . .
118(6) . . .
110(6) . . .
107(5) . . .
129(6) . . .
113(6) . . .
109(6) . . .
111(6) . . .
125(6) . . .
124(6) . . .
115(6) . . .
101(5) . . .
126(6) . . .
112(5) . . .
106(5) . . .
97(5) . . .
105(6) . . .
108(6) . . .
110(5) . . .
107(6) . . .
109(6) . . .
115(6) . . .
115(6) . . .
113(5) . . .
128(6) . . .
116(6) . . .
111(6) . . .
98(5) . . .
114(6) . . .
126(6) . . .
122(6) . . .
105(5) . . .
91(5) . . .
119(6) . . .
116(6) . . .
113(6) . . .
131(6) . . .
121(6) . . .
98(5) . . .
103(5) . . .
115(6) . . .
110(6) . . .
115(6) . . .
98(5) . . .
114(6) . . .
116(6) . . .
120(6) . . .
117(6) . . .
109(6) . . .
102(6) . . .
109(6) . . .
121(6) . . .
107(5) . . .
115(6) . . .
115(6) . . .
96(5) . . .
118(6) . . .
126(6) . . .
112(6) . . .
103(5) . . .
104(5) . . .
113(6) . . .
113(5) . . .
107(5) . . .
107(6) . . .
103(5) . . .
110(6) . . .
116(6) . . .
119(6) . . .
114(6) . . .
108(6) . . .
117(6) . . .
115(6) . . .
119(6) . . .
111(6) . . .
117(6) . . .
101(5) . . .
115(6) . . .
122(6) . . .
101(5) . . .
105(5) . . .
89(5) . . .
110(5) . . .
111(6) . . .
104(6) . . .
111(6) . . .
100(5) . . .
107(5) . . .
103(5) . . .
104(6) . . .
100(5) . . .
98(5) . . .
112(6) . . .
141(7) . . .
99(5) . . .
95(5) . . .
99(5) . . .
103(5) . . .
113(6) . . .
121(6) . . .
118(6) . . .
109(5) . . .
97(5) . . .
113(6) . . .
118(6) . . .
104(5) . . .
93(5) . . .
101(5) . . .
102(5) . . .
99(5) . . .
103(5) . . .
104(5) . . .
103(5) . . .
98(5) . . .
101(5) . . .
117(6) . . .
104(5) . . .
114(6) . . .
122(6) . . .
111(6) . . .
108(5) . . .
113(6) . . .
104(6) . . .
113(6) . . .
117(6) . . .
107(5) . . .
115(6) . . .
115(6) . . .
103(6) . . .
113(6) . . .
117(6) . . .
125(6) . . .
122(6) . . .
109(6) . . .
99(5) . . .
88(5) . . .
108(5) . . .
109(6) . . .
108(6) . . .
111(6) . . .
109(5) . . .
110(6) . . .
101(5) . . .
112(6) . . .
109(5) . . .
103(5) . . .
98(5) . . .
114(6) . . .
110(6) . . .
111(6) . . .
100(5) . . .
112(6) . . .
111(6) . . .
114(6) . . .
117(6) . . .
118(6) . . .
102(5) . . .
121(6) . . .
118(6) . . .
122(6) . . .
101(5) . . .
116(6) . . .
116(6) . . .
112(5) . . .
126(6) . . .
121(6) . . .
110(6) . . .
100(5) . . .
98(5) . . .
100(5) . . .
101(5) . . .
113(6) . . .
96(5) . . .
98(5) . . .
97(5) . . .
115(6) . . .
111(6) . . .
113(6) . . .
121(6) . . .
117(6) . . .
111(5) . . .
113(6) . . .
97(5) . . .
107(5) . . .
103(5) . . .
96(5) . . .
109(6) . . .
107(6) . . .
120(6) . . .
118(6) . . .
116(6) . . .
125(6) . . .
121(6) . . .
99(5) . . .
114(6) . . .
121(6) . . .
113(6) . . .
105(6) . . .
124(6) . . .
114(6) . . .
94(5) . . .
101(6) . . .
105(6) . . .
103(5) . . .
113(6) . . .
117(6) . . .
124(6) . . .
114(6) . . .
101(5) . . .
107(5) . . .
111(6) . . .
99(5) . . .
95(5) . . .
109(5) . . .
105(5) . . .
111(6) . . .
104(6) . . .
115(6) . . .
104(5) . . .
108(5) . . .
103(6) . . .
110(6) . . .
112(6) . . .
96(5) . . .
103(5) . . .
97(5) . . .
105(6) . . .
110(6) . . .
116(6) . . .
108(5) . . .
120(6) . . .
112(6) . . .
106(5) . . .
105(5) . . .
107(5) . . .
122(6) . . .
108(6) . . .
103(5) . . .
105(5) . . .
108(5) . . .
102(5) . . .
119(6) . . .
106(5) . . .
106(5) . . .
121(6) . . .
106(6) . . .
112(6) . . .
103(5) . . .
108(5) . . .
98(5) . . .
109(6) . . .
99(6) . . .
95(5) . . .
104(5) . . .
110(6) . . .
119(6) . . .
118(6) . . .
101(6) . . .
117(6) . . .
116(6) . . .
104(5) . . .
113(6) . . .
107(5) . . .
102(5) . . .
90(5) . . .
109(5) . . .
114(6) . . .
111(6) . . .
104(5) . . .
122(6) . . .
109(6) . . .
116(6) . . .
123(6) . . .
102(5) . . .
113(6) . . .
102(5) . . .
113(6) . . .
116(6) . . .
96(5) . . .
121(6) . . .
114(6) . . .
108(6) . . .
106(5) . . .
106(5) . . .
109(6) . . .
102(6) . . .
96(5) . . .
108(6) . . .
118(6) . . .
123(6) . . .
132(6) . . .
107(6) . . .
93(5) . . .
99(5) . . .
102(5) . . .
103(6) . . .
113(6) . . .
105(5) . . .
96(5) . . .
116(6) . . .
112(6) . . .
107(6) . . .
90(5) . . .
96(5) . . .
118(6) . . .
110(6) . . .
107(6) . . .
109(5) . . .
104(6) . . .
116(6) . . .
95(5) . . .
104(6) . . .
108(5) . . .
110(5) . . .
111(6) . . .
110(6) . . .
106(5) . . .
113(6) . . .
109(5) . . .
124(6) . . .
105(5) . . .
105(5) . . .
121(6) . . .
107(6) . . .
99(5) . . .
100(5) . . .
109(6) . . .
102(5) . . .
108(6) . . .
98(5) . . .
103(5) . . .
108(6) . . .
108(5) . . .
100(5) . . .
108(6) . . .
101(5) . . .
111(6) . . .
112(6) . . .
99(5) . . .
99(6) . . .
107(6) . . .
120(6) . . .
121(6) . . .
106(5) . . .
108(6) . . .
96(5) . . .
94(5) . . .
114(6) . . .
99(5) . . .
106(6) . . .
115(6) . . .
119(6) . . .
113(6) . . .
108(6) . . .
110(6) . . .
100(5) . . .
104(5) . . .
103(5) . . .
96(5) . . .
101(5) . . .
103(5) . . .
115(6) . . .
110(6) . . .
105(5) . . .
113(6) . . .
106(6) . . .
111(5) . . .
104(6) . . .
109(6) . . .
113(6) . . .
104(5) . . .
88(5) . . .
105(6) . . .
109(6) . . .
90(5) . . .
97(5) . . .
100(5) . . .
116(6) . . .
108(6) . . .
114(6) . . .
107(5) . . .
111(6) . . .
113(6) . . .
97(5) . . .
104(5) . . .
112(5) . . .
117(6) . . .
104(5) . . .
115(6) . . .
104(5) . . .
99(5) . . .
107(5) . . .
108(6) . . .
119(6) . . .
123(6) . . .
93(5) . . .
107(6) . . .
94(5) . . .
106(6) . . .
117(6) . . .
118(6) . . .
98(5) . . .
102(5) . . .
102(5) . . .
114(6) . . .
105(5) . . .
109(5) . . .
96(5) . . .
103(6) . . .
106(6) . . .
109(5) . . .
119(6) . . .
113(6) . . .
107(6) . . .
110(6) . . .
117(6) . . .
98(5) . . .
98(5) . . .
120(6) . . .
112(6) . . .
109(5) . . .
102(5) . . .
96(5) . . .
106(6) . . .
112(6) . . .
122(6) . . .
105(6) . . .
96(5) . . .
105(6) . . .
100(5) . . .
102(5) . . .
122(6) . . .
122(6) . . .
99(5) . . .
112(6) . . .
116(6) . . .
110(6) . . .
96(5) . . .
89(5) . . .
104(5) . . .
109(5) . . .
118(6) . . .
123(6) . . .
119(6) . . .
115(6) . . .
116(6) . . .
107(5) . . .
111(6) . . .
96(5) . . .
112(5) . . .
114(6) . . .
111(6) . . .
99(5) . . .
104(6) . . .
107(5) . . .
100(5) . . .
99(5) . . .
117(6) . . .
98(5) . . .
105(5) . . .
102(5) . . .
116(6) . . .
100(5) . . .
104(6) . . .
102(5) . . .
95(5) . . .
93(5) . . .
97(5) . . .
114(6) . . .
110(5) . . .
101(5) . . .
101(5) . . .
117(6) . . .
115(6) . . .
113(6) . . .
116(6) . . .
105(6) . . .
116(6) . . .
126(6) . . .
108(5) . . .
106(5) . . .
97(5) . . .
110(6) . . .
120(6) . . .
97(5) . . .
88(5) . . .
102(6) . . .
109(6) . . .
116(6) . . .
114(6) . . .
106(5) . . .
106(6) . . .
100(5) . . .
105(5) . . .
107(5) . . .
99(5) . . .
95(5) . . .
103(6) . . .
108(5) . . .
113(5) . . .
107(6) . . .
110(6) . . .
116(6) . . .
91(5) . . .
113(6) . . .
103(6) . . .
108(6) . . .
103(5) . . .
115(6) . . .
108(5) . . .
114(6) . . .
111(6) . . .
110(6) . . .
112(5) . . .
110(5) . . .
103(5) . . .
115(6) . . .
112(6) . . .
109(5) . . .
98(5) . . .
94(5) . . .
115(6) . . .
104(5) . . .
99(5) . . .
102(6) . . .
104(6) . . .
103(6) . . .
101(5) . . .
111(5) . . .
93(5) . . .
111(6) . . .
96(5) . . .
132(6) . . .
118(6) . . .
122(6) . . .
116(6) . . .
103(5) . . .
117(6) . . .
101(5) . . .
91(5) . . .
105(6) . . .
92(5) . . .
99(5) . . .
108(5) . . .
87(5) . . .
107(6) . . .
100(6) . . .
92(5) . . .
115(6) . . .
105(5) . . .
90(5) . . .
99(5) . . .
106(5) . . .
101(5) . . .
102(5) . . .
97(5) . . .
108(6) . . .
109(5) . . .
98(5) . . .
117(6) . . .
94(5) . . .
102(6) . . .
91(5) . . .
96(5) . . .
100(5) . . .
115(6) . . .
101(5) . . .
98(5) . . .
101(5) . . .
99(6) . . .
96(5) . . .
104(5) . . .
104(5) . . .
110(6) . . .
94(5) . . .
98(5) . . .
123(6) . . .
109(5) . . .
119(6) . . .
116(6) . . .
101(5) . . .
108(6) . . .
105(5) . . .
114(6) . . .
100(5) . . .
103(5) . . .
107(5) . . .
104(5) . . .
103(6) . . .
117(6) . . .
105(6) . . .
104(5) . . .
92(5) . . .
111(6) . . .
125(7) . . .
106(6) . . .
108(5) . . .
102(5) . . .
107(5) . . .
96(5) . . .
110(6) . . .
115(6) . . .
116(6) . . .
110(6) . . .
94(5) . . .
98(5) . . .
107(5) . . .
111(6) . . .
99(5) . . .
104(6) . . .
104(6) . . .
106(5) . . .
102(5) . . .
119(6) . . .
101(5) . . .
103(6) . . .
108(5) . . .
97(5) . . .
116(6) . . .
112(6) . . .
111(6) . . .
106(5) . . .
116(6) . . .
111(6) . . .
124(6) . . .
105(5) . . .
117(6) . . .
105(5) . . .
113(6) . . .
106(6) . . .
115(6) . . .
98(5) . . .
94(5) . . .
99(6) . . .
90(5) . . .
90(5) . . .
103(5) . . .
111(6) . . .
108(6) . . .
107(6) . . .
100(5) . . .
102(5) . . .
107(6) . . .
105(6) . . .
96(5) . . .
117(6) . . .
109(5) . . .
111(6) . . .
99(5) . . .
108(6) . . .
112(6) . . .
113(6) . . .
112(6) . . .
97(5) . . .
97(5) . . .
120(6) . . .
92(5) . . .
99(5) . . .
114(6) . . .
106(6) . . .
116(6) . . .
106(6) . . .
98(5) . . .
100(6) . . .
112(6) . . .
114(6) . . .
110(6) . . .
99(5) . . .
100(5) . . .
100(5) . . .
101(5) . . .
105(5) . . .
119(6) . . .
116(6) . . .
108(6) . . .
103(5) . . .
99(5) . . .
110(6) . . .
106(6) . . .
98(5) . . .
94(5) . . .
107(6) . . .
114(6) . . .
107(6) . . .
106(6) . . .
111(5) . . .
111(6) . . .
105(6) . . .
96(5) . . .
114(6) . . .
112(5) . . .
102(5) . . .
104(6) . . .
111(6) . . .
107(5) . . .
96(5) . . .
121(6) . . .
122(6) . . .
112(6) . . .
111(5) . . .
115(6) . . .
102(5) . . .
99(5) . . .
93(5) . . .
104(5) . . .
106(5) . . .
117(6) . . .
98(5) . . .
106(6) . . .
103(5) . . .
110(6) . . .
102(6) . . .
99(5) . . .
101(5) . . .
102(5) . . .
93(5) . . .
93(5) . . .
102(5) . . .
100(5) . . .
117(6) . . .
102(5) . . .
105(5) . . .
101(5) . . .
109(5) . . .
101(5) . . .
101(5) . . .
109(6) . . .
103(6) . . .
103(5) . . .
99(5) . . .
110(6) . . .
106(6) . . .
102(5) . . .
95(5) . . .
105(5) . . .
111(6) . . .
108(6) . . .
108(5) . . .
113(6) . . .
107(5) . . .
102(5) . . .
100(5) . . .
117(6) . . .
118(6) . . .
99(5) . . .
108(6) . . .
113(6) . . .
96(5) . . .
113(6) . . .
106(5) . . .
106(6) . . .
106(6) . . .
113(6) . . .
109(5) . . .
105(5) . . .
106(6) . . .
103(6) . . .
99(5) . . .
112(5) . . .
95(5) . . .
102(5) . . .
101(5) . . .
110(6) . . .
105(5) . . .
104(6) . . .
100(5) . . .
123(6) . . .
97(5) . . .
89(5) . . .
103(5) . . .
94(5) . . .
107(6) . . .
113(6) . . .
101(5) . . .
93(5) . . .
101(5) . . .
83(5) . . .
91(5) . . .
97(5) . . .
107(6) . . .
103(6) . . .
122(6) . . .
98(5) . . .
93(5) . . .
102(5) . . .
104(6) . . .
107(5) . . .
108(5) . . .
115(6) . . .
106(6) . . .
99(6) . . .
96(5) . . .
104(5) . . .
113(5) . . .
103(6) . . .
93(5) . . .
95(5) . . .
99(5) . . .
97(5) . . .
99(5) . . .
95(5) . . .
110(6) . . .
89(5) . . .
108(5) . . .
100(5) . . .
103(5) . . .
104(6) . . .
96(5) . . .
104(5) . . .
100(5) . . .
108(6) . . .
110(6) . . .
103(5) . . .
106(5) . . .
104(6) . . .
93(5) . . .
105(5) . . .
103(5) . . .
104(5) . . .
111(6) . . .
100(5) . . .
94(5) . . .
119(6) . . .
112(6) . . .
119(6) . . .
101(6) . . .
97(5) . . .
115(6) . . .
89(5) . . .
101(6) . . .
96(5) . . .
112(5) . . .
94(5) . . .
114(6) . . .
108(6) . . .
125(6) . . .
107(5) . . .
98(5) . . .
105(5) . . .
80(5) . . .
102(6) . . .
104(5) . . .
93(5) . . .
97(5) . . .
107(6) . . .
94(5) . . .
107(5) . . .
100(5) . . .
94(5) . . .
91(5) . . .
100(6) . . .
90(5) . . .
99(5) . . .
107(6) . . .
114(6) . . .
97(5) . . .
110(5) . . .
104(5) . . .
102(5) . . .
97(5) . . .
127(6) . . .
115(6) . . .
93(5) . . .
95(5) . . .
105(6) . . .
82(5) . . .
105(5) . . .
105(5) . . .
115(6) . . .
104(6) . . .
108(5) . . .
106(5) . . .
106(6) . . .
94(5) . . .
101(5) . . .
93(5) . . .
92(5) . . .
109(6) . . .
99(5) . . .
100(5) . . .
109(5) . . .
102(5) . . .
110(6) . . .
104(6) . . .
101(5) . . .
92(5) . . .
89(5) . . .
97(5) . . .
114(6) . . .
107(5) . . .
94(5) . . .
102(5) . . .
96(5) . . .
102(6) . . .
108(6) . . .
99(5) . . .
111(6) . . .
113(6) . . .
92(5) . . .
102(6) . . .
94(5) . . .
108(6) . . .
99(5) . . .
108(6) . . .
120(6) . . .
103(5) . . .
87(5) . . .
111(6) . . .
100(6) . . .
94(5) . . .
100(5) . . .
110(5) . . .
98(5) . . .
96(5) . . .
104(6) . . .
92(5) . . .
100(5) . . .
107(6) . . .
95(5) . . .
104(5) . . .
100(5) . . .
107(6) . . .
88(5) . . .
111(6) . . .
94(5) . . .
90(5) . . .
103(6) . . .
91(5) . . .
113(6) . . .
109(5) . . .
105(5) . . .
100(6) . . .
106(6) . . .
106(6) . . .
103(5) . . .
101(5) . . .
111(6) . . .
112(6) . . .
101(5) . . .
93(5) . . .
87(5) . . .
87(5) . . .
109(6) . . .
99(5) . . .
95(5) . . .
94(5) . . .
106(5) . . .
107(6) . . .
108(5) . . .
116(6) . . .
107(5) . . .
109(6) . . .
111(6) . . .
112(6) . . .
115(6) . . .
119(6) . . .
104(5) . . .
106(6) . . .
108(6) . . .
89(5) . . .
106(5) . . .
109(6) . . .
104(6) . . .
98(5) . . .
103(5) . . .
115(6) . . .
108(5) . . .
105(5) . . .
111(6) . . .
102(5) . . .
100(5) . . .
99(5) . . .
98(5) . . .
106(5) . . .
111(6) . . .
101(5) . . .
97(5) . . .
104(5) . . .
100(5) . . .
102(5) . . .
89(5) . . .
103(5) . . .
104(5) . . .
114(6) . . .
106(5) . . .
104(6) . . .
99(5) . . .
104(6) . . .
95(5) . . .
102(5) . . .
111(6) . . .
114(6) . . .
111(6) . . .
101(5) . . .
98(5) . . .
104(5) . . .
97(6) . . .
102(5) . . .
89(5) . . .
97(5) . . .
109(6) . . .
102(5) . . .
122(6) . . .
98(5) . . .
111(6) . . .
90(5) . . .
104(6) . . .
94(5) . . .
98(5) . . .
87(5) . . .
89(5) . . .
97(5) . . .
101(5) . . .
103(5) . . .
95(5) . . .
102(6) . . .
100(5) . . .
99(5) . . .
105(5) . . .
93(5) . . .
99(5) . . .
100(6) . . .
108(5) . . .
108(5) . . .
108(6) . . .
105(6) . . .
97(5) . . .
103(5) . . .
92(5) . . .
87(5) . . .
92(5) . . .
93(5) . . .
93(5) . . .
105(5) . . .
95(5) . . .
93(5) . . .
97(5) . . .
95(5) . . .
106(5) . . .
101(5) . . .
91(5) . . .
96(5) . . .
100(5) . . .
103(5) . . .
97(5) . . .
96(5) . . .
89(5) . . .
97(5) . . .
96(5) . . .
89(5) . . .
93(5) . . .
96(5) . . .
105(5) . . .
106(5) . . .
93(5) . . .
108(6) . . .
99(5) . . .
104(5) . . .
105(5) . . .
103(5) . . .
113(6) . . .
99(5) . . .
106(5) . . .
102(5) . . .
113(6) . . .
86(5) . . .
98(6) . . .
124(6) . . .
97(5) . . .
85(5) . . .
96(5) . . .
98(5) . . .
105(5) . . .
96(5) . . .
91(5) . . .
106(6) . . .
91(5) . . .
85(5) . . .
99(5) . . .
95(5) . . .
101(5) . . .
85(5) . . .
83(5) . . .
85(5) . . .
86(5) . . .
98(5) . . .
106(5) . . .
89(5) . . .
99(5) . . .
105(6) . . .
115(6) . . .
106(5) . . .
115(6) . . .
92(5) . . .
102(6) . . .
85(5) . . .
98(5) . . .
103(5) . . .
97(5) . . .
89(5) . . .
100(5) . . .
102(5) . . .
109(6) . . .
97(5) . . .
106(6) . . .
96(5) . . .
97(5) . . .
97(5) . . .
108(6) . . .
106(6) . . .
96(5) . . .
99(5) . . .
105(5) . . .
99(5) . . .
89(5) . . .
94(5) . . .
99(5) . . .
101(5) . . .
105(6) . . .
110(6) . . .
98(5) . . .
103(5) . . .
93(5) . . .
99(5) . . .
97(5) . . .
100(5) . . .
91(5) . . .
94(5) . . .
82(5) . . .
99(5) . . .
103(5) . . .
101(5) . . .
87(5) . . .
97(5) . . .
84(5) . . .
97(5) . . .
103(5) . . .
108(6) . . .
116(6) . . .
104(5) . . .
109(6) . . .
107(5) . . .
92(5) . . .
115(6) . . .
101(6) . . .
104(5) . . .
101(5) . . .
104(5) . . .
103(5) . . .
103(5) . . .
103(5) . . .
99(5) . . .
89(5) . . .
108(6) . . .
99(5) . . .
87(5) . . .
92(5) . . .
95(5) . . .
109(6) . . .
89(5) . . .
95(5) . . .
90(5) . . .
87(5) . . .
88(5) . . .
99(5) . . .
97(5) . . .
100(5) . . .
100(5) . . .
108(6) . . .
92(5) . . .
87(5) . . .
101(6) . . .
104(6) . . .
116(6) . . .
102(5) . . .
103(5) . . .
104(6) . . .
104(5) . . .
112(6) . . .
94(5) . . .
97(5) . . .
100(5) . . .
96(5) . . .
80(5) . . .
103(5) . . .
104(5) . . .
95(5) . . .
83(5) . . .
109(6) . . .
101(5) . . .
100(5) . . .
96(5) . . .
95(6) . . .
103(5) . . .
115(6) . . .
103(5) . . .
105(5) . . .
105(6) . . .
105(5) . . .
110(5) . . .
102(5) . . .
106(6) . . .
112(6) . . .
103(5) . . .
95(5) . . .
98(5) . . .
89(5) . . .
107(6) . . .
100(5) . . .
99(5) . . .
110(6) . . .
111(6) . . .
92(5) . . .
97(5) . . .
92(5) . . .
89(5) . . .
99(5) . . .
95(5) . . .
99(5) . . .
108(5) . . .
105(5) . . .
89(5) . . .
99(5) . . .
103(5) . . .
101(5) . . .
104(6) . . .
103(6) . . .
104(5) . . .
96(5) . . .
96(5) . . .
107(6) . . .
109(6) . . .
92(5) . . .
93(5) . . .
102(5) . . .
106(6) . . .
107(6) . . .
101(5) . . .
96(5) . . .
104(5) . . .
100(5) . . .
101(6) . . .
92(5) . . .
93(5) . . .
103(5) . . .
105(5) . . .
99(6) . . .
84(5) . . .
105(5) . . .
100(5) . . .
107(5) . . .
105(6) . . .
104(6) . . .
95(5) . . .
106(5) . . .
105(6) . . .
99(6) . . .
96(5) . . .
96(5) . . .
95(5) . . .
103(6) . . .
103(5) . . .
116(6) . . .
97(5) . . .
92(5) . . .
98(5) . . .
92(5) . . .
100(6) . . .
94(5) . . .
101(5) . . .
87(5) . . .
91(5) . . .
110(6) . . .
94(5) . . .
106(6) . . .
97(5) . . .
101(5) . . .
110(6) . . .
98(5) . . .
102(5) . . .
101(5) . . .
104(6) . . .
104(5) . . .
104(5) . . .
107(6) . . .
104(5) . . .
102(5) . . .
100(5) . . .
116(6) . . .
93(5) . . .
104(6) . . .
107(5) . . .
101(5) . . .
95(5) . . .
99(5) . . .
98(6) . . .
87(5) . . .
96(5) . . .
100(5) . . .
96(5) . . .
102(5) . . .
89(5) . . .
90(5) . . .
117(6) . . .
97(5) . . .
96(5) . . .
101(5) . . .
99(5) . . .
115(6) . . .
94(5) . . .
93(5) . . .
103(6) . . .
93(5) . . .
86(5) . . .
100(6) . . .
94(5) . . .
95(5) . . .
87(5) . . .
93(5) . . .
96(5) . . .
105(6) . . .
103(5) . . .
108(5) . . .
107(5) . . .
100(5) . . .
104(6) . . .
90(5) . . .
103(5) . . .
113(6) . . .
96(5) . . .
100(6) . . .
88(5) . . .
96(5) . . .
101(5) . . .
101(6) . . .
97(5) . . .
107(5) . . .
123(6) . . .
98(5) . . .
97(5) . . .
101(5) . . .
97(5) . . .
93(5) . . .
95(5) . . .
121(6) . . .
86(5) . . .
91(5) . . .
105(5) . . .
95(5) . . .
93(5) . . .
86(5) . . .
104(5) . . .
98(5) . . .
87(5) . . .
92(5) . . .
104(5) . . .
97(5) . . .
110(5) . . .
112(6) . . .
83(5) . . .
101(5) . . .
109(5) . . .
99(5) . . .
83(5) . . .
95(5) . . .
97(5) . . .
86(5) . . .
115(6) . . .
85(5) . . .
99(6) . . .
100(5) . . .
97(5) . . .
103(5) . . .
101(5) . . .
99(5) . . .
81(5) . . .
105(5) . . .
97(5) . . .
111(6) . . .
105(5) . . .
93(5) . . .
87(5) . . .
84(5) . . .
102(6) . . .
105(6) . . .
104(5) . . .
92(5) . . .
99(5) . . .
85(5) . . .
96(5) . . .
106(5) . . .
103(5) . . .
90(5) . . .
88(5) . . .
103(5) . . .
104(5) . . .
100(5) . . .
95(5) . . .
91(5) . . .
89(5) . . .
98(5) . . .
105(5) . . .
99(5) . . .
89(5) . . .
100(5) . . .
94(5) . . .
105(5) . . .
87(5) . . .
87(5) . . .
97(5) . . .
101(5) . . .
101(5) . . .
83(5) . . .
83(5) . . .
88(5) . . .
96(5) . . .
85(5) . . .
100(5) . . .
110(6) . . .
104(5) . . .
88(5) . . .
99(5) . . .
98(6) . . .
95(5) . . .
109(6) . . .
117(6) . . .
86(5) . . .
82(5) . . .
94(5) . . .
95(5) . . .
84(5) . . .
95(5) . . .
106(6) . . .
89(5) . . .
92(5) . . .
103(5) . . .
111(6) . . .
93(5) . . .
97(5) . . .
96(5) . . .
89(5) . . .
81(5) . . .
109(6) . . .
86(5) . . .
92(5) . . .
97(5) . . .
92(5) . . .
90(5) . . .
90(5) . . .
90(5) . . .
91(5) . . .
88(5) . . .
75(5) . . .
105(6) . . .
92(5) . . .
83(5) . . .
94(5) . . .
93(5) . . .
93(5) . . .
101(5) . . .
85(5) . . .
89(5) . . .
102(5) . . .
110(6) . . .
108(5) . . .
105(5) . . .
103(6) . . .
98(5) . . .
92(5) . . .
106(5) . . .
97(5) . . .
93(5) . . .
103(5) . . .
94(5) . . .
99(5) . . .
100(5) . . .
109(6) . . .
96(5) . . .
82(5) . . .
102(5) . . .
106(6) . . .
97(6) . . .
88(5) . . .
103(5) . . .
95(5) . . .
100(6) . . .
89(5) . . .
96(5) . . .
96(5) . . .
104(5) . . .
93(5) . . .
95(5) . . .
116(6) . . .
91(5) . . .
97(5) . . .
91(5) . . .
91(5) . . .
95(5) . . .
93(5) . . .
102(5) . . .
97(5) . . .
88(5) . . .
88(5) . . .
97(5) . . .
110(5) . . .
98(5) . . .
93(5) . . .
107(6) . . .
97(5) . . .
106(6) . . .
85(5) . . .
98(5) . . .
92(5) . . .
92(5) . . .
83(5) . . .
80(5) . . .
101(6) . . .
104(5) . . .
100(5) . . .
92(5) . . .
99(5) . . .
99(5) . . .
90(5) . . .
102(5) . . .
84(5) . . .
94(5) . . .
90(5) . . .
86(5) . . .
94(5) . . .
95(5) . . .
100(5) . . .
108(6) . . .
91(5) . . .
100(5) . . .
97(5) . . .
85(5) . . .
107(6) . . .
89(5) . . .
99(5) . . .
104(5) . . .
86(5) . . .
90(5) . . .
103(5) . . .
108(5) . . .
100(5) . . .
117(6) . . .
100(5) . . .
100(5) . . .
98(5) . . .
93(5) . . .
91(5) . . .
85(5) . . .
95(5) . . .
104(5) . . .
113(6) . . .
107(6) . . .
117(6) . . .
94(5) . . .
99(5) . . .
97(5) . . .
104(6) . . .
95(5) . . .
101(5) . . .
90(5) . . .
89(5) . . .
91(5) . . .
100(5) . . .
78(5) . . .
97(5) . . .
99(5) . . .
91(5) . . .
93(5) . . .
106(5) . . .
95(5) . . .
103(6) . . .
97(5) . . .
94(5) . . .
107(5) . . .
103(5) . . .
91(5) . . .
89(5) . . .
93(5) . . .
100(5) . . .
97(5) . . .
95(6) . . .
93(5) . . .
101(5) . . .
92(5) . . .
97(5) . . .
86(5) . . .
84(5) . . .
90(5) . . .
104(5) . . .
93(5) . . .
80(5) . . .
99(6) . . .
98(5) . . .
110(5) . . .
96(5) . . .
98(6) . . .
90(5) . . .
103(5) . . .
117(6) . . .
107(5) . . .
98(5) . . .
96(5) . . .
90(5) . . .
87(5) . . .
89(5) . . .
97(6) . . .
97(5) . . .
98(5) . . .
93(5) . . .
91(5) . . .
94(5) . . .
91(5) . . .
91(5) . . .
100(5) . . .
93(5) . . .
103(6) . . .
84(5) . . .
91(5) . . .
107(5) . . .
99(5) . . .
98(5) . . .
85(5) . . .
96(5) . . .
101(5) . . .
100(6) . . .
91(5) . . .
94(5) . . .
72(4) . . .
86(5) . . .
104(6) . . .
96(5) . . .
101(5) . . .
91(5) . . .
106(5) . . .
78(5) . . .
95(5) . . .
92(5) . . .
93(5) . . .
95(5) . . .
78(5) . . .
94(5) . . .
104(5) . . .
95(5) . . .
89(5) . . .
91(5) . . .
93(5) . . .
89(5) . . .
84(5) . . .
97(5) . . .
92(5) . . .
85(5) . . .
102(5) . . .
100(5) . . .
100(5) . . .
83(5) . . .
94(5) . . .
87(5) . . .
88(5) . . .
94(5) . . .
114(6) . . .
109(6) . . .
82(5) . . .
100(5) . . .
95(5) . . .
98(5) . . .
80(5) . . .
101(5) . . .
112(6) . . .
95(5) . . .
97(5) . . .
102(5) . . .
106(5) . . .
88(5) . . .
94(5) . . .
97(5) . . .
104(5) . . .
92(5) . . .
98(5) . . .
94(5) . . .
86(5) . . .
98(5) . . .
107(5) . . .
91(5) . . .
85(5) . . .
98(5) . . .
88(5) . . .
101(5) . . .
76(5) . . .
91(5) . . .
95(5) . . .
108(5) . . .
100(5) . . .
95(5) . . .
102(6) . . .
102(5) . . .
99(5) . . .
90(5) . . .
98(5) . . .
98(6) . . .
88(5) . . .
89(5) . . .
88(5) . . .
89(5) . . .
89(5) . . .
100(5) . . .
95(5) . . .
101(5) . . .
89(5) . . .
98(5) . . .
110(6) . . .
99(5) . . .
92(5) . . .
90(5) . . .
97(5) . . .
90(5) . . .
92(5) . . .
97(5) . . .
117(6) . . .
101(5) . . .
88(5) . . .
75(4) . . .
81(5) . . .
105(6) . . .
96(5) . . .
92(5) . . .
96(5) . . .
90(5) . . .
88(5) . . .
90(5) . . .
90(5) . . .
84(5) . . .
94(5) . . .
91(5) . . .
98(5) . . .
94(5) . . .
101(5) . . .
109(6) . . .
94(5) . . .
92(5) . . .
98(5) . . .
93(5) . . .
88(5) . . .
87(5) . . .
95(5) . . .
88(5) . . .
96(5) . . .
93(5) . . .
95(6) . . .
96(5) . . .
97(5) . . .
109(6) . . .
94(5) . . .
105(6) . . .
88(5) . . .
81(5) . . .
91(5) . . .
109(6) . . .
88(5) . . .
101(5) . . .
98(5) . . .
97(5) . . .
94(5) . . .
93(5) . . .
89(5) . . .
87(5) . . .
90(5) . . .
84(5) . . .
96(5) . . .
104(6) . . .
102(5) . . .
87(5) . . .
91(5) . . .
109(6) . . .
102(5) . . .
88(5) . . .
86(5) . . .
104(6) . . .
96(5) . . .
92(5) . . .
99(5) . . .
99(5) . . .
107(6) . . .
94(5) . . .
102(5) . . .
90(5) . . .
97(5) . . .
79(5) . . .
88(5) . . .
91(5) . . .
96(5) . . .
92(5) . . .
97(5) . . .
102(5) . . .
101(5) . . .
94(5) . . .
105(6) . . .
98(5) . . .
105(5) . . .
98(5) . . .
95(5) . . .
90(5) . . .
81(5) . . .
106(6) . . .
88(5) . . .
84(5) . . .
84(5) . . .
95(5) . . .
106(5) . . .
91(5) . . .
89(5) . . .
90(5) . . .
99(6) . . .
94(5) . . .
88(5) . . .
98(5) . . .
93(5) . . .
100(5) . . .
88(5) . . .
85(5) . . .
89(5) . . .
91(5) . . .
93(5) . . .
97(5) . . .
93(5) . . .
86(5) . . .
89(5) . . .
89(5) . . .
91(5) . . .
93(5) . . .
94(5) . . .
105(6) . . .
105(5) . . .
93(5) . . .
86(5) . . .
91(5) . . .
107(6) . . .
94(5) . . .
83(5) . . .
106(5) . . .
87(5) . . .
97(6) . . .
95(5) . . .
106(5) . . .
98(5) . . .
90(5) . . .
98(5) . . .
100(5) . . .
99(5) . . .
91(5) . . .
84(5) . . .
95(5) . . .
111(6) . . .
91(5) . . .
94(5) . . .
87(5) . . .
95(5) . . .
83(5) . . .
102(5) . . .
88(5) . . .
93(5) . . .
91(5) . . .
92(5) . . .
80(5) . . .
88(5) . . .
91(5) . . .
89(5) . . .
104(5) . . .
107(5) . . .
84(5) . . .
86(5) . . .
82(5) . . .
86(5) . . .
87(5) . . .
87(5) . . .
98(5) . . .
97(5) . . .
99(5) . . .
97(5) . . .
108(6) . . .
101(5) . . .
107(5) . . .
87(5) . . .
94(5) . . .
89(5) . . .
97(5) . . .
95(5) . . .
90(5) . . .
80(5) . . .
89(5) . . .
95(5) . . .
85(5) . . .
84(5) . . .
96(5) . . .
82(5) . . .
92(5) . . .
82(5) . . .
84(5) . . .
91(5) . . .
85(5) . . .
82(5) . . .
96(5) . . .
93(5) . . .
87(5) . . .
88(5) . . .
100(5) . . .
97(5) . . .
85(5) . . .
95(5) . . .
103(6) . . .
88(5) . . .
90(5) . . .
84(5) . . .
96(5) . . .
85(5) . . .
106(6) . . .
93(5) . . .
85(5) . . .
103(5) . . .
88(5) . . .
92(5) . . .
88(5) . . .
91(5) . . .
82(5) . . .
92(5) . . .
102(6) . . .
93(5) . . .
106(5) . . .
98(5) . . .
84(5) . . .
86(5) . . .
89(5) . . .
92(5) . . .
99(5) . . .
96(5) . . .
95(5) . . .
110(6) . . .
94(5) . . .
101(5) . . .
85(5) . . .
90(5) . . .
97(5) . . .
100(5) . . .
97(5) . . .
95(5) . . .
98(5) . . .
93(5) . . .
101(5) . . .
107(6) . . .
93(5) . . .
89(5) . . .
92(5) . . .
87(5) . . .
90(5) . . .
93(6) . . .
81(5) . . .
95(5) . . .
89(5) . . .
94(5) . . .
89(5) . . .
91(5) . . .
96(5) . . .
98(5) . . .
79(5) . . .
87(5) . . .
78(5) . . .
83(5) . . .
82(5) . . .
106(6) . . .
107(6) . . .
104(5) . . .
99(5) . . .
101(5) . . .
94(5) . . .
85(5) . . .
82(5) . . .
80(5) . . .
99(5) . . .
92(5) . . .
89(5) . . .
86(5) . . .
78(5) . . .
94(5) . . .
82(5) . . .
90(5) . . .
84(5) . . .
100(5) . . .
89(5) . . .
93(5) . . .
82(5) . . .
90(5) . . .
91(5) . . .
102(5) . . .
86(5) . . .
100(5) . . .
87(5) . . .
90(5) . . .
83(5) . . .
93(5) . . .
97(5) . . .
85(5) . . .
89(5) . . .
92(5) . . .
96(5) . . .
99(5) . . .
90(5) . . .
96(5) . . .
88(5) . . .
79(5) . . .
97(5) . . .
100(5) . . .
85(5) . . .
99(5) . . .
94(5) . . .
92(5) . . .
89(5) . . .
99(5) . . .
103(6) . . .
88(5) . . .
79(5) . . .
91(5) . . .
87(5) . . .
101(6) . . .
84(5) . . .
89(5) . . .
96(5) . . .
95(5) . . .
92(5) . . .
89(5) . . .
87(5) . . .
95(5) . . .
81(5) . . .
82(5) . . .
89(5) . . .
84(5) . . .
87(5) . . .
89(5) . . .
91(5) . . .
91(5) . . .
73(5) . . .
89(5) . . .
82(5) . . .
94(5) . . .
88(5) . . .
76(5) . . .
80(5) . . .
95(5) . . .
83(5) . . .
86(5) . . .
76(4) . . .
84(5) . . .
89(5) . . .
86(5) . . .
85(5) . . .
96(5) . . .
96(5) . . .
82(5) . . .
74(5) . . .
96(5) . . .
92(5) . . .
95(5) . . .
98(5) . . .
87(5) . . .
94(5) . . .
88(5) . . .
92(5) . . .
88(5) . . .
96(5) . . .
85(5) . . .
80(5) . . .
90(5) . . .
98(6) . . .
85(5) . . .
97(5) . . .
91(5) . . .
95(5) . . .
82(5) . . .
82(5) . . .
99(5) . . .
94(5) . . .
83(5) . . .
91(5) . . .
88(5) . . .
99(5) . . .
94(5) . . .
91(5) . . .
105(6) . . .
88(5) . . .
91(5) . . .
81(5) . . .
93(5) . . .
76(5) . . .
87(5) . . .
89(5) . . .
83(5) . . .
89(5) . . .
85(5) . . .
70(4) . . .
94(5) . . .
85(5) . . .
91(5) . . .
89(5) . . .
90(5) . . .
87(5) . . .
92(5) . . .
88(5) . . .
79(5) . . .
94(5) . . .
82(5) . . .
86(5) . . .
87(5) . . .
83(5) . . .
90(5) . . .
85(5) . . .
96(5) . . .
92(5) . . .
98(5) . . .
95(5) . . .
83(5) . . .
97(5) . . .
85(5) . . .
89(5) . . .
85(5) . . .
78(5) . . .
80(5) . . .
83(5) . . .
81(5) . . .
76(4) . . .
93(5) . . .
82(5) . . .
90(5) . . .
88(5) . . .
87(5) . . .
86(5) . . .
90(5) . . .
93(5) . . .
81(5) . . .
86(5) . . .
88(5) . . .
83(5) . . .
92(6) . . .
93(5) . . .
89(5) . . .
86(5) . . .
93(5) . . .
89(5) . . .
93(5) . . .
93(5) . . .
88(5) . . .
94(5) . . .
95(5) . . .
95(5) . . .
87(5) . . .
85(5) . . .
93(5) . . .
108(6) . . .
97(5) . . .
89(5) . . .
91(5) . . .
102(6) . . .
83(5) . . .
81(5) . . .
95(5) . . .
101(5) . . .
82(5) . . .
84(5) . . .
99(5) . . .
104(5) . . .
86(5) . . .
82(5) . . .
94(5) . . .
88(5) . . .
91(5) . . .
83(5) . . .
92(5) . . .
98(5) . . .
93(5) . . .
79(5) . . .
92(5) . . .
85(5) . . .
95(5) . . .
87(5) . . .
87(5) . . .
89(5) . . .
88(5) . . .
97(5) . . .
96(5) . . .
95(5) . . .
82(5) . . .
90(5) . . .
75(5) . . .
85(5) . . .
93(5) . . .
97(5) . . .
92(5) . . .
82(5) . . .
76(5) . . .
92(5) . . .
101(5) . . .
83(5) . . .
97(5) . . .
103(5) . . .
106(5) . . .
88(5) . . .
91(5) . . .
94(5) . . .
85(5) . . .
78(5) . . .
93(5) . . .
89(5) . . .
86(5) . . .
81(5) . . .
77(5) . . .
93(5) . . .
83(5) . . .
94(5) . . .
96(5) . . .
95(5) . . .
90(5) . . .
96(5) . . .
87(5) . . .
96(5) . . .
87(5) . . .
91(5) . . .
81(5) . . .
100(5) . . .
84(5) . . .
91(5) . . .
84(5) . . .
86(5) . . .
85(5) . . .
104(5) . . .
92(5) . . .
74(5) . . .
87(5) . . .
85(5) . . .
89(5) . . .
87(5) . . .
103(6) . . .
87(5) . . .
88(5) . . .
90(5) . . .
85(5) . . .
91(5) . . .
83(5) . . .
93(5) . . .
84(5) . . .
89(5) . . .
87(5) . . .
81(5) . . .
90(5) . . .
97(5) . . .
94(5) . . .
90(5) . . .
102(5) . . .
88(5) . . .
81(5) . . .
83(5) . . .
81(5) . . .
84(5) . . .
84(5) . . .
74(5) . . .
88(5) . . .
93(6) . . .
85(5) . . .
79(5) . . .
74(5) . . .
91(5) . . .
86(5) . . .
97(5) . . .
94(5) . . .
91(5) . . .
87(5) . . .
96(5) . . .
106(6) . . .
89(5) . . .
87(5) . . .
84(5) . . .
75(5) . . .
82(5) . . .
82(5) . . .
79(5) . . .
86(5) . . .
99(5) . . .
97(5) . . .
96(5) . . .
97(5) . . .
77(5) . . .
91(5) . . .
90(5) . . .
84(5) . . .
81(5) . . .
94(5) . . .
90(5) . . .
83(5) . . .
76(5) . . .
89(5) . . .
94(6) . . .
98(5) . . .
89(5) . . .
90(5) . . .
86(5) . . .
80(5) . . .
87(5) . . .
91(5) . . .
92(5) . . .
89(5) . . .
90(5) . . .
82(5) . . .
79(5) . . .
85(5) . . .
94(5) . . .
95(5) . . .
88(5) . . .
85(5) . . .
87(5) . . .
92(5) . . .
86(5) . . .
89(5) . . .
94(5) . . .
88(5) . . .
84(5) . . .
94(5) . . .
102(5) . . .
85(5) . . .
86(5) . . .
81(5) . . .
101(6) . . .
96(5) . . .
90(5) . . .
92(5) . . .
90(5) . . .
82(5) . . .
82(5) . . .
88(5) . . .
91(5) . . .
85(5) . . .
85(5) . . .
90(5) . . .
84(5) . . .
84(5) . . .
83(5) . . .
84(5) . . .
80(5) . . .
99(5) . . .
95(5) . . .
86(5) . . .
84(5) . . .
90(5) . . .
92(5) . . .
72(4) . . .
90(5) . . .
87(5) . . .
89(5) . . .
88(5) . . .
86(5) . . .
87(5) . . .
89(5) . . .
87(5) . . .
90(5) . . .
95(5) . . .
92(5) . . .
90(5) . . .
96(5) . . .
98(5) . . .
83(5) . . .
70(5) . . .
86(5) . . .
79(5) . . .
83(5) . . .
92(5) . . .
89(5) . . .
96(5) . . .
79(5) . . .
76(5) . . .
85(5) . . .
84(5) . . .
77(5) . . .
81(5) . . .
87(5) . . .
90(5) . . .
94(5) . . .
80(5) . . .
96(5) . . .
87(5) . . .
89(5) . . .
88(5) . . .
85(5) . . .
86(5) . . .
90(5) . . .
85(5) . . .
85(5) . . .
88(5) . . .
87(5) . . .
84(5) . . .
95(5) . . .
87(5) . . .
78(5) . . .
81(5) . . .
98(5) . . .
91(5) . . .
85(5) . . .
83(5) . . .
77(5) . . .
96(5) . . .
91(5) . . .
85(5) . . .
87(5) . . .
88(5) . . .
84(5) . . .
88(6) . . .
76(5) . . .
85(5) . . .
90(5) . . .
84(5) . . .
84(5) . . .
94(5) . . .
97(5) . . .
78(5) . . .
96(6) . . .
89(5) . . .
87(5) . . .
83(5) . . .
81(5) . . .
93(5) . . .
85(5) . . .
83(5) . . .
101(5) . . .
93(5) . . .
95(5) . . .
74(5) . . .
89(5) . . .
84(5) . . .
82(5) . . .
80(5) . . .
95(5) . . .
85(5) . . .
104(5) . . .
94(5) . . .
94(5) . . .
90(5) . . .
99(5) . . .
96(5) . . .
87(5) . . .
90(5) . . .
98(6) . . .
75(5) . . .
88(5) . . .
87(5) . . .
99(6) . . .
86(5) . . .
99(5) . . .
83(5) . . .
82(5) . . .
75(5) . . .
88(5) . . .
82(5) . . .
78(5) . . .
87(5) . . .
91(5) . . .
81(5) . . .
86(5) . . .
77(5) . . .
92(5) . . .
88(5) . . .
80(5) . . .
91(5) . . .
90(5) . . .
89(5) . . .
100(6) . . .
88(5) . . .
87(5) . . .
88(5) . . .
93(5) . . .
79(5) . . .
79(5) . . .
81(5) . . .
80(5) . . .
88(5) . . .
86(5) . . .
77(5) . . .
81(5) . . .
84(5) . . .
84(5) . . .
96(5) . . .
81(5) . . .
95(5) . . .
83(5) . . .
82(5) . . .
87(5) . . .
93(5) . . .
85(5) . . .
88(5) . . .
94(5) . . .
89(5) . . .
89(5) . . .
81(5) . . .
94(5) . . .
91(5) . . .
80(5) . . .
97(5) . . .
87(5) . . .
79(5) . . .
78(5) . . .
81(5) . . .
90(5) . . .
83(5) . . .
87(5) . . .
68(5) . . .
83(5) . . .
82(5) . . .
82(5) . . .
83(5) . . .
86(5) . . .
84(5) . . .
85(5) . . .
92(5) . . .
87(5) . . .
85(5) . . .
87(5) . . .
87(5) . . .
87(5) . . .
89(5) . . .
85(5) . . .
93(5) . . .
77(5) . . .
88(5) . . .
87(5) . . .
86(5) . . .
86(5) . . .
90(5) . . .
79(5) . . .
77(5) . . .
96(5) . . .
67(4) . . .
85(5) . . .
86(5) . . .
93(6) . . .
65(4) . . .
96(5) . . .
90(5) . . .
98(6) . . .
78(5) . . .
81(5) . . .
82(5) . . .
81(5) . . .
90(5) . . .
81(5) . . .
87(5) . . .
83(5) . . .
87(5) . . .
72(5) . . .
85(5) . . .
99(5) . . .
96(5) . . .
77(5) . . .
84(5) . . .
85(5) . . .
79(5) . . .
81(5) . . .
91(5) . . .
84(5) . . .
73(4) . . .
70(4) . . .
76(5) . . .
79(5) . . .
84(5) . . .
92(5) . . .
88(5) . . .
81(5) . . .
77(5) . . .
79(5) . . .
96(5) . . .
73(4) . . .
99(5) . . .
83(5) . . .
87(5) . . .
80(5) . . .
90(5) . . .
82(5) . . .
89(5) . . .
83(5) . . .
78(5) . . .
94(5) . . .
86(5) . . .
84(5) . . .
62(4) . . .
86(5) . . .
89(5) . . .
92(5) . . .
83(5) . . .
86(5) . . .
94(5) . . .
93(5) . . .
76(5) . . .
84(5) . . .
93(5) . . .
78(5) . . .
88(5) . . .
77(5) . . .
90(5) . . .
84(5) . . .
81(5) . . .
88(5) . . .
83(5) . . .
87(5) . . .
92(5) . . .
89(5) . . .
92(5) . . .
71(4) . . .
85(5) . . .
69(5) . . .
88(5) . . .
75(5) . . .
94(5) . . .
76(5) . . .
83(5) . . .
84(5) . . .
90(5) . . .
95(5) . . .
85(5) . . .
77(5) . . .
78(5) . . .
82(5) . . .
71(5) . . .
84(5) . . .
78(5) . . .
97(5) . . .
89(5) . . .
82(5) . . .
88(5) . . .
82(5) . . .
70(4) . . .
77(5) . . .
79(5) . . .
86(5) . . .
82(5) . . .
79(5) . . .
84(5) . . .
75(5) . . .
76(5) . . .
83(5) . . .
76(5) . . .
81(5) . . .
86(5) . . .
97(6) . . .
94(5) . . .
84(5) . . .
90(5) . . .
90(5) . . .
90(5) . . .
78(5) . . .
86(5) . . .
79(5) . . .
76(5) . . .
85(5) . . .
91(5) . . .
93(5) . . .
75(4) . . .
80(5) . . .
95(6) . . .
88(5) . . .
78(5) . . .
79(5) . . .
89(5) . . .
82(5) . . .
74(5) . . .
85(5) . . .
79(5) . . .
91(5) . . .
79(5) . . .
84(5) . . .
81(5) . . .
81(5) . . .
80(5) . . .
74(5) . . .
72(5) . . .
96(5) . . .
91(5) . . .
83(5) . . .
67(4) . . .
81(5) . . .
70(4) . . .
85(5) . . .
86(5) . . .
79(5) . . .
82(5) . . .
84(5) . . .
92(5) . . .
78(5) . . .
77(5) . . .
86(5) . . .
80(5) . . .
84(5) . . .
79(5) . . .
80(5) . . .
87(5) . . .
77(5) . . .
75(5) . . .
77(5) . . .
79(5) . . .
82(5) . . .
90(5) . . .
87(5) . . .
87(5) . . .
80(5) . . .
78(5) . . .
94(5) . . .
81(5) . . .
89(5) . . .
91(5) . . .
80(5) . . .
95(5) . . .
98(6) . . .
75(5) . . .
87(5) . . .
91(5) . . .
83(5) . . .
74(5) . . .
67(4) . . .
78(5) . . .
80(5) . . .
78(5) . . .
79(5) . . .
83(5) . . .
102(5) . . .
86(5) . . .
80(5) . . .
85(5) . . .
99(6) . . .
74(5) . . .
76(5) . . .
83(5) . . .
87(5) . . .
96(5) . . .
99(5) . . .
98(5) . . .
77(5) . . .
74(5) . . .
93(6) . . .
79(5) . . .
81(5) . . .
83(5) . . .
85(5) . . .
83(5) . . .
85(5) . . .
78(5) . . .
68(4) . . .
77(5) . . .
83(5) . . .
77(5) . . .
102(5) . . .
85(5) . . .
67(4) . . .
81(5) . . .
89(5) . . .
80(5) . . .
89(5) . . .
81(5) . . .
87(5) . . .
98(5) . . .
92(5) . . .
82(5) . . .
84(5) . . .
79(5) . . .
74(5) . . .
85(5) . . .
78(5) . . .
83(5) . . .
84(5) . . .
82(5) . . .
75(5) . . .
83(5) . . .
73(5) . . .
87(5) . . .
94(5) . . .
83(5) . . .
86(5) . . .
79(5) . . .
84(5) . . .
84(5) . . .
81(5) . . .
92(5) . . .
90(5) . . .
88(5) . . .
88(5) . . .
87(5) . . .
83(5) . . .
87(5) . . .
81(5) . . .
82(5) . . .
90(5) . . .
80(5) . . .
73(5) . . .
77(5) . . .
80(5) . . .
91(5) . . .
81(5) . . .
79(5) . . .
92(5) . . .
80(5) . . .
93(5) . . .
84(5) . . .
79(5) . . .
83(5) . . .
90(5) . . .
86(5) . . .
77(5) . . .
79(5) . . .
81(5) . . .
86(5) . . .
81(5) . . .
85(5) . . .
80(5) . . .
78(5) . . .
78(5) . . .
80(5) . . .
79(5) . . .
85(5) . . .
83(5) . . .
87(5) . . .
81(5) . . .
90(5) . . .
88(5) . . .
93(5) . . .
86(5) . . .
79(5) . . .
74(5) . . .
75(5) . . .
85(5) . . .
89(5) . . .
79(5) . . .
78(5) . . .
70(4) . . .
73(4) . . .
94(5) . . .
89(5) . . .
83(5) . . .
99(5) . . .
88(5) . . .
77(5) . . .
83(5) . . .
90(5) . . .
76(5) . . .
99(5) . . .
85(5) . . .
87(5) . . .
81(5) . . .
69(4) . . .
87(5) . . .
77(5) . . .
86(5) . . .
76(5) . . .
84(5) . . .
88(5) . . .
80(5) . . .
88(5) . . .
94(5) . . .
92(5) . . .
82(5) . . .
71(5) . . .
82(5) . . .
91(5) . . .
89(5) . . .
79(5) . . .
79(5) . . .
73(5) . . .
71(4) . . .
77(5) . . .
72(4) . . .
86(5) . . .
80(5) . . .
92(5) . . .
72(4) . . .
78(5) . . .
84(5) . . .
77(5) . . .
98(5) . . .
95(5) . . .
88(5) . . .
81(5) . . .
86(5) . . .
79(5) . . .
82(5) . . .
86(5) . . .
86(5) . . .
93(5) . . .
91(5) . . .
90(5) . . .
66(4) . . .
65(4) . . .
78(5) . . .
85(5) . . .
78(5) . . .
79(5) . . .
73(5) . . .
87(5) . . .
73(5) . . .
88(5) . . .
75(5) . . .
88(5) . . .
83(5) . . .
83(5) . . .
82(5) . . .
69(4) . . .
84(5) . . .
82(5) . . .
76(5) . . .
81(5) . . .
74(5) . . .
85(5) . . .
86(5) . . .
86(5) . . .
75(4) . . .
73(5) . . .
74(5) . . .
73(5) . . .
83(5) . . .
90(5) . . .
74(5) . . .
84(5) . . .
84(5) . . .
92(5) . . .
73(4) . . .
89(5) . . .
87(5) . . .
91(5) . . .
82(5) . . .
100(5) . . .
78(5) . . .
71(5) . . .
80(5) . . .
76(5) . . .
81(5) . . .
79(5) . . .
70(4) . . .
80(5) . . .
78(5) . . .
68(4) . . .
81(5) . . .
86(5) . . .
71(5) . . .
80(5) . . .
85(5) . . .
75(5) . . .
84(5) . . .
85(5) . . .
82(5) . . .
79(5) . . .
86(5) . . .
68(4) . . .
80(5) . . .
85(5) . . .
82(5) . . .
79(5) . . .
78(5) . . .
82(5) . . .
80(5) . . .
84(5) . . .
95(6) . . .
81(5) . . .
90(5) . . .
80(5) . . .
81(5) . . .
66(4) . . .
83(5) . . .
68(4) . . .
75(5) . . .
66(4) . . .
74(5) . . .
87(5) . . .
85(5) . . .
81(5) . . .
75(5) . . .
70(5) . . .
73(5) . . .
86(5) . . .
86(5) . . .
87(5) . . .
89(5) . . .
85(5) . . .
75(4) . . .
87(5) . . .
77(5) . . .
76(5) . . .
88(5) . . .
82(5) . . .
78(5) . . .
72(5) . . .
74(5) . . .
93(5) . . .
79(5) . . .
76(5) . . .
77(5) . . .
69(4) . . .
81(5) . . .
86(5) . . .
68(4) . . .
67(4) . . .
71(5) . . .
71(4) . . .
69(4) . . .
86(5) . . .
84(5) . . .
84(5) . . .
74(4) . . .
70(4) . . .
91(5) . . .
86(5) . . .
104(6) . . .
76(5) . . .
77(5) . . .
85(5) . . .
82(5) . . .
83(5) . . .
90(5) . . .
76(5) . . .
72(4) . . .
82(5) . . .
74(5) . . .
86(5) . . .
79(5) . . .
98(5) . . .
90(5) . . .
89(5) . . .
82(5) . . .
76(5) . . .
81(5) . . .
78(5) . . .
83(5) . . .
88(5) . . .
86(5) . . .
87(5) . . .
86(5) . . .
81(5) . . .
88(5) . . .
80(5) . . .
87(5) . . .
78(5) . . .
84(5) . . .
93(5) . . .
73(5) . . .
78(5) . . .
83(5) . . .
73(4) . . .
78(5) . . .
66(4) . . .
74(5) . . .
80(5) . . .
81(5) . . .
79(5) . . .
72(4) . . .
84(5) . . .
83(5) . . .
76(5) . . .
87(5) . . .
83(5) . . .
82(5) . . .
66(4) . . .
74(4) . . .
72(4) . . .
87(5) . . .
78(5) . . .
68(4) . . .
72(4) . . .
73(4) . . .
73(4) . . .
83(5) . . .
72(4) . . .
81(5) . . .
77(5) . . .
82(5) . . .
68(5) . . .
68(4) . . .
72(4) . . .
82(5) . . .
82(5) . . .
75(5) . . .
73(5) . . .
76(5) . . .
89(5) . . .
68(4) . . .
76(5) . . .
68(4) . . .
72(4) . . .
71(4) . . .
89(5) . . .
73(4) . . .
73(5) . . .
77(5) . . .
75(5) . . .
81(5) . . .
75(5) . . .
81(5) . . .
68(4) . . .
79(5) . . .
83(5) . . .
78(5) . . .
91(5) . . .
88(5) . . .
85(5) . . .
93(6) . . .
81(5) . . .
75(5) . . .
76(5) . . .
63(4) . . .
79(5) . . .
95(5) . . .
70(4) . . .
84(5) . . .
82(5) . . .
77(5) . . .
93(5) . . .
77(5) . . .
75(4) . . .
77(5) . . .
86(5) . . .
79(5) . . .
71(4) . . .
86(5) . . .
76(5) . . .
77(5) . . .
72(4) . . .
73(4) . . .
73(5) . . .
74(5) . . .
86(5) . . .
91(5) . . .
82(5) . . .
84(5) . . .
80(5) . . .
75(5) . . .
72(5) . . .
86(5) . . .
73(4) . . .
86(5) . . .
93(5) . . .
76(5) . . .
84(5) . . .
75(5) . . .
73(5) . . .
81(5) . . .
73(4) . . .
67(4) . . .
74(5) . . .
85(5) . . .
77(5) . . .
80(5) . . .
75(5) . . .
76(5) . . .
82(5) . . .
88(5) . . .
78(5) . . .
68(4) . . .
81(5) . . .
73(5) . . .
74(5) . . .
77(5) . . .
78(5) . . .
73(5) . . .
67(4) . . .
78(5) . . .
57(4) . . .
76(5) . . .
80(5) . . .
76(5) . . .
80(5) . . .
73(4) . . .
85(5) . . .
64(4) . . .
83(5) . . .
77(5) . . .
74(4) . . .
88(5) . . .
88(5) . . .
86(5) . . .
80(5) . . .
79(5) . . .
85(5) . . .
74(5) . . .
77(5) . . .
85(5) . . .
87(5) . . .
88(5) . . .
100(5) . . .
96(5) . . .
83(5) . . .
83(5) . . .
87(5) . . .
71(5) . . .
77(5) . . .
88(5) . . .
80(5) . . .
71(4) . . .
78(5) . . .
93(5) . . .
75(4) . . .
68(4) . . .
83(5) . . .
77(5) . . .
91(5) . . .
69(4) . . .
76(4) . . .
73(5) . . .
81(5) . . .
72(4) . . .
76(5) . . .
84(5) . . .
74(4) . . .
83(5) . . .
79(5) . . .
84(5) . . .
77(5) . . .
80(5) . . .
76(5) . . .
71(5) . . .
72(4) . . .
70(4) . . .
93(5) . . .
81(5) . . .
70(5) . . .
93(5) . . .
82(5) . . .
77(5) . . .
84(5) . . .
85(5) . . .
93(5) . . .
75(5) . . .
88(5) . . .
86(5) . . .
71(4) . . .
76(5) . . .
84(5) . . .
92(5) . . .
68(4) . . .
83(5) . . .
73(4) . . .
81(5) . . .
77(5) . . .
78(5) . . .
76(5) . . .
75(4) . . .
80(5) . . .
85(5) . . .
80(5) . . .
76(5) . . .
85(5) . . .
88(5) . . .
81(5) . . .
82(5) . . .
75(5) . . .
84(5) . . .
76(5) . . .
77(5) . . .
66(4) . . .
72(4) . . .
82(5) . . .
84(5) . . .
79(5) . . .
77(5) . . .
77(5) . . .
79(5) . . .
77(5) . . .
81(5) . . .
91(5) . . .
76(5) . . .
72(5) . . .
75(5) . . .
63(4) . . .
70(5) . . .
94(5) . . .
80(5) . . .
82(5) . . .
74(5) . . .
88(5) . . .
81(5) . . .
83(5) . . .
78(5) . . .
71(5) . . .
89(5) . . .
83(5) . . .
70(5) . . .
81(5) . . .
82(5) . . .
84(5) . . .
80(5) . . .
76(5) . . .
75(5) . . .
78(5) . . .
76(5) . . .
83(5) . . .
87(5) . . .
74(5) . . .
69(4) . . .
81(5) . . .
81(5) . . .
76(5) . . .
64(4) . . .
75(5) . . .
82(5) . . .
86(5) . . .
86(5) . . .
81(5) . . .
94(5) . . .
87(5) . . .
84(5) . . .
75(5) . . .
82(5) . . .
87(5) . . .
81(5) . . .
83(5) . . .
67(4) . . .
74(5) . . .
81(5) . . .
62(4) . . .
79(5) . . .
77(4) . . .
83(5) . . .
79(5) . . .
77(5) . . .
90(5) . . .
64(4) . . .
80(5) . . .
99(6) . . .
76(5) . . .
83(5) . . .
59(4) . . .
77(5) . . .
87(5) . . .
76(5) . . .
74(5) . . .
72(5) . . .
77(5) . . .
76(5) . . .
78(5) . . .
71(5) . . .
81(5) . . .
89(5) . . .
81(5) . . .
81(5) . . .
85(5) . . .
71(5) . . .
77(5) . . .
82(5) . . .
70(4) . . .
81(5) . . .
86(5) . . .
78(5) . . .
77(5) . . .
70(4) . . .
76(5) . . .
68(5) . . .
66(4) . . .
77(5) . . .
76(5) . . .
81(5) . . .
77(5) . . .
72(5) . . .
90(5) . . .
81(5) . . .
73(5) . . .
76(5) . . .
75(5) . . .
70(4) . . .
74(4) . . .
75(5) . . .
83(5) . . .
90(5) . . .
87(5) . . .
94(5) . . .
84(5) . . .
75(5) . . .
77(5) . . .
81(5) . . .
81(5) . . .
80(5) . . .
76(5) . . .
69(4) . . .
76(5) . . .
82(5) . . .
82(5) . . .
81(5) . . .
95(5) . . .
85(5) . . .
79(5) . . .
74(5) . . .
78(5) . . .
85(5) . . .
76(5) . . .
76(5) . . .
79(5) . . .
91(5) . . .
84(5) . . .
66(4) . . .
90(5) . . .
78(5) . . .
76(5) . . .
72(5) . . .
77(5) . . .
77(5) . . .
75(5) . . .
84(5) . . .
67(4) . . .
78(5) . . .
73(4) . . .
76(5) . . .
81(5) . . .
82(5) . . .
71(4) . . .
84(5) . . .
74(5) . . .
80(5) . . .
80(5) . . .
89(5) . . .
78(5) . . .
68(5) . . .
73(5) . . .
79(5) . . .
77(5) . . .
90(5) . . .
79(5) . . .
81(5) . . .
81(5) . . .
84(5) . . .
81(5) . . .
71(5) . . .
77(5) . . .
80(5) . . .
75(5) . . .
79(5) . . .
84(5) . . .
80(5) . . .
78(5) . . .
70(4) . . .
72(5) . . .
63(4) . . .
72(5) . . .
88(5) . . .
84(5) . . .
68(5) . . .
75(5) . . .
67(4) . . .
71(4) . . .
76(5) . . .
70(5) . . .
80(5) . . .
73(4) . . .
95(5) . . .
86(5) . . .
73(5) . . .
79(5) . . .
80(5) . . .
91(5) . . .
84(5) . . .
73(5) . . .
74(5) . . .
71(4) . . .
74(4) . . .
80(5) . . .
82(5) . . .
80(5) . . .
69(4) . . .
67(4) . . .
72(5) . . .
66(4) . . .
73(5) . . .
81(5) . . .
84(5) . . .
79(5) . . .
65(4) . . .
70(5) . . .
63(4) . . .
92(5) . . .
65(4) . . .
76(5) . . .
76(5) . . .
75(5) . . .
71(4) . . .
87(5) . . .
71(5) . . .
90(5) . . .
77(5) . . .
78(5) . . .
76(5) . . .
84(5) . . .
76(5) . . .
85(5) . . .
84(5) . . .
77(5) . . .
81(5) . . .
82(5) . . .
76(5) . . .
67(4) . . .
80(5) . . .
68(4) . . .
68(4) . . .
77(4) . . .
66(4) . . .
73(5) . . .
73(5) . . .
79(5) . . .
78(5) . . .
74(5) . . .
77(5) . . .
82(5) . . .
80(5) . . .
72(4) . . .
74(5) . . .
72(5) . . .
73(5) . . .
76(4) . . .
76(5) . . .
76(5) . . .
72(5) . . .
73(5) . . .
87(5) . . .
63(4) . . .
72(5) . . .
69(4) . . .
78(5) . . .
65(4) . . .
72(5) . . .
85(5) . . .
73(5) . . .
90(5) . . .
79(5) . . .
75(5) . . .
72(5) . . .
79(5) . . .
77(5) . . .
81(5) . . .
87(5) . . .
67(4) . . .
65(4) . . .
70(4) . . .
83(5) . . .
75(5) . . .
71(5) . . .
59(4) . . .
72(4) . . .
76(5) . . .
69(4) . . .
81(5) . . .
72(4) . . .
88(5) . . .
86(5) . . .
80(5) . . .
78(5) . . .
87(5) . . .
84(5) . . .
76(4) . . .
72(4) . . .
71(5) . . .
75(5) . . .
78(5) . . .
71(4) . . .
66(4) . . .
73(5) . . .
81(5) . . .
77(5) . . .
77(5) . . .
70(4) . . .
72(5) . . .
73(5) . . .
80(5) . . .
69(4) . . .
86(5) . . .
60(4) . . .
96(6) . . .
81(5) . . .
81(5) . . .
78(5) . . .
88(5) . . .
80(5) . . .
85(5) . . .
71(4) . . .
91(5) . . .
76(5) . . .
78(5) . . .
69(4) . . .
74(5) . . .
63(4) . . .
64(4) . . .
77(5) . . .
75(5) . . .
75(5) . . .
76(5) . . .
81(5) . . .
73(5) . . .
72(4) . . .
63(4) . . .
80(5) . . .
71(4) . . .
75(5) . . .
66(4) . . .
70(4) . . .
86(5) . . .
83(5) . . .
85(5) . . .
73(4) . . .
73(5) . . .
71(5) . . .
69(4) . . .
72(4) . . .
73(4) . . .
76(5) . . .
74(5) . . .
78(5) . . .
74(5) . . .
82(5) . . .
79(5) . . .
78(5) . . .
84(5) . . .
67(4) . . .
75(5) . . .
72(5) . . .
84(5) . . .
70(5) . . .
77(5) . . .
77(5) . . .
76(5) . . .
74(5) . . .
73(5) . . .
65(4) . . .
74(4) . . .
64(4) . . .
66(4) . . .
72(5) . . .
72(5) . . .
74(4) . . .
68(5) . . .
65(4) . . .
70(4) . . .
74(5) . . .
74(5) . . .
79(5) . . .
71(4) . . .
81(5) . . .
68(4) . . .
71(5) . . .
74(5) . . .
73(5) . . .
76(5) . . .
76(5) . . .
78(5) . . .
80(5) . . .
72(4) . . .
66(4) . . .
80(5) . . .
78(5) . . .
80(5) . . .
92(5) . . .
76(5) . . .
82(5) . . .
85(5) . . .
68(4) . . .
76(5) . . .
81(5) . . .
74(5) . . .
76(5) . . .
80(5) . . .
63(4) . . .
86(5) . . .
78(5) . . .
81(5) . . .
97(6) . . .
81(5) . . .
77(5) . . .
80(5) . . .
84(5) . . .
78(5) . . .
65(4) . . .
90(5) . . .
72(4) . . .
78(5) . . .
76(5) . . .
79(5) . . .
76(5) . . .
67(4) . . .
69(5) . . .
74(5) . . .
73(5) . . .
73(4) . . .
74(5) . . .
82(5) . . .
82(5) . . .
72(4) . . .
73(4) . . .
67(4) . . .
78(5) . . .
83(5) . . .
94(5) . . .
80(5) . . .
73(4) . . .
81(5) . . .
79(5) . . .
91(5) . . .
82(5) . . .
78(5) . . .
66(4) . . .
73(5) . . .
90(5) . . .
74(4) . . .
74(5) . . .
81(5) . . .
75(5) . . .
81(5) . . .
78(5) . . .
89(5) . . .
86(5) . . .
77(5) . . .
103(5) . . .
76(5) . . .
80(5) . . .
85(5) . . .
66(4) . . .
72(4) . . .
86(5) . . .
73(5) . . .
69(4) . . .
81(5) . . .
71(4) . . .
72(5) . . .
76(5) . . .
64(4) . . .
80(5) . . .
71(4) . . .
67(4) . . .
80(5) . . .
91(5) . . .
75(5) . . .
73(5) . . .
77(5) . . .
79(5) . . .
73(5) . . .
77(5) . . .
78(5) . . .
71(4) . . .
74(5) . . .
81(5) . . .
81(5) . . .
69(4) . . .
87(5) . . .
82(5) . . .
69(5) . . .
73(4) . . .
67(4) . . .
64(4) . . .
79(5) . . .
84(5) . . .
75(4) . . .
86(5) . . .
71(5) . . .
74(5) . . .
63(4) . . .
81(5) . . .
83(5) . . .
77(5) . . .
80(5) . . .
77(5) . . .
79(5) . . .
81(5) . . .
72(5) . . .
75(5) . . .
80(5) . . .
73(4) . . .
69(4) . . .
72(5) . . .
84(5) . . .
71(4) . . .
61(4) . . .
68(4) . . .
66(4) . . .
69(5) . . .
81(5) . . .
69(4) . . .
82(5) . . .
75(5) . . .
71(5) . . .
64(4) . . .
83(5) . . .
83(5) . . .
80(5) . . .
76(5) . . .
65(4) . . .
80(5) . . .
79(5) . . .
71(4) . . .
77(5) . . .
71(5) . . .
87(5) . . .
69(4) . . .
85(5) . . .
87(5) . . .
84(5) . . .
73(4) . . .
75(5) . . .
78(5) . . .
78(5) . . .
67(4) . . .
76(5) . . .
85(5) . . .
80(5) . . .
70(5) . . .
78(5) . . .
69(4) . . .
78(5) . . .
80(5) . . .
71(5) . . .
78(5) . . .
84(5) . . .
82(5) . . .
86(5) . . .
70(5) . . .
92(5) . . .
79(5) . . .
69(4) . . .
82(5) . . .
70(5) . . .
71(4) . . .
80(5) . . .
70(5) . . .
71(5) . . .
67(4) . . .
73(4) . . .
70(4) . . .
85(5) . . .
62(4) . . .
69(5) . . .
70(4) . . .
80(5) . . .
78(5) . . .
88(5) . . .
66(4) . . .
76(5) . . .
83(5) . . .
71(5) . . .
77(5) . . .
82(5) . . .
90(5) . . .
75(5) . . .
67(5) . . .
64(4) . . .
71(5) . . .
72(4) . . .
77(5) . . .
71(5) . . .
87(5) . . .
80(5) . . .
70(4) . . .
73(5) . . .
69(5) . . .
80(5) . . .
77(4) . . .
73(4) . . .
66(4) . . .
63(4) . . .
72(5) . . .
79(5) . . .
80(5) . . .
73(5) . . .
72(5) . . .
89(5) . . .
69(4) . . .
66(4) . . .
60(4) . . .
68(5) . . .
74(5) . . .
71(4) . . .
80(5) . . .
66(4) . . .
70(5) . . .
62(4) . . .
63(4) . . .
62(4) . . .
70(5) . . .
78(5) . . .
70(4) . . .
67(4) . . .
66(4) . . .
67(4) . . .
83(5) . . .
74(5) . . .
64(4) . . .
80(5) . . .
73(5) . . .
70(4) . . .
76(5) . . .
85(5) . . .
75(5) . . .
69(5) . . .
71(5) . . .
81(5) . . .
71(4) . . .
70(5) . . .
73(5) . . .
69(4) . . .
67(4) . . .
89(5) . . .
93(5) . . .
75(5) . . .
64(4) . . .
78(5) . . .
72(4) . . .
83(5) . . .
79(5) . . .
62(4) . . .
75(5) . . .
77(5) . . .
87(5) . . .
71(5) . . .
62(4) . . .
67(4) . . .
63(4) . . .
79(5) . . .
65(4) . . .
77(5) . . .
81(5) . . .
65(4) . . .
77(5) . . .
78(5) . . .
68(4) . . .
88(5) . . .
76(5) . . .
73(5) . . .
65(4) . . .
73(5) . . .
75(5) . . .
79(5) . . .
67(4) . . .
63(4) . . .
74(5) . . .
70(4) . . .
76(5) . . .
65(4) . . .
75(5) . . .
68(4) . . .
64(4) . . .
79(5) . . .
66(4) . . .
70(4) . . .
83(5) . . .
77(5) . . .
81(5) . . .
71(4) . . .
69(5) . . .
76(5) . . .
74(5) . . .
78(5) . . .
75(5) . . .
66(5) . . .
71(4) . . .
67(4) . . .
79(5) . . .
75(5) . . .
79(5) . . .
85(5) . . .
77(5) . . .
78(5) . . .
64(4) . . .
72(5) . . .
66(4) . . .
68(4) . . .
76(5) . . .
73(5) . . .
65(4) . . .
72(5) . . .
70(4) . . .
71(4) . . .
86(5) . . .
78(5) . . .
73(4) . . .
78(5) . . .
76(5) . . .
80(5) . . .
62(4) . . .
80(5) . . .
78(5) . . .
80(5) . . .
67(4) . . .
70(5) . . .
73(4) . . .
80(5) . . .
72(5) . . .
75(5) . . .
78(5) . . .
73(4) . . .
68(4) . . .
78(5) . . .
70(4) . . .
81(5) . . .
70(4) . . .
75(5) . . .
70(5) . . .
75(5) . . .
71(4) . . .
81(5) . . .
77(5) . . .
77(5) . . .
69(4) . . .
70(4) . . .
67(4) . . .
86(5) . . .
67(5) . . .
76(5) . . .
70(4) . . .
82(5) . . .
65(4) . . .
64(4) . . .
68(4) . . .
67(4) . . .
88(5) . . .
74(5) . . .
91(6) . . .
77(5) . . .
74(5) . . .
68(4) . . .
77(5) . . .
74(5) . . .
74(5) . . .
68(4) . . .
73(4) . . .
76(5) . . .
69(4) . . .
85(5) . . .
84(5) . . .
64(4) . . .
74(5) . . .
68(4) . . .
79(5) . . .
67(4) . . .
78(5) . . .
75(5) . . .
73(5) . . .
73(4) . . .
74(4) . . .
83(5) . . .
81(5) . . .
69(4) . . .
73(4) . . .
77(5) . . .
69(4) . . .
82(5) . . .
73(4) . . .
70(4) . . .
76(5) . . .
73(5) . . .
74(5) . . .
70(5) . . .
67(4) . . .
64(4) . . .
80(5) . . .
75(5) . . .
75(5) . . .
70(4) . . .
75(5) . . .
72(5) . . .
73(5) . . .
74(5) . . .
80(5) . . .
76(4) . . .
78(5) . . .
75(5) . . .
86(5) . . .
80(5) . . .
72(4) . . .
64(4) . . .
68(5) . . .
66(4) . . .
64(4) . . .
62(4) . . .
67(4) . . .
84(5) . . .
74(5) . . .
64(4) . . .
82(5) . . .
68(4) . . .
79(5) . . .
70(5) . . .
64(4) . . .
68(4) . . .
76(5) . . .
83(5) . . .
68(4) . . .
67(4) . . .
66(4) . . .
70(5) . . .
71(5) . . .
72(4) . . .
83(5) . . .
78(5) . . .
84(5) . . .
70(5) . . .
73(4) . . .
72(4) . . .
63(4) . . .
70(5) . . .
65(4) . . .
74(5) . . .
80(5) . . .
81(5) . . .
62(4) . . .
72(5) . . .
72(4) . . .
64(4) . . .
87(5) . . .
71(5) . . .
84(5) . . .
75(5) . . .
62(4) . . .
81(5) . . .
61(4) . . .
74(5) . . .
73(4) . . .
61(4) . . .
77(5) . . .
69(5) . . .
85(5) . . .
70(4) . . .
70(4) . . .
82(5) . . .
75(5) . . .
73(5) . . .
81(5) . . .
73(5) . . .
68(4) . . .
78(5) . . .
65(4) . . .
65(4) . . .
73(5) . . .
75(5) . . .
76(5) . . .
75(5) . . .
80(5) . . .
71(5) . . .
78(5) . . .
80(5) . . .
75(5) . . .
74(4) . . .
67(4) . . .
73(5) . . .
71(5) . . .
84(5) . . .
74(4) . . .
70(5) . . .
71(5) . . .
72(5) . . .
64(4) . . .
59(4) . . .
69(4) . . .
70(5) . . .
72(5) . . .
80(5) . . .
72(4) . . .
75(5) . . .
62(4) . . .
63(4) . . .
73(4) . . .
72(4) . . .
71(5) . . .
70(5) . . .
74(5) . . .
73(4) . . .
77(5) . . .
76(5) . . .
74(5) . . .
72(5) . . .
75(4) . . .
65(4) . . .
62(4) . . .
79(5) . . .
70(5) . . .
63(4) . . .
58(4) . . .
64(4) . . .
65(4) . . .
74(5) . . .
63(4) . . .
61(4) . . .
73(4) . . .
84(5) . . .
73(5) . . .
67(4) . . .
83(5) . . .
65(4) . . .
79(5) . . .
78(5) . . .
72(4) . . .
66(4) . . .
56(4) . . .
63(4) . . .
69(5) . . .
68(4) . . .
61(4) . . .
62(4) . . .
64(4) . . .
71(4) . . .
77(5) . . .
74(5) . . .
75(5) . . .
67(4) . . .
62(4) . . .
74(4) . . .
76(5) . . .
75(5) . . .
72(5) . . .
61(4) . . .
71(4) . . .
81(5) . . .
87(5) . . .
67(4) . . .
73(5) . . .
67(4) . . .
63(5) . . .
62(5) . . .
75(5) . . .
73(4) . . .
62(4) . . .
82(5) . . .
65(5) . . .
72(5) . . .
84(5) . . .
68(4) . . .
80(5) . . .
72(5) . . .
68(5) . . .
58(4) . . .
65(4) . . .
68(5) . . .
63(4) . . .
69(4) . . .
74(4) . . .
73(5) . . .
74(5) . . .
74(5) . . .
80(5) . . .
87(5) . . .
81(5) . . .
78(5) . . .
68(4) . . .
69(5) . . .
64(4) . . .
61(4) . . .
75(5) . . .
64(4) . . .
69(5) . . .
72(4) . . .
66(4) . . .
84(5) . . .
73(5) . . .
70(5) . . .
67(4) . . .
80(5) . . .
79(5) . . .
78(5) . . .
73(5) . . .
72(4) . . .
60(4) . . .
71(5) . . .
75(5) . . .
65(4) . . .
73(4) . . .
71(5) . . .
67(4) . . .
75(5) . . .
73(4) . . .
64(4) . . .
61(4) . . .
82(5) . . .
73(5) . . .
76(5) . . .
73(4) . . .
80(5) . . .
67(4) . . .
74(5) . . .
73(4) . . .
67(4) . . .
75(5) . . .
79(5) . . .
73(5) . . .
71(4) . . .
78(5) . . .
71(4) . . .
75(5) . . .
64(4) . . .
78(5) . . .
65(4) . . .
64(4) . . .
58(4) . . .
74(5) . . .
81(5) . . .
68(4) . . .
75(5) . . .
72(4) . . .
92(5) . . .
77(5) . . .
69(5) . . .
70(5) . . .
67(5) . . .
81(5) . . .
62(4) . . .
68(4) . . .
73(5) . . .
65(4) . . .
72(4) . . .
65(4) . . .
63(4) . . .
70(5) . . .
78(5) . . .
78(5) . . .
75(4) . . .
70(4) . . .
63(4) . . .
69(4) . . .
65(4) . . .
64(4) . . .
87(5) . . .
88(5) . . .
76(5) . . .
70(4) . . .
70(4) . . .
76(5) . . .
80(5) . . .
68(4) . . .
64(4) . . .
62(4) . . .
67(4) . . .
65(4) . . .
61(4) . . .
73(4) . . .
72(4) . . .
74(5) . . .
67(4) . . .
73(5) . . .
69(4) . . .
66(4) . . .
69(5) . . .
66(4) . . .
80(5) . . .
69(4) . . .
73(5) . . .
72(5) . . .
68(4) . . .
70(4) . . .
74(4) . . .
66(4) . . .
69(5) . . .
53(4) . . .
73(5) . . .
72(4) . . .
67(4) . . .
58(4) . . .
67(4) . . .
71(4) . . .
72(4) . . .
62(4) . . .
66(4) . . .
68(4) . . .
66(4) . . .
74(4) . . .
68(4) . . .
76(5) . . .
67(4) . . .
79(5) . . .
68(4) . . .
65(4) . . .
64(4) . . .
67(4) . . .
57(4) . . .
70(4) . . .
62(4) . . .
59(4) . . .
67(4) . . .
77(5) . . .
80(5) . . .
66(4) . . .
76(5) . . .
74(5) . . .
78(5) . . .
78(5) . . .
65(4) . . .
75(5) . . .
59(4) . . .
52(4) . . .
61(4) . . .
63(4) . . .
70(4) . . .
71(4) . . .
76(5) . . .
77(5) . . .
75(5) . . .
66(4) . . .
68(4) . . .
70(4) . . .
65(4) . . .
69(5) . . .
64(4) . . .
71(4) . . .
74(4) . . .
69(4) . . .
76(5) . . .
63(4) . . .
64(4) . . .
63(4) . . .
65(4) . . .
71(5) . . .
71(5) . . .
73(4) . . .
74(4) . . .
74(5) . . .
71(5) . . .
79(5) . . .
64(4) . . .
71(4) . . .
75(5) . . .
67(5) . . .
66(4) . . .
66(4) . . .
55(4) . . .
59(4) . . .
66(5) . . .
66(4) . . .
78(5) . . .
76(5) . . .
59(4) . . .
74(5) . . .
76(5) . . .
72(4) . . .
64(4) . . .
66(4) . . .
63(4) . . .
61(4) . . .
70(4) . . .
75(5) . . .
72(5) . . .
62(4) . . .
75(5) . . .
69(4) . . .
70(5) . . .
64(4) . . .
66(4) . . .
73(5) . . .
63(4) . . .
72(4) . . .
71(4) . . .
69(5) . . .
68(4) . . .
65(4) . . .
79(5) . . .
65(4) . . .
72(5) . . .
84(5) . . .
67(4) . . .
62(4) . . .
71(5) . . .
64(4) . . .
74(4) . . .
81(5) . . .
62(4) . . .
76(5) . . .
64(4) . . .
69(4) . . .
70(4) . . .
65(4) . . .
67(4) . . .
64(4) . . .
66(4) . . .
74(4) . . .
76(5) . . .
66(5) . . .
66(5) . . .
67(4) . . .
61(4) . . .
51(4) . . .
69(5) . . .
67(4) . . .
69(4) . . .
75(4) . . .
67(4) . . .
72(5) . . .
73(5) . . .
74(4) . . .
71(5) . . .
76(5) . . .
66(4) . . .
79(5) . . .
72(4) . . .
65(4) . . .
65(4) . . .
55(4) . . .
56(4) . . .
60(4) . . .
50(4) . . .
69(4) . . .
72(5) . . .
78(5) . . .
75(5) . . .
62(4) . . .
61(4) . . .
61(4) . . .
65(4) . . .
63(4) . . .
76(5) . . .
72(4) . . .
77(5) . . .
75(5) . . .
67(4) . . .
70(4) . . .
68(5) . . .
73(5) . . .
74(5) . . .
71(4) . . .
75(5) . . .
79(5) . . .
80(5) . . .
72(4) . . .
65(4) . . .
73(5) . . .
62(4) . . .
66(4) . . .
75(5) . . .
68(4) . . .
73(4) . . .
70(5) . . .
72(5) . . .
70(4) . . .
66(4) . . .
71(5) . . .
63(4) . . .
76(5) . . .
64(4) . . .
67(4) . . .
64(4) . . .
67(5) . . .
65(4) . . .
68(4) . . .
71(5) . . .
62(4) . . .
64(4) . . .
75(5) . . .
70(4) . . .
82(5) . . .
67(4) . . .
77(5) . . .
61(4) . . .
69(4) . . .
75(5) . . .
73(5) . . .
68(5) . . .
73(4) . . .
81(5) . . .
67(5) . . .
70(5) . . .
69(4) . . .
70(4) . . .
74(4) . . .
69(5) . . .
68(4) . . .
65(4) . . .
83(5) . . .
72(4) . . .
71(4) . . .
68(5) . . .
70(4) . . .
74(4) . . .
73(4) . . .
78(5) . . .
61(4) . . .
66(4) . . .
74(4) . . .
74(4) . . .
69(4) . . .
82(5) . . .
76(5) . . .
59(4) . . .
58(4) . . .
71(5) . . .
65(4) . . .
81(5) . . .
57(4) . . .
77(5) . . .
78(5) . . .
67(4) . . .
70(5) . . .
66(4) . . .
66(4) . . .
63(4) . . .
75(5) . . .
69(5) . . .
68(4) . . .
57(4) . . .
76(5) . . .
74(5) . . .
68(4) . . .
71(4) . . .
74(5) . . .
63(4) . . .
64(4) . . .
60(4) . . .
61(4) . . .
51(4) . . .
69(5) . . .
65(4) . . .
66(4) . . .
61(4) . . .
74(5) . . .
70(5) . . .
63(4) . . .
59(4) . . .
56(4) . . .
54(4) . . .
64(5) . . .
62(4) . . .
85(5) . . .
58(4) . . .
64(4) . . .
71(5) . . .
69(5) . . .
73(4) . . .
71(4) . . .
70(4) . . .
71(5) . . .
68(5) . . .
74(5) . . .
69(4) . . .
59(4) . . .
70(5) . . .
71(4) . . .
66(4) . . .
58(4) . . .
76(5) . . .
72(5) . . .
85(5) . . .
68(4) . . .
62(4) . . .
63(4) . . .
63(4) . . .
65(4) . . .
66(4) . . .
62(4) . . .
71(5) . . .
65(4) . . .
72(5) . . .
66(4) . . .
74(5) . . .
63(4) . . .
71(5) . . .
68(4) . . .
61(4) . . .
64(4) . . .
70(5) . . .
64(4) . . .
58(4) . . .
62(4) . . .
65(4) . . .
74(5) . . .
72(5) . . .
79(5) . . .
72(4) . . .
71(4) . . .
73(5) . . .
72(4) . . .
74(5) . . .
66(4) . . .
72(5) . . .
67(5) . . .
68(4) . . .
74(4) . . .
69(4) . . .
64(4) . . .
68(5) . . .
68(4) . . .
70(4) . . .
69(4) . . .
68(4) . . .
67(4) . . .
72(5) . . .
66(4) . . .
70(4) . . .
56(4) . . .
73(5) . . .
67(4) . . .
64(4) . . .
70(4) . . .
58(4) . . .
72(5) . . .
69(4) . . .
65(4) . . .
75(5) . . .
70(5) . . .
68(4) . . .
78(5) . . .
55(4) . . .
73(5) . . .
67(4) . . .
61(4) . . .
63(4) . . .
72(4) . . .
76(5) . . .
66(5) . . .
61(4) . . .
71(4) . . .
61(4) . . .
78(5) . . .
76(5) . . .
61(4) . . .
68(4) . . .
67(4) . . .
68(4) . . .
69(5) . . .
73(5) . . .
67(4) . . .
65(4) . . .
63(4) . . .
64(4) . . .
74(5) . . .
55(4) . . .
64(4) . . .
68(5) . . .
59(4) . . .
73(5) . . .
63(4) . . .
75(5) . . .
67(4) . . .
66(4) . . .
62(4) . . .
69(4) . . .
64(4) . . .
70(5) . . .
60(4) . . .
67(4) . . .
66(4) . . .
65(4) . . .
62(4) . . .
59(4) . . .
62(4) . . .
64(4) . . .
62(4) . . .
56(4) . . .
69(5) . . .
70(5) . . .
71(4) . . .
62(4) . . .
58(4) . . .
74(5) . . .
60(4) . . .
70(4) . . .
72(5) . . .
56(4) . . .
64(4) . . .
72(4) . . .
73(4) . . .
67(4) . . .
76(5) . . .
74(5) . . .
66(5) . . .
65(4) . . .
65(4) . . .
65(5) . . .
71(5) . . .
69(4) . . .
67(4) . . .
63(4) . . .
75(5) . . .
68(4) . . .
64(4) . . .
56(4) . . .
69(5) . . .
61(4) . . .
61(4) . . .
62(4) . . .
62(4) . . .
60(4) . . .
66(4) . . .
74(5) . . .
72(5) . . .
66(4) . . .
64(4) . . .
71(5) . . .
69(4) . . .
62(4) . . .
68(4) . . .
62(4) . . .
71(5) . . .
73(5) . . .
69(4) . . .
63(4) . . .
76(5) . . .
67(4) . . .
64(4) . . .
71(4) . . .
55(4) . . .
62(4) . . .
57(4) . . .
66(5) . . .
69(4) . . .
69(4) . . .
78(5) . . .
64(4) . . .
77(5) . . .
63(4) . . .
56(4) . . .
62(4) . . .
61(4) . . .
67(4) . . .
68(4) . . .
62(4) . . .
74(5) . . .
69(4) . . .
66(4) . . .
70(4) . . .
76(5) . . .
65(5) . . .
66(4) . . .
71(4) . . .
57(4) . . .
80(5) . . .
60(4) . . .
61(4) . . .
58(4) . . .
54(4) . . .
78(5) . . .
66(5) . . .
61(4) . . .
59(4) . . .
72(4) . . .
61(4) . . .
63(4) . . .
67(5) . . .
67(4) . . .
76(5) . . .
76(5) . . .
70(5) . . .
60(4) . . .
72(4) . . .
77(5) . . .
71(4) . . .
61(4) . . .
58(4) . . .
68(4) . . .
67(4) . . .
68(4) . . .
73(4) . . .
72(5) . . .
72(4) . . .
60(4) . . .
60(4) . . .
71(5) . . .
65(4) . . .
64(4) . . .
67(4) . . .
66(5) . . .
71(5) . . .
75(5) . . .
69(4) . . .
70(5) . . .
61(4) . . .
62(4) . . .
74(4) . . .
73(4) . . .
65(4) . . .
78(5) . . .
70(4) . . .
59(4) . . .
55(4) . . .
63(4) . . .
69(5) . . .
62(4) . . .
60(4) . . .
64(4) . . .
63(4) . . .
64(4) . . .
59(4) . . .
59(4) . . .
63(4) . . .
76(5) . . .
61(4) . . .
63(4) . . .
73(4) . . .
75(5) . . .
64(4) . . .
67(5) . . .
62(4) . . .
64(4) . . .
66(4) . . .
79(5) . . .
74(5) . . .
67(4) . . .
60(4) . . .
59(4) . . .
68(4) . . .
73(5) . . .
67(4) . . .
59(4) . . .
59(4) . . .
59(4) . . .
65(4) . . .
62(4) . . .
67(4) . . .
66(4) . . .
65(5) . . .
65(4) . . .
71(4) . . .
62(4) . . .
61(4) . . .
63(4) . . .
64(4) . . .
70(4) . . .
73(4) . . .
73(5) . . .
68(4) . . .
68(4) . . .
71(4) . . .
69(4) . . .
73(5) . . .
64(4) . . .
67(4) . . .
69(4) . . .
63(4) . . .
72(5) . . .
65(5) . . .
67(4) . . .
65(4) . . .
72(4) . . .
57(4) . . .
60(4) . . .
65(4) . . .
64(4) . . .
73(4) . . .
55(4) . . .
61(4) . . .
57(4) . . .
58(4) . . .
71(4) . . .
66(4) . . .
73(5) . . .
65(4) . . .
57(4) . . .
71(5) . . .
58(4) . . .
70(5) . . .
69(4) . . .
61(4) . . .
61(4) . . .
61(4) . . .
63(4) . . .
73(4) . . .
77(5) . . .
72(5) . . .
72(5) . . .
71(5) . . .
58(4) . . .
55(4) . . .
65(5) . . .
71(4) . . .
73(5) . . .
66(4) . . .
66(4) . . .
57(4) . . .
68(5) . . .
63(4) . . .
61(4) . . .
67(4) . . .
69(5) . . .
62(5) . . .
66(4) . . .
73(4) . . .
72(4) . . .
61(4) . . .
64(5) . . .
66(5) . . .
60(4) . . .
72(4) . . .
71(4) . . .
64(4) . . .
68(4) . . .
59(4) . . .
64(4) . . .
67(4) . . .
64(4) . . .
71(5) . . .
66(4) . . .
61(4) . . .
61(4) . . .
66(4) . . .
65(4) . . .
66(4) . . .
65(4) . . .
72(5) . . .
55(4) . . .
68(4) . . .
65(4) . . .
58(4) . . .
65(5) . . .
60(4) . . .
72(4) . . .
61(4) . . .
72(5) . . .
65(4) . . .
66(5) . . .
74(5) . . .
62(4) . . .
67(5) . . .
70(5) . . .
68(4) . . .
69(4) . . .
66(4) . . .
61(4) . . .
47(4) . . .
52(4) . . .
67(4) . . .
65(4) . . .
58(4) . . .
59(4) . . .
68(4) . . .
60(4) . . .
66(4) . . .
71(5) . . .
81(5) . . .
65(4) . . .
64(4) . . .
71(5) . . .
66(4) . . .
67(5) . . .
59(4) . . .
72(4) . . .
61(4) . . .
63(4) . . .
67(5) . . .
62(4) . . .
57(4) . . .
61(4) . . .
78(5) . . .
73(5) . . .
56(4) . . .
56(4) . . .
65(4) . . .
68(4) . . .
63(4) . . .
75(5) . . .
59(4) . . .
64(4) . . .
69(5) . . .
65(4) . . .
65(4) . . .
60(4) . . .
64(4) . . .
67(4) . . .
70(4) . . .
70(4) . . .
61(4) . . .
61(4) . . .
63(4) . . .
65(4) . . .
73(4) . . .
63(4) . . .
58(4) . . .
59(4) . . .
69(4) . . .
56(4) . . .
64(4) . . .
67(4) . . .
66(5) . . .
69(5) . . .
56(4) . . .
70(4) . . .
57(4) . . .
65(5) . . .
67(4) . . .
59(4) . . .
53(4) . . .
62(4) . . .
59(4) . . .
61(4) . . .
65(4) . . .
72(4) . . .
59(4) . . .
64(4) . . .
72(4) . . .
67(4) . . .
70(4) . . .
66(4) . . .
67(5) . . .
66(4) . . .
62(4) . . .
58(4) . . .
59(4) . . .
69(5) . . .
64(4) . . .
75(5) . . .
55(4) . . .
70(5) . . .
61(4) . . .
49(4) . . .
65(4) . . .
67(4) . . .
59(4) . . .
68(4) . . .
55(4) . . .
63(4) . . .
58(4) . . .
71(5) . . .
70(5) . . .
63(4) . . .
68(4) . . .
68(4) . . .
73(5) . . .
75(5) . . .
77(5) . . .
73(4) . . .
65(4) . . .
66(4) . . .
60(4) . . .
61(4) . . .
58(4) . . .
68(4) . . .
49(4) . . .
59(4) . . .
64(4) . . .
64(4) . . .
69(5) . . .
73(5) . . .
79(5) . . .
68(4) . . .
75(5) . . .
63(4) . . .
57(4) . . .
63(4) . . .
62(4) . . .
51(4) . . .
69(5) . . .
67(5) . . .
64(4) . . .
66(4) . . .
59(4) . . .
69(5) . . .
67(5) . . .
61(4) . . .
64(4) . . .
66(4) . . .
59(4) . . .
62(4) . . .
65(4) . . .
88(5) . . .
54(4) . . .
65(4) . . .
65(4) . . .
65(4) . . .
70(4) . . .
66(4) . . .
66(4) . . .
62(4) . . .
72(5) . . .
64(4) . . .
69(5) . . .
59(4) . . .
58(4) . . .
62(4) . . .
76(5) . . .
61(4) . . .
58(4) . . .
50(4) . . .
80(5) . . .
75(4) . . .
71(5) . . .
65(4) . . .
73(5) . . .
58(4) . . .
65(4) . . .
60(4) . . .
65(5) . . .
68(4) . . .
69(4) . . .
71(4) . . .
66(5) . . .
68(5) . . .
60(4) . . .
68(4) . . .
63(4) . . .
68(5) . . .
68(4) . . .
64(4) . . .
60(4) . . .
73(4) . . .
59(4) . . .
59(4) . . .
72(5) . . .
69(4) . . .
62(4) . . .
66(5) . . .
68(5) . . .
75(5) . . .
71(4) . . .
62(4) . . .
57(4) . . .
58(4) . . .
59(4) . . .
71(4) . . .
58(4) . . .
65(5) . . .
65(4) . . .
70(4) . . .
70(4) . . .
67(4) . . .
60(4) . . .
71(5) . . .
53(4) . . .
72(4) . . .
64(4) . . .
75(5) . . .
62(4) . . .
61(4) . . .
77(5) . . .
55(4) . . .
65(5) . . .
61(4) . . .
75(4) . . .
60(4) . . .
66(4) . . .
64(4) . . .
72(4) . . .
70(4) . . .
69(4) . . .
72(5) . . .
62(4) . . .
60(4) . . .
69(4) . . .
84(5) . . .
56(4) . . .
70(5) . . .
66(4) . . .
67(4) . . .
53(4) . . .
69(4) . . .
67(5) . . .
56(4) . . .
60(4) . . .
61(4) . . .
66(4) . . .
68(5) . . .
65(4) . . .
67(4) . . .
71(4) . . .
68(4) . . .
54(4) . . .
71(5) . . .
57(4) . . .
59(4) . . .
67(5) . . .
70(5) . . .
64(4) . . .
69(4) . . .
77(5) . . .
67(4) . . .
66(4) . . .
70(4) . . .
70(4) . . .
74(5) . . .
61(4) . . .
61(4) . . .
62(4) . . .
73(4) . . .
72(5) . . .
71(5) . . .
66(4) . . .
62(4) . . .
64(4) . . .
63(4) . . .
64(4) . . .
61(4) . . .
69(4) . . .
64(4) . . .
71(4) . . .
67(4) . . .
74(5) . . .
64(4) . . .
76(5) . . .
54(4) . . .
73(5) . . .
55(4) . . .
64(4) . . .
60(4) . . .
63(4) . . .
59(4) . . .
60(4) . . .
62(4) . . .
55(4) . . .
62(4) . . .
68(5) . . .
77(5) . . .
61(4) . . .
57(4) . . .
71(4) . . .
77(5) . . .
82(5) . . .
57(4) . . .
59(4) . . .
72(4) . . .
62(4) . . .
67(4) . . .
74(4) . . .
58(4) . . .
69(5) . . .
77(5) . . .
62(4) . . .
69(4) . . .
64(4) . . .
65(4) . . .
62(4) . . .
61(4) . . .
59(4) . . .
52(4) . . .
69(5) . . .
69(4) . . .
61(4) . . .
67(4) . . .
59(4) . . .
71(5) . . .
59(4) . . .
62(4) . . .
54(4) . . .
72(4) . . .
60(4) . . .
70(5) . . .
69(4) . . .
58(4) . . .
68(4) . . .
58(4) . . .
65(5) . . .
53(4) . . .
61(4) . . .
54(4) . . .
60(4) . . .
69(5) . . .
54(4) . . .
74(4) . . .
69(4) . . .
58(4) . . .
85(5) . . .
64(4) . . .
44.9(35) . . .
62(4) . . .
63(4) . . .
60(4) . . .
67(4) . . .
65(4) . . .
56(4) . . .
71(5) . . .
67(4) . . .
53(4) . . .
64(4) . . .
60(4) . . .
64(4) . . .
60(4) . . .
71(4) . . .
63(4) . . .
71(5) . . .
59(4) . . .
59(4) . . .
58(4) . . .
60(4) . . .
67(5) . . .
62(4) . . .
49(4) . . .
59(4) . . .
68(4) . . .
62(4) . . .
59(4) . . .
53(4) . . .
60(4) . . .
63(4) . . .
70(5) . . .
52(4) . . .
67(4) . . .
60(4) . . .
63(4) . . .
71(5) . . .
66(4) . . .
59(4) . . .
61(4) . . .
63(4) . . .
71(5) . . .
68(4) . . .
62(4) . . .
68(4) . . .
70(4) . . .
62(4) . . .
64(4) . . .
70(4) . . .
66(4) . . .
58(4) . . .
63(4) . . .
58(4) . . .
56(4) . . .
57(4) . . .
54(4) . . .
52(4) . . .
66(5) . . .
69(4) . . .
60(4) . . .
66(5) . . .
61(4) . . .
55(4) . . .
63(4) . . .
64(4) . . .
63(4) . . .
58(4) . . .
62(4) . . .
71(4) . . .
71(4) . . .
62(4) . . .
69(4) . . .
67(4) . . .
69(4) . . .
71(4) . . .
65(4) . . .
65(4) . . .
59(4) . . .
67(4) . . .
61(4) . . .
60(4) . . .
48(4) . . .
57(4) . . .
60(4) . . .
63(4) . . .
59(4) . . .
67(4) . . .
65(4) . . .
76(5) . . .
54(4) . . .
63(5) . . .
74(5) . . .
68(4) . . .
52(4) . . .
49(4) . . .
64(4) . . .
62(4) . . .
56(4) . . .
69(5) . . .
65(4) . . .
58(4) . . .
74(5) . . .
57(4) . . .
63(4) . . .
54(4) . . .
61(4) . . .
62(4) . . .
64(4) . . .
56(4) . . .
61(4) . . .
65(4) . . .
60(4) . . .
64(4) . . .
57(4) . . .
67(5) . . .
59(4) . . .
66(4) . . .
67(4) . . .
73(5) . . .
64(4) . . .
75(5) . . .
58(4) . . .
74(5) . . .
60(4) . . .
61(4) . . .
64(4) . . .
64(4) . . .
60(4) . . .
50(4) . . .
62(5) . . .
67(5) . . .
66(4) . . .
56(4) . . .
61(4) . . .
63(4) . . .
66(4) . . .
69(4) . . .
63(4) . . .
63(4) . . .
62(4) . . .
54(4) . . .
63(4) . . .
68(4) . . .
59(4) . . .
58(4) . . .
56(4) . . .
63(4) . . .
64(4) . . .
61(4) . . .
62(4) . . .
65(4) . . .
64(4) . . .
59(4) . . .
60(4) . . .
74(5) . . .
67(4) . . .
54(4) . . .
54(4) . . .
60(4) . . .
70(5) . . .
71(4) . . .
73(4) . . .
68(4) . . .
63(4) . . .
67(5) . . .
67(4) . . .
64(4) . . .
62(4) . . .
68(5) . . .
69(5) . . .
67(4) . . .
65(4) . . .
60(4) . . .
52(4) . . .
60(4) . . .
56(4) . . .
66(4) . . .
57(4) . . .
57(4) . . .
59(4) . . .
69(4) . . .
62(4) . . .
57(4) . . .
58(4) . . .
63(4) . . .
72(4) . . .
59(4) . . .
56(4) . . .
72(5) . . .
67(4) . . .
70(4) . . .
58(4) . . .
62(4) . . .
69(5) . . .
64(4) . . .
65(4) . . .
61(4) . . .
66(4) . . .
66(4) . . .
62(4) . . .
62(4) . . .
68(4) . . .
59(4) . . .
54(4) . . .
62(5) . . .
61(4) . . .
55(4) . . .
65(4) . . .
67(4) . . .
56(4) . . .
58(4) . . .
62(4) . . .
69(4) . . .
67(4) . . .
63(4) . . .
62(4) . . .
66(4) . . .
64(4) . . .
60(4) . . .
54(4) . . .
65(4) . . .
70(5) . . .
67(4) . . .
63(4) . . .
62(4) . . .
70(4) . . .
65(4) . . .
56(4) . . .
61(4) . . .
56(4) . . .
59(4) . . .
58(4) . . .
57(4) . . .
63(4) . . .
67(4) . . .
61(4) . . .
61(4) . . .
75(5) . . .
72(5) . . .
69(4) . . .
76(4) . . .
63(4) . . .
58(4) . . .
47(4) . . .
75(4) . . .
57(4) . . .
49(4) . . .
61(4) . . .
60(4) . . .
66(4) . . .
51(4) . . .
62(4) . . .
70(5) . . .
73(4) . . .
60(4) . . .
57(4) . . .
59(4) . . .
62(4) . . .
58(4) . . .
67(4) . . .
58(4) . . .
66(5) . . .
66(4) . . .
60(4) . . .
80(5) . . .
62(4) . . .
65(4) . . .
68(4) . . .
76(5) . . .
65(4) . . .
61(4) . . .
57(4) . . .
72(5) . . .
66(4) . . .
60(4) . . .
65(4) . . .
71(5) . . .
64(4) . . .
63(4) . . .
55(4) . . .
67(4) . . .
61(4) . . .
68(4) . . .
56(4) . . .
65(4) . . .
68(4) . . .
66(5) . . .
78(5) . . .
62(4) . . .
71(4) . . .
56(4) . . .
60(4) . . .
51(4) . . .
59(4) . . .
69(4) . . .
52(4) . . .
67(5) . . .
55(4) . . .
61(4) . . .
55(4) . . .
66(4) . . .
65(4) . . .
57(4) . . .
57(4) . . .
60(4) . . .
53(4) . . .
70(5) . . .
58(4) . . .
55(4) . . .
66(4) . . .
58(4) . . .
64(4) . . .
61(4) . . .
62(4) . . .
69(4) . . .
63(4) . . .
47(4) . . .
63(4) . . .
69(4) . . .
69(4) . . .
63(4) . . .
54(4) . . .
58(4) . . .
63(4) . . .
58(4) . . .
58(4) . . .
62(4) . . .
67(4) . . .
66(4) . . .
69(4) . . .
56(4) . . .
66(4) . . .
52(4) . . .
53(4) . . .
59(4) . . .
59(4) . . .
67(4) . . .
52(4) . . .
56(4) . . .
59(4) . . .
53(4) . . .
63(4) . . .
61(4) . . .
61(4) . . .
63(4) . . .
62(4) . . .
69(5) . . .
45.6(35) . . .
65(4) . . .
57(4) . . .
63(4) . . .
54(4) . . .
62(4) . . .
60(4) . . .
57(4) . . .
66(4) . . .
56(4) . . .
69(4) . . .
68(5) . . .
68(5) . . .
74(5) . . .
61(4) . . .
63(4) . . .
79(5) . . .
69(5) . . .
65(4) . . .
54(4) . . .
57(4) . . .
58(4) . . .
61(4) . . .
54(4) . . .
60(4) . . .
64(4) . . .
63(4) . . .
63(4) . . .
72(4) . . .
63(4) . . .
64(4) . . .
60(4) . . .
68(5) . . .
53(4) . . .
60(4) . . .
56(4) . . .
48(4) . . .
62(4) . . .
65(4) . . .
67(4) . . .
49(4) . . .
56(4) . . .
62(4) . . .
56(4) . . .
69(4) . . .
59(4) . . .
60(4) . . .
67(5) . . .
71(5) . . .
60(4) . . .
60(4) . . .
69(4) . . .
62(4) . . .
60(4) . . .
61(4) . . .
65(4) . . .
69(5) . . .
67(5) . . .
66(4) . . .
57(4) . . .
54(4) . . .
53(4) . . .
53(4) . . .
60(4) . . .
57(4) . . .
59(4) . . .
60(4) . . .
65(4) . . .
54(4) . . .
56(4) . . .
68(4) . . .
68(4) . . .
70(5) . . .
62(4) . . .
62(4) . . .
63(4) . . .
70(5) . . .
59(4) . . .
61(4) . . .
60(4) . . .
58(4) . . .
64(4) . . .
51(4) . . .
64(4) . . .
62(4) . . .
63(4) . . .
61(4) . . .
71(5) . . .
59(4) . . .
62(4) . . .
64(4) . . .
65(4) . . .
57(4) . . .
62(4) . . .
69(4) . . .
65(4) . . .
75(5) . . .
64(4) . . .
66(4) . . .
62(4) . . .
54(4) . . .
63(4) . . .
58(4) . . .
70(4) . . .
57(4) . . .
55(4) . . .
68(5) . . .
61(4) . . .
63(4) . . .
64(4) . . .
64(4) . . .
56(4) . . .
51(4) . . .
59(4) . . .
64(4) . . .
71(5) . . .
58(4) . . .
58(4) . . .
54(4) . . .
65(4) . . .
70(5) . . .
53(4) . . .
56(4) . . .
60(4) . . .
50(4) . . .
72(5) . . .
72(5) . . .
64(4) . . .
73(5) . . .
69(4) . . .
59(4) . . .
57(4) . . .
76(5) . . .
65(4) . . .
61(4) . . .
61(4) . . .
53(4) . . .
58(4) . . .
56(4) . . .
66(4) . . .
62(5) . . .
55(4) . . .
62(4) . . .
58(4) . . .
62(4) . . .
54(4) . . .
72(5) . . .
66(4) . . .
53(4) . . .
58(4) . . .
70(5) . . .
56(4) . . .
52(4) . . .
56(4) . . .
62(4) . . .
56(4) . . .
56(4) . . .
71(4) . . .
63(4) . . .
70(5) . . .
66(5) . . .
63(4) . . .
66(4) . . .
53(4) . . .
60(4) . . .
66(5) . . .
60(4) . . .
58(4) . . .
74(5) . . .
56(4) . . .
67(4) . . .
70(4) . . .
55(4) . . .
67(5) . . .
62(4) . . .
55(4) . . .
56(4) . . .
51(4) . . .
59(4) . . .
60(4) . . .
66(5) . . .
53(4) . . .
54(4) . . .
60(4) . . .
59(4) . . .
52(4) . . .
59(4) . . .
54(4) . . .
57(4) . . .
63(5) . . .
62(4) . . .
69(4) . . .
62(4) . . .
64(4) . . .
60(4) . . .
58(4) . . .
62(4) . . .
51(4) . . .
63(4) . . .
60(4) . . .
55(4) . . .
69(4) . . .
59(4) . . .
62(4) . . .
60(4) . . .
64(4) . . .
64(4) . . .
60(4) . . .
59(4) . . .
54(4) . . .
56(4) . . .
53(4) . . .
57(4) . . .
62(4) . . .
57(4) . . .
52(4) . . .
66(4) . . .
61(4) . . .
66(4) . . .
74(5) . . .
58(4) . . .
65(4) . . .
61(4) . . .
52(4) . . .
54(4) . . .
60(4) . . .
66(4) . . .
48(4) . . .
61(4) . . .
62(4) . . .
71(4) . . .
58(4) . . .
61(4) . . .
73(5) . . .
58(4) . . .
65(4) . . .
58(4) . . .
60(4) . . .
62(5) . . .
60(4) . . .
62(4) . . .
57(4) . . .
66(4) . . .
75(5) . . .
64(4) . . .
44.7(35) . . .
66(4) . . .
65(4) . . .
61(4) . . .
51(4) . . .
59(4) . . .
58(4) . . .
49(4) . . .
63(4) . . .
63(4) . . .
55(4) . . .
61(4) . . .
58(4) . . .
67(5) . . .
62(4) . . .
67(4) . . .
67(4) . . .
60(4) . . .
68(4) . . .
70(4) . . .
67(4) . . .
66(4) . . .
61(4) . . .
70(5) . . .
68(4) . . .
68(4) . . .
57(4) . . .
60(4) . . .
62(4) . . .
39.5(32) . . .
61(4) . . .
64(4) . . .
59(4) . . .
66(5) . . .
55(4) . . .
54(4) . . .
68(5) . . .
63(4) . . .
60(4) . . .
70(5) . . .
65(4) . . .
60(4) . . .
60(4) . . .
61(4) . . .
64(4) . . .
71(4) . . .
79(5) . . .
58(4) . . .
59(4) . . .
64(4) . . .
57(4) . . .
65(4) . . .
58(4) . . .
49(4) . . .
61(4) . . .
69(4) . . .
60(4) . . .
53(4) . . .
55(4) . . .
62(4) . . .
54(4) . . .
50(4) . . .
63(4) . . .
59(4) . . .
61(4) . . .
58(4) . . .
59(4) . . .
60(4) . . .
52(4) . . .
51(4) . . .
56(4) . . .
76(5) . . .
61(4) . . .
62(4) . . .
57(4) . . .
59(4) . . .
58(4) . . .
62(4) . . .
57(4) . . .
62(4) . . .
62(4) . . .
55(4) . . .
58(4) . . .
66(4) . . .
62(4) . . .
57(4) . . .
60(4) . . .
44(4) . . .
47(4) . . .
52(4) . . .
57(4) . . .
62(4) . . .
54(4) . . .
64(4) . . .
62(4) . . .
65(4) . . .
64(4) . . .
61(4) . . .
62(4) . . .
60(4) . . .
66(4) . . .
67(4) . . .
64(4) . . .
67(4) . . .
59(4) . . .
70(5) . . .
66(5) . . .
60(4) . . .
60(4) . . .
45(4) . . .
53(4) . . .
62(4) . . .
66(4) . . .
43.8(35) . . .
56(4) . . .
58(4) . . .
66(5) . . .
58(4) . . .
49(4) . . .
54(4) . . .
61(4) . . .
54(4) . . .
56(4) . . .
60(4) . . .
73(5) . . .
73(5) . . .
64(4) . . .
51(4) . . .
60(4) . . .
54(4) . . .
58(4) . . .
65(4) . . .
74(5) . . .
68(4) . . .
62(4) . . .
56(4) . . .
60(4) . . .
66(4) . . .
64(4) . . .
65(4) . . .
55(4) . . .
52(4) . . .
62(4) . . .
62(4) . . .
82(5) . . .
57(4) . . .
62(4) . . .
58(4) . . .
64(4) . . .
54(4) . . .
60(4) . . .
62(4) . . .
62(4) . . .
54(4) . . .
49(4) . . .
54(4) . . .
59(4) . . .
64(4) . . .
64(4) . . .
55(4) . . .
52(4) . . .
57(4) . . .
61(4) . . .
62(4) . . .
54(4) . . .
59(4) . . .
57(4) . . .
65(4) . . .
60(4) . . .
55(4) . . .
57(4) . . .
66(4) . . .
59(4) . . .
66(4) . . .
60(4) . . .
61(4) . . .
68(4) . . .
61(4) . . .
55(4) . . .
57(4) . . .
58(4) . . .
56(4) . . .
67(4) . . .
60(4) . . .
70(5) . . .
67(4) . . .
69(4) . . .
68(4) . . .
67(4) . . .
59(4) . . .
66(4) . . .
65(4) . . .
54(4) . . .
51(4) . . .
64(5) . . .
57(4) . . .
54(4) . . .
51(4) . . .
58(4) . . .
56(4) . . .
56(4) . . .
63(4) . . .
62(4) . . .
64(4) . . .
57(4) . . .
62(4) . . .
68(4) . . .
62(4) . . .
63(4) . . .
55(4) . . .
51(4) . . .
69(4) . . .
66(4) . . .
65(4) . . .
66(4) . . .
58(4) . . .
51(4) . . .
59(4) . . .
64(4) . . .
58(4) . . .
63(4) . . .
52(4) . . .
74(5) . . .
57(4) . . .
59(4) . . .
47(4) . . .
53(4) . . .
78(5) . . .
59(4) . . .
59(4) . . .
65(4) . . .
65(4) . . .
56(4) . . .
60(4) . . .
54(4) . . .
62(4) . . .
56(4) . . .
61(4) . . .
49(4) . . .
60(4) . . .
68(4) . . .
60(4) . . .
80(5) . . .
58(4) . . .
66(4) . . .
59(4) . . .
48(4) . . .
60(4) . . .
68(5) . . .
60(4) . . .
56(4) . . .
63(4) . . .
67(4) . . .
54(4) . . .
53(4) . . .
66(4) . . .
63(4) . . .
62(4) . . .
65(4) . . .
61(4) . . .
53(4) . . .
57(4) . . .
50(4) . . .
60(4) . . .
63(4) . . .
44.8(35) . . .
60(4) . . .
65(4) . . .
62(4) . . .
64(4) . . .
59(4) . . .
55(4) . . .
75(5) . . .
62(4) . . .
61(4) . . .
56(4) . . .
65(4) . . .
62(4) . . .
67(5) . . .
56(4) . . .
53(4) . . .
56(4) . . .
52(4) . . .
60(4) . . .
44.7(34) . . .
64(4) . . .
57(4) . . .
61(4) . . .
61(4) . . .
58(4) . . .
59(4) . . .
70(5) . . .
64(4) . . .
65(4) . . .
55(4) . . .
67(4) . . .
61(4) . . .
56(4) . . .
62(4) . . .
69(4) . . .
53(4) . . .
57(4) . . .
69(5) . . .
64(4) . . .
56(4) . . .
54(4) . . .
67(4) . . .
54(4) . . .
59(4) . . .
69(4) . . .
60(4) . . .
70(5) . . .
57(4) . . .
58(4) . . .
62(4) . . .
55(4) . . .
59(4) . . .
59(4) . . .
52(4) . . .
58(4) . . .
54(4) . . .
62(4) . . .
57(4) . . .
57(4) . . .
57(4) . . .
56(4) . . .
76(5) . . .
65(4) . . .
54(4) . . .
60(4) . . .
71(5) . . .
57(4) . . .
63(4) . . .
59(4) . . .
64(4) . . .
55(4) . . .
54(4) . . .
62(4) . . .
67(4) . . .
58(4) . . .
53(4) . . .
56(4) . . .
69(5) . . .
58(4) . . .
60(4) . . .
62(4) . . .
55(4) . . .
67(4) . . .
61(4) . . .
58(4) . . .
63(4) . . .
57(4) . . .
57(4) . . .
65(4) . . .
63(4) . . .
61(4) . . .
67(5) . . .
55(4) . . .
54(4) . . .
58(4) . . .
58(4) . . .
68(5) . . .
60(4) . . .
64(4) . . .
55(4) . . .
64(4) . . .
63(4) . . .
52(4) . . .
61(4) . . .
58(4) . . .
47(4) . . .
59(4) . . .
58(4) . . .
54(4) . . .
65(4) . . .
62(4) . . .
60(4) . . .
56(4) . . .
57(4) . . .
63(4) . . .
60(4) . . .
52(4) . . .
57(4) . . .
44.5(35) . . .
53(4) . . .
61(4) . . .
60(4) . . .
48(4) . . .
63(4) . . .
68(4) . . .
64(5) . . .
56(4) . . .
57(4) . . .
68(4) . . .
68(4) . . .
73(5) . . .
58(4) . . .
58(4) . . .
53(4) . . .
59(4) . . .
70(5) . . .
60(4) . . .
58(4) . . .
60(4) . . .
65(4) . . .
57(4) . . .
68(5) . . .
72(4) . . .
73(5) . . .
60(4) . . .
61(4) . . .
67(4) . . .
58(4) . . .
52(4) . . .
62(4) . . .
57(4) . . .
65(4) . . .
61(4) . . .
57(4) . . .
57(4) . . .
67(4) . . .
63(4) . . .
66(4) . . .
61(4) . . .
54(4) . . .
65(4) . . .
64(4) . . .
52(4) . . .
50(4) . . .
65(5) . . .
64(4) . . .
68(4) . . .
61(4) . . .
59(4) . . .
55(4) . . .
58(4) . . .
58(4) . . .
53(4) . . .
55(4) . . .
61(4) . . .
63(4) . . .
56(4) . . .
61(4) . . .
61(4) . . .
70(5) . . .
62(4) . . .
68(4) . . .
62(4) . . .
62(4) . . .
58(4) . . .
58(4) . . .
64(4) . . .
68(4) . . .
69(4) . . .
70(5) . . .
58(4) . . .
63(4) . . .
54(4) . . .
62(4) . . .
60(4) . . .
65(4) . . .
53(4) . . .
57(4) . . .
62(4) . . .
57(4) . . .
61(4) . . .
57(4) . . .
50(4) . . .
57(4) . . .
53(4) . . .
62(4) . . .
56(4) . . .
61(4) . . .
57(4) . . .
60(4) . . .
71(5) . . .
55(4) . . .
61(4) . . .
56(4) . . .
54(4) . . .
58(4) . . .
49(4) . . .
56(4) . . .
60(4) . . .
65(4) . . .
59(4) . . .
58(4) . . .
57(4) . . .
64(5) . . .
56(4) . . .
56(4) . . .
60(4) . . .
61(4) . . .
56(4) . . .
62(4) . . .
60(4) . . .
66(4) . . .
69(5) . . .
58(4) . . .
58(4) . . .
58(4) . . .
63(4) . . .
51(4) . . .
67(5) . . .
55(4) . . .
60(4) . . .
61(4) . . .
65(4) . . .
55(4) . . .
51(4) . . .
57(4) . . .
66(4) . . .
57(4) . . .
57(4) . . .
61(4) . . .
63(4) . . .
58(4) . . .
56(4) . . .
57(4) . . .
59(4) . . .
55(4) . . .
62(4) . . .
59(4) . . .
55(4) . . .
54(4) . . .
57(4) . . .
55(4) . . .
60(4) . . .
58(4) . . .
51(4) . . .
58(4) . . .
55(4) . . .
57(4) . . .
56(4) . . .
47(4) . . .
67(4) . . .
64(4) . . .
64(5) . . .
47(4) . . .
50(4) . . .
58(4) . . .
59(4) . . .
54(4) . . .
68(4) . . .
54(4) . . .
70(4) . . .
55(4) . . .
63(4) . . .
59(4) . . .
62(4) . . .
64(4) . . .
66(4) . . .
61(4) . . .
68(5) . . .
67(4) . . .
66(4) . . .
70(5) . . .
68(5) . . .
63(4) . . .
67(4) . . .
57(4) . . .
68(4) . . .
60(4) . . .
63(4) . . .
66(4) . . .
60(4) . . .
58(4) . . .
53(4) . . .
62(4) . . .
64(4) . . .
70(4) . . .
72(5) . . .
66(5) . . .
62(4) . . .
49(4) . . .
55(4) . . .
56(4) . . .
55(4) . . .
60(4) . . .
62(4) . . .
52(4) . . .
59(4) . . .
56(4) . . .
62(4) . . .
68(4) . . .
68(4) . . .
57(4) . . .
66(4) . . .
65(4) . . .
51(4) . . .
51(4) . . .
54(4) . . .
63(4) . . .
51(4) . . .
58(4) . . .
60(4) . . .
59(4) . . .
64(4) . . .
58(4) . . .
58(4) . . .
61(4) . . .
56(4) . . .
56(4) . . .
55(4) . . .
58(4) . . .
62(4) . . .
61(4) . . .
62(4) . . .
56(4) . . .
56(4) . . .
56(4) . . .
54(4) . . .
60(4) . . .
56(4) . . .
58(4) . . .
62(4) . . .
53(4) . . .
50(4) . . .
51(4) . . .
51(4) . . .
55(4) . . .
67(4) . . .
64(4) . . .
69(4) . . .
55(4) . . .
60(4) . . .
59(4) . . .
57(4) . . .
58(4) . . .
47(4) . . .
64(4) . . .
69(5) . . .
58(4) . . .
55(4) . . .
66(4) . . .
63(4) . . .
57(4) . . .
69(4) . . .
73(4) . . .
55(4) . . .
62(4) . . .
63(4) . . .
67(4) . . .
51(4) . . .
45(4) . . .
60(4) . . .
66(4) . . .
71(4) . . .
56(4) . . .
54(4) . . .
60(5) . . .
58(4) . . .
64(4) . . .
63(4) . . .
63(4) . . .
61(4) . . .
54(4) . . .
67(4) . . .
61(4) . . .
64(4) . . .
52(4) . . .
69(4) . . .
56(4) . . .
65(4) . . .
64(4) . . .
69(5) . . .
53(4) . . .
55(4) . . .
53(4) . . .
65(4) . . .
49(4) . . .
64(4) . . .
60(4) . . .
65(4) . . .
64(4) . . .
60(4) . . .
53(4) . . .
44.1(34) . . .
70(4) . . .
60(4) . . .
53(4) . . .
67(4) . . .
59(4) . . .
69(5) . . .
58(4) . . .
55(4) . . .
68(4) . . .
49(4) . . .
56(4) . . .
52(4) . . .
64(4) . . .
61(4) . . .
59(4) . . .
57(4) . . .
62(5) . . .
58(4) . . .
51(4) . . .
55(4) . . .
50(4) . . .
60(4) . . .
63(4) . . .
76(5) . . .
57(4) . . .
54(4) . . .
45(4) . . .
60(4) . . .
64(4) . . .
74(4) . . .
70(5) . . .
54(4) . . .
58(4) . . .
65(4) . . .
60(4) . . .
63(4) . . .
54(4) . . .
52(4) . . .
57(4) . . .
58(4) . . .
56(4) . . .
59(4) . . .
63(5) . . .
56(4) . . .
59(4) . . .
53(4) . . .
57(4) . . .
61(4) . . .
59(4) . . .
53(4) . . .
52(4) . . .
71(5) . . .
62(4) . . .
60(4) . . .
56(4) . . .
59(4) . . .
60(4) . . .
55(4) . . .
48(4) . . .
57(4) . . .
69(5) . . .
55(4) . . .
56(4) . . .
68(4) . . .
78(5) . . .
67(5) . . .
57(4) . . .
70(4) . . .
58(4) . . .
57(4) . . .
46(4) . . .
67(4) . . .
65(4) . . .
54(4) . . .
59(4) . . .
48(4) . . .
50(4) . . .
58(4) . . .
68(4) . . .
68(4) . . .
57(4) . . .
64(4) . . .
68(4) . . .
63(4) . . .
62(4) . . .
62(4) . . .
54(4) . . .
54(4) . . .
71(4) . . .
63(4) . . .
58(4) . . .
53(4) . . .
60(4) . . .
63(4) . . .
48(4) . . .
62(5) . . .
51(4) . . .
53(4) . . .
51(4) . . .
53(4) . . .
59(4) . . .
62(4) . . .
53(4) . . .
56(4) . . .
61(4) . . .
63(4) . . .
69(4) . . .
53(4) . . .
57(4) . . .
49(4) . . .
67(4) . . .
57(4) . . .
60(4) . . .
76(5) . . .
52(4) . . .
57(4) . . .
61(4) . . .
56(4) . . .
74(4) . . .
69(5) . . .
56(4) . . .
46.5(35) . . .
60(4) . . .
59(4) . . .
71(5) . . .
63(4) . . .
56(4) . . .
62(4) . . .
58(4) . . .
50(4) . . .
48(4) . . .
50(4) . . .
61(4) . . .
68(4) . . .
66(4) . . .
58(4) . . .
62(4) . . .
67(4) . . .
55(4) . . .
54(4) . . .
57(4) . . .
58(4) . . .
64(4) . . .
57(4) . . .
59(4) . . .
54(4) . . .
61(4) . . .
61(4) . . .
55(4) . . .
58(4) . . .
61(4) . . .
59(4) . . .
49(4) . . .
60(4) . . .
47(4) . . .
56(4) . . .
58(4) . . .
52(4) . . .
53(4) . . .
58(4) . . .
59(4) . . .
60(4) . . .
54(4) . . .
61(4) . . .
69(5) . . .
61(4) . . .
62(4) . . .
60(4) . . .
62(4) . . .
72(5) . . .
53(4) . . .
63(4) . . .
50(4) . . .
50(4) . . .
57(4) . . .
55(4) . . .
61(4) . . .
56(4) . . .
57(4) . . .
61(4) . . .
51(4) . . .
61(4) . . .
63(4) . . .
59(4) . . .
57(4) . . .
51(4) . . .
63(4) . . .
63(4) . . .
67(5) . . .
65(4) . . .
59(4) . . .
53(4) . . .
51(4) . . .
62(4) . . .
60(4) . . .
54(4) . . .
61(4) . . .
60(4) . . .
53(4) . . .
55(4) . . .
63(4) . . .
55(4) . . .
62(4) . . .
60(4) . . .
62(4) . . .
57(4) . . .
51(4) . . .
56(4) . . .
54(4) . . .
54(4) . . .
56(4) . . .
64(4) . . .
51(4) . . .
51(4) . . .
57(4) . . .
55(4) . . .
60(4) . . .
58(4) . . .
57(4) . . .
60(4) . . .
61(4) . . .
47(4) . . .
60(5) . . .
54(4) . . .
54(4) . . .
54(4) . . .
52(4) . . .
48(4) . . .
55(4) . . .
62(4) . . .
63(4) . . .
57(4) . . .
59(4) . . .
68(4) . . .
61(4) . . .
60(4) . . .
64(4) . . .
61(4) . . .
58(4) . . .
59(4) . . .
56(4) . . .
68(4) . . .
62(4) . . .
56(4) . . .
53(4) . . .
58(4) . . .
62(4) . . .
77(5) . . .
57(4) . . .
65(4) . . .
55(4) . . .
61(4) . . .
62(4) . . .
70(4) . . .
62(4) . . .
58(4) . . .
62(4) . . .
54(4) . . .
61(4) . . .
67(4) . . .
58(4) . . .
61(4) . . .
58(4) . . .
55(4) . . .
52(4) . . .
52(4) . . .
48(4) . . .
56(4) . . .
62(4) . . .
52(4) . . .
68(4) . . .
72(5) . . .
45(4) . . .
51(4) . . .
57(4) . . .
54(4) . . .
60(4) . . .
56(4) . . .
51(4) . . .
48(4) . . .
44(4) . . .
56(4) . . .
61(4) . . .
61(4) . . .
67(4) . . .
58(4) . . .
52(4) . . .
67(5) . . .
51(4) . . .
62(4) . . .
61(4) . . .
48(4) . . .
58(4) . . .
54(4) . . .
56(4) . . .
62(4) . . .
60(4) . . .
61(4) . . .
52(4) . . .
60(4) . . .
54(4) . . .
57(4) . . .
50(4) . . .
56(4) . . .
54(4) . . .
59(4) . . .
60(4) . . .
58(4) . . .
64(4) . . .
57(4) . . .
60(4) . . .
52(4) . . .
51(4) . . .
50(4) . . .
65(4) . . .
56(4) . . .
57(4) . . .
56(4) . . .
60(4) . . .
66(4) . . .
69(5) . . .
63(4) . . .
53(4) . . .
47(4) . . .
49(4) . . .
62(5) . . .
56(4) . . .
63(4) . . .
55(4) . . .
61(4) . . .
63(4) . . .
63(4) . . .
47(4) . . .
59(4) . . .
65(5) . . .
71(4) . . .
69(4) . . .
49(4) . . .
47(4) . . .
67(4) . . .
70(5) . . .
55(4) . . .
61(4) . . .
61(4) . . .
61(4) . . .
50(4) . . .
54(4) . . .
50(4) . . .
50(4) . . .
46.1(35) . . .
71(5) . . .
66(4) . . .
54(4) . . .
54(4) . . .
60(4) . . .
55(4) . . .
60(4) . . .
45(4) . . .
60(4) . . .
54(4) . . .
54(4) . . .
58(4) . . .
60(4) . . .
59(4) . . .
57(4) . . .
75(5) . . .
63(4) . . .
60(4) . . .
64(4) . . .
58(4) . . .
64(4) . . .
56(4) . . .
62(4) . . .
55(4) . . .
68(5) . . .
53(4) . . .
55(4) . . .
55(4) . . .
52(4) . . .
57(4) . . .
49(4) . . .
57(4) . . .
71(5) . . .
53(4) . . .
57(4) . . .
57(4) . . .
58(4) . . .
67(4) . . .
61(4) . . .
67(5) . . .
51(4) . . .
58(4) . . .
59(4) . . .
57(4) . . .
68(5) . . .
56(4) . . .
64(4) . . .
50(4) . . .
61(4) . . .
52(4) . . .
54(4) . . .
64(4) . . .
57(4) . . .
59(4) . . .
55(4) . . .
58(4) . . .
50(4) . . .
60(4) . . .
61(4) . . .
70(5) . . .
55(4) . . .
57(4) . . .
60(4) . . .
61(4) . . .
60(4) . . .
59(4) . . .
49(4) . . .
58(4) . . .
67(5) . . .
64(4) . . .
60(4) . . .
60(4) . . .
63(4) . . .
59(4) . . .
58(4) . . .
55(4) . . .
47(4) . . .
58(4) . . .
55(4) . . .
57(4) . . .
62(4) . . .
61(4) . . .
66(5) . . .
53(4) . . .
60(4) . . .
63(4) . . .
62(4) . . .
57(4) . . .
57(4) . . .
54(4) . . .
55(4) . . .
54(4) . . .
63(4) . . .
55(4) . . .
54(4) . . .
58(4) . . .
58(4) . . .
58(4) . . .
48(4) . . .
57(4) . . .
60(4) . . .
56(4) . . .
61(4) . . .
63(4) . . .
66(4) . . .
51(4) . . .
56(4) . . .
60(4) . . .
56(4) . . .
66(4) . . .
53(4) . . .
48(4) . . .
63(4) . . .
61(4) . . .
55(4) . . .
53(4) . . .
60(4) . . .
63(4) . . .
63(4) . . .
65(4) . . .
60(4) . . .
52(4) . . .
58(4) . . .
58(4) . . .
43.0(34) . . .
65(4) . . .
59(4) . . .
65(4) . . .
54(4) . . .
60(4) . . .
55(4) . . .
56(4) . . .
64(4) . . .
53(4) . . .
58(4) . . .
58(4) . . .
53(4) . . .
68(5) . . .
65(4) . . .
60(4) . . .
63(4) . . .
63(4) . . .
57(4) . . .
57(4) . . .
57(4) . . .
62(4) . . .
69(5) . . .
52(4) . . .
53(4) . . .
53(4) . . .
50(4) . . .
49(4) . . .
58(4) . . .
59(4) . . .
56(4) . . .
59(4) . . .
43.7(34) . . .
58(4) . . .
61(4) . . .
65(4) . . .
62(4) . . .
62(4) . . .
61(4) . . .
59(4) . . .
48(4) . . .
59(4) . . .
56(4) . . .
54(4) . . .
46(4) . . .
57(4) . . .
59(4) . . .
53(4) . . .
55(4) . . .
65(4) . . .
59(4) . . .
55(4) . . .
60(4) . . .
58(4) . . .
52(4) . . .
61(4) . . .
61(4) . . .
54(4) . . .
62(4) . . .
57(4) . . .
58(4) . . .
69(5) . . .
51(4) . . .
58(4) . . .
47(4) . . .
52(4) . . .
43(4) . . .
53(4) . . .
57(4) . . .
56(4) . . .
48(4) . . .
48(4) . . .
53(4) . . .
48(4) . . .
51(4) . . .
61(4) . . .
57(4) . . .
62(4) . . .
64(4) . . .
51(4) . . .
56(4) . . .
55(4) . . .
57(4) . . .
61(4) . . .
62(4) . . .
71(5) . . .
59(4) . . .
59(4) . . .
66(4) . . .
62(4) . . .
68(4) . . .
66(4) . . .
61(4) . . .
68(4) . . .
61(4) . . .
53(4) . . .
54(4) . . .
49(4) . . .
58(4) . . .
49(4) . . .
52(4) . . .
53(4) . . .
62(4) . . .
56(4) . . .
57(4) . . .
56(4) . . .
58(4) . . .
58(4) . . .
68(4) . . .
54(4) . . .
48(4) . . .
52(4) . . .
55(4) . . .
51(4) . . .
54(4) . . .
49(4) . . .
62(4) . . .
66(4) . . .
68(4) . . .
57(4) . . .
59(4) . . .
47(4) . . .
48(4) . . .
58(4) . . .
66(4) . . .
51(4) . . .
55(4) . . .
55(4) . . .
60(4) . . .
60(4) . . .
64(5) . . .
52(4) . . .
43.9(35) . . .
48(4) . . .
50(4) . . .
61(4) . . .
57(4) . . .
67(4) . . .
68(4) . . .
55(4) . . .
63(4) . . .
61(4) . . .
64(4) . . .
49(4) . . .
62(4) . . .
61(4) . . .
67(4) . . .
59(4) . . .
64(4) . . .
61(4) . . .
57(4) . . .
62(4) . . .
54(4) . . .
57(4) . . .
61(4) . . .
49(4) . . .
51(4) . . .
55(4) . . .
67(4) . . .
57(4) . . .
57(4) . . .
52(4) . . .
64(4) . . .
58(4) . . .
53(4) . . .
64(4) . . .
57(4) . . .
56(4) . . .
61(4) . . .
55(4) . . .
55(4) . . .
58(4) . . .
60(4) . . .
49(4) . . .
57(4) . . .
56(4) . . .
52(4) . . .
55(4) . . .
56(4) . . .
47(4) . . .
54(4) . . .
60(4) . . .
61(4) . . .
51(4) . . .
66(5) . . .
46.3(35) . . .
57(4) . . .
66(4) . . .
53(4) . . .
54(4) . . .
61(4) . . .
54(4) . . .
54(4) . . .
51(4) . . .
58(4) . . .
55(4) . . .
49(4) . . .
65(4) . . .
58(4) . . .
50(4) . . .
47(4) . . .
60(4) . . .
54(4) . . .
53(4) . . .
57(4) . . .
55(4) . . .
54(4) . . .
54(4) . . .
65(4) . . .
58(4) . . .
59(4) . . .
51(4) . . .
54(4) . . .
48(4) . . .
57(4) . . .
58(4) . . .
59(4) . . .
57(4) . . .
47(4) . . .
51(4) . . .
43.0(34) . . .
58(4) . . .
67(4) . . .
49(4) . . .
57(4) . . .
49(4) . . .
55(4) . . .
59(4) . . .
62(4) . . .
58(4) . . .
57(4) . . .
58(4) . . .
63(5) . . .
56(4) . . .
62(4) . . .
59(4) . . .
57(4) . . .
65(4) . . .
57(4) . . .
58(4) . . .
60(4) . . .
54(4) . . .
55(4) . . .
51(4) . . .
46(4) . . .
49(4) . . .
51(4) . . .
50(4) . . .
44.2(35) . . .
59(4) . . .
52(4) . . .
45(4) . . .
55(4) . . .
70(4) . . .
62(4) . . .
52(4) . . .
50(4) . . .
61(4) . . .
60(4) . . .
49(4) . . .
58(4) . . .
61(4) . . .
54(4) . . .
62(4) . . .
59(4) . . .
58(4) . . .
57(4) . . .
57(4) . . .
63(4) . . .
54(4) . . .
57(4) . . .
52(4) . . .
58(4) . . .
52(4) . . .
55(4) . . .
55(4) . . .
52(4) . . .
56(4) . . .
64(4) . . .
67(4) . . .
58(4) . . .
62(4) . . .
57(4) . . .
55(4) . . .
61(4) . . .
50(4) . . .
49(4) . . .
51(4) . . .
58(4) . . .
57(4) . . .
58(4) . . .
59(4) . . .
59(4) . . .
51(4) . . .
48(4) . . .
65(4) . . .
48(4) . . .
51(4) . . .
51(4) . . .
55(4) . . .
50(4) . . .
56(4) . . .
65(4) . . .
53(4) . . .
53(4) . . .
62(4) . . .
61(4) . . .
52(4) . . .
59(4) . . .
56(4) . . .
53(4) . . .
54(4) . . .
55(4) . . .
65(4) . . .
62(4) . . .
54(4) . . .
65(4) . . .
62(4) . . .
67(4) . . .
49(4) . . .
49(4) . . .
53(4) . . .
54(4) . . .
55(4) . . .
51(4) . . .
55(4) . . .
51(4) . . .
54(4) . . .
57(4) . . .
60(4) . . .
54(4) . . .
68(5) . . .
59(4) . . .
53(4) . . .
58(4) . . .
52(4) . . .
60(4) . . .
58(4) . . .
61(4) . . .
58(4) . . .
64(4) . . .
65(4) . . .
64(4) . . .
64(5) . . .
57(4) . . .
55(4) . . .
67(4) . . .
61(4) . . .
50(4) . . .
56(4) . . .
60(4) . . .
56(4) . . .
42.6(33) . . .
52(4) . . .
58(4) . . .
55(4) . . .
48(4) . . .
49(4) . . .
61(4) . . .
57(4) . . .
53(4) . . .
52(4) . . .
50(4) . . .
54(4) . . .
57(4) . . .
57(4) . . .
58(4) . . .
55(4) . . .
58(4) . . .
56(4) . . .
58(4) . . .
55(4) . . .
64(4) . . .
65(4) . . .
56(4) . . .
43.3(34) . . .
52(4) . . .
51(4) . . .
63(4) . . .
55(4) . . .
61(4) . . .
60(4) . . .
63(4) . . .
58(4) . . .
57(4) . . .
48(4) . . .
53(4) . . .
56(4) . . .
44(4) . . .
56(4) . . .
62(4) . . .
52(4) . . .
58(4) . . .
54(4) . . .
59(4) . . .
51(4) . . .
61(4) . . .
49(4) . . .
60(5) . . .
61(4) . . .
55(4) . . .
55(4) . . .
65(4) . . .
57(4) . . .
63(4) . . .
57(4) . . .
54(4) . . .
56(4) . . .
54(4) . . .
75(5) . . .
58(4) . . .
53(4) . . .
60(4) . . .
58(4) . . .
54(4) . . .
53(4) . . .
50(4) . . .
58(4) . . .
61(4) . . .
47(4) . . .
51(4) . . .
51(4) . . .
56(4) . . .
64(4) . . .
52(4) . . .
51(4) . . .
53(4) . . .
55(4) . . .
59(4) . . .
57(4) . . .
47.3(35) . . .
54(4) . . .
53(4) . . .
52(4) . . .
68(4) . . .
49(4) . . .
60(4) . . .
60(4) . . .
55(4) . . .
62(4) . . .
57(4) . . .
60(4) . . .
59(4) . . .
51(4) . . .
48(4) . . .
55(4) . . .
67(4) . . .
56(4) . . .
50(4) . . .
73(4) . . .
65(4) . . .
46(4) . . .
58(4) . . .
55(4) . . .
50(4) . . .
54(4) . . .
61(4) . . .
54(4) . . .
66(4) . . .
68(4) . . .
60(4) . . .
51(4) . . .
57(4) . . .
63(4) . . .
59(4) . . .
58(4) . . .
53(4) . . .
56(4) . . .
49(4) . . .
60(4) . . .
51(4) . . .
58(4) . . .
53(4) . . .
66(5) . . .
56(4) . . .
54(4) . . .
51(4) . . .
52(4) . . .
63(4) . . .
60(4) . . .
55(4) . . .
56(4) . . .
54(4) . . .
69(4) . . .
52(4) . . .
62(4) . . .
55(4) . . .
66(5) . . .
58(4) . . .
60(4) . . .
49(4) . . .
58(4) . . .
55(4) . . .
56(4) . . .
68(4) . . .
49(4) . . .
47(4) . . .
51(4) . . .
53(4) . . .
51(4) . . .
55(4) . . .
60(4) . . .
53(4) . . .
53(4) . . .
55(4) . . .
60(4) . . .
63(4) . . .
54(4) . . .
63(4) . . .
53(4) . . .
51(4) . . .
56(4) . . .
50(4) . . .
50(4) . . .
63(4) . . .
49(4) . . .
48(4) . . .
59(4) . . .
38.3(32) . . .
48(4) . . .
57(4) . . .
64(4) . . .
59(4) . . .
58(4) . . .
59(4) . . .
60(4) . . .
53(4) . . .
58(4) . . .
63(4) . . .
57(4) . . .
64(4) . . .
58(4) . . .
62(4) . . .
56(4) . . .
66(5) . . .
52(4) . . .
50(4) . . .
64(4) . . .
64(4) . . .
48(4) . . .
55(4) . . .
52(4) . . .
54(4) . . .
57(4) . . .
48(4) . . .
51(4) . . .
59(4) . . .
61(4) . . .
52(4) . . .
59(4) . . .
59(4) . . .
48(4) . . .
46(4) . . .
60(4) . . .
62(4) . . .
55(4) . . .
53(4) . . .
55(4) . . .
59(4) . . .
58(4) . . .
55(4) . . .
57(4) . . .
56(4) . . .
64(4) . . .
44.0(35) . . .
49(4) . . .
57(4) . . .
57(4) . . .
55(4) . . .
45(4) . . .
46(4) . . .
55(4) . . .
49(4) . . .
58(4) . . .
48(4) . . .
59(4) . . .
49(4) . . .
56(4) . . .
58(4) . . .
52(4) . . .
53(4) . . .
60(4) . . .
56(4) . . .
57(4) . . .
54(4) . . .
45(4) . . .
55(4) . . .
62(4) . . .
62(4) . . .
57(4) . . .
63(5) . . .
60(4) . . .
61(4) . . .
58(4) . . .
61(4) . . .
62(4) . . .
60(4) . . .
58(4) . . .
52(4) . . .
64(5) . . .
53(4) . . .
43.7(34) . . .
51(4) . . .
54(4) . . .
48(4) . . .
56(4) . . .
56(4) . . .
51(4) . . .
52(4) . . .
62(5) . . .
60(4) . . .
42.1(33) . . .
52(4) . . .
49(4) . . .
53(4) . . .
38.3(32) . . .
55(4) . . .
50(4) . . .
56(4) . . .
48(4) . . .
53(4) . . .
57(4) . . .
51(4) . . .
61(4) . . .
52(4) . . .
51(4) . . .
61(4) . . .
66(4) . . .
54(4) . . .
57(4) . . .
60(4) . . .
46(4) . . .
51(4) . . .
49(4) . . .
58(4) . . .
55(4) . . .
55(4) . . .
57(4) . . .
67(5) . . .
48(4) . . .
49(4) . . .
53(4) . . .
60(4) . . .
61(4) . . .
54(4) . . .
57(4) . . .
54(4) . . .
60(4) . . .
53(4) . . .
59(4) . . .
49(4) . . .
52(4) . . .
66(4) . . .
55(4) . . .
45(4) . . .
55(4) . . .
49(4) . . .
52(4) . . .
54(4) . . .
61(4) . . .
55(4) . . .
61(4) . . .
55(4) . . .
57(4) . . .
58(4) . . .
44.2(34) . . .
56(4) . . .
57(4) . . .
61(4) . . .
66(4) . . .
55(4) . . .
50(4) . . .
47(4) . . .
48(4) . . .
52(4) . . .
47(4) . . .
45.3(35) . . .
56(4) . . .
58(4) . . .
53(4) . . .
50(4) . . .
65(4) . . .
59(4) . . .
60(4) . . .
54(4) . . .
47(4) . . .
50(4) . . .
55(4) . . .
43(4) . . .
46(4) . . .
50(4) . . .
62(4) . . .
64(4) . . .
58(4) . . .
44.1(34) . . .
47(4) . . .
46(4) . . .
64(4) . . .
54(4) . . .
62(4) . . .
42.8(34) . . .
59(4) . . .
51(4) . . .
51(4) . . .
54(4) . . .
55(4) . . .
75(5) . . .
54(4) . . .
59(4) . . .
54(4) . . .
53(4) . . .
55(4) . . .
54(4) . . .
59(4) . . .
64(4) . . .
59(4) . . .
66(5) . . .
47(4) . . .
47(4) . . .
45(4) . . .
53(4) . . .
49(4) . . .
58(4) . . .
54(4) . . .
52(4) . . .
57(4) . . .
61(4) . . .
48(4) . . .
54(4) . . .
56(4) . . .
47(4) . . .
52(4) . . .
54(4) . . .
56(4) . . .
63(4) . . .
52(4) . . .
56(4) . . .
55(4) . . .
59(4) . . .
64(4) . . .
52(4) . . .
59(4) . . .
49(4) . . .
66(4) . . .
53(4) . . .
60(4) . . .
60(4) . . .
62(4) . . .
53(4) . . .
53(4) . . .
51(4) . . .
52(4) . . .
64(4) . . .
52(4) . . .
52(4) . . .
57(4) . . .
54(4) . . .
48(4) . . .
53(4) . . .
53(4) . . .
50(4) . . .
53(4) . . .
50(4) . . .
57(4) . . .
49(4) . . .
57(4) . . .
49(4) . . .
50(4) . . .
49(4) . . .
51(4) . . .
50(4) . . .
48(4) . . .
52(4) . . .
62(4) . . .
44(4) . . .
53(4) . . .
55(4) . . .
56(4) . . .
66(4) . . .
58(4) . . .
60(4) . . .
52(4) . . .
51(4) . . .
49(4) . . .
57(4) . . .
61(4) . . .
53(4) . . .
61(4) . . .
49(4) . . .
59(4) . . .
54(4) . . .
38.4(34) . . .
48(4) . . .
50(4) . . .
43.2(35) . . .
53(4) . . .
57(4) . . .
56(4) . . .
61(4) . . .
55(4) . . .
50(4) . . .
56(4) . . .
69(4) . . .
58(4) . . .
54(4) . . .
50(4) . . .
51(4) . . .
52(4) . . .
60(4) . . .
52(4) . . .
55(4) . . .
43(4) . . .
47(4) . . .
54(4) . . .
47(4) . . .
46(4) . . .
44(4) . . .
55(4) . . .
52(4) . . .
53(4) . . .
51(4) . . .
56(4) . . .
55(4) . . .
60(4) . . .
53(4) . . .
46(4) . . .
49(4) . . .
59(4) . . .
53(4) . . .
49(4) . . .
54(4) . . .
49(4) . . .
47(4) . . .
45(4) . . .
50(4) . . .
52(4) . . .
55(4) . . .
55(4) . . .
53(4) . . .
48(4) . . .
59(4) . . .
54(4) . . .
59(4) . . .
63(4) . . .
53(4) . . .
43.7(35) . . .
45(4) . . .
47(4) . . .
64(4) . . .
52(4) . . .
48(4) . . .
52(4) . . .
55(4) . . .
52(4) . . .
54(4) . . .
45(4) . . .
54(4) . . .
59(4) . . .
56(4) . . .
56(4) . . .
70(5) . . .
53(4) . . .
53(4) . . .
54(4) . . .
48(4) . . .
57(4) . . .
57(4) . . .
58(4) . . .
54(4) . . .
54(4) . . .
50(4) . . .
60(4) . . .
45.1(35) . . .
52(4) . . .
57(4) . . .
54(4) . . .
54(4) . . .
40.7(33) . . .
43.1(33) . . .
60(4) . . .
54(4) . . .
52(4) . . .
56(4) . . .
60(5) . . .
53(4) . . .
53(4) . . .
54(4) . . .
59(4) . . .
59(4) . . .
49(4) . . .
50(4) . . .
57(4) . . .
47(4) . . .
52(4) . . .
53(4) . . .
51(4) . . .
53(4) . . .
64(5) . . .
57(4) . . .
56(4) . . .
59(4) . . .
62(4) . . .
50(4) . . .
56(4) . . .
53(4) . . .
54(4) . . .
57(4) . . .
49(4) . . .
50(4) . . .
51(4) . . .
58(4) . . .
67(4) . . .
61(4) . . .
54(4) . . .
54(4) . . .
63(4) . . .
47(4) . . .
56(4) . . .
54(4) . . .
48(4) . . .
56(4) . . .
48(4) . . .
51(4) . . .
53(4) . . .
47(4) . . .
63(4) . . .
46(4) . . .
48(4) . . .
60(4) . . .
59(4) . . .
60(4) . . .
48(4) . . .
50(4) . . .
54(4) . . .
64(4) . . .
58(4) . . .
57(4) . . .
40.6(34) . . .
54(4) . . .
57(4) . . .
54(4) . . .
59(4) . . .
56(4) . . .
55(4) . . .
54(4) . . .
47(4) . . .
47(4) . . .
54(4) . . .
55(4) . . .
52(4) . . .
47(4) . . .
51(4) . . .
50(4) . . .
50(4) . . .
48(4) . . .
58(4) . . .
54(4) . . .
57(4) . . .
60(4) . . .
45(4) . . .
53(4) . . .
53(4) . . .
47(4) . . .
51(4) . . .
54(4) . . .
52(4) . . .
55(4) . . .
59(4) . . .
55(4) . . .
48(4) . . .
59(4) . . .
58(4) . . .
56(4) . . .
54(4) . . .
58(4) . . .
54(4) . . .
53(4) . . .
51(4) . . .
59(4) . . .
55(4) . . .
46(4) . . .
55(4) . . .
67(4) . . .
53(4) . . .
49(4) . . .
45(4) . . .
45(4) . . .
57(4) . . .
46(4) . . .
49(4) . . .
56(4) . . .
49(4) . . .
43.9(35) . . .
50(4) . . .
57(4) . . .
58(4) . . .
53(4) . . .
52(4) . . .
56(4) . . .
54(4) . . .
59(4) . . .
49(4) . . .
49(4) . . .
62(4) . . .
54(4) . . .
56(4) . . .
56(4) . . .
56(4) . . .
61(4) . . .
57(4) . . .
44.3(34) . . .
49(4) . . .
47(4) . . .
52(4) . . .
51(4) . . .
56(4) . . .
53(4) . . .
47(4) . . .
55(4) . . .
54(4) . . .
60(4) . . .
48(4) . . .
40.3(33) . . .
58(4) . . .
57(4) . . .
57(4) . . .
56(4) . . .
44.7(35) . . .
54(4) . . .
52(4) . . .
57(4) . . .
47(4) . . .
58(4) . . .
65(4) . . .
57(4) . . .
58(4) . . .
52(4) . . .
49(4) . . .
52(4) . . .
53(4) . . .
59(4) . . .
48(4) . . .
49(4) . . .
40.3(35) . . .
62(4) . . .
56(4) . . .
51(4) . . .
43.6(35) . . .
44.6(34) . . .
56(4) . . .
49(4) . . .
49(4) . . .
53(4) . . .
55(4) . . .
56(4) . . .
47(4) . . .
62(5) . . .
55(4) . . .
58(4) . . .
55(4) . . .
50(4) . . .
48(4) . . .
55(4) . . .
53(4) . . .
61(4) . . .
60(4) . . .
49(4) . . .
54(4) . . .
52(4) . . .
59(4) . . .
60(4) . . .
42.5(35) . . .
51(4) . . .
57(4) . . .
57(4) . . .
58(4) . . .
59(4) . . .
58(4) . . .
46(4) . . .
50(4) . . .
52(4) . . .
54(4) . . .
51(4) . . .
56(4) . . .
53(4) . . .
48(4) . . .
46(4) . . .
46(4) . . .
54(4) . . .
52(4) . . .
54(4) . . .
47(4) . . .
49(4) . . .
55(4) . . .
51(4) . . .
44.4(35) . . .
54(4) . . .
50(4) . . .
54(4) . . .
50(4) . . .
47(4) . . .
62(4) . . .
51(4) . . .
45(4) . . .
48(4) . . .
50(4) . . .
42.9(34) . . .
43.5(34) . . .
50(4) . . .
64(4) . . .
54(4) . . .
59(4) . . .
59(4) . . .
64(4) . . .
59(4) . . .
44(4) . . .
49(4) . . .
55(4) . . .
57(4) . . .
57(4) . . .
52(4) . . .
44.4(35) . . .
59(4) . . .
54(4) . . .
52(4) . . .
45(4) . . .
43(4) . . .
55(4) . . .
49(4) . . .
55(4) . . .
63(4) . . .
72(4) . . .
61(4) . . .
52(4) . . .
48(4) . . .
53(4) . . .
64(4) . . .
58(4) . . .
49(4) . . .
48(4) . . .
60(4) . . .
57(4) . . .
55(4) . . .
52(4) . . .
52(4) . . .
57(4) . . .
54(4) . . .
55(4) . . .
46(4) . . .
53(4) . . .
57(4) . . .
56(4) . . .
45(4) . . .
59(4) . . .
55(4) . . .
50(4) . . .
48(4) . . .
55(4) . . .
42(4) . . .
59(4) . . .
53(4) . . .
56(4) . . .
56(4) . . .
65(5) . . .
59(4) . . .
54(4) . . .
45.3(35) . . .
53(4) . . .
50(4) . . .
56(4) . . .
55(4) . . .
46(4) . . .
45(4) . . .
54(4) . . .
58(4) . . .
47(4) . . .
55(4) . . .
62(4) . . .
65(4) . . .
44.6(35) . . .
51(4) . . .
61(4) . . .
47(4) . . .
52(4) . . .
59(4) . . .
51(4) . . .
52(4) . . .
56(4) . . .
49(4) . . .
58(4) . . .
55(4) . . .
57(4) . . .
54(4) . . .
54(4) . . .
49(4) . . .
48(4) . . .
46(4) . . .
58(4) . . .
62(4) . . .
53(4) . . .
57(4) . . .
50(4) . . .
65(5) . . .
58(4) . . .
55(4) . . .
50(4) . . .
53(4) . . .
61(4) . . .
55(4) . . .
57(4) . . .
64(4) . . .
54(4) . . .
58(4) . . .
55(4) . . .
53(4) . . .
58(4) . . .
50(4) . . .
60(4) . . .
44(4) . . .
60(4) . . .
53(4) . . .
49(4) . . .
45(4) . . .
43.6(35) . . .
53(4) . . .
53(4) . . .
37.9(32) . . .
63(4) . . .
55(4) . . .
64(4) . . .
63(4) . . .
52(4) . . .
55(4) . . .
51(4) . . .
58(4) . . .
47(4) . . .
51(4) . . .
54(4) . . .
55(4) . . .
42.3(34) . . .
53(4) . . .
45.3(35) . . .
51(4) . . .
55(4) . . .
59(4) . . .
42.5(34) . . .
47(4) . . .
53(4) . . .
37.1(32) . . .
52(4) . . .
67(5) . . .
64(5) . . .
57(4) . . .
51(4) . . .
55(4) . . .
61(4) . . .
49(4) . . .
53(4) . . .
56(4) . . .
52(4) . . .
55(4) . . .
46(4) . . .
51(4) . . .
50(4) . . .
51(4) . . .
62(4) . . .
47(4) . . .
48(4) . . .
53(4) . . .
51(4) . . .
38.2(32) . . .
61(4) . . .
52(4) . . .
47(4) . . .
50(4) . . .
55(4) . . .
50(4) . . .
50(4) . . .
49(4) . . .
60(4) . . .
58(4) . . .
46(4) . . .
52(4) . . .
44.3(34) . . .
55(4) . . .
47(4) . . .
51(4) . . .
50(4) . . .
53(4) . . .
52(4) . . .
49(4) . . .
49(4) . . .
48(4) . . .
51(4) . . .
51(4) . . .
52(4) . . .
48(4) . . .
52(4) . . .
47(4) . . .
45(4) . . .
58(4) . . .
66(4) . . .
55(4) . . .
41.3(33) . . .
49(4) . . .
49(4) . . .
57(4) . . .
59(4) . . .
52(4) . . .
51(4) . . .
55(4) . . .
46(4) . . .
47(4) . . .
44.3(35) . . .
44(4) . . .
56(4) . . .
52(4) . . .
50(4) . . .
47(4) . . .
51(4) . . .
50(4) . . .
60(4) . . .
54(4) . . .
44(4) . . .
46(4) . . .
50(4) . . .
56(4) . . .
49(4) . . .
49(4) . . .
48(4) . . .
52(4) . . .
47(4) . . .
50(4) . . .
50(4) . . .
46(4) . . .
55(4) . . .
60(4) . . .
57(4) . . .
55(4) . . .
53(4) . . .
57(4) . . .
52(4) . . .
54(4) . . .
57(4) . . .
49(4) . . .
51(4) . . .
49(4) . . .
60(4) . . .
53(4) . . .
48(4) . . .
47(4) . . .
49(4) . . .
55(4) . . .
44.3(35) . . .
47(4) . . .
55(4) . . .
50(4) . . .
56(4) . . .
56(4) . . .
43.2(35) . . .
65(4) . . .
52(4) . . .
58(4) . . .
49(4) . . .
59(4) . . .
47(4) . . .
44.0(35) . . .
53(4) . . .
52(4) . . .
50(4) . . .
58(4) . . .
48(4) . . .
63(4) . . .
44(4) . . .
58(4) . . .
55(4) . . .
61(4) . . .
50(4) . . .
53(4) . . .
50(4) . . .
55(4) . . .
49(4) . . .
47(4) . . .
52(4) . . .
62(4) . . .
53(4) . . .
56(4) . . .
48(4) . . .
44.4(35) . . .
54(4) . . .
47(4) . . .
55(4) . . .
54(4) . . .
50(4) . . .
52(4) . . .
40.4(33) . . .
51(4) . . .
54(4) . . .
49(4) . . .
56(4) . . .
57(4) . . .
49(4) . . .
44.0(35) . . .
53(4) . . .
56(4) . . .
41.4(34) . . .
46(4) . . .
52(4) . . .
52(4) . . .
58(4) . . .
48(4) . . .
55(4) . . .
47(4) . . .
51(4) . . .
55(4) . . .
49(4) . . .
49(4) . . .
49(4) . . .
49(4) . . .
44.5(35) . . .
49(4) . . .
49(4) . . .
54(4) . . .
51(4) . . .
45(4) . . .
51(4) . . .
51(4) . . .
51(4) . . .
63(4) . . .
51(4) . . .
44.8(35) . . .
41(4) . . .
49(4) . . .
51(4) . . .
51(4) . . .
48(4) . . .
48(4) . . .
49(4) . . .
50(4) . . .
44.3(35) . . .
52(4) . . .
57(4) . . .
56(4) . . .
44.7(35) . . .
40.7(33) . . .
57(4) . . .
47(4) . . .
59(4) . . .
42(4) . . .
56(4) . . .
46(4) . . .
47(4) . . .
54(4) . . .
46(4) . . .
52(4) . . .
50(4) . . .
54(4) . . .
48(4) . . .
50(4) . . .
50(4) . . .
53(4) . . .
53(4) . . .
54(4) . . .
63(4) . . .
45.4(35) . . .
39.4(34) . . .
50(4) . . .
51(4) . . .
52(4) . . .
55(4) . . .
46(4) . . .
50(4) . . .
51(4) . . .
53(4) . . .
53(4) . . .
53(4) . . .
55(4) . . .
54(4) . . .
45(4) . . .
40.8(34) . . .
50(4) . . .
39.6(33) . . .
54(4) . . .
52(4) . . .
50(4) . . .
53(4) . . .
54(4) . . .
48(4) . . .
45(4) . . .
53(4) . . .
56(4) . . .
50(4) . . .
50(4) . . .
51(4) . . .
55(4) . . .
52(4) . . .
53(4) . . .
51(4) . . .
65(4) . . .
62(4) . . .
47(4) . . .
59(4) . . .
46(4) . . .
43.2(35) . . .
47(4) . . .
48(4) . . .
47(4) . . .
61(4) . . .
49(4) . . .
52(4) . . .
54(4) . . .
54(4) . . .
51(4) . . .
52(4) . . .
51(4) . . .
55(4) . . .
48(4) . . .
52(4) . . .
59(4) . . .
52(4) . . .
45.7(35) . . .
57(4) . . .
57(4) . . .
53(4) . . .
59(4) . . .
56(4) . . .
60(4) . . .
47(4) . . .
48(4) . . .
39.8(33) . . .
42.3(34) . . .
61(4) . . .
45.1(35) . . .
51(4) . . .
42.6(34) . . .
43(4) . . .
59(4) . . .
53(4) . . .
61(4) . . .
54(4) . . .
52(4) . . .
51(4) . . .
42.6(34) . . .
53(4) . . .
46(4) . . .
59(4) . . .
60(4) . . .
43.7(34) . . .
53(4) . . .
50(4) . . .
50(4) . . .
44(4) . . .
53(4) . . .
56(4) . . .
60(4) . . .
54(4) . . .
56(4) . . .
61(4) . . .
52(4) . . .
49(4) . . .
54(4) . . .
51(4) . . .
44.5(35) . . .
56(4) . . .
50(4) . . .
45(4) . . .
63(4) . . .
57(4) . . .
53(4) . . .
42.4(33) . . .
48(4) . . .
56(4) . . .
53(4) . . .
58(4) . . .
51(4) . . .
52(4) . . .
46(4) . . .
52(4) . . .
55(4) . . .
48(4) . . .
44(4) . . .
51(4) . . .
47(4) . . .
50(4) . . .
52(4) . . .
52(4) . . .
50(4) . . .
44.8(34) . . .
56(4) . . .
48(4) . . .
48(4) . . .
52(4) . . .
55(4) . . .
43(4) . . .
48(4) . . .
47(4) . . .
42.5(34) . . .
49(4) . . .
47(4) . . .
47(4) . . .
61(4) . . .
50(4) . . .
49(4) . . .
53(4) . . .
46(4) . . .
50(4) . . .
62(4) . . .
56(4) . . .
57(4) . . .
65(5) . . .
48(4) . . .
57(4) . . .
53(4) . . .
42.6(35) . . .
53(4) . . .
63(4) . . .
59(4) . . .
52(4) . . .
52(4) . . .
60(4) . . .
44(4) . . .
52(4) . . .
55(4) . . .
43.2(34) . . .
53(4) . . .
52(4) . . .
54(4) . . .
52(4) . . .
51(4) . . .
46(4) . . .
48(4) . . .
44.1(34) . . .
53(4) . . .
52(4) . . .
55(4) . . .
50(4) . . .
52(4) . . .
62(4) . . .
56(4) . . .
46(4) . . .
55(4) . . .
43.7(34) . . .
56(4) . . .
51(4) . . .
53(4) . . .
50(4) . . .
53(4) . . .
57(4) . . .
53(4) . . .
50(4) . . .
51(4) . . .
43.2(34) . . .
44(4) . . .
43(4) . . .
44.0(35) . . .
49(4) . . .
49(4) . . .
49(4) . . .
51(4) . . .
53(4) . . .
51(4) . . .
55(4) . . .
44(4) . . .
53(4) . . .
49(4) . . .
58(4) . . .
65(4) . . .
49(4) . . .
53(4) . . .
52(4) . . .
54(4) . . .
53(4) . . .
59(4) . . .
52(4) . . .
43(4) . . .
49(4) . . .
56(4) . . .
52(4) . . .
66(5) . . .
54(4) . . .
50(4) . . .
55(4) . . .
53(4) . . .
52(4) . . .
46(4) . . .
46(4) . . .
48(4) . . .
65(4) . . .
55(4) . . .
57(4) . . .
47(4) . . .
48(4) . . .
46(4) . . .
52(4) . . .
52(4) . . .
52(4) . . .
47(4) . . .
56(4) . . .
47(4) . . .
46(4) . . .
54(4) . . .
48(4) . . .
51(4) . . .
44(4) . . .
54(4) . . .
58(4) . . .
46(4) . . .
53(4) . . .
48(4) . . .
58(4) . . .
48(4) . . .
54(4) . . .
46(4) . . .
56(4) . . .
59(4) . . .
54(4) . . .
51(4) . . .
53(4) . . .
58(4) . . .
59(4) . . .
52(4) . . .
64(4) . . .
50(4) . . .
52(4) . . .
40.7(33) . . .
45(4) . . .
39.4(34) . . .
54(4) . . .
48(4) . . .
45.6(35) . . .
62(4) . . .
55(4) . . .
57(4) . . .
47(4) . . .
57(4) . . .
66(4) . . .
52(4) . . .
46.6(35) . . .
56(4) . . .
48(4) . . .
50(4) . . .
44(4) . . .
52(4) . . .
53(4) . . .
49(4) . . .
51(4) . . .
55(4) . . .
52(4) . . .
42.8(34) . . .
46(4) . . .
51(4) . . .
56(4) . . .
51(4) . . .
47(4) . . .
44.2(34) . . .
42.7(35) . . .
46(4) . . .
33.5(32) . . .
40.6(33) . . .
52(4) . . .
43(4) . . .
53(4) . . .
40.1(33) . . .
55(4) . . .
54(4) . . .
49(4) . . .
52(4) . . .
50(4) . . .
50(4) . . .
48(4) . . .
44.2(35) . . .
52(4) . . .
47(4) . . .
40.4(33) . . .
54(4) . . .
47(4) . . .
52(4) . . .
47(4) . . .
44.2(34) . . .
44(4) . . .
56(4) . . .
58(4) . . .
48(4) . . .
51(4) . . .
38.6(32) . . .
44(4) . . .
46(4) . . .
49(4) . . .
55(4) . . .
49(4) . . .
49(4) . . .
50(4) . . .
45(4) . . .
39.5(34) . . .
40(4) . . .
59(5) . . .
54(4) . . .
53(4) . . .
51(4) . . .
53(4) . . .
60(4) . . .
49(4) . . .
52(4) . . .
39.6(33) . . .
46(4) . . .
51(4) . . .
48(4) . . .
53(4) . . .
48(4) . . .
50(4) . . .
50(4) . . .
44.1(34) . . .
49(4) . . .
51(4) . . .
48(4) . . .
52(4) . . .
58(4) . . .
50(4) . . .
39.4(33) . . .
52(4) . . .
45(4) . . .
51(4) . . .
53(4) . . .
56(4) . . .
53(4) . . .
50(4) . . .
41.8(34) . . .
56(4) . . .
50(4) . . .
48(4) . . .
51(4) . . .
41(4) . . .
52(4) . . .
56(4) . . .
54(4) . . .
45(4) . . .
57(4) . . .
58(4) . . .
42(4) . . .
41.8(34) . . .
52(4) . . .
50(4) . . .
60(4) . . .
55(4) . . .
49(4) . . .
56(4) . . .
52(4) . . .
54(4) . . .
57(4) . . .
52(4) . . .
54(4) . . .
51(4) . . .
55(4) . . .
44(4) . . .
46(4) . . .
51(4) . . .
54(4) . . .
44.7(34) . . .
50(4) . . .
53(4) . . .
43(4) . . .
50(4) . . .
53(4) . . .
53(4) . . .
51(4) . . .
46(4) . . .
59(4) . . .
53(4) . . .
51(4) . . .
51(4) . . .
49(4) . . .
50(4) . . .
44.2(34) . . .
52(4) . . .
41.7(34) . . .
38.5(32) . . .
45.2(35) . . .
54(4) . . .
43.8(35) . . .
44(4) . . .
56(4) . . .
53(4) . . .
51(4) . . .
52(4) . . .
58(4) . . .
41.7(33) . . .
52(4) . . .
54(4) . . .
56(4) . . .
50(4) . . .
49(4) . . .
46(4) . . .
50(4) . . .
40.0(32) . . .
49(4) . . .
50(4) . . .
50(4) . . .
47(4) . . .
42(4) . . .
39.4(34) . . .
53(4) . . .
51(4) . . .
53(4) . . .
39.9(34) . . .
44.3(35) . . .
47(4) . . .
54(4) . . .
48(4) . . .
52(4) . . .
55(4) . . .
55(4) . . .
45.4(35) . . .
54(4) . . .
48(4) . . .
53(4) . . .
50(4) . . .
51(4) . . .
57(4) . . .
49(4) . . .
46(4) . . .
61(4) . . .
52(4) . . .
47(4) . . .
54(4) . . .
51(4) . . .
51(4) . . .
51(4) . . .
55(4) . . .
49(4) . . .
39.9(33) . . .
43.6(34) . . .
53(4) . . .
46(4) . . .
48(4) . . .
50(4) . . .
54(4) . . .
48(4) . . .
49(4) . . .
54(4) . . .
48(4) . . .
57(4) . . .
47(4) . . .
39.8(35) . . .
38.5(33) . . .
50(4) . . .
37.9(32) . . .
51(4) . . .
46(4) . . .
43.1(35) . . .
47(4) . . .
44.0(34) . . .
56(4) . . .
50(4) . . .
47(4) . . .
41.0(33) . . .
52(4) . . .
48(4) . . .
52(4) . . .
47(4) . . .
45(4) . . .
45.3(35) . . .
42.0(34) . . .
49(4) . . .
51(4) . . .
51(4) . . .
51(4) . . .
49(4) . . .
39.5(34) . . .
47(4) . . .
50(4) . . .
49(4) . . .
53(4) . . .
53(4) . . .
55(4) . . .
45(4) . . .
55(4) . . .
59(4) . . .
40.2(33) . . .
41.6(34) . . .
44.1(35) . . .
37.8(32) . . .
53(4) . . .
47(4) . . .
46(4) . . .
44.4(34) . . .
50(4) . . .
54(4) . . .
50(4) . . .
47(4) . . .
55(4) . . .
53(4) . . .
55(4) . . .
49(4) . . .
44(4) . . .
57(4) . . .
43(4) . . .
43(4) . . .
49(4) . . .
34.7(31) . . .
46(4) . . .
40.6(34) . . .
45(4) . . .
46(4) . . .
53(4) . . .
54(4) . . .
40.3(33) . . .
49(4) . . .
49(4) . . .
48(4) . . .
44.6(35) . . .
47(4) . . .
42(4) . . .
50(4) . . .
48(4) . . .
43.7(34) . . .
49(4) . . .
47(4) . . .
39.1(33) . . .
43.4(34) . . .
56(4) . . .
51(4) . . .
46(4) . . .
51(4) . . .
52(4) . . .
49(4) . . .
44.4(34) . . .
42.2(34) . . .
50(4) . . .
44.6(35) . . .
60(4) . . .
45(4) . . .
52(4) . . .
50(4) . . .
49(4) . . .
45(4) . . .
44.0(35) . . .
42(4) . . .
49(4) . . .
42.6(34) . . .
56(4) . . .
51(4) . . .
43(4) . . .
46(4) . . .
43.8(34) . . .
49(4) . . .
42(4) . . .
54(4) . . .
53(4) . . .
46(4) . . .
45(4) . . .
48(4) . . .
47(4) . . .
48(4) . . .
60(4) . . .
53(4) . . .
47(4) . . .
49(4) . . .
42.8(34) . . .
48(4) . . .
51(4) . . .
58(4) . . .
48(4) . . .
40.2(33) . . .
50(4) . . .
41.2(34) . . .
44(4) . . .
44(4) . . .
51(4) . . .
46(4) . . .
50(4) . . .
46(4) . . .
47(4) . . .
51(4) . . .
46(4) . . .
46(4) . . .
52(4) . . .
57(4) . . .
54(4) . . .
49(4) . . .
47(4) . . .
52(4) . . .
39.0(34) . . .
55(4) . . .
56(4) . . .
49(4) . . .
52(4) . . .
38.1(33) . . .
47(4) . . .
47(4) . . .
47(4) . . .
45.7(35) . . .
46(4) . . .
50(4) . . .
55(4) . . .
49(4) . . .
50(4) . . .
52(4) . . .
55(4) . . .
49(4) . . .
59(4) . . .
42(4) . . .
51(4) . . .
66(4) . . .
47(4) . . .
47(4) . . .
51(4) . . .
47(4) . . .
42.4(34) . . .
40.3(34) . . .
49(4) . . .
49(4) . . .
51(4) . . .
61(4) . . .
48(4) . . .
41(4) . . .
54(4) . . .
51(4) . . .
45(4) . . .
57(4) . . .
49(4) . . .
55(4) . . .
42.1(34) . . .
47(4) . . .
40.8(33) . . .
44(4) . . .
53(4) . . .
50(4) . . .
49(4) . . .
45(4) . . .
59(5) . . .
46(4) . . .
50(4) . . .
37.0(32) . . .
37.3(33) . . .
51(4) . . .
51(4) . . .
45(4) . . .
50(4) . . .
57(4) . . .
49(4) . . .
47(4) . . .
46(4) . . .
55(4) . . .
48(4) . . .
47(4) . . .
47(4) . . .
49(4) . . .
46(4) . . .
46(4) . . .
46(4) . . .
40.7(33) . . .
37.1(32) . . .
44(4) . . .
54(4) . . .
53(4) . . .
54(4) . . .
54(4) . . .
50(4) . . .
51(4) . . .
43.5(35) . . .
51(4) . . .
45(4) . . .
45(4) . . .
46(4) . . .
55(4) . . .
43.1(34) . . .
56(4) . . .
48(4) . . .
58(4) . . .
49(4) . . .
51(4) . . .
45.1(35) . . .
43(4) . . .
49(4) . . .
47(4) . . .
48(4) . . .
59(4) . . .
55(4) . . .
46(4) . . .
52(4) . . .
55(4) . . .
54(4) . . .
49(4) . . .
49(4) . . .
54(4) . . .
51(4) . . .
58(4) . . .
52(4) . . .
48(4) . . .
43.0(34) . . .
44(4) . . .
48(4) . . .
38.8(34) . . .
47(4) . . .
49(4) . . .
53(4) . . .
50(4) . . .
50(4) . . .
50(4) . . .
59(4) . . .
36.4(32) . . .
40.4(33) . . .
46(4) . . .
50(4) . . .
47(4) . . .
45(4) . . .
53(4) . . .
50(4) . . .
55(4) . . .
43.3(34) . . .
52(4) . . .
50(4) . . .
52(4) . . .
50(4) . . .
49(4) . . .
44.3(34) . . .
50(4) . . .
51(4) . . .
51(4) . . .
47(4) . . .
58(4) . . .
52(4) . . .
46(4) . . .
42(4) . . .
41.9(34) . . .
48(4) . . .
45.7(35) . . .
54(4) . . .
54(4) . . .
42(4) . . .
42.7(34) . . .
40.3(34) . . .
50(4) . . .
50(4) . . .
38.9(32) . . .
47(4) . . .
52(4) . . .
44.0(34) . . .
54(4) . . .
42.9(34) . . .
45(4) . . .
51(4) . . .
49(4) . . .
45(4) . . .
49(4) . . .
47(4) . . .
52(4) . . .
50(4) . . .
51(4) . . .
41.8(35) . . .
51(4) . . .
43(4) . . .
54(4) . . .
47(4) . . .
49(4) . . .
55(4) . . .
51(4) . . .
57(4) . . .
41.5(33) . . .
44.8(35) . . .
56(4) . . .
47(4) . . .
58(4) . . .
61(4) . . .
48(4) . . .
50(4) . . .
44(4) . . .
49(4) . . .
49(4) . . .
54(4) . . .
55(4) . . .
49(4) . . .
49(4) . . .
37.4(32) . . .
47(4) . . .
42(4) . . .
44(4) . . .
48(4) . . .
45.2(35) . . .
46(4) . . .
52(4) . . .
44(4) . . .
53(4) . . .
52(4) . . .
44.7(35) . . .
49(4) . . .
51(4) . . .
46(4) . . .
46.0(35) . . .
34.6(32) . . .
43(4) . . .
48(4) . . .
57(4) . . .
43.3(34) . . .
48(4) . . .
49(4) . . .
50(4) . . .
57(4) . . .
47(4) . . .
44(4) . . .
49(4) . . .
44(4) . . .
44.6(35) . . .
58(4) . . .
49(4) . . .
46(4) . . .
49(4) . . .
42.4(34) . . .
37.5(32) . . .
54(4) . . .
52(4) . . .
45.1(35) . . .
49(4) . . .
49(4) . . .
56(4) . . .
47(4) . . .
47(4) . . .
54(4) . . .
53(4) . . .
55(4) . . .
47(4) . . .
58(4) . . .
44.1(34) . . .
51(4) . . .
44.9(35) . . .
58(4) . . .
50(4) . . .
59(4) . . .
50(4) . . .
51(4) . . .
49(4) . . .
51(4) . . .
48(4) . . .
49(4) . . .
54(4) . . .
46(4) . . .
42.9(35) . . .
54(4) . . .
51(4) . . .
45(4) . . .
44(4) . . .
51(4) . . .
49(4) . . .
40(4) . . .
49(4) . . .
42.0(34) . . .
46(4) . . .
51(4) . . .
51(4) . . .
49(4) . . .
47(4) . . .
44.0(35) . . .
43.6(34) . . .
43.1(35) . . .
43(4) . . .
46(4) . . .
52(4) . . .
57(4) . . .
54(4) . . .
46(4) . . .
51(4) . . .
46.3(35) . . .
51(4) . . .
50(4) . . .
47(4) . . .
41.8(34) . . .
47(4) . . .
42.2(34) . . .
43(4) . . .
41.7(35) . . .
48(4) . . .
52(4) . . .
46.5(35) . . .
41.1(34) . . .
45(4) . . .
54(4) . . .
41.6(34) . . .
44(4) . . .
46(4) . . .
37.3(32) . . .
49(4) . . .
57(4) . . .
40.6(34) . . .
42(4) . . .
43(4) . . .
45(4) . . .
48(4) . . .
45(4) . . .
42(4) . . .
43.7(35) . . .
48(4) . . .
51(4) . . .
45(4) . . .
50(4) . . .
49(4) . . .
41.8(34) . . .
56(4) . . .
43.8(35) . . .
43.1(35) . . .
46(4) . . .
48(4) . . .
40.6(33) . . .
50(4) . . .
54(4) . . .
54(4) . . .
61(4) . . .
52(4) . . .
51(4) . . .
45(4) . . .
53(4) . . .
55(4) . . .
50(4) . . .
51(4) . . .
47(4) . . .
47(4) . . .
46.3(35) . . .
47(4) . . .
44.2(34) . . .
39.6(34) . . .
49(4) . . .
48(4) . . .
50(4) . . .
49(4) . . .
48(4) . . .
53(4) . . .
45.4(35) . . .
47(4) . . .
38.5(33) . . .
45(4) . . .
47(4) . . .
52(4) . . .
57(4) . . .
61(4) . . .
45(4) . . .
50(4) . . .
51(4) . . .
46(4) . . .
51(4) . . .
58(4) . . .
49(4) . . .
41.4(34) . . .
46(4) . . .
53(4) . . .
53(4) . . .
51(4) . . .
56(4) . . .
46(4) . . .
39.5(33) . . .
50(4) . . .
44.2(35) . . .
45.0(35) . . .
35.9(33) . . .
50(4) . . .
49(4) . . .
48(4) . . .
47(4) . . .
41.1(35) . . .
38.0(34) . . .
41.7(34) . . .
52(4) . . .
45.0(35) . . .
55(4) . . .
49(4) . . .
55(4) . . .
53(4) . . .
49(4) . . .
42.9(35) . . .
43(4) . . .
50(4) . . .
46(4) . . .
36.7(32) . . .
43(4) . . .
47(4) . . .
47(4) . . .
45.9(35) . . .
54(4) . . .
50(4) . . .
44(4) . . .
51(4) . . .
48(4) . . .
49(4) . . .
43(4) . . .
48(4) . . .
51(4) . . .
43.3(35) . . .
45(4) . . .
52(4) . . .
46(4) . . .
42.8(34) . . .
53(4) . . .
50(4) . . .
50(4) . . .
55(4) . . .
36.5(31) . . .
50(4) . . .
44.2(35) . . .
44(4) . . .
40.8(35) . . .
48(4) . . .
43.7(35) . . .
49(4) . . .
53(4) . . .
41.8(33) . . .
56(4) . . .
49(4) . . .
49(4) . . .
50(4) . . .
51(4) . . .
51(4) . . .
45.0(35) . . .
44(4) . . .
41(4) . . .
53(4) . . .
42.4(34) . . .
48(4) . . .
56(4) . . .
51(4) . . .
48(4) . . .
49(4) . . .
39.2(34) . . .
50(4) . . .
41.6(34) . . .
50(4) . . .
48(4) . . .
48(4) . . .
59(4) . . .
53(4) . . .
47(4) . . .
46(4) . . .
48(4) . . .
43.7(34) . . .
54(4) . . .
48(4) . . .
56(4) . . .
48(4) . . .
49(4) . . .
49(4) . . .
50(4) . . .
52(4) . . .
48(4) . . .
49(4) . . .
49(4) . . .
49(4) . . .
41.6(34) . . .
52(4) . . .
54(4) . . .
43(4) . . .
49(4) . . .
47(4) . . .
55(4) . . .
53(4) . . .
47(4) . . .
45(4) . . .
40.3(33) . . .
42(4) . . .
45(4) . . .
54(4) . . .
44.4(34) . . .
50(4) . . .
49(4) . . .
59(4) . . .
58(4) . . .
41.0(33) . . .
44(4) . . .
44(4) . . .
53(4) . . .
50(4) . . .
55(4) . . .
49(4) . . .
45(4) . . .
41(4) . . .
41.7(35) . . .
48(4) . . .
45.7(35) . . .
54(4) . . .
53(4) . . .
42.7(34) . . .
47(4) . . .
50(4) . . .
45(4) . . .
47(4) . . .
49(4) . . .
62(4) . . .
51(4) . . .
43(4) . . .
44(4) . . .
50(4) . . .
53(4) . . .
47(4) . . .
53(4) . . .
54(4) . . .
55(4) . . .
52(4) . . .
55(4) . . .
52(4) . . .
52(4) . . .
47(4) . . .
46(4) . . .
46(4) . . .
48(4) . . .
53(4) . . .
58(4) . . .
52(4) . . .
44(4) . . .
45.6(34) . . .
48(4) . . .
47(4) . . .
59(4) . . .
47(4) . . .
32.8(30) . . .
38(4) . . .
43.0(35) . . .
51(4) . . .
47(4) . . .
48(4) . . .
42.9(34) . . .
44.7(34) . . .
46(4) . . .
43.0(34) . . .
58(4) . . .
58(4) . . .
50(4) . . .
40.5(33) . . .
39.3(33) . . .
42(4) . . .
51(4) . . .
56(4) . . .
47(4) . . .
46(4) . . .
47(4) . . .
32.8(31) . . .
42.5(34) . . .
48(4) . . .
54(4) . . .
48(4) . . .
39.2(34) . . .
32.1(29) . . .
52(4) . . .
59(4) . . .
50(4) . . .
45(4) . . .
46(4) . . .
43.3(34) . . .
60(4) . . .
54(4) . . .
54(4) . . .
42.7(34) . . .
48(4) . . .
48(4) . . .
46(4) . . .
54(4) . . .
54(4) . . .
57(4) . . .
46(4) . . .
46(4) . . .
46(4) . . .
51(4) . . .
54(4) . . .
50(4) . . .
39.3(34) . . .
51(4) . . .
44.2(34) . . .
40.0(33) . . .
52(4) . . .
45(4) . . .
49(4) . . .
53(4) . . .
50(4) . . .
47(4) . . .
47(4) . . .
53(4) . . .
51(4) . . .
47(4) . . .
50(4) . . .
46(4) . . .
56(4) . . .
51(4) . . .
53(4) . . .
45(4) . . .
53(4) . . .
42.8(34) . . .
46(4) . . .
47(4) . . .
49(4) . . .
48(4) . . .
58(4) . . .
47(4) . . .
46(4) . . .
36.9(32) . . .
47(4) . . .
53(4) . . .
49(4) . . .
44.0(34) . . .
57(4) . . .
46(4) . . .
52(4) . . .
54(4) . . .
52(4) . . .
50(4) . . .
52(4) . . .
56(4) . . .
50(4) . . .
47(4) . . .
50(4) . . .
49(4) . . .
53(4) . . .
49(4) . . .
47(4) . . .
49(4) . . .
39.7(32) . . .
48(4) . . .
46(4) . . .
49(4) . . .
51(4) . . .
49(4) . . .
55(4) . . .
48(4) . . .
49(4) . . .
48(4) . . .
48(4) . . .
44(4) . . .
56(4) . . .
54(4) . . .
51(4) . . .
54(4) . . .
56(4) . . .
52(4) . . .
50(4) . . .
47(4) . . .
57(4) . . .
53(4) . . .
40.9(33) . . .
59(4) . . .
47(4) . . .
41.3(34) . . .
48(4) . . .
46(4) . . .
45(4) . . .
46(4) . . .
45.4(35) . . .
43(4) . . .
47(4) . . .
52(4) . . .
55(4) . . .
44.9(35) . . .
43.9(35) . . .
46(4) . . .
43.8(35) . . .
53(4) . . .
48(4) . . .
55(4) . . .
50(4) . . .
45.3(35) . . .
54(4) . . .
53(4) . . .
48(4) . . .
44(4) . . .
52(4) . . .
48(4) . . .
54(4) . . .
54(4) . . .
41.6(34) . . .
45(4) . . .
52(4) . . .
57(4) . . .
55(4) . . .
59(4) . . .
55(4) . . .
50(4) . . .
40.5(33) . . .
37.4(31) . . .
50(4) . . .
44(4) . . .
53(4) . . .
52(4) . . .
50(4) . . .
47(4) . . .
40.4(34) . . .
51(4) . . .
55(4) . . .
44.2(35) . . .
48(4) . . .
43.0(34) . . .
40.6(33) . . .
47(4) . . .
47(4) . . .
36.1(33) . . .
45(4) . . .
49(4) . . .
46(4) . . .
44(4) . . .
42(4) . . .
41(4) . . .
53(4) . . .
47(4) . . .
43.2(35) . . .
45(4) . . .
50(4) . . .
48(4) . . .
51(4) . . .
54(4) . . .
50(4) . . .
50(4) . . .
49(4) . . .
48(4) . . .
52(4) . . .
51(4) . . .
53(4) . . .
42.2(34) . . .
46(4) . . .
49(4) . . .
38.8(35) . . .
38.0(33) . . .
33.2(30) . . .
41(4) . . .
46(4) . . .
44(4) . . .
45(4) . . .
46(4) . . .
44(4) . . .
49(4) . . .
37.6(32) . . .
48(4) . . .
49(4) . . .
51(4) . . .
40(4) . . .
38.0(34) . . .
53(4) . . .
47(4) . . .
50(4) . . .
44(4) . . .
49(4) . . .
41.8(34) . . .
44(4) . . .
42(4) . . .
52(4) . . .
45(4) . . .
42.1(35) . . .
54(4) . . .
49(4) . . .
49(4) . . .
40.6(33) . . .
45(4) . . .
45.8(35) . . .
57(4) . . .
40.8(34) . . .
44.0(35) . . .
54(4) . . .
51(4) . . .
38.9(33) . . .
50(4) . . .
39.4(33) . . .
62(4) . . .
51(4) . . .
58(4) . . .
40.5(34) . . .
50(4) . . .
47(4) . . .
38.1(33) . . .
46(4) . . .
39.2(32) . . .
44.7(35) . . .
47(4) . . .
53(4) . . .
43(4) . . .
56(4) . . .
43.2(35) . . .
43.0(34) . . .
44(4) . . .
39.0(34) . . .
45(4) . . .
48(4) . . .
51(4) . . .
47(4) . . .
48(4) . . .
44(4) . . .
43.0(34) . . .
52(4) . . .
45(4) . . .
47(4) . . .
39.8(34) . . .
40.8(33) . . .
49(4) . . .
51(4) . . .
46(4) . . .
46(4) . . .
54(4) . . .
47(4) . . .
37.1(31) . . .
48(4) . . .
47(4) . . .
43.5(34) . . .
53(4) . . .
45(4) . . .
39.9(34) . . .
39.8(34) . . .
40.3(32) . . .
52(4) . . .
48(4) . . .
52(4) . . .
53(4) . . .
45(4) . . .
52(4) . . .
63(4) . . .
43.3(35) . . .
44.5(35) . . .
44.0(35) . . .
46(4) . . .
47(4) . . .
46(4) . . .
45.9(35) . . .
50(4) . . .
57(4) . . .
49(4) . . .
57(4) . . .
45.8(35) . . .
59(4) . . .
44(4) . . .
45(4) . . .
53(4) . . .
52(4) . . .
56(4) . . .
49(4) . . .
43(4) . . .
47(4) . . .
52(4) . . .
53(4) . . .
46(4) . . .
43(4) . . .
46(4) . . .
50(4) . . .
41.5(33) . . .
54(4) . . .
47(4) . . .
58(4) . . .
41.3(34) . . .
51(4) . . .
43.5(35) . . .
57(4) . . .
47(4) . . .
58(4) . . .
46(4) . . .
46(4) . . .
52(4) . . .
40.5(34) . . .
42.8(35) . . .
50(4) . . .
43.7(35) . . .
59(4) . . .
45(4) . . .
39.1(33) . . .
41.9(35) . . .
46(4) . . .
49(4) . . .
45(4) . . .
37.3(32) . . .
42.5(35) . . .
62(5) . . .
50(4) . . .
42.8(35) . . .
49(4) . . .
46(4) . . .
40.6(34) . . .
47(4) . . .
40.1(33) . . .
44.2(34) . . .
43.8(35) . . .
50(4) . . .
52(4) . . .
46.0(35) . . .
45(4) . . .
50(4) . . .
40.3(34) . . .
51(4) . . .
46(4) . . .
45.8(35) . . .
49(4) . . .
53(4) . . .
50(4) . . .
45(4) . . .
48(4) . . .
43(4) . . .
40.0(34) . . .
46(4) . . .
42.8(34) . . .
45(4) . . .
35.7(33) . . .
48(4) . . .
57(4) . . .
50(4) . . .
42.2(34) . . .
52(4) . . .
57(4) . . .
52(4) . . .
44.9(35) . . .
41.6(34) . . .
40.8(34) . . .
51(4) . . .
44(4) . . .
49(4) . . .
39.5(33) . . .
46(4) . . .
46(4) . . .
40.9(33) . . .
45(4) . . .
44(4) . . .
42.3(34) . . .
62(4) . . .
44.3(34) . . .
44.7(35) . . .
44(4) . . .
45(4) . . .
49(4) . . .
56(4) . . .
41.1(33) . . .
45(4) . . .
46(4) . . .
49(4) . . .
44.5(35) . . .
45.1(35) . . .
51(4) . . .
42(4) . . .
40.3(34) . . .
49(4) . . .
54(4) . . .
46(4) . . .
46(4) . . .
47(4) . . .
48(4) . . .
43.3(35) . . .
39.1(32) . . .
44(4) . . .
41(4) . . .
53(4) . . .
52(4) . . .
47(4) . . .
52(4) . . .
54(4) . . .
50(4) . . .
41.0(34) . . .
41.8(35) . . .
45(4) . . .
54(4) . . .
46(4) . . .
47(4) . . .
39.4(35) . . .
43(4) . . .
47(4) . . .
47(4) . . .
55(4) . . .
37.8(33) . . .
45(4) . . .
49(4) . . .
41.5(34) . . .
53(4) . . .
37.1(33) . . .
48(4) . . .
56(4) . . .
55(4) . . .
46(4) . . .
49(4) . . .
45.5(35) . . .
48(4) . . .
40.3(33) . . .
45(4) . . .
46(4) . . .
55(4) . . .
46(4) . . .
48(4) . . .
44(4) . . .
53(4) . . .
43.2(34) . . .
39.9(33) . . .
47(4) . . .
45(4) . . .
44(4) . . .
51(4) . . .
48(4) . . .
43.0(35) . . .
37.5(35) . . .
43(4) . . .
51(4) . . .
41.1(33) . . .
46(4) . . .
34.9(33) . . .
45(4) . . .
49(4) . . .
51(4) . . .
47.0(35) . . .
56(4) . . .
57(4) . . .
46(4) . . .
42.0(34) . . .
45(4) . . .
42.8(35) . . .
50(4) . . .
55(4) . . .
57(4) . . .
57(4) . . .
39.8(34) . . .
40.6(35) . . .
40.8(34) . . .
56(4) . . .
40.2(35) . . .
44(4) . . .
47(4) . . .
39.5(33) . . .
57(4) . . .
45(4) . . .
46(4) . . .
45(4) . . .
37.9(32) . . .
53(4) . . .
42(4) . . .
40(4) . . .
46(4) . . .
48(4) . . .
52(4) . . .
60(4) . . .
38.8(33) . . .
44.2(34) . . .
50(4) . . .
46(4) . . .
40.7(33) . . .
53(4) . . .
52(4) . . .
54(4) . . .
54(4) . . .
47(4) . . .
47(4) . . .
44.1(35) . . .
53(4) . . .
45(4) . . .
59(4) . . .
53(4) . . .
56(4) . . .
53(4) . . .
42.3(33) . . .
56(4) . . .
49(4) . . .
51(4) . . .
53(4) . . .
56(4) . . .
48(4) . . .
44(4) . . .
49(4) . . .
48(4) . . .
43.9(35) . . .
50(4) . . .
47(4) . . .
41.7(35) . . .
49(4) . . .
46(4) . . .
45(4) . . .
37(4) . . .
38.8(34) . . .
44(4) . . .
53(4) . . .
54(4) . . .
41.5(34) . . .
55(4) . . .
54(4) . . .
43(4) . . .
38.7(35) . . .
41.2(34) . . .
58(4) . . .
44.1(35) . . .
49(4) . . .
40(4) . . .
50(4) . . .
54(4) . . .
44(4) . . .
42(4) . . .
49(4) . . .
49(4) . . .
39.7(33) . . .
51(4) . . .
44(4) . . .
43(4) . . .
42.2(34) . . .
45.0(35) . . .
44(4) . . .
41(4) . . .
43(4) . . .
43.3(35) . . .
45.2(35) . . .
63(4) . . .
55(4) . . .
38.6(32) . . .
56(4) . . .
48(4) . . .
42.8(35) . . .
60(4) . . .
35.2(31) . . .
36.6(32) . . .
53(4) . . .
47(4) . . .
45(4) . . .
55(4) . . .
39.8(33) . . .
43.3(34) . . .
43(4) . . .
41(4) . . .
46(4) . . .
54(4) . . .
44.5(35) . . .
45(4) . . .
54(4) . . .
45(4) . . .
54(4) . . .
51(4) . . .
53(4) . . .
40.2(35) . . .
40.4(35) . . .
48(4) . . .
49(4) . . .
50(4) . . .
42(4) . . .
39.8(35) . . .
52(4) . . .
37.9(33) . . .
57(4) . . .
52(4) . . .
46(4) . . .
48(4) . . .
41.5(34) . . .
52(4) . . .
52(4) . . .
50(4) . . .
41.7(34) . . .
44(4) . . .
56(4) . . .
42.7(35) . . .
44(4) . . .
37.3(32) . . .
43.0(34) . . .
48(4) . . .
37.3(34) . . .
41.2(34) . . .
38.1(32) . . .
36.6(34) . . .
53(4) . . .
52(4) . . .
41.0(34) . . .
47(4) . . .
46(4) . . .
44(4) . . .
46(4) . . .
51(4) . . .
51(4) . . .
51(4) . . .
38.7(32) . . .
52(4) . . .
44(4) . . .
49(4) . . .
45(4) . . .
44(4) . . .
45(4) . . .
43.9(35) . . .
47(4) . . .
39.9(34) . . .
42(4) . . .
49(4) . . .
47(4) . . .
42.4(34) . . .
43(4) . . .
47(4) . . .
51(4) . . .
38.7(33) . . .
52(4) . . .
48(4) . . .
53(4) . . .
41.5(34) . . .
51(4) . . .
48(4) . . .
39.9(33) . . .
56(4) . . .
41.0(33) . . .
48(4) . . .
43.3(34) . . .
41.0(34) . . .
36.0(31) . . .
50(4) . . .
56(4) . . .
48(4) . . .
50(4) . . .
41.6(35) . . .
49(4) . . .
42.3(34) . . .
49(4) . . .
48(4) . . .
49(4) . . .
46(4) . . .
39.7(33) . . .
48(4) . . .
48(4) . . .
52(4) . . .
54(4) . . .
42.2(34) . . .
48(4) . . .
47(4) . . .
50(4) . . .
45(4) . . .
51(4) . . .
49(4) . . .
51(4) . . .
39.0(33) . . .
42.1(34) . . .
48(4) . . .
37.9(33) . . .
40.8(34) . . .
48(4) . . .
42(4) . . .
43.5(35) . . .
53(4) . . .
56(4) . . .
53(4) . . .
43.6(35) . . .
50(4) . . .
43.5(35) . . .
42(4) . . .
51(4) . . .
48(4) . . .
54(4) . . .
43.4(35) . . .
48(4) . . .
45(4) . . .
42.4(34) . . .
50(4) . . .
54(4) . . .
47(4) . . .
43(4) . . .
46(4) . . .
39.8(32) . . .
52(4) . . .
35.4(34) . . .
36.3(33) . . .
42.7(34) . . .
47(4) . . .
48(4) . . .
59(4) . . .
53(4) . . .
40.2(33) . . .
42.3(34) . . .
52(4) . . .
47(4) . . .
39.8(33) . . .
50(4) . . .
56(4) . . .
44(4) . . .
36.2(32) . . .
51(4) . . .
62(4) . . .
59(4) . . .
53(4) . . .
48(4) . . .
44(4) . . .
49(4) . . .
44(4) . . .
48(4) . . .
56(4) . . .
52(4) . . .
49(4) . . .
51(4) . . .
43(4) . . .
48(4) . . .
42.6(34) . . .
47(4) . . .
46(4) . . .
51(4) . . .
42.2(34) . . .
59(4) . . .
37.5(31) . . .
41.2(35) . . .
46(4) . . .
37.1(34) . . .
38.5(32) . . .
42.3(34) . . .
35.5(32) . . .
48(4) . . .
44(4) . . .
33.4(30) . . .
41.7(34) . . .
39.9(33) . . .
44(4) . . .
47(4) . . .
47(4) . . .
51(4) . . .
43(4) . . .
41.4(34) . . .
58(4) . . .
44.5(34) . . .
47(4) . . .
51(4) . . .
48(4) . . .
42.1(34) . . .
48(4) . . .
46(4) . . .
41.1(33) . . .
50(4) . . .
56(4) . . .
45.0(35) . . .
44(4) . . .
56(4) . . .
42.4(34) . . .
43.6(35) . . .
40.3(33) . . .
52(4) . . .
48(4) . . .
47(4) . . .
47(4) . . .
49(4) . . .
51(4) . . .
51(4) . . .
46(4) . . .
51(4) . . .
44(4) . . .
43.9(34) . . .
46(4) . . .
46(4) . . .
47(4) . . .
43.5(35) . . .
36.9(34) . . .
50(4) . . .
42.7(34) . . .
41.1(33) . . .
45(4) . . .
37.4(32) . . .
41(4) . . .
47(4) . . .
46(4) . . .
41.6(33) . . .
45(4) . . .
51(4) . . .
46(4) . . .
52(4) . . .
49(4) . . .
45(4) . . .
47(4) . . .
44(4) . . .
56(4) . . .
48(4) . . .
45(4) . . .
41.1(34) . . .
43.6(34) . . .
54(4) . . .
44(4) . . .
47(4) . . .
48(4) . . .
40.8(34) . . .
52(4) . . .
53(4) . . .
46(4) . . .
46(4) . . .
41.8(34) . . .
48(4) . . .
45(4) . . .
46(4) . . .
33.5(31) . . .
46(4) . . .
47(4) . . .
45(4) . . .
56(4) . . .
48(4) . . .
41.0(33) . . .
42.9(34) . . .
47(4) . . .
43(4) . . .
39.9(33) . . .
40.4(33) . . .
46(4) . . .
52(4) . . .
48(4) . . .
48(4) . . .
52(4) . . .
46(4) . . .
46(4) . . .
40.2(35) . . .
43(4) . . .
45.4(35) . . .
38.0(32) . . .
48(4) . . .
54(4) . . .
45(4) . . .
49(4) . . .
56(4) . . .
49(4) . . .
49(4) . . .
45(4) . . .
45.0(35) . . .
51(4) . . .
43.4(35) . . .
50(4) . . .
44(4) . . .
39.1(32) . . .
46(4) . . .
46(4) . . .
49(4) . . .
56(4) . . .
39.6(33) . . .
50(4) . . .
44(4) . . .
52(4) . . .
56(4) . . .
43.0(34) . . .
41.8(35) . . .
47(4) . . .
49(4) . . .
48(4) . . .
50(4) . . .
50(4) . . .
39.7(33) . . .
46(4) . . .
56(4) . . .
58(4) . . .
61(4) . . .
42.1(34) . . .
46(4) . . .
47(4) . . .
36.5(31) . . .
42.1(35) . . .
44(4) . . .
53(4) . . .
49(4) . . .
50(4) . . .
53(4) . . .
48(4) . . .
47(4) . . .
48(4) . . .
39.9(33) . . .
43(4) . . .
43(4) . . .
48(4) . . .
49(4) . . .
54(4) . . .
52(4) . . .
49(4) . . .
46(4) . . .
59(4) . . .
49(4) . . .
45(4) . . .
53(4) . . .
47(4) . . .
42.2(34) . . .
42.4(35) . . .
46(4) . . .
42.8(35) . . .
45(4) . . .
46(4) . . .
41.2(35) . . .
49(4) . . .
47(4) . . .
42.9(34) . . .
46(4) . . .
47(4) . . .
43(4) . . .
36.9(32) . . .
42(4) . . .
39.3(33) . . .
40.5(34) . . .
41.7(34) . . .
51(4) . . .
51(4) . . .
51(4) . . .
38.2(33) . . .
43(4) . . .
59(4) . . .
41.8(33) . . .
47(4) . . .
46(4) . . .
49(4) . . .
52(4) . . .
50(4) . . .
41.3(34) . . .
45.4(35) . . .
39.5(34) . . .
43(4) . . .
46.9(35) . . .
55(4) . . .
41.9(35) . . .
42(4) . . .
55(4) . . .
46(4) . . .
48(4) . . .
44(4) . . .
45(4) . . .
49(4) . . .
48(4) . . .
45(4) . . .
51(4) . . .
38.0(33) . . .
52(4) . . .
51(4) . . .
40(4) . . .
48(4) . . .
39.1(33) . . .
51(4) . . .
44.6(35) . . .
50(4) . . .
44(4) . . .
43.6(35) . . .
49(4) . . .
53(4) . . .
49(4) . . .
49(4) . . .
45(4) . . .
61(4) . . .
46(4) . . .
50(4) . . .
42.4(35) . . .
48(4) . . .
51(4) . . .
43.8(34) . . .
46(4) . . .
42(4) . . .
52(4) . . .
43.5(35) . . .
45.3(35) . . .
35.9(31) . . .
38.6(34) . . .
45(4) . . .
44(4) . . .
39.5(33) . . .
45(4) . . .
45(4) . . .
54(4) . . .
39.9(33) . . .
54(4) . . .
53(4) . . .
38.5(34) . . .
47(4) . . .
49(4) . . .
44.3(35) . . .
46(4) . . .
44(4) . . .
41.8(34) . . .
52(4) . . .
46(4) . . .
56(4) . . .
54(4) . . .
43(4) . . .
39.7(33) . . .
56(4) . . .
44(4) . . .
56(4) . . .
33.9(31) . . .
40.0(33) . . .
49(4) . . .
51(4) . . .
40.5(33) . . .
49(4) . . .
50(4) . . .
41.2(33) . . .
47(4) . . .
49(4) . . .
41.5(33) . . .
39.1(32) . . .
50(4) . . .
41.2(35) . . .
52(4) . . .
39.5(34) . . .
39.1(32) . . .
37.7(32) . . .
44(4) . . .
50(4) . . .
52(4) . . .
43.6(34) . . .
42.1(35) . . .
43(4) . . .
52(4) . . .
52(4) . . .
45.6(35) . . .
53(4) . . .
46(4) . . .
44(4) . . .
44.1(35) . . .
42.0(34) . . .
36.5(31) . . .
49(4) . . .
47(4) . . .
49(4) . . .
39.6(34) . . .
45(4) . . .
52(4) . . .
48(4) . . .
53(4) . . .
50(4) . . .
45(4) . . .
45(4) . . .
48(4) . . .
48(4) . . .
40.1(33) . . .
43(4) . . .
44(4) . . .
40.5(35) . . .
47(4) . . .
44.0(34) . . .
41.4(34) . . .
44(4) . . .
47(4) . . .
50(4) . . .
44(4) . . .
46(4) . . .
47(4) . . .
44(4) . . .
42.5(34) . . .
37.3(33) . . .
48(4) . . .
55(4) . . .
41.1(34) . . .
50(4) . . .
48(4) . . .
50(4) . . .
50(4) . . .
45.3(35) . . .
52(4) . . .
41.9(34) . . .
49(4) . . .
48(4) . . .
34.7(31) . . .
37.1(32) . . .
44(4) . . .
51(4) . . .
63(4) . . .
42.1(34) . . .
41.5(34) . . .
43(4) . . .
52(4) . . .
47(4) . . .
53(4) . . .
52(4) . . .
49(4) . . .
51(4) . . .
49(4) . . .
48(4) . . .
41(4) . . .
42(4) . . .
48(4) . . .
52(4) . . .
51(4) . . .
40.4(32) . . .
48(4) . . .
43.3(34) . . .
47(4) . . .
47(4) . . .
42.5(34) . . .
51(4) . . .
43(4) . . .
38.8(34) . . .
44.9(34) . . .
55(4) . . .
46(4) . . .
47(4) . . .
49(4) . . .
45.8(35) . . .
44(4) . . .
51(4) . . .
53(4) . . .
43.1(34) . . .
37.6(32) . . .
40.8(34) . . .
46(4) . . .
41.4(33) . . .
44.7(34) . . .
47(4) . . .
50(4) . . .
47(4) . . .
38.0(32) . . .
50(4) . . .
41.4(33) . . .
42.1(34) . . .
45(4) . . .
51(4) . . .
48(4) . . .
53(4) . . .
55(4) . . .
41(4) . . .
49(4) . . .
40.5(33) . . .
44(4) . . .
43(4) . . .
39.1(34) . . .
39.9(34) . . .
43.8(34) . . .
44(4) . . .
56(4) . . .
50(4) . . .
45(4) . . .
42.6(34) . . .
45(4) . . .
44(4) . . .
35.9(31) . . .
51(4) . . .
52(4) . . .
36.7(32) . . .
44(4) . . .
50(4) . . .
43(4) . . .
47(4) . . .
42.0(34) . . .
36.8(32) . . .
46(4) . . .
51(4) . . .
58(4) . . .
43.7(34) . . .
52(4) . . .
52(4) . . .
47(4) . . .
51(4) . . .
50(4) . . .
44(4) . . .
45(4) . . .
43.8(34) . . .
41.1(34) . . .
44(4) . . .
47(4) . . .
52(4) . . .
44.7(35) . . .
45(4) . . .
45(4) . . .
54(4) . . .
50(4) . . .
49(4) . . .
54(4) . . .
47(4) . . .
41.3(35) . . .
42(4) . . .
43.3(34) . . .
48(4) . . .
44(4) . . .
40(4) . . .
43.3(35) . . .
46(4) . . .
54(4) . . .
38.8(33) . . .
52(4) . . .
51(4) . . .
42.3(33) . . .
50(4) . . .
53(4) . . .
50(4) . . .
48(4) . . .
56(4) . . .
52(4) . . .
42.2(34) . . .
45(4) . . .
46(4) . . .
44.0(34) . . .
46(4) . . .
54(4) . . .
52(4) . . .
51(4) . . .
41.8(34) . . .
39.0(34) . . .
51(4) . . .
47.4(35) . . .
57(4) . . .
56(4) . . .
48(4) . . .
44(4) . . .
59(4) . . .
46(4) . . .
44(4) . . .
37.1(32) . . .
40(4) . . .
42(4) . . .
50(4) . . .
40.9(34) . . .
44.9(35) . . .
42(4) . . .
39.0(33) . . .
38.7(35) . . .
45(4) . . .
40.3(34) . . .
39.1(33) . . .
47(4) . . .
43.0(34) . . .
42.0(34) . . .
47(4) . . .
45(4) . . .
47(4) . . .
53(4) . . .
41(4) . . .
38(4) . . .
42(4) . . .
48(4) . . .
51(4) . . .
50(4) . . .
39.0(33) . . .
43.1(35) . . .
44(4) . . .
50(4) . . .
52(4) . . .
41.8(34) . . .
48(4) . . .
50(4) . . .
45(4) . . .
53(4) . . .
49(4) . . .
53(4) . . .
47(4) . . .
52(4) . . .
47(4) . . .
49(4) . . .
42.0(34) . . .
52(4) . . .
43.3(35) . . .
38.8(33) . . .
40.9(34) . . .
47(4) . . .
44(4) . . .
46(4) . . .
46(4) . . .
46(4) . . .
49(4) . . .
44.2(35) . . .
37.5(32) . . .
45(4) . . .
44(4) . . .
44(4) . . .
37.9(32) . . .
38.4(33) . . .
42(4) . . .
60(5) . . .
45.1(35) . . .
53(4) . . .
48(4) . . .
55(4) . . .
38.5(34) . . .
47(4) . . .
56(4) . . .
41.4(34) . . .
45(4) . . .
37.8(33) . . .
48(4) . . .
45(4) . . .
45.8(35) . . .
46(4) . . .
31.6(29) . . .
43(4) . . .
38.2(32) . . .
42.7(34) . . .
46(4) . . .
40.4(34) . . .
48(4) . . .
48(4) . . .
48(4) . . .
44(4) . . .
45(4) . . .
48(4) . . .
33.9(31) . . .
33.4(32) . . .
46(4) . . .
43.2(35) . . .
48(4) . . .
46.1(35) . . .
52(4) . . .
45(4) . . .
42.2(34) . . .
38.5(32) . . .
46(4) . . .
50(4) . . .
40(4) . . .
50(4) . . .
45(4) . . .
46.3(35) . . .
47(4) . . .
32.7(29) . . .
50(4) . . .
53(4) . . .
41.7(34) . . .
34.5(32) . . .
46(4) . . .
47(4) . . .
49(4) . . .
48(4) . . .
45(4) . . .
44(4) . . .
39.7(32) . . .
51(4) . . .
43.3(34) . . .
48(4) . . .
43(4) . . .
52(4) . . .
51(4) . . .
52(4) . . .
54(4) . . .
46(4) . . .
31.0(29) . . .
41.3(33) . . .
49(4) . . .
42.0(34) . . .
58(4) . . .
43.0(35) . . .
58(4) . . .
47(4) . . .
47(4) . . .
39.3(32) . . .
50(4) . . .
45(4) . . .
40(4) . . .
41.6(34) . . .
40.4(35) . . .
54(4) . . .
47(4) . . .
47(4) . . .
46(4) . . .
39(4) . . .
45(4) . . .
49(4) . . .
40.5(33) . . .
49(4) . . .
43.4(35) . . .
38.8(32) . . .
49(4) . . .
44(4) . . .
48(4) . . .
45(4) . . .
50(4) . . .
44.3(35) . . .
43(4) . . .
48(4) . . .
51(4) . . .
50(4) . . .
37.2(32) . . .
40.2(33) . . .
46(4) . . .
49(4) . . .
48(4) . . .
49(4) . . .
45(4) . . .
45(4) . . .
46(4) . . .
49(4) . . .
58(4) . . .
42.9(34) . . .
48(4) . . .
45.2(35) . . .
46(4) . . .
42.4(34) . . .
41.2(35) . . .
55(4) . . .
45(4) . . .
52(4) . . .
53(4) . . .
51(4) . . .
42.1(34) . . .
48(4) . . .
45(4) . . .
50(4) . . .
42.6(34) . . .
44.0(35) . . .
53(4) . . .
46(4) . . .
55(4) . . .
54(4) . . .
53(4) . . .
49(4) . . .
47(4) . . .
51(4) . . .
41(4) . . .
44(4) . . .
53(4) . . .
53(4) . . .
41.5(35) . . .
43(4) . . .
39.8(34) . . .
47(4) . . .
43.6(34) . . .
44(4) . . .
45(4) . . .
43.1(35) . . .
36.0(32) . . .
45.5(34) . . .
52(4) . . .
43(4) . . .
47(4) . . .
43.9(34) . . .
52(4) . . .
48(4) . . .
39.1(34) . . .
52(4) . . .
44.7(35) . . .
36.5(32) . . .
40.2(33) . . .
48(4) . . .
44(4) . . .
43.1(34) . . .
52(4) . . .
50(4) . . .
53(4) . . .
42.7(35) . . .
37.0(32) . . .
37.7(32) . . .
41.4(34) . . .
45(4) . . .
47(4) . . .
51(4) . . .
49(4) . . .
47(4) . . .
55(4) . . .
49(4) . . .
46(4) . . .
52(4) . . .
50(4) . . .
45(4) . . .
43(4) . . .
46.7(35) . . .
44(4) . . .
53(4) . . .
49(4) . . .
48(4) . . .
43.8(35) . . .
53(4) . . .
37.4(32) . . .
40.8(34) . . .
50(4) . . .
49(4) . . .
46(4) . . .
41(4) . . .
38.2(34) . . .
42.7(34) . . .
46(4) . . .
42.3(35) . . .
51(4) . . .
51(4) . . .
56(4) . . .
44.8(35) . . .
50(4) . . .
43(4) . . .
45(4) . . .
48(4) . . .
48(4) . . .
51(4) . . .
47(4) . . .
47(4) . . .
49(4) . . .
42.3(34) . . .
46(4) . . .
39(4) . . .
46(4) . . .
46(4) . . .
39.8(34) . . .
49(4) . . .
45(4) . . .
43(4) . . .
45(4) . . .
45(4) . . .
36.4(33) . . .
46(4) . . .
43(4) . . .
52(4) . . .
50(4) . . .
51(4) . . .
44(4) . . .
46(4) . . .
35.9(31) . . .
49(4) . . .
46(4) . . .
41.5(34) . . .
44(4) . . .
42.6(34) . . .
42.7(34) . . .
46(4) . . .
46(4) . . .
44.2(34) . . .
55(4) . . .
51(4) . . .
53(4) . . .
50(4) . . .
46(4) . . .
44.4(35) . . .
40.6(33) . . .
54(4) . . .
47(4) . . .
47(4) . . .
35.9(31) . . .
35.1(32) . . .
47(4) . . .
45(4) . . .
50(4) . . .
37.2(32) . . .
39.3(34) . . .
43(4) . . .
37.6(33) . . .
36.5(31) . . .
52(4) . . .
42.0(34) . . .
49(4) . . .
47(4) . . .
44.3(35) . . .
44.9(35) . . .
48(4) . . .
44(4) . . .
42(4) . . .
50(4) . . .
37.6(32) . . .
50(4) . . .
37.4(34) . . .
46(4) . . .
45(4) . . .
43.3(35) . . .
52(4) . . .
48(4) . . .
39.2(33) . . .
45(4) . . .
40.7(35) . . .
45(4) . . .
49(4) . . .
46(4) . . .
44.7(35) . . .
46(4) . . .
51(4) . . .
50(4) . . .
54(4) . . .
44.4(35) . . .
40.0(32) . . .
39.4(33) . . .
44(4) . . .
47(4) . . .
45(4) . . .
37.7(34) . . .
46(4) . . .
45(4) . . .
53(4) . . .
49(4) . . .
48(4) . . .
47(4) . . .
56(4) . . .
49(4) . . .
44.4(35) . . .
48(4) . . .
46(4) . . .
45(4) . . .
43.5(34) . . .
55(4) . . .
52(4) . . .
44(4) . . .
47(4) . . .
40.0(33) . . .
47(4) . . .
39.3(33) . . .
60(4) . . .
53(4) . . .
40.7(33) . . .
55(4) . . .
40.8(34) . . .
45(4) . . .
41.4(34) . . .
40.0(33) . . .
48(4) . . .
45(4) . . .
48(4) . . .
46(4) . . .
46(4) . . .
45(4) . . .
44(4) . . .
46(4) . . .
48(4) . . .
48(4) . . .
44(4) . . .
49(4) . . .
44(4) . . .
49(4) . . .
46(4) . . .
39(4) . . .
32.6(31) . . .
50(4) . . .
48(4) . . .
54(4) . . .
45(4) . . .
49(4) . . .
54(4) . . .
44.5(34) . . .
46(4) . . .
46(4) . . .
44(4) . . .
44(4) . . .
50(4) . . .
40.1(33) . . .
38.0(33) . . .
43(4) . . .
52(4) . . .
46(4) . . .
50(4) . . .
53(4) . . .
42(4) . . .
44(4) . . .
44.7(35) . . .
48(4) . . .
46(4) . . .
44(4) . . .
36.7(31) . . .
39.8(34) . . .
42.3(35) . . .
47(4) . . .
46(4) . . .
50(4) . . .
44.3(35) . . .
39.6(34) . . .
45(4) . . .
47(4) . . .
43.7(35) . . .
39.3(33) . . .
49(4) . . .
49(4) . . .
42(4) . . .
52(4) . . .
41.7(33) . . .
46(4) . . .
39.5(33) . . .
41.6(35) . . .
47(4) . . .
51(4) . . .
45(4) . . .
46(4) . . .
42(4) . . .
53(4) . . .
50(4) . . .
39.8(33) . . .
41.0(33) . . .
43.1(35) . . .
42.5(34) . . .
42.3(34) . . .
43.1(35) . . .
45(4) . . .
42(4) . . .
43.6(35) . . .
52(4) . . .
45(4) . . .
42(4) . . .
36.4(33) . . .
43.5(34) . . .
43(4) . . .
43(4) . . .
43(4) . . .
46(4) . . .
41.0(33) . . .
51(4) . . .
49(4) . . .
46(4) . . .
44(4) . . .
49(4) . . .
44.8(34) . . .
48(4) . . .
53(4) . . .
38.7(33) . . .
53(4) . . .
42.2(35) . . .
38.8(33) . . .
44(4) . . .
47(4) . . .
47(4) . . .
44(4) . . .
48(4) . . .
53(4) . . .
52(4) . . .
41.6(34) . . .
52(4) . . .
45(4) . . .
42.8(34) . . .
41.5(33) . . .
53(4) . . .
57(4) . . .
48(4) . . .
51(4) . . .
51(4) . . .
44(4) . . .
46(4) . . .
39(4) . . .
47(4) . . .
56(4) . . .
49(4) . . .
49(4) . . .
47(4) . . .
36.6(31) . . .
36.0(31) . . .
49(4) . . .
42.1(35) . . .
46(4) . . .
41(4) . . .
45(4) . . .
43.9(35) . . .
45(4) . . .
43(4) . . .
43.6(35) . . .
47(4) . . .
51(4) . . .
53(4) . . .
48(4) . . .
49(4) . . .
55(4) . . .
41.7(34) . . .
48(4) . . .
44.4(33) . . .
48(4) . . .
41.6(33) . . .
43.8(35) . . .
46(4) . . .
43.2(35) . . .
45(4) . . .
32.6(30) . . .
43(4) . . .
43(4) . . .
48(4) . . .
54(4) . . .
42.3(34) . . .
56(4) . . .
51(4) . . .
43(4) . . .
47(4) . . .
50(4) . . .
43(4) . . .
41(4) . . .
42.3(35) . . .
49(4) . . .
42.5(34) . . .
41.8(34) . . .
47(4) . . .
40.0(33) . . .
49(4) . . .
45.4(35) . . .
56(4) . . .
41.2(35) . . .
40.8(34) . . .
41.9(33) . . .
48(4) . . .
46(4) . . .
47(4) . . .
40.7(34) . . .
46(4) . . .
46(4) . . .
48(4) . . .
51(4) . . .
43(4) . . .
44.0(34) . . .
48(4) . . .
54(4) . . .
50(4) . . .
44(4) . . .
43.3(34) . . .
48(4) . . .
48(4) . . .
47(4) . . .
55(4) . . .
49(4) . . .
44.8(35) . . .
52(4) . . .
48(4) . . .
45(4) . . .
45.8(35) . . .
54(4) . . .
45(4) . . .
51(4) . . .
56(4) . . .
44.5(35) . . .
56(4) . . .
37.8(33) . . .
43(4) . . .
48(4) . . .
48(4) . . .
53(4) . . .
47(4) . . .
53(4) . . .
49(4) . . .
38.1(32) . . .
39.4(34) . . .
51(4) . . .
57(4) . . .
44.0(34) . . .
40.4(33) . . .
38.4(33) . . .
50(4) . . .
46(4) . . .
52(4) . . .
48(4) . . .
56(4) . . .
44(4) . . .
42.5(35) . . .
56(4) . . .
52(4) . . .
47(4) . . .
55(4) . . .
40.3(35) . . .
41.1(33) . . .
55(4) . . .
46(4) . . .
50(4) . . .
55(4) . . .
50(4) . . .
49(4) . . .
52(4) . . .
50(4) . . .
43.3(34) . . .
47(4) . . .
53(4) . . .
47(4) . . .
42.8(35) . . .
42.3(35) . . .
39.8(33) . . .
43(4) . . .
52(4) . . .
51(4) . . .
60(4) . . .
42.1(34) . . .
48(4) . . .
46(4) . . .
51(4) . . .
46(4) . . .
41.3(34) . . .
45(4) . . .
54(4) . . .
44.8(34) . . .
40.5(33) . . .
40.9(34) . . .
39.4(34) . . .
42.0(35) . . .
47(4) . . .
57(4) . . .
46(4) . . .
48(4) . . .
42(4) . . .
59(4) . . .
50(4) . . .
41.2(33) . . .
45(4) . . .
48(4) . . .
50(4) . . .
48(4) . . .
42.1(34) . . .
43.2(34) . . .
47(4) . . .
47(4) . . .
52(4) . . .
48(4) . . .
37.8(33) . . .
52(4) . . .
42.5(34) . . .
44.1(35) . . .
46(4) . . .
41.5(35) . . .
42(4) . . .
36.7(31) . . .
53(4) . . .
42.4(34) . . .
47(4) . . .
46(4) . . .
39.6(34) . . .
40.8(34) . . .
36.4(32) . . .
48(4) . . .
50(4) . . .
44(4) . . .
37.4(32) . . .
49(4) . . .
42(4) . . .
48(4) . . .
47(4) . . .
53(4) . . .
43(4) . . .
43(4) . . .
46(4) . . .
46(4) . . .
51(4) . . .
44(4) . . .
44(4) . . .
47(4) . . .
42.9(34) . . .
41.9(33) . . .
45(4) . . .
46(4) . . .
54(4) . . .
46(4) . . .
50(4) . . .
37.3(32) . . .
47(4) . . .
44(4) . . .
41.0(33) . . .
54(4) . . .
46(4) . . .
47(4) . . .
43(4) . . .
49(4) . . .
47(4) . . .
44(4) . . .
46(4) . . .
42(4) . . .
40.6(33) . . .
44.5(35) . . .
52(4) . . .
48(4) . . .
45(4) . . .
53(4) . . .
44.4(35) . . .
48(4) . . .
41(4) . . .
35.9(33) . . .
50(4) . . .
40.6(34) . . .
31.8(34) . . .
33.1(32) . . .
42(4) . . .
48(4) . . .
43(4) . . .
56(4) . . .
49(4) . . .
51(4) . . .
45(4) . . .
30.7(28) . . .
43.0(35) . . .
48(4) . . .
51(4) . . .
49(4) . . .
47(4) . . .
50(4) . . .
49(4) . . .
34.7(31) . . .
42.5(34) . . .
47(4) . . .
47(4) . . .
54(4) . . .
49(4) . . .
52(4) . . .
42(4) . . .
44(4) . . .
53(4) . . .
41.7(34) . . .
30.3(29) . . .
40(4) . . .
40(4) . . .
54(4) . . .
51(4) . . .
49(4) . . .
52(4) . . .
48(4) . . .
46(4) . . .
51(4) . . .
45(4) . . .
37.3(32) . . .
40.0(35) . . .
39.4(34) . . .
48(4) . . .
43.4(35) . . .
48(4) . . .
51(4) . . .
52(4) . . .
50(4) . . .
46(4) . . .
45(4) . . .
42(4) . . .
33.5(31) . . .
44.6(35) . . .
47(4) . . .
51(4) . . .
51(4) . . .
39.2(34) . . .
49(4) . . .
48(4) . . .
49(4) . . .
43.3(35) . . .
42.5(34) . . .
41.7(34) . . .
51(4) . . .
39.4(32) . . .
41.1(33) . . .
45(4) . . .
41.4(33) . . .
46(4) . . .
55(4) . . .
50(4) . . .
44.6(34) . . .
49(4) . . .
42(4) . . .
36.9(34) . . .
49(4) . . .
49(4) . . .
42.7(35) . . .
37.0(32) . . .
43(4) . . .
47(4) . . .
42.4(34) . . .
44.6(35) . . .
48(4) . . .
45(4) . . .
48(4) . . .
48(4) . . .
44(4) . . .
43(4) . . .
43(4) . . .
52(4) . . .
36.4(32) . . .
41.9(34) . . .
49(4) . . .
51(4) . . .
38.3(32) . . .
55(4) . . .
47(4) . . .
35.1(32) . . .
48(4) . . .
49(4) . . .
46(4) . . .
53(4) . . .
40.0(33) . . .
44(4) . . .
49(4) . . .
40.7(33) . . .
46(4) . . .
48(4) . . .
46(4) . . .
56(4) . . .
46(4) . . .
43.3(34) . . .
48(4) . . .
47(4) . . .
57(4) . . .
43.4(34) . . .
48(4) . . .
55(4) . . .
49(4) . . .
48(4) . . .
53(4) . . .
50(4) . . .
49(4) . . .
33.4(30) . . .
45(4) . . .
51(4) . . .
40.1(34) . . .
40.2(34) . . .
48(4) . . .
49(4) . . .
49(4) . . .
56(4) . . .
42(4) . . .
45(4) . . .
38.8(32) . . .
34.5(30) . . .
45(4) . . .
49(4) . . .
40.3(34) . . .
41.3(34) . . .
52(4) . . .
45(4) . . .
45(4) . . .
44(4) . . .
43.1(34) . . .
44.6(34) . . .
45(4) . . .
47(4) . . .
50(4) . . .
45.0(35) . . .
57(4) . . .
43(4) . . .
41(4) . . .
39.0(34) . . .
51(4) . . .
41.8(34) . . .
49(4) . . .
42.0(35) . . .
44.9(34) . . .
61(4) . . .
46(4) . . .
43(4) . . .
48(4) . . .
39.9(32) . . .
50(4) . . .
51(4) . . .
49(4) . . .
49(4) . . .
42.6(35) . . .
40.9(34) . . .
38.2(32) . . .
43(4) . . .
44.1(35) . . .
45(4) . . .
38.3(33) . . .
44(4) . . .
41(4) . . .
46(4) . . .
43.1(34) . . .
44.3(35) . . .
54(4) . . .
44(4) . . .
44.9(35) . . .
40.5(33) . . .
39.4(33) . . .
45.0(35) . . .
45(4) . . .
43(4) . . .
45(4) . . .
45(4) . . .
42(4) . . .
49(4) . . .
45.3(35) . . .
49(4) . . .
38.1(32) . . .
39.9(35) . . .
40.5(34) . . .
48(4) . . .
43.4(35) . . .
48(4) . . .
41.2(35) . . .
45(4) . . .
43(4) . . .
40.6(34) . . .
37.1(32) . . .
45(4) . . .
34.7(31) . . .
48(4) . . .
37.3(31) . . .
43(4) . . .
33.6(32) . . .
49(4) . . .
38.0(32) . . .
41.4(33) . . .
45(4) . . .
48(4) . . .
59(4) . . .
58(4) . . .
50(4) . . .
52(4) . . .
38.5(34) . . .
46(4) . . .
41.3(33) . . .
46(4) . . .
44(4) . . .
43(4) . . .
51(4) . . .
41.5(33) . . .
44.3(34) . . .
44(4) . . .
37.7(34) . . .
45(4) . . .
48(4) . . .
48(4) . . .
47(4) . . .
47(4) . . .
43(4) . . .
50(4) . . .
48(4) . . .
54(4) . . .
41(4) . . .
46(4) . . .
42.3(34) . . .
41.8(33) . . .
44.4(34) . . .
52(4) . . .
40.4(34) . . .
45(4) . . .
46.0(35) . . .
50(4) . . .
45(4) . . .
44.2(35) . . .
45.0(35) . . .
54(4) . . .
51(4) . . .
47(4) . . .
51(4) . . .
42.3(34) . . .
40.6(35) . . .
44(4) . . .
49(4) . . .
47(4) . . .
49(4) . . .
46(4) . . .
47(4) . . .
47(4) . . .
44.5(34) . . .
33.3(30) . . .
41.5(35) . . .
43(4) . . .
50(4) . . .
54(4) . . .
52(4) . . .
49(4) . . .
51(4) . . .
35.2(31) . . .
41.3(33) . . .
38.1(33) . . .
46(4) . . .
42(4) . . .
53(4) . . .
42.7(34) . . .
51(4) . . .
47(4) . . .
43(4) . . .
42.8(35) . . .
47(4) . . .
46(4) . . .
50(4) . . .
54(4) . . .
51(4) . . .
43.8(34) . . .
42.7(34) . . .
44(4) . . .
42(4) . . .
45(4) . . .
45(4) . . .
40.0(33) . . .
46(4) . . .
43(4) . . .
44(4) . . .
38.7(32) . . .
46(4) . . .
44(4) . . .
44(4) . . .
53(4) . . .
50(4) . . .
52(4) . . .
48(4) . . .
41.8(34) . . .
43.2(34) . . .
43.7(34) . . .
46(4) . . .
53(4) . . .
43.1(35) . . .
46(4) . . .
44.5(35) . . .
46(4) . . .
54(4) . . .
41.7(34) . . .
43.5(34) . . .
43.5(35) . . .
44(4) . . .
41(4) . . .
48(4) . . .
49(4) . . .
37.2(31) . . .
44(4) . . .
47(4) . . .
38.6(35) . . .
41.1(33) . . .
47(4) . . .
47(4) . . .
41(4) . . .
53(4) . . .
46(4) . . .
44.0(35) . . .
49(4) . . .
45(4) . . .
51(4) . . .
46(4) . . .
45.9(35) . . .
41.8(35) . . .
41(4) . . .
48(4) . . .
51(4) . . .
41.4(34) . . .
44(4) . . .
48(4) . . .
46(4) . . .
37.0(32) . . .
43.6(35) . . .
39.3(34) . . .
41.9(35) . . .
44(4) . . .
44.2(34) . . .
45(4) . . .
41(4) . . .
48(4) . . .
46(4) . . .
44.2(35) . . .
49(4) . . .
52(4) . . .
50(4) . . .
48(4) . . .
46(4) . . .
47(4) . . .
46(4) . . .
42.4(34) . . .
47(4) . . .
57(4) . . .
43.2(35) . . .
46(4) . . .
54(4) . . .
48(4) . . .
44.7(34) . . .
47(4) . . .
41(4) . . .
45(4) . . .
42.1(34) . . .
48(4) . . .
45(4) . . .
53(4) . . .
43.6(35) . . .
46(4) . . .
52(4) . . .
45(4) . . .
56(4) . . .
56(4) . . .
51(4) . . .
44.7(35) . . .
40.7(35) . . .
42.2(35) . . .
41.7(34) . . .
40.9(33) . . .
39.9(33) . . .
40.5(33) . . .
51(4) . . .
44(4) . . .
42.3(34) . . .
44(4) . . .
38.4(33) . . .
60(4) . . .
52(4) . . .
37.9(32) . . .
43.0(34) . . .
53(4) . . .
49(4) . . .
49(4) . . .
51(4) . . .
48(4) . . .
55(4) . . .
52(4) . . .
42.5(34) . . .
50(4) . . .
40.3(35) . . .
40.0(34) . . .
39.3(33) . . .
43.2(35) . . .
38.5(33) . . .
50(4) . . .
51(4) . . .
54(4) . . .
51(4) . . .
40.9(33) . . .
50(4) . . .
51(4) . . .
40.8(34) . . .
38.5(32) . . .
48(4) . . .
48(4) . . .
50(4) . . .
41.1(34) . . .
39.6(33) . . .
51(4) . . .
47(4) . . .
44(4) . . .
49(4) . . .
46(4) . . .
49(4) . . .
39.4(33) . . .
47(4) . . .
41.9(34) . . .
45(4) . . .
48(4) . . .
52(4) . . .
48(4) . . .
44(4) . . .
47(4) . . .
42.3(34) . . .
48(4) . . .
46(4) . . .
48(4) . . .
47(4) . . .
40.3(33) . . .
36.9(32) . . .
43(4) . . .
49(4) . . .
50(4) . . .
45(4) . . .
42.5(35) . . .
47(4) . . .
51(4) . . .
39.7(33) . . .
48(4) . . .
45(4) . . .
31.9(29) . . .
35.8(32) . . .
38.2(32) . . .
51(4) . . .
42.4(34) . . .
50(4) . . .
42.2(34) . . .
38.5(32) . . .
38.0(33) . . .
43(4) . . .
45(4) . . .
41.9(34) . . .
48(4) . . .
39.2(33) . . .
52(4) . . .
46(4) . . .
49(4) . . .
41.0(33) . . .
46(4) . . .
47(4) . . .
49(4) . . .
47(4) . . .
54(4) . . .
43(4) . . .
44(4) . . .
44.9(35) . . .
46(4) . . .
54(4) . . .
42(4) . . .
46(4) . . .
41.5(33) . . .
48(4) . . .
43.1(35) . . .
45(4) . . .
47(4) . . .
43(4) . . .
42.4(35) . . .
46(4) . . .
40.5(34) . . .
46(4) . . .
57(4) . . .
35.6(32) . . .
52(4) . . .
42(4) . . .
44(4) . . .
52(4) . . .
41.2(33) . . .
50(4) . . .
50(4) . . .
39(4) . . .
45(4) . . .
37.6(32) . . .
49(4) . . .
34.7(32) . . .
44(4) . . .
54(4) . . .
45(4) . . .
45(4) . . .
35.4(32) . . .
41.0(34) . . .
43.4(34) . . .
52(4) . . .
45(4) . . .
42(4) . . .
46(4) . . .
40.9(33) . . .
49(4) . . .
57(4) . . .
51(4) . . .
51(4) . . .
50(4) . . .
43.5(35) . . .
52(4) . . .
48(4) . . .
51(4) . . .
43.3(34) . . .
46(4) . . .
43(4) . . .
44(4) . . .
42(4) . . .
43.0(34) . . .
44.5(35) . . .
42(4) . . .
38.7(35) . . .
47(4) . . .
45(4) . . .
46(4) . . .
49(4) . . .
43(4) . . .
38.4(32) . . .
49(4) . . .
39.2(33) . . .
43(4) . . .
47(4) . . .
42.3(34) . . .
43.2(34) . . .
58(4) . . .
52(4) . . .
37.8(33) . . .
47(4) . . .
48(4) . . .
46(4) . . .
39(4) . . .
40.9(35) . . .
60(4) . . .
44.3(35) . . .
38.8(34) . . .
43(4) . . .
51(4) . . .
48(4) . . .
52(4) . . .
43.7(35) . . .
45(4) . . .
46(4) . . .
38.4(32) . . .
51(4) . . .
33.8(31) . . .
48(4) . . .
38.0(32) . . .
46(4) . . .
50(4) . . .
44(4) . . .
43(4) . . .
53(4) . . .
49(4) . . .
54(4) . . .
47(4) . . .
46(4) . . .
46(4) . . .
39.9(33) . . .
52(4) . . .
34.8(30) . . .
45(4) . . .
47(4) . . .
37.7(32) . . .
47(4) . . .
42.7(34) . . .
44.3(35) . . .
48(4) . . .
53(4) . . .
35.3(31) . . .
36.4(32) . . .
49(4) . . .
49(4) . . .
50(4) . . .
43(4) . . .
41(4) . . .
39.3(35) . . .
48(4) . . .
46(4) . . .
54(4) . . .
47(4) . . .
42(4) . . .
48(4) . . .
50(4) . . .
46(4) . . .
46(4) . . .
44(4) . . .
43.4(34) . . .
46(4) . . .
48(4) . . .
47(4) . . .
44.7(35) . . .
51(4) . . .
41(4) . . .
53(4) . . .
36.0(33) . . .
35.4(32) . . .
51(4) . . .
50(4) . . .
46(4) . . .
51(4) . . .
42.8(34) . . .
52(4) . . .
39.7(32) . . .
41.2(35) . . .
47(4) . . .
41(4) . . .
44.2(35) . . .
46(4) . . .
36.9(33) . . .
51(4) . . .
51(4) . . .
45.5(35) . . .
46(4) . . .
44(4) . . .
39.1(34) . . .
36.1(34) . . .
39.3(32) . . .
44.3(35) . . .
50(4) . . .
54(4) . . .
48(4) . . .
47(4) . . .
40.5(34) . . .
45(4) . . .
54(4) . . .
42.8(34) . . .
47(4) . . .
44.0(34) . . .
53(4) . . .
46(4) . . .
56(4) . . .
39.9(34) . . .
45(4) . . .
41(4) . . .
50(4) . . .
44.3(34) . . .
33.6(31) . . .
37.3(32) . . .
49(4) . . .
45(4) . . .
44(4) . . .
42.8(33) . . .
49(4) . . .
49(4) . . .
44(4) . . .
44.5(34) . . .
43.9(35) . . .
57(4) . . .
51(4) . . .
38.9(32) . . .
49(4) . . .
53(4) . . .
53(4) . . .
45(4) . . .
50(4) . . .
36.4(32) . . .
41.7(33) . . .
44(4) . . .
43(4) . . .
53(4) . . .
47(4) . . .
44(4) . . .
37.6(32) . . .
50(4) . . .
45(4) . . .
49(4) . . .
45(4) . . .
46(4) . . .
43(4) . . .
41.0(33) . . .
49(4) . . .
49(4) . . .
48(4) . . .
49(4) . . .
39.4(33) . . .
40.0(33) . . .
45(4) . . .
47(4) . . .
50(4) . . .
58(4) . . .
43.6(35) . . .
54(4) . . .
51(4) . . .
52(4) . . .
43.5(34) . . .
40.6(34) . . .
41.5(34) . . .
48(4) . . .
50(4) . . .
51(4) . . .
54(4) . . .
50(4) . . .
40.5(34) . . .
42(4) . . .
50(4) . . .
51(4) . . .
38.9(32) . . .
46(4) . . .
53(4) . . .
50(4) . . .
52(4) . . .
50(4) . . .
49(4) . . .
44(4) . . .
49(4) . . .
38.8(32) . . .
51(4) . . .
50(4) . . .
45(4) . . .
48(4) . . .
40.2(34) . . .
41.1(34) . . .
40.9(35) . . .
45(4) . . .
45.3(35) . . .
42.3(34) . . .
46(4) . . .
46(4) . . .
46(4) . . .
40.7(33) . . .
52(4) . . .
45(4) . . .
43(4) . . .
41(4) . . .
45(4) . . .
41(4) . . .
36.9(35) . . .
39.8(34) . . .
42.0(34) . . .
40.0(33) . . .
45(4) . . .
45(4) . . .
38.0(32) . . .
44.7(34) . . .
41.3(34) . . .
45(4) . . .
45(4) . . .
36.5(32) . . .
42.3(34) . . .
50(4) . . .
41.0(34) . . .
46(4) . . .
52(4) . . .
46(4) . . .
48(4) . . .
54(4) . . .
52(4) . . .
47(4) . . .
48(4) . . .
48(4) . . .
38.3(35) . . .
53(4) . . .
47(4) . . .
53(4) . . .
47(4) . . .
49(4) . . .
47(4) . . .
45(4) . . .
39.2(33) . . .
48(4) . . .
40.4(33) . . .
44(4) . . .
36.3(34) . . .
52(4) . . .
47(4) . . .
47(4) . . .
56(4) . . .
48(4) . . .
41.6(34) . . .
40.7(34) . . .
47(4) . . .
35.0(30) . . .
39.3(33) . . .
41.7(34) . . .
43.0(35) . . .
41.0(34) . . .
44(4) . . .
49(4) . . .
51(4) . . .
55(4) . . .
47(4) . . .
42(4) . . .
44.0(35) . . .
37.8(32) . . .
47(4) . . .
45(4) . . .
48(4) . . .
46(4) . . .
46(4) . . .
50(4) . . .
58(4) . . .
49(4) . . .
46(4) . . .
40.4(33) . . .
41(4) . . .
56(4) . . .
50(4) . . .
47(4) . . .
39.0(33) . . .
46(4) . . .
46(4) . . .
45(4) . . .
43.6(35) . . .
49(4) . . .
55(4) . . .
37.5(33) . . .
43(4) . . .
47(4) . . .
45(4) . . .
45(4) . . .
40.4(34) . . .
48(4) . . .
42.6(33) . . .
43.9(35) . . .
43.8(35) . . .
47(4) . . .
45(4) . . .
41.2(34) . . .
49(4) . . .
49(4) . . .
41(4) . . .
41(4) . . .
45.7(35) . . .
42.1(35) . . .
48(4) . . .
47(4) . . .
42.0(34) . . .
50(4) . . .
50(4) . . .
46(4) . . .
57(4) . . .
52(4) . . .
53(4) . . .
58(4) . . .
44(4) . . .
40.3(33) . . .
43.5(34) . . .
39.8(33) . . .
45(4) . . .
44(4) . . .
37.9(33) . . .
35.2(31) . . .
41.7(34) . . .
48(4) . . .
44(4) . . .
49(4) . . .
48(4) . . .
52(4) . . .
41.4(34) . . .
39.1(35) . . .
47(4) . . .
40.6(34) . . .
39.5(34) . . .
48(4) . . .
42(4) . . .
49(4) . . .
44.7(35) . . .
46(4) . . .
45(4) . . .
43.6(35) . . .
46(4) . . .
43.5(34) . . .
39.8(33) . . .
50(4) . . .
48(4) . . .
54(4) . . .
56(4) . . .
47(4) . . .
45(4) . . .
39.0(33) . . .
40.5(34) . . .
45.5(35) . . .
42(4) . . .
33.3(30) . . .
40.7(34) . . .
53(4) . . .
38.1(32) . . .
46(4) . . .
47(4) . . .
49(4) . . .
54(4) . . .
42.5(34) . . .
46(4) . . .
49(4) . . .
58(4) . . .
43.0(34) . . .
51(4) . . .
44(4) . . .
48(4) . . .
40.8(35) . . .
45.7(35) . . .
50(4) . . .
44.7(35) . . .
46(4) . . .
48(4) . . .
52(4) . . .
44.3(34) . . .
47(4) . . .
40.6(34) . . .
51(4) . . .
44.8(35) . . .
40.7(33) . . .
41.1(33) . . .
49(4) . . .
44.0(35) . . .
40.8(34) . . .
48(4) . . .
46(4) . . .
54(4) . . .
42.6(34) . . .
50(4) . . .
42.7(33) . . .
38.9(32) . . .
44(4) . . .
50(4) . . .
46(4) . . .
46(4) . . .
48(4) . . .
56(4) . . .
42.5(34) . . .
47(4) . . .
47(4) . . .
44(4) . . .
49(4) . . .
48(4) . . .
46(4) . . .
51(4) . . .
51(4) . . .
49(4) . . .
48(4) . . .
47(4) . . .
36.6(31) . . .
48(4) . . .
45(4) . . .
53(4) . . .
44.6(35) . . .
45(4) . . .
44(4) . . .
43(4) . . .
54(4) . . .
54(4) . . .
49(4) . . .
44(4) . . .
47(4) . . .
45(4) . . .
41.9(34) . . .
44(4) . . .
39(4) . . .
38.2(34) . . .
48(4) . . .
50(4) . . .
53(4) . . .
44(4) . . .
41.1(33) . . .
52(4) . . .
45(4) . . .
48(4) . . .
41(4) . . .
38.5(34) . . .
45(4) . . .
42.9(34) . . .
40.7(33) . . .
44.4(35) . . .
41(4) . . .
52(4) . . .
63(4) . . .
48(4) . . .
43.9(35) . . .
50(4) . . .
57(4) . . .
46(4) . . .
41.0(34) . . .
54(4) . . .
47(4) . . .
52(4) . . .
48(4) . . .
51(4) . . .
54(4) . . .
53(4) . . .
44.5(35) . . .
36.8(33) . . .
43(4) . . .
46(4) . . .
51(4) . . .
45.3(35) . . .
34.8(31) . . .
38.5(35) . . .
44(4) . . .
40.5(34) . . .
55(4) . . .
43(4) . . .
46(4) . . .
45(4) . . .
48(4) . . .
41.3(33) . . .
43.9(35) . . .
44(4) . . .
48(4) . . .
46(4) . . .
61(4) . . .
38.8(33) . . .
38.2(34) . . .
44(4) . . .
44.4(35) . . .
42.8(34) . . .
44(4) . . .
41(4) . . .
40.0(34) . . .
44(4) . . .
42.5(35) . . .
41.1(33) . . .
43(4) . . .
39.9(34) . . .
42.6(34) . . .
38.2(32) . . .
36.9(34) . . .
51(4) . . .
51(4) . . .
44.0(35) . . .
41.9(35) . . .
38.7(32) . . .
50(4) . . .
38.8(34) . . .
47(4) . . .
53(4) . . .
52(4) . . .
43.7(35) . . .
46(4) . . .
52(4) . . .
44(4) . . .
46(4) . . .
50(4) . . .
43.1(34) . . .
43.8(35) . . .
51(4) . . .
44(4) . . .
45(4) . . .
35.8(32) . . .
44.8(35) . . .
43.1(34) . . .
39.6(34) . . .
41.8(35) . . .
34.8(30) . . .
40.2(33) . . .
53(4) . . .
45(4) . . .
46(4) . . .
53(4) . . .
36.5(32) . . .
43(4) . . .
41.0(35) . . .
44(4) . . .
34.6(31) . . .
43.5(34) . . .
47(4) . . .
52(4) . . .
43(4) . . .
48(4) . . .
57(4) . . .
46(4) . . .
42(4) . . .
39.6(35) . . .
51(4) . . .
51(4) . . .
38.2(34) . . .
52(4) . . .
39.3(35) . . .
42.2(34) . . .
46(4) . . .
45(4) . . .
40.6(34) . . .
46(4) . . .
54(4) . . .
40.1(33) . . .
44(4) . . .
43(4) . . .
37.3(32) . . .
48(4) . . .
41.9(35) . . .
40.0(33) . . .
40.8(35) . . .
40.0(34) . . .
47(4) . . .
53(4) . . .
46(4) . . .
39.6(34) . . .
51(4) . . .
47(4) . . .
41.5(34) . . .
43(4) . . .
44(4) . . .
45(4) . . .
41.7(34) . . .
42(4) . . .
48(4) . . .
49(4) . . .
47(4) . . .
41.3(34) . . .
33.5(31) . . .
43(4) . . .
45(4) . . .
38.6(33) . . .
45(4) . . .
50(4) . . .
49(4) . . .
36.1(32) . . .
38.1(32) . . .
41.2(33) . . .
45(4) . . .
41.1(34) . . .
47(4) . . .
44.8(35) . . .
42.3(33) . . .
53(4) . . .
44(4) . . .
33.3(30) . . .
46(4) . . .
47(4) . . .
43.0(35) . . .
48(4) . . .
46(4) . . .
39.2(32) . . .
37.5(32) . . .
45(4) . . .
46(4) . . .
40.1(34) . . .
46(4) . . .
48(4) . . .
48(4) . . .
55(4) . . .
47(4) . . .
47(4) . . .
33.8(31) . . .
40.1(33) . . .
57(4) . . .
50(4) . . .
40.9(33) . . .
40.8(34) . . .
39.7(34) . . .
43(4) . . .
44.4(35) . . .
47(4) . . .
53(4) . . .
54(4) . . .
42.5(34) . . .
43.3(34) . . .
44.5(35) . . .
45(4) . . .
48(4) . . .
51(4) . . .
44.5(34) . . .
43.8(35) . . .
60(4) . . .
38.1(34) . . .
49(4) . . .
45.5(35) . . .
42.5(34) . . .
45(4) . . .
43(4) . . .
49(4) . . .
47(4) . . .
45.9(35) . . .
51(4) . . .
42(4) . . .
43(4) . . .
48(4) . . .
52(4) . . .
39.9(33) . . .
47(4) . . .
37.5(33) . . .
51(4) . . .
43.6(34) . . .
39.5(34) . . .
47(4) . . .
50(4) . . .
48(4) . . .
47(4) . . .
55(4) . . .
47(4) . . .
48(4) . . .
46(4) . . .
51(4) . . .
52(4) . . .
48(4) . . .
52(4) . . .
42.3(34) . . .
44(4) . . .
42(4) . . .
48(4) . . .
42.6(35) . . .
48(4) . . .
48(4) . . .
53(4) . . .
51(4) . . .
51(4) . . .
42.8(34) . . .
49(4) . . .
50(4) . . .
48(4) . . .
41.4(33) . . .
49(4) . . .
48(4) . . .
50(4) . . .
42.3(34) . . .
49(4) . . .
49(4) . . .
45(4) . . .
43(4) . . .
51(4) . . .
44.8(35) . . .
49(4) . . .
54(4) . . .
43(4) . . .
38.8(34) . . .
50(4) . . .
42.4(34) . . .
49(4) . . .
54(4) . . .
41.8(34) . . .
45(4) . . .
39.1(33) . . .
48(4) . . .
35.7(31) . . .
49(4) . . .
47(4) . . .
43.0(35) . . .
37.6(34) . . .
41(4) . . .
44(4) . . .
47(4) . . .
46(4) . . .
46(4) . . .
48(4) . . .
42.0(34) . . .
43.0(34) . . .
44(4) . . .
39.2(34) . . .
46(4) . . .
44(4) . . .
41.8(34) . . .
49(4) . . .
53(4) . . .
38.5(33) . . .
49(4) . . .
51(4) . . .
42(4) . . .
34.3(34) . . .
37.3(33) . . .
41.9(33) . . .
47(4) . . .
56(4) . . .
53(4) . . .
51(4) . . .
37.0(32) . . .
39.1(33) . . .
38.0(33) . . .
43(4) . . .
45(4) . . .
45(4) . . .
50(4) . . .
47(4) . . .
52(4) . . .
49(4) . . .
52(4) . . .
50(4) . . .
46(4) . . .
45(4) . . .
47(4) . . .
43.8(35) . . .
37.6(32) . . .
44(4) . . .
50(4) . . .
41.4(34) . . .
44.5(35) . . .
39.8(33) . . .
53(4) . . .
40.0(35) . . .
46(4) . . .
40.9(34) . . .
45(4) . . .
50(4) . . .
35.1(31) . . .
44(4) . . .
53(4) . . .
50(4) . . .
47(4) . . .
43.5(35) . . .
45(4) . . .
47(4) . . .
49(4) . . .
35.4(31) . . .
38.2(34) . . .
45(4) . . .
49(4) . . .
45(4) . . .
46(4) . . .
41(4) . . .
40.1(34) . . .
39.3(33) . . .
40.6(34) . . .
44(4) . . .
44.0(35) . . .
39.0(32) . . .
47(4) . . .
45.0(35) . . .
45(4) . . .
47(4) . . .
50(4) . . .
45(4) . . .
45(4) . . .
41.7(35) . . .
50(4) . . .
52(4) . . .
51(4) . . .
52(4) . . .
45(4) . . .
37.2(32) . . .
48(4) . . .
37.0(32) . . .
49(4) . . .
50(4) . . .
54(4) . . .
39.0(33) . . .
46(4) . . .
49(4) . . .
43.2(34) . . .
47(4) . . .
53(4) . . .
56(4) . . .
52(4) . . .
41.7(34) . . .
44(4) . . .
41.6(33) . . .
51(4) . . .
51(4) . . .
45(4) . . .
49(4) . . .
34.9(31) . . .
45(4) . . .
37.3(34) . . .
41(4) . . .
52(4) . . .
46(4) . . .
51(4) . . .
47(4) . . .
44(4) . . .
44(4) . . .
49(4) . . .
56(4) . . .
49(4) . . .
44(4) . . .
51(4) . . .
40.3(33) . . .
53(4) . . .
54(4) . . .
47(4) . . .
48(4) . . .
39.2(34) . . .
41(4) . . .
37.7(33) . . .
56(4) . . .
53(4) . . .
51(4) . . .
44(4) . . .
51(4) . . .
43(4) . . .
51(4) . . .
56(4) . . .
49(4) . . .
51(4) . . .
41.7(34) . . .
33.7(30) . . .
42.8(34) . . .
48(4) . . .
37.4(32) . . .
41.2(33) . . .
45(4) . . .
39.7(33) . . .
49(4) . . .
47(4) . . .
43(4) . . .
43.4(34) . . .
41.9(34) . . .
39.8(33) . . .
40.1(33) . . .
42.0(33) . . .
32.7(31) . . .
38.5(32) . . .
49(4) . . .
40(4) . . .
43.0(35) . . .
31.5(30) . . .
42.8(35) . . .
49(4) . . .
55(4) . . .
48(4) . . .
46(4) . . .
60(4) . . .
58(4) . . .
49(4) . . .
47(4) . . .
50(4) . . .
49(4) . . .
39.0(33) . . .
38.7(33) . . .
38.6(33) . . .
39.8(33) . . .
48(4) . . .
50(4) . . .
43.4(34) . . .
42.1(33) . . .
38.8(33) . . .
41(4) . . .
50(4) . . .
54(4) . . .
41.1(33) . . .
45(4) . . .
43.5(33) . . .
41.4(34) . . .
43(4) . . .
45.0(35) . . .
48(4) . . .
50(4) . . .
47(4) . . .
33.9(32) . . .
45(4) . . .
41.5(34) . . .
45(4) . . .
35.4(33) . . .
43.0(35) . . .
44.9(35) . . .
57(4) . . .
49(4) . . .
56(4) . . .
45(4) . . .
42.9(34) . . .
43(4) . . .
45(4) . . .
45(4) . . .
38.0(32) . . .
39.0(32) . . .
39.3(33) . . .
43(4) . . .
44(4) . . .
50(4) . . .
52(4) . . .
40.9(33) . . .
57(4) . . .
49(4) . . .
47(4) . . .
44.4(35) . . .
53(4) . . .
53(4) . . .
50(4) . . .
49(4) . . .
44.9(35) . . .
40.0(32) . . .
54(4) . . .
45(4) . . .
45.2(35) . . .
42.1(35) . . .
44(4) . . .
44(4) . . .
50(4) . . .
38.2(32) . . .
43.7(35) . . .
48(4) . . .
57(4) . . .
49(4) . . .
49(4) . . .
40.0(33) . . .
39.0(33) . . .
45.2(35) . . .
53(4) . . .
50(4) . . .
52(4) . . .
54(4) . . .
51(4) . . .
42.3(35) . . .
40.1(32) . . .
40.9(33) . . .
51(4) . . .
42(4) . . .
50(4) . . .
42.6(34) . . .
41.7(35) . . .
43.8(35) . . .
49(4) . . .
44.3(34) . . .
48(4) . . .
46(4) . . .
41.0(35) . . .
48(4) . . .
39.8(33) . . .
38.7(32) . . .
45(4) . . .
38.2(35) . . .
48(4) . . .
55(4) . . .
45.6(35) . . .
49(4) . . .
57(4) . . .
51(4) . . .
41.6(33) . . .
43.7(34) . . .
40.6(33) . . .
51(4) . . .
60(4) . . .
44.6(35) . . .
45.1(35) . . .
46(4) . . .
51(4) . . .
50(4) . . .
41.0(34) . . .
55(4) . . .
49(4) . . .
49(4) . . .
42.4(34) . . .
38.5(32) . . .
50(4) . . .
49(4) . . .
42(4) . . .
45(4) . . .
49(4) . . .
48(4) . . .
44(4) . . .
55(4) . . .
56(4) . . .
39.5(33) . . .
46(4) . . .
49(4) . . .
48(4) . . .
49(4) . . .
48(4) . . .
46(4) . . .
40.8(34) . . .
48(4) . . .
44.8(35) . . .
36.8(32) . . .
42(4) . . .
48(4) . . .
43(4) . . .
46(4) . . .
48(4) . . .
47(4) . . .
49(4) . . .
35.8(34) . . .
41.0(33) . . .
37.7(32) . . .
41.8(33) . . .
56(4) . . .
49(4) . . .
39.8(33) . . .
51(4) . . .
46(4) . . .
49(4) . . .
49(4) . . .
42.3(35) . . .
43.4(34) . . .
43(4) . . .
44(4) . . .
44(4) . . .
43.0(33) . . .
53(4) . . .
58(4) . . .
45(4) . . .
49(4) . . .
51(4) . . .
43.1(34) . . .
44(4) . . .
44(4) . . .
39.2(35) . . .
46(4) . . .
45.0(35) . . .
46(4) . . .
41.1(34) . . .
41.3(35) . . .
53(4) . . .
55(4) . . .
50(4) . . .
53(4) . . .
40.5(34) . . .
43.0(34) . . .
49(4) . . .
52(4) . . .
46(4) . . .
45(4) . . .
44.6(34) . . .
44(4) . . .
45(4) . . .
41(4) . . .
30.3(30) . . .
44.5(35) . . .
44(4) . . .
45(4) . . .
41.6(35) . . .
46(4) . . .
49(4) . . .
42(4) . . .
51(4) . . .
50(4) . . .
46.0(35) . . .
43.2(35) . . .
44(4) . . .
37.3(33) . . .
45(4) . . .
42.6(34) . . .
53(4) . . .
44(4) . . .
43(4) . . .
45(4) . . .
43(4) . . .
39.8(32) . . .
55(4) . . .
49(4) . . .
47(4) . . .
54(4) . . .
47(4) . . .
45(4) . . .
47(4) . . .
41.8(33) . . .
46(4) . . .
50(4) . . .
53(4) . . .
48(4) . . .
37.9(33) . . .
51(4) . . .
51(4) . . .
45(4) . . .
42.9(34) . . .
45(4) . . .
42.5(35) . . .
46(4) . . .
50(4) . . .
45(4) . . .
41.5(34) . . .
43.6(35) . . .
55(4) . . .
47(4) . . .
45(4) . . .
32.2(29) . . .
35.3(31) . . .
43(4) . . .
48(4) . . .
51(4) . . .
40.8(33) . . .
41.7(34) . . .
43(4) . . .
39.8(34) . . .
43.0(35) . . .
42.3(35) . . .
41.9(34) . . .
49(4) . . .
52(4) . . .
36.7(31) . . .
41.8(34) . . .
50(4) . . .
40.5(34) . . .
48(4) . . .
54(4) . . .
43.7(34) . . .
42.9(34) . . .
50(4) . . .
48(4) . . .
43(4) . . .
43.9(34) . . .
45.2(35) . . .
51(4) . . .
45(4) . . .
50(4) . . .
45(4) . . .
46(4) . . .
49(4) . . .
60(4) . . .
49(4) . . .
53(4) . . .
31.6(29) . . .
51(4) . . .
46(4) . . .
49(4) . . .
50(4) . . .
46(4) . . .
44(4) . . .
43(4) . . .
40.9(34) . . .
38.1(33) . . .
44(4) . . .
46(4) . . .
44(4) . . .
42.1(34) . . .
44.8(35) . . .
46(4) . . .
43(4) . . .
37.5(33) . . .
45(4) . . .
48(4) . . .
45.7(35) . . .
43(4) . . .
50(4) . . .
51(4) . . .
47.0(35) . . .
39.9(34) . . .
52(4) . . .
45(4) . . .
51(4) . . .
47(4) . . .
43.1(35) . . .
46(4) . . .
45.8(35) . . .
44.0(35) . . .
54(4) . . .
45(4) . . .
50(4) . . .
43.4(35) . . .
37.3(32) . . .
54(4) . . .
50(4) . . .
55(4) . . .
51(4) . . .
52(4) . . .
41.1(33) . . .
39.7(35) . . .
46(4) . . .
49(4) . . .
51(4) . . .
50(4) . . .
49(4) . . .
48(4) . . .
59(4) . . .
44.8(35) . . .
49(4) . . .
40.3(34) . . .
44(4) . . .
45(4) . . .
49(4) . . .
45(4) . . .
43(4) . . .
35.1(31) . . .
41.7(35) . . .
43.3(34) . . .
49(4) . . .
42(4) . . .
47(4) . . .
45(4) . . .
47(4) . . .
54(4) . . .
49(4) . . .
46(4) . . .
43.2(34) . . .
39.4(33) . . .
39.3(35) . . .
40(4) . . .
42(4) . . .
45(4) . . .
39.0(33) . . .
36.6(31) . . .
40.0(34) . . .
48(4) . . .
53(4) . . .
57(4) . . .
44(4) . . .
51(4) . . .
56(4) . . .
52(4) . . .
45.4(35) . . .
53(4) . . .
50(4) . . .
46(4) . . .
38.8(33) . . .
48(4) . . .
40.2(34) . . .
40.8(34) . . .
41.2(34) . . .
48(4) . . .
46(4) . . .
47(4) . . .
55(4) . . .
51(4) . . .
52(4) . . .
41.7(35) . . .
47(4) . . .
41.4(35) . . .
45(4) . . .
42.4(33) . . .
39.2(34) . . .
51(4) . . .
45(4) . . .
43(4) . . .
44.9(35) . . .
46(4) . . .
46(4) . . .
51(4) . . .
40.0(33) . . .
50(4) . . .
41(4) . . .
38.1(34) . . .
51(4) . . .
41.0(33) . . .
36.9(32) . . .
48(4) . . .
47(4) . . .
47(4) . . .
45.0(35) . . .
49(4) . . .
40(4) . . .
38.2(34) . . .
45.0(35) . . .
40.8(33) . . .
37.4(32) . . .
41.6(34) . . .
51(4) . . .
43(4) . . .
55(4) . . .
52(4) . . .
44(4) . . .
56(4) . . .
44.9(35) . . .
38.3(33) . . .
40.0(33) . . .
44(4) . . .
49(4) . . .
36.8(31) . . .
33.8(30) . . .
37.0(32) . . .
49(4) . . .
43(4) . . .
39.9(34) . . .
51(4) . . .
49(4) . . .
39.5(34) . . .
49(4) . . .
44.4(34) . . .
45(4) . . .
47(4) . . .
39.2(33) . . .
46(4) . . .
49(4) . . .
45.8(35) . . .
43(4) . . .
46(4) . . .
46(4) . . .
40.3(35) . . .
42.3(34) . . .
38.3(35) . . .
48(4) . . .
43(4) . . .
45.0(35) . . .
40.0(33) . . .
44(4) . . .
39(4) . . .
37.9(33) . . .
40.1(33) . . .
35.5(31) . . .
48(4) . . .
39.0(35) . . .
37.5(34) . . .
41.8(34) . . .
40.2(33) . . .
37.2(32) . . .
38.3(34) . . .
46(4) . . .
48(4) . . .
51(4) . . .
53(4) . . .
49(4) . . .
44(4) . . .
41.1(34) . . .
49(4) . . .
48(4) . . .
50(4) . . .
39.6(32) . . .
53(4) . . .
44(4) . . .
49(4) . . .
48(4) . . .
50(4) . . .
43.3(34) . . .
52(4) . . .
49(4) . . .
50(4) . . .
38.0(32) . . .
52(4) . . .
45(4) . . .
44(4) . . .
42.5(35) . . .
52(4) . . .
38.8(32) . . .
45(4) . . .
49(4) . . .
44(4) . . .
48(4) . . .
57(4) . . .
52(4) . . .
48(4) . . .
40.6(34) . . .
40.8(33) . . .
44.2(35) . . .
50(4) . . .
46(4) . . .
49(4) . . .
52(4) . . .
54(4) . . .
53(4) . . .
40(4) . . .
52(4) . . .
49(4) . . .
49(4) . . .
45(4) . . .
46(4) . . .
47(4) . . .
43.5(35) . . .
40.9(33) . . .
45(4) . . .
49(4) . . .
41.8(34) . . .
43.9(34) . . .
44(4) . . .
49(4) . . .
44(4) . . .
40.2(35) . . .
43.5(34) . . .
45(4) . . .
54(4) . . .
45(4) . . .
38.1(33) . . .
49(4) . . .
50(4) . . .
43(4) . . .
43(4) . . .
48(4) . . .
50(4) . . .
38.1(32) . . .
47(4) . . .
44(4) . . .
39.0(32) . . .
44.8(35) . . .
47(4) . . .
55(4) . . .
50(4) . . .
36.7(32) . . .
40.7(33) . . .
37.4(32) . . .
34.8(31) . . .
45(4) . . .
47(4) . . .
43.7(34) . . .
47(4) . . .
50(4) . . .
52(4) . . .
42.0(34) . . .
44.8(35) . . .
38.0(32) . . .
50(4) . . .
46(4) . . .
59(4) . . .
52(4) . . .
39.9(32) . . .
42.2(35) . . .
45(4) . . .
39.1(33) . . .
42.8(34) . . .
46(4) . . .
54(4) . . .
45(4) . . .
43.7(34) . . .
36.8(32) . . .
44(4) . . .
49(4) . . .
42.4(34) . . .
41.5(35) . . .
39.7(33) . . .
58(4) . . .
60(4) . . .
37.1(34) . . .
38.9(32) . . .
45(4) . . .
49(4) . . .
42.7(35) . . .
45(4) . . .
54(4) . . .
46(4) . . .
44(4) . . .
43(4) . . .
44(4) . . .
43.3(34) . . .
47(4) . . .
46(4) . . .
41.3(34) . . .
42(4) . . .
41.3(33) . . .
41(4) . . .
43(4) . . .
46(4) . . .
47(4) . . .
46(4) . . .
37.4(34) . . .
54(4) . . .
46(4) . . .
35.6(32) . . .
42.9(34) . . .
44(4) . . .
52(4) . . .
42.3(35) . . .
36.0(32) . . .
38.0(32) . . .
43.8(34) . . .
47(4) . . .
38.5(34) . . .
35.8(31) . . .
43.2(35) . . .
53(4) . . .
48(4) . . .
40.1(33) . . .
42.0(34) . . .
57(4) . . .
37.0(31) . . .
51(4) . . .
63(4) . . .
45(4) . . .
58(4) . . .
54(4) . . .
40.9(35) . . .
49(4) . . .
50(4) . . .
44(4) . . .
45(4) . . .
48(4) . . .
49(4) . . .
53(4) . . .
51(4) . . .
42.8(35) . . .
39.4(34) . . .
40.6(35) . . .
45.6(35) . . .
43.3(34) . . .
40.2(33) . . .
37.9(32) . . .
48(4) . . .
48(4) . . .
45(4) . . .
49(4) . . .
43(4) . . .
50(4) . . .
54(4) . . .
49(4) . . .
53(4) . . .
52(4) . . .
51(4) . . .
51(4) . . .
47(4) . . .
44(4) . . .
42.5(34) . . .
45(4) . . .
53(4) . . .
49(4) . . .
48(4) . . .
39.8(33) . . .
52(4) . . .
51(4) . . .
36.3(33) . . .
42(4) . . .
39.1(34) . . .
39.2(33) . . .
48(4) . . .
40.8(33) . . .
46(4) . . .
46(4) . . .
46(4) . . .
52(4) . . .
42(4) . . .
45(4) . . .
56(4) . . .
47(4) . . .
49(4) . . .
57(4) . . .
41.1(33) . . .
41.1(33) . . .
43.3(34) . . .
41.0(35) . . .
58(4) . . .
55(4) . . .
40.7(33) . . .
43.7(35) . . .
48(4) . . .
48(4) . . .
36.8(32) . . .
43.4(35) . . .
38.6(32) . . .
41.5(34) . . .
45(4) . . .
53(4) . . .
46(4) . . .
46(4) . . .
50(4) . . .
48(4) . . .
38.2(33) . . .
43.4(34) . . .
46.0(35) . . .
45.4(35) . . .
48(4) . . .
40.9(34) . . .
43.4(34) . . .
46(4) . . .
35.5(31) . . .
44(4) . . .
46(4) . . .
37.0(32) . . .
44(4) . . .
44.5(35) . . .
52(4) . . .
45(4) . . .
41.3(34) . . .
45.9(35) . . .
41.0(33) . . .
41.5(33) . . .
46(4) . . .
44.5(35) . . .
42.5(34) . . .
40.5(35) . . .
47(4) . . .
38.0(32) . . .
44.8(35) . . .
42.1(35) . . .
49(4) . . .
48(4) . . .
56(4) . . .
45.2(35) . . .
49(4) . . .
46(4) . . .
38.2(32) . . .
36.9(31) . . .
46(4) . . .
44(4) . . .
39.3(35) . . .
47(4) . . .
39.5(32) . . .
47(4) . . .
41.8(34) . . .
35.9(33) . . .
51(4) . . .
38.1(33) . . .
47(4) . . .
33.1(30) . . .
47(4) . . .
52(4) . . .
42.2(34) . . .
38.0(32) . . .
45(4) . . .
45(4) . . .
43(4) . . .
39.6(33) . . .
47(4) . . .
36.5(31) . . .
44(4) . . .
42(4) . . .
42.6(34) . . .
43.1(34) . . .
41.5(35) . . .
46(4) . . .
45(4) . . .
51(4) . . .
48(4) . . .
41.7(33) . . .
46(4) . . .
44.0(34) . . .
44.1(34) . . .
46(4) . . .
45(4) . . .
38.3(33) . . .
44(4) . . .
39.2(34) . . .
37.5(32) . . .
48(4) . . .
53(4) . . .
44(4) . . .
46(4) . . .
46(4) . . .
38.3(34) . . .
49(4) . . .
44(4) . . .
42.9(34) . . .
35.8(32) . . .
36.8(33) . . .
37.3(33) . . .
50(4) . . .
49(4) . . .
51(4) . . .
53(4) . . .
41(4) . . .
41.0(34) . . .
40.2(34) . . .
44(4) . . .
58(4) . . .
38.5(33) . . .
39.5(34) . . .
41.0(33) . . .
41.7(34) . . .
45(4) . . .
41.8(34) . . .
46(4) . . .
55(4) . . .
61(4) . . .
46(4) . . .
48(4) . . .
48(4) . . .
43.1(34) . . .
48(4) . . .
45(4) . . .
53(4) . . .
59(4) . . .
34.4(31) . . .
46(4) . . .
46(4) . . .
50(4) . . .
49(4) . . .
52(4) . . .
47(4) . . .
47(4) . . .
40(4) . . .
44.7(35) . . .
49(4) . . .
43.0(34) . . .
46(4) . . .
46(4) . . .
53(4) . . .
46(4) . . .
44(4) . . .
45(4) . . .
50(4) . . .
44.9(35) . . .
39.1(32) . . .
38.3(35) . . .
40.4(34) . . .
49(4) . . .
37.6(32) . . .
41.1(34) . . .
35.9(32) . . .
43(4) . . .
43.5(35) . . .
48(4) . . .
52(4) . . .
50(4) . . .
52(4) . . .
42.0(35) . . .
32.9(30) . . .
44.5(35) . . .
38.8(33) . . .
38.5(34) . . .
46(4) . . .
45(4) . . .
43(4) . . .
42(4) . . .
50(4) . . .
52(4) . . .
48(4) . . .
51(4) . . .
44(4) . . .
54(4) . . .
42.2(34) . . .
39.3(32) . . .
49(4) . . .
51(4) . . .
55(4) . . .
39.8(33) . . .
45.1(35) . . .
47(4) . . .
54(4) . . .
48(4) . . .
29.4(29) . . .
45(4) . . .
34.0(32) . . .
54(4) . . .
48(4) . . .
46(4) . . .
47(4) . . .
49(4) . . .
49(4) . . .
45(4) . . .
43.3(34) . . .
42.0(34) . . .
46(4) . . .
35.3(32) . . .
44(4) . . .
48(4) . . .
44(4) . . .
46(4) . . .
48(4) . . .
44(4) . . .
36.7(32) . . .
41.0(35) . . .
47(4) . . .
38.1(32) . . .
41.0(35) . . .
42.3(34) . . .
46(4) . . .
49(4) . . .
44(4) . . .
53(4) . . .
46.0(35) . . .
54(4) . . .
47(4) . . .
46(4) . . .
50(4) . . .
38.5(32) . . .
45(4) . . .
39.7(34) . . .
45(4) . . .
44(4) . . .
48(4) . . .
42.1(35) . . .
45(4) . . .
53(4) . . .
42.0(33) . . .
49(4) . . .
49(4) . . .
50(4) . . .
42.8(34) . . .
46(4) . . .
38.0(32) . . .
43(4) . . .
49(4) . . .
46(4) . . .
44(4) . . .
53(4) . . .
46(4) . . .
47(4) . . .
48(4) . . .
46(4) . . .
38.3(32) . . .
53(4) . . .
42.7(35) . . .
48(4) . . .
46(4) . . .
43.3(35) . . .
44(4) . . .
44(4) . . .
56(4) . . .
45.1(35) . . .
39.8(33) . . .
44(4) . . .
42.1(34) . . .
46(4) . . .
49(4) . . .
40(4) . . .
46(4) . . .
34.5(31) . . .
51(4) . . .
52(4) . . .
41.0(34) . . .
51(4) . . .
57(4) . . .
43.1(34) . . .
49(4) . . .
49(4) . . .
38.7(33) . . .
44(4) . . .
43.4(34) . . .
40.6(33) . . .
43.0(35) . . .
48(4) . . .
47(4) . . .
37.7(32) . . .
45.8(35) . . .
45(4) . . .
45(4) . . .
47(4) . . .
41.8(33) . . .
51(4) . . .
41.5(35) . . .
35.1(33) . . .
51(4) . . .
61(4) . . .
45(4) . . .
49(4) . . .
48(4) . . .
36.0(32) . . .
36.6(32) . . .
44(4) . . .
43(4) . . .
41(4) . . .
47(4) . . .
44.4(35) . . .
46(4) . . .
50(4) . . .
46(4) . . .
40.4(33) . . .
53(4) . . .
56(4) . . .
40.7(35) . . .
45(4) . . .
49(4) . . .
49(4) . . .
46(4) . . .
40.6(34) . . .
40.5(34) . . .
37.6(32) . . .
47(4) . . .
37.4(33) . . .
45(4) . . .
43.3(34) . . .
42.5(34) . . .
42.2(34) . . .
47(4) . . .
58(4) . . .
47(4) . . .
42.3(34) . . .
31.5(29) . . .
45(4) . . .
42(4) . . .
50(4) . . .
50(4) . . .
38.5(32) . . .
46(4) . . .
46(4) . . .
40.1(33) . . .
42.3(35) . . .
35.6(31) . . .
34.2(30) . . .
52(4) . . .
40.9(34) . . .
38.1(32) . . .
40.0(33) . . .
42.0(34) . . .
43.1(34) . . .
43(4) . . .
48(4) . . .
38.6(34) . . .
42(4) . . .
42(4) . . .
43(4) . . .
33.5(30) . . .
48(4) . . .
48(4) . . .
33.5(30) . . .
50(4) . . .
38.3(32) . . .
39.5(33) . . .
45(4) . . .
44(4) . . .
42.8(34) . . .
46(4) . . .
46(4) . . .
47(4) . . .
46(4) . . .
38.2(32) . . .
42.4(34) . . .
36.3(32) . . .
49(4) . . .
43(4) . . .
43.5(35) . . .
45(4) . . .
41.3(35) . . .
40(4) . . .
46(4) . . .
49(4) . . .
40.5(33) . . .
40.8(35) . . .
38.4(35) . . .
45(4) . . .
47(4) . . .
37.9(33) . . .
41.1(35) . . .
51(4) . . .
55(4) . . .
51(4) . . .
49(4) . . .
44(4) . . .
46(4) . . .
41.0(34) . . .
41.2(33) . . .
38.6(32) . . .
45(4) . . .
42.9(35) . . .
48(4) . . .
42.1(34) . . .
51(4) . . .
43(4) . . .
43(4) . . .
46(4) . . .
39.8(33) . . .
49(4) . . .
47(4) . . .
34.7(34) . . .
37.9(33) . . .
37.2(32) . . .
48(4) . . .
50(4) . . .
49(4) . . .
44(4) . . .
45(4) . . .
41.3(35) . . .
47(4) . . .
39.3(34) . . .
44(4) . . .
40.2(33) . . .
41(4) . . .
41(4) . . .
41(4) . . .
37.8(32) . . .
47(4) . . .
41(4) . . .
37.4(34) . . .
45(4) . . .
38.7(33) . . .
47(4) . . .
40(4) . . .
42(4) . . .
46(4) . . .
44.7(35) . . .
38.8(34) . . .
38.0(34) . . .
46(4) . . .
45(4) . . .
49(4) . . .
43.1(35) . . .
41.4(35) . . .
49(4) . . .
48(4) . . .
40.4(33) . . .
41.4(33) . . .
50(4) . . .
42.0(35) . . .
45(4) . . .
38.7(32) . . .
45.2(35) . . .
43(4) . . .
38.0(35) . . .
49(4) . . .
37.7(32) . . .
41(4) . . .
43(4) . . .
51(4) . . .
51(4) . . .
51(4) . . .
42.6(35) . . .
41.6(35) . . .
43(4) . . .
47(4) . . .
47(4) . . .
49(4) . . .
46(4) . . .
41.1(34) . . .
40.8(33) . . .
43.0(34) . . .
39.6(35) . . .
45(4) . . .
33.8(31) . . .
39.3(33) . . .
43.7(35) . . .
48(4) . . .
45(4) . . .
52(4) . . .
42.1(33) . . .
48(4) . . .
49(4) . . .
44(4) . . .
44(4) . . .
46(4) . . .
47(4) . . .
47(4) . . .
50(4) . . .
44(4) . . .
42.9(34) . . .
49(4) . . .
41.7(34) . . .
53(4) . . .
43(4) . . .
50(4) . . .
45(4) . . .
39.8(35) . . .
49(4) . . .
56(4) . . .
50(4) . . .
46(4) . . .
41.8(35) . . .
62(5) . . .
48(4) . . .
43.9(34) . . .
45(4) . . .
48(4) . . .
43(4) . . .
35.2(32) . . .
47(4) . . .
39.3(34) . . .
42(4) . . .
52(4) . . .
41.5(33) . . .
39.0(33) . . .
34.4(30) . . .
42(4) . . .
34.8(32) . . .
36.9(33) . . .
44.2(35) . . .
45(4) . . .
52(4) . . .
36.7(33) . . .
43(4) . . .
45.0(35) . . .
42.0(35) . . .
53(4) . . .
46(4) . . .
47(4) . . .
47(4) . . .
42.9(35) . . .
50(4) . . .
54(4) . . .
46(4) . . .
40.5(34) . . .
46(4) . . .
49(4) . . .
52(4) . . .
47(4) . . .
40.2(33) . . .
36.8(32) . . .
41(4) . . .
37.8(33) . . .
41.3(34) . . .
53(4) . . .
48(4) . . .
45(4) . . .
55(4) . . .
49(4) . . .
56(4) . . .
47(4) . . .
37.4(34) . . .
47(4) . . .
44.8(35) . . .
41.0(33) . . .
43(4) . . .
45(4) . . .
45(4) . . .
44.1(35) . . .
45(4) . . .
41(4) . . .
43(4) . . .
41.7(35) . . .
43.2(34) . . .
39.2(33) . . .
54(4) . . .
37.8(33) . . .
42.3(34) . . .
44.4(35) . . .
51(4) . . .
40.5(35) . . .
45(4) . . .
49(4) . . .
40.2(33) . . .
41(4) . . .
41.8(34) . . .
38.1(32) . . .
40.3(34) . . .
39.4(32) . . .
51(4) . . .
36.4(33) . . .
40.2(35) . . .
31.3(29) . . .
44.7(35) . . .
52(4) . . .
48(4) . . .
40.8(33) . . .
46(4) . . .
45(4) . . .
41.3(35) . . .
47(4) . . .
50(4) . . .
50(4) . . .
40.3(34) . . .
41(4) . . .
50(4) . . .
46(4) . . .
41.7(34) . . .
45(4) . . .
52(4) . . .
49(4) . . .
48(4) . . .
42.7(34) . . .
47(4) . . .
48(4) . . .
41(4) . . .
41(4) . . .
36.6(32) . . .
47(4) . . .
47(4) . . .
56(4) . . .
41.0(34) . . .
49(4) . . .
57(4) . . .
40.7(34) . . .
30.8(29) . . .
39.2(33) . . .
42.5(34) . . .
43.6(35) . . .
40.4(34) . . .
43(4) . . .
47(4) . . .
49(4) . . .
46(4) . . .
36.1(32) . . .
47(4) . . .
57(4) . . .
53(4) . . .
44.8(35) . . .
49(4) . . .
56(4) . . .
47(4) . . .
45.0(35) . . .
34.2(31) . . .
46(4) . . .
47(4) . . .
47(4) . . .
43.8(34) . . .
52(4) . . .
42.0(35) . . .
37.7(34) . . .
41.5(34) . . .
53(4) . . .
42.2(35) . . .
37.5(34) . . .
37.3(34) . . .
40.1(34) . . .
42.4(34) . . .
46.8(35) . . .
44(4) . . .
36.8(32) . . .
46(4) . . .
56(4) . . .
43.4(34) . . .
49(4) . . .
50(4) . . .
35.1(32) . . .
34.4(31) . . .
47(4) . . .
51(4) . . .
49(4) . . .
47(4) . . .
47(4) . . .
51(4) . . .
46(4) . . .
44(4) . . .
40.9(34) . . .
47(4) . . .
43.5(35) . . .
42.0(35) . . .
46(4) . . .
46(4) . . .
43(4) . . .
38.5(33) . . .
45(4) . . .
41.5(35) . . .
46(4) . . .
50(4) . . .
47(4) . . .
45(4) . . .
50(4) . . .
45.0(34) . . .
38.3(33) . . .
50(4) . . .
50(4) . . .
44.4(35) . . .
43.3(34) . . .
37.5(31) . . .
41(4) . . .
45(4) . . .
42.7(34) . . .
43.8(34) . . .
43(4) . . .
42(4) . . .
50(4) . . .
42.8(35) . . .
39.5(33) . . .
48(4) . . .
45(4) . . .
47(4) . . .
49(4) . . .
45.0(34) . . .
41.8(34) . . .
40.6(34) . . .
51(4) . . .
41.8(34) . . .
37.3(33) . . .
34.0(30) . . .
52(4) . . .
50(4) . . .
43.3(34) . . .
57(4) . . .
39.4(31) . . .
43(4) . . .
41.0(35) . . .
42.7(35) . . .
49(4) . . .
54(4) . . .
48(4) . . .
35.7(32) . . .
41.3(33) . . .
46(4) . . .
41.9(34) . . .
40.5(34) . . .
45(4) . . .
40.9(34) . . .
46(4) . . .
40.3(34) . . .
42(4) . . .
53(4) . . .
33.1(30) . . .
38.0(33) . . .
41.3(35) . . .
48(4) . . .
44.0(35) . . .
41.4(34) . . .
46(4) . . .
54(4) . . .
50(4) . . .
42.7(34) . . .
38.5(33) . . .
39.8(34) . . .
50(4) . . .
46(4) . . .
42.7(34) . . .
47(4) . . .
50(4) . . .
35.9(31) . . .
46(4) . . .
53(4) . . .
52(4) . . .
42(4) . . .
43(4) . . .
45.2(35) . . .
46.1(35) . . .
39.2(34) . . .
47(4) . . .
35.0(31) . . .
51(4) . . .
45(4) . . .
48(4) . . .
43(4) . . .
48(4) . . .
39.6(33) . . .
40.0(33) . . .
35.5(32) . . .
38.5(35) . . .
37.0(32) . . .
50(4) . . .
49(4) . . .
49(4) . . .
43.8(34) . . .
55(4) . . .
41.9(34) . . .
45.0(35) . . .
42.9(35) . . .
44(4) . . .
48(4) . . .
45.7(35) . . .
53(4) . . .
48(4) . . .
46(4) . . .
39.1(33) . . .
45.0(35) . . .
49(4) . . .
37.5(33) . . .
33.0(31) . . .
39.6(35) . . .
37.8(32) . . .
45(4) . . .
40.2(33) . . .
48(4) . . .
47(4) . . .
41.0(33) . . .
52(4) . . .
43(4) . . .
55(4) . . .
42.7(34) . . .
46(4) . . .
40.2(34) . . .
48(4) . . .
49(4) . . .
44(4) . . .
42.9(34) . . .
36.4(32) . . .
54(4) . . .
42(4) . . .
46(4) . . .
45(4) . . .
43(4) . . .
43(4) . . .
41(4) . . .
38.0(32) . . .
43.8(34) . . .
45(4) . . .
36.6(34) . . .
40(4) . . .
41.0(34) . . .
34.3(31) . . .
40.4(34) . . .
39.0(33) . . .
33.9(30) . . .
43(4) . . .
46(4) . . .
42(4) . . .
45(4) . . .
42(4) . . .
39.6(33) . . .
48(4) . . .
50(4) . . .
48(4) . . .
41(4) . . .
37.8(34) . . .
41.4(33) . . .
50(4) . . .
46(4) . . .
46(4) . . .
52(4) . . .
44.9(35) . . .
48(4) . . .
37.7(34) . . .
39.9(33) . . .
45.4(35) . . .
42.3(33) . . .
54(4) . . .
46(4) . . .
43(4) . . .
41.4(34) . . .
32.3(30) . . .
49(4) . . .
42(4) . . .
37.0(33) . . .
41.5(33) . . .
41.8(35) . . .
42.9(34) . . .
54(4) . . .
48(4) . . .
43.9(35) . . .
49(4) . . .
47(4) . . .
46(4) . . .
57(4) . . .
51(4) . . .
49(4) . . .
42.8(35) . . .
38.4(33) . . .
46(4) . . .
42.8(34) . . .
39.0(33) . . .
45(4) . . .
44(4) . . .
43.1(34) . . .
49(4) . . .
42(4) . . .
36.0(32) . . .
42.8(35) . . .
45.0(35) . . .
40.3(33) . . .
45(4) . . .
44(4) . . .
45(4) . . .
37.5(32) . . .
41.6(33) . . .
32.5(30) . . .
39.1(35) . . .
40.0(33) . . .
40.5(34) . . .
46(4) . . .
40(4) . . .
44(4) . . .
53(4) . . .
50(4) . . .
40.0(33) . . .
40.4(33) . . .
46(4) . . .
49(4) . . .
49(4) . . .
44(4) . . .
40.4(34) . . .
53(4) . . .
40.9(34) . . .
41.7(34) . . .
48(4) . . .
45(4) . . .
49(4) . . .
47(4) . . .
39.0(32) . . .
38.8(33) . . .
42.0(34) . . .
51(4) . . .
41.5(35) . . .
49(4) . . .
35.4(30) . . .
48(4) . . .
40.2(34) . . .
41(4) . . .
41.6(34) . . .
39.2(33) . . .
46(4) . . .
41.4(34) . . .
46(4) . . .
49(4) . . .
46(4) . . .
44(4) . . .
46(4) . . .
46(4) . . .
41.3(34) . . .
40.2(34) . . .
52(4) . . .
34.6(30) . . .
48(4) . . .
47(4) . . .
47(4) . . .
57(4) . . .
41.5(32) . . .
53(4) . . .
53(4) . . .
52(4) . . .
49(4) . . .
36.7(31) . . .
43.9(34) . . .
38.5(33) . . .
35.9(32) . . .
41(4) . . .
49(4) . . .
49(4) . . .
46.2(35) . . .
58(4) . . .
51(4) . . .
39.2(35) . . .
39.5(33) . . .
39.8(33) . . .
44(4) . . .
42(4) . . .
48(4) . . .
40.5(33) . . .
42.1(34) . . .
47(4) . . .
46(4) . . .
48(4) . . .
37.8(32) . . .
44(4) . . .
43(4) . . .
42.0(34) . . .
51(4) . . .
46(4) . . .
48(4) . . .
43(4) . . .
51(4) . . .
48(4) . . .
43.6(35) . . .
43.7(35) . . .
53(4) . . .
46(4) . . .
45.2(35) . . .
54(4) . . .
52(4) . . .
45(4) . . .
46(4) . . .
29.4(28) . . .
45(4) . . .
42(4) . . .
44(4) . . .
42.0(33) . . .
52(4) . . .
33.1(29) . . .
36.7(34) . . .
38(4) . . .
42(4) . . .
40.2(33) . . .
41.9(33) . . .
49(4) . . .
57(4) . . .
43.4(34) . . .
43.5(34) . . .
47(4) . . .
45(4) . . .
43(4) . . .
56(4) . . .
45(4) . . .
44(4) . . .
45(4) . . .
40(4) . . .
44(4) . . .
51(4) . . .
45(4) . . .
45(4) . . .
43(4) . . .
42.0(35) . . .
39.0(33) . . .
42(4) . . .
40(4) . . .
36.8(33) . . .
43.3(35) . . .
46(4) . . .
40.7(33) . . .
43.8(35) . . .
45(4) . . .
41.7(34) . . .
38.0(32) . . .
40.8(34) . . .
46(4) . . .
50(4) . . .
41.7(34) . . .
44.3(34) . . .
46(4) . . .
35.0(33) . . .
31.8(30) . . .
39.3(33) . . .
40.4(33) . . .
47(4) . . .
49(4) . . .
39.2(34) . . .
43(4) . . .
50(4) . . .
46(4) . . .
47(4) . . .
45(4) . . .
48(4) . . .
37.6(33) . . .
42.7(34) . . .
43(4) . . .
34.1(33) . . .
40.4(33) . . .
39.0(33) . . .
46(4) . . .
45(4) . . .
44(4) . . .
47(4) . . .
44.3(34) . . .
44(4) . . .
43(4) . . .
41.3(34) . . .
43.5(34) . . .
48(4) . . .
49(4) . . .
39.9(35) . . .
44(4) . . .
50(4) . . .
42.7(34) . . .
48(4) . . .
42(4) . . .
35.1(33) . . .
38.6(33) . . .
49(4) . . .
36.1(32) . . .
43(4) . . .
35.8(31) . . .
41.7(33) . . .
43(4) . . .
40.3(34) . . .
39.2(34) . . .
40(4) . . .
43.2(35) . . .
39.5(32) . . .
39.2(33) . . .
47(4) . . .
47(4) . . .
45(4) . . .
43(4) . . .
46(4) . . .
46(4) . . .
45(4) . . .
35.1(31) . . .
33.2(31) . . .
39.9(34) . . .
45(4) . . .
34.6(31) . . .
37.0(31) . . .
47(4) . . .
45(4) . . .
48(4) . . .
43.7(35) . . .
48(4) . . .
38.8(33) . . .
41(4) . . .
31.8(29) . . .
42.9(34) . . .
44(4) . . .
38.8(34) . . .
43(4) . . .
48(4) . . .
42.2(34) . . .
36.4(32) . . .
46(4) . . .
44(4) . . .
44(4) . . .
43.1(35) . . .
44(4) . . .
30.6(29) . . .
42(4) . . .
36.4(32) . . .
37.8(33) . . .
41.1(33) . . .
43(4) . . .
45(4) . . .
49(4) . . .
43.7(34) . . .
43.8(35) . . .
41.8(34) . . .
45(4) . . .
46(4) . . .
46(4) . . .
37.7(32) . . .
46(4) . . .
40.5(35) . . .
46(4) . . .
48(4) . . .
41.8(33) . . .
42.5(34) . . .
50(4) . . .
43(4) . . .
41.1(33) . . .
43.0(35) . . .
32.8(32) . . .
42(4) . . .
41.2(34) . . .
44.7(35) . . .
42.0(35) . . .
42(4) . . .
48(4) . . .
48(4) . . .
39.4(33) . . .
47(4) . . .
41.1(35) . . .
45(4) . . .
41.9(34) . . .
53(4) . . .
40.7(33) . . .
43(4) . . .
36.5(32) . . .
43.8(35) . . .
39.0(32) . . .
45(4) . . .
47(4) . . .
51(4) . . .
47(4) . . .
47(4) . . .
38.3(34) . . .
40(4) . . .
43(4) . . .
49(4) . . .
46(4) . . .
48(4) . . .
40.6(34) . . .
47(4) . . .
44.1(35) . . .
47(4) . . .
45(4) . . .
36.7(32) . . .
47(4) . . .
44.1(34) . . .
41.7(35) . . .
48(4) . . .
52(4) . . .
45(4) . . .
42.4(34) . . .
44(4) . . .
38.4(33) . . .
48(4) . . .
42.5(33) . . .
46(4) . . .
36.0(31) . . .
52(4) . . .
50(4) . . .
46(4) . . .
41.9(34) . . .
46(4) . . .
45(4) . . .
40.5(33) . . .
40.0(33) . . .
43.4(34) . . .
43(4) . . .
43(4) . . .
46(4) . . .
40.5(33) . . .
51(4) . . .
47(4) . . .
42.6(34) . . .
47(4) . . .
39.6(33) . . .
34.5(32) . . .
40.3(34) . . .
45(4) . . .
37.6(33) . . .
41.6(33) . . .
40(4) . . .
58(4) . . .
43.6(35) . . .
53(4) . . .
45(4) . . .
35.5(31) . . .
32.6(31) . . .
35.2(32) . . .
42.1(35) . . .
34.4(31) . . .
48(4) . . .
48(4) . . .
36.1(34) . . .
37.0(32) . . .
46(4) . . .
36.7(32) . . .
41(4) . . .
37.8(32) . . .
41.5(33) . . .
36.6(32) . . .
42.0(34) . . .
38.0(33) . . .
37.8(33) . . .
42.1(34) . . .
49(4) . . .
42(4) . . .
40.5(34) . . .
47(4) . . .
46(4) . . .
39.4(33) . . .
41(4) . . .
44(4) . . .
37.0(33) . . .
43.0(35) . . .
50(4) . . .
43.9(34) . . .
43(4) . . .
49(4) . . .
38.8(32) . . .
42.2(35) . . .
48(4) . . .
45(4) . . .
46(4) . . .
39.8(32) . . .
44.1(35) . . .
50(4) . . .
39.3(33) . . .
47(4) . . .
39.4(33) . . .
39.4(33) . . .
42(4) . . .
47(4) . . .
49(4) . . .
43.6(35) . . .
46.0(35) . . .
43(4) . . .
45(4) . . .
49(4) . . .
41.5(34) . . .
30.9(31) . . .
43(4) . . .
40.5(35) . . .
30.2(31) . . .
32.4(29) . . .
47(4) . . .
40.2(33) . . .
35.8(32) . . .
44(4) . . .
45.5(35) . . .
53(4) . . .
36.4(31) . . .
44(4) . . .
42.7(34) . . .
41.8(33) . . .
32.1(30) . . .
38.9(35) . . .
43(4) . . .
44.0(35) . . .
35.2(31) . . .
37.6(33) . . .
46(4) . . .
53(4) . . .
48(4) . . .
45(4) . . .
46(4) . . .
44(4) . . .
47(4) . . .
34.2(30) . . .
37.2(32) . . .
36.5(33) . . .
41(4) . . .
43(4) . . .
40.1(33) . . .
40.7(34) . . .
42.7(35) . . .
35.5(32) . . .
47(4) . . .
51(4) . . .
39.7(33) . . .
44(4) . . .
36.5(32) . . .
38.6(33) . . .
38.8(32) . . .
44(4) . . .
35.1(31) . . .
40.5(34) . . .
34.9(33) . . .
39.0(33) . . .
46(4) . . .
41(4) . . .
32.5(29) . . .
38.1(34) . . .
37.6(32) . . .
48(4) . . .
39.5(35) . . .
42.4(35) . . .
41.1(35) . . .
47(4) . . .
49(4) . . .
46(4) . . .
46(4) . . .
46(4) . . .
42.0(34) . . .
42(4) . . .
42(4) . . .
39.8(34) . . .
50(4) . . .
35.8(31) . . .
35.8(33) . . .
44(4) . . .
46(4) . . .
42.0(35) . . .
42.8(34) . . .
47(4) . . .
46(4) . . .
33.3(31) . . .
28.8(28) . . .
36.7(32) . . .
53(4) . . .
45(4) . . .
39.6(34) . . .
42.7(34) . . .
40.8(33) . . .
44(4) . . .
45(4) . . .
42.4(34) . . .
39.7(32) . . .
35.2(31) . . .
51(4) . . .
36.4(32) . . .
49(4) . . .
50(4) . . .
37.4(32) . . .
36.4(32) . . .
49(4) . . .
43.8(35) . . .
41.6(34) . . .
40.6(34) . . .
44(4) . . .
43(4) . . .
49(4) . . .
31.8(30) . . .
38.4(33) . . .
51(4) . . .
45(4) . . .
41.1(34) . . .
49(4) . . .
50(4) . . .
43.4(35) . . .
38.0(32) . . .
46(4) . . .
44.5(34) . . .
42(4) . . .
42(4) . . .
54(4) . . .
34.4(33) . . .
39.2(32) . . .
43.0(35) . . .
48(4) . . .
43(4) . . .
37.8(32) . . .
32.2(31) . . .
32.5(31) . . .
46(4) . . .
47(4) . . .
42.6(35) . . .
48(4) . . .
40.5(34) . . .
43(4) . . .
40.3(34) . . .
53(4) . . .
41.1(33) . . .
38.4(32) . . .
42(4) . . .
40.0(33) . . .
41.2(33) . . .
49(4) . . .
36.0(31) . . .
42(4) . . .
44(4) . . .
47(4) . . .
31.0(31) . . .
36.7(33) . . .
47(4) . . .
36.7(31) . . .
40.9(33) . . .
44.1(35) . . .
46(4) . . .
33.1(30) . . .
36.3(33) . . .
40.4(33) . . .
50(4) . . .
43.3(34) . . .
50(4) . . .
48(4) . . .
43.0(34) . . .
46(4) . . .
38.0(34) . . .
35.7(33) . . .
43(4) . . .
44.4(35) . . .
42.5(34) . . .
37.3(32) . . .
44.6(35) . . .
44.4(35) . . .
48(4) . . .
52(4) . . .
48(4) . . .
45(4) . . .
43.0(34) . . .
42.3(33) . . .
44.7(35) . . .
47(4) . . .
43.5(34) . . .
44.3(34) . . .
35.1(31) . . .
36.0(31) . . .
43(4) . . .
43.3(35) . . .
38.8(32) . . .
37.6(32) . . .
42(4) . . .
47(4) . . .
39.8(34) . . .
38.7(32) . . .
36.8(31) . . .
44(4) . . .
45(4) . . .
52(4) . . .
51(4) . . .
45(4) . . .
45(4) . . .
36.8(33) . . .
40.1(34) . . .
47(4) . . .
38.8(33) . . .
33.3(30) . . .
47(4) . . .
36.8(32) . . .
41.3(33) . . .
40.9(33) . . .
34.2(30) . . .
39.1(33) . . .
48(4) . . .
47(4) . . .
43.2(34) . . .
42.7(33) . . .
53(4) . . .
51(4) . . .
53(4) . . .
45(4) . . .
39.9(35) . . .
47(4) . . .
45.4(35) . . .
43.0(34) . . .
42.3(34) . . .
51(4) . . .
39.1(32) . . .
36.1(31) . . .
37.7(32) . . .
37.3(33) . . .
34.7(32) . . .
37.7(34) . . .
49(4) . . .
42.2(34) . . .
35.2(31) . . .
37.6(35) . . .
45(4) . . .
50(4) . . .
52(4) . . .
39.9(35) . . .
35.8(32) . . .
50(4) . . .
40.1(33) . . .
32.8(30) . . .
35.3(32) . . .
40(4) . . .
42(4) . . .
46(4) . . .
37.9(33) . . .
33.0(30) . . .
53(4) . . .
48(4) . . .
46(4) . . .
46(4) . . .
42.2(35) . . .
55(4) . . .
44(4) . . .
41.1(33) . . .
34.7(32) . . .
31.9(29) . . .
50(4) . . .
47(4) . . .
38.1(32) . . .
42.0(35) . . .
39.9(33) . . .
55(4) . . .
48(4) . . .
44.0(35) . . .
40(4) . . .
39.0(35) . . .
36.4(32) . . .
44(4) . . .
53(4) . . .
49(4) . . .
48(4) . . .
43(4) . . .
48(4) . . .
38.4(33) . . .
35.3(34) . . .
32.1(32) . . .
39.5(35) . . .
41.0(35) . . .
55(4) . . .
45(4) . . .
38.9(35) . . .
37.4(34) . . .
39.2(33) . . .
38.4(32) . . .
43.2(35) . . .
39.5(35) . . .
43(4) . . .
48(4) . . .
31.4(29) . . .
40.2(34) . . .
35.4(33) . . .
35.3(31) . . .
34.5(30) . . .
34.8(31) . . .
40.0(34) . . .
37.3(34) . . .
49(4) . . .
41.8(34) . . .
41.0(34) . . .
41(4) . . .
47(4) . . .
47(4) . . .
44.2(34) . . .
48(4) . . .
42.3(34) . . .
41(4) . . .
34.6(31) . . .
52(4) . . .
40.2(33) . . .
46(4) . . .
43.3(34) . . .
39.7(33) . . .
44.6(34) . . .
37(4) . . .
46(4) . . .
53(4) . . .
37.5(31) . . .
41.5(34) . . .
43.3(35) . . .
48(4) . . .
40.9(33) . . .
47(4) . . .
45.2(35) . . .
34.9(33) . . .
45(4) . . .
37.2(33) . . .
40.9(33) . . .
36.9(32) . . .
42.2(34) . . .
50(4) . . .
46(4) . . .
47(4) . . .
45.8(35) . . .
54(4) . . .
38.8(35) . . .
54(4) . . .
47(4) . . .
44.5(35) . . .
46(4) . . .
37.9(33) . . .
44(4) . . .
38.8(32) . . .
41.1(34) . . .
40.3(33) . . .
43(4) . . .
37.5(32) . . .
41.7(34) . . .
36.3(31) . . .
45(4) . . .
39.1(34) . . .
38.5(34) . . .
46(4) . . .
40.9(35) . . .
41(4) . . .
44(4) . . .
32.2(31) . . .
41.5(34) . . .
38.3(33) . . .
37.8(35) . . .
33.8(32) . . .
43(4) . . .
36.7(31) . . .
40.3(34) . . .
41.9(35) . . .
42(4) . . .
34.3(31) . . .
38.0(32) . . .
39.9(35) . . .
33.3(30) . . .
46(4) . . .
44.0(35) . . .
39.3(33) . . .
50(4) . . .
37.8(33) . . .
41.1(35) . . .
43.7(34) . . .
34.4(31) . . .
40.5(35) . . .
44(4) . . .
46(4) . . .
36.2(32) . . .
49(4) . . .
50(4) . . .
44(4) . . .
48(4) . . .
38.8(32) . . .
38.5(33) . . .
30.6(29) . . .
45(4) . . .
49(4) . . .
36.6(32) . . .
45.7(35) . . .
37.2(32) . . .
38.9(34) . . .
47(4) . . .
41.8(34) . . .
39.2(34) . . .
45(4) . . .
47(4) . . .
36.3(32) . . .
32.2(30) . . .
34.4(30) . . .
49(4) . . .
39(4) . . .
36.7(33) . . .
43.0(35) . . .
35.2(32) . . .
43(4) . . .
36.9(33) . . .
36.9(32) . . .
38.3(32) . . .
37.3(32) . . .
48(4) . . .
37.7(33) . . .
35.3(31) . . .
46(4) . . .
42(4) . . .
41(4) . . .
51(4) . . .
38.5(32) . . .
39.7(33) . . .
50(4) . . .
40.8(35) . . .
40(4) . . .
44.5(35) . . .
44(4) . . .
41(4) . . .
40(4) . . .
39.2(34) . . .
40.3(34) . . .
47(4) . . .
44(4) . . .
49(4) . . .
41.0(34) . . .
40.3(33) . . .
33.8(31) . . .
33.2(30) . . .
50(4) . . .
46(4) . . .
42.7(35) . . .
42.1(34) . . .
37.1(32) . . .
35.7(34) . . .
43(4) . . .
38.6(32) . . .
37.9(34) . . .
32.9(32) . . .
46(4) . . .
45(4) . . .
43.4(34) . . .
39.9(33) . . .
38.4(34) . . .
46(4) . . .
43(4) . . .
44.8(35) . . .
48(4) . . .
45(4) . . .
43(4) . . .
44.8(35) . . .
37.4(32) . . .
39.0(34) . . .
42(4) . . .
45(4) . . .
37.6(32) . . .
38.5(32) . . .
51(4) . . .
52(4) . . .
40.2(34) . . .
37.0(32) . . .
39.8(33) . . .
39.2(34) . . .
45(4) . . .
44(4) . . .
41.2(33) . . .
43.2(35) . . .
41.0(34) . . .
44(4) . . .
39.3(34) . . .
45(4) . . .
42.1(34) . . .
46(4) . . .
34.9(31) . . .
43.8(34) . . .
44.5(34) . . .
45.2(35) . . .
49(4) . . .
52(4) . . .
44(4) . . .
47(4) . . .
47(4) . . .
44.2(34) . . .
45(4) . . .
43(4) . . .
40.3(33) . . .
41.3(34) . . .
34.5(32) . . .
43(4) . . .
36.4(32) . . .
43.6(35) . . .
40.0(33) . . .
50(4) . . .
37.3(33) . . .
40(4) . . .
33.5(30) . . .
35.1(31) . . .
44(4) . . .
37.4(33) . . .
40.6(35) . . .
36.1(32) . . .
38.3(32) . . .
41.8(33) . . .
40.8(35) . . .
46(4) . . .
41.0(33) . . .
43.7(35) . . .
38.9(33) . . .
45(4) . . .
47(4) . . .
42.9(34) . . .
33.3(32) . . .
39.5(34) . . .
46(4) . . .
33.7(30) . . .
44.3(35) . . .
37.9(32) . . .
43(4) . . .
46(4) . . .
49(4) . . .
48(4) . . .
38.9(33) . . .
47(4) . . .
36.5(33) . . .
39.1(33) . . .
42.7(34) . . .
46(4) . . .
28.9(28) . . .
42(4) . . .
37.5(32) . . .
47(4) . . .
37.1(32) . . .
37.3(33) . . .
41.3(34) . . .
50(4) . . .
47(4) . . .
49(4) . . .
47(4) . . .
34.3(31) . . .
44.7(35) . . .
46(4) . . .
46(4) . . .
34.3(32) . . .
33.4(33) . . .
38.1(32) . . .
46(4) . . .
42(4) . . .
40.2(34) . . .
42(4) . . .
50(4) . . .
39.3(34) . . .
39.6(35) . . .
53(4) . . .
44.0(34) . . .
50(4) . . .
46(4) . . .
41(4) . . .
39.5(35) . . .
40.7(34) . . .
43.9(34) . . .
41(4) . . .
37.8(33) . . .
39.5(33) . . .
43.5(35) . . .
39.1(33) . . .
40.1(33) . . .
46(4) . . .
42.2(35) . . .
42(4) . . .
40.2(33) . . .
42.8(35) . . .
42(4) . . .
36.1(34) . . .
47(4) . . .
37.9(32) . . .
33.8(31) . . .
43(4) . . .
37.9(33) . . .
35.4(31) . . .
39.6(32) . . .
39.1(31) . . .
44.6(35) . . .
45(4) . . .
39.3(33) . . .
38.6(33) . . .
45(4) . . .
34.4(31) . . .
41.0(33) . . .
45(4) . . .
50(4) . . .
50(4) . . .
39.3(33) . . .
43(4) . . .
36.3(32) . . .
42(4) . . .
38.3(34) . . .
39(4) . . .
29.8(29) . . .
33.9(31) . . .
40.3(33) . . .
37.6(34) . . .
47(4) . . .
38.9(33) . . .
37.1(31) . . .
43.6(35) . . .
42.2(35) . . .
37.4(33) . . .
43(4) . . .
43.0(34) . . .
39.1(32) . . .
34.0(31) . . .
42(4) . . .
43(4) . . .
41.8(33) . . .
35.8(34) . . .
43(4) . . .
33.2(31) . . .
36.8(33) . . .
50(4) . . .
40.0(35) . . .
39(4) . . .
35.1(33) . . .
40.0(33) . . .
43.5(34) . . .
35.0(30) . . .
39(4) . . .
39.6(35) . . .
34.7(31) . . .
34.9(30) . . .
39.7(34) . . .
36.3(33) . . .
34.9(32) . . .
39.7(33) . . .
36.8(32) . . .
41.0(34) . . .
43(4) . . .
36.2(31) . . .
50(4) . . .
46(4) . . .
39.3(33) . . .
41(4) . . .
41.9(34) . . .
38.7(32) . . .
52(4) . . .
47(4) . . .
48(4) . . .
39.5(34) . . .
44.1(35) . . .
41.8(34) . . .
42(4) . . .
45(4) . . .
52(4) . . .
35.4(32) . . .
44(4) . . .
49(4) . . .
49(4) . . .
34.4(31) . . .
35.5(31) . . .
44(4) . . .
43(4) . . .
56(4) . . .
31.9(31) . . .
46.1(35) . . .
46(4) . . .
36.0(31) . . .
47(4) . . .
40.4(33) . . .
47(4) . . .
47(4) . . .
46(4) . . .
40.9(33) . . .
52(4) . . .
38.4(33) . . .
40.5(34) . . .
37.1(33) . . .
37.1(33) . . .
38.8(32) . . .
33.5(31) . . .
43(4) . . .
42(4) . . .
45(4) . . .
48(4) . . .
41.8(33) . . .
50(4) . . .
39.2(33) . . .
44(4) . . .
39.9(33) . . .
47(4) . . .
45(4) . . .
39.5(34) . . .
43.3(34) . . .
37.6(32) . . .
45(4) . . .
49(4) . . .
41(4) . . .
39.5(34) . . .
36.8(32) . . .
50(4) . . .
42.8(35) . . .
41.3(35) . . .
47(4) . . .
42.4(34) . . .
41.2(34) . . .
38.2(34) . . .
36.1(32) . . .
43(4) . . .
47(4) . . .
45(4) . . .
48(4) . . .
44(4) . . .
37.6(33) . . .
42.0(34) . . .
43(4) . . .
44(4) . . .
43(4) . . .
41.5(34) . . .
35.9(31) . . .
40.3(34) . . .
47(4) . . .
40.0(33) . . .
35.9(33) . . .
38.8(33) . . .
46(4) . . .
43(4) . . .
41.7(35) . . .
38.3(32) . . .
38.4(32) . . .
35.1(31) . . .
40(4) . . .
38(4) . . .
41.0(35) . . .
37.2(31) . . .
39.1(33) . . .
40.7(34) . . .
48(4) . . .
45.0(35) . . .
42.1(34) . . .
48(4) . . .
53(4) . . .
39.3(34) . . .
38.3(32) . . .
32.9(30) . . .
36.9(32) . . .
45(4) . . .
39.5(33) . . .
49(4) . . .
37.4(32) . . .
41(4) . . .
38.2(35) . . .
36.6(34) . . .
31.8(28) . . .
35.8(34) . . .
47(4) . . .
39.3(35) . . .
35.5(31) . . .
34.5(31) . . .
50(4) . . .
45(4) . . .
38.3(33) . . .
35.4(32) . . .
40.5(34) . . .
50(4) . . .
41(4) . . .
42.1(35) . . .
42.2(33) . . .
45.0(35) . . .
42(4) . . .
41(4) . . .
38.6(34) . . .
41.8(35) . . .
39.5(33) . . .
40.1(34) . . .
39.0(34) . . .
42.0(35) . . .
45.6(35) . . .
42.1(35) . . .
40.8(35) . . .
45(4) . . .
39.2(32) . . .
41.4(33) . . .
45(4) . . .
47(4) . . .
41(4) . . .
40.8(34) . . .
45(4) . . .
47(4) . . .
48(4) . . .
49(4) . . .
32.9(29) . . .
50(4) . . .
39.8(33) . . .
45(4) . . .
53(4) . . .
49(4) . . .
43.9(34) . . .
35.6(32) . . .
37.6(33) . . .
47(4) . . .
48(4) . . .
41.0(34) . . .
39.1(34) . . .
40.3(34) . . .
46(4) . . .
32.8(30) . . .
32.5(31) . . .
40.2(33) . . .
40(4) . . .
30.8(28) . . .
43.5(35) . . .
33.1(30) . . .
47(4) . . .
39.9(33) . . .
37.9(33) . . .
42.3(34) . . .
36.9(32) . . .
31.8(30) . . .
34.6(31) . . .
36.1(31) . . .
44(4) . . .
39.9(34) . . .
45(4) . . .
38.8(32) . . .
39.1(33) . . .
33.0(30) . . .
37.3(32) . . .
36.4(32) . . .
44(4) . . .
42(4) . . .
42.0(34) . . .
45.0(35) . . .
34.5(33) . . .
43(4) . . .
44(4) . . .
46(4) . . .
38.9(32) . . .
37.2(33) . . .
38(4) . . .
36.4(33) . . .
35.3(31) . . .
35.0(31) . . .
32.8(31) . . .
35.4(35) . . .
32.8(30) . . .
38.9(33) . . .
39.2(32) . . .
42.2(35) . . .
41(4) . . .
41(4) . . .
35.7(31) . . .
37.3(33) . . .
45(4) . . .
39.3(35) . . .
35.6(31) . . .
49(4) . . .
36.1(33) . . .
43(4) . . .
32.7(31) . . .
37.8(33) . . .
48(4) . . .
40.0(34) . . .
44(4) . . .
38.6(34) . . .
40(4) . . .
41.5(34) . . .
42.6(35) . . .
39.2(35) . . .
44(4) . . .
43.4(34) . . .
41.0(34) . . .
34.3(31) . . .
40(4) . . .
43(4) . . .
43.3(34) . . .
35.7(31) . . .
39(4) . . .
37.1(34) . . .
43(4) . . .
35.0(31) . . .
48(4) . . .
46(4) . . .
33.0(31) . . .
33.7(31) . . .
43.1(34) . . .
46(4) . . .
37.0(33) . . .
44(4) . . .
44(4) . . .
42.3(34) . . .
51(4) . . .
39.3(34) . . .
36.1(33) . . .
41.8(34) . . .
44.4(35) . . .
45.9(35) . . .
32.1(29) . . .
34.7(31) . . .
41.0(34) . . .
37.9(32) . . .
43.0(34) . . .
41.2(34) . . .
47(4) . . .
35.8(31) . . .
35.6(31) . . .
41.6(34) . . .
45(4) . . .
35.8(32) . . .
43(4) . . .
40.1(33) . . .
45(4) . . .
45(4) . . .
43(4) . . .
35.1(31) . . .
46(4) . . .
35.9(33) . . .
43(4) . . .
41(4) . . .
42.3(35) . . .
36.2(31) . . .
38.9(33) . . .
44(4) . . .
46(4) . . .
46.4(35) . . .
35.0(31) . . .
36.5(33) . . .
35.2(31) . . .
38.4(32) . . .
50(4) . . .
35.3(31) . . .
34.6(32) . . .
36.2(34) . . .
39.2(34) . . .
47(4) . . .
45(4) . . .
44(4) . . .
47(4) . . .
40.5(34) . . .
39.8(34) . . .
41.1(33) . . .
41.9(34) . . .
41(4) . . .
43(4) . . .
31.4(29) . . .
38.8(33) . . .
46(4) . . .
43(4) . . .
41(4) . . .
38.2(33) . . .
42.0(35) . . .
49(4) . . .
50(4) . . .
35.3(31) . . .
42.9(35) . . .
36.7(32) . . .
42(4) . . .
46(4) . . .
42.4(34) . . .
41.5(34) . . .
38.5(32) . . .
37.1(33) . . .
42(4) . . .
35.1(33) . . .
35.8(31) . . .
36.5(32) . . .
40.0(34) . . .
42.6(34) . . .
38.6(33) . . .
36.2(31) . . .
43(4) . . .
49(4) . . .
43.5(35) . . .
47(4) . . .
42.5(34) . . .
42.5(34) . . .
43(4) . . .
42(4) . . .
46(4) . . .
37.0(32) . . .
39.3(33) . . .
44(4) . . .
39.8(35) . . .
35.6(33) . . .
39.0(32) . . .
41.5(33) . . .
47(4) . . .
41.4(34) . . .
39.7(34) . . .
38.6(32) . . .
39(4) . . .
33.3(33) . . .
29.9(29) . . .
50(4) . . .
35.7(31) . . .
37.4(33) . . .
34.6(32) . . .
40(4) . . .
34.4(31) . . .
40.1(33) . . .
38.8(33) . . .
46(4) . . .
38.6(32) . . .
33.7(31) . . .
27.9(29) . . .
27.6(28) . . .
42(4) . . .
40.6(35) . . .
35.5(31) . . .
50(4) . . .
42(4) . . .
39.5(34) . . .
41.1(34) . . .
39.2(33) . . .
43.1(34) . . .
39.7(34) . . .
36.8(33) . . .
38.6(33) . . .
39.8(32) . . .
38.8(33) . . .
35.6(31) . . .
41.3(34) . . .
36.8(32) . . .
47(4) . . .
44(4) . . .
36.0(31) . . .
40.4(34) . . .
47(4) . . .
38.2(32) . . .
35.0(31) . . .
36.8(35) . . .
32.2(30) . . .
36.6(32) . . .
42.2(33) . . .
42.3(34) . . .
41(4) . . .
35.3(32) . . .
42.8(34) . . .
40.3(33) . . .
40(4) . . .
37.9(33) . . .
42(4) . . .
40.0(33) . . .
45(4) . . .
36.3(33) . . .
41(4) . . .
39.8(33) . . .
35.8(31) . . .
42.7(34) . . .
46(4) . . .
38.2(34) . . .
36.4(34) . . .
43.3(34) . . .
37.8(32) . . .
43(4) . . .
43(4) . . .
41.5(33) . . .
44(4) . . .
43.3(34) . . .
36.6(33) . . .
35.0(32) . . .
30.7(29) . . .
33.1(30) . . .
45(4) . . .
39.4(34) . . .
39.8(35) . . .
45(4) . . .
39.7(33) . . .
41.0(34) . . .
38.0(33) . . .
45(4) . . .
45(4) . . .
41.4(34) . . .
40.4(34) . . .
39(4) . . .
44(4) . . .
31.9(29) . . .
38.9(32) . . .
39.0(33) . . .
42(4) . . .
35.7(33) . . .
43.9(35) . . .
38.8(32) . . .
41.3(34) . . .
34.2(32) . . .
39.4(34) . . .
39.1(33) . . .
42.4(34) . . .
33.1(31) . . .
40.4(35) . . .
47(4) . . .
37.2(31) . . .
42.3(34) . . .
33.7(32) . . .
44(4) . . .
37.0(33) . . .
44.7(34) . . .
44(4) . . .
46(4) . . .
43(4) . . .
39.9(33) . . .
42.3(34) . . .
35.7(31) . . .
42(4) . . .
42(4) . . .
34.9(31) . . .
40.7(33) . . .
47(4) . . .
49(4) . . .
43(4) . . .
43.7(34) . . .
37.0(32) . . .
37.8(33) . . .
32.1(30) . . .
48(4) . . .
29.1(28) . . .
41.8(34) . . .
38.4(32) . . .
37.3(35) . . .
38.6(33) . . .
37.9(32) . . .
47(4) . . .
44.5(35) . . .
38.9(33) . . .
38.8(33) . . .
38.5(32) . . .
41.5(33) . . .
44(4) . . .
42(4) . . .
34.1(31) . . .
42.4(34) . . .
34.7(30) . . .
37.5(33) . . .
41(4) . . .
35.7(31) . . .
33.5(30) . . .
43.4(34) . . .
38.5(33) . . .
38.4(33) . . .
33.3(30) . . .
42.2(34) . . .
43.3(35) . . .
34.8(32) . . .
39.0(35) . . .
43(4) . . .
38.6(32) . . .
38.7(32) . . .
43(4) . . .
35.4(34) . . .
42(4) . . .
44.0(35) . . .
39.5(35) . . .
34.8(32) . . .
39.0(34) . . .
43(4) . . .
35.5(31) . . .
42.5(35) . . .
37.6(33) . . .
38.8(33) . . .
37.6(33) . . .
34.6(31) . . .
37.0(32) . . .
41(4) . . .
34.0(33) . . .
38.7(33) . . .
35.8(31) . . .
37.0(33) . . .
35.2(32) . . .
47(4) . . .
43.5(34) . . .
29.0(28) . . .
45(4) . . .
33.7(30) . . .
37.3(32) . . .
38.8(33) . . .
43.1(34) . . .
34.2(33) . . .
34.3(31) . . .
36.8(32) . . .
43.1(34) . . .
36.2(31) . . .
33.3(33) . . .
40(4) . . .
38.7(34) . . .
36.7(32) . . .
41.9(34) . . .
39.5(34) . . .
43(4) . . .
44(4) . . .
50(4) . . .
37.6(32) . . .
35.6(33) . . .
33.6(33) . . .
33.7(31) . . .
40.5(34) . . .
39.9(33) . . .
41(4) . . .
44(4) . . .
33.7(30) . . .
37.9(32) . . .
49(4) . . .
38.6(34) . . .
36.0(32) . . .
29.7(29) . . .
38.6(32) . . .
37.4(34) . . .
34.3(31) . . .
40.7(34) . . .
37.7(32) . . .
35.3(31) . . .
29.5(28) . . .
31.3(29) . . .
37.0(33) . . .
43.7(35) . . .
40.4(33) . . .
38.2(33) . . .
41.4(35) . . .
46(4) . . .
36.0(32) . . .
42.7(34) . . .
37.7(33) . . .
43(4) . . .
40.3(34) . . .
39.9(33) . . .
31.9(30) . . .
37.4(34) . . .
38.3(34) . . .
42.6(34) . . .
40.8(33) . . .
33.7(31) . . .
29.5(31) . . .
46(4) . . .
35.8(34) . . .
30.1(29) . . .
37.5(33) . . .
41.7(35) . . .
42(4) . . .
37.9(32) . . .
38.4(32) . . .
39.0(33) . . .
43(4) . . .
45(4) . . .
32.6(30) . . .
38.3(32) . . .
39.8(33) . . .
42.0(35) . . .
43(4) . . .
31.0(30) . . .
33.0(30) . . .
39.8(34) . . .
40.2(35) . . .
38.5(35) . . .
40(4) . . .
42.6(34) . . .
47(4) . . .
43.8(35) . . .
36.3(31) . . .
49(4) . . .
35.6(31) . . .
39.4(33) . . .
42.9(35) . . .
42.5(35) . . .
42.7(35) . . .
45.0(35) . . .
41.4(33) . . .
40.2(35) . . .
46(4) . . .
35.6(31) . . .
42.0(34) . . .
38.5(33) . . .
38(4) . . .
40.9(35) . . .
40.0(32) . . .
36.7(32) . . .
39.6(33) . . .
42.3(34) . . .
44.7(35) . . .
50(4) . . .
45(4) . . .
41(4) . . .
44(4) . . .
38.4(32) . . .
34.4(31) . . .
40.3(34) . . .
45(4) . . .
42.5(35) . . .
44(4) . . .
36.8(31) . . .
38.6(33) . . .
38.3(33) . . .
42(4) . . .
31.4(32) . . .
32.2(30) . . .
32.2(30) . . .
40.6(35) . . .
38.4(33) . . .
44(4) . . .
36.4(32) . . .
34.8(31) . . .
36.2(32) . . .
34.9(31) . . .
31.1(30) . . .
35.4(32) . . .
46(4) . . .
43(4) . . .
43(4) . . .
34.7(33) . . .
36.3(31) . . .
41.0(35) . . .
33.8(32) . . .
36.8(34) . . .
36.2(31) . . .
38.6(32) . . .
38.3(33) . . .
37.6(34) . . .
40.8(34) . . .
32.8(30) . . .
36.6(32) . . .
43.7(35) . . .
45(4) . . .
36.2(34) . . .
40.7(34) . . .
40.5(33) . . .
37.3(32) . . .
38.9(35) . . .
40.0(33) . . .
40.5(34) . . .
37.6(32) . . .
33.4(31) . . .
44(4) . . .
39.2(32) . . .
37.5(32) . . .
34.9(31) . . .
30.3(29) . . .
43(4) . . .
33.5(31) . . .
41.0(33) . . .
35.3(31) . . .
40.6(33) . . .
44(4) . . .
29.0(29) . . .
42.8(34) . . .
44(4) . . .
41(4) . . .
35.3(33) . . .
34.8(31) . . .
49(4) . . .
41.0(33) . . .
38.2(32) . . .
45(4) . . .
39.9(34) . . .
42.0(34) . . .
41.3(34) . . .
29.7(30) . . .
38.9(34) . . .
41.6(34) . . .
42.7(34) . . .
40.8(34) . . .
40.9(34) . . .
42(4) . . .
34.1(30) . . .
40.7(34) . . .
36.0(32) . . .
44(4) . . .
37.5(33) . . .
34.0(31) . . .
41.2(33) . . .
45(4) . . .
36.5(32) . . .
43(4) . . .
40.8(33) . . .
35.5(31) . . .
41(4) . . .
37.4(35) . . .
41(4) . . .
38.4(34) . . .
35.1(31) . . .
37.3(32) . . .
42.0(35) . . .
46(4) . . .
41.2(34) . . .
42.0(34) . . .
45(4) . . .
24.9(26) . . .
44(4) . . .
40.4(34) . . .
39.8(33) . . .
42.7(34) . . .
35.5(34) . . .
36.5(33) . . .
38.5(32) . . .
34.1(32) . . .
45(4) . . .
42(4) . . .
34.8(32) . . .
38.0(32) . . .
40.6(33) . . .
40.4(34) . . .
41.1(35) . . .
37.2(32) . . .
32.0(29) . . .
45(4) . . .
45(4) . . .
44(4) . . .
48(4) . . .
48(4) . . .
36.6(32) . . .
43(4) . . .
37.7(34) . . .
31.4(29) . . .
43.8(35) . . .
38.4(33) . . .
45(4) . . .
41.5(35) . . .
42.5(34) . . .
30.8(29) . . .
34.3(32) . . .
39.0(35) . . .
32.4(30) . . .
39.3(34) . . .
45(4) . . .
42(4) . . .
33.8(33) . . .
42.7(35) . . .
37.2(32) . . .
40.7(33) . . .
31.6(30) . . .
37.0(32) . . .
43(4) . . .
34.4(30) . . .
43.6(35) . . .
32.8(31) . . .
45(4) . . .
38.1(33) . . .
28.9(28) . . .
36.1(31) . . .
37.9(35) . . .
34.6(32) . . .
38.7(32) . . .
40.7(33) . . .
34.7(31) . . .
38.5(34) . . .
45(4) . . .
34.4(31) . . .
48(4) . . .
49(4) . . .
40.5(35) . . .
37.6(32) . . .
34.1(31) . . .
32.0(30) . . .
35.9(31) . . .
38(4) . . .
41(4) . . .
42.5(35) . . .
42.7(34) . . .
42(4) . . .
44(4) . . .
38.0(34) . . .
38.5(34) . . .
36.6(32) . . .
36.2(32) . . .
34.2(32) . . .
36.2(33) . . .
39.5(33) . . .
41.9(34) . . .
43(4) . . .
41.4(34) . . .
43.6(35) . . .
39.7(34) . . .
41.3(34) . . .
39.2(35) . . .
41.6(35) . . .
44(4) . . .
38.6(32) . . .
38.6(32) . . .
37.8(34) . . .
40(4) . . .
51(4) . . .
37.4(31) . . .
42.8(34) . . .
34.6(31) . . .
33.6(32) . . .
38.7(34) . . .
39.4(33) . . .
44(4) . . .
37.9(34) . . .
34.1(33) . . .
38.6(33) . . .
35.2(31) . . .
37.1(32) . . .
40.1(33) . . .
34.6(32) . . .
44(4) . . .
35.6(31) . . .
40.7(33) . . .
43.4(34) . . .
38.5(34) . . .
33.6(30) . . .
30.3(29) . . .
41.2(33) . . .
43.8(35) . . .
36.8(32) . . .
28.3(27) . . .
33.3(30) . . .
35.9(32) . . .
46(4) . . .
37.9(33) . . .
34.2(31) . . .
42.3(34) . . .
35.9(32) . . .
36.5(33) . . .
34.0(32) . . .
32.1(30) . . .
33.7(30) . . .
28.4(28) . . .
39.5(34) . . .
43(4) . . .
51(4) . . .
39.7(33) . . .
34.0(31) . . .
43(4) . . .
28.0(27) . . .
27.4(29) . . .
37.4(32) . . .
41.9(35) . . .
30.8(32) . . .
42(4) . . .
38.3(33) . . .
34.0(30) . . .
35.2(31) . . .
40(4) . . .
56(4) . . .
39.4(33) . . .
36.1(31) . . .
33.9(33) . . .
43(4) . . .
46(4) . . .
32.9(30) . . .
42.8(35) . . .
42.9(33) . . .
36.3(34) . . .
34.6(35) . . .
39.8(33) . . .
37.0(33) . . .
35.8(31) . . .
44(4) . . .
37.7(34) . . .
39.2(32) . . .
37.7(34) . . .
37.0(32) . . .
42(4) . . .
43(4) . . .
34.1(31) . . .
37.3(32) . . .
37.7(33) . . .
39(4) . . .
38.5(35) . . .
36.3(31) . . .
32.8(31) . . .
36.4(33) . . .
43(4) . . .
45(4) . . .
35.4(30) . . .
31.7(30) . . .
37.9(33) . . .
35.0(33) . . .
41(4) . . .
42.2(34) . . .
40.2(35) . . .
36.4(32) . . .
36.8(33) . . .
37.8(32) . . .
35.9(31) . . .
37.6(32) . . .
36.3(32) . . .
37.3(33) . . .
33.4(30) . . .
38.7(32) . . .
38.4(34) . . .
38.3(35) . . .
26.0(26) . . .
43.8(35) . . .
31.9(30) . . .
38.8(33) . . .
35.4(31) . . .
39.9(33) . . .
46.1(35) . . .
29.3(29) . . .
41.3(34) . . .
44(4) . . .
44(4) . . .
43(4) . . .
44.3(34) . . .
34.0(33) . . .
43(4) . . .
35.8(33) . . .
45(4) . . .
43.6(34) . . .
30.9(31) . . .
35.5(35) . . .
36.2(32) . . .
39.6(33) . . .
41.2(33) . . .
32.7(29) . . .
34.0(33) . . .
32.4(33) . . .
39.4(33) . . .
38.3(32) . . .
48(4) . . .
34.2(31) . . .
38.8(35) . . .
35.4(31) . . .
41.1(33) . . .
38.5(33) . . .
35.0(31) . . .
42.0(34) . . .
41.5(33) . . .
32.6(32) . . .
34.3(32) . . .
44(4) . . .
32.6(29) . . .
30.5(29) . . .
31.7(30) . . .
35.4(32) . . .
33.2(30) . . .
49(4) . . .
35.9(31) . . .
45(4) . . .
34.5(32) . . .
38.0(33) . . .
37.1(31) . . .
48(4) . . .
39.3(33) . . .
37.8(32) . . .
39.9(34) . . .
45(4) . . .
35.1(31) . . .
35.1(32) . . .
44(4) . . .
38.4(34) . . .
37.3(32) . . .
43.0(35) . . .
35.4(31) . . .
38(4) . . .
39.2(34) . . .
33.9(30) . . .
30.9(29) . . .
33.2(32) . . .
44(4) . . .
38(4) . . .
44.1(34) . . .
32.0(31) . . .
36.3(32) . . .
40.3(33) . . .
47(4) . . .
44(4) . . .
38.4(33) . . .
39.7(33) . . .
41(4) . . .
34.7(33) . . .
37.3(32) . . .
32.8(31) . . .
33.8(33) . . .
35.4(33) . . .
40.8(33) . . .
42.7(34) . . .
46(4) . . .
40.0(33) . . .
37.6(33) . . .
34.7(31) . . .
49(4) . . .
36.4(32) . . .
44(4) . . .
47(4) . . .
34.5(31) . . .
40.5(33) . . .
43.3(35) . . .
38.3(33) . . .
40.2(33) . . .
30.7(29) . . .
38.8(32) . . .
30.5(30) . . .
36.2(33) . . .
37.4(31) . . .
36.5(31) . . .
35.8(31) . . .
33.7(31) . . .
36.1(34) . . .
31.6(30) . . .
36.7(33) . . .
47(4) . . .
37.8(33) . . .
28.7(27) . . .
39.0(34) . . .
43.5(34) . . .
39.8(33) . . .
45(4) . . .
46(4) . . .
44(4) . . .
37.3(32) . . .
40.8(33) . . .
40.9(34) . . .
44(4) . . .
46(4) . . .
32.0(29) . . .
31.4(30) . . .
38.7(34) . . .
38.7(35) . . .
32.1(30) . . .
34.1(30) . . .
42.3(34) . . .
38.5(31) . . .
44(4) . . .
39.8(35) . . .
38.5(33) . . .
39.7(34) . . .
36.3(33) . . .
48(4) . . .
33.2(32) . . .
34.3(31) . . .
32.6(30) . . .
40(4) . . .
48(4) . . .
39.0(32) . . .
37.0(32) . . .
42(4) . . .
35.1(34) . . .
37.5(32) . . .
42.0(34) . . .
35.0(31) . . .
47(4) . . .
40.3(34) . . .
35.9(32) . . .
38.6(32) . . .
31.1(29) . . .
33.5(31) . . .
41(4) . . .
29.5(28) . . .
44.0(34) . . .
36.4(31) . . .
42.3(35) . . .
40.2(34) . . .
41.0(35) . . .
43.0(34) . . .
30.9(28) . . .
40.0(34) . . .
39.7(34) . . .
36.6(32) . . .
37.5(32) . . .
30.9(30) . . .
44(4) . . .
36.4(33) . . .
39.8(34) . . .
40.2(33) . . .
32.1(30) . . .
33.4(30) . . .
37.3(32) . . .
39(4) . . .
33.8(30) . . .
40.2(34) . . .
39.5(34) . . .
35.5(31) . . .
39.3(34) . . .
40.5(33) . . .
38.9(32) . . .
37.3(32) . . .
42(4) . . .
33.3(30) . . .
39.8(33) . . .
35.5(33) . . .
42(4) . . .
43(4) . . .
35.1(31) . . .
37.3(32) . . .
32.5(31) . . .
33.6(32) . . .
33.8(32) . . .
35.4(31) . . .
41.8(33) . . .
39.1(33) . . .
40(4) . . .
29.7(29) . . .
36.2(31) . . .
39.8(33) . . .
50(4) . . .
43(4) . . .
37.9(33) . . .
30.0(29) . . .
39.2(33) . . .
42(4) . . .
34.4(31) . . .
44.0(34) . . .
41.9(34) . . .
36.1(31) . . .
37.1(32) . . .
38(4) . . .
30.2(29) . . .
36.2(31) . . .
38.9(32) . . .
34.1(30) . . .
47(4) . . .
34.8(32) . . .
35.9(31) . . .
36.2(32) . . .
35.2(33) . . .
34.4(33) . . .
43(4) . . .
36.6(32) . . .
39.1(32) . . .
41.6(34) . . .
43(4) . . .
36.5(32) . . .
33.5(30) . . .
55(4) . . .
39.0(32) . . .
43(4) . . .
38.8(34) . . .
43.6(35) . . .
41(4) . . .
49(4) . . .
42.5(34) . . .
34.6(31) . . .
34.1(31) . . .
38.9(33) . . .
41(4) . . .
47(4) . . .
40.0(33) . . .
34.5(31) . . .
33.6(31) . . .
32.2(30) . . .
39.3(34) . . .
37.6(32) . . .
38.0(32) . . .
40.9(35) . . .
43(4) . . .
41(4) . . .
24.6(26) . . .
28.5(28) . . .
31.0(29) . . .
39(4) . . .
37.4(35) . . .
32.1(30) . . .
39.3(33) . . .
43(4) . . .
32.2(31) . . .
31.6(30) . . .
41.3(33) . . .
40.4(34) . . .
41.0(34) . . .
46(4) . . .
37.3(33) . . .
40.6(33) . . .
42.5(34) . . .
31.9(31) . . .
48(4) . . .
36.7(32) . . .
38.3(32) . . .
37.7(32) . . .
32.8(30) . . .
31.0(30) . . .
35.4(32) . . .
42.8(34) . . .
32.2(30) . . .
35.6(30) . . .
49(4) . . .
33.3(30) . . .
44.6(35) . . .
47(4) . . .
33.6(30) . . .
40.0(34) . . .
27.5(27) . . .
43.3(34) . . .
34.3(31) . . .
30.8(30) . . .
36.8(33) . . .
46(4) . . .
42.0(33) . . .
40(4) . . .
39.3(33) . . .
29.8(30) . . .
31.0(29) . . .
33.3(31) . . .
31.3(30) . . .
29.9(33) . . .
36.7(33) . . .
38.6(32) . . .
34.7(31) . . .
41(4) . . .
37.5(34) . . .
31.6(29) . . .
40.0(34) . . .
36.5(32) . . .
38.7(33) . . .
45(4) . . .
37.0(33) . . .
38.5(32) . . .
27.8(28) . . .
32.1(31) . . .
33.5(31) . . .
40(4) . . .
36.2(32) . . .
36.7(32) . . .
47(4) . . .
45(4) . . .
34.5(31) . . .
36.6(31) . . .
43(4) . . .
46(4) . . .
38.1(34) . . .
36.4(33) . . .
36.2(31) . . .
38.0(33) . . .
34.2(30) . . .
44(4) . . .
41.8(34) . . .
36.3(31) . . .
38.8(33) . . .
36.2(32) . . .
37.2(33) . . .
41.8(34) . . .
40.8(33) . . .
39.3(33) . . .
42(4) . . .
33.1(30) . . .
41.0(34) . . .
38.9(33) . . .
41.7(33) . . .
43(4) . . .
51(4) . . .
42.2(33) . . .
39.8(33) . . .
40.3(34) . . .
44(4) . . .
41.5(35) . . .
32.7(31) . . .
44.6(34) . . .
39.3(33) . . .
38(4) . . .
31.9(30) . . .
48(4) . . .
37.2(32) . . .
32.1(29) . . .
40(4) . . .
39.9(34) . . .
41.6(33) . . .
41.3(34) . . .
41.4(34) . . .
38.6(35) . . .
38.7(34) . . .
41.2(33) . . .
34.1(31) . . .
33.2(32) . . .
39(4) . . .
41.0(35) . . .
33.3(30) . . .
41.5(33) . . .
40.6(34) . . .
36.6(35) . . .
39.1(33) . . .
36.7(32) . . .
29.0(29) . . .
44(4) . . .
37.9(34) . . .
31.0(29) . . .
40.2(33) . . .
39.5(34) . . .
34.6(31) . . .
40.2(34) . . .
36.6(32) . . .
30.9(30) . . .
38.4(32) . . .
38.4(33) . . .
44(4) . . .
36.3(31) . . .
33.7(30) . . .
32.9(30) . . .
32.9(33) . . .
36.0(34) . . .
35.3(31) . . .
38.7(32) . . .
37.9(33) . . .
44(4) . . .
44(4) . . .
31.8(31) . . .
35.8(31) . . .
36.0(32) . . .
42.0(35) . . .
33.9(30) . . .
33.0(30) . . .
34.0(31) . . .
39.5(35) . . .
32.1(33) . . .
34.3(32) . . .
36.3(31) . . .
36.7(32) . . .
27.6(28) . . .
37(4) . . .
37.3(34) . . .
42.5(35) . . .
41.6(34) . . .
44(4) . . .
41.2(34) . . .
43(4) . . .
32.3(30) . . .
40.1(33) . . .
37.5(33) . . .
34.5(31) . . .
42.5(34) . . .
41.0(34) . . .
36.9(34) . . .
44(4) . . .
27.1(27) . . .
41(4) . . .
32.3(29) . . .
34.3(31) . . .
38.9(34) . . .
32.3(30) . . .
34.6(30) . . .
31.3(30) . . .
37.3(33) . . .
41.4(34) . . .
50(4) . . .
41.8(34) . . .
37.8(33) . . .
33.6(30) . . .
45(4) . . .
36.0(30) . . .
34.5(31) . . .
39.8(33) . . .
38.8(33) . . .
40.5(34) . . .
35.5(32) . . .
32.3(29) . . .
41.9(34) . . .
40.6(33) . . .
48(4) . . .
39.2(34) . . .
44(4) . . .
41.0(33) . . .
42(4) . . .
36.5(33) . . .
43(4) . . .
39.7(33) . . .
37.5(32) . . .
32.2(30) . . .
38.8(35) . . .
39.2(34) . . .
39.8(33) . . .
41.3(33) . . .
40.6(33) . . .
38.5(35) . . .
31.8(31) . . .
42.8(34) . . .
46(4) . . .
40.5(34) . . .
37.3(34) . . .
40.5(33) . . .
37.7(32) . . .
36.8(32) . . .
30.4(30) . . .
36.3(33) . . .
44(4) . . .
37.0(32) . . .
46(4) . . .
40.0(33) . . .
44(4) . . .
38.8(32) . . .
37.6(32) . . .
38.6(33) . . .
39.2(34) . . .
40.2(34) . . .
28.2(28) . . .
41.4(34) . . .
39.9(33) . . .
32.7(31) . . .
32.9(31) . . .
34.8(31) . . .
40.4(33) . . .
36.1(33) . . .
26.6(28) . . .
42(4) . . .
28.4(28) . . .
29.8(29) . . .
28.7(28) . . .
39(4) . . .
32.3(30) . . .
42.1(33) . . .
43(4) . . .
34.6(32) . . .
36.9(33) . . .
37.3(35) . . .
37.5(32) . . .
38.4(32) . . .
39.3(34) . . .
42(4) . . .
33.4(31) . . .
30.5(29) . . .
40.5(33) . . .
49(4) . . .
36.9(32) . . .
38.2(33) . . .
34.8(31) . . .
34.5(30) . . .
39.0(34) . . .
33.1(31) . . .
38.7(34) . . .
31.6(29) . . .
34.5(32) . . .
43(4) . . .
41.9(35) . . .
33.6(30) . . .
34.2(30) . . .
34.0(31) . . .
38.7(34) . . .
38.3(34) . . .
44(4) . . .
32.3(30) . . .
37.7(33) . . .
45(4) . . .
38.6(34) . . .
33.3(32) . . .
40.7(33) . . .
33.6(30) . . .
40.0(35) . . .
32.6(31) . . .
40.3(33) . . .
30.5(28) . . .
39.1(34) . . .
39.7(34) . . .
41.8(34) . . .
43.7(35) . . .
36.2(31) . . .
34.1(32) . . .
44(4) . . .
24.4(26) . . .
32.0(29) . . .
35.0(31) . . .
37.8(32) . . .
39.0(34) . . .
45(4) . . .
43.7(35) . . .
36.7(31) . . .
43.5(35) . . .
33.1(31) . . .
41(4) . . .
44.2(35) . . .
41.8(34) . . .
42(4) . . .
34.4(33) . . .
31.0(31) . . .
38.6(34) . . .
39.1(32) . . .
29.9(29) . . .
41(4) . . .
33.0(30) . . .
31.0(28) . . .
34.8(32) . . .
31.5(30) . . .
33.2(31) . . .
31.9(32) . . .
32.0(30) . . .
29.4(29) . . .
43(4) . . .
38.1(33) . . .
43(4) . . .
34.9(31) . . .
49(4) . . .
38.3(34) . . .
35.7(33) . . .
48(4) . . .
36.1(32) . . .
45(4) . . .
38.9(34) . . .
36(4) . . .
33.9(31) . . .
41.3(33) . . .
50(4) . . .
36.2(32) . . .
34.8(31) . . .
46(4) . . .
40.0(33) . . .
41(4) . . .
35.7(33) . . .
37.7(33) . . .
42(4) . . .
40.2(32) . . .
39(4) . . .
33.4(32) . . .
37.0(32) . . .
34.3(31) . . .
48(4) . . .
33.4(30) . . .
34.4(32) . . .
37.6(32) . . .
38.6(33) . . .
41.8(33) . . .
31.6(30) . . .
29.4(30) . . .
35.8(32) . . .
35.2(31) . . .
50(4) . . .
44(4) . . .
37.6(35) . . .
34.4(31) . . .
33.0(30) . . .
33.4(31) . . .
27.4(29) . . .
30.7(31) . . .
35.6(32) . . .
37.2(32) . . .
36.7(32) . . .
29.1(30) . . .
36.5(34) . . .
39.2(35) . . .
36.8(31) . . .
33.3(33) . . .
36.9(34) . . .
40.2(34) . . .
40.2(33) . . .
32.9(30) . . .
36.2(31) . . .
35.8(34) . . .
32.8(33) . . .
30.0(30) . . .
40.8(33) . . .
34.5(31) . . .
42(4) . . .
34.3(31) . . .
36.1(32) . . .
42.8(33) . . .
39.1(33) . . .
35.6(31) . . .
47(4) . . .
40.9(33) . . .
41.8(34) . . .
40.3(33) . . .
37.6(34) . . .
38.1(34) . . .
37.5(32) . . .
34.9(31) . . .
36.6(33) . . .
41(4) . . .
35.0(31) . . .
35.9(32) . . .
39.6(33) . . .
37.0(32) . . .
45(4) . . .
38.0(32) . . .
45.0(35) . . .
38.0(32) . . .
33.0(30) . . .
33.3(30) . . .
35.9(32) . . .
39.3(32) . . .
32.2(30) . . .
42(4) . . .
37.5(34) . . .
41(4) . . .
38.1(32) . . .
36.9(33) . . .
42(4) . . .
36.3(33) . . .
37.7(33) . . .
38.5(32) . . .
34.9(32) . . .
42(4) . . .
35.6(32) . . .
34.8(32) . . .
39.9(33) . . .
34.0(31) . . .
30.2(29) . . .
32.0(30) . . .
37.7(32) . . .
38.3(33) . . .
29.6(30) . . .
28.1(30) . . .
35.5(32) . . .
46(4) . . .
40.7(34) . . .
34.3(31) . . .
34.0(31) . . .
33.5(30) . . .
49(4) . . .
40.2(33) . . .
41(4) . . .
33.7(31) . . .
32.2(32) . . .
35.3(31) . . .
36.6(32) . . .
41.4(34) . . .
36.8(33) . . .
41.0(34) . . .
33.4(30) . . .
36.1(31) . . .
45(4) . . .
42(4) . . .
31.0(29) . . .
29.7(30) . . .
34.5(31) . . .
28.2(29) . . .
29.1(30) . . .
38(4) . . .
26.2(26) . . .
46(4) . . .
34.5(30) . . .
38.3(33) . . .
36.7(31) . . .
36.8(32) . . .
35.8(31) . . .
29.6(28) . . .
34.1(32) . . .
37.6(33) . . .
32.4(30) . . .
44(4) . . .
36.2(34) . . .
34.0(32) . . .
50(4) . . .
32.4(30) . . .
42.9(35) . . .
38.7(34) . . .
41(4) . . .
40.5(34) . . .
35.6(31) . . .
38.4(34) . . .
33.7(32) . . .
35.7(33) . . .
37.5(34) . . .
40.1(33) . . .
31.8(29) . . .
35.7(33) . . .
26.6(28) . . .
33.4(31) . . .
42.8(33) . . .
36.8(33) . . .
33.1(32) . . .
31.5(29) . . .
38.3(34) . . .
31.9(30) . . .
30.9(32) . . .
32.9(31) . . .
31.2(28) . . .
38.5(32) . . .
44.7(35) . . .
36.1(31) . . .
43(4) . . .
36.9(33) . . .
30.6(29) . . .
38.1(34) . . .
40.8(34) . . .
36.9(35) . . .
32.8(31) . . .
40.8(33) . . .
36.4(32) . . .
47(4) . . .
42(4) . . .
38.3(34) . . .
34.8(31) . . .
38.5(33) . . .
35.8(33) . . .
38(4) . . .
32.2(30) . . .
37.7(32) . . .
39.8(33) . . .
36.3(33) . . .
33.9(32) . . .
41.5(35) . . .
34.3(31) . . .
31.5(31) . . .
41.4(35) . . .
43(4) . . .
43.8(35) . . .
38.6(32) . . .
38.0(34) . . .
28.7(29) . . .
33.2(32) . . .
34.2(30) . . .
34.9(31) . . .
35.4(31) . . .
36.2(33) . . .
42(4) . . .
40.6(34) . . .
41.3(34) . . .
37.9(35) . . .
32.6(32) . . .
36.7(33) . . .
33.3(30) . . .
38.2(32) . . .
36.3(34) . . .
37.7(33) . . .
38.3(33) . . .
35.7(31) . . .
41.9(34) . . .
26.1(26) . . .
40(4) . . .
37.2(33) . . .
33.0(30) . . .
31.6(29) . . .
38.1(34) . . .
32.2(33) . . .
45(4) . . .
33.3(30) . . .
34.0(31) . . .
40.2(34) . . .
38.8(34) . . .
31.4(29) . . .
40.9(34) . . .
36.0(33) . . .
28.4(29) . . .
30.5(32) . . .
37.2(33) . . .
39.1(33) . . .
33.5(32) . . .
33.2(32) . . .
42(4) . . .
30.3(30) . . .
37.9(33) . . .
38.8(32) . . .
42(4) . . .
30.0(30) . . .
34.2(30) . . .
32.6(30) . . .
39.3(34) . . .
33.2(31) . . .
40(4) . . .
34.3(31) . . .
31.9(30) . . .
32.6(32) . . .
35.1(32) . . .
38.7(33) . . .
39.0(34) . . .
38.1(32) . . .
29.0(28) . . .
33.9(32) . . .
34.2(32) . . .
38.1(32) . . .
32.6(30) . . .
28.0(28) . . .
35.6(31) . . .
38.4(34) . . .
33.6(31) . . .
38.3(33) . . .
35.8(31) . . .
38.6(34) . . .
36.2(32) . . .
40.0(33) . . .
30.2(29) . . .
32.9(33) . . .
41(4) . . .
42.9(35) . . .
37.2(33) . . .
41.3(33) . . .
37.0(31) . . .
32.8(32) . . .
42(4) . . .
27.3(27) . . .
37.9(32) . . .
45(4) . . .
32.2(31) . . .
30.1(29) . . .
32.2(30) . . .
31.7(30) . . .
43(4) . . .
37.1(31) . . .
35.6(32) . . .
37.1(32) . . .
33.4(30) . . .
43(4) . . .
36.0(33) . . .
35.7(32) . . .
35.9(32) . . .
32.0(31) . . .
35.1(32) . . .
34.8(31) . . .
37.3(33) . . .
42.0(34) . . .
35.7(31) . . .
37.1(33) . . .
38.8(33) . . .
32.3(30) . . .
40.0(33) . . .
41(4) . . .
34.9(32) . . .
45(4) . . .
42.8(34) . . .
34.3(31) . . .
37(4) . . .
38.9(34) . . .
31.0(28) . . .
35.4(31) . . .
34.9(31) . . .
33.1(31) . . .
38(4) . . .
29.4(29) . . .
42.6(34) . . .
39.1(33) . . .
40.7(33) . . .
37.2(34) . . .
43(4) . . .
34.6(31) . . .
34.5(31) . . .
37.1(33) . . .
37.0(32) . . .
43(4) . . .
31.1(30) . . .
34.1(30) . . .
32.3(31) . . .
29.4(30) . . .
31.9(31) . . .
35.0(31) . . .
39.4(35) . . .
37.6(34) . . .
29.6(30) . . .
38.5(33) . . .
38.0(32) . . .
31.5(30) . . .
44(4) . . .
32.5(30) . . .
35.3(33) . . .
38.1(32) . . .
33.0(30) . . .
34.3(31) . . .
38.4(34) . . .
30.6(30) . . .
42.4(35) . . .
34.8(32) . . .
37(4) . . .
36.2(34) . . .
31.0(29) . . .
34.0(30) . . .
28.0(28) . . .
33.9(32) . . .
29.7(29) . . .
31.9(30) . . .
25.0(27) . . .
31.5(31) . . .
31.5(31) . . .
28.1(29) . . .
36.2(32) . . .
39.6(32) . . .
42(4) . . .
31.1(29) . . .
38.2(34) . . .
33.8(30) . . .
38.4(33) . . .
40.8(34) . . .
35.9(33) . . .
41(4) . . .
29.6(29) . . .
32.4(30) . . .
34.7(31) . . .
43(4) . . .
37.2(33) . . .
34.7(31) . . .
27.3(27) . . .
39.8(33) . . .
40(4) . . .
32.9(31) . . .
40.0(33) . . .
32.6(32) . . .
35.4(33) . . .
28.7(29) . . .
32.5(30) . . .
32.0(30) . . .
40.9(35) . . .
30.4(29) . . .
28.8(27) . . .
42.1(34) . . .
37.4(32) . . .
38.9(34) . . .
36.3(32) . . .
35.0(33) . . .
29.8(28) . . .
24.8(26) . . .
37.4(33) . . .
37.1(35) . . .
34.2(31) . . .
35.5(31) . . .
40.2(33) . . .
42.3(34) . . .
39.6(33) . . .
34.1(30) . . .
32.9(31) . . .
38.3(32) . . .
44.3(35) . . .
46(4) . . .
46(4) . . .
40.3(35) . . .
41.1(34) . . .
37.2(32) . . .
37(4) . . .
34.0(30) . . .
40.6(33) . . .
40.6(33) . . .
38.2(34) . . .
39(4) . . .
38.4(34) . . .
38.9(33) . . .
35.7(31) . . .
35.8(31) . . .
40.3(34) . . .
38.4(34) . . .
39.6(32) . . .
40.7(34) . . .
42.7(35) . . .
46(4) . . .
43(4) . . .
35.3(32) . . .
34.1(31) . . .
33.6(32) . . .
33.0(32) . . .
37.5(33) . . .
36.4(32) . . .
32.3(30) . . .
32.4(31) . . .
34.8(33) . . .
34.0(32) . . .
43.7(34) . . .
27.9(28) . . .
36.6(32) . . .
39.1(33) . . .
39(4) . . .
34.5(31) . . .
44(4) . . .
36.2(32) . . .
34.1(30) . . .
43.0(35) . . .
37.9(32) . . .
35.0(32) . . .
38(4) . . .
48(4) . . .
33.3(30) . . .
27.7(28) . . .
31.0(30) . . .
39.0(35) . . .
33.3(32) . . .
30.2(29) . . .
52(4) . . .
46(4) . . .
41(4) . . .
33.1(31) . . .
28.9(29) . . .
34.2(31) . . .
32.7(32) . . .
29.2(28) . . .
42(4) . . .
38.3(32) . . .
26.8(28) . . .
39.6(35) . . .
38.0(35) . . .
44(4) . . .
36.6(32) . . .
40.8(34) . . .
38.2(33) . . .
33.6(32) . . .
40.5(35) . . .
29.7(28) . . .
28.8(28) . . .
37.6(32) . . .
35.6(33) . . .
35.6(33) . . .
44.7(35) . . .
33.8(31) . . .
38.1(34) . . .
33.1(33) . . .
33.7(31) . . .
32.8(29) . . .
34.1(31) . . .
40(4) . . .
40(4) . . .
35.9(33) . . .
42.9(34) . . .
29.6(28) . . .
29.6(28) . . .
39.0(35) . . .
35.3(31) . . .
35.9(32) . . .
40.0(34) . . .
37.5(34) . . .
34.3(34) . . .
37.4(34) . . .
32.7(30) . . .
27.0(27) . . .
27.5(29) . . .
30.3(32) . . .
30.4(28) . . .
36.5(32) . . .
29.7(29) . . .
33.9(33) . . .
28.8(27) . . .
38.0(32) . . .
32.3(29) . . .
34.0(31) . . .
37.2(35) . . .
31.6(32) . . .
38.4(32) . . .
28.4(28) . . .
30.3(30) . . .
43(4) . . .
37.6(33) . . .
36.0(31) . . .
32.2(30) . . .
29.5(30) . . .
31.7(30) . . .
38.2(33) . . .
35.7(32) . . .
30.4(30) . . .
38.8(34) . . .
42(4) . . .
32.9(31) . . .
41.0(34) . . .
37.2(33) . . .
34.3(31) . . .
46(4) . . .
35.0(33) . . .
32.6(29) . . .
41(4) . . .
44(4) . . .
32.2(30) . . .
35.7(31) . . .
34.7(31) . . .
37(4) . . .
28.8(29) . . .
28.0(28) . . .
31.2(33) . . .
25.2(26) . . .
36.4(33) . . .
33.9(33) . . .
36.0(32) . . .
37.6(33) . . .
31.0(29) . . .
31.0(31) . . .
29.4(29) . . .
35.1(32) . . .
36.8(32) . . .
36.8(32) . . .
32.8(30) . . .
27.1(28) . . .
42(4) . . .
39.8(34) . . .
32.6(31) . . .
29.6(29) . . .
42(4) . . .
33.5(29) . . .
39.2(32) . . .
35.4(31) . . .
48(4) . . .
38.5(34) . . .
36.3(33) . . .
40.1(33) . . .
40.5(34) . . .
37.1(33) . . .
39(4) . . .
35.5(35) . . .
31.0(29) . . .
33.2(31) . . .
32.8(32) . . .
34.0(33) . . .
36.7(35) . . .
32.6(30) . . .
40.3(33) . . .
44(4) . . .
40(4) . . .
42(4) . . .
39.1(32) . . .
26.3(28) . . .
24.1(27) . . .
40(4) . . .
39(4) . . .
31.0(30) . . .
40.8(35) . . .
34.4(32) . . .
34.4(31) . . .
32.0(29) . . .
37.9(32) . . .
32.4(32) . . .
38.0(34) . . .
36.0(32) . . .
38.0(32) . . .
42.5(34) . . .
38.0(34) . . .
34.3(33) . . .
36.8(33) . . .
31.3(30) . . .
36.4(32) . . .
36.7(32) . . .
36.4(32) . . .
45(4) . . .
36.3(31) . . .
36.4(32) . . .
26.9(27) . . .
43(4) . . .
34.5(31) . . .
36.8(32) . . .
31.2(30) . . .
35.0(33) . . .
36(4) . . .
32.8(31) . . .
28.2(28) . . .
40.2(35) . . .
32.3(30) . . .
48(4) . . .
39.4(35) . . .
34.9(31) . . .
26.5(27) . . .
41(4) . . .
47(4) . . .
39.4(35) . . .
38.5(32) . . .
41.1(35) . . .
33.0(31) . . .
34.6(32) . . .
30.7(30) . . .
38.0(32) . . .
34.1(31) . . .
40.6(35) . . .
37.2(31) . . .
39.4(34) . . .
37.8(32) . . .
37.3(33) . . .
39.5(34) . . .
46(4) . . .
45(4) . . .
35.8(32) . . .
35.8(34) . . .
30.0(29) . . .
28.6(30) . . .
30.2(30) . . .
33.2(30) . . .
37.2(32) . . .
38.1(33) . . .
37.1(34) . . .
33.3(31) . . .
37.0(32) . . .
39.5(34) . . .
42(4) . . .
37.6(33) . . .
40.8(34) . . .
36.7(31) . . .
31.7(31) . . .
34.5(32) . . .
38.1(33) . . .
27.8(28) . . .
33.5(31) . . .
37.7(33) . . .
44(4) . . .
33.3(30) . . .
35.4(31) . . .
36.6(31) . . .
38.4(34) . . .
30.9(30) . . .
28.9(28) . . .
38.1(32) . . .
40.0(34) . . .
34.8(32) . . .
27.5(29) . . .
35.3(33) . . .
29.6(29) . . .
37.9(32) . . .
39.7(35) . . .
27.7(28) . . .
36.0(31) . . .
27.8(28) . . .
26.2(28) . . .
24.2(28) . . .
33.9(35) . . .
33.5(32) . . .
35.7(31) . . .
33.3(30) . . .
33.2(32) . . .
38.8(35) . . .
33.0(30) . . .
33.4(31) . . .
34.1(31) . . .
41.6(34) . . .
31.2(29) . . .
33.0(30) . . .
37.1(32) . . .
51(4) . . .
32.2(31) . . .
34.2(32) . . .
23.0(24) . . .
30.8(29) . . .
30.7(31) . . .
44(4) . . .
41(4) . . .
42.0(34) . . .
35.8(31) . . .
36.3(32) . . .
29.9(31) . . .
37.9(34) . . .
36.4(31) . . .
36.9(32) . . .
38.6(34) . . .
27.1(27) . . .
32.7(30) . . .
37.5(33) . . .
26.7(27) . . .
33.8(31) . . .
24.6(27) . . .
32.2(32) . . .
35.2(31) . . .
30.4(29) . . .
32.3(31) . . .
27.9(29) . . .
32.0(30) . . .
33.8(30) . . .
32.4(30) . . .
33.8(32) . . .
34.0(31) . . .
37.7(33) . . .
32.7(30) . . .
39.7(34) . . .
33.8(30) . . .
38.5(33) . . .
33.2(31) . . .
34.7(31) . . .
40.6(34) . . .
36.5(33) . . .
38(4) . . .
28.1(28) . . .
34.2(30) . . .
39.0(33) . . .
43(4) . . .
33.2(30) . . .
33.1(31) . . .
35.2(31) . . .
38.3(35) . . .
43(4) . . .
27.6(28) . . .
25.8(26) . . .
32.6(29) . . .
33.2(30) . . .
33.1(33) . . .
32.3(30) . . .
34.6(31) . . .
28.0(28) . . .
35.9(33) . . .
42(4) . . .
35.4(30) . . .
35.5(31) . . .
35.6(32) . . .
36.3(32) . . .
35.6(34) . . .
27.5(28) . . .
34.3(31) . . .
38.1(33) . . .
34.3(31) . . .
37(4) . . .
35.0(33) . . .
30.9(29) . . .
39.9(33) . . .
37.4(33) . . .
31.0(29) . . .
28.7(28) . . .
39.1(33) . . .
40.7(33) . . .
38.8(34) . . .
33.5(32) . . .
35.9(34) . . .
28.5(29) . . .
29.7(30) . . .
33.0(31) . . .
34.0(32) . . .
33.2(32) . . .
34.0(30) . . .
36.3(33) . . .
36(4) . . .
40(4) . . .
40.6(34) . . .
39.0(33) . . .
39.2(33) . . .
36.2(32) . . .
38.0(33) . . .
37.0(33) . . .
27.1(27) . . .
30.4(29) . . .
37.0(33) . . .
37.8(33) . . .
28.2(28) . . .
32.0(29) . . .
40(4) . . .
33.5(32) . . .
41.7(35) . . .
40.3(33) . . .
42.1(34) . . .
37.8(33) . . .
34.5(34) . . .
30.5(29) . . .
34.7(32) . . .
37.8(32) . . .
37.3(32) . . .
32.7(32) . . .
34.4(32) . . .
32.9(31) . . .
32.9(29) . . .
31.4(30) . . .
34.1(33) . . .
32.3(32) . . .
32.0(30) . . .
34.5(30) . . .
28.4(30) . . .
25.5(28) . . .
34.7(31) . . .
34.4(32) . . .
36.2(31) . . .
34.5(33) . . .
31.5(30) . . .
39(4) . . .
35.0(31) . . .
30.3(30) . . .
31.1(31) . . .
33.1(31) . . .
41.0(35) . . .
28.4(29) . . .
35.8(32) . . .
35.5(34) . . .
42(4) . . .
34.6(31) . . .
38.3(32) . . .
35.2(32) . . .
36.0(32) . . .
34.7(31) . . .
36.9(34) . . .
30.0(29) . . .
28.5(30) . . .
23.8(25) . . .
36.3(33) . . .
34.8(32) . . .
42.3(34) . . .
33.9(30) . . .
39.9(35) . . .
33.6(31) . . .
37.7(33) . . .
26.7(27) . . .
29.9(29) . . .
34.2(32) . . .
31.7(29) . . .
33.1(30) . . .
34.6(31) . . .
39.8(34) . . .
33.2(31) . . .
32.2(31) . . .
40.6(33) . . .
41.1(33) . . .
38.3(35) . . .
31.1(32) . . .
38.2(34) . . .
34.0(30) . . .
35.7(31) . . .
31.6(30) . . .
37.2(34) . . .
29.4(28) . . .
33.7(31) . . .
30.8(29) . . .
37.9(33) . . .
28.8(30) . . .
25.6(28) . . .
26.9(27) . . .
33.0(31) . . .
40(4) . . .
33.8(33) . . .
35.3(33) . . .
32.2(30) . . .
41(4) . . .
32.1(30) . . .
37.9(33) . . .
34.6(32) . . .
30.3(29) . . .
31.5(29) . . .
35.2(31) . . .
27.8(29) . . .
35.3(34) . . .
35.9(31) . . .
37.5(32) . . .
38.0(32) . . .
41(4) . . .
37.0(33) . . .
32.6(30) . . .
36.6(32) . . .
44(4) . . .
38.3(33) . . .
39.9(33) . . .
24.1(26) . . .
39.8(35) . . .
38(4) . . .
29.5(29) . . .
39.6(33) . . .
45(4) . . .
38.8(31) . . .
35.2(34) . . .
27.4(27) . . .
33.5(30) . . .
24.1(26) . . .
33.5(31) . . .
38.0(34) . . .
30.0(28) . . .
32.9(30) . . .
28.0(28) . . .
36.4(33) . . .
28.3(30) . . .
34.3(32) . . .
30.9(30) . . .
35.8(31) . . .
35.0(32) . . .
33.3(31) . . .
35.3(32) . . .
38.4(34) . . .
36.1(33) . . .
34.2(32) . . .
38(4) . . .
34.9(32) . . .
42.6(33) . . .
36.8(34) . . .
45(4) . . .
34.3(32) . . .
31.9(32) . . .
31.1(29) . . .
28.4(28) . . .
33.9(31) . . .
33.8(32) . . .
31.8(30) . . .
43.8(34) . . .
39(4) . . .
42(4) . . .
29.9(28) . . .
31.5(29) . . .
36.8(32) . . .
28.8(29) . . .
33.7(34) . . .
31.8(31) . . .
31.3(29) . . .
32.8(30) . . .
29.9(31) . . .
36.2(34) . . .
28.2(28) . . .
31.0(29) . . .
39.4(33) . . .
30.8(30) . . .
31.8(31) . . .
37.5(34) . . .
28.3(28) . . .
36.4(31) . . .
35.0(32) . . .
30.4(30) . . .
31.4(29) . . .
30.4(28) . . .
30.8(29) . . .
34.9(31) . . .
28.8(29) . . .
39.8(35) . . .
35.3(30) . . .
34.8(32) . . .
29.2(30) . . .
34.9(33) . . .
37.7(33) . . .
41.8(34) . . .
37.5(32) . . .
39.5(35) . . .
32.8(31) . . .
37.2(34) . . .
30.8(29) . . .
30.4(28) . . .
34.2(34) . . .
27.4(31) . . .
30.2(29) . . .
32.0(30) . . .
39.4(33) . . .
42(4) . . .
36.9(32) . . .
28.4(28) . . .
32.5(29) . . .
43(4) . . .
26.6(27) . . .
29.3(28) . . .
32.0(31) . . .
33.5(30) . . .
29.4(29) . . .
29.7(29) . . .
36.0(34) . . .
35.2(32) . . .
36.2(32) . . .
40.1(34) . . .
34.9(32) . . .
34.6(33) . . .
27.9(29) . . .
29.5(28) . . .
36.8(31) . . .
35.8(32) . . .
36.1(32) . . .
33.3(30) . . .
33.8(30) . . .
29.9(31) . . .
35.9(34) . . .
39.4(33) . . .
26.0(27) . . .
35.6(31) . . .
36.6(32) . . .
29.4(30) . . .
27.6(28) . . .
30.3(29) . . .
23.6(25) . . .
34.7(34) . . .
31.5(30) . . .
34.4(32) . . .
41.2(34) . . .
46(4) . . .
34.5(31) . . .
32.0(30) . . .
40.8(35) . . .
37.2(32) . . .
38.1(33) . . .
32.9(32) . . .
36.1(33) . . .
40.2(34) . . .
32.5(31) . . .
32.1(30) . . .
34.9(30) . . .
42.0(34) . . .
34.6(31) . . .
33.9(31) . . .
28.4(30) . . .
30.6(31) . . .
35.6(32) . . .
38.7(34) . . .
33.2(30) . . .
34.3(32) . . .
30.3(30) . . .
31.2(30) . . .
32.9(30) . . .
37.9(32) . . .
31.0(29) . . .
35.5(32) . . .
31.7(30) . . .
33.7(30) . . .
32.0(30) . . .
31.9(31) . . .
32.3(30) . . .
40.0(34) . . .
39.4(33) . . .
42.3(35) . . .
33.3(31) . . .
32.9(32) . . .
37.6(34) . . .
32.2(30) . . .
36.0(32) . . .
33.5(32) . . .
27.6(29) . . .
40(4) . . .
36.4(32) . . .
29.7(28) . . .
37.2(32) . . .
41(4) . . .
37.2(32) . . .
37.6(32) . . .
35.5(32) . . .
32.8(30) . . .
26.0(26) . . .
35.3(32) . . .
31.3(29) . . .
38.8(32) . . .
30.2(30) . . .
34.9(33) . . .
30.9(30) . . .
37.4(32) . . .
37.3(32) . . .
39(4) . . .
31.4(31) . . .
36.4(33) . . .
34.5(31) . . .
31.0(30) . . .
37.3(33) . . .
28.9(28) . . .
41.2(33) . . .
31.6(30) . . .
39.6(33) . . .
29.8(29) . . .
42(4) . . .
41.5(35) . . .
38.8(33) . . .
34.7(31) . . .
27.4(28) . . .
31.6(32) . . .
26.7(27) . . .
36.5(32) . . .
37.1(32) . . .
34.7(32) . . .
32.0(31) . . .
35.8(33) . . .
44.4(34) . . .
33.9(30) . . .
28.8(27) . . .
35.8(31) . . .
38.9(32) . . .
45.5(35) . . .
37.3(32) . . .
34.6(34) . . .
32.5(30) . . .
39.0(33) . . .
29.8(29) . . .
31.0(30) . . .
33.4(31) . . .
32.9(32) . . .
27.8(28) . . .
34.2(31) . . .
40.1(33) . . .
39.0(34) . . .
37.8(34) . . .
37.7(32) . . .
35.6(31) . . .
35.2(32) . . .
38.0(34) . . .
34.7(31) . . .
31.9(30) . . .
31.5(29) . . .
32.7(31) . . .
33.4(30) . . .
33.4(30) . . .
35.9(31) . . .
43(4) . . .
36.4(33) . . .
28.9(29) . . .
26.6(28) . . .
26.9(28) . . .
32.3(30) . . .
39.3(34) . . .
35.5(30) . . .
33.9(30) . . .
33.9(30) . . .
31.1(31) . . .
32.9(33) . . .
36.0(32) . . .
31.5(31) . . .
38.0(32) . . .
34.4(32) . . .
33.0(32) . . .
27.1(28) . . .
39.4(32) . . .
32.7(30) . . .
30.6(29) . . .
35.4(33) . . .
35.5(31) . . .
39.3(32) . . .
38.5(33) . . .
32.2(30) . . .
36.9(34) . . .
36.0(31) . . .
27.3(28) . . .
42.0(34) . . .
40.0(34) . . .
33.2(33) . . .
27.6(28) . . .
32.2(31) . . .
34.6(30) . . .
26.0(28) . . .
30.6(30) . . .
38.6(33) . . .
34.3(30) . . .
32.3(29) . . .
36.5(33) . . .
38.1(34) . . .
36.7(32) . . .
42.7(34) . . .
34.9(31) . . .
32.9(30) . . .
30.6(31) . . .
33.5(32) . . .
38.2(32) . . .
25.9(27) . . .
28.6(29) . . .
35.3(34) . . .
35.6(33) . . .
34.3(30) . . .
43(4) . . .
41.5(34) . . .
30.8(29) . . .
30.4(29) . . .
22.5(25) . . .
30.3(29) . . .
35.4(31) . . .
46(4) . . .
42.8(34) . . .
36.6(31) . . .
25.1(27) . . .
30.8(30) . . .
42(4) . . .
30.5(28) . . .
33.0(30) . . .
36.0(33) . . .
37.5(35) . . .
37(4) . . .
44(4) . . .
32.8(30) . . .
44(4) . . .
37.8(35) . . .
30.2(29) . . .
38.0(32) . . .
36.1(33) . . .
33.9(34) . . .
39(4) . . .
29.8(29) . . .
38.0(33) . . .
40.3(33) . . .
30.0(29) . . .
36.2(33) . . .
42.5(35) . . .
30.3(29) . . .
31.6(29) . . .
42(4) . . .
35.4(33) . . .
31.0(30) . . .
37.0(33) . . .
31.3(29) . . .
29.3(27) . . .
39(4) . . .
33.3(31) . . .
39.6(33) . . .
29.0(29) . . .
28.9(28) . . .
36.5(32) . . .
35.7(31) . . .
34.6(31) . . .
28.9(28) . . .
34.9(33) . . .
33.2(33) . . .
32.2(32) . . .
26.3(27) . . .
33.9(31) . . .
32.1(32) . . .
38.0(34) . . .
39.4(34) . . .
31.1(29) . . .
27.1(27) . . .
35.7(34) . . .
32.5(30) . . .
34.5(31) . . .
50(4) . . .
31.2(30) . . .
34.8(32) . . .
34.0(31) . . .
40.3(34) . . .
32.5(30) . . .
29.2(30) . . .
26.9(27) . . .
24.0(26) . . .
41.2(34) . . .
37.1(31) . . .
42.4(35) . . .
29.5(31) . . .
33.4(34) . . .
33.2(30) . . .
31.4(30) . . .
25.0(27) . . .
29.7(30) . . .
28.9(29) . . .
33.1(30) . . .
30.9(29) . . .
27.0(29) . . .
31.1(32) . . .
31.3(31) . . .
37.6(32) . . .
34.4(30) . . .
32.2(31) . . .
25.3(27) . . .
32.3(31) . . .
35.0(32) . . .
41.9(34) . . .
34.3(31) . . .
35.3(32) . . .
39(4) . . .
41.2(34) . . .
31.4(29) . . .
29.1(30) . . .
32.4(32) . . .
25.2(27) . . .
35.9(31) . . .
37.9(32) . . .
36.8(34) . . .
32.8(31) . . .
37.9(33) . . .
25.4(27) . . .
32.7(30) . . .
44(4) . . .
27.9(28) . . .
32.8(31) . . .
37.5(32) . . .
37.0(32) . . .
36.1(33) . . .
35.3(32) . . .
36.0(32) . . .
36.9(31) . . .
27.7(28) . . .
33.6(33) . . .
28.5(28) . . .
26.9(28) . . .
32.2(30) . . .
35.3(34) . . .
41(4) . . .
35.4(33) . . .
35.0(31) . . .
22.7(25) . . .
32.5(31) . . .
32.8(32) . . .
27.4(27) . . .
33.2(30) . . .
37.2(31) . . .
36.3(33) . . .
35.0(32) . . .
33.8(31) . . .
33.0(30) . . .
26.6(27) . . .
35.8(32) . . .
31.3(30) . . .
31.1(28) . . .
27.9(28) . . .
37.1(32) . . .
28.2(29) . . .
31.4(30) . . .
38.3(33) . . .
42.0(34) . . .
33.8(30) . . .
35.3(32) . . .
30.5(29) . . .
39.7(33) . . .
34.4(31) . . .
41.2(34) . . .
28.6(28) . . .
31.0(30) . . .
35.8(32) . . .
33.2(30) . . .
40.7(35) . . .
40(4) . . .
34.5(31) . . .
33.1(32) . . .
28.0(28) . . .
31.8(31) . . .
39(4) . . .
47(4) . . .
35.7(31) . . .
25.9(27) . . .
33.0(30) . . .
35.5(32) . . .
36.6(35) . . .
34.4(30) . . .
30.6(29) . . .
30.2(31) . . .
41(4) . . .
36.1(32) . . .
39.2(33) . . .
32.4(30) . . .
26.8(27) . . .
36.2(35) . . .
31.9(30) . . .
40.2(34) . . .
34.0(32) . . .
39.9(35) . . .
37(4) . . .
32.0(32) . . .
29.7(28) . . .
28.2(28) . . .
30.4(29) . . .
44(4) . . .
28.9(28) . . .
40.2(33) . . .
39.7(34) . . .
37.7(32) . . .
32.9(30) . . .
32.0(30) . . .
34.3(31) . . .
37.5(32) . . .
37.2(33) . . .
32.5(32) . . .
29.9(29) . . .
36.0(31) . . .
36.0(32) . . .
34.6(30) . . .
31.3(30) . . .
32.0(30) . . .
31.1(29) . . .
30.1(29) . . .
33.5(33) . . .
38(4) . . .
43.2(35) . . .
30.4(30) . . .
34.0(31) . . .
35.7(34) . . .
34.0(31) . . .
30.4(29) . . .
35.2(31) . . .
27.3(29) . . .
32.9(34) . . .
32.4(33) . . .
32.7(30) . . .
30.2(28) . . .
40.1(35) . . .
32.5(33) . . .
26.6(29) . . .
20.4(24) . . .
31.3(29) . . .
38.1(34) . . .
32.6(31) . . .
34.0(32) . . .
42.1(34) . . .
30.1(29) . . .
36.8(32) . . .
35.7(34) . . .
33.2(32) . . .
35.6(32) . . .
43.1(34) . . .
38.3(33) . . .
31.6(29) . . .
40(4) . . .
30.3(29) . . .
38.1(33) . . .
36.3(32) . . .
33.1(32) . . .
40(4) . . .
32.6(30) . . .
33.1(30) . . .
28.5(28) . . .
32.7(31) . . .
42(4) . . .
37.4(33) . . .
27.1(27) . . .
35.6(34) . . .
36.1(33) . . .
31.1(29) . . .
34.6(31) . . .
25.3(27) . . .
32.3(33) . . .
35.9(35) . . .
33.9(32) . . .
35.3(31) . . .
32.3(31) . . .
31.5(32) . . .
29.4(29) . . .
40.8(33) . . .
33.0(30) . . .
40.7(35) . . .
33.2(33) . . .
42(4) . . .
35.7(32) . . .
32.1(29) . . .
29.4(28) . . .
30.5(30) . . .
30.1(29) . . .
29.0(29) . . .
37.3(31) . . .
39.0(35) . . .
39(4) . . .
35.0(33) . . .
26.8(26) . . .
28.2(27) . . .
27.5(27) . . .
32.9(32) . . .
36.0(32) . . .
29.8(29) . . .
30.1(28) . . .
38.4(35) . . .
43(4) . . .
32.7(30) . . .
30.9(28) . . .
32.0(32) . . .
36.0(32) . . .
37.8(33) . . .
36.5(32) . . .
31.1(29) . . .
43.2(35) . . .
38.4(34) . . .
35.8(33) . . .
25.0(26) . . .
30.6(29) . . .
27.9(27) . . .
35.2(31) . . .
39.2(34) . . .
32.2(30) . . .
38.1(32) . . .
31.6(31) . . .
34.0(32) . . .
30.2(30) . . .
27.0(27) . . .
36.8(32) . . .
34.1(31) . . .
34.3(31) . . .
28.4(27) . . .
28.4(28) . . .
31.8(30) . . .
31.1(30) . . .
37.0(32) . . .
43.8(34) . . .
35.0(31) . . .
35.2(31) . . .
41(4) . . .
44(4) . . .
39.5(33) . . .
40.3(33) . . .
40.9(34) . . .
38.1(32) . . .
41.5(35) . . .
32.4(30) . . .
24.3(26) . . .
31.4(30) . . .
32.0(32) . . .
31.7(34) . . .
29.0(29) . . .
29.6(29) . . .
38.1(34) . . .
27.0(28) . . .
30.0(30) . . .
26.6(29) . . .
33.8(30) . . .
36.4(32) . . .
33.8(30) . . .
33.7(30) . . .
28.7(28) . . .
37.8(33) . . .
38.5(35) . . .
33.9(32) . . .
42(4) . . .
36.1(33) . . .
35.1(31) . . .
37.5(34) . . .
32.3(31) . . .
31.3(31) . . .
35.0(32) . . .
34.1(31) . . .
34.0(32) . . .
36.6(33) . . .
39.1(35) . . .
33.6(33) . . .
45(4) . . .
40.4(35) . . .
38.9(34) . . .
39(4) . . .
32.9(31) . . .
30.5(29) . . .
29.5(29) . . .
27.9(29) . . .
26.9(29) . . .
35.3(32) . . .
40.5(33) . . .
24.9(27) . . .
28.1(29) . . .
37.5(32) . . .
34.4(31) . . .
36.4(31) . . .
40.0(33) . . .
35.7(33) . . .
33.9(30) . . .
40.0(33) . . .
30.9(29) . . .
30.2(29) . . .
28.0(29) . . .
41(4) . . .
32.8(30) . . .
27.6(29) . . .
33.3(32) . . .
25.8(29) . . .
28.5(28) . . .
33.7(31) . . .
31.7(30) . . .
31.1(31) . . .
32.1(30) . . .
28.9(29) . . .
26.4(27) . . .
32.7(31) . . .
32.6(32) . . .
37.4(34) . . .
35.0(34) . . .
33.8(30) . . .
32.2(29) . . .
35.6(33) . . .
36.6(33) . . .
35.7(33) . . .
30.8(29) . . .
31.3(29) . . .
40(4) . . .
33.2(30) . . .
35.2(30) . . .
33.4(30) . . .
27.2(28) . . .
38.3(34) . . .
28.9(28) . . .
26.9(27) . . .
36.4(32) . . .
37.3(34) . . .
31.3(32) . . .
39(4) . . .
37.8(32) . . .
32.5(30) . . .
30.0(29) . . .
32.8(32) . . .
34.6(34) . . .
40.9(34) . . .
33.9(30) . . .
37.8(33) . . .
38.8(35) . . .
34.9(31) . . .
31.5(29) . . .
35.7(32) . . .
26.7(28) . . .
28.6(32) . . .
33.2(33) . . .
31.1(30) . . .
28.7(28) . . .
30.1(30) . . .
30.5(29) . . .
33.2(31) . . .
32.8(30) . . .
25.8(27) . . .
33.6(34) . . .
32.8(31) . . .
32.5(30) . . .
37.7(32) . . .
31.7(30) . . .
32.2(30) . . .
32.0(31) . . .
30.4(29) . . .
30.3(29) . . .
32.7(29) . . .
39.3(33) . . .
31.6(31) . . .
36.9(34) . . .
29.5(29) . . .
36.9(34) . . .
35.2(32) . . .
33.2(32) . . .
24.0(25) . . .
26.6(27) . . .
30.9(29) . . .
44(4) . . .
35.7(32) . . .
40.0(33) . . .
36.6(31) . . .
27.6(27) . . .
36.6(33) . . .
34.7(29) . . .
43.9(35) . . .
28.9(28) . . .
29.5(28) . . .
38.8(34) . . .
29.3(29) . . .
37.6(33) . . .
34.6(31) . . .
32.4(30) . . .
29.3(30) . . .
39.7(35) . . .
35.6(31) . . .
35.6(31) . . .
39.0(35) . . .
34.9(35) . . .
31.6(30) . . .
44.4(35) . . .
28.8(29) . . .
38(4) . . .
30.7(32) . . .
30.1(30) . . .
27.7(27) . . .
35.3(31) . . .
28.9(27) . . .
39(4) . . .
33.0(31) . . .
25.2(26) . . .
34.3(30) . . .
29.5(27) . . .
32.7(34) . . .
31.9(30) . . .
30.4(28) . . .
31.2(29) . . .
33.4(31) . . .
40.1(34) . . .
37.9(35) . . .
41.7(33) . . .
29.5(30) . . .
33.6(33) . . .
36(4) . . .
29.7(30) . . .
36.7(32) . . .
32.0(33) . . .
26.2(29) . . .
35.6(35) . . .
33.3(31) . . .
29.8(28) . . .
32.5(31) . . .
35.3(33) . . .
33.9(31) . . .
29.8(29) . . .
31.5(29) . . .
32.7(30) . . .
34.2(33) . . .
27.0(28) . . .
32.6(30) . . .
29.0(28) . . .
36.1(34) . . .
29.2(31) . . .
30.8(30) . . .
34.3(31) . . .
27.7(27) . . .
30.2(31) . . .
28.2(30) . . .
48(4) . . .
35.6(31) . . .
27.0(29) . . .
33.4(30) . . .
47(4) . . .
35.2(33) . . .
33.8(31) . . .
34.4(30) . . .
31.0(29) . . .
38.1(34) . . .
33.3(33) . . .
31.0(30) . . .
33.9(31) . . .
29.5(30) . . .
39(4) . . .
37.1(32) . . .
43.2(34) . . .
35.1(31) . . .
32.1(32) . . .
28.2(29) . . .
33.7(30) . . .
34.1(30) . . .
33.7(31) . . .
28.5(28) . . .
30.0(32) . . .
24.5(26) . . .
32.1(30) . . .
27.7(28) . . .
30.8(31) . . .
28.6(28) . . .
30.2(29) . . .
30.9(29) . . .
30.2(30) . . .
31.4(29) . . .
37.5(34) . . .
30.9(31) . . .
29.1(29) . . .
35.2(32) . . .
28.0(28) . . .
35.9(35) . . .
29.6(28) . . .
30.8(29) . . .
28.3(29) . . .
33.6(31) . . .
32.8(30) . . .
27.7(28) . . .
38.2(32) . . .
32.9(33) . . .
24.8(27) . . .
28.7(29) . . .
32.3(30) . . .
27.9(27) . . .
35.8(35) . . .
37.4(34) . . .
34.3(30) . . .
36.9(31) . . .
33.3(31) . . .
38.8(33) . . .
34.5(32) . . .
29.4(30) . . .
32.3(30) . . .
35.2(32) . . .
32.0(30) . . .
32.8(32) . . .
36.1(32) . . .
37.0(32) . . .
35.2(32) . . .
29.9(30) . . .
38(4) . . .
33.6(33) . . .
26.9(27) . . .
34.6(33) . . .
37.5(32) . . .
34.4(32) . . .
36.6(32) . . .
36.5(32) . . .
31.0(31) . . .
29.8(29) . . .
31.3(29) . . .
34.7(31) . . .
33.4(30) . . .
33.4(31) . . .
30.8(31) . . .
30.0(30) . . .
38.4(33) . . .
39.7(33) . . .
36.3(32) . . .
27.1(27) . . .
30.3(29) . . .
32.6(30) . . .
24.4(26) . . .
36.6(33) . . .
37.5(35) . . .
38.2(33) . . .
31.4(30) . . .
34.1(30) . . .
35.5(31) . . .
27.7(29) . . .
33.0(33) . . .
32.2(32) . . .
35.6(31) . . .
28.0(28) . . .
29.7(33) . . .
17.6(22) . . .
35.5(31) . . .
37.1(32) . . .
33.8(31) . . .
32.2(32) . . .
39.0(34) . . .
36.1(31) . . .
34.1(31) . . .
36.3(32) . . .
34.9(32) . . .
30.7(31) . . .
42.6(35) . . .
32.3(29) . . .
26.8(27) . . .
35.0(32) . . .
30.8(31) . . .
32.8(30) . . .
36.4(31) . . .
30.3(31) . . .
33.3(34) . . .
32.3(30) . . .
28.7(28) . . .
36.5(32) . . .
30.0(28) . . .
34.6(31) . . .
32.7(30) . . .
32.5(30) . . .
34.2(32) . . .
39.1(34) . . .
32.7(31) . . .
29.0(28) . . .
38.5(33) . . .
28.9(29) . . .
31.7(32) . . .
34.9(32) . . .
25.3(27) . . .
37.7(33) . . .
31.7(30) . . .
38.0(34) . . .
38.2(32) . . .
35.5(32) . . .
32.5(30) . . .
25.6(27) . . .
35.0(34) . . .
32.2(32) . . .
26.6(27) . . .
26.3(27) . . .
36.8(32) . . .
32.5(29) . . .
32.7(31) . . .
37.5(32) . . .
39.0(34) . . .
36.9(32) . . .
31.0(32) . . .
29.8(28) . . .
33.7(30) . . .
30.4(29) . . .
30.9(30) . . .
27.2(29) . . .
29.1(29) . . .
34.8(31) . . .
23.7(25) . . .
29.1(29) . . .
30.2(30) . . .
36.0(33) . . .
33.2(30) . . .
26.6(28) . . .
31.3(31) . . .
31.8(30) . . .
46(4) . . .
31.5(29) . . .
36.3(33) . . .
28.8(28) . . .
32.2(31) . . .
42.5(34) . . .
36.2(32) . . .
39(4) . . .
35.2(33) . . .
34.8(31) . . .
32.0(30) . . .
33.4(30) . . .
35.9(33) . . .
34.0(32) . . .
32.7(30) . . .
37.5(33) . . .
36.9(32) . . .
30.0(29) . . .
26.6(28) . . .
30.8(29) . . .
28.1(28) . . .
27.6(28) . . .
26.7(28) . . .
32.1(34) . . .
28.0(30) . . .
26.3(27) . . .
41.4(33) . . .
36.8(33) . . .
33.0(33) . . .
29.5(30) . . .
34.5(31) . . .
36.1(31) . . .
40.2(34) . . .
33.5(33) . . .
26.1(28) . . .
32.0(30) . . .
33.7(31) . . .
31.3(30) . . .
35.6(34) . . .
32.4(30) . . .
30.3(29) . . .
29.2(28) . . .
42(4) . . .
32.9(31) . . .
33.5(31) . . .
23.7(26) . . .
36.5(32) . . .
30.7(28) . . .
38.1(33) . . .
26.9(29) . . .
48(4) . . .
29.6(29) . . .
32.9(33) . . .
28.0(29) . . .
32.5(31) . . .
31.4(29) . . .
26.9(29) . . .
32.9(34) . . .
29.7(30) . . .
27.2(28) . . .
35.1(31) . . .
31.5(30) . . .
31.5(31) . . .
29.3(29) . . .
33.3(32) . . .
29.3(28) . . .
37.8(33) . . .
40(4) . . .
40.6(34) . . .
29.9(29) . . .
37.0(33) . . .
28.6(29) . . .
33.2(33) . . .
32.6(30) . . .
32.4(30) . . .
26.0(26) . . .
37(4) . . .
32.7(30) . . .
32.7(30) . . .
36.2(33) . . .
32.6(29) . . .
25.7(28) . . .
36(4) . . .
32.3(31) . . .
34.5(30) . . .
43.1(34) . . .
31.5(29) . . .
34.3(33) . . .
33.7(33) . . .
27.5(28) . . .
25.3(26) . . .
24.1(26) . . .
31.4(32) . . .
30.5(29) . . .
39.7(33) . . .
30.5(29) . . .
32.4(32) . . .
31.6(33) . . .
27.0(30) . . .
28.5(28) . . .
30.0(30) . . .
28.2(28) . . .
25.1(27) . . .
34.2(31) . . .
32.3(29) . . .
33.9(30) . . .
35.1(32) . . .
28.7(29) . . .
34.1(31) . . .
30.5(29) . . .
43(4) . . .
38.6(34) . . .
33.8(31) . . .
31.1(29) . . .
33.3(30) . . .
32.8(31) . . .
31.2(29) . . .
35.2(32) . . .
41(4) . . .
30.9(29) . . .
31.3(29) . . .
32.5(32) . . .
30.2(30) . . .
36.3(32) . . .
33.0(30) . . .
35.4(33) . . .
29.7(29) . . .
28.3(29) . . .
32.5(29) . . .
32.8(30) . . .
32.3(30) . . .
28.3(30) . . .
35.1(32) . . .
27.4(28) . . .
35.2(32) . . .
29.7(28) . . .
27.3(28) . . .
32.7(31) . . .
30.9(29) . . .
35.6(31) . . .
30.9(30) . . .
30.0(31) . . .
23.3(26) . . .
29.3(29) . . .
28.2(29) . . .
31.1(30) . . .
26.5(26) . . .
32.9(33) . . .
34.0(31) . . .
35.0(31) . . .
39.5(34) . . .
35.7(32) . . .
37.3(34) . . .
31.2(29) . . .
36.5(32) . . .
35.4(32) . . .
38.7(35) . . .
31.0(29) . . .
36.7(31) . . .
34.5(32) . . .
36.3(33) . . .
33.4(31) . . .
21.7(26) . . .
25.6(26) . . .
29.6(29) . . .
39.3(33) . . .
30.0(27) . . .
27.5(27) . . .
39.4(32) . . .
33.3(30) . . .
31.1(32) . . .
36(4) . . .
31.1(29) . . .
37.4(32) . . .
34.8(32) . . .
25.3(26) . . .
32.1(30) . . .
32.3(31) . . .
40.9(33) . . .
29.3(29) . . .
25.6(30) . . .
33.4(31) . . .
42.8(34) . . .
38.2(32) . . .
33.8(31) . . .
31.9(32) . . .
34.8(32) . . .
31.3(28) . . .
33.1(30) . . .
24.3(26) . . .
31.3(32) . . .
37.7(33) . . .
29.5(28) . . .
36.1(32) . . .
30.5(29) . . .
31.2(32) . . .
33.2(31) . . .
29.5(28) . . .
24.2(25) . . .
33.2(32) . . .
31.5(31) . . .
23.3(26) . . .
36.6(32) . . .
36.5(32) . . .
31.5(30) . . .
25.4(29) . . .
31.1(30) . . .
30.2(29) . . .
34.6(33) . . .
41(4) . . .
34.0(31) . . .
34.8(31) . . .
34.7(31) . . .
31.2(30) . . .
28.1(30) . . .
27.8(30) . . .
30.5(29) . . .
32.1(29) . . .
31.8(31) . . .
23.9(26) . . .
30.6(29) . . .
33.0(30) . . .
30.2(29) . . .
32.5(31) . . .
27.8(28) . . .
34.5(33) . . .
29.3(29) . . .
29.8(29) . . .
31.3(30) . . .
31.4(31) . . .
28.5(29) . . .
26.0(28) . . .
28.0(28) . . .
30.5(29) . . .
40(4) . . .
28.5(30) . . .
28.5(28) . . .
38.4(32) . . .
31.6(30) . . .
25.7(29) . . .
39.7(35) . . .
26.8(28) . . .
41.2(33) . . .
29.5(28) . . .
33.5(32) . . .
42(4) . . .
29.2(29) . . .
29.8(29) . . .
35.9(31) . . .
33.3(31) . . .
32.0(29) . . .
35.7(31) . . .
31.2(29) . . .
37.6(34) . . .
25.6(27) . . .
40(4) . . .
36.9(32) . . .
22.3(25) . . .
30.1(31) . . .
30.2(29) . . .
28.4(28) . . .
37.1(32) . . .
36.3(34) . . .
32.5(32) . . .
36.2(34) . . .
35.5(31) . . .
30.0(29) . . .
34.9(32) . . .
25.9(28) . . .
23.0(25) . . .
34.4(31) . . .
44.1(35) . . .
34.5(31) . . .
34.5(32) . . .
33.3(31) . . .
28.6(28) . . .
27.7(27) . . .
29.8(30) . . .
33.4(34) . . .
37.3(35) . . .
30.7(29) . . .
29.3(28) . . .
37.4(33) . . .
32.8(31) . . .
34.3(32) . . .
31.8(30) . . .
27.4(28) . . .
34.7(32) . . .
37.6(33) . . .
34.3(31) . . .
36.3(32) . . .
36.0(31) . . .
32.0(29) . . .
36.8(35) . . .
29.1(29) . . .
30.1(29) . . .
29.7(30) . . .
39.8(33) . . .
37.6(32) . . .
36.8(33) . . .
23.3(25) . . .
26.5(28) . . .
30.9(31) . . .
28.3(30) . . .
27.0(29) . . .
26.9(26) . . .
28.4(29) . . .
32.1(31) . . .
25.2(25) . . .
29.2(30) . . .
35.2(31) . . .
35.9(33) . . .
41(4) . . .
36.5(33) . . .
35.0(31) . . .
32.6(30) . . .
45(4) . . .
34.5(32) . . .
32.1(31) . . .
34.5(32) . . .
38.2(32) . . .
30.4(30) . . .
31.3(32) . . .
36.2(33) . . .
31.4(29) . . .
30.4(29) . . .
28.5(28) . . .
30.9(31) . . .
35.0(32) . . .
39.8(33) . . .
35.4(32) . . .
31.9(32) . . .
33.3(33) . . .
26.8(28) . . .
29.4(28) . . .
29.1(28) . . .
31.4(30) . . .
29.2(32) . . .
30.4(30) . . .
28.5(28) . . .
36.8(33) . . .
31.8(30) . . .
32.9(32) . . .
35.3(34) . . .
34.5(31) . . .
33.6(30) . . .
34.6(30) . . .
29.9(29) . . .
25.5(29) . . .
35.6(31) . . .
28.6(28) . . .
35.0(32) . . .
33.1(32) . . .
35.8(32) . . .
30.9(30) . . .
30.6(29) . . .
35.1(33) . . .
37.3(34) . . .
35.5(32) . . .
25.7(26) . . .
28.8(28) . . .
33.1(31) . . .
32(4) . . .
32.9(31) . . .
32.2(30) . . .
38(4) . . .
42(4) . . .
38(4) . . .
35.8(31) . . .
34.4(30) . . .
26.6(28) . . .
34.7(33) . . .
35.6(32) . . .
37.8(33) . . .
32.3(30) . . .
36.9(34) . . .
29.0(30) . . .
28.2(29) . . .
33.8(31) . . .
24.5(27) . . .
41(4) . . .
31.6(29) . . .
31.9(30) . . .
25.8(26) . . .
32.7(30) . . .
36.1(33) . . .
30.8(30) . . .
28.8(27) . . .
30.1(30) . . .
35.2(32) . . .
36.0(33) . . .
37(4) . . .
27.8(29) . . .
37.3(32) . . .
30.9(28) . . .
37.9(34) . . .
36.5(35) . . .
29.7(30) . . .
37.7(32) . . .
31.3(29) . . .
27.9(28) . . .
31.5(30) . . .
29.5(30) . . .
31.9(30) . . .
23.9(26) . . .
24.9(25) . . .
33.0(31) . . .
33.3(30) . . .
30.8(29) . . .
27.6(29) . . .
32.1(32) . . .
30.8(29) . . .
26.5(27) . . .
34.3(31) . . .
29.9(29) . . .
25.1(25) . . .
31.0(31) . . .
31.6(31) . . .
30.5(29) . . .
35.0(32) . . .
34.5(34) . . .
35.0(33) . . .
36.2(32) . . .
31.6(29) . . .
30.6(30) . . .
36.2(33) . . .
28.9(28) . . .
28.3(28) . . .
27.5(28) . . .
28.3(29) . . .
34.9(34) . . .
39.3(35) . . .
26.8(29) . . .
35.0(30) . . .
45(4) . . .
31.6(31) . . .
37.3(34) . . .
28.9(29) . . .
34.3(31) . . .
32.6(30) . . .
36.8(33) . . .
36.5(32) . . .
31.4(29) . . .
28.7(28) . . .
33.6(31) . . .
31.3(33) . . .
33.4(34) . . .
28.9(28) . . .
28.3(28) . . .
29.4(30) . . .
29.7(29) . . .
31.7(31) . . .
29.3(28) . . .
36.0(31) . . .
37.4(33) . . .
31.0(30) . . .
31.9(32) . . .
31.7(29) . . .
32.4(29) . . .
35.9(33) . . .
20.7(24) . . .
35.2(33) . . .
21.9(24) . . .
27.3(28) . . .
33.8(33) . . .
30.1(30) . . .
36.3(32) . . .
40.1(33) . . .
39.4(35) . . .
31.2(30) . . .
41(4) . . .
27.0(28) . . .
39.3(32) . . .
34.5(31) . . .
37.4(33) . . .
33.9(32) . . .
26.8(28) . . .
26.6(27) . . .
30.9(29) . . .
33.5(30) . . .
27.0(28) . . .
29.2(29) . . .
24.8(25) . . .
40(4) . . .
33.9(32) . . .
38.9(33) . . .
33.9(31) . . .
34.1(31) . . .
27.5(28) . . .
37.0(34) . . .
43(4) . . .
30.1(29) . . .
28.8(29) . . .
26.2(27) . . .
29.4(29) . . .
36.8(32) . . .
30.9(29) . . .
25.7(26) . . .
37.6(34) . . .
35.7(34) . . .
32.1(31) . . .
31.0(29) . . .
31.3(30) . . .
25.4(28) . . .
27.9(30) . . .
32.6(34) . . .
27.4(27) . . .
36.4(31) . . .
33.1(32) . . .
26.6(28) . . .
31.8(32) . . .
36.5(31) . . .
31.0(30) . . .
26.5(28) . . .
32.2(31) . . .
37.0(32) . . .
33.0(30) . . .
41.1(34) . . .
33.3(32) . . .
23.1(24) . . .
30.7(30) . . .
27.4(28) . . .
31.5(31) . . .
30.9(31) . . .
31.3(29) . . .
32.8(31) . . .
29.7(28) . . .
41(4) . . .
30.5(30) . . .
32.0(30) . . .
35.9(32) . . .
31.9(30) . . .
28.8(28) . . .
34.1(33) . . .
33.9(31) . . .
31.7(30) . . .
33.4(30) . . .
40.6(34) . . .
38.0(35) . . .
30.2(29) . . .
29.6(28) . . .
38.1(32) . . .
31.5(31) . . .
28.9(30) . . .
29.2(29) . . .
27.1(27) . . .
28.2(28) . . .
28.6(31) . . .
28.9(32) . . .
41(4) . . .
30.2(29) . . .
40.5(33) . . .
36.3(32) . . .
31.5(31) . . .
31.3(31) . . .
34.2(31) . . .
33.4(31) . . .
30.4(29) . . .
28.5(29) . . .
33.2(32) . . .
32.3(30) . . .
29.3(29) . . .
27.4(27) . . .
35.1(32) . . .
32.7(30) . . .
30.1(29) . . .
24.5(26) . . .
35.3(32) . . .
30.3(29) . . .
43.9(35) . . .
25.8(26) . . .
25.0(28) . . .
37.3(34) . . .
34.8(31) . . .
29.9(28) . . .
34.2(30) . . .
28.0(28) . . .
34.4(32) . . .
29.4(28) . . .
31.8(30) . . .
32.8(30) . . .
26.9(29) . . .
30.3(30) . . .
33.4(34) . . .
33.1(30) . . .
30.6(29) . . .
31.1(29) . . .
32.4(31) . . .
32.5(30) . . .
32.3(29) . . .
34.5(32) . . .
37.6(33) . . .
31.1(30) . . .
35.0(31) . . .
29.0(28) . . .
30.5(30) . . .
28.6(30) . . .
29.5(32) . . .
35.1(33) . . .
30.7(28) . . .
34.9(32) . . .
32.0(29) . . .
29.9(29) . . .
35.2(32) . . .
38.6(32) . . .
34.3(30) . . .
30.7(30) . . .
40(4) . . .
28.9(28) . . .
35.1(31) . . .
32.2(30) . . .
31.5(33) . . .
36(4) . . .
34.4(31) . . .
30.1(30) . . .
30.4(29) . . .
42(4) . . .
31.7(31) . . .
30.3(29) . . .
32.7(30) . . .
28.5(28) . . .
29.7(31) . . .
37.0(32) . . .
33.0(30) . . .
25.1(26) . . .
33.9(31) . . .
34.7(31) . . .
32.9(30) . . .
33.2(30) . . .
30.9(29) . . .
27.6(28) . . .
31.4(30) . . .
31.4(29) . . .
37.5(33) . . .
33.0(30) . . .
30.6(29) . . .
36.4(35) . . .
38.8(33) . . .
30.6(30) . . .
32.3(30) . . .
32.9(31) . . .
32.5(32) . . .
39.2(33) . . .
29.2(28) . . .
33.7(30) . . .
33.6(32) . . .
35.6(32) . . .
34.3(32) . . .
33.1(31) . . .
33.2(31) . . .
32.8(32) . . .
30.2(31) . . .
34.2(33) . . .
38.2(32) . . .
47(4) . . .
33.9(30) . . .
35.0(32) . . .
32.0(30) . . .
28.4(28) . . .
25.5(28) . . .
27.3(26) . . .
33.1(34) . . .
31.5(30) . . .
29.7(28) . . .
33.4(32) . . .
29.5(30) . . .
32.9(32) . . .
28.5(28) . . .
28.5(29) . . .
39.8(34) . . .
27.1(29) . . .
36.3(33) . . .
25.7(26) . . .
32.7(30) . . .
25.9(27) . . .
34.6(31) . . .
31.6(30) . . .
30.1(31) . . .
28.4(27) . . .
22.6(27) . . .
24.4(29) . . .
35.7(33) . . .
27.0(27) . . .
28.1(28) . . .
28.2(29) . . .
26.2(28) . . .
35.8(33) . . .
32.7(30) . . .
27.4(27) . . .
32.1(30) . . .
35.2(34) . . .
31.2(30) . . .
29.6(28) . . .
31.5(30) . . .
32.0(30) . . .
32.3(29) . . .
37.8(34) . . .
31.0(29) . . .
37.0(34) . . .
34.5(33) . . .
29.5(31) . . .
32.7(32) . . .
27.3(28) . . .
31.2(29) . . .
26.2(27) . . .
35.3(34) . . .
29.8(30) . . .
37.0(32) . . .
28.9(29) . . .
35.2(33) . . .
29.3(29) . . .
29.8(31) . . .
30.4(28) . . .
34.0(32) . . .
34.8(33) . . .
31.7(31) . . .
23.8(26) . . .
27.8(27) . . .
29.3(30) . . .
30.5(29) . . .
31.8(29) . . .
33.4(31) . . .
37.7(32) . . .
34.8(31) . . .
31.7(30) . . .
32.8(31) . . .
30.5(30) . . .
29.8(29) . . .
26.9(27) . . .
33.3(32) . . .
35.6(32) . . .
30.9(29) . . .
30.2(28) . . .
28.6(29) . . .
31.2(31) . . .
37.2(33) . . .
24.8(26) . . .
26.4(27) . . .
24.8(27) . . .
26.7(29) . . .
30.2(30) . . .
34.3(30) . . .
31.5(29) . . .
27.9(27) . . .
40(4) . . .
29.8(31) . . .
24.8(26) . . .
33.0(30) . . .
36.7(32) . . .
43(4) . . .
25.2(27) . . .
25.2(26) . . .
27.4(28) . . .
32.7(31) . . .
28.8(30) . . .
33.9(31) . . .
36.7(32) . . .
30.7(28) . . .
31.9(31) . . .
31.4(32) . . .
32.2(31) . . .
28.4(28) . . .
31.7(31) . . .
34.2(34) . . .
28.4(28) . . .
39.3(32) . . .
31.5(30) . . .
30.9(31) . . .
30.9(29) . . .
35.1(32) . . .
35.5(31) . . .
36.9(32) . . .
33.8(31) . . .
38.1(34) . . .
30.6(28) . . .
29.9(28) . . .
22.7(24) . . .
30.4(30) . . .
27.9(29) . . .
29.8(31) . . .
31.0(29) . . .
38.2(32) . . .
33.1(30) . . .
40(4) . . .
35.2(32) . . .
28.3(28) . . .
32.8(29) . . .
25.7(27) . . .
26.1(29) . . .
25.7(28) . . .
31.9(29) . . .
35.6(31) . . .
32.1(29) . . .
33.6(31) . . .
36.8(33) . . .
29.8(28) . . .
28.9(28) . . .
37.0(33) . . .
32.0(31) . . .
32.3(32) . . .
34.9(31) . . .
39.9(33) . . .
36.4(31) . . .
37.1(31) . . .
37.8(35) . . .
29.7(29) . . .
37.2(32) . . .
34.0(33) . . .
22.0(24) . . .
35.5(32) . . .
39.7(33) . . .
27.8(28) . . .
31.6(31) . . .
34.6(30) . . .
32.9(30) . . .
31.1(30) . . .
33.3(31) . . .
29.3(30) . . .
25.9(28) . . .
27.3(27) . . .
45.4(35) . . .
23.9(27) . . .
33.8(33) . . .
34.7(33) . . .
28.9(28) . . .
28.8(28) . . .
25.1(26) . . .
45(4) . . .
36.5(34) . . .
27.5(27) . . .
31.7(30) . . .
30.7(30) . . .
34.6(31) . . .
34.6(31) . . .
40.8(34) . . .
37.9(32) . . .
30.5(30) . . .
35.3(35) . . .
30.7(29) . . .
31.3(29) . . .
34.4(32) . . .
32.2(30) . . .
24.1(28) . . .
26.5(27) . . .
33.1(29) . . .
34.0(32) . . .
25.8(27) . . .
33.9(31) . . .
33.9(32) . . .
32.7(30) . . .
36.5(31) . . .
36.1(31) . . .
28.8(28) . . .
30.8(32) . . .
36.4(32) . . .
28.8(29) . . .
30.0(30) . . .
33.2(31) . . .
26.0(27) . . .
33.3(30) . . .
32.7(30) . . .
31.8(30) . . .
31.6(30) . . .
32.5(31) . . .
27.6(27) . . .
29.5(31) . . .
26.8(28) . . .
27.0(27) . . .
28.3(29) . . .
30.0(28) . . .
34.5(32) . . .
40.1(35) . . .
38.7(34) . . .
30.9(30) . . .
27.0(27) . . .
33.6(31) . . .
24.4(27) . . .
26.2(27) . . .
35.1(31) . . .
40.8(33) . . .
39.7(33) . . .
37.7(34) . . .
42(4) . . .
34.3(30) . . .
38.4(32) . . .
36.8(34) . . .
37.3(34) . . .
30.6(29) . . .
25.3(26) . . .
24.0(26) . . .
35.9(32) . . .
34.3(31) . . .
37.4(34) . . .
32.6(30) . . .
29.4(28) . . .
27.7(27) . . .
32.1(33) . . .
39(4) . . .
35.0(31) . . .
26.5(28) . . .
25.6(25) . . .
31.0(30) . . .
30.6(29) . . .
32.5(30) . . .
33.3(31) . . .
24.6(28) . . .
33.2(34) . . .
26.2(27) . . .
30.0(29) . . .
28.7(29) . . .
27.4(30) . . .
40(4) . . .
30.3(29) . . .
24.0(26) . . .
31.6(30) . . .
28.3(28) . . .
27.1(26) . . .
38.6(32) . . .
30.2(29) . . .
30.8(30) . . .
32.8(33) . . .
35.3(33) . . .
27.7(28) . . .
29.2(28) . . .
37.5(33) . . .
37.7(34) . . .
29.9(31) . . .
34.4(31) . . .
36.4(31) . . .
35.3(31) . . .
36.3(32) . . .
33.1(29) . . .
41.2(33) . . .
47(4) . . .
41.4(33) . . .
29.6(30) . . .
26.4(28) . . .
35.8(31) . . .
35.7(31) . . .
30.0(28) . . .
33.3(33) . . .
27.3(28) . . .
27.8(27) . . .
25.1(30) . . .
21.8(25) . . .
31.2(32) . . .
34.6(32) . . .
29.4(28) . . .
25.0(26) . . .
29.2(28) . . .
32.7(31) . . .
25.1(26) . . .
30.9(29) . . .
29.4(29) . . .
32.6(31) . . .
27.7(28) . . .
30.7(30) . . .
32.9(29) . . .
29.0(29) . . .
30.3(32) . . .
36.7(34) . . .
31.1(31) . . .
30.9(29) . . .
29.3(29) . . .
29.3(29) . . .
34.9(33) . . .
36.2(32) . . .
30.1(29) . . .
28.1(28) . . .
27.0(28) . . .
29.7(29) . . .
38.2(33) . . .
30.5(29) . . .
23.8(25) . . .
30.4(31) . . .
34.7(33) . . .
40(4) . . .
40.7(33) . . .
28.3(27) . . .
32.6(32) . . .
30.1(28) . . .
26.1(26) . . .
27.1(27) . . .
35.9(32) . . .
27.3(28) . . .
27.1(30) . . .
32.1(31) . . .
40.0(33) . . .
37.3(33) . . .
41(4) . . .
27.9(28) . . .
31.2(29) . . .
35.1(32) . . .
31.4(31) . . .
33.4(33) . . .
29.4(29) . . .
39.0(32) . . .
28.6(29) . . .
33.1(33) . . .
27.1(28) . . .
32.2(29) . . .
31.2(29) . . .
31.1(29) . . .
30.9(31) . . .
28.7(30) . . .
28.4(31) . . .
30.9(29) . . .
27.6(28) . . .
26.7(29) . . .
33.4(33) . . .
35.0(32) . . .
29.8(29) . . .
27.3(27) . . .
31.9(31) . . .
38.5(34) . . .
34.2(31) . . .
30.5(29) . . .
27.6(28) . . .
26.2(28) . . .
40(4) . . .
32.8(30) . . .
30.2(30) . . .
28.1(30) . . .
32.2(31) . . .
35.1(33) . . .
31.6(30) . . .
24.9(26) . . .
23.5(26) . . .
28.8(29) . . .
37.5(33) . . .
24.8(26) . . .
37.2(32) . . .
30.8(30) . . .
23.6(26) . . .
30.4(29) . . .
29.8(29) . . .
31.3(29) . . .
37.3(32) . . .
37(4) . . .
23.2(25) . . .
40.5(33) . . .
27.1(27) . . .
28.8(29) . . .
25.6(31) . . .
24.4(28) . . .
27.4(27) . . .
28.8(28) . . .
29.6(29) . . .
31.1(31) . . .
26.2(28) . . .
31.1(29) . . .
25.6(26) . . .
33.4(33) . . .
33.2(31) . . .
34.0(31) . . .
32.9(31) . . .
38.3(32) . . .
34.0(32) . . .
29.6(30) . . .
25.9(28) . . .
26.8(27) . . .
33.1(31) . . .
30.2(29) . . .
33.5(32) . . .
27.3(28) . . .
30.0(29) . . .
37.1(32) . . .
31.1(29) . . .
27.5(28) . . .
26.9(27) . . .
34.6(31) . . .
44(4) . . .
29.6(30) . . .
29.4(30) . . .
34.3(32) . . .
26.6(26) . . .
35.4(32) . . .
42(4) . . .
24.8(26) . . .
31.4(30) . . .
31.7(29) . . .
29.7(32) . . .
29.8(30) . . .
40(4) . . .
27.7(28) . . .
32.2(29) . . .
35.9(32) . . .
27.7(28) . . .
29.1(30) . . .
25.9(27) . . .
28.0(28) . . .
29.4(29) . . .
34.2(34) . . .
35.9(32) . . .
33.1(31) . . .
29.3(28) . . .
33.2(30) . . .
34.8(31) . . .
32.5(30) . . .
36.3(32) . . .
28.4(28) . . .
27.5(28) . . .
28.7(30) . . .
32.0(32) . . .
30.4(29) . . .
27.6(27) . . .
33.9(31) . . .
34.9(31) . . .
43.2(35) . . .
29.0(28) . . .
35.1(32) . . .
31.9(34) . . .
25.0(26) . . .
35.1(32) . . .
29.5(29) . . .
36.5(35) . . .
30.2(30) . . .
33.6(31) . . .
32.9(30) . . .
35.8(31) . . .
29.6(29) . . .
29.7(29) . . .
28.3(29) . . .
27.2(28) . . .
25.1(27) . . .
31.8(31) . . .
27.8(28) . . .
34.5(32) . . .
30.2(28) . . .
37.3(32) . . .
28.5(30) . . .
31.0(33) . . .
21.2(24) . . .
35.5(32) . . .
36.3(32) . . .
30.0(29) . . .
34.1(32) . . .
29.4(28) . . .
28.3(27) . . .
30.6(29) . . .
40.3(34) . . .
44(4) . . .
29.2(29) . . .
28.3(28) . . .
35.2(31) . . .
23.3(25) . . .
27.1(28) . . .
40.7(35) . . .
30.0(28) . . .
33.6(30) . . .
31.5(30) . . .
33.7(32) . . .
39.5(34) . . .
33.9(30) . . .
32.7(31) . . .
33.2(32) . . .
29.4(31) . . .
28.2(30) . . .
26.9(28) . . .
24.9(25) . . .
36.5(34) . . .
35.1(31) . . .
28.0(30) . . .
31.3(29) . . .
32.2(31) . . .
27.6(27) . . .
24.0(26) . . .
28.7(29) . . .
34.3(30) . . .
27.3(28) . . .
27.8(30) . . .
34.5(33) . . .
31.7(29) . . .
27.5(28) . . .
22.8(25) . . .
29.3(29) . . .
34.4(32) . . .
32.7(30) . . .
36.6(32) . . .
34.8(32) . . .
36.8(34) . . .
26.2(28) . . .
32.7(30) . . .
31.7(29) . . .
26.0(27) . . .
31.0(31) . . .
27.3(29) . . .
30.9(29) . . .
36.3(31) . . .
34.8(33) . . .
40(4) . . .
35.1(32) . . .
29.0(28) . . .
28.8(28) . . .
22.9(25) . . .
31.1(30) . . .
32.2(29) . . .
32.2(29) . . .
25.7(28) . . .
31.5(30) . . .
31.9(32) . . .
28.2(29) . . .
28.3(28) . . .
28.1(28) . . .
40.8(35) . . .
33.0(31) . . .
32.5(30) . . .
30.0(29) . . .
30.9(30) . . .
33.9(32) . . .
29.4(29) . . .
34.0(31) . . .
23.2(26) . . .
32.8(31) . . .
29.3(29) . . .
33.0(32) . . .
31.9(32) . . .
25.9(27) . . .
32.9(30) . . .
30.9(31) . . .
30.8(32) . . .
30.3(29) . . .
38.4(33) . . .
27.0(28) . . .
27.5(33) . . .
29.4(29) . . .
32.0(29) . . .
28.7(28) . . .
39.8(34) . . .
32.2(32) . . .
32.9(31) . . .
38.0(32) . . .
40.3(34) . . .
24.8(27) . . .
30.1(30) . . .
28.9(28) . . .
27.3(27) . . .
31.0(29) . . .
26.6(29) . . .
30.3(32) . . .
31.0(32) . . .
32.0(30) . . .
25.7(27) . . .
32.4(30) . . .
29.8(29) . . .
32.2(30) . . .
26.4(27) . . .
31.7(30) . . .
31.9(30) . . .
44(4) . . .
32.4(30) . . .
32.0(29) . . .
24.5(27) . . .
36.3(34) . . .
28.6(30) . . .
27.9(28) . . .
33.2(30) . . .
32.6(31) . . .
27.0(28) . . .
35.8(33) . . .
37.3(33) . . .
30.1(29) . . .
29.6(28) . . .
33.3(32) . . .
27.3(28) . . .
33.5(33) . . .
24.0(26) . . .
32.3(30) . . .
28.4(28) . . .
32.9(30) . . .
39(4) . . .
27.0(27) . . .
20.5(24) . . .
37(4) . . .
33.2(31) . . .
26.6(28) . . .
30.1(29) . . .
35.8(34) . . .
40(4) . . .
38.4(35) . . .
23.8(25) . . .
31.5(29) . . .
32.8(33) . . .
28.2(28) . . .
30.9(31) . . .
25.5(28) . . .
24.5(26) . . .
29.7(29) . . .
30.8(32) . . .
41.9(35) . . .
31.3(29) . . .
31.9(30) . . .
36.3(33) . . .
35.3(33) . . .
31.5(31) . . .
31.4(29) . . .
35.7(31) . . .
38.6(33) . . .
30.5(31) . . .
27.1(27) . . .
32.7(30) . . .
31.7(30) . . .
31.3(32) . . .
31.8(32) . . .
31.7(31) . . .
25.0(27) . . .
22.7(24) . . .
26.5(28) . . .
36.2(35) . . .
31.3(30) . . .
28.5(28) . . .
22.5(24) . . .
33.3(32) . . .
29.1(30) . . .
30.9(30) . . .
32.2(29) . . .
34.8(32) . . .
31.0(32) . . .
34.1(32) . . .
36.1(32) . . .
30.2(29) . . .
35.5(31) . . .
37.0(32) . . .
36.9(31) . . .
34.2(30) . . .
38.7(33) . . .
32.0(30) . . .
31.4(31) . . .
36(4) . . .
24.8(28) . . .
29.3(28) . . .
26.9(28) . . .
34.1(34) . . .
33.7(32) . . .
42.2(35) . . .
32.4(30) . . .
28.8(29) . . .
27.9(28) . . .
29.5(29) . . .
24.5(27) . . .
23.4(25) . . .
34.9(33) . . .
32.2(34) . . .
24.2(27) . . .
35.2(32) . . .
42.1(34) . . .
28.4(28) . . .
31.6(33) . . .
29.0(29) . . .
36.0(31) . . .
38.6(33) . . .
29.4(29) . . .
27.1(29) . . .
36.4(32) . . .
36.3(31) . . .
39.3(33) . . .
40(4) . . .
30.2(31) . . .
34.5(32) . . .
33.2(30) . . .
27.0(27) . . .
34.4(31) . . .
39.7(33) . . .
26.1(28) . . .
32.8(30) . . .
36.0(32) . . .
30.1(29) . . .
34.6(33) . . .
38.0(33) . . .
30.1(28) . . .
35.4(32) . . .
26.2(29) . . .
26.6(29) . . .
25.4(26) . . .
34.8(31) . . .
25.3(26) . . .
42(4) . . .
38.9(34) . . .
41.5(34) . . .
26.5(28) . . .
23.5(26) . . .
26.5(27) . . .
32.4(31) . . .
29.2(29) . . .
28.6(28) . . .
33.8(31) . . .
35.9(32) . . .
32.2(30) . . .
34.9(31) . . .
21.3(24) . . .
30.5(29) . . .
28.0(30) . . .
25.5(28) . . .
28.0(27) . . .
34.0(30) . . .
29.7(29) . . .
27.3(30) . . .
28.8(29) . . .
25.0(26) . . .
34.1(30) . . .
31.9(30) . . .
31.3(30) . . .
32.4(31) . . .
39.4(33) . . .
31.1(29) . . .
28.5(30) . . .
37.2(34) . . .
37.7(32) . . .
25.1(26) . . .
31.5(30) . . .
38.0(34) . . .
30.5(31) . . .
28.1(30) . . .
34.5(30) . . .
29.8(29) . . .
34.1(32) . . .
34.5(32) . . .
29.5(30) . . .
38.6(32) . . .
35.2(34) . . .
27.8(27) . . .
42(4) . . .
33.7(30) . . .
33.3(30) . . .
36.8(32) . . .
31.3(31) . . .
39.1(35) . . .
29.8(29) . . .
22.0(24) . . .
33.5(32) . . .
33.0(33) . . .
29.8(28) . . .
30.3(28) . . .
26.6(27) . . .
24.9(27) . . .
32.1(33) . . .
26.0(28) . . .
30.1(30) . . .
29.8(28) . . .
25.2(26) . . .
32.8(32) . . .
29.4(29) . . .
34.0(30) . . .
32.0(29) . . .
34.4(30) . . .
33.3(31) . . .
28.5(29) . . .
32.2(29) . . .
30.1(28) . . .
33.7(31) . . .
43(4) . . .
26.7(27) . . .
31.3(29) . . .
26.6(27) . . .
34.6(33) . . .
26.3(29) . . .
34.3(31) . . .
32.1(30) . . .
28.8(28) . . .
34.6(34) . . .
32.0(31) . . .
27.7(27) . . .
33.8(30) . . .
38.1(33) . . .
36.2(34) . . .
41(4) . . .
32.8(31) . . .
30.6(28) . . .
36.8(33) . . .
37.0(34) . . .
30.1(30) . . .
29.0(28) . . .
36.4(31) . . .
34.7(32) . . .
38.6(32) . . .
30.6(30) . . .
32.0(31) . . .
17.1(22) . . .
24.2(28) . . .
33.1(33) . . .
30.6(32) . . .
24.5(27) . . .
29.3(29) . . .
35.8(32) . . .
34.7(33) . . .
30.2(29) . . .
41.6(35) . . .
36.3(32) . . .
31.4(33) . . .
32.2(33) . . .
32.2(31) . . .
27.2(28) . . .
29.3(30) . . .
34.9(34) . . .
28.6(30) . . .
34.0(32) . . .
35.3(31) . . .
28.0(28) . . .
30.5(30) . . .
22.6(27) . . .
35.9(32) . . .
37.8(32) . . .
31.0(30) . . .
36.3(34) . . .
32.7(33) . . .
34.8(32) . . .
38.7(33) . . .
23.0(25) . . .
31.0(31) . . .
26.6(29) . . .
32.3(33) . . .
28.5(28) . . .
40.8(33) . . .
31.1(29) . . .
29.8(31) . . .
30.3(29) . . .
31.3(29) . . .
37.8(34) . . .
27.4(29) . . .
31.6(30) . . .
29.0(28) . . .
28.5(29) . . .
30.7(29) . . .
27.2(30) . . .
36.8(34) . . .
29.7(29) . . .
37.2(32) . . .
29.1(30) . . .
33.1(33) . . .
27.4(28) . . .
27.4(27) . . .
24.2(25) . . .
29.8(29) . . .
34.8(34) . . .
35.5(32) . . .
29.1(28) . . .
36.4(31) . . .
30.7(33) . . .
30.4(30) . . .
36.6(34) . . .
30.5(29) . . .
38.0(32) . . .
32.9(31) . . .
31.4(30) . . .
25.5(27) . . .
26.5(26) . . .
34.5(31) . . .
35.1(33) . . .
28.5(31) . . .
28.3(28) . . .
35.2(31) . . .
34.8(30) . . .
23.7(25) . . .
24.0(26) . . .
23.5(25) . . .
25.7(26) . . .
36.8(33) . . .
31.7(29) . . .
36.4(34) . . .
25.8(26) . . .
33.4(30) . . .
36.2(31) . . .
33.6(31) . . .
28.3(30) . . .
33.8(31) . . .
30.1(29) . . .
31.9(30) . . .
33.3(33) . . .
30.9(32) . . .
31.0(32) . . .
35.7(31) . . .
35.1(31) . . .
31.0(31) . . .
21.4(26) . . .
34.5(30) . . .
28.9(29) . . .
31.9(30) . . .
33.5(31) . . .
31.0(34) . . .
24.3(26) . . .
37.3(32) . . .
32.0(30) . . .
34.9(31) . . .
39(4) . . .
27.1(26) . . .
32.6(30) . . .
31.3(31) . . .
29.2(29) . . .
39(4) . . .
28.9(28) . . .
29.7(28) . . .
30.8(29) . . .
29.9(32) . . .
40(4) . . .
28.2(27) . . .
21.6(24) . . .
20.4(26) . . .
32.0(33) . . .
31.9(33) . . .
30.9(30) . . .
33.1(31) . . .
33.3(30) . . .
34.9(34) . . .
34.8(33) . . .
40.6(33) . . .
30.2(29) . . .
30.3(30) . . .
24.3(27) . . .
26.0(27) . . .
27.9(27) . . .
30.1(29) . . .
26.9(30) . . .
30.5(30) . . .
35.6(32) . . .
26.3(27) . . .
31.4(31) . . .
37.3(34) . . .
28.8(28) . . .
24.0(25) . . .
27.0(27) . . .
30.6(29) . . .
30.1(29) . . .
38.2(34) . . .
27.0(27) . . .
31.5(29) . . .
30.8(30) . . .
34.4(32) . . .
27.1(27) . . .
31.1(29) . . .
36.3(31) . . .
25.2(27) . . .
25.2(27) . . .
28.6(29) . . .
28.5(28) . . .
34.4(31) . . .
27.4(28) . . .
31.1(30) . . .
36.1(32) . . .
29.4(29) . . .
31.7(29) . . .
32.1(30) . . .
35(4) . . .
43(4) . . .
34.1(30) . . .
33.6(30) . . .
32.0(29) . . .
32.0(30) . . .
29.9(31) . . .
27.3(27) . . .
32.8(29) . . .
34.6(31) . . .
37.3(34) . . .
38.3(33) . . .
31.7(30) . . .
32.5(31) . . .
29.3(29) . . .
29.2(28) . . .
32.6(30) . . .
30.8(30) . . .
39.8(33) . . .
32.7(31) . . .
28.9(30) . . .
32.4(30) . . .
38.8(33) . . .
41.3(33) . . .
27.5(28) . . .
28.9(29) . . .
36.6(31) . . .
28.6(28) . . .
35.3(33) . . .
33.8(32) . . .
37.1(31) . . .
32.9(30) . . .
29.1(29) . . .
29.3(29) . . .
36.0(33) . . .
34.0(32) . . .
27.8(27) . . .
33.1(30) . . .
34.2(30) . . .
33.0(31) . . .
24.2(26) . . .
26.0(27) . . .
28.4(28) . . .
31.9(32) . . .
30.2(30) . . .
33.8(30) . . .
33.3(30) . . .
32.6(30) . . .
28.4(28) . . .
29.0(31) . . .
25.8(27) . . .
29.8(29) . . .
21.1(25) . . .
29.0(30) . . .
30.0(33) . . .
29.4(31) . . .
31.5(29) . . .
29.2(28) . . .
31.9(30) . . .
35.3(34) . . .
27.0(28) . . .
38.1(33) . . .
29.3(29) . . .
30.8(31) . . .
28.9(29) . . .
32.8(31) . . .
27.3(27) . . .
28.7(30) . . .
21.3(27) . . .
24.6(28) . . .
29.0(29) . . .
34.2(30) . . .
29.4(28) . . .
31.0(30) . . .
27.3(28) . . .
26.3(29) . . .
33.9(30) . . .
32.4(31) . . .
29.6(29) . . .
27.2(26) . . .
40.8(34) . . .
32.4(30) . . .
22.5(25) . . .
29.2(29) . . .
33.5(31) . . .
31.0(30) . . .
31.6(30) . . .
35.1(32) . . .
41(4) . . .
30.4(30) . . .
32.7(31) . . .
34.8(31) . . .
32.8(31) . . .
25.6(28) . . .
28.0(30) . . .
23.5(26) . . .
36.3(31) . . .
32.6(30) . . .
31.6(30) . . .
34.6(30) . . .
32.5(30) . . .
37.2(32) . . .
30.0(29) . . .
27.1(29) . . .
35.7(34) . . .
23.8(26) . . .
31.8(30) . . .
30.4(30) . . .
31.7(31) . . .
34.0(32) . . .
24.2(26) . . .
24.8(26) . . .
32.0(33) . . .
28.7(31) . . .
34.6(34) . . .
30.7(29) . . .
36.7(31) . . .
27.2(28) . . .
30.0(31) . . .
34.5(33) . . .
34.7(31) . . .
28.0(28) . . .
24.6(27) . . .
23.8(27) . . .
27.8(30) . . .
27.0(27) . . .
26.4(27) . . .
31.4(31) . . .
27.9(31) . . .
26.1(29) . . .
34.2(30) . . .
32.9(31) . . .
30.7(31) . . .
27.6(27) . . .
26.4(28) . . .
26.5(27) . . .
28.6(30) . . .
25.3(27) . . .
22.4(24) . . .
32.3(30) . . .
39.8(33) . . .
31.8(29) . . .
31.8(30) . . .
36.3(33) . . .
32.3(31) . . .
35.1(30) . . .
28.8(28) . . .
30.6(32) . . .
36.0(34) . . .
35.8(32) . . .
29.1(28) . . .
28.3(29) . . .
26.1(30) . . .
28.2(31) . . .
36.5(32) . . .
28.6(28) . . .
30.1(29) . . .
27.3(29) . . .
34.6(32) . . .
40.0(33) . . .
29.8(28) . . .
33.5(31) . . .
41(4) . . .
31.3(31) . . .
27.7(27) . . .
27.6(28) . . .
27.9(29) . . .
29.4(31) . . .
30.5(30) . . .
31.7(29) . . .
31.0(30) . . .
29.0(29) . . .
31.8(31) . . .
29.2(29) . . .
36.8(32) . . .
27.1(28) . . .
26.7(28) . . .
31.8(30) . . .
29.6(29) . . .
28.2(28) . . .
33.1(31) . . .
34.1(34) . . .
27.5(29) . . .
32.9(30) . . .
26.9(27) . . .
26.8(28) . . .
38.0(34) . . .
33.5(33) . . .
36.5(31) . . .
29.9(29) . . .
37(4) . . .
29.9(31) . . .
25.3(27) . . .
28.4(27) . . .
32.6(30) . . .
31.8(30) . . .
28.8(29) . . .
27.5(27) . . .
30.3(31) . . .
30.7(29) . . .
31.7(30) . . .
37(4) . . .
39.2(34) . . .
26.6(28) . . .
28.2(28) . . .
35.1(32) . . .
25.7(28) . . .
30.2(31) . . .
26.2(27) . . .
28.1(30) . . .
33.0(30) . . .
37.5(33) . . .
43(4) . . .
33.8(30) . . .
34.3(30) . . .
37(4) . . .
32.5(33) . . .
33.3(32) . . .
29.3(29) . . .
43(4) . . .
41(4) . . .
36.7(33) . . .
33.4(30) . . .
31.4(29) . . .
28.2(27) . . .
36.0(34) . . .
26.9(28) . . .
30.6(30) . . .
35.7(32) . . .
25.6(29) . . .
29.3(30) . . .
31.6(30) . . .
32.5(32) . . .
33.0(30) . . .
38.7(34) . . .
41.4(34) . . .
33.3(31) . . .
32.3(31) . . .
30.3(28) . . .
29.3(29) . . .
25.6(28) . . .
28.1(30) . . .
36.7(33) . . .
33.0(31) . . .
23.0(25) . . .
26.0(30) . . .
25.1(26) . . .
34.8(30) . . .
33.3(31) . . .
30.3(30) . . .
26.1(29) . . .
33.2(34) . . .
28.4(27) . . .
28.5(29) . . .
30.2(28) . . .
26.1(28) . . .
24.7(27) . . .
33.2(30) . . .
29.3(28) . . .
24.8(26) . . .
32.3(31) . . .
31.1(29) . . .
27.1(27) . . .
33.3(32) . . .
37.4(33) . . .
41(4) . . .
34.8(33) . . .
32.2(29) . . .
32.4(30) . . .
25.6(26) . . .
30.6(30) . . .
32.0(32) . . .
34.1(30) . . .
27.0(27) . . .
33.0(32) . . .
33.6(33) . . .
32.1(31) . . .
34.0(30) . . .
35.2(32) . . .
28.8(30) . . .
26.4(28) . . .
35.3(32) . . .
37.7(32) . . .
30.1(28) . . .
35.7(30) . . .
32.1(30) . . .
24.5(26) . . .
39.5(33) . . .
27.0(30) . . .
28.4(28) . . .
31.4(31) . . .
28.8(29) . . .
24.1(26) . . .
31.9(30) . . .
30.9(30) . . .
40(4) . . .
38.3(32) . . .
28.7(28) . . .
27.3(31) . . .
33.3(33) . . .
35.7(31) . . .
36.7(32) . . .
22.4(25) . . .
30.5(31) . . .
26.7(29) . . .
30.7(31) . . .
37.6(32) . . .
32.0(29) . . .
29.1(28) . . .
30.7(31) . . .
25.5(27) . . .
31.5(30) . . .
36.2(31) . . .
35.4(33) . . .
28.6(31) . . .
29.4(30) . . .
31.8(30) . . .
31.9(30) . . .
27.9(28) . . .
34.6(32) . . .
30.0(29) . . .
27.3(28) . . .
36.3(32) . . .
42(4) . . .
28.5(28) . . .
31.0(30) . . .
34.7(31) . . .
27.8(27) . . .
36.0(33) . . .
39.9(35) . . .
32.3(30) . . .
32.3(30) . . .
35.9(32) . . .
28.8(30) . . .
29.1(29) . . .
22.0(24) . . .
30.3(29) . . .
37.7(33) . . .
43(4) . . .
37(4) . . .
28.3(27) . . .
32.0(30) . . .
35.1(33) . . .
28.0(28) . . .
34.3(31) . . .
31.6(29) . . .
33.3(31) . . .
30.8(30) . . .
29.9(33) . . .
30.1(30) . . .
34.0(31) . . .
32.7(30) . . .
37.2(32) . . .
34.6(35) . . .
24.3(29) . . .
34.2(30) . . .
36.1(31) . . .
29.1(28) . . .
29.9(30) . . .
30.5(30) . . .
22.5(25) . . .
34.8(31) . . .
28.5(29) . . .
32.6(31) . . .
32.5(30) . . .
30.0(29) . . .
22.0(25) . . .
31.5(31) . . .
30.6(30) . . .
27.3(28) . . .
29.7(29) . . .
23.4(25) . . .
27.1(29) . . .
28.0(32) . . .
29.3(30) . . .
25.8(28) . . .
28.7(28) . . .
34.1(32) . . .
34.6(33) . . .
30.3(30) . . .
27.2(27) . . .
26.9(27) . . .
33.9(33) . . .
29.8(30) . . .
29.8(29) . . .
30.5(29) . . .
27.6(29) . . .
38.5(33) . . .
29.8(29) . . .
38.2(32) . . .
36.6(32) . . .
29.1(28) . . .
24.9(26) . . .
34.0(32) . . .
37.8(32) . . .
29.2(28) . . .
35.0(33) . . .
33.5(34) . . .
31.7(31) . . .
28.0(28) . . .
28.3(28) . . .
31.2(30) . . .
37.6(34) . . .
29.6(29) . . .
31.2(29) . . .
26.5(27) . . .
45(4) . . .
36.6(34) . . .
31.6(30) . . .
30.4(29) . . .
32.0(29) . . .
28.9(28) . . .
24.3(27) . . .
35.6(33) . . .
39.0(32) . . .
32.5(30) . . .
36.8(33) . . .
28.2(27) . . .
30.4(28) . . .
31.5(30) . . .
22.0(24) . . .
29.2(29) . . .
27.8(29) . . .
35.7(33) . . .
40.9(33) . . .
25.1(26) . . .
31.8(32) . . .
31.3(30) . . .
31.2(29) . . .
37.6(32) . . .
32.8(30) . . .
33.2(33) . . .
34.9(32) . . .
26.1(28) . . .
36.5(31) . . .
28.3(30) . . .
30.4(32) . . .
40(4) . . .
30.0(29) . . .
34.2(30) . . .
35.2(35) . . .
25.9(27) . . .
30.7(30) . . .
30.8(30) . . .
37.7(33) . . .
25.0(28) . . .
30.8(31) . . .
31.1(30) . . .
31.1(29) . . .
29.3(28) . . .
28.1(28) . . .
27.0(29) . . .
33.8(31) . . .
29.7(29) . . .
31.0(28) . . .
27.2(27) . . .
33.2(31) . . .
33.9(32) . . .
35.5(30) . . .
22.6(25) . . .
23.3(27) . . .
29.5(30) . . .
36.1(32) . . .
26.1(27) . . .
22.4(25) . . .
34.5(33) . . .
29.7(28) . . .
40.1(34) . . .
32.2(29) . . .
30.0(30) . . .
24.2(26) . . .
34(4) . . .
31.1(30) . . .
37.4(32) . . .
31.5(29) . . .
29.8(29) . . .
28.7(30) . . .
35.3(35) . . .
29.2(28) . . .
23.7(26) . . .
25.8(28) . . .
28.3(28) . . .
23.2(26) . . .
30.0(28) . . .
30.1(32) . . .
29.5(32) . . .
32.3(32) . . .
29.7(29) . . .
21.6(24) . . .
28.1(30) . . .
31.8(30) . . .
31.3(30) . . .
28.7(28) . . .
31.2(29) . . .
37.9(35) . . .
27.6(28) . . .
27.4(29) . . .
30.3(28) . . .
32.8(30) . . .
33.5(32) . . .
27.9(30) . . .
23.9(26) . . .
23.7(26) . . .
29.4(28) . . .
31.3(32) . . .
32.1(31) . . .
44(4) . . .
39.0(32) . . .
26.4(26) . . .
30.1(30) . . .
33.2(33) . . .
35.0(32) . . .
26.0(26) . . .
26.9(27) . . .
23.2(25) . . .
30.6(30) . . .
28.6(29) . . .
34.0(30) . . .
30.3(30) . . .
26.6(27) . . .
32.1(31) . . .
33.5(31) . . .
31.3(30) . . .
27.7(27) . . .
38.6(33) . . .
36.7(31) . . .
31.5(29) . . .
37.1(32) . . .
33.4(31) . . .
26.4(27) . . .
26.8(27) . . .
29.5(29) . . .
30.2(30) . . .
30.0(30) . . .
29.9(30) . . .
33.8(33) . . .
38.4(33) . . .
28.5(28) . . .
32.2(32) . . .
32.0(32) . . .
29.6(29) . . .
29.0(28) . . .
27.9(28) . . .
34.9(32) . . .
35.0(34) . . .
30.0(30) . . .
35.5(31) . . .
32.9(30) . . .
34.7(34) . . .
25.4(29) . . .
29.8(29) . . .
38.1(33) . . .
28.8(28) . . .
34.4(32) . . .
31.7(30) . . .
31.8(32) . . .
32.4(30) . . .
31.2(30) . . .
29.1(29) . . .
26.4(29) . . .
33.1(31) . . .
37.1(32) . . .
29.5(29) . . .
31.2(29) . . .
32.2(32) . . .
25.6(27) . . .
31.8(30) . . .
31.0(29) . . .
27.6(27) . . .
36.3(34) . . .
29.3(29) . . .
29.3(28) . . .
27.6(28) . . .
30.3(30) . . .
33.0(32) . . .
28.4(28) . . .
37.0(31) . . .
29.9(29) . . .
30.6(29) . . .
26.1(26) . . .
35.9(32) . . .
31.4(29) . . .
29.9(29) . . .
35.1(34) . . .
27.8(29) . . .
27.6(27) . . .
30.9(29) . . .
28.9(29) . . .
37(4) . . .
34.2(32) . . .
30.2(28) . . .
31.1(29) . . .
24.9(28) . . .
28.7(29) . . .
29.7(28) . . .
23.5(26) . . .
35.3(31) . . .
34.6(31) . . .
31.4(31) . . .
27.5(28) . . .
32.7(30) . . .
27.7(28) . . .
30.4(31) . . .
31.9(31) . . .
30.5(29) . . .
27.9(28) . . .
25.5(26) . . .
25.3(27) . . .
27.7(30) . . .
24.8(27) . . .
24.7(26) . . .
31.2(29) . . .
30.1(31) . . .
19.6(25) . . .
21.0(23) . . .
36.0(31) . . .
32.6(30) . . .
31.7(31) . . .
25.5(27) . . .
35.0(33) . . .
32.6(30) . . .
26.8(28) . . .
38.6(34) . . .
26.8(28) . . .
27.4(28) . . .
34.2(30) . . .
29.0(28) . . .
32.8(32) . . .
38.8(35) . . .
32.9(31) . . .
28.1(27) . . .
28.9(28) . . .
33.0(31) . . .
27.8(27) . . .
30.7(29) . . .
24.9(26) . . .
33.3(32) . . .
34.7(32) . . .
31.6(32) . . .
38.5(32) . . .
28.9(28) . . .
31.0(30) . . .
29.3(29) . . .
44(4) . . .
32.3(30) . . .
23.4(25) . . .
28.3(28) . . .
39(4) . . .
31.0(31) . . .
30.1(29) . . .
21.3(24) . . .
30.0(29) . . .
27.9(30) . . .
29.5(30) . . .
27.1(27) . . .
44.3(35) . . .
36.0(32) . . .
34.8(33) . . .
31.7(30) . . .
29.8(28) . . .
33.0(30) . . .
27.7(30) . . .
27.7(31) . . .
19.9(23) . . .
23.7(26) . . .
29.8(28) . . .
30.1(29) . . .
35.7(34) . . .
36.1(33) . . .
17.5(22) . . .
22.9(26) . . .
31.1(32) . . .
23.7(26) . . .
30.4(30) . . .
33.9(30) . . .
30.5(28) . . .
43(4) . . .
29.0(32) . . .
24.3(27) . . .
26.6(27) . . .
31.7(31) . . .
32.3(30) . . .
30.5(29) . . .
30.3(28) . . .
32.6(30) . . .
37.7(33) . . .
35.0(32) . . .
29.0(30) . . .
35.8(31) . . .
38.0(32) . . .
32.8(32) . . .
31.9(31) . . .
27.4(27) . . .
32.2(30) . . .
31.5(29) . . .
37.6(32) . . .
31.5(30) . . .
33.6(31) . . .
25.8(28) . . .
32.2(31) . . .
33.2(31) . . .
34.0(33) . . .
39.5(33) . . .
34.1(30) . . .
27.6(28) . . .
29.8(30) . . .
32.9(32) . . .
28.5(29) . . .
28.3(28) . . .
36.7(32) . . .
36.7(32) . . .
31.4(30) . . .
27.8(27) . . .
30.2(29) . . .
28.4(28) . . .
29.3(30) . . .
30.3(31) . . .
31.1(30) . . .
24.8(26) . . .
32.3(30) . . .
37.3(33) . . .
39.9(33) . . .
28.8(29) . . .
23.2(25) . . .
32.2(30) . . .
31.4(32) . . .
37.1(32) . . .
27.8(27) . . .
28.0(27) . . .
27.9(29) . . .
31.5(30) . . .
35.8(33) . . .
29.7(29) . . .
33.4(30) . . .
24.5(26) . . .
33.8(34) . . .
22.9(26) . . .
26.9(28) . . .
31.7(30) . . .
33.5(31) . . .
37.6(34) . . .
37(4) . . .
24.9(26) . . .
26.1(27) . . .
30.6(30) . . .
26.1(31) . . .
26.9(28) . . .
36.4(33) . . .
27.3(27) . . .
30.0(30) . . .
30.4(30) . . .
30.1(29) . . .
27.4(27) . . .
21.0(26) . . .
28.7(30) . . .
24.4(27) . . .
36.5(33) . . .
35.9(31) . . .
27.5(27) . . .
26.0(26) . . .
31.3(30) . . .
34.0(32) . . .
27.9(28) . . .
29.2(28) . . .
30.3(28) . . .
34.7(34) . . .
31.0(29) . . .
34.7(31) . . .
37.6(32) . . .
30.2(30) . . .
28.0(28) . . .
31.5(32) . . .
31.2(29) . . .
28.5(29) . . .
33.2(31) . . .
34.2(31) . . .
37.4(34) . . .
26.0(26) . . .
28.9(28) . . .
44(4) . . .
39.6(33) . . .
28.0(28) . . .
29.1(28) . . .
30.5(30) . . .
30.2(31) . . .
38.9(35) . . .
31.8(29) . . .
36.7(32) . . .
41(4) . . .
35.0(33) . . .
33.9(31) . . .
28.7(28) . . .
29.3(29) . . .
25.3(26) . . .
26.4(28) . . .
33.4(32) . . .
34.9(32) . . .
35.9(31) . . .
31.0(30) . . .
25.0(26) . . .
38.0(34) . . .
30.3(30) . . .
25.1(26) . . .
27.3(30) . . .
33.3(34) . . .
29.2(29) . . .
32.6(30) . . .
34.7(32) . . .
29.2(29) . . .
39(4) . . .
31.0(30) . . .
25.9(26) . . .
33.5(30) . . .
29.8(29) . . .
30.1(32) . . .
23.8(25) . . .
31.0(28) . . .
32.6(31) . . .
29.5(28) . . .
25.2(27) . . .
31.5(32) . . .
35.2(31) . . .
29.9(29) . . .
26.4(28) . . .
30.3(30) . . .
36.8(32) . . .
26.4(26) . . .
26.0(26) . . .
25.8(27) . . .
36.3(34) . . .
34.7(32) . . .
30.3(28) . . .
32.9(32) . . .
34.5(33) . . .
27.7(29) . . .
17.7(22) . . .
28.9(29) . . .
33.1(31) . . .
35.7(33) . . .
32.5(30) . . .
30.8(29) . . .
32.0(30) . . .
28.9(30) . . .
33.6(32) . . .
30.4(30) . . .
26.2(27) . . .
32.7(30) . . .
28.4(28) . . .
33.2(34) . . .
35.9(34) . . .
36.7(31) . . .
30.8(29) . . .
27.6(29) . . .
30.6(32) . . .
29.4(29) . . .
28.9(28) . . .
30.9(28) . . .
37.1(34) . . .
29.8(31) . . .
28.4(28) . . .
28.6(27) . . .
27.0(27) . . .
35.8(33) . . .
23.4(25) . . .
29.0(30) . . .
25.4(26) . . .
29.9(29) . . .
25.7(27) . . .
30.4(29) . . .
30.3(28) . . .
46(4) . . .
35.2(31) . . .
25.3(28) . . .
24.3(28) . . .
26.0(27) . . .
29.9(29) . . .
27.9(28) . . .
26.9(30) . . .
27.3(30) . . .
35.4(33) . . .
32.8(30) . . .
28.9(28) . . .
27.6(28) . . .
26.6(28) . . .
34.2(32) . . .
32.2(30) . . .
30.5(30) . . .
27.6(29) . . .
26.3(28) . . .
31.2(29) . . .
27.8(28) . . .
28.6(29) . . .
21.8(25) . . .
23.3(28) . . .
28.7(28) . . .
28.1(27) . . .
25.2(26) . . .
34.0(31) . . .
30.9(29) . . .
34.3(30) . . .
33.5(30) . . .
25.2(26) . . .
33.5(31) . . .
25.0(26) . . .
26.8(27) . . .
39.5(34) . . .
37(4) . . .
33.5(32) . . .
33.0(29) . . .
28.5(28) . . .
20.8(24) . . .
25.0(28) . . .
29.7(32) . . .
25.0(28) . . .
30.5(30) . . .
30.6(30) . . .
30.2(30) . . .
26.5(30) . . .
30.8(30) . . .
30.8(29) . . .
23.6(26) . . .
29.2(30) . . .
36.2(35) . . .
28.6(29) . . .
19.6(23) . . .
36.6(33) . . .
30.6(30) . . .
27.1(29) . . .
25.6(28) . . .
26.2(28) . . .
31.2(30) . . .
29.1(30) . . .
27.5(29) . . .
32.6(30) . . .
33.6(30) . . .
28.8(29) . . .
29.1(29) . . .
29.2(29) . . .
34.3(32) . . .
28.2(27) . . .
29.9(28) . . .
32.7(30) . . .
29.5(32) . . .
20.1(23) . . .
28.5(27) . . .
32.1(30) . . .
39(4) . . .
34.9(31) . . .
38.9(33) . . .
28.5(28) . . .
30.9(30) . . .
31.6(31) . . .
31.0(31) . . .
26.1(27) . . .
24.3(27) . . .
25.6(28) . . .
41(4) . . .
32.2(31) . . .
36.6(32) . . .
34.1(32) . . .
29.3(29) . . .
34.1(34) . . .
30.3(29) . . .
29.1(28) . . .
23.4(25) . . .
25.3(27) . . .
32.7(32) . . .
25.2(26) . . .
26.1(27) . . .
41.3(33) . . .
27.5(26) . . .
29.0(29) . . .
33.0(32) . . .
32.7(30) . . .
34.3(30) . . .
30.5(29) . . .
30.9(29) . . .
32.8(30) . . .
32.5(30) . . .
30.6(30) . . .
30.6(31) . . .
30.5(32) . . .
35.8(32) . . .
34.1(31) . . .
29.7(30) . . .
28.7(30) . . .
26.2(27) . . .
33.9(33) . . .
27.3(28) . . .
36.8(33) . . .
25.0(28) . . .
25.3(27) . . .
37.1(32) . . .
24.4(26) . . .
27.7(30) . . .
28.3(29) . . .
30.0(30) . . .
37.4(32) . . .
32.2(30) . . .
31.3(29) . . .
28.0(30) . . .
30.1(31) . . .
42.8(34) . . .
40.0(33) . . .
25.9(27) . . .
25.7(27) . . .
24.0(27) . . .
28.4(29) . . .
33.1(30) . . .
32.7(31) . . .
33.6(34) . . .
25.7(28) . . .
27.6(27) . . .
33.9(30) . . .
31.1(32) . . .
31.6(32) . . .
30.6(30) . . .
35.8(32) . . .
34.8(31) . . .
31.5(29) . . .
28.3(29) . . .
29.3(32) . . .
30.1(29) . . .
29.0(28) . . .
33.3(29) . . .
29.3(28) . . .
33.4(31) . . .
35.0(32) . . .
30.8(29) . . .
34.5(32) . . .
27.1(29) . . .
28.4(29) . . .
36.3(31) . . .
35.2(32) . . .
32.3(32) . . .
30.7(31) . . .
31.3(29) . . .
31.5(30) . . .
26.9(27) . . .
30.1(29) . . .
24.9(25) . . .
29.3(29) . . .
23.0(25) . . .
35.0(32) . . .
32.4(30) . . .
28.8(29) . . .
22.0(26) . . .
27.8(28) . . .
26.6(28) . . .
25.2(28) . . .
34.8(32) . . .
33.1(30) . . .
23.2(26) . . .
25.6(30) . . .
37.4(35) . . .
29.5(29) . . .
23.8(27) . . .
30.1(29) . . .
35.8(32) . . .
30.2(30) . . .
31.5(30) . . .
32.5(29) . . .
26.5(27) . . .
33.2(31) . . .
38.0(34) . . .
41(4) . . .
36.0(31) . . .
36.5(32) . . .
24.6(25) . . .
36.5(34) . . .
38.3(33) . . .
34.2(30) . . .
30.1(28) . . .
33.5(30) . . .
23.0(25) . . .
24.6(26) . . .
34.6(30) . . .
33.6(32) . . .
36.9(33) . . .
31.4(30) . . .
28.6(28) . . .
36.2(32) . . .
23.5(27) . . .
34.3(33) . . .
28.7(29) . . .
31.0(31) . . .
36.9(32) . . .
34.0(30) . . .
30.8(30) . . .
29.0(29) . . .
24.1(26) . . .
26.0(27) . . .
27.0(27) . . .
37.2(35) . . .
27.2(28) . . .
27.7(27) . . .
28.3(28) . . .
27.0(28) . . .
28.8(29) . . .
29.9(29) . . .
29.5(28) . . .
29.1(28) . . .
36.3(33) . . .
32.2(32) . . .
29.5(29) . . .
35.3(32) . . .
24.4(25) . . .
28.3(27) . . .
30.8(28) . . .
24.5(26) . . .
29.6(29) . . .
31.4(30) . . .
19.4(24) . . .
23.7(28) . . .
28.7(30) . . .
30.9(29) . . .
28.7(28) . . .
37.7(33) . . .
27.3(28) . . .
24.6(26) . . .
32.5(30) . . .
23.1(25) . . .
29.1(28) . . .
38.0(34) . . .
30.7(31) . . .
27.3(28) . . .
31.1(29) . . .
29.4(30) . . .
33.9(33) . . .
24.4(26) . . .
32.7(30) . . .
33.0(30) . . .
31.9(31) . . .
25.5(27) . . .
29.6(30) . . .
28.1(28) . . .
34.0(31) . . .
37.3(33) . . .
37.4(33) . . .
28.5(28) . . .
31.1(29) . . .
27.3(29) . . .
29.0(31) . . .
24.6(26) . . .
33.7(31) . . .
31.3(30) . . .
28.1(29) . . .
27.1(29) . . .
34.8(32) . . .
28.1(29) . . .
23.0(26) . . .
29.8(32) . . .
30.3(32) . . .
33.7(34) . . .
26.3(27) . . .
28.4(28) . . .
45(4) . . .
27.9(28) . . .
29.9(28) . . .
28.0(28) . . .
31.1(29) . . .
28.3(28) . . .
28.8(28) . . .
29.2(29) . . .
26.8(28) . . .
26.4(28) . . .
30.5(31) . . .
29.5(29) . . .
36.7(32) . . .
26.6(27) . . .
28.9(29) . . .
27.6(27) . . .
35.7(33) . . .
27.8(29) . . .
29.9(28) . . .
31.6(30) . . .
32.3(32) . . .
29.9(30) . . .
29.1(30) . . .
31.1(29) . . .
33.9(31) . . .
33.1(30) . . .
36.2(34) . . .
28.4(28) . . .
36.9(32) . . .
31.9(29) . . .
28.1(27) . . .
33.0(31) . . .
28.6(28) . . .
31.9(29) . . .
34.2(31) . . .
32.0(31) . . .
30.4(30) . . .
27.2(27) . . .
31.8(29) . . .
25.4(28) . . .
27.3(30) . . .
28.5(28) . . .
33.6(30) . . .
32.4(30) . . .
30.0(31) . . .
23.3(29) . . .
26.9(29) . . .
33.0(30) . . .
26.9(27) . . .
27.5(29) . . .
27.5(29) . . .
31.8(31) . . .
25.7(27) . . .
37.3(32) . . .
30.8(29) . . .
21.2(23) . . .
34.2(31) . . .
30.5(29) . . .
30.9(29) . . .
29.0(30) . . .
41(4) . . .
34.9(30) . . .
36.8(33) . . .
28.4(28) . . .
30.8(30) . . .
42(4) . . .
26.4(27) . . .
34.6(30) . . .
28.1(28) . . .
31.0(30) . . .
31.1(30) . . .
33.2(32) . . .
27.2(28) . . .
29.4(28) . . .
29.0(28) . . .
30.1(31) . . .
32.8(31) . . .
26.5(27) . . .
24.3(27) . . .
27.5(28) . . .
28.2(29) . . .
29.0(29) . . .
30.9(29) . . .
24.5(27) . . .
25.5(27) . . .
19.2(22) . . .
24.0(25) . . .
36.2(31) . . .
32.5(31) . . .
29.9(30) . . .
29.7(29) . . .
37.8(32) . . .
33.2(30) . . .
32.9(30) . . .
29.2(29) . . .
28.9(29) . . .
27.3(27) . . .
32.6(30) . . .
33.6(31) . . .
27.1(30) . . .
33.2(33) . . .
24.2(26) . . .
33.0(31) . . .
24.0(26) . . .
31.8(31) . . .
24.6(26) . . .
36.9(31) . . .
29.7(28) . . .
28.5(28) . . .
30.1(33) . . .
24.9(30) . . .
24.6(26) . . .
26.6(26) . . .
28.4(28) . . .
32.7(32) . . .
33.4(32) . . .
35.1(30) . . .
30.0(29) . . .
30.4(29) . . .
29.7(29) . . .
25.7(27) . . .
29.2(28) . . .
30.7(30) . . .
31.3(29) . . .
35.4(32) . . .
32.7(30) . . .
21.8(24) . . .
35.1(33) . . .
26.6(27) . . .
24.8(26) . . .
33.2(31) . . .
26.8(27) . . .
29.9(29) . . .
28.0(27) . . .
32.8(32) . . .
30.2(30) . . .
22.1(24) . . .
31.0(30) . . .
38(4) . . .
31.6(31) . . .
22.5(25) . . .
23.6(26) . . .
37.2(33) . . .
29.4(28) . . .
32.8(31) . . .
28.3(28) . . .
29.5(28) . . .
31.6(31) . . .
31.0(31) . . .
28.4(28) . . .
38.1(32) . . .
28.0(28) . . .
35.5(32) . . .
29.9(33) . . .
33.2(34) . . .
32.4(31) . . .
31.1(29) . . .
33.0(31) . . .
34.5(35) . . .
31.5(31) . . .
32.7(30) . . .
35.4(31) . . .
33.2(30) . . .
25.8(26) . . .
35.0(35) . . .
27.3(27) . . .
26.9(27) . . .
27.4(28) . . .
29.0(31) . . .
26.8(29) . . .
36.1(32) . . .
33.1(31) . . .
30.9(31) . . .
23.4(26) . . .
25.0(27) . . .
33.0(30) . . .
34.8(31) . . .
29.9(30) . . .
26.0(28) . . .
26.8(28) . . .
29.8(29) . . .
23.8(26) . . .
34.6(32) . . .
29.8(30) . . .
29.1(28) . . .
32.3(30) . . .
31.7(30) . . .
25.7(27) . . .
31.1(31) . . .
28.3(28) . . .
32.8(30) . . .
20.8(24) . . .
33.8(33) . . .
33.0(30) . . .
26.3(26) . . .
31.6(29) . . .
34.3(33) . . .
19.7(25) . . .
27.2(28) . . .
31.1(29) . . .
24.2(26) . . .
30.3(29) . . .
31.8(33) . . .
29.0(30) . . .
33.4(30) . . .
34.0(31) . . .
28.2(28) . . .
36.5(35) . . .
26.9(27) . . .
31.3(29) . . .
23.3(25) . . .
28.9(30) . . .
29.9(30) . . .
24.8(27) . . .
32.5(30) . . .
31.8(30) . . .
31.9(31) . . .
36.8(34) . . .
27.4(29) . . .
37.3(31) . . .
32.5(30) . . .
37.4(34) . . .
30.7(31) . . .
24.1(28) . . .
34.1(31) . . .
26.9(27) . . .
36.7(33) . . .
35.4(33) . . .
37.2(32) . . .
32.9(30) . . .
26.2(27) . . .
33.2(33) . . .
31.3(30) . . .
27.1(28) . . .
24.6(26) . . .
27.2(28) . . .
27.9(28) . . .
28.9(29) . . .
30.2(28) . . .
29.6(28) . . .
23.1(27) . . .
31.0(31) . . .
32.9(31) . . .
37.6(32) . . .
34.3(30) . . .
32.8(29) . . .
32.2(30) . . .
31.0(29) . . .
34.8(30) . . .
33.1(30) . . .
27.0(28) . . .
32.0(33) . . .
30.8(29) . . .
31.0(30) . . .
33.8(30) . . .
32.9(30) . . .
33.6(31) . . .
24.8(25) . . .
31.9(30) . . .
33.5(30) . . .
31.3(29) . . .
37(4) . . .
23.2(27) . . .
24.8(26) . . .
29.3(30) . . .
31.3(31) . . .
24.2(27) . . .
36.2(31) . . .
29.6(29) . . .
26.4(28) . . .
27.1(29) . . .
25.8(28) . . .
27.2(27) . . .
29.5(29) . . .
32.1(30) . . .
27.4(28) . . .
31.6(30) . . .
35.3(31) . . .
35.8(31) . . .
25.1(26) . . .
30.4(30) . . .
29.5(30) . . .
28.6(28) . . .
33.8(30) . . .
32.1(31) . . .
29.2(29) . . .
26.1(27) . . .
30.5(30) . . .
28.5(28) . . .
27.7(28) . . .
32.1(32) . . .
30.2(30) . . .
27.9(28) . . .
28.0(28) . . .
22.7(25) . . .
32.4(33) . . .
28.0(28) . . .
30.4(29) . . .
28.7(28) . . .
30.4(30) . . .
27.3(28) . . .
35.9(32) . . .
28.1(28) . . .
29.2(28) . . .
27.5(28) . . .
38(4) . . .
34.1(32) . . .
32.6(30) . . .
27.0(27) . . .
29.5(29) . . .
27.0(28) . . .
26.7(27) . . .
32.5(30) . . .
36.5(31) . . .
32.1(30) . . .
31.5(33) . . .
29.2(28) . . .
30.4(28) . . .
29.5(28) . . .
28.2(29) . . .
30.5(32) . . .
29.5(30) . . .
29.5(28) . . .
22.8(25) . . .
28.3(28) . . .
30.1(29) . . .
28.3(28) . . .
28.2(27) . . .
23.3(26) . . .
23.7(27) . . .
26.4(28) . . .
29.6(29) . . .
38.7(33) . . .
34.1(30) . . .
33.9(32) . . .
30.6(31) . . .
34.9(33) . . .
29.1(29) . . .
24.6(26) . . .
34.7(31) . . .
38.1(32) . . .
24.1(25) . . .
28.9(28) . . .
25.6(28) . . .
25.4(26) . . .
28.2(28) . . .
24.1(27) . . .
28.2(28) . . .
32.6(30) . . .
22.3(27) . . .
29.0(30) . . .
33.7(30) . . .
28.3(28) . . .
30.4(30) . . .
26.0(28) . . .
26.8(27) . . .
26.1(27) . . .
26.0(26) . . .
32.9(31) . . .
30.9(32) . . .
26.8(26) . . .
29.9(28) . . .
28.2(27) . . .
34.6(32) . . .
29.0(29) . . .
32.9(31) . . .
28.0(29) . . .
31.0(28) . . .
29.7(30) . . .
25.9(28) . . .
28.4(29) . . .
33.4(30) . . .
32.0(31) . . .
29.3(29) . . .
34.2(31) . . .
33.1(31) . . .
29.5(28) . . .
31.2(29) . . .
25.7(28) . . .
24.5(28) . . .
28.5(30) . . .
33.4(30) . . .
25.2(26) . . .
30.1(30) . . .
30.5(29) . . .
34.6(31) . . .
34.5(31) . . .
25.1(27) . . .
33.4(34) . . .
32.1(31) . . .
27.9(28) . . .
37.9(32) . . .
33.4(34) . . .
34.2(32) . . .
31.9(29) . . .
39.3(33) . . .
24.3(26) . . .
36.2(33) . . .
22.6(25) . . .
26.9(29) . . .
25.5(26) . . .
33.1(31) . . .
34.8(32) . . .
21.5(23) . . .
37.5(33) . . .
34.3(30) . . .
33.6(31) . . .
32.2(31) . . .
33.0(34) . . .
26.6(28) . . .
21.6(24) . . .
30.0(29) . . .
34.0(31) . . .
29.9(29) . . .
33.6(31) . . .
36.6(32) . . .
30.4(28) . . .
35.1(33) . . .
34.6(34) . . .
27.3(27) . . .
32.6(30) . . .
36.7(33) . . .
25.0(26) . . .
28.3(30) . . .
27.4(29) . . .
32.9(30) . . .
34.6(31) . . .
29.6(29) . . .
25.5(27) . . .
19.1(24) . . .
21.7(24) . . .
39(4) . . .
25.1(26) . . .
26.6(28) . . .
24.2(25) . . .
28.7(28) . . .
33.1(32) . . .
36.0(33) . . .
28.6(30) . . .
31.4(31) . . .
30.5(29) . . .
26.1(27) . . .
27.0(27) . . .
37.2(33) . . .
30.7(31) . . .
30.5(29) . . .
30.4(30) . . .
32.6(32) . . .
27.5(27) . . .
29.7(28) . . .
22.5(25) . . .
29.0(31) . . .
26.2(30) . . .
25.0(27) . . .
31.6(30) . . .
38.7(32) . . .
29.8(29) . . .
29.8(32) . . .
33.6(32) . . .
39.7(33) . . .
32.7(30) . . .
35.8(33) . . .
25.6(26) . . .
29.4(29) . . .
30.4(28) . . .
35.4(31) . . .
22.1(27) . . .
29.6(32) . . .
21.8(24) . . .
34.5(31) . . .
26.7(27) . . .
33.3(31) . . .
26.6(26) . . .
38.2(33) . . .
39.6(33) . . .
29.8(28) . . .
26.0(28) . . .
28.8(29) . . .
27.6(29) . . .
32.2(30) . . .
36.5(32) . . .
32.8(32) . . .
33.3(32) . . .
28.4(28) . . .
19.5(24) . . .
25.0(26) . . .
34.8(33) . . .
32.0(33) . . .
31.5(29) . . .
32.0(30) . . .
31.2(29) . . .
28.4(29) . . .
18.2(22) . . .
26.3(28) . . .
33.2(30) . . .
28.2(29) . . .
29.8(29) . . .
31.8(30) . . .
32.8(30) . . .
36.0(31) . . .
30.1(29) . . .
26.7(29) . . .
39(4) . . .
30.0(28) . . .
40.8(34) . . .
30.4(29) . . .
29.1(30) . . .
27.5(28) . . .
37.0(32) . . .
27.1(27) . . .
29.4(29) . . .
28.8(28) . . .
39.0(34) . . .
31.6(29) . . .
29.3(28) . . .
35.5(30) . . .
28.7(29) . . .
28.9(29) . . .
32.6(30) . . .
35.5(31) . . .
33.3(30) . . .
29.1(29) . . .
36.1(32) . . .
34.0(31) . . .
31.1(29) . . .
31.8(31) . . .
24.5(27) . . .
31.6(31) . . .
28.6(28) . . .
25.1(27) . . .
30.9(30) . . .
32.0(30) . . .
33.0(30) . . .
26.7(27) . . .
35.0(32) . . .
26.1(30) . . .
29.9(30) . . .
30.9(30) . . .
29.8(28) . . .
25.0(26) . . .
31.5(32) . . .
27.9(29) . . .
36.8(33) . . .
27.7(28) . . .
32.1(30) . . .
36.3(34) . . .
23.8(26) . . .
27.8(29) . . .
33.2(30) . . .
30.3(31) . . .
26.6(28) . . .
25.5(26) . . .
28.8(29) . . .
34.1(30) . . .
32.9(31) . . .
27.4(30) . . .
31.5(31) . . .
30.5(28) . . .
23.0(26) . . .
24.8(28) . . .
40(4) . . .
36.3(33) . . .
46.7(35) . . .
32.9(31) . . .
28.3(29) . . .
32.1(32) . . .
29.5(29) . . .
37.0(32) . . .
24.7(26) . . .
35.1(31) . . .
31.9(30) . . .
28.6(29) . . .
36.2(31) . . .
39.8(34) . . .
32.7(32) . . .
27.8(28) . . .
30.9(29) . . .
21.8(25) . . .
26.4(27) . . .
27.7(29) . . .
34.8(32) . . .
28.2(29) . . .
30.7(28) . . .
26.4(27) . . .
28.6(30) . . .
25.0(30) . . .
26.6(28) . . .
32.2(30) . . .
27.0(27) . . .
26.3(29) . . .
24.6(26) . . .
40.8(33) . . .
30.4(29) . . .
27.4(28) . . .
37(4) . . .
27.8(27) . . .
29.0(29) . . .
30.3(29) . . .
26.0(27) . . .
27.5(28) . . .
27.4(27) . . .
30.9(29) . . .
24.2(26) . . .
34.9(35) . . .
31.2(31) . . .
36.7(33) . . .
27.3(28) . . .
21.3(24) . . .
24.7(25) . . .
34.2(34) . . .
24.1(27) . . .
27.5(27) . . .
31.7(30) . . .
30.1(30) . . .
24.3(27) . . .
29.5(30) . . .
28.3(28) . . .
23.5(26) . . .
31.6(33) . . .
28.2(29) . . .
36.2(32) . . .
32.3(30) . . .
35.4(32) . . .
23.2(25) . . .
31.5(31) . . .
30.2(31) . . .
27.6(28) . . .
28.0(27) . . .
28.7(30) . . .
30.7(32) . . .
26.1(29) . . .
24.6(27) . . .
19.5(24) . . .
23.8(28) . . .
31.8(31) . . .
33.1(30) . . .
34.2(30) . . .
33.0(31) . . .
33.4(30) . . .
31.9(31) . . .
28.0(27) . . .
30.1(28) . . .
32.5(32) . . .
35.2(32) . . .
24.8(26) . . .
32.2(30) . . .
29.5(29) . . .
35.0(34) . . .
30.2(31) . . .
30.3(30) . . .
32.8(31) . . .
21.4(25) . . .
32.7(31) . . .
30.2(30) . . .
27.0(28) . . .
29.3(28) . . .
30.7(29) . . .
28.2(28) . . .
27.3(29) . . .
29.5(29) . . .
38.8(33) . . .
37.9(33) . . .
36.3(34) . . .
30.0(31) . . .
33.3(31) . . .
28.0(29) . . .
30.9(30) . . .
29.5(29) . . .
25.6(27) . . .
23.9(28) . . .
28.4(28) . . .
30.5(29) . . .
32.7(31) . . .
29.1(31) . . .
34.3(33) . . .
35.2(31) . . .
29.4(29) . . .
21.2(26) . . .
28.1(31) . . .
31.3(30) . . .
32.2(29) . . .
37.3(33) . . .
24.6(25) . . .
26.9(27) . . .
36.2(32) . . .
35.6(31) . . .
34.3(32) . . .
35.2(32) . . .
26.9(27) . . .
21.8(25) . . .
32.2(30) . . .
24.4(27) . . .
32.8(32) . . .
29.2(28) . . .
31.4(31) . . .
30.5(29) . . .
31.9(30) . . .
31.4(31) . . .
29.7(29) . . .
29.3(29) . . .
25.3(27) . . .
24.8(26) . . .
22.0(25) . . .
28.0(29) . . .
31.8(29) . . .
29.1(28) . . .
25.7(27) . . .
23.9(27) . . .
29.5(30) . . .
26.8(28) . . .
35.0(31) . . .
34.5(33) . . .
26.1(29) . . .
26.2(29) . . .
32.8(30) . . .
30.0(29) . . .
33.5(31) . . .
35.2(33) . . .
24.5(26) . . .
28.0(28) . . .
24.2(26) . . .
28.3(33) . . .
29.2(29) . . .
31.4(29) . . .
39.4(33) . . .
28.0(28) . . .
29.5(30) . . .
35.9(35) . . .
27.6(28) . . .
29.2(28) . . .
28.6(28) . . .
26.7(27) . . .
27.9(28) . . .
34.2(31) . . .
29.9(29) . . .
27.2(29) . . .
25.4(28) . . .
27.0(28) . . .
35.2(32) . . .
32.2(30) . . .
25.3(26) . . .
31.3(31) . . .
27.8(29) . . .
24.6(29) . . .
28.9(28) . . .
35.2(31) . . .
31.9(29) . . .
41.2(34) . . .
28.2(28) . . .
29.5(28) . . .
26.2(27) . . .
30.2(29) . . .
26.7(26) . . .
32.0(29) . . .
22.5(25) . . .
21.0(24) . . .
28.4(30) . . .
28.6(29) . . .
31.5(29) . . .
29.8(28) . . .
34.3(34) . . .
27.5(27) . . .
35.0(31) . . .
27.5(28) . . .
25.8(27) . . .
24.1(28) . . .
25.7(27) . . .
26.0(26) . . .
29.3(28) . . .
35.4(31) . . .
34.2(32) . . .
31.0(31) . . .
36.2(35) . . .
31.2(29) . . .
31.3(29) . . .
29.0(28) . . .
35.5(34) . . .
25.5(26) . . .
23.4(26) . . .
31.0(31) . . .
25.0(26) . . .
28.5(28) . . .
24.5(26) . . .
32.5(30) . . .
25.1(26) . . .
28.8(29) . . .
27.8(29) . . .
26.2(27) . . .
33.8(31) . . .
29.8(29) . . .
24.5(28) . . .
20.5(24) . . .
29.4(28) . . .
25.9(26) . . .
33.4(33) . . .
37.1(34) . . .
29.3(30) . . .
28.0(29) . . .
29.5(29) . . .
30.5(31) . . .
25.1(26) . . .
32.9(32) . . .
25.0(27) . . .
21.5(24) . . .
23.6(27) . . .
23.4(27) . . .
25.1(26) . . .
28.3(29) . . .
36.5(31) . . .
31.0(30) . . .
34.3(34) . . .
25.0(27) . . .
20.7(24) . . .
26.9(27) . . .
25.9(28) . . .
33.2(33) . . .
29.7(29) . . .
24.8(26) . . .
24.8(28) . . .
34.0(32) . . .
25.3(27) . . .
25.3(26) . . .
40.3(33) . . .
33.6(33) . . .
25.3(27) . . .
25.1(26) . . .
29.5(29) . . .
28.0(28) . . .
24.5(26) . . .
36.1(33) . . .
27.0(28) . . .
37(4) . . .
19.4(23) . . .
28.5(29) . . .
30.2(30) . . .
31.6(33) . . .
25.1(25) . . .
33.8(31) . . .
26.1(26) . . .
26.7(27) . . .
26.5(28) . . .
22.2(25) . . .
27.5(27) . . .
33.0(31) . . .
27.3(29) . . .
24.5(26) . . .
38.5(34) . . .
24.8(26) . . .
30.9(31) . . .
27.5(27) . . .
30.7(33) . . .
30.3(30) . . .
28.0(28) . . .
29.9(29) . . .
24.8(27) . . .
33.5(32) . . .
33.0(30) . . .
24.4(26) . . .
32.3(32) . . .
26.5(29) . . .
26.5(28) . . .
24.4(27) . . .
26.4(27) . . .
26.3(27) . . .
27.5(28) . . .
32.3(33) . . .
26.5(27) . . .
25.1(27) . . .
26.8(30) . . .
27.6(31) . . .
25.6(29) . . .
28.6(28) . . .
33.8(30) . . .
25.8(27) . . .
39(4) . . .
25.9(26) . . .
28.4(28) . . .
35.8(33) . . .
27.1(27) . . .
28.5(31) . . .
27.6(30) . . .
36.2(32) . . .
22.6(25) . . .
25.8(27) . . .
30.9(31) . . .
38(4) . . .
27.6(27) . . .
35.2(32) . . .
32.6(31) . . .
25.6(27) . . .
29.5(29) . . .
27.8(27) . . .
21.7(25) . . .
31.7(32) . . .
29.0(30) . . .
35.6(33) . . .
29.4(28) . . .
29.4(29) . . .
28.5(29) . . .
31.4(29) . . .
23.5(26) . . .
28.6(28) . . .
29.6(31) . . .
32.9(32) . . .
29.1(29) . . .
24.6(25) . . .
34.4(31) . . .
31.1(31) . . .
31.4(32) . . .
32.7(32) . . .
23.3(26) . . .
31.1(31) . . .
32.0(32) . . .
34.2(34) . . .
27.7(27) . . .
30.2(29) . . .
31.4(29) . . .
29.5(30) . . .
22.1(26) . . .
33.5(30) . . .
27.8(28) . . .
33.0(30) . . .
27.1(27) . . .
27.7(30) . . .
23.8(26) . . .
29.2(29) . . .
35.2(31) . . .
32.6(33) . . .
29.2(29) . . .
22.6(25) . . .
26.3(27) . . .
32.1(29) . . .
30.5(29) . . .
37.3(34) . . .
22.4(25) . . .
29.1(28) . . .
28.4(28) . . .
29.5(31) . . .
23.6(25) . . .
38.0(33) . . .
31.2(30) . . .
27.7(28) . . .
32.6(32) . . .
29.6(29) . . .
24.4(26) . . .
29.1(29) . . .
28.9(30) . . .
27.4(30) . . .
33.9(32) . . .
28.6(28) . . .
35.4(31) . . .
37.0(33) . . .
30.7(30) . . .
26.7(28) . . .
29.7(29) . . .
34.6(30) . . .
26.9(28) . . .
31.1(30) . . .
28.2(28) . . .
31.4(29) . . .
27.9(28) . . .
25.6(26) . . .
36.8(35) . . .
33.0(30) . . .
33.7(30) . . .
22.8(25) . . .
26.9(27) . . .
21.2(26) . . .
22.0(25) . . .
27.8(28) . . .
28.1(27) . . .
28.6(28) . . .
32.5(32) . . .
25.2(27) . . .
29.5(29) . . .
30.3(30) . . .
25.3(26) . . .
35.8(31) . . .
39.2(32) . . .
34.0(30) . . .
25.3(27) . . .
33.4(33) . . .
27.0(29) . . .
22.7(25) . . .
29.0(28) . . .
24.8(28) . . .
22.2(27) . . .
29.0(31) . . .
27.2(27) . . .
35.5(32) . . .
29.2(29) . . .
32.3(30) . . .
33.4(31) . . .
30.5(29) . . .
32.0(29) . . .
31.7(30) . . .
26.0(27) . . .
26.2(28) . . .
26.8(28) . . .
35.7(31) . . .
30.8(30) . . .
35.1(33) . . .
28.7(28) . . .
29.6(28) . . .
40.3(33) . . .
33.5(29) . . .
34.6(32) . . .
23.5(25) . . .
36.3(32) . . .
32.2(29) . . .
25.6(27) . . .
33.8(35) . . .
30.2(29) . . .
25.6(26) . . .
25.4(27) . . .
26.3(28) . . .
25.7(29) . . .
27.1(28) . . .
32.2(30) . . .
37.2(32) . . .
30.1(28) . . .
29.3(31) . . .
30.7(31) . . .
29.0(28) . . .
31.9(30) . . .
27.5(29) . . .
31.9(32) . . .
20.8(26) . . .
32.8(30) . . .
26.0(27) . . .
29.3(29) . . .
30.4(29) . . .
29.2(29) . . .
26.8(27) . . .
26.3(27) . . .
33.9(32) . . .
25.1(27) . . .
23.7(26) . . .
26.6(26) . . .
36.2(33) . . .
26.4(26) . . .
32.4(31) . . .
26.9(29) . . .
30.1(29) . . .
27.7(28) . . .
32.6(31) . . .
27.8(29) . . .
29.3(30) . . .
36.6(32) . . .
22.7(25) . . .
32.4(33) . . .
29.8(29) . . .
32.9(30) . . .
27.2(27) . . .
30.5(30) . . .
33.8(32) . . .
37.0(32) . . .
39.0(33) . . .
32.2(30) . . .
29.3(28) . . .
30.4(30) . . .
29.7(29) . . .
37.5(32) . . .
33.2(30) . . .
29.4(29) . . .
31.9(33) . . .
28.4(31) . . .
28.5(28) . . .
25.9(27) . . .
23.0(26) . . .
26.3(27) . . .
27.6(27) . . .
31.8(29) . . .
37.4(32) . . .
32.9(31) . . .
28.5(30) . . .
33.5(31) . . .
23.5(26) . . .
33.0(30) . . .
36.9(33) . . .
24.4(27) . . .
23.6(25) . . .
29.0(28) . . .
29.9(29) . . .
18.9(24) . . .
25.3(28) . . .
34.3(32) . . .
28.7(27) . . .
28.5(30) . . .
21.6(27) . . .
31.2(30) . . .
34.6(31) . . .
31.4(30) . . .
32.6(34) . . .
34.6(34) . . .
30.4(29) . . .
33.4(30) . . .
27.4(27) . . .
31.3(31) . . .
25.8(28) . . .
29.8(29) . . .
25.8(27) . . .
27.4(28) . . .
30.1(32) . . .
28.8(30) . . .
33.5(32) . . .
28.1(27) . . .
30.3(29) . . .
30.1(31) . . .
37(4) . . .
34.9(33) . . .
35.8(31) . . .
29.1(28) . . .
30.7(30) . . .
29.6(31) . . .
23.1(26) . . .
30.0(29) . . .
24.9(26) . . .
36.4(32) . . .
27.4(29) . . .
26.9(28) . . .
28.8(28) . . .
25.4(26) . . .
25.0(28) . . .
26.6(30) . . .
29.6(32) . . .
26.0(27) . . .
28.7(28) . . .
28.6(29) . . .
24.4(25) . . .
36.2(31) . . .
34.6(31) . . .
29.5(28) . . .
26.0(27) . . .
30.0(31) . . .
29.3(29) . . .
27.2(28) . . .
36.5(32) . . .
27.6(28) . . .
25.2(28) . . .
30.9(29) . . .
25.2(26) . . .
26.5(28) . . .
25.2(28) . . .
26.9(27) . . .
26.8(27) . . .
28.3(28) . . .
37.3(32) . . .
34.2(33) . . .
26.2(27) . . .
27.2(27) . . .
37.8(32) . . .
28.4(29) . . .
33.6(32) . . .
30.9(30) . . .
24.6(26) . . .
25.4(26) . . .
36.1(32) . . .
32.8(32) . . .
29.2(32) . . .
20.6(24) . . .
22.6(25) . . .
25.1(28) . . .
24.9(28) . . .
27.1(27) . . .
28.6(28) . . .
28.6(29) . . .
29.9(30) . . .
29.4(31) . . .
26.5(29) . . .
31.0(29) . . .
33.8(31) . . .
31.8(30) . . .
29.6(31) . . .
31.0(32) . . .
25.1(27) . . .
30.1(28) . . .
25.7(26) . . .
25.2(26) . . .
26.0(26) . . .
30.1(29) . . .
25.0(27) . . .
30.0(31) . . .
35.1(33) . . .
30.6(32) . . .
31.9(29) . . .
30.0(29) . . .
30.1(31) . . .
31.9(32) . . .
31.9(32) . . .
17.0(22) . . .
31.7(30) . . .
35.4(32) . . .
31.9(30) . . .
24.6(26) . . .
28.4(28) . . .
29.1(29) . . .
28.1(31) . . .
32.5(34) . . .
28.8(29) . . .
34.3(31) . . .
36.5(33) . . .
30.9(30) . . .
41(4) . . .
30.2(29) . . .
29.0(27) . . .
23.5(26) . . .
25.5(28) . . .
37.2(33) . . .
33.6(30) . . .
32.2(30) . . .
33.6(32) . . .
31.0(32) . . .
22.9(25) . . .
31.3(29) . . .
22.6(26) . . .
22.9(26) . . .
30.6(32) . . .
27.7(27) . . .
26.9(27) . . .
27.1(27) . . .
22.0(26) . . .
29.2(31) . . .
29.9(30) . . .
33.0(30) . . .
36.5(31) . . .
32.9(30) . . .
29.2(29) . . .
28.8(29) . . .
28.5(27) . . .
31.4(31) . . .
34.1(31) . . .
30.4(29) . . .
26.1(28) . . .
25.4(26) . . .
24.1(26) . . .
22.8(27) . . .
31.4(31) . . .
29.3(28) . . .
29.9(29) . . .
38.8(32) . . .
32.4(31) . . .
25.3(27) . . .
27.1(28) . . .
32.6(30) . . .
29.5(29) . . .
28.6(30) . . .
18.6(23) . . .
25.5(27) . . .
24.8(26) . . .
33.0(32) . . .
33.3(32) . . .
26.9(27) . . .
25.8(26) . . .
25.7(27) . . .
28.0(29) . . .
19.6(22) . . .
33.7(30) . . .
34.6(31) . . .
31.3(28) . . .
30.6(29) . . .
34.8(33) . . .
30.1(30) . . .
21.3(24) . . .
32.2(31) . . .
26.6(27) . . .
29.1(30) . . .
32.0(30) . . .
29.2(29) . . .
31.8(30) . . .
24.2(26) . . .
26.6(28) . . .
33.1(31) . . .
25.3(27) . . .
29.5(28) . . .
31.8(31) . . .
25.7(27) . . .
33.0(33) . . .
33.0(30) . . .
21.8(24) . . .
21.0(26) . . .
23.2(26) . . .
31.5(31) . . .
30.1(29) . . .
21.7(26) . . .
28.8(31) . . .
42(4) . . .
26.5(27) . . .
23.9(26) . . .
34.3(32) . . .
30.4(28) . . .
30.3(28) . . .
29.0(28) . . .
30.3(29) . . .
19.4(24) . . .
32.2(33) . . .
27.2(28) . . .
28.9(31) . . .
33.2(30) . . .
33.7(32) . . .
27.0(28) . . .
26.9(28) . . .
32.1(30) . . .
32.2(29) . . .
30.6(29) . . .
32.9(34) . . .
27.8(27) . . .
33.1(30) . . .
35.3(32) . . .
22.3(26) . . .
32.7(35) . . .
32.0(32) . . .
29.9(29) . . .
27.5(28) . . .
31.0(31) . . .
23.5(27) . . .
36.0(34) . . .
24.2(26) . . .
32.7(30) . . .
31.0(30) . . .
30.2(31) . . .
34.8(34) . . .
29.4(29) . . .
25.9(27) . . .
32.9(33) . . .
26.4(29) . . .
18.9(23) . . .
26.8(27) . . .
28.7(28) . . .
24.4(26) . . .
19.1(24) . . .
25.5(27) . . .
25.7(27) . . .
20.6(24) . . .
33.2(31) . . .
33.1(31) . . .
29.4(29) . . .
25.4(27) . . .
24.2(28) . . .
27.1(28) . . .
32.9(30) . . .
28.9(28) . . .
36.5(32) . . .
37.5(33) . . .
21.5(24) . . .
21.8(27) . . .
23.9(27) . . .
29.6(29) . . .
30.4(30) . . .
27.1(28) . . .
20.1(23) . . .
25.5(27) . . .
25.3(26) . . .
27.4(27) . . .
29.7(30) . . .
26.6(28) . . .
24.8(26) . . .
31.5(29) . . .
35.1(33) . . .
24.4(25) . . .
31.6(31) . . .
30.3(30) . . .
21.9(25) . . .
31.6(30) . . .
26.3(28) . . .
29.7(30) . . .
28.3(28) . . .
23.7(26) . . .
32.7(31) . . .
32.3(33) . . .
28.7(30) . . .
23.0(25) . . .
29.5(28) . . .
30.7(29) . . .
33.6(33) . . .
25.4(26) . . .
33.5(30) . . .
27.4(28) . . .
24.9(26) . . .
19.7(23) . . .
27.7(28) . . .
26.4(27) . . .
22.5(26) . . .
31.8(32) . . .
21.7(25) . . .
23.0(27) . . .
21.3(24) . . .
33.6(33) . . .
24.1(27) . . .
25.7(27) . . .
32.2(31) . . .
27.8(27) . . .
24.4(27) . . .
32.5(31) . . .
32.2(30) . . .
26.6(27) . . .
31.5(29) . . .
29.2(31) . . .
27.2(30) . . .
26.2(28) . . .
22.6(25) . . .
36.9(32) . . .
26.0(26) . . .
32.9(32) . . .
31.1(30) . . .
41.4(33) . . .
33.6(30) . . .
25.4(26) . . .
31.4(31) . . .
24.6(25) . . .
30.5(28) . . .
32.3(29) . . .
22.2(24) . . .
34.6(33) . . .
34.4(33) . . .
36.8(31) . . .
32.6(30) . . .
26.4(26) . . .
29.3(30) . . .
30.7(30) . . .
32.0(30) . . .
25.6(26) . . .
31.2(32) . . .
23.2(26) . . .
30.8(30) . . .
27.3(27) . . .
29.0(28) . . .
34.7(32) . . .
35.7(33) . . .
26.3(30) . . .
24.0(26) . . .
30.6(33) . . .
26.3(27) . . .
29.1(29) . . .
31.8(31) . . .
31.7(29) . . .
26.9(28) . . .
25.5(29) . . .
32.5(32) . . .
27.7(28) . . .
26.8(27) . . .
23.1(25) . . .
33.4(34) . . .
31.4(30) . . .
38.5(34) . . .
34.9(31) . . .
24.5(26) . . .
25.9(28) . . .
21.3(24) . . .
23.9(25) . . .
31.2(29) . . .
28.5(32) . . .
24.2(28) . . .
26.0(28) . . .
33.2(30) . . .
32.7(30) . . .
32.4(31) . . .
32.5(31) . . .
29.7(29) . . .
28.8(29) . . .
25.1(26) . . .
29.7(28) . . .
34.8(33) . . .
32.5(31) . . .
30.0(28) . . .
23.8(25) . . .
27.8(30) . . .
28.9(31) . . .
35.0(33) . . .
32.5(30) . . .
27.4(28) . . .
25.3(27) . . .
29.9(30) . . .
27.6(28) . . .
26.7(27) . . .
27.6(27) . . .
32.2(30) . . .
35.7(33) . . .
29.7(29) . . .
26.5(27) . . .
29.7(28) . . .
33.9(33) . . .
29.1(30) . . .
31.0(29) . . .
25.4(26) . . .
35.8(33) . . .
27.1(27) . . .
30.4(31) . . .
33.1(32) . . .
31.2(29) . . .
28.7(29) . . .
25.7(28) . . .
28.9(29) . . .
16.3(21) . . .
32.9(30) . . .
22.7(25) . . .
24.1(25) . . .
32.3(31) . . .
30.4(29) . . .
25.1(26) . . .
27.8(29) . . .
31.2(33) . . .
31.4(30) . . .
28.4(30) . . .
30.4(29) . . .
25.0(26) . . .
27.1(30) . . .
25.8(27) . . .
29.6(28) . . .
32.0(29) . . .
25.7(26) . . .
30.2(32) . . .
28.4(31) . . .
15.1(21) . . .
31.2(29) . . .
38.6(34) . . .
30.9(31) . . .
26.5(28) . . .
35.7(32) . . .
29.0(28) . . .
26.7(28) . . .
26.2(29) . . .
24.5(28) . . .
29.2(29) . . .
30.0(30) . . .
27.4(28) . . .
25.8(28) . . .
28.6(30) . . .
28.4(28) . . .
40.1(33) . . .
25.3(25) . . .
25.1(27) . . .
30.9(29) . . .
34.5(30) . . .
27.9(27) . . .
25.3(28) . . .
28.7(31) . . .
24.1(26) . . .
34.9(31) . . .
25.7(27) . . .
40(4) . . .
28.9(27) . . .
33.4(31) . . .
28.3(28) . . .
25.2(26) . . .
29.3(28) . . .
29.3(31) . . .
25.4(28) . . .
20.3(25) . . .
24.3(29) . . .
27.5(30) . . .
26.8(27) . . .
27.3(27) . . .
37.5(33) . . .
37.4(33) . . .
27.8(29) . . .
29.4(30) . . .
28.7(28) . . .
34.8(31) . . .
33.1(32) . . .
25.2(26) . . .
36.8(32) . . .
17.6(22) . . .
38.5(32) . . .
22.1(25) . . .
27.5(31) . . .
23.0(25) . . .
21.8(24) . . .
26.2(27) . . .
33.7(32) . . .
31.7(35) . . .
31.5(31) . . .
26.6(27) . . .
30.4(29) . . .
31.4(31) . . .
29.8(31) . . .
33.1(30) . . .
32.1(30) . . .
36.8(32) . . .
28.1(29) . . .
30.5(31) . . .
31.4(29) . . .
28.5(28) . . .
27.0(27) . . .
29.8(31) . . .
28.5(31) . . .
25.4(27) . . .
25.0(26) . . .
24.5(26) . . .
24.0(27) . . .
30.1(31) . . .
25.9(28) . . .
24.8(26) . . .
25.4(27) . . .
32.0(31) . . .
35.5(34) . . .
25.5(27) . . .
27.2(27) . . .
28.7(28) . . .
27.7(29) . . .
17.9(22) . . .
30.3(29) . . .
28.4(28) . . .
29.2(29) . . .
29.4(30) . . .
35.8(32) . . .
29.3(28) . . .
26.8(27) . . .
21.8(25) . . .
30.8(33) . . .
29.8(28) . . .
29.4(30) . . .
31.7(30) . . .
28.5(29) . . .
33.3(33) . . .
29.7(30) . . .
35.6(31) . . .
31.5(29) . . .
26.8(29) . . .
31.2(32) . . .
31.7(31) . . .
26.0(27) . . .
31.7(30) . . .
30.8(30) . . .
30.6(32) . . .
27.7(29) . . .
32.1(30) . . .
30.2(30) . . .
31(4) . . .
33.3(35) . . .
27.0(28) . . .
29.9(29) . . .
24.4(27) . . .
20.8(25) . . .
28.5(32) . . .
29.1(29) . . .
33.0(29) . . .
31.0(29) . . .
36.2(34) . . .
27.3(28) . . .
37.9(34) . . .
38.8(32) . . .
31.8(30) . . .
28.4(27) . . .
28.4(26) . . .
25.4(26) . . .
35.5(31) . . .
24.1(27) . . .
30.2(32) . . .
27.2(29) . . .
35.4(33) . . .
33.3(31) . . .
30.6(31) . . .
30.8(32) . . .
22.5(26) . . .
30.4(29) . . .
35.3(31) . . .
33.3(30) . . .
29.0(31) . . .
22.9(28) . . .
27.8(28) . . .
30.2(29) . . .
26.6(28) . . .
27.9(30) . . .
30.6(30) . . .
31.8(30) . . .
28.8(29) . . .
26.7(28) . . .
23.0(28) . . .
20.1(25) . . .
25.7(27) . . .
32.6(31) . . .
28.0(27) . . .
33.5(33) . . .
32.1(33) . . .
22.3(25) . . .
22.9(25) . . .
20.4(24) . . .
27.9(31) . . .
31.9(30) . . .
31.6(30) . . .
27.4(27) . . .
24.5(26) . . .
31.4(32) . . .
29.9(29) . . .
30.6(29) . . .
24.9(27) . . .
36.6(33) . . .
33.1(33) . . .
32.0(31) . . .
19.9(23) . . .
25.1(28) . . .
35.3(34) . . .
32.8(31) . . .
25.9(26) . . .
30.4(29) . . .
32.7(31) . . .
23.4(28) . . .
28.7(29) . . .
28.9(29) . . .
29.5(28) . . .
27.7(27) . . .
32.4(30) . . .
35.6(31) . . .
31.8(31) . . .
31.3(29) . . .
31.8(30) . . .
24.8(28) . . .
27.7(28) . . .
27.7(28) . . .
26.9(28) . . .
31.1(31) . . .
29.5(30) . . .
35(4) . . .
24.7(25) . . .
32.5(30) . . .
32.1(31) . . .
23.1(24) . . .
27.9(28) . . .
25.4(27) . . .
24.4(26) . . .
25.8(28) . . .
28.4(32) . . .
25.1(26) . . .
29.7(28) . . .
28.9(28) . . .
32.0(30) . . .
33.8(30) . . .
38.5(35) . . .
28.8(29) . . .
32.8(31) . . .
31.7(31) . . .
27.2(28) . . .
27.0(29) . . .
29.5(28) . . .
22.3(26) . . .
25.4(27) . . .
22.9(25) . . .
41(4) . . .
30.6(29) . . .
25.9(28) . . .
21.0(24) . . .
25.1(27) . . .
34.5(33) . . .
31.3(29) . . .
35.7(32) . . .
28.5(30) . . .
23.4(27) . . .
29.0(29) . . .
25.4(26) . . .
40.4(34) . . .
28.1(29) . . .
27.3(28) . . .
25.2(27) . . .
28.5(28) . . .
30.5(30) . . .
21.9(25) . . .
30.2(29) . . .
22.9(25) . . .
27.2(27) . . .
30.9(30) . . .
27.5(28) . . .
24.5(27) . . .
32.3(30) . . .
24.5(26) . . .
29.0(28) . . .
24.8(28) . . .
31.4(32) . . .
27.2(28) . . .
30.3(28) . . .
40.3(34) . . .
38.4(35) . . .
31.0(31) . . .
33.6(31) . . .
27.9(29) . . .
33.0(32) . . .
26.4(30) . . .
29.7(29) . . .
32.2(30) . . .
30.4(29) . . .
30.7(30) . . .
28.4(31) . . .
27.6(29) . . .
21.7(25) . . .
33.1(31) . . .
34.9(30) . . .
37.6(32) . . .
25.6(27) . . .
32.8(30) . . .
27.5(29) . . .
23.6(25) . . .
28.4(30) . . .
27.1(27) . . .
27.3(28) . . .
31.0(31) . . .
33.5(33) . . .
27.3(29) . . .
28.1(29) . . .
26.5(28) . . .
31.2(30) . . .
27.7(29) . . .
25.7(27) . . .
31.5(30) . . .
39.7(33) . . .
28.3(27) . . .
29.7(29) . . .
25.9(26) . . .
29.6(29) . . .
32.3(29) . . .
28.5(28) . . .
25.6(29) . . .
25.4(27) . . .
33.4(30) . . .
35.3(31) . . .
27.2(29) . . .
27.1(31) . . .
26.6(29) . . .
30.4(29) . . .
23.7(27) . . .
31.7(30) . . .
35.8(34) . . .
34.1(31) . . .
27.7(27) . . .
31.5(30) . . .
37.8(35) . . .
29.3(30) . . .
31.7(31) . . .
25.7(26) . . .
31.0(29) . . .
28.0(29) . . .
30.4(31) . . .
30.8(29) . . .
23.8(25) . . .
31.3(30) . . .
38(4) . . .
23.6(27) . . .
24.8(26) . . .
26.5(27) . . .
30.3(29) . . .
28.5(29) . . .
32.6(30) . . .
34.3(31) . . .
33.5(30) . . .
22.3(26) . . .
32.8(31) . . .
34.0(32) . . .
25.6(26) . . .
30.5(29) . . .
36.3(33) . . .
30.0(30) . . .
32.2(31) . . .
27.9(28) . . .
24.5(27) . . .
38.0(34) . . .
26.2(28) . . .
27.1(28) . . .
31.7(31) . . .
29.5(28) . . .
29.3(30) . . .
28.7(28) . . .
34.2(32) . . .
29.8(28) . . .
27.5(28) . . .
35.7(33) . . .
29.9(30) . . .
27.6(30) . . .
29.2(29) . . .
29.3(28) . . .
33.2(33) . . .
30.7(31) . . .
44(4) . . .
26.3(26) . . .
29.5(28) . . .
26.5(27) . . .
25.1(27) . . .
25.8(27) . . .
36.0(32) . . .
30.7(29) . . .
35.5(31) . . .
27.3(27) . . .
34.0(32) . . .
26.4(27) . . .
30.8(29) . . .
33.9(32) . . .
28.1(28) . . .
29.7(29) . . .
32.9(30) . . .
30.9(29) . . .
25.8(27) . . .
26.8(31) . . .
26.6(27) . . .
27.7(27) . . .
28.9(28) . . .
37.8(34) . . .
35.7(34) . . .
26.8(27) . . .
35.2(31) . . .
28.1(30) . . .
27.9(29) . . .
37.0(34) . . .
34.2(30) . . .
37.2(32) . . .
25.3(27) . . .
23.9(28) . . .
20.4(24) . . .
33.1(30) . . .
28.3(28) . . .
28.0(28) . . .
29.5(32) . . .
22.2(24) . . .
28.2(27) . . .
32.3(30) . . .
24.4(29) . . .
28.3(31) . . .
28.5(27) . . .
31.8(30) . . .
25.8(27) . . .
22.4(25) . . .
28.7(32) . . .
23.8(26) . . .
39.5(33) . . .
29.3(28) . . .
29.4(30) . . .
29.5(30) . . .
23.6(26) . . .
26.3(27) . . .
26.4(27) . . .
33.5(34) . . .
28.8(29) . . .
21.6(24) . . .
33.1(30) . . .
33.0(30) . . .
28.4(29) . . .
33.7(30) . . .
35.9(33) . . .
25.1(27) . . .
28.7(29) . . .
30.9(30) . . .
25.8(26) . . .
29.0(28) . . .
27.6(28) . . .
22.7(25) . . .
27.4(28) . . .
33.1(31) . . .
34.6(32) . . .
26.4(27) . . .
27.5(28) . . .
26.3(30) . . .
25.8(27) . . .
27.0(27) . . .
30.0(30) . . .
30.3(30) . . .
30.4(29) . . .
31.4(32) . . .
29.8(28) . . .
32.3(30) . . .
30.9(32) . . .
23.2(25) . . .
27.5(30) . . .
28.1(28) . . .
31.2(30) . . .
26.6(29) . . .
27.8(29) . . .
29.5(29) . . .
27.8(28) . . .
34.8(31) . . .
22.5(26) . . .
29.3(33) . . .
23.8(26) . . .
34.3(31) . . .
38.4(32) . . .
28.6(29) . . .
20.9(23) . . .
30.5(31) . . .
29.4(30) . . .
33.3(31) . . .
35.0(31) . . .
29.1(28) . . .
24.8(28) . . .
28.1(28) . . .
27.6(27) . . .
28.3(27) . . .
34.0(32) . . .
32.4(32) . . .
28.7(29) . . .
31.1(30) . . .
23.9(25) . . .
20.3(23) . . .
23.3(27) . . .
27.5(27) . . .
33.6(30) . . .
35.2(33) . . .
28.7(29) . . .
22.5(25) . . .
26.9(28) . . .
25.5(27) . . .
21.8(26) . . .
25.8(26) . . .
32.6(30) . . .
26.7(27) . . .
29.1(28) . . .
27.6(29) . . .
29.8(30) . . .
33.7(30) . . .
24.0(26) . . .
23.2(26) . . .
30.0(28) . . .
34.7(33) . . .
24.0(26) . . .
32.3(31) . . .
30.2(31) . . .
29.7(31) . . .
25.5(28) . . .
27.0(28) . . .
32.8(30) . . .
29.2(30) . . .
33.0(32) . . .
28.9(29) . . .
26.9(28) . . .
32.8(31) . . .
22.9(25) . . .
27.6(33) . . .
31.1(33) . . .
25.8(26) . . .
26.5(28) . . .
31.6(31) . . .
24.4(28) . . .
39.2(34) . . .
31.8(30) . . .
27.0(28) . . .
28.5(28) . . .
30.4(30) . . .
28.6(28) . . .
32.2(30) . . .
20.3(23) . . .
28.2(30) . . .
32.5(33) . . .
29.0(29) . . .
22.3(24) . . .
29.1(29) . . .
28.6(32) . . .
27.8(29) . . .
28.4(28) . . .
30.4(29) . . .
31.7(30) . . .
40.3(35) . . .
28.8(27) . . .
32.3(29) . . .
31.1(30) . . .
27.8(28) . . .
26.9(28) . . .
29.6(29) . . .
27.7(29) . . .
32.7(30) . . .
23.4(27) . . .
28.6(31) . . .
22.6(25) . . .
32.2(30) . . .
37.4(33) . . .
25.1(26) . . .
33.3(33) . . .
27.8(27) . . .
28.2(28) . . .
22.9(25) . . .
34.4(32) . . .
27.0(28) . . .
28.0(28) . . .
32.6(29) . . .
24.0(26) . . .
34.8(32) . . .
27.3(27) . . .
31.4(30) . . .
30.6(29) . . .
30.0(29) . . .
28.4(29) . . .
26.7(29) . . .
31.1(30) . . .
27.2(27) . . .
22.2(25) . . .
20.3(24) . . .
35.0(33) . . .
32.5(30) . . .
26.5(27) . . .
34.9(32) . . .
35.0(31) . . .
35.9(33) . . .
26.2(27) . . .
21.7(24) . . .
31.3(31) . . .
29.7(33) . . .
24.8(26) . . .
34.8(32) . . .
35.1(31) . . .
29.8(30) . . .
33.2(31) . . .
31.6(31) . . .
21.3(25) . . .
30.4(29) . . .
27.0(27) . . .
24.0(25) . . .
28.5(28) . . .
29.6(28) . . .
38.4(33) . . .
23.2(26) . . .
32.6(33) . . .
37.2(33) . . .
28.9(29) . . .
23.8(25) . . .
21.6(26) . . .
21.1(23) . . .
33.9(32) . . .
21.8(24) . . .
26.8(27) . . .
24.4(27) . . .
30.0(31) . . .
27.0(29) . . .
26.9(27) . . .
32.7(29) . . .
39.8(33) . . .
26.1(27) . . .
26.5(30) . . .
31.3(30) . . .
31.7(30) . . .
26.4(27) . . .
28.2(28) . . .
32.2(30) . . .
29.2(28) . . .
22.6(24) . . .
31.0(30) . . .
31.1(32) . . .
29.3(28) . . .
36.3(32) . . .
29.7(28) . . .
32.4(30) . . .
37.7(34) . . .
28.7(29) . . .
37.3(32) . . .
23.1(25) . . .
29.4(30) . . .
37.1(34) . . .
29.1(29) . . .
38.5(33) . . .
37.1(34) . . .
28.8(31) . . .
21.8(25) . . .
27.1(27) . . .
26.2(27) . . .
20.2(24) . . .
26.8(30) . . .
21.8(25) . . .
25.4(27) . . .
29.5(28) . . .
26.5(29) . . .
28.6(30) . . .
27.5(29) . . .
32.4(30) . . .
38.4(33) . . .
30.3(31) . . .
29.9(31) . . .
32.8(30) . . .
31.1(30) . . .
27.8(27) . . .
30.1(29) . . .
31.8(32) . . .
29.4(29) . . .
28.7(28) . . .
31.0(29) . . .
25.6(27) . . .
35.4(34) . . .
33.5(31) . . .
21.7(25) . . .
35.0(31) . . .
24.1(27) . . .
19.3(24) . . .
26.3(29) . . .
27.0(27) . . .
23.2(25) . . .
28.6(28) . . .
32.2(32) . . .
26.8(29) . . .
32.5(30) . . .
28.5(28) . . .
27.8(28) . . .
29.1(29) . . .
23.9(26) . . .
29.7(28) . . .
22.9(25) . . .
26.7(28) . . .
24.5(26) . . .
28.2(28) . . .
32.1(30) . . .
34.1(34) . . .
32.3(31) . . .
24.0(25) . . .
23.1(25) . . .
24.2(26) . . .
29.5(29) . . .
21.5(25) . . .
23.4(26) . . .
22.5(25) . . .
31.0(29) . . .
24.0(25) . . .
36.7(33) . . .
30.0(30) . . .
30.2(29) . . .
29.9(29) . . .
28.3(31) . . .
30.1(31) . . .
29.6(29) . . .
27.7(28) . . .
28.9(29) . . .
31.8(32) . . .
33.6(34) . . .
22.1(25) . . .
24.4(25) . . .
28.7(27) . . .
27.9(28) . . .
35.4(33) . . .
31.3(29) . . .
32.7(30) . . .
19.6(23) . . .
25.0(27) . . .
24.2(26) . . .
24.8(27) . . .
18.7(22) . . .
35.4(32) . . .
27.5(27) . . .
36.7(35) . . .
32.2(30) . . .
28.8(28) . . .
23.3(25) . . .
34.3(34) . . .
26.9(30) . . .
25.9(28) . . .
33.4(30) . . .
24.0(26) . . .
32.0(31) . . .
26.9(29) . . .
25.4(28) . . .
30.9(29) . . .
29.7(29) . . .
25.5(29) . . .
23.1(26) . . .
22.9(25) . . .
32.7(29) . . .
31.4(30) . . .
24.4(25) . . .
29.8(30) . . .
23.6(28) . . .
30.0(28) . . .
31.5(31) . . .
22.8(25) . . .
28.1(27) . . .
28.2(27) . . .
22.5(25) . . .
28.2(27) . . .
34.3(34) . . .
28.3(28) . . .
31.1(30) . . .
32.8(31) . . .
27.3(31) . . .
19.9(25) . . .
28.4(30) . . .
25.2(26) . . .
26.6(27) . . .
27.4(29) . . .
24.0(28) . . .
31.2(30) . . .
25.6(26) . . .
27.1(28) . . .
33.6(34) . . .
29.1(30) . . .
31.9(30) . . .
31.7(29) . . .
26.9(28) . . .
31.6(31) . . .
25.6(26) . . .
29.1(30) . . .
29.1(28) . . .
34.9(31) . . .
19.3(22) . . .
25.1(26) . . .
33.9(31) . . .
24.1(26) . . .
36.5(32) . . .
30.6(29) . . .
36.4(33) . . .
33.0(31) . . .
29.8(28) . . .
26.3(29) . . .
27.5(28) . . .
29.0(28) . . .
33.3(30) . . .
34.7(31) . . .
37.2(32) . . .
26.8(27) . . .
26.8(30) . . .
22.8(25) . . .
33.9(30) . . .
31.7(30) . . .
29.5(30) . . .
25.5(28) . . .
28.6(28) . . .
34.0(31) . . .
27.7(28) . . .
28.1(30) . . .
30.6(30) . . .
30.2(29) . . .
27.0(27) . . .
27.6(27) . . .
32.3(32) . . .
32.3(32) . . .
27.5(28) . . .
30.9(29) . . .
33.5(31) . . .
34.4(34) . . .
25.6(27) . . .
24.7(26) . . .
28.2(28) . . .
26.6(27) . . .
25.4(29) . . .
19.5(24) . . .
20.6(23) . . .
32.8(31) . . .
31.0(31) . . .
27.0(31) . . .
24.3(28) . . .
30.6(29) . . .
24.4(26) . . .
24.9(28) . . .
27.1(29) . . .
23.2(25) . . .
32.0(30) . . .
28.0(27) . . .
30.8(31) . . .
31.8(33) . . .
33.3(33) . . .
31.0(29) . . .
25.5(26) . . .
33.2(31) . . .
29.1(29) . . .
27.3(28) . . .
33.6(30) . . .
29.6(30) . . .
33.3(31) . . .
25.8(28) . . .
24.9(26) . . .
33.0(30) . . .
33.6(32) . . .
26.7(28) . . .
29.4(29) . . .
31.4(29) . . .
38.8(33) . . .
25.2(27) . . .
19.9(25) . . .
25.0(28) . . .
26.8(27) . . .
23.6(26) . . .
34.3(32) . . .
25.2(28) . . .
28.1(28) . . .
37.1(31) . . .
31.6(32) . . .
28.8(31) . . .
29.8(31) . . .
30.7(29) . . .
27.0(27) . . .
31.4(29) . . .
35.6(31) . . .
28.1(31) . . .
36(4) . . .
35.7(31) . . .
34.6(32) . . .
22.1(28) . . .
26.8(28) . . .
28.9(29) . . .
26.0(27) . . .
30.1(29) . . .
27.8(28) . . .
23.8(26) . . .
33.2(31) . . .
32.0(29) . . .
26.9(27) . . .
24.4(26) . . .
28.1(29) . . .
28.5(28) . . .
41.9(34) . . .
27.5(27) . . .
20.2(23) . . .
28.9(28) . . .
25.6(28) . . .
26.2(27) . . .
33.5(31) . . .
24.2(25) . . .
36.7(34) . . .
34.7(32) . . .
29.9(28) . . .
32.8(30) . . .
31.3(31) . . .
31.4(32) . . .
28.5(30) . . .
32.1(30) . . .
35.7(32) . . .
28.0(28) . . .
32.0(30) . . .
34.6(30) . . .
25.2(27) . . .
27.6(30) . . .
29.8(29) . . .
32.2(31) . . .
31.3(29) . . .
27.2(28) . . .
26.8(27) . . .
27.0(29) . . .
34.2(32) . . .
25.7(26) . . .
23.9(25) . . .
25.0(26) . . .
27.5(30) . . .
26.2(27) . . .
28.5(28) . . .
31.0(29) . . .
29.5(29) . . .
30.3(30) . . .
29.3(31) . . .
24.6(26) . . .
25.2(27) . . .
27.3(31) . . .
23.5(25) . . .
35.2(32) . . .
30.0(28) . . .
29.9(29) . . .
30.4(29) . . .
26.5(27) . . .
30.4(31) . . .
35.3(31) . . .
29.8(28) . . .
33.0(31) . . .
28.6(29) . . .
30.9(29) . . .
25.6(27) . . .
25.2(27) . . .
29.4(30) . . .
20.4(23) . . .
24.3(27) . . .
28.3(28) . . .
32.3(31) . . .
31.0(30) . . .
27.0(28) . . .
29.4(29) . . .
35.7(31) . . .
24.7(27) . . .
27.5(28) . . .
29.8(30) . . .
28.7(29) . . .
24.3(26) . . .
28.4(28) . . .
31.0(30) . . .
30.9(30) . . .
31.5(29) . . .
29.6(28) . . .
31.3(29) . . .
31.3(33) . . .
30.5(30) . . .
35.0(31) . . .
27.8(27) . . .
31.4(30) . . .
29.3(30) . . .
33.9(32) . . .
28.9(30) . . .
27.4(27) . . .
29.4(29) . . .
29.9(31) . . .
36.5(32) . . .
36.0(31) . . .
32.0(31) . . .
33.1(31) . . .
32.4(32) . . .
29.4(31) . . .
22.7(25) . . .
22.8(25) . . .
26.6(29) . . .
27.3(29) . . .
26.9(28) . . .
28.2(28) . . .
23.5(25) . . .
25.8(28) . . .
29.6(31) . . .
28.8(29) . . .
30.5(29) . . .
28.4(27) . . .
30.9(30) . . .
35.0(33) . . .
32.3(31) . . .
31.9(29) . . .
31.9(29) . . .
30.2(30) . . .
26.2(27) . . .
26.6(26) . . .
32.5(30) . . .
33.4(30) . . .
21.5(24) . . .
32.0(30) . . .
28.3(27) . . .
32.1(29) . . .
31.8(30) . . .
28.2(30) . . .
35.1(32) . . .
28.8(27) . . .
33.4(30) . . .
33.0(30) . . .
27.2(29) . . .
19.4(24) . . .
27.6(30) . . .
38.2(32) . . .
28.7(27) . . .
37(4) . . .
30.7(30) . . .
30.2(30) . . .
33.2(30) . . .
35.5(34) . . .
26.0(28) . . .
21.6(25) . . .
27.3(27) . . .
29.1(28) . . .
31.5(31) . . .
26.5(28) . . .
24.1(26) . . .
38.0(32) . . .
26.1(26) . . .
20.3(23) . . .
25.4(29) . . .
25.9(28) . . .
24.0(26) . . .
29.4(28) . . .
26.1(26) . . .
34.5(32) . . .
29.4(31) . . .
29.9(28) . . .
21.6(25) . . .
24.0(26) . . .
24.1(26) . . .
26.2(28) . . .
24.1(25) . . .
31.3(30) . . .
25.2(27) . . .
18.5(22) . . .
29.3(30) . . .
27.6(28) . . .
25.4(27) . . .
25.6(28) . . .
33.5(31) . . .
27.2(27) . . .
27.2(27) . . .
26.9(29) . . .
28.3(30) . . .
26.1(26) . . .
33.6(31) . . .
23.8(25) . . .
31.6(31) . . .
33.8(31) . . .
37.7(32) . . .
28.9(28) . . .
26.6(27) . . .
20.4(24) . . .
28.3(32) . . .
21.0(23) . . .
29.0(28) . . .
29.7(29) . . .
27.1(28) . . .
29.5(28) . . .
32.9(31) . . .
23.0(25) . . .
25.6(26) . . .
32.7(31) . . .
34.8(33) . . .
33.9(32) . . .
28.5(28) . . .
28.9(28) . . .
31.1(31) . . .
27.8(29) . . .
29.1(29) . . .
26.5(27) . . .
34.7(31) . . .
28.1(29) . . .
36.1(34) . . .
30.6(29) . . .
32.4(30) . . .
29.5(29) . . .
24.0(27) . . .
28.3(31) . . .
26.1(27) . . .
34.0(31) . . .
28.8(29) . . .
27.8(29) . . .
25.0(27) . . .
23.2(25) . . .
27.5(28) . . .
37.6(32) . . .
31.0(30) . . .
25.6(25) . . .
29.8(28) . . .
22.1(25) . . .
26.6(28) . . .
28.8(30) . . .
28.7(28) . . .
35.9(31) . . .
39.5(33) . . .
31.1(30) . . .
33.3(34) . . .
34.4(32) . . .
28.4(28) . . .
32.5(31) . . .
28.4(29) . . .
24.9(29) . . .
26.3(29) . . .
29.7(28) . . .
26.3(27) . . .
35.4(34) . . .
19.5(24) . . .
25.9(27) . . .
34.5(31) . . .
26.8(27) . . .
35.3(31) . . .
29.1(30) . . .
29.5(29) . . .
29.9(28) . . .
32.5(30) . . .
24.0(26) . . .
22.3(25) . . .
25.4(26) . . .
36.7(31) . . .
29.1(28) . . .
25.9(28) . . .
32.3(32) . . .
26.8(27) . . .
25.5(26) . . .
23.7(26) . . .
30.6(30) . . .
30.3(30) . . .
23.7(26) . . .
27.4(27) . . .
32.2(30) . . .
32.9(29) . . .
33.1(30) . . .
25.9(27) . . .
25.3(26) . . .
31.5(31) . . .
29.5(30) . . .
32.2(32) . . .
28.0(28) . . .
31.2(29) . . .
27.9(28) . . .
29.2(30) . . .
32.1(31) . . .
27.9(27) . . .
31.4(30) . . .
23.5(25) . . .
29.5(31) . . .
30.4(32) . . .
26.0(27) . . .
27.1(27) . . .
27.3(28) . . .
29.0(29) . . .
31.9(29) . . .
30.4(29) . . .
23.0(25) . . .
33.1(32) . . .
25.9(28) . . .
24.6(26) . . .
32.6(30) . . .
32.0(30) . . .
31.2(32) . . .
22.3(27) . . .
24.2(26) . . .
30.2(28) . . .
35.3(32) . . .
24.6(26) . . .
27.8(31) . . .
19.4(24) . . .
27.2(27) . . .
25.7(27) . . .
26.8(28) . . .
29.2(30) . . .
31.6(32) . . .
31.1(29) . . .
25.6(27) . . .
27.7(31) . . .
24.6(27) . . .
28.8(29) . . .
22.0(24) . . .
25.9(28) . . .
30.0(31) . . .
26.8(28) . . .
29.0(30) . . .
29.0(28) . . .
28.2(28) . . .
31.9(31) . . .
26.4(28) . . .
23.2(26) . . .
31.6(29) . . .
24.1(26) . . .
31.0(30) . . .
29.5(31) . . .
32.6(30) . . .
24.8(27) . . .
35.8(33) . . .
32.0(30) . . .
26.5(28) . . .
21.5(26) . . .
32.3(30) . . .
21.7(24) . . .
29.3(30) . . .
34.1(31) . . .
27.8(27) . . .
36.7(32) . . .
38.0(35) . . .
22.3(28) . . .
30.7(32) . . .
28.7(28) . . .
30.2(28) . . .
27.0(29) . . .
24.6(27) . . .
32.5(30) . . .
39.1(32) . . .
30.6(29) . . .
31.4(32) . . .
24.5(28) . . .
30.4(29) . . .
33.9(30) . . .
26.2(27) . . .
31.8(30) . . .
29.9(32) . . .
26.9(27) . . .
36.5(32) . . .
34.4(31) . . .
30.2(29) . . .
23.7(26) . . .
25.2(29) . . .
30.1(29) . . .
27.6(28) . . .
31.8(29) . . .
29.6(30) . . .
27.5(28) . . .
35.2(31) . . .
29.3(29) . . .
28.9(29) . . .
26.9(30) . . .
28.7(28) . . .
24.0(27) . . .
30.3(31) . . .
28.1(27) . . .
24.4(27) . . .
28.5(28) . . .
25.0(26) . . .
34.4(32) . . .
26.7(26) . . .
33.5(33) . . .
32.1(30) . . .
27.0(27) . . .
26.7(27) . . .
29.1(28) . . .
33.7(31) . . .
35.6(33) . . .
26.4(27) . . .
28.5(28) . . .
31.0(32) . . .
23.1(25) . . .
25.4(27) . . .
26.9(28) . . .
24.6(27) . . .
33.4(31) . . .
36.0(33) . . .
23.6(25) . . .
31.0(29) . . .
28.6(30) . . .
36.0(34) . . .
34.5(31) . . .
34.8(30) . . .
32.3(31) . . .
30.5(31) . . .
31.4(31) . . .
24.8(27) . . .
27.0(27) . . .
28.9(28) . . .
32.1(31) . . .
21.5(27) . . .
25.9(29) . . .
25.4(27) . . .
31.0(31) . . .
22.8(25) . . .
32.3(32) . . .
22.9(25) . . .
22.4(24) . . .
32.9(30) . . .
31.9(32) . . .
23.7(25) . . .
30.9(31) . . .
25.1(25) . . .
31.5(30) . . .
26.3(26) . . .
30.4(29) . . .
28.4(28) . . .
28.0(28) . . .
28.0(29) . . .
25.5(26) . . .
34.3(32) . . .
25.5(26) . . .
35.4(31) . . .
34.7(33) . . .
23.9(27) . . .
25.1(26) . . .
28.0(27) . . .
31.0(29) . . .
32.2(31) . . .
31.4(31) . . .
27.5(27) . . .
29.7(29) . . .
32.6(31) . . .
25.5(27) . . .
22.9(26) . . .
29.0(29) . . .
32.2(30) . . .
31.3(29) . . .
27.0(27) . . .
30.3(32) . . .
27.9(29) . . .
32.4(30) . . .
31.9(29) . . .
25.4(29) . . .
26.4(29) . . .
27.8(28) . . .
24.4(25) . . .
32.3(30) . . .
29.4(29) . . .
37(4) . . .
32.7(30) . . .
33.8(30) . . .
25.3(27) . . .
34.2(31) . . .
34.2(31) . . .
31.8(30) . . .
25.7(27) . . .
25.2(26) . . .
27.3(29) . . .
23.0(25) . . .
39.4(34) . . .
34.0(30) . . .
29.7(28) . . .
34.4(33) . . .
26.4(27) . . .
25.0(26) . . .
29.1(29) . . .
28.9(28) . . .
27.1(30) . . .
22.9(25) . . .
36.8(33) . . .
25.1(26) . . .
33.4(31) . . .
31.4(30) . . .
34.8(31) . . .
32.3(29) . . .
28.4(28) . . .
24.6(27) . . .
26.1(30) . . .
29.5(29) . . .
27.9(27) . . .
29.4(29) . . .
32.6(30) . . .
30.7(30) . . .
32.6(31) . . .
26.1(27) . . .
30.3(29) . . .
31.5(29) . . .
27.7(27) . . .
32.4(29) . . .
24.1(25) . . .
32.1(29) . . .
23.5(26) . . .
25.4(29) . . .
31.4(30) . . .
32.0(30) . . .
20.1(23) . . .
26.5(28) . . .
27.4(30) . . .
24.8(27) . . .
27.4(27) . . .
31.7(31) . . .
31.2(30) . . .
30.3(32) . . .
27.3(28) . . .
43(4) . . .
32.0(29) . . .
34.1(31) . . .
29.9(31) . . .
25.0(26) . . .
26.1(26) . . .
27.9(28) . . .
28.0(29) . . .
24.7(28) . . .
20.5(25) . . .
23.8(26) . . .
23.1(27) . . .
23.8(28) . . .
33.8(31) . . .
32.1(29) . . .
25.5(26) . . .
27.7(28) . . .
17.0(20) . . .
25.9(27) . . .
27.8(28) . . .
24.3(25) . . .
27.2(31) . . .
31.0(31) . . .
23.2(25) . . .
23.6(27) . . .
22.0(26) . . .
31.0(30) . . .
21.7(24) . . .
31.9(31) . . .
33.9(30) . . .
30.5(29) . . .
28.5(28) . . .
31.8(31) . . .
38.4(35) . . .
26.9(27) . . .
25.0(26) . . .
30.1(30) . . .
30.9(31) . . .
29.3(29) . . .
34.5(31) . . .
25.1(26) . . .
28.4(28) . . .
31.7(30) . . .
27.6(27) . . .
33.7(31) . . .
29.4(28) . . .
30.4(31) . . .
21.2(26) . . .
24.1(29) . . .
31.8(30) . . .
31.5(29) . . .
31.8(28) . . .
29.1(28) . . .
23.2(25) . . .
28.9(28) . . .
24.5(28) . . .
26.1(28) . . .
31.4(30) . . .
31.2(29) . . .
22.6(25) . . .
33.3(31) . . .
29.9(30) . . .
32.9(31) . . .
40.8(35) . . .
30.4(29) . . .
36.3(31) . . .
30.6(30) . . .
21.4(24) . . .
30.5(31) . . .
28.5(28) . . .
20.7(24) . . .
21.9(24) . . .
21.8(24) . . .
29.4(31) . . .
28.6(28) . . .
27.1(27) . . .
26.1(31) . . .
25.0(28) . . .
24.2(26) . . .
27.9(27) . . .
30.2(31) . . .
21.7(26) . . .
23.4(25) . . .
25.4(27) . . .
29.8(28) . . .
26.4(28) . . .
27.7(28) . . .
29.5(30) . . .
26.2(27) . . .
25.9(26) . . .
28.4(28) . . .
25.5(27) . . .
25.4(28) . . .
25.4(26) . . .
30.0(30) . . .
31.1(31) . . .
31.1(33) . . .
24.5(26) . . .
21.5(24) . . .
37.4(34) . . .
29.1(29) . . .
28.5(28) . . .
27.5(29) . . .
31.4(29) . . .
38.0(32) . . .
35.3(32) . . .
29.9(30) . . .
26.8(28) . . .
35.3(31) . . .
31.0(29) . . .
25.5(26) . . .
35.3(33) . . .
27.0(27) . . .
33.1(30) . . .
32.6(30) . . .
23.2(26) . . .
22.5(27) . . .
22.8(24) . . .
31.8(30) . . .
31.4(31) . . .
32.9(34) . . .
29.6(30) . . .
35.1(31) . . .
28.2(28) . . .
28.9(29) . . .
36.3(33) . . .
34.4(33) . . .
24.9(27) . . .
32.6(30) . . .
24.1(26) . . .
25.8(28) . . .
27.3(28) . . .
30.3(30) . . .
20.8(24) . . .
32.7(32) . . .
32.8(32) . . .
26.6(26) . . .
33.0(30) . . .
25.4(26) . . .
33.3(33) . . .
24.2(28) . . .
28.4(29) . . .
19.4(24) . . .
31.8(29) . . .
32.5(31) . . .
23.3(27) . . .
32.2(31) . . .
21.4(24) . . .
29.8(29) . . .
28.9(30) . . .
28.4(31) . . .
26.5(30) . . .
30.7(29) . . .
32.6(32) . . .
33.2(33) . . .
30.8(29) . . .
34.0(31) . . .
32.5(29) . . .
32.5(30) . . .
33.1(31) . . .
32.0(31) . . .
40.9(34) . . .
32.3(29) . . .
35.1(31) . . .
27.6(27) . . .
31.7(31) . . .
29.4(29) . . .
27.0(27) . . .
26.4(28) . . .
24.0(26) . . .
31.0(31) . . .
27.9(27) . . .
21.6(24) . . .
34.3(32) . . .
31.1(31) . . .
29.4(28) . . .
33.7(32) . . .
24.2(25) . . .
38(4) . . .
24.5(26) . . .
30.6(30) . . .
26.2(27) . . .
26.8(27) . . .
29.1(30) . . .
27.6(31) . . .
25.6(30) . . .
21.0(26) . . .
31.5(29) . . .
24.0(28) . . .
18.8(25) . . .
28.3(30) . . .
21.7(25) . . .
27.7(28) . . .
28.6(27) . . .
25.5(27) . . .
22.9(25) . . .
28.9(28) . . .
26.8(26) . . .
30.4(29) . . .
32.9(32) . . .
31.4(31) . . .
26.4(27) . . .
33.5(31) . . .
24.9(27) . . .
24.0(26) . . .
29.9(31) . . .
27.2(27) . . .
23.9(26) . . .
26.1(27) . . .
22.7(25) . . .
28.9(29) . . .
27.9(28) . . .
31.9(31) . . .
28.5(29) . . .
26.1(28) . . .
24.1(28) . . .
29.0(29) . . .
26.0(27) . . .
27.9(27) . . .
34.4(33) . . .
23.4(26) . . .
22.0(24) . . .
36.9(32) . . .
27.3(26) . . .
29.7(28) . . .
28.5(29) . . .
33.8(30) . . .
26.4(27) . . .
22.1(26) . . .
29.5(29) . . .
22.5(25) . . .
31.2(30) . . .
24.4(27) . . .
33.3(34) . . .
33.1(32) . . .
23.6(26) . . .
19.8(24) . . .
26.0(29) . . .
25.2(31) . . .
29.9(31) . . .
32.2(30) . . .
27.8(29) . . .
37.5(34) . . .
28.0(26) . . .
36.3(32) . . .
29.6(28) . . .
30.5(29) . . .
32.8(32) . . .
27.8(29) . . .
21.5(24) . . .
30.7(30) . . .
25.6(28) . . .
21.8(24) . . .
30.7(30) . . .
36.3(32) . . .
24.6(26) . . .
28.9(29) . . .
25.3(27) . . .
19.9(24) . . .
25.7(28) . . .
25.9(27) . . .
26.8(28) . . .
31.4(31) . . .
26.1(27) . . .
27.8(29) . . .
31.7(30) . . .
29.6(29) . . .
24.5(26) . . .
23.3(25) . . .
27.2(27) . . .
34.1(31) . . .
31.7(30) . . .
23.5(25) . . .
23.4(26) . . .
30.3(29) . . .
31.2(29) . . .
29.2(30) . . .
26.3(28) . . .
28.5(28) . . .
31.5(29) . . .
21.3(24) . . .
23.9(25) . . .
29.0(31) . . .
22.8(27) . . .
29.8(29) . . .
29.4(29) . . .
30.1(29) . . .
27.4(29) . . .
29.0(31) . . .
25.0(26) . . .
34.3(31) . . .
33.7(33) . . .
29.3(30) . . .
23.2(26) . . .
29.1(28) . . .
32.4(31) . . .
35.4(34) . . .
34.4(33) . . .
28.6(29) . . .
24.1(25) . . .
33.4(31) . . .
28.4(29) . . .
23.5(26) . . .
29.5(31) . . .
24.7(26) . . .
27.0(27) . . .
26.3(27) . . .
32.5(31) . . .
27.4(27) . . .
26.5(27) . . .
25.9(27) . . .
25.6(27) . . .
34.6(31) . . .
32.8(30) . . .
26.5(27) . . .
25.5(27) . . .
34.8(32) . . .
25.0(25) . . .
33.0(29) . . .
28.1(28) . . .
23.6(26) . . .
27.6(30) . . .
32.5(33) . . .
25.4(26) . . .
25.1(26) . . .
34.2(31) . . .
30.5(32) . . .
27.4(29) . . .
32.3(30) . . .
20.6(23) . . .
30.1(29) . . .
33.5(32) . . .
32.6(32) . . .
26.9(28) . . .
30.2(29) . . .
33.2(32) . . .
22.4(25) . . .
27.4(28) . . .
38.1(32) . . .
33.9(30) . . .
27.7(28) . . .
23.9(28) . . .
25.3(27) . . .
35.5(31) . . .
30.4(29) . . .
26.1(28) . . .
28.0(30) . . .
30.2(30) . . .
30.3(30) . . .
27.9(29) . . .
30.9(30) . . .
38.5(34) . . .
31.4(31) . . .
26.9(27) . . .
23.1(27) . . .
32.0(30) . . .
29.9(29) . . .
28.3(29) . . .
31.5(29) . . .
28.6(29) . . .
29.7(31) . . .
30.4(30) . . .
30.8(29) . . .
28.2(27) . . .
23.4(26) . . .
23.7(27) . . .
29.6(30) . . .
31.4(29) . . .
28.5(27) . . .
29.3(29) . . .
37.7(34) . . .
36.8(33) . . .
22.8(25) . . .
28.8(28) . . .
26.0(26) . . .
26.0(29) . . .
23.1(26) . . .
22.3(25) . . .
29.5(28) . . .
31.7(29) . . .
27.9(29) . . .
30.3(30) . . .
30.3(29) . . .
28.1(28) . . .
30.6(32) . . .
23.9(27) . . .
32.3(33) . . .
23.8(25) . . .
28.6(28) . . .
28.3(30) . . .
25.9(29) . . .
22.5(28) . . .
24.3(26) . . .
22.5(25) . . .
25.0(27) . . .
29.2(30) . . .
24.4(27) . . .
27.2(28) . . .
35.0(31) . . .
25.3(27) . . .
24.4(26) . . .
30.3(29) . . .
29.5(28) . . .
31.6(31) . . .
31.4(32) . . .
26.1(27) . . .
40(4) . . .
26.9(27) . . .
34.7(34) . . .
26.3(28) . . .
29.4(29) . . .
30.5(28) . . .
31.4(29) . . .
32.0(32) . . .
35.7(34) . . .
25.8(27) . . .
25.9(27) . . .
29.1(29) . . .
32.2(31) . . .
25.9(27) . . .
32.4(30) . . .
32.9(30) . . .
23.8(26) . . .
27.4(28) . . .
28.0(31) . . .
24.1(26) . . .
28.2(29) . . .
25.5(26) . . .
29.0(29) . . .
30.0(31) . . .
28.5(29) . . .
27.6(27) . . .
34.3(31) . . .
22.8(24) . . .
31.8(32) . . .
35.2(33) . . .
35.3(32) . . .
27.3(27) . . .
25.5(26) . . .
30.8(31) . . .
25.7(26) . . .
31.2(30) . . .
30.2(29) . . .
28.2(28) . . .
32.3(32) . . .
31.7(31) . . .
24.8(26) . . .
24.9(26) . . .
27.6(29) . . .
29.3(31) . . .
30.7(30) . . .
22.2(24) . . .
20.5(24) . . .
25.1(28) . . .
24.4(26) . . .
29.8(31) . . .
26.3(27) . . .
29.3(28) . . .
26.8(27) . . .
32.1(32) . . .
23.6(26) . . .
27.4(27) . . .
31.5(30) . . .
28.8(29) . . .
28.5(30) . . .
29.5(28) . . .
26.6(28) . . .
37.4(35) . . .
30.2(31) . . .
32.1(31) . . .
26.8(27) . . .
33.5(30) . . .
31.5(30) . . .
27.3(29) . . .
30.7(31) . . .
29.9(29) . . .
26.2(27) . . .
27.1(27) . . .
29.5(29) . . .
26.5(28) . . .
29.5(28) . . .
26.6(27) . . .
29.1(28) . . .
35.5(33) . . .
28.6(28) . . .
31.2(29) . . .
26.9(27) . . .
34.5(32) . . .
27.7(29) . . .
26.6(28) . . .
29.8(30) . . .
30.0(28) . . .
31.0(30) . . .
29.3(31) . . .
35.9(32) . . .
34.5(30) . . .
32.0(30) . . .
29.0(30) . . .
24.6(27) . . .
26.1(27) . . .
30.0(29) . . .
30.7(29) . . .
32.5(29) . . .
35.7(32) . . .
38.0(34) . . .
30.2(28) . . .
25.2(27) . . .
26.5(29) . . .
27.5(28) . . .
37(4) . . .
31.5(30) . . .
29.5(28) . . .
17.7(22) . . .
22.1(28) . . .
21.6(24) . . .
24.8(26) . . .
33.9(31) . . .
25.7(29) . . .
25.8(27) . . .
29.6(28) . . .
23.7(26) . . .
28.7(30) . . .
21.4(26) . . .
31.5(32) . . .
34.8(31) . . .
30.4(29) . . .
24.2(26) . . .
27.1(29) . . .
32.2(32) . . .
24.5(27) . . .
30.9(29) . . .
22.1(25) . . .
25.1(31) . . .
30.7(31) . . .
31.0(29) . . .
20.1(24) . . .
29.0(31) . . .
34.7(33) . . .
29.8(29) . . .
29.1(28) . . .
25.7(26) . . .
25.5(28) . . .
31.3(30) . . .
37.4(32) . . .
38.5(32) . . .
22.2(25) . . .
28.0(29) . . .
26.9(29) . . .
27.8(28) . . .
27.6(27) . . .
28.7(28) . . .
25.4(28) . . .
20.6(25) . . .
19.9(24) . . .
20.9(24) . . .
32.3(31) . . .
27.3(28) . . .
30.0(28) . . .
32.0(30) . . .
32.9(30) . . .
27.4(27) . . .
31.3(31) . . .
25.9(28) . . .
32.4(31) . . .
27.0(28) . . .
34.0(31) . . .
28.3(28) . . .
32.1(30) . . .
31.0(29) . . .
23.6(26) . . .
29.1(29) . . .
23.2(27) . . .
31.9(32) . . .
27.1(27) . . .
31.2(29) . . .
29.0(29) . . .
24.3(28) . . .
30.0(29) . . .
35.8(31) . . .
31.2(30) . . .
28.1(27) . . .
26.5(28) . . .
31.5(30) . . .
40.5(33) . . .
33.0(30) . . .
27.5(29) . . .
33.4(32) . . .
29.0(29) . . .
25.9(28) . . .
31.5(29) . . .
37.0(33) . . .
26.5(28) . . .
21.8(25) . . .
28.6(28) . . .
19.8(24) . . .
25.8(27) . . .
26.4(30) . . .
28.9(29) . . .
27.5(27) . . .
30.0(32) . . .
35.7(31) . . .
29.9(29) . . .
30.6(30) . . .
29.4(28) . . .
32.7(30) . . .
26.6(26) . . .
34.5(32) . . .
23.1(27) . . .
25.4(26) . . .
27.8(27) . . .
28.2(29) . . .
20.6(24) . . .
25.8(27) . . .
29.7(28) . . .
22.5(25) . . .
25.4(27) . . .
24.0(27) . . .
24.6(29) . . .
43.1(33) . . .
30.0(31) . . .
28.0(28) . . .
24.6(25) . . .
33.0(30) . . .
32.9(30) . . .
25.7(27) . . .
30.5(31) . . .
31.1(30) . . .
26.2(28) . . .
29.4(28) . . .
28.6(29) . . .
27.9(31) . . .
31.4(31) . . .
26.3(27) . . .
28.1(28) . . .
14.7(19) . . .
18.9(24) . . .
24.7(27) . . .
27.2(27) . . .
32.7(30) . . .
27.6(28) . . .
34.0(33) . . .
33.5(30) . . .
34.0(30) . . .
33.3(30) . . .
27.6(28) . . .
27.3(28) . . .
36.7(34) . . .
23.6(25) . . .
29.8(29) . . .
30.1(31) . . .
23.9(27) . . .
33.5(32) . . .
30.0(28) . . .
27.3(30) . . .
24.9(26) . . .
27.1(28) . . .
28.8(28) . . .
30.2(28) . . .
28.8(29) . . .
27.0(28) . . .
29.1(30) . . .
28.7(29) . . .
31.4(29) . . .
33.3(31) . . .
31.6(32) . . .
26.7(27) . . .
26.4(26) . . .
31.0(29) . . .
26.5(28) . . .
25.6(29) . . .
23.7(25) . . .
29.0(29) . . .
22.0(25) . . .
26.0(29) . . .
23.1(26) . . .
31.0(31) . . .
24.9(26) . . .
23.4(25) . . .
31.4(31) . . .
28.1(28) . . .
30.0(29) . . .
28.1(28) . . .
27.3(28) . . .
25.9(26) . . .
35.4(33) . . .
35.5(33) . . .
26.0(26) . . .
28.9(28) . . .
30.5(30) . . .
26.3(28) . . .
24.5(25) . . .
29.5(28) . . .
26.0(27) . . .
28.2(29) . . .
26.9(29) . . .
27.0(28) . . .
33.0(30) . . .
33.2(31) . . .
29.5(30) . . .
32.6(32) . . .
29.8(29) . . .
26.0(27) . . .
26.5(27) . . .
27.4(26) . . .
33.7(31) . . .
33.8(31) . . .
30.8(29) . . .
36.5(34) . . .
27.0(29) . . .
31.8(32) . . .
27.6(27) . . .
31.3(29) . . .
28.8(29) . . .
31.9(31) . . .
32.2(33) . . .
30.6(32) . . .
30.8(29) . . .
40.5(33) . . .
33.7(31) . . .
24.4(27) . . .
24.8(26) . . .
24.7(26) . . .
34.7(30) . . .
29.0(29) . . .
28.0(28) . . .
39.5(33) . . .
34.3(31) . . .
33.7(30) . . .
26.4(28) . . .
30.8(31) . . .
23.6(25) . . .
28.5(28) . . .
34.7(32) . . .
27.9(30) . . .
24.5(26) . . .
22.4(26) . . .
32.5(30) . . .
29.3(28) . . .
33.6(34) . . .
28.4(30) . . .
32.7(30) . . .
28.1(27) . . .
25.4(27) . . .
32.4(33) . . .
31.9(31) . . .
29.4(29) . . .
34.6(31) . . .
23.3(24) . . .
31.0(31) . . .
26.1(27) . . .
26.5(27) . . .
25.7(26) . . .
30.1(29) . . .
32.9(33) . . .
33.7(33) . . .
26.9(28) . . .
27.0(28) . . .
27.3(29) . . .
33.1(32) . . .
27.7(28) . . .
29.3(28) . . .
27.4(27) . . .
27.6(27) . . .
20.1(24) . . .
28.8(28) . . .
32.4(30) . . .
26.4(29) . . .
22.3(25) . . .
27.4(28) . . .
30.6(30) . . .
25.2(26) . . .
29.0(28) . . .
32.6(32) . . .
29.4(30) . . .
28.3(27) . . .
33.5(31) . . .
29.2(28) . . .
25.5(29) . . .
29.7(34) . . .
20.9(24) . . .
25.1(26) . . .
28.3(28) . . .
32.7(31) . . .
35.6(34) . . .
19.1(23) . . .
32.0(29) . . .
33.5(32) . . .
21.1(25) . . .
28.9(28) . . .
32.3(30) . . .
30.2(29) . . .
31.6(30) . . .
23.1(26) . . .
28.4(28) . . .
29.8(29) . . .
28.0(29) . . .
26.5(27) . . .
28.7(30) . . .
25.0(27) . . .
27.2(27) . . .
29.0(30) . . .
26.8(28) . . .
26.8(30) . . .
30.4(29) . . .
35.0(31) . . .
21.8(24) . . .
30.1(31) . . .
34.7(31) . . .
33.5(31) . . .
28.8(28) . . .
30.7(30) . . .
31.1(29) . . .
26.0(27) . . .
35.3(32) . . .
28.2(28) . . .
25.6(26) . . .
30.1(30) . . .
27.6(28) . . .
33.6(31) . . .
23.7(25) . . .
30.2(30) . . .
37.5(34) . . .
28.8(28) . . .
24.4(27) . . .
22.1(24) . . .
25.1(26) . . .
29.0(29) . . .
35.4(33) . . .
32.5(31) . . .
27.7(28) . . .
24.5(26) . . .
30.8(30) . . .
23.2(25) . . .
28.7(28) . . .
31.7(29) . . .
31.8(30) . . .
27.7(30) . . .
31.3(30) . . .
25.0(26) . . .
28.2(28) . . .
30.1(29) . . .
34.2(31) . . .
27.8(28) . . .
31.8(29) . . .
20.7(24) . . .
34.1(34) . . .
28.3(29) . . .
27.0(28) . . .
32.6(30) . . .
28.0(27) . . .
26.6(29) . . .
32.9(34) . . .
29.2(31) . . .
23.8(25) . . .
29.4(29) . . .
32.5(31) . . .
35(4) . . .
31.4(30) . . .
31.7(30) . . .
31.2(29) . . .
35.8(33) . . .
30.5(31) . . .
28.5(31) . . .
29.4(28) . . .
29.9(33) . . .
20.8(25) . . .
25.5(27) . . .
38.7(34) . . .
33.6(30) . . .
30.0(30) . . .
29.2(28) . . .
34.5(33) . . .
27.2(28) . . .
29.8(28) . . .
29.6(32) . . .
32.0(33) . . .
29.7(28) . . .
31.8(30) . . .
26.3(26) . . .
26.6(27) . . .
36.0(33) . . .
34.7(33) . . .
26.8(26) . . .
33.9(31) . . .
28.3(28) . . .
38(4) . . .
32.1(32) . . .
21.7(24) . . .
26.1(27) . . .
27.1(27) . . .
34.7(34) . . .
32.7(30) . . .
29.4(28) . . .
21.1(24) . . .
29.3(29) . . .
28.0(30) . . .
24.1(27) . . .
27.2(27) . . .
27.7(27) . . .
22.9(27) . . .
27.4(30) . . .
23.3(26) . . .
25.2(26) . . .
23.3(25) . . .
35.0(33) . . .
35.3(33) . . .
32.0(30) . . .
31.1(29) . . .
21.2(24) . . .
25.7(28) . . .
26.8(30) . . .
26.3(28) . . .
27.1(27) . . .
21.0(27) . . .
27.3(29) . . .
31.8(30) . . .
25.8(27) . . .
30.4(29) . . .
26.0(27) . . .
36.3(34) . . .
29.1(28) . . .
23.0(26) . . .
27.5(28) . . .
34.2(32) . . .
28.2(29) . . .
28.1(29) . . .
28.9(28) . . .
31.2(29) . . .
28.4(27) . . .
24.9(27) . . .
32.0(32) . . .
28.4(28) . . .
31.8(30) . . .
24.1(25) . . .
31.7(33) . . .
35.8(34) . . .
28.3(28) . . .
19.2(23) . . .
26.4(28) . . .
28.3(31) . . .
26.3(28) . . .
25.5(26) . . .
30.6(29) . . .
31.4(31) . . .
28.1(29) . . .
29.3(29) . . .
27.8(28) . . .
30.6(29) . . .
26.5(26) . . .
31.2(30) . . .
29.1(29) . . .
32.6(30) . . .
26.7(27) . . .
28.3(28) . . .
30.9(31) . . .
28.1(29) . . .
26.0(27) . . .
29.2(29) . . .
20.6(24) . . .
30.4(30) . . .
36.6(32) . . .
35.0(31) . . .
32.0(30) . . .
34.4(34) . . .
27.3(28) . . .
22.2(25) . . .
26.6(27) . . .
19.3(23) . . .
30.3(29) . . .
27.8(28) . . .
20.5(25) . . .
35.4(31) . . .
34.5(32) . . .
39.1(33) . . .
28.0(28) . . .
31.5(30) . . .
25.7(26) . . .
25.8(26) . . .
24.5(28) . . .
21.9(24) . . .
30.7(29) . . .
27.6(28) . . .
29.9(29) . . .
23.2(26) . . .
34.8(33) . . .
25.9(26) . . .
24.3(26) . . .
32.9(32) . . .
25.4(28) . . .
32.1(30) . . .
23.4(25) . . .
36.9(32) . . .
34.7(32) . . .
26.7(27) . . .
31.8(31) . . .
29.7(28) . . .
28.8(30) . . .
31.7(31) . . .
20.4(23) . . .
19.2(23) . . .
27.1(28) . . .
22.4(25) . . .
27.7(30) . . .
25.4(29) . . .
28.0(28) . . .
31.5(29) . . .
27.6(29) . . .
22.4(29) . . .
27.4(28) . . .
30.8(30) . . .
34.2(31) . . .
27.6(28) . . .
25.1(29) . . .
28.5(30) . . .
23.6(27) . . .
21.8(24) . . .
30.0(30) . . .
30.1(31) . . .
31.2(32) . . .
33.9(30) . . .
34.6(31) . . .
27.5(29) . . .
30.9(32) . . .
31.0(30) . . .
24.0(28) . . .
27.1(27) . . .
36.7(33) . . .
22.6(27) . . .
31.4(32) . . .
32.1(29) . . .
32.1(30) . . .
33.3(31) . . .
30.8(30) . . .
26.8(27) . . .
25.4(26) . . .
27.1(27) . . .
28.1(28) . . .
27.8(29) . . .
24.7(27) . . .
24.3(26) . . .
29.8(29) . . .
35.5(33) . . .
36.5(35) . . .
36.2(34) . . .
34.1(30) . . .
32.7(29) . . .
26.2(27) . . .
28.0(28) . . .
28.9(29) . . .
25.7(27) . . .
29.1(28) . . .
32.3(31) . . .
30.8(29) . . .
31.6(30) . . .
20.4(24) . . .
28.0(29) . . .
36.8(34) . . .
26.7(27) . . .
25.8(27) . . .
22.9(25) . . .
25.2(26) . . .
23.8(27) . . .
25.1(29) . . .
27.6(28) . . .
29.4(28) . . .
26.2(30) . . .
24.1(27) . . .
35.0(32) . . .
30.7(31) . . .
26.6(27) . . .
28.8(28) . . .
33.4(33) . . .
26.2(27) . . .
24.3(25) . . .
26.9(27) . . .
40.3(35) . . .
35.0(32) . . .
27.7(28) . . .
26.8(27) . . .
24.8(27) . . .
31.5(31) . . .
31.5(32) . . .
24.9(27) . . .
27.5(28) . . .
29.7(28) . . .
30.9(29) . . .
23.6(27) . . .
23.4(27) . . .
24.8(27) . . .
30.5(30) . . .
28.3(29) . . .
23.8(26) . . .
32.8(35) . . .
32.5(30) . . .
23.9(26) . . .
28.0(29) . . .
36.8(32) . . .
30.1(29) . . .
31.3(29) . . .
42.0(34) . . .
27.3(27) . . .
25.5(28) . . .
26.8(28) . . .
28.6(28) . . .
28.9(29) . . .
39(4) . . .
28.8(28) . . .
33.3(30) . . .
27.2(28) . . .
35.8(32) . . .
29.0(32) . . .
30.8(30) . . .
26.2(28) . . .
31.7(29) . . .
32.0(30) . . .
24.8(27) . . .
29.9(31) . . .
24.1(26) . . .
20.3(23) . . .
24.8(27) . . .
28.3(31) . . .
25.0(27) . . .
29.9(32) . . .
26.1(27) . . .
30.0(32) . . .
27.8(29) . . .
29.7(31) . . .
27.6(28) . . .
29.7(28) . . .
26.6(28) . . .
25.3(29) . . .
26.5(27) . . .
25.7(27) . . .
36.2(31) . . .
29.0(30) . . .
30.0(31) . . .
26.3(28) . . .
28.1(28) . . .
26.8(28) . . .
23.0(26) . . .
26.2(30) . . .
22.8(26) . . .
33.4(30) . . .
21.5(24) . . .
21.1(24) . . .
22.7(26) . . .
22.6(25) . . .
33.9(30) . . .
30.1(30) . . .
27.0(30) . . .
22.6(26) . . .
27.7(28) . . .
29.2(29) . . .
29.2(29) . . .
25.2(27) . . .
34.5(34) . . .
33.5(31) . . .
35.7(32) . . .
28.5(28) . . .
27.3(28) . . .
26.3(26) . . .
20.5(23) . . .
21.2(25) . . .
27.0(29) . . .
29.7(31) . . .
27.1(28) . . .
36.3(32) . . .
36.1(31) . . .
31.7(30) . . .
36.6(32) . . .
29.7(28) . . .
29.8(30) . . .
29.7(28) . . .
28.8(30) . . .
34.7(32) . . .
25.5(28) . . .
24.4(26) . . .
20.9(24) . . .
28.4(29) . . .
30.3(30) . . .
34.3(32) . . .
24.8(26) . . .
23.4(27) . . .
26.0(27) . . .
24.8(27) . . .
30.7(30) . . .
29.5(28) . . .
25.5(27) . . .
22.2(25) . . .
25.0(27) . . .
29.4(31) . . .
28.5(28) . . .
29.3(28) . . .
31.6(29) . . .
29.1(29) . . .
31.5(31) . . .
27.6(28) . . .
22.6(25) . . .
28.2(28) . . .
28.3(29) . . .
25.6(30) . . .
32.4(29) . . .
29.9(29) . . .
21.7(25) . . .
23.9(28) . . .
32.7(32) . . .
28.5(28) . . .
30.9(29) . . .
24.4(26) . . .
26.0(28) . . .
32.9(32) . . .
27.1(28) . . .
30.4(28) . . .
33.6(30) . . .
30.3(31) . . .
29.1(28) . . .
32.3(29) . . .
31.2(30) . . .
39.0(35) . . .
32.2(29) . . .
33.1(31) . . .
25.9(27) . . .
28.7(30) . . .
33.8(32) . . .
25.5(27) . . .
33.9(30) . . .
32.8(30) . . .
31.5(32) . . .
35.0(32) . . .
30.7(30) . . .
29.7(28) . . .
30.1(29) . . .
23.6(26) . . .
27.5(29) . . .
29.7(28) . . .
25.3(27) . . .
28.1(27) . . .
22.1(25) . . .
24.7(29) . . .
29.5(29) . . .
32.1(29) . . .
27.9(27) . . .
32.6(31) . . .
31.7(32) . . .
31.3(32) . . .
36.4(31) . . .
33.6(30) . . .
35.2(32) . . .
30.5(31) . . .
27.5(28) . . .
24.4(26) . . .
25.9(26) . . .
36.0(33) . . .
30.0(32) . . .
27.1(29) . . .
26.0(27) . . .
32.0(30) . . .
30.2(29) . . .
24.0(26) . . .
25.7(27) . . .
32.9(30) . . .
27.6(28) . . .
30.0(30) . . .
26.8(29) . . .
31.7(31) . . .
32.5(30) . . .
32.2(30) . . .
26.9(28) . . .
29.3(31) . . .
26.7(27) . . .
24.1(26) . . .
21.6(25) . . .
24.0(25) . . .
33.0(30) . . .
29.8(29) . . .
24.6(26) . . .
23.4(27) . . .
24.2(25) . . .
29.8(29) . . .
29.6(29) . . .
28.9(28) . . .
23.6(28) . . .
24.5(27) . . .
31.3(29) . . .
27.5(28) . . .
35.2(31) . . .
25.6(27) . . .
34.3(34) . . .
20.9(26) . . .
32.5(30) . . .
32.3(31) . . .
30.0(30) . . .
29.9(33) . . .
26.1(27) . . .
24.8(26) . . .
26.3(26) . . .
28.0(29) . . .
29.6(31) . . .
29.4(31) . . .
26.7(28) . . .
24.0(26) . . .
25.8(28) . . .
28.2(30) . . .
30.6(30) . . .
25.1(26) . . .
30.0(30) . . .
26.7(27) . . .
31.5(32) . . .
23.5(28) . . .
30.9(29) . . .
33.8(31) . . .
34.9(32) . . .
36.5(34) . . .
27.7(28) . . .
32.8(30) . . .
31.2(29) . . .
24.5(26) . . .
34.0(32) . . .
31.5(31) . . .
30.3(29) . . .
29.1(28) . . .
25.3(27) . . .
26.5(28) . . .
29.2(30) . . .
21.6(24) . . .
28.9(30) . . .
37.3(33) . . .
29.2(28) . . .
30.4(29) . . .
30.0(28) . . .
25.4(28) . . .
27.5(30) . . .
28.5(29) . . .
34.3(30) . . .
32.2(29) . . .
26.3(27) . . .
29.5(29) . . .
28.0(28) . . .
27.1(27) . . .
24.5(26) . . .
31.1(29) . . .
28.0(28) . . .
25.6(27) . . .
24.5(27) . . .
27.8(28) . . .
24.6(26) . . .
25.9(28) . . .
26.4(28) . . .
25.8(26) . . .
26.6(27) . . .
33.1(30) . . .
34.6(33) . . .
25.6(27) . . .
30.6(29) . . .
24.4(26) . . .
24.4(26) . . .
25.9(29) . . .
28.0(29) . . .
32.7(30) . . .
27.3(29) . . .
28.0(29) . . .
29.0(30) . . .
29.1(28) . . .
33.0(30) . . .
26.1(28) . . .
23.9(27) . . .
30.0(31) . . .
24.1(27) . . .
30.4(29) . . .
24.7(27) . . .
24.7(28) . . .
21.9(24) . . .
26.1(28) . . .
32.4(30) . . .
32.3(31) . . .
25.5(27) . . .
26.4(27) . . .
26.3(26) . . .
33.5(31) . . .
33.5(30) . . .
31.0(30) . . .
33.5(32) . . .
29.5(28) . . .
22.8(25) . . .
28.0(28) . . .
25.0(28) . . .
24.6(26) . . .
31.9(30) . . .
21.1(24) . . .
27.7(28) . . .
36.3(35) . . .
36.3(33) . . .
28.6(28) . . .
21.0(25) . . .
19.3(24) . . .
20.9(25) . . .
22.9(25) . . .
27.5(27) . . .
28.3(28) . . .
20.0(24) . . .
21.4(25) . . .
27.8(29) . . .
29.9(28) . . .
22.8(25) . . .
30.3(32) . . .
26.7(28) . . .
27.6(28) . . .
22.7(25) . . .
24.2(26) . . .
20.6(25) . . .
25.7(32) . . .
26.2(28) . . .
27.7(28) . . .
31.6(30) . . .
28.8(29) . . .
23.0(25) . . .
27.4(28) . . .
28.3(28) . . .
29.5(29) . . .
29.9(31) . . .
28.0(29) . . .
27.2(27) . . .
26.9(27) . . .
28.2(30) . . .
28.8(31) . . .
26.7(28) . . .
22.0(25) . . .
25.5(26) . . .
26.3(30) . . .
29.0(30) . . .
27.5(29) . . .
29.6(30) . . .
26.1(27) . . .
23.6(26) . . .
19.1(23) . . .
34.5(32) . . .
37.1(32) . . .
31.1(29) . . .
25.2(28) . . .
23.8(29) . . .
26.0(31) . . .
27.8(27) . . .
18.6(23) . . .
27.4(28) . . .
27.3(30) . . .
26.2(27) . . .
23.7(25) . . .
27.7(27) . . .
28.1(27) . . .
30.7(31) . . .
23.4(25) . . .
27.4(27) . . .
24.9(26) . . .
31.3(30) . . .
26.0(27) . . .
28.5(28) . . .
31.5(29) . . .
38.8(35) . . .
32.5(32) . . .
32.2(33) . . .
19.4(23) . . .
28.4(28) . . .
22.9(26) . . .
24.0(28) . . .
27.4(30) . . .
31.5(31) . . .
30.6(29) . . .
35.2(31) . . .
25.8(28) . . .
28.1(30) . . .
24.4(27) . . .
28.8(28) . . .
27.1(28) . . .
27.1(29) . . .
32.0(32) . . .
31.7(32) . . .
32.3(30) . . .
24.9(27) . . .
29.4(30) . . .
25.6(26) . . .
28.3(27) . . .
27.3(27) . . .
29.1(28) . . .
27.3(29) . . .
27.2(27) . . .
26.8(28) . . .
24.4(26) . . .
27.0(29) . . .
26.0(29) . . .
33.1(30) . . .
23.9(26) . . .
41.6(35) . . .
29.6(29) . . .
35.2(32) . . .
34.4(30) . . .
21.5(24) . . .
23.6(26) . . .
28.7(30) . . .
30.6(32) . . .
28.6(29) . . .
22.3(25) . . .
29.3(30) . . .
27.3(28) . . .
29.0(30) . . .
32.9(31) . . .
30.6(30) . . .
33.3(30) . . .
29.0(28) . . .
31.8(32) . . .
29.1(31) . . .
23.9(25) . . .
28.1(29) . . .
21.3(23) . . .
29.3(28) . . .
36.6(33) . . .
37.1(32) . . .
30.8(29) . . .
27.5(29) . . .
23.1(25) . . .
26.8(27) . . .
29.8(28) . . .
28.0(28) . . .
32.0(31) . . .
33.1(31) . . .
29.9(28) . . .
26.4(27) . . .
23.5(25) . . .
30.6(30) . . .
22.6(26) . . .
31.8(29) . . .
33.7(30) . . .
34.7(32) . . .
26.5(28) . . .
29.7(29) . . .
34.1(31) . . .
22.9(25) . . .
28.3(28) . . .
34.7(33) . . .
31.9(31) . . .
34.4(31) . . .
30.4(29) . . .
21.1(25) . . .
27.0(30) . . .
31.2(32) . . .
35.6(31) . . .
20.7(24) . . .
23.3(27) . . .
26.8(27) . . .
28.4(28) . . .
25.3(26) . . .
26.7(30) . . .
22.4(25) . . .
26.6(27) . . .
32.7(31) . . .
21.1(24) . . .
30.3(31) . . .
32.1(31) . . .
31.2(31) . . .
30.9(32) . . .
26.5(26) . . .
27.0(28) . . .
29.4(31) . . .
24.2(27) . . .
24.6(25) . . .
23.9(26) . . .
24.8(27) . . .
23.7(26) . . .
32.9(31) . . .
33.8(31) . . .
24.9(26) . . .
28.6(28) . . .
25.5(28) . . .
20.8(24) . . .
26.2(27) . . .
25.4(26) . . .
25.2(29) . . .
25.5(27) . . .
31.9(31) . . .
27.2(27) . . .
31.2(28) . . .
25.1(26) . . .
30.3(31) . . .
22.3(25) . . .
31.0(29) . . .
23.2(25) . . .
27.9(28) . . .
28.2(30) . . .
20.6(23) . . .
29.9(28) . . .
35.2(31) . . .
32.2(31) . . .
27.1(29) . . .
30.4(30) . . .
33.9(30) . . .
23.0(25) . . .
28.5(28) . . .
25.0(28) . . .
26.0(27) . . .
31.0(29) . . .
38.4(32) . . .
28.8(27) . . .
32.6(31) . . .
31.5(30) . . .
22.4(25) . . .
30.4(29) . . .
33.2(31) . . .
23.2(25) . . .
25.4(26) . . .
22.3(25) . . .
25.1(27) . . .
38(4) . . .
26.0(28) . . .
30.3(29) . . .
36.5(31) . . .
30.8(31) . . .
29.8(32) . . .
23.3(26) . . .
34.3(30) . . .
26.9(27) . . .
27.7(27) . . .
36.0(33) . . .
36.5(31) . . .
34.9(32) . . .
23.1(25) . . .
25.7(27) . . .
22.5(26) . . .
28.4(30) . . .
31.2(30) . . .
26.4(26) . . .
30.9(30) . . .
35.7(34) . . .
33.1(30) . . .
36.9(33) . . .
26.5(26) . . .
28.0(28) . . .
29.9(30) . . .
22.5(25) . . .
29.9(30) . . .
28.0(28) . . .
30.6(30) . . .
35.6(33) . . .
33.2(32) . . .
28.0(28) . . .
27.0(26) . . .
34.0(32) . . .
25.5(27) . . .
23.4(26) . . .
25.4(27) . . .
27.2(27) . . .
28.6(29) . . .
33.3(32) . . .
25.5(27) . . .
29.3(29) . . .
28.6(28) . . .
30.8(29) . . .
28.7(31) . . .
24.2(26) . . .
29.4(29) . . .
29.8(29) . . .
30.9(31) . . .
31.7(32) . . .
29.7(31) . . .
32.3(30) . . .
27.7(28) . . .
21.3(25) . . .
26.0(30) . . .
27.0(28) . . .
23.6(25) . . .
26.0(27) . . .
25.1(28) . . .
24.5(28) . . .
37.5(33) . . .
28.3(28) . . .
34.5(32) . . .
27.8(28) . . .
29.7(30) . . .
33.5(32) . . .
27.9(29) . . .
24.1(26) . . .
33.3(33) . . .
25.5(29) . . .
29.7(28) . . .
25.9(27) . . .
25.0(29) . . .
32.6(34) . . .
27.3(28) . . .
29.5(28) . . .
32.7(30) . . .
30.1(29) . . .
30.8(31) . . .
35.3(33) . . .
34.7(31) . . .
29.5(28) . . .
26.4(28) . . .
24.9(28) . . .
28.3(29) . . .
31.2(29) . . .
27.0(28) . . .
27.5(28) . . .
28.0(29) . . .
24.5(27) . . .
26.5(27) . . .
21.9(24) . . .
29.7(29) . . .
31.9(30) . . .
32.5(31) . . .
25.2(26) . . .
30.2(29) . . .
25.9(26) . . .
27.5(31) . . .
36.5(34) . . .
32.0(29) . . .
29.6(28) . . .
29.2(30) . . .
27.7(32) . . .
25.1(26) . . .
28.7(28) . . .
29.6(29) . . .
24.6(27) . . .
32(4) . . .
28.2(28) . . .
30.3(29) . . .
31.2(29) . . .
30.4(30) . . .
30.0(29) . . .
31.7(30) . . .
29.6(28) . . .
30.4(30) . . .
27.2(30) . . .
31.7(33) . . .
33.3(31) . . .
27.6(27) . . .
24.9(26) . . .
26.5(28) . . .
27.1(27) . . .
26.7(28) . . .
32.1(30) . . .
29.8(31) . . .
25.5(26) . . .
26.9(27) . . .
29.4(30) . . .
27.3(27) . . .
25.3(28) . . .
25.9(29) . . .
27.3(30) . . .
21.2(24) . . .
23.4(25) . . .
27.9(28) . . .
27.3(27) . . .
24.8(29) . . .
32.5(30) . . .
39.2(32) . . .
36.9(34) . . .
27.8(27) . . .
27.6(28) . . .
24.2(25) . . .
22.7(26) . . .
32.0(30) . . .
30.7(29) . . .
23.3(26) . . .
22.6(25) . . .
27.4(28) . . .
26.5(27) . . .
25.2(27) . . .
22.3(25) . . .
32.2(30) . . .
24.6(27) . . .
20.4(24) . . .
38.7(34) . . .
33.3(31) . . .
24.6(26) . . .
24.9(27) . . .
33.5(34) . . .
31.8(33) . . .
35.6(32) . . .
29.9(28) . . .
28.7(29) . . .
27.1(27) . . .
32.8(30) . . .
22.4(26) . . .
26.5(27) . . .
27.1(29) . . .
34.5(34) . . .
35.3(33) . . .
26.6(27) . . .
25.3(26) . . .
28.6(30) . . .
28.1(30) . . .
29.7(29) . . .
29.5(28) . . .
27.6(27) . . .
16.3(21) . . .
24.5(28) . . .
30.3(29) . . .
33.3(30) . . .
30.2(29) . . .
26.6(28) . . .
29.1(32) . . .
31.0(31) . . .
29.5(28) . . .
27.4(28) . . .
25.4(27) . . .
25.4(27) . . .
23.2(26) . . .
23.4(25) . . .
23.5(26) . . .
24.7(26) . . .
20.6(25) . . .
22.4(25) . . .
38.3(33) . . .
37.5(33) . . .
27.6(28) . . .
29.8(30) . . .
32.3(30) . . .
27.5(27) . . .
29.8(28) . . .
31.9(30) . . .
27.2(26) . . .
28.2(27) . . .
29.3(28) . . .
31.9(31) . . .
30.7(34) . . .
15.6(21) . . .
23.9(26) . . .
29.3(28) . . .
33.3(31) . . .
40.6(35) . . .
26.6(26) . . .
26.6(27) . . .
28.1(28) . . .
21.4(25) . . .
24.0(26) . . .
28.0(30) . . .
27.9(28) . . .
25.0(26) . . .
34.3(31) . . .
28.8(29) . . .
31.0(30) . . .
28.4(28) . . .
22.9(25) . . .
24.1(26) . . .
24.3(28) . . .
32.6(33) . . .
25.8(26) . . .
26.4(27) . . .
24.8(25) . . .
29.1(29) . . .
30.3(30) . . .
28.3(27) . . .
33.8(30) . . .
26.7(29) . . .
20.8(27) . . .
35.0(33) . . .
24.3(25) . . .
24.6(26) . . .
28.3(28) . . .
28.9(29) . . .
30.7(31) . . .
19.6(23) . . .
36.8(33) . . .
27.7(29) . . .
21.5(26) . . .
29.4(31) . . .
26.9(27) . . .
31.5(31) . . .
29.0(29) . . .
27.7(27) . . .
40(4) . . .
33.0(30) . . .
36.1(32) . . .
28.7(27) . . .
32.1(29) . . .
31.4(29) . . .
33.7(30) . . .
34.7(31) . . .
34.3(32) . . .
27.4(27) . . .
25.6(26) . . .
27.5(28) . . .
27.6(30) . . .
35.2(34) . . .
27.8(28) . . .
30.4(30) . . .
28.4(28) . . .
30.4(30) . . .
24.8(26) . . .
23.5(24) . . .
30.1(29) . . .
33.0(30) . . .
27.7(28) . . .
19.0(24) . . .
21.9(26) . . .
29.7(28) . . .
35.2(32) . . .
23.3(25) . . .
24.3(27) . . .
22.5(25) . . .
29.5(28) . . .
27.0(30) . . .
29.5(31) . . .
26.1(28) . . .
36.0(34) . . .
24.9(26) . . .
21.0(24) . . .
28.3(29) . . .
32.8(33) . . .
27.8(28) . . .
24.3(26) . . .
29.0(29) . . .
26.1(27) . . .
24.0(27) . . .
29.7(31) . . .
37.5(31) . . .
25.6(28) . . .
22.2(25) . . .
35.8(34) . . .
25.1(26) . . .
28.4(28) . . .
27.3(28) . . .
27.8(29) . . .
27.4(27) . . .
26.6(28) . . .
31.3(29) . . .
28.6(28) . . .
36.4(33) . . .
22.8(25) . . .
33.6(33) . . .
25.0(25) . . .
25.1(26) . . .
27.0(28) . . .
24.7(26) . . .
28.4(27) . . .
30.5(29) . . .
28.7(30) . . .
33.9(34) . . .
31.4(31) . . .
23.8(26) . . .
30.9(29) . . .
35.3(31) . . .
33.3(32) . . .
29.9(30) . . .
26.2(27) . . .
29.7(28) . . .
28.6(28) . . .
39(4) . . .
27.9(29) . . .
26.5(28) . . .
30.6(30) . . .
28.5(28) . . .
27.2(30) . . .
27.9(29) . . .
29.8(28) . . .
24.8(26) . . .
27.3(27) . . .
31.2(30) . . .
27.3(28) . . .
22.9(25) . . .
18.9(22) . . .
27.3(30) . . .
28.6(30) . . .
25.3(27) . . .
28.1(28) . . .
27.5(27) . . .
34.6(33) . . .
31.0(30) . . .
31.6(30) . . .
30.2(29) . . .
28.4(29) . . .
22.7(26) . . .
31.2(29) . . .
37.8(32) . . .
32.5(30) . . .
30.9(30) . . .
31.5(34) . . .
30.9(31) . . .
28.7(31) . . .
29.1(28) . . .
31.2(32) . . .
32.0(32) . . .
25.6(27) . . .
31.6(31) . . .
27.1(27) . . .
29.8(30) . . .
28.6(29) . . .
28.1(28) . . .
32.8(31) . . .
24.0(25) . . .
23.8(25) . . .
25.2(27) . . .
24.2(27) . . .
24.2(26) . . .
30.3(30) . . .
28.0(29) . . .
34.7(34) . . .
24.4(26) . . .
25.8(27) . . .
31.5(30) . . .
31.0(31) . . .
25.9(28) . . .
27.6(27) . . .
23.6(25) . . .
33.3(32) . . .
25.4(28) . . .
23.9(28) . . .
28.6(29) . . .
27.9(27) . . .
19.3(23) . . .
31.3(31) . . .
33.4(30) . . .
36.2(32) . . .
28.6(28) . . .
26.7(27) . . .
25.0(26) . . .
25.5(28) . . .
30.9(31) . . .
23.4(25) . . .
31.2(30) . . .
35.9(34) . . .
22.0(25) . . .
20.1(24) . . .
22.1(25) . . .
28.5(29) . . .
28.7(30) . . .
34.0(33) . . .
27.2(28) . . .
23.4(25) . . .
26.9(31) . . .
26.5(27) . . .
29.7(29) . . .
26.1(28) . . .
27.8(27) . . .
40(4) . . .
31.2(29) . . .
29.6(28) . . .
29.6(29) . . .
28.2(28) . . .
24.3(27) . . .
26.6(28) . . .
35.5(33) . . .
33.4(30) . . .
25.5(26) . . .
24.9(25) . . .
29.0(29) . . .
24.2(26) . . .
21.6(25) . . .
29.6(29) . . .
24.4(26) . . .
25.3(30) . . .
24.0(25) . . .
31.0(30) . . .
26.4(27) . . .
19.0(23) . . .
24.9(29) . . .
34.1(31) . . .
22.9(25) . . .
25.0(27) . . .
27.9(28) . . .
37.1(33) . . .
30.0(29) . . .
31.5(29) . . .
28.8(28) . . .
32.7(31) . . .
29.9(30) . . .
26.4(28) . . .
23.2(26) . . .
24.6(26) . . .
25.6(27) . . .
23.9(25) . . .
20.0(23) . . .
25.0(26) . . .
25.9(27) . . .
20.7(24) . . .
24.2(27) . . .
25.4(27) . . .
23.6(25) . . .
27.2(27) . . .
31.1(30) . . .
30.3(31) . . .
26.0(26) . . .
28.0(28) . . .
22.0(25) . . .
27.0(27) . . .
29.4(28) . . .
27.0(28) . . .
29.6(29) . . .
24.1(25) . . .
28.1(31) . . .
29.5(30) . . .
32.7(31) . . .
27.0(28) . . .
30.9(30) . . .
24.4(28) . . .
26.0(27) . . .
34.9(31) . . .
31.1(29) . . .
30.6(32) . . .
23.8(26) . . .
23.5(25) . . .
32.0(30) . . .
21.6(25) . . .
35.2(33) . . .
29.1(29) . . .
28.5(27) . . .
27.4(28) . . .
24.0(26) . . .
26.3(27) . . .
19.5(24) . . .
26.8(28) . . .
34.2(31) . . .
26.6(27) . . .
33.5(32) . . .
33.3(32) . . .
27.0(29) . . .
30.0(28) . . .
31.1(29) . . .
32.4(30) . . .
30.7(31) . . .
25.8(27) . . .
28.9(28) . . .
22.1(25) . . .
29.1(29) . . .
27.8(29) . . .
27.6(28) . . .
26.8(27) . . .
22.8(27) . . .
27.9(30) . . .
33.3(32) . . .
28.0(30) . . .
25.1(27) . . .
29.5(31) . . .
28.0(29) . . .
26.4(28) . . .
31.7(30) . . .
24.0(25) . . .
27.7(29) . . .
22.4(24) . . .
24.9(27) . . .
33.4(32) . . .
31.3(29) . . .
34.5(33) . . .
22.1(25) . . .
29.1(29) . . .
33.2(30) . . .
32.3(30) . . .
24.5(27) . . .
22.1(26) . . .
23.2(27) . . .
33.5(32) . . .
31.8(29) . . .
32.9(30) . . .
34.3(32) . . .
19.9(23) . . .
24.1(25) . . .
28.3(29) . . .
22.8(25) . . .
28.6(31) . . .
25.5(27) . . .
28.9(28) . . .
21.8(25) . . .
29.4(30) . . .
25.4(28) . . .
21.8(25) . . .
33.9(30) . . .
26.4(26) . . .
31.7(31) . . .
29.8(31) . . .
24.2(26) . . .
27.8(27) . . .
31.1(31) . . .
38.2(35) . . .
27.7(29) . . .
28.2(28) . . .
28.9(28) . . .
26.5(28) . . .
23.8(27) . . .
29.6(30) . . .
32.0(31) . . .
27.5(27) . . .
32.2(33) . . .
30.7(31) . . .
25.0(27) . . .
24.6(26) . . .
24.5(26) . . .
27.4(29) . . .
28.2(30) . . .
23.0(26) . . .
33.5(30) . . .
29.5(28) . . .
26.9(28) . . .
23.6(26) . . .
29.5(29) . . .
27.8(27) . . .
26.4(27) . . .
29.7(31) . . .
24.7(29) . . .
26.9(28) . . .
25.9(27) . . .
32.5(29) . . .
25.9(27) . . .
25.8(30) . . .
23.7(26) . . .
32.5(30) . . .
33.2(31) . . .
25.8(26) . . .
30.0(30) . . .
34.7(33) . . .
43.4(34) . . .
28.1(28) . . .
31.8(32) . . .
29.2(30) . . .
26.4(28) . . .
21.3(24) . . .
25.2(28) . . .
24.1(28) . . .
23.6(27) . . .
28.5(28) . . .
30.3(28) . . .
32.1(31) . . .
34.6(32) . . .
27.3(29) . . .
23.1(26) . . .
26.0(27) . . .
31.9(32) . . .
22.7(27) . . .
24.5(26) . . .
35.8(32) . . .
26.8(27) . . .
28.7(29) . . .
34.8(32) . . .
31.0(29) . . .
32.4(32) . . .
34.2(32) . . .
28.5(29) . . .
27.9(31) . . .
32.3(31) . . .
32.7(32) . . .
21.8(25) . . .
26.6(28) . . .
28.4(28) . . .
26.6(28) . . .
24.2(26) . . .
26.8(27) . . .
31.6(34) . . .
26.4(28) . . .
25.2(25) . . .
25.4(26) . . .
25.4(27) . . .
26.5(29) . . .
27.5(31) . . .
30.3(29) . . .
26.1(27) . . .
29.4(28) . . .
26.4(26) . . .
26.8(27) . . .
28.7(29) . . .
35.2(31) . . .
27.3(29) . . .
31.7(30) . . .
29.0(31) . . .
26.9(30) . . .
30.1(29) . . .
32.4(31) . . .
27.8(34) . . .
27.3(29) . . .
28.9(29) . . .
29.2(28) . . .
23.7(26) . . .
33.4(33) . . .
27.0(27) . . .
26.2(28) . . .
24.4(25) . . .
30.1(29) . . .
32.8(31) . . .
27.9(29) . . .
22.9(26) . . .
32.3(30) . . .
31.5(30) . . .
25.3(29) . . .
27.8(28) . . .
27.4(28) . . .
27.0(27) . . .
30.2(29) . . .
26.0(27) . . .
21.2(25) . . .
35.2(34) . . .
24.1(26) . . .
32.9(31) . . .
42(4) . . .
30.9(30) . . .
25.6(26) . . .
21.3(24) . . .
23.6(26) . . .
33.8(33) . . .
28.4(28) . . .
33.2(31) . . .
31.4(29) . . .
28.0(28) . . .
39(4) . . .
23.3(26) . . .
26.3(26) . . .
25.7(26) . . .
30.3(30) . . .
25.0(27) . . .
30.3(30) . . .
29.5(28) . . .
30.3(31) . . .
28.2(30) . . .
24.1(27) . . .
26.9(27) . . .
19.0(23) . . .
27.2(28) . . .
29.0(29) . . .
26.4(27) . . .
27.1(29) . . .
30.0(28) . . .
21.5(25) . . .
21.3(25) . . .
31.2(31) . . .
24.4(27) . . .
28.0(28) . . .
33.9(31) . . .
36.0(33) . . .
29.9(31) . . .
29.5(29) . . .
26.6(27) . . .
26.3(28) . . .
30.7(32) . . .
29.8(29) . . .
30.8(28) . . .
26.1(27) . . .
27.7(29) . . .
17.4(24) . . .
25.0(26) . . .
35.0(31) . . .
29.1(28) . . .
25.4(28) . . .
28.4(31) . . .
20.1(24) . . .
30.4(29) . . .
31.0(29) . . .
27.2(27) . . .
29.0(29) . . .
28.8(28) . . .
26.0(26) . . .
28.3(28) . . .
30.0(29) . . .
32.7(33) . . .
26.6(27) . . .
36.0(31) . . .
28.2(28) . . .
20.4(23) . . .
29.3(33) . . .
29.8(30) . . .
30.5(30) . . .
31.8(30) . . .
29.4(28) . . .
21.5(25) . . .
20.5(24) . . .
33.4(30) . . .
27.8(28) . . .
23.9(25) . . .
21.0(24) . . .
28.7(29) . . .
22.7(25) . . .
21.0(24) . . .
32.9(30) . . .
36.2(34) . . .
29.4(29) . . .
25.6(27) . . .
24.0(25) . . .
26.4(28) . . .
27.4(28) . . .
34.5(31) . . .
31.7(29) . . .
25.9(27) . . .
25.9(28) . . .
26.9(29) . . .
27.8(28) . . .
32.8(29) . . .
29.9(29) . . .
27.9(28) . . .
25.7(26) . . .
27.6(27) . . .
28.0(27) . . .
32.7(31) . . .
26.1(27) . . .
31.9(30) . . .
27.9(27) . . .
27.2(27) . . .
26.2(29) . . .
24.7(27) . . .
27.1(28) . . .
31.2(29) . . .
23.5(25) . . .
19.7(23) . . .
29.8(31) . . .
29.0(29) . . .
25.3(26) . . .
24.4(26) . . .
20.8(25) . . .
25.8(28) . . .
28.1(28) . . .
30.5(29) . . .
28.4(27) . . .
30.6(31) . . .
28.2(29) . . .
28.0(29) . . .
33.0(31) . . .
25.6(27) . . .
19.5(23) . . .
32.0(33) . . .
25.8(27) . . .
25.4(26) . . .
30.3(29) . . .
31.4(29) . . .
28.5(28) . . .
22.7(26) . . .
26.4(27) . . .
28.6(29) . . .
33.3(31) . . .
25.1(25) . . .
25.1(27) . . .
22.9(25) . . .
29.7(29) . . .
34.4(31) . . .
27.8(27) . . .
31.1(29) . . .
29.4(29) . . .
26.6(28) . . .
30.3(31) . . .
29.0(29) . . .
25.9(26) . . .
29.2(29) . . .
27.9(27) . . .
24.4(28) . . .
24.6(27) . . .
21.7(25) . . .
29.5(28) . . .
34.1(31) . . .
27.4(28) . . .
32.7(32) . . .
29.2(28) . . .
28.1(28) . . .
26.4(27) . . .
23.6(25) . . .
25.6(27) . . .
33.3(30) . . .
28.4(28) . . .
32.8(31) . . .
25.7(29) . . .
21.7(25) . . .
21.9(24) . . .
22.0(24) . . .
25.1(27) . . .
30.5(31) . . .
32.5(30) . . .
37.9(32) . . .
24.4(26) . . .
23.5(27) . . .
22.2(26) . . .
31.6(31) . . .
28.4(28) . . .
31.7(29) . . .
33.1(31) . . .
34.7(33) . . .
26.2(27) . . .
24.9(27) . . .
32.2(30) . . .
21.4(24) . . .
35.7(34) . . .
22.5(24) . . .
25.5(26) . . .
28.4(30) . . .
31.8(32) . . .
32.2(31) . . .
23.6(26) . . .
17.5(23) . . .
23.5(26) . . .
40(4) . . .
34.6(31) . . .
26.9(27) . . .
22.2(25) . . .
25.5(27) . . .
23.8(28) . . .
32.2(32) . . .
29.3(28) . . .
22.8(25) . . .
25.0(28) . . .
33.4(34) . . .
29.7(29) . . .
29.4(29) . . .
26.1(27) . . .
29.5(29) . . .
28.5(29) . . .
20.5(23) . . .
22.5(24) . . .
26.6(27) . . .
28.9(30) . . .
23.5(28) . . .
loop_
_refln_index_h
_refln_index_k
_refln_index_l
_refln_observed_status
_refln_F_squared_meas
_refln_F_squared_calc
_refln_phase_calc
_refln_d_spacing
_gsas_i100_meas
0 0 2 o 47.428 386.084 180.00 6.58198 0.06
0 2 0 o 1311.860 1533.739 180.00 8.19922 2.53
0 1 3 o 54.026 41.098 180.00 4.23886 0.06
1 0 1 o 13019.389 13424.173 0.00 5.87687 25.82
0 0 4 o 238.577 251.365 180.00 3.29099 0.07
0 2 2 o 32369.201 33095.680 0.00 5.13275 48.98
0 3 1 o 1373.409 1702.251 180.00 5.04824 2.01
0 4 0 o 2574.201 1987.542 0.00 4.09961 1.24
1 0 3 o 347.588 209.351 180.00 3.64858 0.27
1 1 2 o 4473.740 3896.176 0.00 4.47282 10.29
1 2 1 o 1603.697 1769.984 0.00 4.77661 4.20
0 1 5 o 1512.951 1548.835 180.00 2.59950 0.59
0 2 4 o 1221.510 614.810 0.00 3.05415 0.66
1 1 4 o 129.513 66.903 0.00 2.89602 0.13
0 0 6 o 1439.557 1938.752 0.00 2.19399 0.20
1 2 3 o 713.211 967.524 0.00 3.33344 0.91
0 5 1 o 48.397 14.232 180.00 3.18241 0.03
1 0 5 o 169.832 619.955 180.00 2.44375 0.06
0 3 3 o 11928.664 12947.916 0.00 3.42184 8.04
1 4 1 o 678.258 761.793 180.00 3.36234 0.88
0 2 6 o 894.906 800.684 180.00 2.11943 0.23
0 6 0 o 2601.836 2567.387 0.00 2.73307 0.56
0 4 2 o 0.959 7.419 0.00 3.47982 0.00
1 3 2 o 3283.277 3604.605 0.00 3.54141 4.74
1 2 5 o 303.848 495.822 0.00 2.34194 0.19
1 1 6 o 1087.158 1048.399 180.00 2.06440 0.54
0 1 7 o 388.129 816.741 0.00 1.86832 0.08
0 3 5 o 0.000 78.525 0.00 2.37199 0.00
1 0 7 o 1073.438 1157.640 0.00 1.80791 0.20
0 0 8 o 327.837 307.211 180.00 1.64550 0.03
2 0 0 o 2231.305 2167.502 180.00 3.28384 0.69
1 3 4 o 27.984 30.548 0.00 2.59079 0.02
2 1 1 o 1052.481 923.179 180.00 3.12771 1.19
2 0 2 o 690.143 496.228 0.00 2.93843 0.34
2 2 0 o 110.265 67.669 0.00 3.04844 0.06
1 6 1 o 669.248 959.970 0.00 2.47819 0.48
0 7 1 o 55.719 257.781 0.00 2.30640 0.02
2 1 3 o 1180.926 1202.656 0.00 2.59597 0.92
0 6 2 o 364.198 649.932 0.00 2.52412 0.13
1 2 7 o 1433.430 1434.157 180.00 1.76550 0.52
2 0 4 o 1287.018 1196.574 180.00 2.32455 0.40
0 4 4 o 9924.222 11471.302 0.00 2.56638 3.78
1 5 2 o 3077.620 2920.348 180.00 2.67995 2.55
0 2 8 o 1701.589 1325.868 180.00 1.61333 0.26
1 3 6 o 1284.166 1053.266 0.00 1.94479 0.56
0 3 7 o 1406.733 1353.998 0.00 1.77827 0.26
1 1 8 o 1545.849 1269.085 0.00 1.58865 0.46
2 3 1 o 728.370 631.006 0.00 2.75270 0.64
0 1 9 o 1891.311 1549.355 0.00 1.45688 0.24
2 2 2 o 2341.881 1977.008 180.00 2.76616 2.07
2 4 0 o 1742.440 2063.777 180.00 2.56298 0.66
0 8 0 o 364.053 335.971 0.00 2.04981 0.04
1 4 3 o 5308.725 5388.977 0.00 2.72550 4.55
0 4 6 o 3995.088 3480.001 180.00 1.93440 0.87
2 1 5 o 260.842 214.487 180.00 2.03819 0.13
2 0 6 o 67.974 84.796 0.00 1.82429 0.01
2 2 4 o 0.000 137.170 0.00 2.23641 0.00
1 0 9 o 1758.510 1193.148 180.00 1.42769 0.21
1 4 5 o 207.585 189.167 180.00 2.09911 0.11
0 5 3 o 547.152 598.695 180.00 2.62700 0.22
0 0 10 o 4611.163 6879.853 180.00 1.31640 0.24
1 8 1 o 592.288 510.054 180.00 1.93545 0.26
1 3 8 o 53.857 49.501 0.00 1.53217 0.01
0 3 9 o 17.168 14.657 0.00 1.41295 0.00
2 2 6 o 623.775 587.320 180.00 1.78075 0.23
2 5 1 o 0.000 2.899 0.00 2.28532 0.00
2 3 3 o 0.000 85.658 180.00 2.36931 0.00
1 2 9 o 40.760 35.417 180.00 1.40652 0.01
1 7 2 o 2754.413 2692.857 0.00 2.09205 1.40
0 2 10 o 4.149 4.761 0.00 1.29975 0.00
0 9 1 o 3972.665 4162.428 0.00 1.80484 0.75
2 1 7 o 487.716 372.846 0.00 1.62389 0.15
2 6 0 o 3000.372 2691.335 180.00 2.10069 0.77
1 1 10 o 8.738 8.717 0.00 1.28674 0.00
2 4 2 o 44.910 286.893 180.00 2.38830 0.03
1 4 7 o 204.253 200.930 180.00 1.65420 0.07
0 8 2 o 1844.692 1584.738 180.00 1.95710 0.41
0 4 8 o 125.523 116.357 180.00 1.52708 0.02
0 5 5 o 23546.031 22958.316 0.00 2.05310 5.76
2 3 5 o 1085.238 961.652 0.00 1.92283 0.47
2 0 8 o 554.573 444.215 180.00 1.47113 0.07
1 5 4 o 6042.761 6384.261 0.00 2.19011 3.36
1 6 3 o 4824.187 4980.949 180.00 2.18743 2.68
2 7 1 o 416.580 531.026 180.00 1.88739 0.17
0 7 3 o 7418.493 7041.142 0.00 2.06657 1.84
0 10 0 o 10139.122 9055.528 180.00 1.63984 0.80
2 3 7 o 2060.160 1860.096 180.00 1.56371 0.59
1 3 10 o 1.913 1.895 0.00 1.25618 0.00
0 5 7 o 67.997 57.678 180.00 1.63140 0.01
2 2 8 o 2341.273 1691.414 0.00 1.44801 0.58
2 6 2 o 612.317 680.535 180.00 2.00124 0.29
2 4 4 o 1124.018 965.982 180.00 2.02211 0.53
1 5 6 o 757.964 858.027 0.00 1.75710 0.27
2 1 9 o 1026.118 1458.054 180.00 1.33170 0.22
2 8 0 o 3.815 5.171 180.00 1.73885 0.00
3 0 1 o 2676.151 2510.625 180.00 2.15957 0.72
1 9 2 o 11.922 13.972 0.00 1.69642 0.00
1 4 9 o 0.385 0.406 180.00 1.34827 0.00
1 10 1 o 412.087 312.524 180.00 1.57951 0.12
0 4 10 o 85.982 89.684 180.00 1.25337 0.01
2 0 10 o 1853.292 2693.627 0.00 1.22188 0.17
3 1 2 o 2962.255 3000.656 180.00 2.06086 1.46
2 4 6 o 2496.658 2800.892 0.00 1.66672 0.81
2 5 3 o 110.712 112.409 0.00 2.05136 0.05
0 6 4 o 8972.215 8059.032 180.00 2.10256 2.30
0 10 2 o 2075.940 1737.923 0.00 1.59120 0.31
3 0 3 o 4286.793 3835.443 0.00 1.95896 0.96
2 2 10 o 701.491 1188.043 180.00 1.20853 0.12
3 2 1 o 32.920 35.095 0.00 2.08834 0.02
3 0 5 o 2978.656 2511.830 180.00 1.68331 0.49
0 11 1 o 7520.480 5557.554 180.00 1.48130 0.97
3 1 4 o 3938.344 4009.230 0.00 1.81161 1.51
1 5 8 o 52.679 34.480 180.00 1.43521 0.01
1 8 3 o 247.925 253.172 0.00 1.78709 0.09
0 5 9 o 0.049 0.060 0.00 1.33584 0.00
0 9 3 o 117.985 98.077 180.00 1.68275 0.02
0 6 6 o 5042.770 6534.613 0.00 1.71092 0.86
2 3 9 o 1494.262 1686.233 0.00 1.29791 0.30
3 1 6 o 164.248 149.495 180.00 1.54283 0.05
2 4 8 o 1926.384 1806.567 180.00 1.38468 0.44
3 2 3 o 5104.672 4023.093 180.00 1.90533 2.16
2 8 2 o 146.941 118.686 180.00 1.68117 0.05
3 2 5 o 627.157 620.063 0.00 1.64892 0.20
3 4 1 o 974.687 813.805 180.00 1.91068 0.41
3 0 7 o 274.986 175.868 180.00 1.42652 0.03
2 9 1 o 71.731 56.156 180.00 1.58169 0.02
1 6 5 o 525.154 623.578 0.00 1.82172 0.20
3 3 2 o 1073.798 735.026 0.00 1.94183 0.47
2 5 5 o 1991.191 2507.507 180.00 1.74086 0.70
0 6 8 o 272.549 251.900 180.00 1.40971 0.03
3 1 8 o 704.729 924.694 180.00 1.31115 0.14
0 12 0 o 4753.199 4891.500 0.00 1.36654 0.26
1 6 7 o 590.140 327.964 0.00 1.50786 0.16
3 3 4 o 133.863 357.794 180.00 1.72916 0.05
2 7 3 o 1398.350 1556.777 180.00 1.74905 0.50
2 10 0 o 30.544 26.244 0.00 1.46709 0.00
3 6 1 o 1928.933 2164.063 180.00 1.69444 0.65
3 2 7 o 125.544 109.839 0.00 1.40540 0.03
2 5 7 o 3677.596 3239.272 0.00 1.46104 0.92
1 7 4 o 513.417 645.494 180.00 1.83268 0.20
1 11 2 o 194.736 145.724 180.00 1.41957 0.05
0 8 4 o 1226.833 1611.984 0.00 1.73991 0.22
1 12 1 o 0.363 0.540 0.00 1.33103 0.00
1 10 3 o 2.472 1.660 180.00 1.49572 0.00
3 5 2 o 233.191 255.610 0.00 1.75492 0.08
3 3 6 o 81.064 52.134 0.00 1.49094 0.02
3 4 3 o 304.418 249.310 180.00 1.76753 0.11
3 0 9 o 1323.074 2155.981 0.00 1.21619 0.12
1 6 9 o 187.014 144.508 180.00 1.26544 0.04
2 6 4 o 1160.001 880.237 0.00 1.77071 0.42
0 12 2 o 3189.165 3651.344 180.00 1.33800 0.34
0 11 3 o 1344.144 1257.566 0.00 1.41153 0.16
0 7 5 o 1509.017 1624.462 180.00 1.75012 0.27
2 10 2 o 824.725 557.952 180.00 1.43195 0.20
2 11 1 o 308.996 323.596 0.00 1.35028 0.07
2 5 9 o 1824.318 1645.635 180.00 1.23738 0.33
0 7 7 o 5777.709 5165.649 0.00 1.46650 0.73
3 8 1 o 2.313 1.556 180.00 1.48672 0.00
3 4 5 o 10.709 10.210 180.00 1.55716 0.00
0 13 1 o 3726.500 3745.386 0.00 1.25567 0.35
3 3 8 o 7.636 6.530 180.00 1.27886 0.00
2 9 3 o 79.293 56.505 0.00 1.49757 0.02
2 6 6 o 3138.475 3151.160 180.00 1.51733 0.85
1 7 6 o 608.971 600.710 0.00 1.55578 0.17
3 7 2 o 2077.855 2058.218 180.00 1.55427 0.59
2 12 0 o 941.549 860.866 180.00 1.26165 0.09
1 9 4 o 426.965 378.314 0.00 1.54907 0.12
0 10 4 o 95.566 84.532 180.00 1.46773 0.01
3 4 7 o 432.439 469.069 0.00 1.34728 0.09
2 6 8 o 3150.495 3451.854 0.00 1.29539 0.63
0 7 9 o 156.712 136.064 0.00 1.24069 0.01
3 5 4 o 591.674 497.931 180.00 1.59324 0.18
3 6 3 o 388.723 341.135 0.00 1.59220 0.12
4 0 0 o 3155.013 3142.442 0.00 1.64192 0.25
1 7 8 o 234.231 463.527 0.00 1.31908 0.05
2 8 4 o 2649.957 2722.455 180.00 1.53744 0.74
4 2 0 o 703.478 436.166 180.00 1.60996 0.11
4 1 1 o 1836.589 1351.473 0.00 1.62131 0.57
3 5 6 o 319.726 259.179 180.00 1.40116 0.07
1 13 2 o 7.893 13.026 180.00 1.21740 0.00
4 0 2 o 301.323 252.735 180.00 1.59310 0.04
1 12 3 o 38.222 32.693 180.00 1.27972 0.01
4 1 3 o 786.424 677.111 180.00 1.53107 0.22
4 0 4 o 1456.093 1272.418 0.00 1.46922 0.19
2 7 5 o 1928.885 1738.508 0.00 1.54447 0.54
1 8 5 o 802.234 763.648 180.00 1.57048 0.23
4 2 2 o 2209.568 2179.930 0.00 1.56385 0.63
4 3 1 o 1058.920 1084.120 180.00 1.56141 0.30
3 10 1 o 8.393 10.118 0.00 1.30600 0.00
3 9 2 o 64.139 71.400 180.00 1.36980 0.01
2 12 2 o 980.720 847.578 0.00 1.23910 0.18
4 4 0 o 1715.122 1932.347 0.00 1.52422 0.23
4 1 5 o 1559.644 1422.842 0.00 1.38819 0.36
0 13 3 o 342.749 600.930 180.00 1.21232 0.03
0 8 6 o 2067.436 1730.772 180.00 1.49781 0.27
2 11 3 o 1274.895 1404.072 180.00 1.29680 0.25
4 0 6 o 1037.110 1453.154 180.00 1.31456 0.11
1 11 4 o 7.384 11.469 180.00 1.32981 0.00
4 2 4 o 1399.300 872.725 180.00 1.44618 0.34
3 5 8 o 504.704 824.679 0.00 1.22084 0.09
4 2 6 o 490.954 550.008 0.00 1.29799 0.10
2 7 7 o 3455.036 3632.399 180.00 1.33904 0.73
3 8 3 o 1175.468 1016.805 180.00 1.41622 0.28
4 1 7 o 641.157 601.944 180.00 1.23333 0.12
0 9 5 o 1717.078 1428.768 0.00 1.49825 0.23
4 3 3 o 3294.263 2541.424 0.00 1.48032 0.85
4 6 0 o 4174.711 3965.573 180.00 1.40746 0.49
4 5 1 o 2815.058 2734.466 0.00 1.45916 0.71
4 4 2 o 2378.437 1652.874 180.00 1.48492 0.62
0 8 8 o 934.424 867.588 0.00 1.28319 0.09
0 12 4 o 3.954 3.690 0.00 1.26206 0.00
3 6 5 o 42.667 31.620 180.00 1.43327 0.01
2 10 4 o 550.028 563.987 0.00 1.33998 0.12
1 8 7 o 213.435 179.140 0.00 1.35588 0.05
4 3 5 o 194.520 221.620 180.00 1.35003 0.04
3 6 7 o 710.410 566.024 180.00 1.26462 0.14
3 7 4 o 27.579 14.501 0.00 1.43859 0.01
3 11 2 o 191.201 357.175 0.00 1.21117 0.03
4 7 1 o 2474.190 2712.707 180.00 1.33759 0.52
4 4 4 o 1190.636 1140.908 0.00 1.38308 0.27
3 10 3 o 604.550 581.598 180.00 1.25743 0.11
1 10 5 o 277.924 269.799 0.00 1.36168 0.06
4 6 2 o 1201.625 1505.118 0.00 1.37635 0.27
4 8 0 o 2400.190 2060.275 0.00 1.28149 0.23
0 11 5 o 487.056 528.980 0.00 1.29724 0.05
2 8 6 o 2863.285 2641.637 0.00 1.36275 0.63
4 5 3 o 891.811 727.782 180.00 1.39233 0.20
4 4 6 o 83.702 110.312 180.00 1.25178 0.02
2 9 5 o 4313.984 3920.747 180.00 1.36308 0.95
1 9 6 o 382.399 418.955 180.00 1.37083 0.08
4 9 1 o 1019.073 1731.390 0.00 1.21454 0.18
0 9 7 o 34.964 40.904 180.00 1.30858 0.00
3 7 6 o 57.616 65.035 0.00 1.29249 0.01
4 8 2 o 2151.437 2084.141 180.00 1.25787 0.41
3 9 4 o 166.313 180.872 180.00 1.28864 0.03
4 5 5 o 796.071 705.584 0.00 1.28230 0.16
4 7 3 o 974.133 1009.643 0.00 1.28556 0.19
3 8 5 o 90.552 126.589 180.00 1.30088 0.02
4 6 4 o 411.073 456.882 180.00 1.29408 0.08
0 10 6 o 1.184 1.393 0.00 1.31350 0.00
5 0 1 o 2090.697 2251.729 0.00 1.30705 0.21
5 2 1 o 453.643 546.776 0.00 1.29075 0.09
5 1 2 o 510.139 513.393 0.00 1.28418 0.10
5 0 3 o 0.016 0.016 0.00 1.25837 0.00
2 9 7 o 63.278 105.760 0.00 1.21562 0.01
5 2 3 o 460.988 346.699 0.00 1.24380 0.08
5 3 2 o 577.239 571.054 0.00 1.25379 0.11
5 1 4 o 6.448 10.448 0.00 1.21659 0.00
5 4 1 o 3.244 2.692 180.00 1.24529 0.00
1 11 6 o 88.486 172.158 0.00 1.21188 0.02
1 10 7 o 128.460 233.353 180.00 1.21463 0.02
2 10 6 o 213.177 415.144 180.00 1.21956 0.04
