#------------------------------------------------------------------------------
#$Date: 2019-10-29 22:52:51 +0200 (Tue, 29 Oct 2019) $
#$Revision: 220373 $
#$URL: file:///home/coder/svn-repositories/cod/cif/4/00/29/4002949.cif $
#------------------------------------------------------------------------------
#
# This file is available in the Crystallography Open Database (COD),
# http://www.crystallography.net/
#
# All data on this site have been placed in the public domain by the
# contributors.
#
data_4002949
loop_
_publ_author_name
'Gouget, Guillaume'
'Duttine, Mathieu'
'Chung, U-Chan'
'Fourcade, S\'ebastien'
'Mauvy, Fabrice'
'Braida, Marc-David'
'Le Mercier, Thierry'
'Demourgues, Alain'
_publ_section_title
;
 High Ionic Conductivity in Oxygen-Deficient Ti-Substituted Sodium
 Niobates and the Key Role of Structural Features
;
_journal_issue                   8
_journal_name_full               'Chemistry of Materials'
_journal_page_first              2828
_journal_paper_doi               10.1021/acs.chemmater.8b05292
_journal_volume                  31
_journal_year                    2019
_chemical_formula_sum            'Na Nb0.9 O2.95 Ti0.1'
_chemical_formula_weight         158.6
_space_group_IT_number           63
_space_group_name_Hall           '-C 2c 2'
_space_group_name_H-M_alt        'C m c m'
_symmetry_cell_setting           orthorhombic
_symmetry_Int_Tables_number      63
_symmetry_space_group_name_Hall  '-C 2c 2'
_symmetry_space_group_name_H-M   'C m c m'
_cell_angle_alpha                90
_cell_angle_beta                 90
_cell_angle_gamma                90
_cell_formula_units_Z            8
_cell_length_a                   7.8393(3)
_cell_length_b                   7.8455(4)
_cell_length_c                   7.8495(3)
_cell_measurement_temperature    693
_cell_volume                     482.77(4)
_diffrn_ambient_temperature      693
_diffrn_radiation_probe          x-ray
_diffrn_radiation_wavelength     1.790276
_exptl_absorpt_coefficient_mu    58.745
_exptl_crystal_density_diffrn    4.3639
_exptl_crystal_F_000             590
_pd_instr_location               ' ?'
_pd_meas_2theta_range_inc        0.017
_pd_meas_2theta_range_max        74.987
_pd_meas_2theta_range_min        15.011
_pd_meas_number_of_points        3529
_pd_proc_2theta_range_inc        0.017
_pd_proc_2theta_range_max        74.987
_pd_proc_2theta_range_min        15.011
_pd_proc_ls_background_function  '6 Legendre polynoms'
_pd_proc_ls_pref_orient_corr     none
_pd_proc_ls_profile_function     Pseudo-Voigt
_pd_proc_ls_prof_R_factor        0.0225
_pd_proc_ls_prof_wR_expected     0.0166
_pd_proc_ls_prof_wR_factor       0.0284
_refine_ls_goodness_of_fit_all   1.71
_refine_ls_number_constraints    0
_refine_ls_number_parameters     21
_refine_ls_number_restraints     0
_refine_ls_R_factor_all          0.0296
_refine_ls_R_factor_gt           0.0162
_refine_ls_shift/su_max          0.0971
_refine_ls_shift/su_mean         0.0199
_refine_ls_weighting_scheme      sigma
_refine_ls_wR_factor_all         0.0315
_refine_ls_wR_factor_gt          0.0277
_cod_data_source_file            cm8b05292_si_004.cif
_cod_data_source_block           I
_cod_depositor_comments
;
The following automatic conversions were performed:

'_diffrn_radiation_probe' value 'X-ray' changed to 'x-ray' according
to
/home/data/users/saulius/crontab/automatic-downloads/current/ACS/lib/dictionaries/cif_core.dic
dictionary named 'cif_core.dic' version 2.4.2 from 2011-04-26.

Automatic conversion script
Id: cif_fix_values 4973 2017-02-22 13:04:09Z antanas 
;
_cod_original_sg_symbol_Hall     '-C -2x;-2yc;-2zc'
_cod_original_formula_sum        'Na1 Nb0.9 O2.95 Ti0.1'
_cod_database_code               4002949
loop_
_space_group_symop_id
_space_group_symop_operation_xyz
1 x,y,z
2 -x,-y,z+1/2
3 -x,y,-z+1/2
4 x,-y,-z
5 -x,-y,-z
6 x,y,-z+1/2
7 x,-y,z+1/2
8 -x,y,z
9 x+1/2,y+1/2,z
10 -x+1/2,-y+1/2,z+1/2
11 -x+1/2,y+1/2,-z+1/2
12 x+1/2,-y+1/2,-z
13 -x+1/2,-y+1/2,-z
14 x+1/2,y+1/2,-z+1/2
15 x+1/2,-y+1/2,z+1/2
16 -x+1/2,y+1/2,z
loop_
_atom_site_label
_atom_site_type_symbol
_atom_site_fract_x
_atom_site_fract_y
_atom_site_fract_z
_atom_site_adp_type
_atom_site_U_iso_or_equiv
_atom_site_site_symmetry_multiplicity
_atom_site_occupancy
_atom_site_calc_flag
Nb1 Nb 0.25 0.25 0 Uiso 0.0063 8 0.9 d
Ti1 Ti 0.25 0.25 0 Uiso 0.0063 8 0.1 d
Na1 Na 0 -0.009(2) 0.25 Uiso 0.0127 4 1 d
Na2 Na 0 0.5181(16) 0.25 Uiso 0.0127 4 1 d
O1 O 0.228(4) 0 0 Uiso 0.0127 8 1 d
O2 O 0 0.263(5) -0.001(5) Uiso 0.0127 8 1 d
O3 O 0.2096(19) 0.285(2) 0.25 Uiso 0.0127 8 0.95 d
loop_
_atom_type_symbol
_atom_type_scat_dispersion_real
_atom_type_scat_dispersion_imag
_atom_type_scat_source
Na 0.1670 0.1667 'International Tables Vol C tables 4.2.6.8 and 6.1.1.1'
Nb 0.0496 3.2133 'International Tables Vol C tables 4.2.6.8 and 6.1.1.1'
O 0.0630 0.0440 'International Tables Vol C tables 4.2.6.8 and 6.1.1.1'
Ti -0.0617 2.3213 'International Tables Vol C tables 4.2.6.8 and 6.1.1.1'
loop_
_geom_bond_atom_site_label_1
_geom_bond_atom_site_label_2
_geom_bond_site_symmetry_2
_geom_bond_distance
Nb1 Ti1 . 0
Nb1 O1 . 1.969(3)
Nb1 O1 13_555 1.969(3)
Nb1 O2 . 1.9624(19)
Nb1 O2 12_555 1.9624(19)
Nb1 O3 . 2.007(3)
Nb1 O3 10_554 2.007(3)
Ti1 O1 . 1.969(3)
Ti1 O1 13_555 1.969(3)
Ti1 O2 . 1.9624(19)
Ti1 O2 12_555 1.9624(19)
Ti1 O3 . 2.007(3)
Ti1 O3 10_554 2.007(3)
Na2 O3 . 2.458(19)
Na2 O3 3_555 2.458(19)
loop_
_pd_proc_point_id
_pd_proc_2theta_corrected
_pd_proc_intensity_net
_pd_calc_intensity_net
_pd_proc_ls_weight
1 14.9690 2490.00 2216.39 49.90
2 14.9860 2472.00 2219.64 49.72
3 15.0030 2445.00 2222.88 49.45
4 15.0200 2447.00 2226.11 49.47
5 15.0370 2391.00 2229.34 48.90
6 15.0540 2412.00 2232.55 49.11
7 15.0710 2490.00 2235.76 49.90
8 15.0880 2372.00 2238.96 48.70
9 15.1050 2370.00 2242.15 48.68
10 15.1220 2414.00 2245.33 49.13
11 15.1390 2465.00 2248.51 49.65
12 15.1560 2442.00 2251.67 49.42
13 15.1730 2332.00 2254.83 48.29
14 15.1900 2363.00 2257.98 48.61
15 15.2070 2352.00 2261.13 48.50
16 15.2240 2391.00 2264.26 48.90
17 15.2410 2478.00 2267.39 49.78
18 15.2580 2417.00 2270.51 49.16
19 15.2750 2397.00 2273.62 48.96
20 15.2920 2338.00 2276.72 48.35
21 15.3090 2354.00 2279.82 48.52
22 15.3260 2437.00 2282.91 49.37
23 15.3430 2426.00 2285.99 49.25
24 15.3600 2399.00 2289.06 48.98
25 15.3770 2355.00 2292.12 48.53
26 15.3940 2339.00 2295.18 48.36
27 15.4110 2420.00 2298.22 49.19
28 15.4280 2496.00 2301.26 49.96
29 15.4450 2441.00 2304.30 49.41
30 15.4620 2454.00 2307.32 49.54
31 15.4790 2592.00 2310.34 50.91
32 15.4960 2490.00 2313.35 49.90
33 15.5130 2498.00 2316.35 49.98
34 15.5300 2458.00 2319.34 49.58
35 15.5470 2463.00 2322.33 49.63
36 15.5640 2471.00 2325.31 49.71
37 15.5810 2542.00 2328.28 50.42
38 15.5980 2352.00 2331.24 48.50
39 15.6150 2386.00 2334.20 48.85
40 15.6320 2475.00 2337.14 49.75
41 15.6490 2471.00 2340.08 49.71
42 15.6660 2487.00 2343.01 49.87
43 15.6830 2368.00 2345.94 48.66
44 15.7000 2434.00 2348.86 49.34
45 15.7170 2445.00 2351.77 49.45
46 15.7340 2385.00 2354.67 48.84
47 15.7510 2491.00 2357.56 49.91
48 15.7680 2512.00 2360.45 50.12
49 15.7850 2494.00 2363.33 49.94
50 15.8020 2458.00 2366.20 49.58
51 15.8190 2476.00 2369.06 49.76
52 15.8360 2402.00 2371.92 49.01
53 15.8530 2451.00 2374.77 49.51
54 15.8700 2492.00 2377.61 49.92
55 15.8870 2534.00 2380.44 50.34
56 15.9040 2518.00 2383.27 50.18
57 15.9210 2459.00 2386.09 49.59
58 15.9380 2591.00 2388.90 50.90
59 15.9550 2437.00 2391.71 49.37
60 15.9720 2374.00 2394.50 48.72
61 15.9890 2476.00 2397.29 49.76
62 16.0060 2472.00 2400.07 49.72
63 16.0230 2570.00 2402.85 50.70
64 16.0400 2518.00 2405.62 50.18
65 16.0570 2485.00 2408.38 49.85
66 16.0740 2522.00 2411.13 50.22
67 16.0910 2500.00 2413.87 50.00
68 16.1080 2532.00 2416.61 50.32
69 16.1250 2511.00 2419.34 50.11
70 16.1420 2475.00 2422.07 49.75
71 16.1590 2402.00 2424.78 49.01
72 16.1760 2418.00 2427.49 49.17
73 16.1930 2462.00 2430.19 49.62
74 16.2100 2442.00 2432.89 49.42
75 16.2270 2465.00 2435.57 49.65
76 16.2440 2440.00 2438.26 49.40
77 16.2610 2373.00 2440.93 48.71
78 16.2780 2475.00 2443.59 49.75
79 16.2950 2421.00 2446.25 49.20
80 16.3120 2409.00 2448.90 49.08
81 16.3290 2494.00 2451.55 49.94
82 16.3460 2492.00 2454.19 49.92
83 16.3630 2578.00 2456.82 50.77
84 16.3800 2368.00 2459.44 48.66
85 16.3970 2503.00 2462.05 50.03
86 16.4140 2546.00 2464.66 50.46
87 16.4310 2488.00 2467.26 49.88
88 16.4480 2403.00 2469.86 49.02
89 16.4650 2413.00 2472.45 49.12
90 16.4820 2472.00 2475.03 49.72
91 16.4990 2403.00 2477.60 49.02
92 16.5160 2311.00 2480.17 48.07
93 16.5330 2411.00 2482.73 49.10
94 16.5500 2487.00 2485.28 49.87
95 16.5670 2462.00 2487.82 49.62
96 16.5840 2426.00 2490.36 49.25
97 16.6010 2398.00 2492.89 48.97
98 16.6180 2420.00 2495.42 49.19
99 16.6350 2493.00 2497.93 49.93
100 16.6520 2559.00 2500.45 50.59
101 16.6690 2503.00 2502.95 50.03
102 16.6860 2456.00 2505.45 49.56
103 16.7030 2486.00 2507.94 49.86
104 16.7200 2487.00 2510.42 49.87
105 16.7370 2482.00 2512.90 49.82
106 16.7540 2377.00 2515.37 48.75
107 16.7710 2450.00 2517.83 49.50
108 16.7880 2472.00 2520.28 49.72
109 16.8050 2527.00 2522.73 50.27
110 16.8220 2436.00 2525.18 49.36
111 16.8390 2552.00 2527.61 50.52
112 16.8560 2441.00 2530.04 49.41
113 16.8730 2398.00 2532.46 48.97
114 16.8900 2340.00 2534.88 48.37
115 16.9070 2405.00 2537.28 49.04
116 16.9240 2439.00 2539.69 49.39
117 16.9410 2456.00 2542.08 49.56
118 16.9580 2490.00 2544.47 49.90
119 16.9750 2545.00 2546.85 50.45
120 16.9920 2468.00 2549.23 49.68
121 17.0090 2508.00 2551.59 50.08
122 17.0260 2457.00 2553.96 49.57
123 17.0430 2488.00 2556.31 49.88
124 17.0600 2465.00 2558.66 49.65
125 17.0770 2431.00 2561.00 49.31
126 17.0940 2541.00 2563.34 50.41
127 17.1110 2521.00 2565.67 50.21
128 17.1280 2474.00 2567.99 49.74
129 17.1450 2557.00 2570.30 50.57
130 17.1620 2509.00 2572.61 50.09
131 17.1790 2561.00 2574.91 50.61
132 17.1960 2606.00 2577.21 51.05
133 17.2130 2564.00 2579.50 50.64
134 17.2300 2474.00 2581.78 49.74
135 17.2470 2469.00 2584.06 49.69
136 17.2640 2540.00 2586.33 50.40
137 17.2810 2566.00 2588.59 50.66
138 17.2980 2557.00 2590.85 50.57
139 17.3150 2522.00 2593.10 50.22
140 17.3320 2529.00 2595.34 50.29
141 17.3490 2550.00 2597.58 50.50
142 17.3660 2641.00 2599.81 51.39
143 17.3830 2534.00 2602.03 50.34
144 17.4000 2501.00 2604.25 50.01
145 17.4170 2459.00 2606.46 49.59
146 17.4340 2536.00 2608.67 50.36
147 17.4510 2604.00 2610.87 51.03
148 17.4680 2490.00 2613.06 49.90
149 17.4850 2574.00 2615.25 50.73
150 17.5020 2562.00 2617.43 50.62
151 17.5190 2497.00 2619.60 49.97
152 17.5360 2536.00 2621.77 50.36
153 17.5530 2467.00 2623.93 49.67
154 17.5700 2472.00 2626.09 49.72
155 17.5870 2597.00 2628.23 50.96
156 17.6040 2620.00 2630.38 51.19
157 17.6210 2644.00 2632.51 51.42
158 17.6380 2611.00 2634.64 51.10
159 17.6550 2656.00 2636.77 51.54
160 17.6720 2518.00 2638.88 50.18
161 17.6890 2532.00 2640.99 50.32
162 17.7060 2488.00 2643.10 49.88
163 17.7230 2596.00 2645.20 50.95
164 17.7400 2657.00 2647.29 51.55
165 17.7570 2583.00 2649.38 50.82
166 17.7740 2576.00 2651.46 50.75
167 17.7910 2595.00 2653.53 50.94
168 17.8080 2622.00 2655.60 51.21
169 17.8250 2760.00 2657.66 52.54
170 17.8420 2598.00 2659.72 50.97
171 17.8590 2626.00 2661.77 51.24
172 17.8760 2577.00 2663.81 50.76
173 17.8930 2541.00 2665.85 50.41
174 17.9100 2564.00 2667.88 50.64
175 17.9270 2597.00 2669.91 50.96
176 17.9440 2563.00 2671.93 50.63
177 17.9610 2598.00 2673.94 50.97
178 17.9780 2623.00 2675.95 51.22
179 17.9950 2589.00 2677.95 50.88
180 18.0120 2645.00 2679.95 51.43
181 18.0290 2717.00 2681.94 52.12
182 18.0460 2574.00 2683.92 50.73
183 18.0630 2669.00 2685.90 51.66
184 18.0800 2752.00 2687.87 52.46
185 18.0970 2795.00 2689.84 52.87
186 18.1140 2735.00 2691.80 52.30
187 18.1310 2669.00 2693.75 51.66
188 18.1480 2717.00 2695.70 52.12
189 18.1650 2673.00 2697.65 51.70
190 18.1820 2599.00 2699.59 50.98
191 18.1990 2635.00 2701.52 51.33
192 18.2160 2675.00 2703.44 51.72
193 18.2330 2744.00 2705.37 52.38
194 18.2500 2791.00 2707.28 52.83
195 18.2670 2664.00 2709.19 51.61
196 18.2840 2685.00 2711.10 51.82
197 18.3010 2656.00 2713.01 51.54
198 18.3180 2613.00 2714.91 51.12
199 18.3350 2677.00 2716.81 51.74
200 18.3520 2628.00 2718.71 51.26
201 18.3690 2667.00 2720.61 51.64
202 18.3860 2638.00 2722.52 51.36
203 18.4030 2587.00 2724.43 50.86
204 18.4200 2605.00 2726.33 51.04
205 18.4370 2674.00 2728.22 51.71
206 18.4540 2573.00 2730.11 50.72
207 18.4710 2625.00 2731.99 51.23
208 18.4880 2765.00 2733.86 52.58
209 18.5050 2606.00 2735.72 51.05
210 18.5220 2650.00 2737.58 51.48
211 18.5390 2664.00 2739.43 51.61
212 18.5560 2769.00 2741.23 52.62
213 18.5730 2615.00 2742.98 51.14
214 18.5900 2634.00 2744.70 51.32
215 18.6070 2582.00 2746.41 50.81
216 18.6240 2691.00 2748.11 51.87
217 18.6410 2683.00 2749.83 51.80
218 18.6580 2706.00 2751.56 52.02
219 18.6750 2646.00 2753.30 51.44
220 18.6920 2588.00 2755.05 50.87
221 18.7090 2679.00 2756.79 51.76
222 18.7260 2691.00 2758.53 51.87
223 18.7430 2658.00 2760.27 51.56
224 18.7600 2707.00 2762.01 52.03
225 18.7770 2692.00 2763.74 51.88
226 18.7940 2540.00 2765.47 50.40
227 18.8110 2649.00 2767.19 51.47
228 18.8280 2762.00 2768.91 52.55
229 18.8450 2603.00 2770.62 51.02
230 18.8620 2651.00 2772.33 51.49
231 18.8790 2590.00 2774.03 50.89
232 18.8960 2531.00 2775.73 50.31
233 18.9130 2610.00 2777.42 51.09
234 18.9300 2636.00 2779.11 51.34
235 18.9470 2696.00 2780.79 51.92
236 18.9640 2728.00 2782.47 52.23
237 18.9810 2678.00 2784.14 51.75
238 18.9980 2544.00 2785.81 50.44
239 19.0150 2592.00 2787.47 50.91
240 19.0320 2618.00 2789.12 51.17
241 19.0490 2595.00 2790.77 50.94
242 19.0660 2610.00 2792.42 51.09
243 19.0830 2581.00 2794.06 50.80
244 19.1000 2658.00 2795.69 51.56
245 19.1170 2730.00 2797.32 52.25
246 19.1340 2680.00 2798.94 51.77
247 19.1510 2727.00 2800.56 52.22
248 19.1680 2716.00 2802.17 52.12
249 19.1850 2677.00 2803.78 51.74
250 19.2020 2754.00 2805.38 52.48
251 19.2190 2683.00 2806.98 51.80
252 19.2360 2668.00 2808.57 51.65
253 19.2530 2678.00 2810.16 51.75
254 19.2700 2656.00 2811.74 51.54
255 19.2870 2752.00 2813.32 52.46
256 19.3040 2747.00 2814.89 52.41
257 19.3210 2877.00 2816.46 53.64
258 19.3380 2730.00 2818.02 52.25
259 19.3550 2644.00 2819.57 51.42
260 19.3720 2732.00 2821.13 52.27
261 19.3890 2764.00 2822.67 52.57
262 19.4060 2738.00 2824.21 52.33
263 19.4230 2692.00 2825.75 51.88
264 19.4400 2833.00 2827.28 53.23
265 19.4570 2601.00 2828.80 51.00
266 19.4740 2768.00 2830.32 52.61
267 19.4910 2738.00 2831.84 52.33
268 19.5080 2780.00 2833.35 52.73
269 19.5250 2750.00 2834.85 52.44
270 19.5420 2807.00 2836.35 52.98
271 19.5590 2713.00 2837.85 52.09
272 19.5760 2681.00 2839.34 51.78
273 19.5930 2702.00 2840.82 51.98
274 19.6100 2768.00 2842.30 52.61
275 19.6270 2760.00 2843.78 52.54
276 19.6440 2722.00 2845.25 52.17
277 19.6610 2761.00 2846.71 52.55
278 19.6780 2846.00 2848.17 53.35
279 19.6950 2848.00 2849.63 53.37
280 19.7120 2771.00 2851.08 52.64
281 19.7290 2735.00 2852.52 52.30
282 19.7460 2780.00 2853.96 52.73
283 19.7630 2894.00 2855.40 53.80
284 19.7800 2782.00 2856.83 52.74
285 19.7970 2816.00 2858.26 53.07
286 19.8140 2698.00 2859.68 51.94
287 19.8310 2772.00 2861.09 52.65
288 19.8480 2727.00 2862.50 52.22
289 19.8650 2772.00 2863.91 52.65
290 19.8820 2735.00 2865.31 52.30
291 19.8990 2804.00 2866.71 52.95
292 19.9160 2748.00 2868.10 52.42
293 19.9330 2753.00 2869.49 52.47
294 19.9500 2779.00 2870.87 52.72
295 19.9670 2860.00 2872.24 53.48
296 19.9840 2783.00 2873.62 52.75
297 20.0010 2672.00 2874.98 51.69
298 20.0180 2765.00 2876.35 52.58
299 20.0350 2830.00 2877.70 53.20
300 20.0520 2792.00 2879.06 52.84
301 20.0690 2707.00 2880.41 52.03
302 20.0860 2804.00 2881.75 52.95
303 20.1030 2886.00 2883.09 53.72
304 20.1200 2730.00 2884.42 52.25
305 20.1370 2733.00 2885.75 52.28
306 20.1540 2780.00 2887.08 52.73
307 20.1710 2807.00 2888.40 52.98
308 20.1880 2803.00 2889.71 52.94
309 20.2050 2751.00 2891.03 52.45
310 20.2220 2705.00 2892.33 52.01
311 20.2390 2744.00 2893.63 52.38
312 20.2560 2746.00 2894.93 52.40
313 20.2730 2731.00 2896.22 52.26
314 20.2900 2700.00 2897.51 51.96
315 20.3070 2760.00 2898.79 52.54
316 20.3240 2801.00 2900.07 52.92
317 20.3410 2788.00 2901.35 52.80
318 20.3580 2690.00 2902.62 51.87
319 20.3750 2723.00 2903.88 52.18
320 20.3920 2812.00 2905.14 53.03
321 20.4090 2836.00 2906.40 53.25
322 20.4260 2764.00 2907.65 52.57
323 20.4430 2747.00 2908.90 52.41
324 20.4600 2822.00 2910.14 53.12
325 20.4770 2815.00 2911.38 53.06
326 20.4940 2804.00 2912.61 52.95
327 20.5110 2797.00 2913.84 52.89
328 20.5280 2923.00 2915.06 54.06
329 20.5450 2902.00 2916.28 53.87
330 20.5620 2953.00 2917.50 54.34
331 20.5790 2832.00 2918.71 53.22
332 20.5960 2896.00 2919.91 53.81
333 20.6130 2758.00 2921.12 52.52
334 20.6300 3038.00 2922.31 55.12
335 20.6470 2842.00 2923.51 53.31
336 20.6640 2855.00 2924.70 53.43
337 20.6810 2883.00 2925.88 53.69
338 20.6980 2868.00 2927.06 53.55
339 20.7150 2875.00 2928.24 53.62
340 20.7320 2775.00 2929.41 52.68
341 20.7490 2815.00 2930.57 53.06
342 20.7660 2819.00 2931.74 53.09
343 20.7830 2880.00 2932.89 53.67
344 20.8000 2802.00 2934.05 52.93
345 20.8170 2959.00 2935.20 54.40
346 20.8340 2928.00 2936.34 54.11
347 20.8510 2817.00 2937.48 53.08
348 20.8680 2925.00 2938.62 54.08
349 20.8850 2942.00 2939.75 54.24
350 20.9020 2962.00 2940.88 54.42
351 20.9190 2954.00 2942.00 54.35
352 20.9360 3006.00 2943.12 54.83
353 20.9530 2996.00 2944.24 54.74
354 20.9700 2885.00 2945.35 53.71
355 20.9870 2942.00 2946.45 54.24
356 21.0040 2953.00 2947.56 54.34
357 21.0210 2908.00 2948.66 53.93
358 21.0380 2963.00 2949.75 54.43
359 21.0550 2984.00 2950.84 54.63
360 21.0720 2991.00 2951.92 54.69
361 21.0890 2946.00 2953.01 54.28
362 21.1060 2903.00 2954.08 53.88
363 21.1230 2943.00 2955.16 54.25
364 21.1400 2934.00 2956.28 54.17
365 21.1570 2819.00 2957.34 53.09
366 21.1740 2750.00 2958.41 52.44
367 21.1910 2778.00 2959.49 52.71
368 21.2080 2825.00 2960.55 53.15
369 21.2250 2859.00 2961.60 53.47
370 21.2420 2867.00 2962.64 53.54
371 21.2590 2872.00 2963.68 53.59
372 21.2760 2839.00 2964.72 53.28
373 21.2930 2786.00 2965.76 52.78
374 21.3100 2911.00 2966.79 53.95
375 21.3270 2856.00 2967.81 53.44
376 21.3440 2928.00 2968.83 54.11
377 21.3610 2941.00 2969.85 54.23
378 21.3780 2907.00 2970.87 53.92
379 21.3950 2900.00 2971.88 53.85
380 21.4120 2903.00 2972.88 53.88
381 21.4290 2905.00 2973.89 53.90
382 21.4460 2836.00 2974.89 53.25
383 21.4630 2864.00 2975.88 53.52
384 21.4800 2989.00 2976.87 54.67
385 21.4970 2857.00 2977.86 53.45
386 21.5140 3005.00 2978.84 54.82
387 21.5310 2918.00 2979.82 54.02
388 21.5480 2953.00 2980.80 54.34
389 21.5650 2962.00 2981.77 54.42
390 21.5820 2937.00 2982.74 54.19
391 21.5990 2927.00 2983.70 54.10
392 21.6160 3028.00 2984.66 55.03
393 21.6330 3071.00 2985.62 55.42
394 21.6500 3072.00 2986.57 55.43
395 21.6670 2923.00 2987.52 54.06
396 21.6840 2882.00 2988.47 53.68
397 21.7010 3032.00 2989.41 55.06
398 21.7180 3012.00 2990.35 54.88
399 21.7350 3040.00 2991.29 55.14
400 21.7520 3027.00 2992.22 55.02
401 21.7690 2897.00 2993.15 53.82
402 21.7860 2950.00 2994.07 54.31
403 21.8030 2995.00 2994.99 54.73
404 21.8200 3044.00 2995.91 55.17
405 21.8370 2970.00 2996.83 54.50
406 21.8540 3032.00 2997.74 55.06
407 21.8710 3031.00 2998.65 55.05
408 21.8880 2972.00 2999.55 54.52
409 21.9050 2997.00 3000.45 54.74
410 21.9220 2981.00 3001.35 54.60
411 21.9390 2954.00 3002.25 54.35
412 21.9560 3017.00 3003.14 54.93
413 21.9730 3004.00 3004.03 54.81
414 21.9900 2963.00 3004.92 54.43
415 22.0070 2875.00 3005.81 53.62
416 22.0240 2902.00 3006.69 53.87
417 22.0410 3011.00 3007.57 54.87
418 22.0580 2957.00 3008.45 54.38
419 22.0750 3016.00 3009.32 54.92
420 22.0920 3060.00 3010.20 55.32
421 22.1090 2964.00 3011.07 54.44
422 22.1260 3076.00 3011.94 55.46
423 22.1430 3215.00 3012.81 56.70
424 22.1600 3149.00 3013.68 56.12
425 22.1770 3005.00 3014.55 54.82
426 22.1940 3001.00 3015.42 54.78
427 22.2110 2970.00 3016.28 54.50
428 22.2280 2941.00 3017.15 54.23
429 22.2450 3080.00 3018.02 55.50
430 22.2620 3013.00 3018.90 54.89
431 22.2790 3020.00 3019.77 54.95
432 22.2960 3043.00 3020.65 55.16
433 22.3130 3056.00 3021.54 55.28
434 22.3300 3105.00 3022.43 55.72
435 22.3470 3074.00 3023.34 55.44
436 22.3640 3113.00 3024.25 55.79
437 22.3810 3034.00 3025.18 55.08
438 22.3980 3044.00 3026.13 55.17
439 22.4150 3052.00 3027.10 55.24
440 22.4320 3192.00 3028.10 56.50
441 22.4490 3098.00 3029.14 55.66
442 22.4660 2905.00 3030.24 53.90
443 22.4830 2903.00 3031.40 53.88
444 22.5000 3090.00 3032.65 55.59
445 22.5170 2876.00 3034.02 53.63
446 22.5340 2915.00 3035.57 53.99
447 22.5510 3055.00 3037.38 55.27
448 22.5680 3095.00 3039.55 55.63
449 22.5850 3184.00 3042.29 56.43
450 22.6020 2975.00 3045.84 54.54
451 22.6190 2947.00 3050.42 54.29
452 22.6360 3093.00 3055.98 55.61
453 22.6530 3047.00 3062.54 55.20
454 22.6700 3077.00 3069.95 55.47
455 22.6870 3220.00 3076.69 56.74
456 22.7040 3053.00 3082.61 55.25
457 22.7210 3059.00 3089.03 55.31
458 22.7380 3117.00 3095.05 55.83
459 22.7550 2997.00 3098.90 54.74
460 22.7720 3028.00 3099.23 55.03
461 22.7890 3027.00 3095.09 55.02
462 22.8060 3034.00 3088.07 55.08
463 22.8230 3063.00 3080.49 55.34
464 22.8400 3034.00 3072.85 55.08
465 22.8570 3102.00 3066.06 55.70
466 22.8740 3057.00 3061.07 55.29
467 22.8910 3025.00 3057.81 55.00
468 22.9080 2996.00 3055.78 54.74
469 22.9250 3051.00 3054.55 55.24
470 22.9420 3175.00 3053.84 56.35
471 22.9590 3019.00 3053.48 54.95
472 22.9760 2978.00 3053.36 54.57
473 22.9930 3085.00 3053.41 55.54
474 23.0100 3010.00 3053.58 54.86
475 23.0270 2979.00 3053.84 54.58
476 23.0440 3051.00 3054.17 55.24
477 23.0610 3064.00 3054.55 55.35
478 23.0780 2964.00 3054.98 54.44
479 23.0950 2999.00 3055.43 54.76
480 23.1120 3099.00 3055.91 55.67
481 23.1290 3134.00 3056.40 55.98
482 23.1460 3071.00 3056.92 55.42
483 23.1630 3021.00 3057.44 54.96
484 23.1800 3093.00 3057.98 55.61
485 23.1970 3083.00 3058.52 55.52
486 23.2140 3104.00 3059.07 55.71
487 23.2310 3051.00 3059.62 55.24
488 23.2480 3008.00 3060.18 54.85
489 23.2650 3041.00 3060.74 55.15
490 23.2820 3077.00 3061.30 55.47
491 23.2990 3153.00 3061.87 56.15
492 23.3160 3090.00 3062.44 55.59
493 23.3330 3095.00 3063.00 55.63
494 23.3500 3058.00 3063.57 55.30
495 23.3670 3141.00 3064.13 56.04
496 23.3840 3102.00 3064.70 55.70
497 23.4010 3108.00 3065.26 55.75
498 23.4180 3059.00 3065.83 55.31
499 23.4350 3098.00 3066.39 55.66
500 23.4520 3063.00 3066.95 55.34
501 23.4690 3054.00 3067.51 55.26
502 23.4860 3091.00 3068.07 55.60
503 23.5030 3213.00 3068.62 56.68
504 23.5200 3148.00 3069.18 56.11
505 23.5370 3191.00 3069.73 56.49
506 23.5540 3135.00 3070.28 55.99
507 23.5710 3246.00 3070.83 56.97
508 23.5880 3219.00 3071.37 56.74
509 23.6050 3191.00 3071.92 56.49
510 23.6220 3186.00 3072.46 56.44
511 23.6390 3142.00 3073.00 56.05
512 23.6560 3049.00 3073.53 55.22
513 23.6730 3194.00 3074.07 56.52
514 23.6900 3290.00 3074.60 57.36
515 23.7070 3107.00 3075.13 55.74
516 23.7240 3133.00 3075.66 55.97
517 23.7410 3123.00 3076.18 55.88
518 23.7580 3170.00 3076.70 56.30
519 23.7750 3191.00 3077.22 56.49
520 23.7920 3250.00 3077.74 57.01
521 23.8090 3273.00 3078.25 57.21
522 23.8260 3258.00 3078.76 57.08
523 23.8430 3261.00 3079.27 57.11
524 23.8600 3276.00 3079.78 57.24
525 23.8770 3178.00 3080.28 56.37
526 23.8940 3310.00 3080.78 57.53
527 23.9110 3293.00 3081.28 57.38
528 23.9280 3254.00 3081.77 57.04
529 23.9450 3211.00 3082.27 56.67
530 23.9620 3183.00 3082.76 56.42
531 23.9790 3284.00 3083.24 57.31
532 23.9960 3177.00 3083.73 56.36
533 24.0130 3158.00 3084.21 56.20
534 24.0300 3286.00 3084.69 57.32
535 24.0470 3238.00 3085.17 56.90
536 24.0640 3193.00 3085.64 56.51
537 24.0810 3198.00 3086.11 56.55
538 24.0980 3182.00 3086.58 56.41
539 24.1150 3223.00 3087.05 56.77
540 24.1320 3261.00 3087.51 57.11
541 24.1490 3196.00 3087.97 56.53
542 24.1660 3195.00 3088.43 56.52
543 24.1830 3252.00 3088.89 57.03
544 24.2000 3254.00 3089.34 57.04
545 24.2170 3233.00 3089.79 56.86
546 24.2340 3107.00 3090.24 55.74
547 24.2510 3232.00 3090.68 56.85
548 24.2680 3246.00 3091.13 56.97
549 24.2850 3264.00 3091.51 57.13
550 24.3020 3155.00 3091.95 56.17
551 24.3190 3106.00 3092.38 55.73
552 24.3360 3201.00 3092.79 56.58
553 24.3530 3296.00 3093.22 57.41
554 24.3700 3277.00 3093.65 57.25
555 24.3870 3262.00 3094.07 57.11
556 24.4040 3282.00 3094.50 57.29
557 24.4210 3190.00 3094.92 56.48
558 24.4380 3241.00 3095.34 56.93
559 24.4550 3330.00 3095.75 57.71
560 24.4720 3325.00 3096.16 57.66
561 24.4890 3197.00 3096.57 56.54
562 24.5060 3204.00 3096.98 56.60
563 24.5230 3143.00 3097.39 56.06
564 24.5400 3177.00 3097.79 56.36
565 24.5570 3212.00 3098.19 56.67
566 24.5740 3142.00 3098.59 56.05
567 24.5910 3211.00 3098.98 56.67
568 24.6080 3220.00 3099.37 56.74
569 24.6250 3194.00 3099.76 56.52
570 24.6420 3221.00 3100.15 56.75
571 24.6590 3096.00 3117.06 55.64
572 24.6760 3208.00 3117.79 56.64
573 24.6930 3244.00 3118.53 56.96
574 24.7100 3243.00 3143.38 56.95
575 24.7270 3228.00 3167.51 56.82
576 24.7440 3286.00 3176.51 57.32
577 24.7610 3298.00 3178.49 57.43
578 24.7780 3254.00 3180.51 57.04
579 24.7950 3314.00 3182.59 57.57
580 24.8120 3351.00 3184.72 57.89
581 24.8290 3310.00 3186.91 57.53
582 24.8460 3303.00 3189.16 57.47
583 24.8630 3345.00 3191.48 57.84
584 24.8800 3345.00 3193.86 57.84
585 24.8970 3381.00 3196.31 58.15
586 24.9140 3351.00 3198.83 57.89
587 24.9310 3349.00 3201.43 57.87
588 24.9480 3360.00 3204.11 57.97
589 24.9650 3257.00 3206.88 57.07
590 24.9820 3242.00 3209.74 56.94
591 24.9990 3353.00 3212.69 57.91
592 25.0160 3362.00 3215.74 57.98
593 25.0330 3342.00 3218.89 57.81
594 25.0500 3387.00 3222.15 58.20
595 25.0670 3386.00 3225.53 58.19
596 25.0840 3393.00 3229.04 58.25
597 25.1010 3352.00 3232.67 57.90
598 25.1180 3451.00 3236.44 58.75
599 25.1350 3436.00 3240.35 58.62
600 25.1520 3441.00 3244.42 58.66
601 25.1690 3461.00 3248.65 58.83
602 25.1860 3501.00 3253.06 59.17
603 25.2030 3486.00 3257.65 59.04
604 25.2200 3510.00 3262.43 59.25
605 25.2370 3459.00 3267.42 58.81
606 25.2540 3421.00 3272.63 58.49
607 25.2710 3466.00 3278.07 58.87
608 25.2880 3444.00 3283.77 58.69
609 25.3050 3431.00 3289.73 58.57
610 25.3220 3468.00 3295.98 58.89
611 25.3390 3448.00 3302.53 58.72
612 25.3560 3397.00 3309.41 58.28
613 25.3730 3477.00 3316.63 58.97
614 25.3900 3513.00 3324.24 59.27
615 25.4070 3479.00 3332.25 58.98
616 25.4240 3383.00 3340.69 58.16
617 25.4410 3535.00 3349.60 59.46
618 25.4580 3658.00 3359.01 60.48
619 25.4750 3563.00 3368.97 59.69
620 25.4920 3523.00 3379.52 59.35
621 25.5090 3544.00 3390.71 59.53
622 25.5260 3438.00 3402.60 58.63
623 25.5430 3473.00 3415.24 58.93
624 25.5600 3529.00 3428.70 59.41
625 25.5770 3418.00 3443.06 58.46
626 25.5940 3556.00 3458.40 59.63
627 25.6110 3609.00 3474.81 60.08
628 25.6280 3663.00 3492.40 60.52
629 25.6450 3737.00 3511.30 61.13
630 25.6620 3873.00 3531.62 62.23
631 25.6790 3851.00 3553.53 62.06
632 25.6960 3867.00 3577.20 62.19
633 25.7130 3893.00 3602.82 62.39
634 25.7300 3918.00 3630.62 62.59
635 25.7470 3953.00 3660.86 62.87
636 25.7640 4018.00 3693.83 63.39
637 25.7810 3992.00 3729.89 63.18
638 25.7980 4016.00 3769.42 63.37
639 25.8150 4060.00 3812.90 63.72
640 25.8320 4050.00 3860.89 63.64
641 25.8490 4132.00 3914.03 64.28
642 25.8660 4157.00 3973.11 64.47
643 25.8830 4232.00 4039.03 65.05
644 25.9000 4349.00 4112.94 65.95
645 25.9170 4488.00 4196.19 66.99
646 25.9340 4620.00 4290.44 67.97
647 25.9510 4599.00 4397.75 67.82
648 25.9680 4689.00 4520.68 68.48
649 25.9850 4877.00 4662.46 69.84
650 26.0020 4863.00 4827.20 69.74
651 26.0190 5125.00 5020.27 71.59
652 26.0360 5304.00 5248.64 72.83
653 26.0530 5469.00 5521.68 73.95
654 26.0700 5710.00 5852.08 75.56
655 26.0870 6099.00 6257.44 78.10
656 26.1040 6795.00 6762.75 82.43
657 26.1210 7233.00 7404.41 85.05
658 26.1380 8045.00 8236.71 89.69
659 26.1550 9270.00 9342.38 96.28
660 26.1720 10637.00 10847.70 103.14
661 26.1890 12742.00 12936.60 112.88
662 26.2060 15862.00 15830.00 125.94
663 26.2230 19687.00 19694.10 140.31
664 26.2400 24249.00 24564.10 155.72
665 26.2570 29138.00 30256.60 170.70
666 26.2740 34383.00 36215.20 185.43
667 26.2910 40102.00 42067.70 200.26
668 26.3080 45880.00 47665.80 214.20
669 26.3250 50141.00 52331.80 223.92
670 26.3420 53589.00 54708.10 231.49
671 26.3590 53311.00 53692.10 230.89
672 26.3760 50008.00 49593.70 223.62
673 26.3930 44124.00 43733.40 210.06
674 26.4100 37487.00 37178.00 193.62
675 26.4270 30672.00 30549.10 175.13
676 26.4440 24632.00 24399.80 156.95
677 26.4610 18831.00 19250.00 137.23
678 26.4780 14996.00 15355.00 122.46
679 26.4950 12066.00 12575.10 109.85
680 26.5120 10143.00 10605.80 100.71
681 26.5290 8794.00 9185.47 93.78
682 26.5460 7775.00 8134.15 88.18
683 26.5630 7086.00 7336.23 84.18
684 26.5800 6527.00 6716.69 80.79
685 26.5970 6016.00 6225.98 77.56
686 26.6140 5870.00 5830.57 76.62
687 26.6310 5527.00 5507.14 74.34
688 26.6480 5185.00 5239.12 72.01
689 26.6650 4954.00 5014.45 70.38
690 26.6820 4907.00 4824.21 70.05
691 26.6990 4799.00 4661.68 69.27
692 26.7160 4695.00 4521.66 68.52
693 26.7330 4525.00 4400.16 67.27
694 26.7500 4304.00 4294.05 65.60
695 26.7670 4078.00 4200.81 63.86
696 26.7840 4083.00 4118.44 63.90
697 26.8010 4092.00 4045.31 63.97
698 26.8180 4094.00 3980.07 63.98
699 26.8350 3977.00 3921.63 63.06
700 26.8520 3835.00 3869.07 61.93
701 26.8690 3837.00 3821.63 61.94
702 26.8860 3858.00 3778.65 62.11
703 26.9030 3694.00 3739.60 60.78
704 26.9200 3688.00 3704.01 60.73
705 26.9370 3673.00 3671.48 60.61
706 26.9540 3694.00 3641.67 60.78
707 26.9710 3729.00 3614.29 61.07
708 26.9880 3675.00 3589.07 60.62
709 27.0050 3654.00 3565.80 60.45
710 27.0220 3770.00 3544.29 61.40
711 27.0390 3705.00 3524.34 60.87
712 27.0560 3716.00 3505.83 60.96
713 27.0730 3650.00 3488.61 60.42
714 27.0900 3497.00 3472.57 59.14
715 27.1070 3550.00 3457.60 59.58
716 27.1240 3472.00 3443.61 58.92
717 27.1410 3424.00 3430.51 58.51
718 27.1580 3510.00 3418.24 59.25
719 27.1750 3512.00 3406.72 59.26
720 27.1920 3576.00 3395.89 59.80
721 27.2090 3595.00 3385.69 59.96
722 27.2260 3500.00 3376.09 59.16
723 27.2430 3507.00 3367.03 59.22
724 27.2600 3468.00 3358.48 58.89
725 27.2770 3461.00 3350.39 58.83
726 27.2940 3465.00 3342.74 58.86
727 27.3110 3477.00 3335.49 58.97
728 27.3280 3275.00 3328.62 57.23
729 27.3450 3411.00 3322.10 58.40
730 27.3620 3505.00 3315.90 59.20
731 27.3790 3566.00 3310.01 59.72
732 27.3960 3404.00 3304.40 58.34
733 27.4130 3371.00 3299.07 58.06
734 27.4300 3508.00 3293.98 59.23
735 27.4470 3386.00 3289.13 58.19
736 27.4640 3393.00 3284.49 58.25
737 27.4810 3391.00 3280.07 58.23
738 27.4980 3474.00 3275.84 58.94
739 27.5150 3374.00 3271.79 58.09
740 27.5320 3312.00 3267.92 57.55
741 27.5490 3293.00 3264.21 57.38
742 27.5660 3274.00 3260.66 57.22
743 27.5830 3401.00 3257.25 58.32
744 27.6000 3260.00 3253.98 57.10
745 27.6170 3355.00 3250.84 57.92
746 27.6340 3313.00 3247.82 57.56
747 27.6510 3397.00 3244.92 58.28
748 27.6680 3323.00 3242.13 57.65
749 27.6850 3283.00 3239.45 57.30
750 27.7020 3287.00 3236.86 57.33
751 27.7190 3254.00 3234.37 57.04
752 27.7360 3328.00 3231.98 57.69
753 27.7530 3347.00 3229.66 57.85
754 27.7700 3365.00 3227.43 58.01
755 27.7870 3346.00 3225.39 57.84
756 27.8040 3218.00 3223.31 56.73
757 27.8210 3303.00 3221.30 57.47
758 27.8380 3279.00 3219.37 57.26
759 27.8550 3328.00 3217.55 57.69
760 27.8720 3328.00 3215.73 57.69
761 27.8890 3221.00 3213.98 56.75
762 27.9060 3378.00 3212.28 58.12
763 27.9230 3371.00 3210.64 58.06
764 27.9400 3169.00 3176.39 56.29
765 27.9570 3199.00 3175.52 56.56
766 27.9740 3237.00 3159.65 56.89
767 27.9910 3219.00 3150.74 56.74
768 28.0080 3239.00 3142.68 56.91
769 28.0250 3151.00 3135.03 56.13
770 28.0420 3182.00 3135.03 56.41
771 28.0590 3281.00 3135.04 57.28
772 28.0760 3222.00 3135.04 56.76
773 28.0930 3272.00 3135.04 57.20
774 28.1100 3196.00 3135.04 56.53
775 28.1270 3199.00 3135.04 56.56
776 28.1440 3326.00 3135.04 57.67
777 28.1610 3352.00 3135.04 57.90
778 28.1780 3221.00 3135.03 56.75
779 28.1950 3297.00 3135.03 57.42
780 28.2120 3324.00 3135.02 57.65
781 28.2290 3246.00 3135.02 56.97
782 28.2460 3280.00 3135.01 57.27
783 28.2630 3253.00 3135.00 57.04
784 28.2800 3337.00 3134.99 57.77
785 28.2970 3212.00 3134.98 56.67
786 28.3140 3147.00 3134.97 56.10
787 28.3310 3115.00 3134.95 55.81
788 28.3480 3085.00 3134.94 55.54
789 28.3650 3172.00 3134.92 56.32
790 28.3820 3179.00 3134.91 56.38
791 28.3990 3168.00 3134.89 56.28
792 28.4160 3100.00 3134.87 55.68
793 28.4330 3249.00 3134.86 57.00
794 28.4500 3187.00 3134.84 56.45
795 28.4670 3198.00 3134.82 56.55
796 28.4840 3211.00 3134.80 56.67
797 28.5010 3245.00 3134.78 56.96
798 28.5180 3195.00 3134.76 56.52
799 28.5350 3195.00 3134.74 56.52
800 28.5520 3134.00 3134.72 55.98
801 28.5690 3097.00 3134.69 55.65
802 28.5860 3186.00 3134.67 56.44
803 28.6030 3250.00 3134.65 57.01
804 28.6200 3253.00 3134.63 57.04
805 28.6370 3249.00 3134.60 57.00
806 28.6540 3265.00 3134.58 57.14
807 28.6710 3319.00 3134.56 57.61
808 28.6880 3226.00 3134.54 56.80
809 28.7050 3210.00 3134.52 56.66
810 28.7220 3219.00 3134.50 56.74
811 28.7390 3256.00 3134.48 57.06
812 28.7560 3279.00 3134.46 57.26
813 28.7730 3221.00 3134.44 56.75
814 28.7900 3315.00 3134.43 57.58
815 28.8070 3314.00 3134.41 57.57
816 28.8240 3192.00 3134.40 56.50
817 28.8410 3214.00 3134.39 56.69
818 28.8580 3242.00 3134.39 56.94
819 28.8750 3201.00 3134.38 56.58
820 28.8920 3158.00 3134.38 56.20
821 28.9090 3105.00 3134.39 55.72
822 28.9260 3069.00 3134.40 55.40
823 28.9430 3105.00 3134.41 55.72
824 28.9600 3136.00 3134.43 56.00
825 28.9770 3108.00 3134.46 55.75
826 28.9940 3103.00 3134.50 55.70
827 29.0110 3140.00 3134.55 56.04
828 29.0280 3119.00 3134.60 55.85
829 29.0450 3105.00 3134.68 55.72
830 29.0620 3207.00 3134.76 56.63
831 29.0790 3218.00 3134.87 56.73
832 29.0960 3146.00 3134.99 56.09
833 29.1130 3260.00 3135.15 57.10
834 29.1300 3212.00 3135.33 56.67
835 29.1470 3114.00 3135.55 55.80
836 29.1640 3214.00 3135.81 56.69
837 29.1810 3149.00 3136.12 56.12
838 29.1980 3121.00 3136.51 55.87
839 29.2150 3169.00 3136.97 56.29
840 29.2320 3187.00 3137.53 56.45
841 29.2490 3011.00 3138.23 54.87
842 29.2660 3211.00 3139.09 56.67
843 29.2830 3207.00 3140.18 56.63
844 29.3000 3099.00 3141.56 55.67
845 29.3170 3173.00 3143.35 56.33
846 29.3340 3121.00 3145.72 55.87
847 29.3510 3109.00 3148.92 55.76
848 29.3680 3104.00 3153.32 55.71
849 29.3850 3169.00 3159.47 56.29
850 29.4020 3152.00 3167.94 56.14
851 29.4190 3155.00 3178.95 56.17
852 29.4360 3115.00 3192.25 55.81
853 29.4530 3087.00 3208.03 55.56
854 29.4700 3189.00 3225.05 56.47
855 29.4870 3137.00 3239.44 56.01
856 29.5040 3210.00 3250.00 56.66
857 29.5210 3080.00 3256.09 55.50
858 29.5380 3063.00 3253.21 55.34
859 29.5550 3084.00 3240.84 55.53
860 29.5720 3086.00 3225.73 55.55
861 29.5890 3145.00 3211.47 56.08
862 29.6060 3286.00 3196.64 57.32
863 29.6230 3152.00 3181.59 56.14
864 29.6400 3291.00 3168.82 57.37
865 29.6570 3188.00 3159.29 56.46
866 29.6740 3131.00 3152.49 55.96
867 29.6910 3223.00 3147.61 56.77
868 29.7080 3097.00 3144.03 55.65
869 29.7250 3049.00 3141.33 55.22
870 29.7420 3090.00 3139.24 55.59
871 29.7590 3086.00 3137.58 55.55
872 29.7760 3097.00 3136.24 55.65
873 29.7930 3192.00 3135.13 56.50
874 29.8100 3218.00 3134.20 56.73
875 29.8270 3178.00 3133.41 56.37
876 29.8440 3147.00 3132.73 56.10
877 29.8610 3144.00 3132.13 56.07
878 29.8780 3135.00 3131.59 55.99
879 29.8950 3112.00 3131.12 55.79
880 29.9120 3114.00 3130.69 55.80
881 29.9290 3102.00 3130.29 55.70
882 29.9460 3153.00 3129.93 56.15
883 29.9630 3183.00 3129.60 56.42
884 29.9800 3205.00 3129.28 56.61
885 29.9970 3125.00 3128.99 55.90
886 30.0140 3045.00 3128.71 55.18
887 30.0310 3021.00 3128.45 54.96
888 30.0480 3043.00 3128.20 55.16
889 30.0650 2975.00 3127.96 54.54
890 30.0820 3033.00 3127.73 55.07
891 30.0990 3017.00 3127.50 54.93
892 30.1160 2957.00 3127.29 54.38
893 30.1330 3014.00 3127.08 54.90
894 30.1500 3027.00 3126.87 55.02
895 30.1670 3065.00 3126.67 55.36
896 30.1840 3083.00 3126.47 55.52
897 30.2010 3139.00 3126.28 56.03
898 30.2180 3071.00 3126.09 55.42
899 30.2350 3056.00 3125.90 55.28
900 30.2520 3077.00 3125.72 55.47
901 30.2690 3080.00 3125.54 55.50
902 30.2860 3081.00 3125.35 55.51
903 30.3030 3154.00 3125.18 56.16
904 30.3200 3085.00 3125.00 55.54
905 30.3370 2978.00 3124.82 54.57
906 30.3540 3057.00 3124.65 55.29
907 30.3710 3203.00 3124.47 56.60
908 30.3880 3075.00 3124.30 55.45
909 30.4050 3168.00 3124.13 56.28
910 30.4220 3070.00 3123.96 55.41
911 30.4390 3120.00 3123.78 55.86
912 30.4560 3075.00 3123.61 55.45
913 30.4730 3013.00 3123.44 54.89
914 30.4900 3119.00 3123.27 55.85
915 30.5070 3115.00 3123.10 55.81
916 30.5240 3094.00 3122.93 55.62
917 30.5410 3088.00 3122.76 55.57
918 30.5580 2982.00 3122.59 54.61
919 30.5750 3037.00 3122.42 55.11
920 30.5920 3068.00 3122.25 55.39
921 30.6090 3185.00 3122.08 56.44
922 30.6260 3040.00 3121.93 55.14
923 30.6430 3080.00 3121.76 55.50
924 30.6600 3122.00 3121.59 55.87
925 30.6770 3148.00 3121.42 56.11
926 30.6940 3117.00 3121.26 55.83
927 30.7110 3178.00 3121.09 56.37
928 30.7280 3054.00 3120.92 55.26
929 30.7450 3137.00 3120.74 56.01
930 30.7620 3194.00 3120.57 56.52
931 30.7790 3220.00 3120.40 56.74
932 30.7960 3156.00 3120.23 56.18
933 30.8130 3077.00 3120.06 55.47
934 30.8300 3127.00 3119.88 55.92
935 30.8470 3139.00 3119.71 56.03
936 30.8640 3132.00 3119.54 55.96
937 30.8810 3114.00 3119.36 55.80
938 30.8980 3192.00 3119.19 56.50
939 30.9150 3097.00 3119.01 55.65
940 30.9320 3038.00 3118.84 55.12
941 30.9490 3165.00 3118.66 56.26
942 30.9660 3118.00 3118.48 55.84
943 30.9830 3046.00 3118.31 55.19
944 31.0000 3060.00 3118.13 55.32
945 31.0170 3137.00 3117.95 56.01
946 31.0340 3179.00 3117.77 56.38
947 31.0510 3115.00 3117.60 55.81
948 31.0680 3131.00 3117.42 55.96
949 31.0850 3153.00 3117.24 56.15
950 31.1020 3207.00 3117.06 56.63
951 31.1190 3319.00 3116.88 57.61
952 31.1360 3193.00 3116.70 56.51
953 31.1530 3215.00 3116.52 56.70
954 31.1700 3157.00 3116.33 56.19
955 31.1870 3166.00 3116.04 56.27
956 31.2040 3022.00 3115.86 54.97
957 31.2210 3022.00 3115.68 54.97
958 31.2380 3041.00 3115.50 55.15
959 31.2550 3087.00 3115.26 55.56
960 31.2720 3111.00 3115.08 55.78
961 31.2890 3156.00 3114.90 56.18
962 31.3060 3074.00 3114.72 55.44
963 31.3230 3083.00 3114.53 55.52
964 31.3400 3227.00 3114.35 56.81
965 31.3570 2968.00 3114.17 54.48
966 31.3740 3107.00 3113.98 55.74
967 31.3910 3049.00 3113.80 55.22
968 31.4080 3089.00 3113.61 55.58
969 31.4250 3022.00 3113.43 54.97
970 31.4420 3016.00 3113.24 54.92
971 31.4590 3009.00 3113.06 54.85
972 31.4760 3081.00 3112.87 55.51
973 31.4930 3111.00 3112.68 55.78
974 31.5100 3111.00 3112.49 55.78
975 31.5270 3154.00 3112.31 56.16
976 31.5440 3073.00 3112.12 55.43
977 31.5610 3128.00 3111.93 55.93
978 31.5780 3057.00 3111.74 55.29
979 31.5950 3113.00 3111.55 55.79
980 31.6120 3068.00 3111.37 55.39
981 31.6290 3046.00 3111.18 55.19
982 31.6460 3086.00 3110.99 55.55
983 31.6630 3066.00 3110.80 55.37
984 31.6800 2996.00 3110.61 54.74
985 31.6970 2896.00 3110.42 53.81
986 31.7140 3127.00 3110.23 55.92
987 31.7310 3085.00 3110.04 55.54
988 31.7480 3086.00 3109.85 55.55
989 31.7650 3033.00 3109.66 55.07
990 31.7820 3080.00 3109.47 55.50
991 31.7990 3204.00 3109.29 56.60
992 31.8160 3110.00 3109.10 55.77
993 31.8330 3090.00 3108.91 55.59
994 31.8500 3098.00 3108.73 55.66
995 31.8670 2980.00 3108.54 54.59
996 31.8840 3073.00 3108.36 55.43
997 31.9010 3169.00 3108.18 56.29
998 31.9180 3139.00 3107.99 56.03
999 31.9350 3131.00 3107.82 55.96
1000 31.9520 3048.00 3107.64 55.21
1001 31.9690 3035.00 3107.47 55.09
1002 31.9860 2989.00 3107.30 54.67
1003 32.0030 2932.00 3107.13 54.15
1004 32.0200 3046.00 3106.97 55.19
1005 32.0370 3129.00 3106.81 55.94
1006 32.0540 3101.00 3106.66 55.69
1007 32.0710 3065.00 3106.52 55.36
1008 32.0880 3101.00 3106.40 55.69
1009 32.1050 3010.00 3106.28 54.86
1010 32.1220 3142.00 3106.18 56.05
1011 32.1390 3114.00 3106.10 55.80
1012 32.1560 3132.00 3106.05 55.96
1013 32.1730 3089.00 3106.03 55.58
1014 32.1900 3053.00 3106.06 55.25
1015 32.2070 3084.00 3106.15 55.53
1016 32.2240 3035.00 3106.33 55.09
1017 32.2410 3026.00 3106.64 55.01
1018 32.2580 3061.00 3107.12 55.33
1019 32.2750 3174.00 3107.86 56.34
1020 32.2920 2989.00 3108.95 54.67
1021 32.3090 3033.00 3110.51 55.07
1022 32.3260 3086.00 3112.55 55.55
1023 32.3430 3116.00 3115.00 55.82
1024 32.3600 3128.00 3117.73 55.93
1025 32.3770 3060.00 3120.25 55.32
1026 32.3940 3119.00 3122.06 55.85
1027 32.4110 3149.00 3122.90 56.12
1028 32.4280 3141.00 3122.31 56.04
1029 32.4450 3084.00 3120.34 55.53
1030 32.4620 3143.00 3117.85 56.06
1031 32.4790 3056.00 3115.42 55.28
1032 32.4960 3058.00 3112.92 55.30
1033 32.5130 3074.00 3110.23 55.44
1034 32.5300 3050.00 3107.72 55.23
1035 32.5470 3142.00 3105.69 56.05
1036 32.5640 3146.00 3104.15 56.09
1037 32.5810 3168.00 3102.98 56.28
1038 32.5980 3148.00 3102.08 56.11
1039 32.6150 3094.00 3101.34 55.62
1040 32.6320 3011.00 3100.74 54.87
1041 32.6490 3073.00 3100.21 55.43
1042 32.6660 3122.00 3099.75 55.87
1043 32.6830 3037.00 3099.34 55.11
1044 32.7000 3132.00 3098.96 55.96
1045 32.7170 3172.00 3098.61 56.32
1046 32.7340 3200.00 3098.28 56.57
1047 32.7510 3205.00 3097.97 56.61
1048 32.7680 3130.00 3097.67 55.95
1049 32.7850 3091.00 3097.37 55.60
1050 32.8020 3069.00 3097.09 55.40
1051 32.8190 3127.00 3096.82 55.92
1052 32.8360 3171.00 3096.55 56.31
1053 32.8530 3121.00 3096.28 55.87
1054 32.8700 3082.00 3096.02 55.52
1055 32.8870 3056.00 3095.77 55.28
1056 32.9040 3008.00 3095.51 54.85
1057 32.9210 2911.00 3095.26 53.95
1058 32.9380 2990.00 3095.01 54.68
1059 32.9550 3128.00 3094.77 55.93
1060 32.9720 3108.00 3094.52 55.75
1061 32.9890 3033.00 3094.28 55.07
1062 33.0060 2973.00 3094.04 54.53
1063 33.0230 3091.00 3093.79 55.60
1064 33.0400 3144.00 3093.55 56.07
1065 33.0570 3102.00 3093.31 55.70
1066 33.0740 3067.00 3093.07 55.38
1067 33.0910 3045.00 3092.83 55.18
1068 33.1080 3114.00 3092.59 55.80
1069 33.1250 3076.00 3092.36 55.46
1070 33.1420 2995.00 3092.12 54.73
1071 33.1590 3073.00 3091.88 55.43
1072 33.1760 3099.00 3091.64 55.67
1073 33.1930 3088.00 3091.41 55.57
1074 33.2100 3213.00 3091.17 56.68
1075 33.2270 3153.00 3090.93 56.15
1076 33.2440 3158.00 3090.70 56.20
1077 33.2610 3132.00 3090.46 55.96
1078 33.2780 2937.00 3090.22 54.19
1079 33.2950 2982.00 3089.99 54.61
1080 33.3120 3088.00 3089.75 55.57
1081 33.3290 3000.00 3089.51 54.77
1082 33.3460 3074.00 3089.28 55.44
1083 33.3630 3092.00 3089.04 55.61
1084 33.3800 3120.00 3088.80 55.86
1085 33.3970 3098.00 3088.57 55.66
1086 33.4140 3077.00 3088.33 55.47
1087 33.4310 3014.00 3088.09 54.90
1088 33.4480 3093.00 3087.86 55.61
1089 33.4650 3045.00 3087.62 55.18
1090 33.4820 3120.00 3087.38 55.86
1091 33.4990 3033.00 3087.15 55.07
1092 33.5160 2973.00 3086.91 54.53
1093 33.5330 3002.00 3086.67 54.79
1094 33.5500 3037.00 3086.43 55.11
1095 33.5670 3074.00 3086.20 55.44
1096 33.5840 3080.00 3085.96 55.50
1097 33.6010 3156.00 3085.72 56.18
1098 33.6180 3125.00 3085.48 55.90
1099 33.6350 2996.00 3085.24 54.74
1100 33.6520 3004.00 3085.01 54.81
1101 33.6690 3014.00 3084.77 54.90
1102 33.6860 3017.00 3084.53 54.93
1103 33.7030 3096.00 3084.29 55.64
1104 33.7200 3100.00 3084.05 55.68
1105 33.7370 3066.00 3083.81 55.37
1106 33.7540 3065.00 3083.57 55.36
1107 33.7710 3056.00 3083.33 55.28
1108 33.7880 3061.00 3083.10 55.33
1109 33.8050 3073.00 3082.86 55.43
1110 33.8220 3072.00 3082.62 55.43
1111 33.8390 3086.00 3082.38 55.55
1112 33.8560 2994.00 3082.14 54.72
1113 33.8730 3002.00 3081.90 54.79
1114 33.8900 3157.00 3081.66 56.19
1115 33.9070 3243.00 3081.42 56.95
1116 33.9240 3226.00 3081.18 56.80
1117 33.9410 3176.00 3080.94 56.36
1118 33.9580 3140.00 3080.70 56.04
1119 33.9750 3130.00 3080.46 55.95
1120 33.9920 3108.00 3080.22 55.75
1121 34.0090 3149.00 3079.97 56.12
1122 34.0260 3070.00 3079.73 55.41
1123 34.0430 3155.00 3079.49 56.17
1124 34.0600 2955.00 3079.25 54.36
1125 34.0770 2985.00 3079.01 54.64
1126 34.0940 3081.00 3078.77 55.51
1127 34.1110 3056.00 3078.53 55.28
1128 34.1280 3000.00 3078.29 54.77
1129 34.1450 3031.00 3078.02 55.05
1130 34.1620 3083.00 3077.78 55.52
1131 34.1790 2974.00 3077.54 54.53
1132 34.1960 3092.00 3077.30 55.61
1133 34.2130 3163.00 3077.05 56.24
1134 34.2300 3094.00 3076.81 55.62
1135 34.2470 3020.00 3076.57 54.95
1136 34.2640 3061.00 3076.32 55.33
1137 34.2810 3022.00 3076.08 54.97
1138 34.2980 3093.00 3075.84 55.61
1139 34.3150 3139.00 3075.60 56.03
1140 34.3320 3160.00 3075.35 56.21
1141 34.3490 3045.00 3075.11 55.18
1142 34.3660 3142.00 3074.87 56.05
1143 34.3830 3078.00 3074.63 55.48
1144 34.4000 3136.00 3074.38 56.00
1145 34.4170 3253.00 3074.14 57.04
1146 34.4340 3125.00 3073.90 55.90
1147 34.4510 3027.00 3073.66 55.02
1148 34.4680 3027.00 3073.41 55.02
1149 34.4850 3083.00 3073.17 55.52
1150 34.5020 3123.00 3072.93 55.88
1151 34.5190 3015.00 3072.68 54.91
1152 34.5360 3038.00 3072.44 55.12
1153 34.5530 3032.00 3072.20 55.06
1154 34.5700 3022.00 3071.95 54.97
1155 34.5870 3172.00 3071.71 56.32
1156 34.6040 3112.00 3071.46 55.79
1157 34.6210 3020.00 3071.22 54.95
1158 34.6380 3003.00 3070.98 54.80
1159 34.6550 3076.00 3070.73 55.46
1160 34.6720 3078.00 3070.49 55.48
1161 34.6890 3077.00 3070.25 55.47
1162 34.7060 3071.00 3070.00 55.42
1163 34.7230 3003.00 3069.76 54.80
1164 34.7400 3030.00 3069.51 55.05
1165 34.7570 2968.00 3069.27 54.48
1166 34.7740 2977.00 3069.02 54.56
1167 34.7910 3038.00 3068.78 55.12
1168 34.8080 3020.00 3068.54 54.95
1169 34.8250 2950.00 3068.29 54.31
1170 34.8420 2933.00 3068.05 54.16
1171 34.8590 2953.00 3067.80 54.34
1172 34.8760 3008.00 3067.56 54.85
1173 34.8930 2992.00 3067.31 54.70
1174 34.9100 2980.00 3067.07 54.59
1175 34.9270 2990.00 3066.83 54.68
1176 34.9440 2985.00 3066.58 54.64
1177 34.9610 3096.00 3066.34 55.64
1178 34.9780 2965.00 3066.09 54.45
1179 34.9950 2833.00 3065.85 53.23
1180 35.0120 2905.00 3065.60 53.90
1181 35.0290 2968.00 3065.36 54.48
1182 35.0460 3016.00 3065.11 54.92
1183 35.0630 3047.00 3064.87 55.20
1184 35.0800 3020.00 3064.62 54.95
1185 35.0970 3072.00 3064.38 55.43
1186 35.1140 3021.00 3064.13 54.96
1187 35.1310 2945.00 3063.89 54.27
1188 35.1480 3031.00 3063.64 55.05
1189 35.1650 3114.00 3063.40 55.80
1190 35.1820 3036.00 3063.16 55.10
1191 35.1990 2998.00 3062.91 54.75
1192 35.2160 2942.00 3062.67 54.24
1193 35.2330 3096.00 3062.42 55.64
1194 35.2500 3115.00 3062.18 55.81
1195 35.2670 3010.00 3061.93 54.86
1196 35.2840 3005.00 3061.69 54.82
1197 35.3010 2970.00 3061.44 54.50
1198 35.3180 2879.00 3061.20 53.66
1199 35.3350 2956.00 3060.95 54.37
1200 35.3520 2967.00 3060.71 54.47
1201 35.3690 3056.00 3060.46 55.28
1202 35.3860 3083.00 3060.22 55.52
1203 35.4030 3158.00 3059.97 56.20
1204 35.4200 3116.00 3059.73 55.82
1205 35.4370 3056.00 3059.49 55.28
1206 35.4540 3011.00 3059.24 54.87
1207 35.4710 2974.00 3059.00 54.53
1208 35.4880 2920.00 3058.75 54.04
1209 35.5050 3059.00 3058.51 55.31
1210 35.5220 3187.00 3058.26 56.45
1211 35.5390 3046.00 3058.02 55.19
1212 35.5560 3046.00 3057.78 55.19
1213 35.5730 2990.00 3057.53 54.68
1214 35.5900 3039.00 3057.29 55.13
1215 35.6070 2997.00 3057.04 54.74
1216 35.6240 3057.00 3056.80 55.29
1217 35.6410 3041.00 3056.55 55.15
1218 35.6580 3072.00 3056.31 55.43
1219 35.6750 2988.00 3056.07 54.66
1220 35.6920 2966.00 3055.82 54.46
1221 35.7090 3028.00 3071.72 55.03
1222 35.7260 3057.00 3071.77 55.29
1223 35.7430 3040.00 3071.83 55.14
1224 35.7600 3022.00 3071.90 54.97
1225 35.7770 2991.00 3071.97 54.69
1226 35.7940 2996.00 3097.60 54.74
1227 35.8110 2987.00 3121.91 54.65
1228 35.8280 3010.00 3130.17 54.86
1229 35.8450 3042.00 3131.38 55.15
1230 35.8620 3029.00 3132.64 55.04
1231 35.8790 2921.00 3133.95 54.05
1232 35.8960 2945.00 3135.30 54.27
1233 35.9130 2986.00 3136.70 54.64
1234 35.9300 2969.00 3138.15 54.49
1235 35.9470 3072.00 3139.64 55.43
1236 35.9640 3062.00 3141.20 55.34
1237 35.9810 3034.00 3142.81 55.08
1238 35.9980 3040.00 3144.47 55.14
1239 36.0150 3055.00 3146.20 55.27
1240 36.0320 2996.00 3147.99 54.74
1241 36.0490 3046.00 3149.85 55.19
1242 36.0660 3070.00 3151.78 55.41
1243 36.0830 2966.00 3153.78 54.46
1244 36.1000 3053.00 3155.85 55.25
1245 36.1170 3007.00 3158.00 54.84
1246 36.1340 3114.00 3160.24 55.80
1247 36.1510 3150.00 3162.56 56.12
1248 36.1680 3184.00 3164.97 56.43
1249 36.1850 2981.00 3167.48 54.60
1250 36.2020 3056.00 3170.08 55.28
1251 36.2190 3061.00 3172.79 55.33
1252 36.2360 3129.00 3175.61 55.94
1253 36.2530 2987.00 3178.54 54.65
1254 36.2700 3059.00 3181.59 55.31
1255 36.2870 3110.00 3184.77 55.77
1256 36.3040 3070.00 3188.08 55.41
1257 36.3210 3084.00 3191.53 55.53
1258 36.3380 3007.00 3195.13 54.84
1259 36.3550 3083.00 3198.88 55.52
1260 36.3720 3137.00 3202.80 56.01
1261 36.3890 3019.00 3206.89 54.95
1262 36.4060 3135.00 3211.16 55.99
1263 36.4230 3129.00 3215.62 55.94
1264 36.4400 3138.00 3220.29 56.02
1265 36.4570 3090.00 3225.18 55.59
1266 36.4740 2980.00 3230.29 54.59
1267 36.4910 3186.00 3235.64 56.44
1268 36.5080 3085.00 3241.25 55.54
1269 36.5250 3193.00 3247.14 56.51
1270 36.5420 3210.00 3253.31 56.66
1271 36.5590 3237.00 3259.79 56.89
1272 36.5760 3192.00 3266.60 56.50
1273 36.5930 3288.00 3273.77 57.34
1274 36.6100 3331.00 3281.30 57.71
1275 36.6270 3295.00 3289.24 57.40
1276 36.6440 3374.00 3297.61 58.09
1277 36.6610 3348.00 3306.43 57.86
1278 36.6780 3372.00 3315.75 58.07
1279 36.6950 3361.00 3325.60 57.97
1280 36.7120 3375.00 3336.01 58.09
1281 36.7290 3310.00 3347.04 57.53
1282 36.7460 3374.00 3358.72 58.09
1283 36.7630 3517.00 3371.12 59.30
1284 36.7800 3556.00 3384.28 59.63
1285 36.7970 3481.00 3398.29 59.00
1286 36.8140 3490.00 3413.19 59.08
1287 36.8310 3453.00 3429.08 58.76
1288 36.8480 3352.00 3446.03 57.90
1289 36.8650 3436.00 3464.16 58.62
1290 36.8820 3417.00 3483.56 58.46
1291 36.8990 3525.00 3504.36 59.37
1292 36.9160 3565.00 3526.68 59.71
1293 36.9330 3537.00 3550.69 59.47
1294 36.9500 3633.00 3576.56 60.27
1295 36.9670 3629.00 3604.48 60.24
1296 36.9840 3626.00 3634.67 60.22
1297 37.0010 3612.00 3667.38 60.10
1298 37.0180 3681.00 3702.92 60.67
1299 37.0350 3732.00 3741.59 61.09
1300 37.0520 3705.00 3783.79 60.87
1301 37.0690 3698.00 3829.94 60.81
1302 37.0860 3753.00 3880.57 61.26
1303 37.1030 3801.00 3936.28 61.65
1304 37.1200 3999.00 3997.74 63.24
1305 37.1370 4069.00 4065.82 63.79
1306 37.1540 4120.00 4141.45 64.19
1307 37.1710 4120.00 4225.84 64.19
1308 37.1880 4192.00 4320.33 64.75
1309 37.2050 4312.00 4426.70 65.67
1310 37.2220 4450.00 4546.92 66.71
1311 37.2390 4514.00 4683.60 67.19
1312 37.2560 4786.00 4839.85 69.18
1313 37.2730 4928.00 5019.58 70.20
1314 37.2900 4954.00 5227.89 70.38
1315 37.3070 5348.00 5470.99 73.13
1316 37.3240 5595.00 5757.35 74.80
1317 37.3410 6026.00 6097.61 77.63
1318 37.3580 6523.00 6506.60 80.77
1319 37.3750 6917.00 7003.73 83.17
1320 37.3920 7707.00 7616.56 87.79
1321 37.4090 8191.00 8383.52 90.50
1322 37.4260 9140.00 9359.87 95.60
1323 37.4430 10197.00 10626.20 100.98
1324 37.4600 11930.00 12300.40 109.22
1325 37.4770 14294.00 14552.80 119.56
1326 37.4940 17604.00 17602.70 132.68
1327 37.5110 21910.00 21669.50 148.02
1328 37.5280 27920.00 26805.30 167.09
1329 37.5450 34306.00 32819.70 185.22
1330 37.5620 41160.00 39540.80 202.88
1331 37.5790 48880.00 46866.20 221.09
1332 37.5960 54304.00 53675.40 233.03
1333 37.6130 56906.00 57421.10 238.55
1334 37.6300 56762.00 56484.30 238.25
1335 37.6470 52747.00 52291.60 229.67
1336 37.6640 48430.00 47628.70 220.07
1337 37.6810 43962.00 43652.70 209.67
1338 37.6980 38604.00 39470.20 196.48
1339 37.7150 33263.00 34162.30 182.38
1340 37.7320 27634.00 28198.10 166.24
1341 37.7490 22369.00 22704.80 149.56
1342 37.7660 18034.00 18312.50 134.29
1343 37.7830 14812.00 15034.50 121.71
1344 37.8000 12475.00 12632.80 111.69
1345 37.8170 10783.00 10859.00 103.84
1346 37.8340 9330.00 9526.65 96.59
1347 37.8510 8292.00 8504.85 91.06
1348 37.8680 7439.00 7706.46 86.25
1349 37.8850 6736.00 7071.04 82.07
1350 37.9020 6277.00 6557.33 79.23
1351 37.9190 5916.00 6136.13 76.92
1352 37.9360 5554.00 5786.45 74.53
1353 37.9530 5297.00 5492.90 72.78
1354 37.9700 5022.00 5244.04 70.87
1355 37.9870 4796.00 5031.23 69.25
1356 38.0040 4596.00 4847.68 67.79
1357 38.0210 4399.00 4688.36 66.32
1358 38.0380 4242.00 4549.05 65.13
1359 38.0550 4240.00 4426.76 65.12
1360 38.0720 4065.00 4318.50 63.76
1361 38.0890 4173.00 4222.31 64.60
1362 38.1060 4205.00 4136.46 64.85
1363 38.1230 4063.00 4059.50 63.74
1364 38.1400 4011.00 3990.31 63.33
1365 38.1570 3919.00 3927.75 62.60
1366 38.1740 3864.00 3871.06 62.16
1367 38.1910 3747.00 3819.49 61.21
1368 38.2080 3688.00 3772.48 60.73
1369 38.2250 3601.00 3729.47 60.01
1370 38.2420 3673.00 3690.02 60.61
1371 38.2590 3638.00 3653.76 60.32
1372 38.2760 3546.00 3620.35 59.55
1373 38.2930 3573.00 3589.48 59.77
1374 38.3100 3516.00 3560.92 59.30
1375 38.3270 3452.00 3534.42 58.75
1376 38.3440 3477.00 3509.80 58.97
1377 38.3610 3438.00 3486.89 58.63
1378 38.3780 3478.00 3465.52 58.97
1379 38.3950 3364.00 3445.55 58.00
1380 38.4120 3369.00 3426.87 58.04
1381 38.4290 3287.00 3409.37 57.33
1382 38.4460 3300.00 3392.95 57.45
1383 38.4630 3302.00 3377.52 57.46
1384 38.4800 3314.00 3362.99 57.57
1385 38.4970 3301.00 3349.31 57.45
1386 38.5140 3487.00 3336.41 59.05
1387 38.5310 3317.00 3324.22 57.59
1388 38.5480 3364.00 3312.70 58.00
1389 38.5650 3337.00 3301.79 57.77
1390 38.5820 3324.00 3291.46 57.65
1391 38.5990 3431.00 3281.66 58.57
1392 38.6160 3342.00 3272.35 57.81
1393 38.6330 3208.00 3263.50 56.64
1394 38.6500 3273.00 3255.09 57.21
1395 38.6670 3315.00 3247.08 57.58
1396 38.6840 3127.00 3239.45 55.92
1397 38.7010 3126.00 3232.17 55.91
1398 38.7180 3161.00 3225.22 56.22
1399 38.7350 3174.00 3218.58 56.34
1400 38.7520 3205.00 3212.24 56.61
1401 38.7690 3125.00 3206.17 55.90
1402 38.7860 3172.00 3200.36 56.32
1403 38.8030 3284.00 3194.79 57.31
1404 38.8200 3275.00 3189.46 57.23
1405 38.8370 3209.00 3184.34 56.65
1406 38.8540 3287.00 3179.42 57.33
1407 38.8710 3271.00 3174.71 57.19
1408 38.8880 3163.00 3170.17 56.24
1409 38.9050 3163.00 3165.81 56.24
1410 38.9220 3178.00 3161.62 56.37
1411 38.9390 3067.00 3157.58 55.38
1412 38.9560 3156.00 3153.69 56.18
1413 38.9730 3164.00 3149.94 56.25
1414 38.9900 3016.00 3146.33 54.92
1415 39.0070 3155.00 3142.84 56.17
1416 39.0240 3179.00 3139.48 56.38
1417 39.0410 3154.00 3136.23 56.16
1418 39.0580 3036.00 3133.10 55.10
1419 39.0750 3113.00 3130.07 55.79
1420 39.0920 3169.00 3127.14 56.29
1421 39.1090 3130.00 3124.31 55.95
1422 39.1260 3155.00 3121.57 56.17
1423 39.1430 3188.00 3118.92 56.46
1424 39.1600 3231.00 3116.35 56.84
1425 39.1770 3114.00 3113.87 55.80
1426 39.1940 3086.00 3111.47 55.55
1427 39.2110 3072.00 3109.14 55.43
1428 39.2280 3179.00 3106.88 56.38
1429 39.2450 3160.00 3104.70 56.21
1430 39.2620 3310.00 3102.58 57.53
1431 39.2790 3072.00 3100.52 55.43
1432 39.2960 3191.00 3098.53 56.49
1433 39.3130 3310.00 3096.60 57.53
1434 39.3300 3152.00 3094.74 56.14
1435 39.3470 3068.00 3092.93 55.39
1436 39.3640 3088.00 3091.17 55.57
1437 39.3810 3058.00 3089.47 55.30
1438 39.3980 3060.00 3087.83 55.32
1439 39.4150 3104.00 3086.24 55.71
1440 39.4320 3096.00 3084.70 55.64
1441 39.4490 3072.00 3066.71 55.43
1442 39.4660 3036.00 3048.97 55.10
1443 39.4830 3058.00 3033.57 55.30
1444 39.5000 3016.00 3033.09 54.92
1445 39.5170 2997.00 3032.63 54.74
1446 39.5340 3066.00 3024.05 55.37
1447 39.5510 3124.00 3015.60 55.89
1448 39.5680 3153.00 3008.32 56.15
1449 39.5850 3040.00 3008.44 55.14
1450 39.6020 3072.00 3008.60 55.43
1451 39.6190 3009.00 3008.81 54.85
1452 39.6360 2965.00 3009.07 54.45
1453 39.6530 3020.00 3009.40 54.95
1454 39.6700 3024.00 3009.81 54.99
1455 39.6870 3133.00 3010.31 55.97
1456 39.7040 3076.00 3010.94 55.46
1457 39.7210 3019.00 3011.72 54.95
1458 39.7380 3076.00 3012.68 55.46
1459 39.7550 3049.00 3013.88 55.22
1460 39.7720 2975.00 3015.38 54.54
1461 39.7890 3013.00 3017.29 54.89
1462 39.8060 3052.00 3019.74 55.24
1463 39.8230 3033.00 3022.91 55.07
1464 39.8400 3081.00 3027.09 55.51
1465 39.8570 3167.00 3032.69 56.28
1466 39.8740 3075.00 3040.30 55.45
1467 39.8910 3061.00 3050.66 55.33
1468 39.9080 3027.00 3064.48 55.02
1469 39.9250 3055.00 3081.85 55.27
1470 39.9420 3109.00 3101.80 55.76
1471 39.9590 3080.00 3123.49 55.50
1472 39.9760 3058.00 3145.72 55.30
1473 39.9930 3130.00 3162.18 55.95
1474 40.0100 3146.00 3164.38 56.09
1475 40.0270 3044.00 3153.29 55.17
1476 40.0440 3002.00 3138.11 54.79
1477 40.0610 3050.00 3125.85 55.23
1478 40.0780 2943.00 3116.23 54.25
1479 40.0950 2975.00 3104.13 54.54
1480 40.1120 3087.00 3087.40 55.56
1481 40.1290 3092.00 3069.29 55.61
1482 40.1460 3020.00 3053.47 54.95
1483 40.1630 3013.00 3041.16 54.89
1484 40.1800 2961.00 3032.00 54.42
1485 40.1970 3043.00 3025.19 55.16
1486 40.2140 3001.00 3020.06 54.78
1487 40.2310 3042.00 3016.12 55.15
1488 40.2480 2981.00 3013.03 54.60
1489 40.2650 3025.00 3010.64 55.00
1490 40.2820 3032.00 3008.62 55.06
1491 40.2990 3106.00 3006.94 55.73
1492 40.3160 3078.00 3005.52 55.48
1493 40.3330 3050.00 3004.31 55.23
1494 40.3500 3103.00 3003.26 55.70
1495 40.3670 3034.00 3002.42 55.08
1496 40.3840 3007.00 3001.62 54.84
1497 40.4010 2958.00 3000.89 54.39
1498 40.4180 2996.00 3000.24 54.74
1499 40.4350 3072.00 2999.64 55.43
1500 40.4520 3037.00 2999.09 55.11
1501 40.4690 2948.00 2998.59 54.30
1502 40.4860 3148.00 2998.12 56.11
1503 40.5030 3065.00 2997.69 55.36
1504 40.5200 3016.00 2997.28 54.92
1505 40.5370 3066.00 2996.89 55.37
1506 40.5540 3055.00 2996.53 55.27
1507 40.5710 3017.00 2996.18 54.93
1508 40.5880 3022.00 2995.85 54.97
1509 40.6050 3016.00 2995.53 54.92
1510 40.6220 2966.00 2995.23 54.46
1511 40.6390 2961.00 2994.94 54.42
1512 40.6560 3008.00 2994.65 54.85
1513 40.6730 3036.00 2994.38 55.10
1514 40.6900 3024.00 2994.12 54.99
1515 40.7070 3042.00 2993.86 55.15
1516 40.7240 2982.00 2993.61 54.61
1517 40.7410 3041.00 2993.36 55.15
1518 40.7580 3129.00 2993.13 55.94
1519 40.7750 3096.00 2992.89 55.64
1520 40.7920 2985.00 2992.66 54.64
1521 40.8090 3023.00 2992.44 54.98
1522 40.8260 3025.00 2992.22 55.00
1523 40.8430 2994.00 2992.00 54.72
1524 40.8600 3008.00 2991.79 54.85
1525 40.8770 2989.00 2991.58 54.67
1526 40.8940 2999.00 2991.38 54.76
1527 40.9110 3020.00 2991.18 54.95
1528 40.9280 3058.00 2990.98 55.30
1529 40.9450 2988.00 2990.78 54.66
1530 40.9620 2959.00 2990.59 54.40
1531 40.9790 2961.00 2990.39 54.42
1532 40.9960 3005.00 2990.21 54.82
1533 41.0130 3056.00 2990.02 55.28
1534 41.0300 2860.00 2989.83 53.48
1535 41.0470 2968.00 2989.65 54.48
1536 41.0640 2948.00 2989.47 54.30
1537 41.0810 2902.00 2989.29 53.87
1538 41.0980 2918.00 2989.12 54.02
1539 41.1150 3000.00 2988.94 54.77
1540 41.1320 2858.00 2988.77 53.46
1541 41.1490 2964.00 2988.60 54.44
1542 41.1660 2992.00 2988.43 54.70
1543 41.1830 2830.00 2988.27 53.20
1544 41.2000 2969.00 2988.10 54.49
1545 41.2170 2988.00 2987.94 54.66
1546 41.2340 2948.00 2987.78 54.30
1547 41.2510 2931.00 2987.62 54.14
1548 41.2680 2972.00 2987.47 54.52
1549 41.2850 2946.00 2987.31 54.28
1550 41.3020 3024.00 2987.16 54.99
1551 41.3190 2929.00 2987.01 54.12
1552 41.3360 3010.00 2986.86 54.86
1553 41.3530 2997.00 2986.72 54.74
1554 41.3700 3019.00 2986.58 54.95
1555 41.3870 3044.00 2986.44 55.17
1556 41.4040 2970.00 2986.30 54.50
1557 41.4210 2974.00 2986.16 54.53
1558 41.4380 2903.00 2986.03 53.88
1559 41.4550 2958.00 2985.91 54.39
1560 41.4720 3007.00 2985.78 54.84
1561 41.4890 2995.00 2985.66 54.73
1562 41.5060 3066.00 2985.54 55.37
1563 41.5230 2959.00 2985.43 54.40
1564 41.5400 2951.00 2985.32 54.32
1565 41.5570 2994.00 2985.22 54.72
1566 41.5740 3001.00 2985.12 54.78
1567 41.5910 2960.00 2985.03 54.41
1568 41.6080 2994.00 2984.94 54.72
1569 41.6250 3003.00 2984.86 54.80
1570 41.6420 2946.00 2984.79 54.28
1571 41.6590 2923.00 2984.72 54.06
1572 41.6760 3035.00 2984.67 55.09
1573 41.6930 3020.00 2984.62 54.95
1574 41.7100 2893.00 2984.59 53.79
1575 41.7270 2927.00 2984.57 54.10
1576 41.7440 2970.00 2984.56 54.50
1577 41.7610 2907.00 2984.57 53.92
1578 41.7780 2955.00 2984.60 54.36
1579 41.7950 2999.00 2984.64 54.76
1580 41.8120 2957.00 2984.72 54.38
1581 41.8290 3027.00 2984.81 55.02
1582 41.8460 3101.00 2984.94 55.69
1583 41.8630 2944.00 2985.11 54.26
1584 41.8800 2908.00 2985.31 53.93
1585 41.8970 2972.00 2985.57 54.52
1586 41.9140 2923.00 2985.75 54.06
1587 41.9310 2919.00 2986.14 54.03
1588 41.9480 3028.00 2986.62 55.03
1589 41.9650 2998.00 2987.21 54.75
1590 41.9820 3016.00 2987.92 54.92
1591 41.9990 3163.00 2988.73 56.24
1592 42.0160 2930.00 2989.82 54.13
1593 42.0330 2849.00 2991.18 53.38
1594 42.0500 2879.00 2992.88 53.66
1595 42.0670 3168.00 2995.04 56.28
1596 42.0840 3020.00 2997.83 54.95
1597 42.1010 3049.00 3001.47 55.22
1598 42.1180 3010.00 3006.29 54.86
1599 42.1350 2959.00 3012.78 54.40
1600 42.1520 2985.00 3021.54 54.64
1601 42.1690 3071.00 3033.21 55.42
1602 42.1860 3136.00 3048.06 56.00
1603 42.2030 3202.00 3065.59 56.59
1604 42.2200 3125.00 3084.82 55.90
1605 42.2370 3112.00 3103.68 55.79
1606 42.2540 3147.00 3117.28 56.10
1607 42.2710 3283.00 3120.71 57.30
1608 42.2880 3030.00 3114.47 55.05
1609 42.3050 3066.00 3103.60 55.37
1610 42.3220 3032.00 3093.07 55.06
1611 42.3390 3064.00 3084.31 55.35
1612 42.3560 3019.00 3074.92 54.95
1613 42.3730 3149.00 3062.68 56.12
1614 42.3900 3024.00 3048.24 54.99
1615 42.4070 2958.00 3033.92 54.39
1616 42.4240 3051.00 3021.62 55.24
1617 42.4410 3063.00 3011.94 55.34
1618 42.4580 2903.00 3004.79 53.88
1619 42.4750 2966.00 2999.67 54.46
1620 42.4920 2923.00 2995.48 54.06
1621 42.5090 2985.00 2992.38 54.64
1622 42.5260 3013.00 2989.83 54.89
1623 42.5430 2852.00 2987.77 53.40
1624 42.5600 2849.00 2986.08 53.38
1625 42.5770 2947.00 2984.68 54.29
1626 42.5940 3006.00 2983.50 54.83
1627 42.6110 2999.00 2982.49 54.76
1628 42.6280 2995.00 2981.61 54.73
1629 42.6450 3006.00 2980.85 54.83
1630 42.6620 2984.00 2980.17 54.63
1631 42.6790 2932.00 2979.57 54.15
1632 42.6960 2956.00 2979.04 54.37
1633 42.7130 2955.00 2978.55 54.36
1634 42.7300 2980.00 2978.10 54.59
1635 42.7470 3015.00 2977.70 54.91
1636 42.7640 2975.00 2977.32 54.54
1637 42.7810 2992.00 2976.98 54.70
1638 42.7980 2972.00 2976.66 54.52
1639 42.8150 3036.00 2976.36 55.10
1640 42.8320 3108.00 2976.07 55.75
1641 42.8490 3120.00 2975.81 55.86
1642 42.8660 3047.00 2975.56 55.20
1643 42.8830 3010.00 2975.32 54.86
1644 42.9000 3079.00 2975.09 55.49
1645 42.9170 3014.00 2974.88 54.90
1646 42.9340 3037.00 2974.67 55.11
1647 42.9510 3070.00 2974.47 55.41
1648 42.9680 3071.00 2974.28 55.42
1649 42.9850 3181.00 2974.10 56.40
1650 43.0020 3098.00 2973.93 55.66
1651 43.0190 3057.00 2973.76 55.29
1652 43.0360 3067.00 2973.60 55.38
1653 43.0530 3071.00 2973.44 55.42
1654 43.0700 3114.00 2973.29 55.80
1655 43.0870 3057.00 2973.15 55.29
1656 43.1040 3005.00 2973.01 54.82
1657 43.1210 3047.00 2972.87 55.20
1658 43.1380 2964.00 2972.74 54.44
1659 43.1550 3032.00 2972.61 55.06
1660 43.1720 3042.00 2972.49 55.15
1661 43.1890 3098.00 2972.37 55.66
1662 43.2060 2911.00 2972.26 53.95
1663 43.2230 2964.00 2972.15 54.44
1664 43.2400 3004.00 2972.04 54.81
1665 43.2570 3079.00 2971.94 55.49
1666 43.2740 3012.00 2971.84 54.88
1667 43.2910 3056.00 2971.75 55.28
1668 43.3080 3150.00 2971.66 56.12
1669 43.3250 3015.00 2971.57 54.91
1670 43.3420 2989.00 2971.49 54.67
1671 43.3590 2937.00 2971.41 54.19
1672 43.3760 2936.00 2971.34 54.18
1673 43.3930 3028.00 2971.27 55.03
1674 43.4100 3065.00 2971.21 55.36
1675 43.4270 3090.00 2971.15 55.59
1676 43.4440 3075.00 2971.10 55.45
1677 43.4610 3085.00 2971.05 55.54
1678 43.4780 3107.00 2971.01 55.74
1679 43.4950 2993.00 2970.98 54.71
1680 43.5120 2977.00 2970.95 54.56
1681 43.5290 2996.00 2970.93 54.74
1682 43.5460 3003.00 2970.91 54.80
1683 43.5630 2892.00 2970.91 53.78
1684 43.5800 2989.00 2970.91 54.67
1685 43.5970 3049.00 2970.92 55.22
1686 43.6140 2876.00 2970.94 53.63
1687 43.6310 2969.00 2970.96 54.49
1688 43.6480 3034.00 2971.00 55.08
1689 43.6650 3002.00 2971.06 54.79
1690 43.6820 2945.00 2971.12 54.27
1691 43.6990 3047.00 2971.20 55.20
1692 43.7160 3034.00 2971.29 55.08
1693 43.7330 2949.00 2971.40 54.30
1694 43.7500 2976.00 2971.52 54.55
1695 43.7670 2979.00 2971.67 54.58
1696 43.7840 3005.00 2971.83 54.82
1697 43.8010 2933.00 2972.02 54.16
1698 43.8180 2951.00 2972.24 54.32
1699 43.8350 3016.00 2972.48 54.92
1700 43.8520 3015.00 2972.76 54.91
1701 43.8690 3035.00 2973.07 55.09
1702 43.8860 3037.00 2973.42 55.11
1703 43.9030 3008.00 2973.81 54.85
1704 43.9200 2978.00 2974.25 54.57
1705 43.9370 3000.00 2974.75 54.77
1706 43.9540 3030.00 2975.31 55.05
1707 43.9710 2964.00 2975.95 54.44
1708 43.9880 3035.00 2976.67 55.09
1709 44.0050 2983.00 2977.48 54.62
1710 44.0220 2989.00 2978.41 54.67
1711 44.0390 3041.00 2979.47 55.15
1712 44.0560 3037.00 2980.68 55.11
1713 44.0730 3057.00 2982.06 55.29
1714 44.0900 3147.00 2983.66 56.10
1715 44.1070 3059.00 2985.52 55.31
1716 44.1240 2975.00 2987.68 54.54
1717 44.1410 3146.00 2990.22 56.09
1718 44.1580 3106.00 2993.22 55.73
1719 44.1750 3129.00 2996.80 55.94
1720 44.1920 3145.00 3001.11 56.08
1721 44.2090 3130.00 3006.35 55.95
1722 44.2260 3052.00 3012.71 55.24
1723 44.2430 3112.00 3020.75 55.79
1724 44.2600 3078.00 3030.90 55.48
1725 44.2770 3090.00 3043.99 55.59
1726 44.2940 3057.00 3061.10 55.29
1727 44.3110 3036.00 3083.77 55.10
1728 44.3280 3145.00 3113.96 56.08
1729 44.3450 3205.00 3153.94 56.61
1730 44.3620 3136.00 3205.05 56.00
1731 44.3790 3160.00 3266.61 56.21
1732 44.3960 3175.00 3334.52 56.35
1733 44.4130 3248.00 3399.91 56.99
1734 44.4300 3231.00 3449.99 56.84
1735 44.4470 3363.00 3468.81 57.99
1736 44.4640 3371.00 3453.09 58.06
1737 44.4810 3373.00 3416.17 58.08
1738 44.4980 3290.00 3377.93 57.36
1739 44.5150 3273.00 3347.16 57.21
1740 44.5320 3279.00 3319.93 57.26
1741 44.5490 3130.00 3286.14 55.95
1742 44.5660 3134.00 3241.63 55.98
1743 44.5830 3193.00 3191.57 56.51
1744 44.6000 3217.00 3145.01 56.72
1745 44.6170 3149.00 3107.02 56.12
1746 44.6340 3145.00 3077.93 56.08
1747 44.6510 3091.00 3056.06 55.60
1748 44.6680 3084.00 3039.55 55.53
1749 44.6850 3065.00 3026.91 55.36
1750 44.7020 3051.00 3017.06 55.24
1751 44.7190 3107.00 3009.26 55.74
1752 44.7360 3056.00 3002.99 55.28
1753 44.7530 3139.00 2997.86 56.03
1754 44.7700 3168.00 2993.62 56.28
1755 44.7870 3005.00 2990.07 54.82
1756 44.8040 2916.00 2987.06 54.00
1757 44.8210 2902.00 2984.49 53.87
1758 44.8380 2976.00 2982.28 54.55
1759 44.8550 2963.00 2980.36 54.43
1760 44.8720 2987.00 2978.68 54.65
1761 44.8890 3092.00 2977.21 55.61
1762 44.9060 3163.00 2975.90 56.24
1763 44.9230 3083.00 2974.74 55.52
1764 44.9400 3009.00 2973.71 54.85
1765 44.9570 3052.00 2972.78 55.24
1766 44.9740 3103.00 2971.94 55.70
1767 44.9910 3054.00 2971.19 55.26
1768 45.0080 2943.00 2970.50 54.25
1769 45.0250 3110.00 2969.88 55.77
1770 45.0420 3067.00 2969.31 55.38
1771 45.0590 3054.00 2968.80 55.26
1772 45.0760 3011.00 2968.32 54.87
1773 45.0930 3020.00 2967.89 54.95
1774 45.1100 2883.00 2967.49 53.69
1775 45.1270 2869.00 2967.12 53.56
1776 45.1440 2890.00 2966.79 53.76
1777 45.1610 2915.00 2966.48 53.99
1778 45.1780 2939.00 2966.20 54.21
1779 45.1950 2924.00 2965.93 54.07
1780 45.2120 2948.00 2965.70 54.30
1781 45.2290 2952.00 2965.48 54.33
1782 45.2460 2891.00 2965.28 53.77
1783 45.2630 2829.00 2965.09 53.19
1784 45.2800 2964.00 2964.93 54.44
1785 45.2970 2994.00 2964.78 54.72
1786 45.3140 2981.00 2964.65 54.60
1787 45.3310 2994.00 2964.53 54.72
1788 45.3480 2949.00 2964.42 54.30
1789 45.3650 3079.00 2964.33 55.49
1790 45.3820 2892.00 2964.26 53.78
1791 45.3990 2868.00 2964.19 53.55
1792 45.4160 2863.00 2964.14 53.51
1793 45.4330 2889.00 2964.11 53.75
1794 45.4500 2875.00 2964.09 53.62
1795 45.4670 2899.00 2964.08 53.84
1796 45.4840 2940.00 2964.08 54.22
1797 45.5010 2883.00 2964.10 53.69
1798 45.5180 2926.00 2964.13 54.09
1799 45.5350 3004.00 2964.18 54.81
1800 45.5520 2924.00 2964.24 54.07
1801 45.5690 2925.00 2964.32 54.08
1802 45.5860 2983.00 2964.41 54.62
1803 45.6030 3005.00 2964.52 54.82
1804 45.6200 3035.00 2964.65 55.09
1805 45.6370 3100.00 2964.80 55.68
1806 45.6540 2999.00 2964.97 54.76
1807 45.6710 2948.00 2965.16 54.30
1808 45.6880 3071.00 2965.37 55.42
1809 45.7050 3038.00 2965.60 55.12
1810 45.7220 2951.00 2965.86 54.32
1811 45.7390 3096.00 2966.15 55.64
1812 45.7560 3066.00 2966.46 55.37
1813 45.7730 3028.00 2966.81 55.03
1814 45.7900 2967.00 2967.19 54.47
1815 45.8070 2983.00 2967.61 54.62
1816 45.8240 3008.00 2968.07 54.85
1817 45.8410 3024.00 2968.58 54.99
1818 45.8580 3034.00 2969.13 55.08
1819 45.8750 3083.00 2969.74 55.52
1820 45.8920 3069.00 2970.40 55.40
1821 45.9090 3035.00 2971.14 55.09
1822 45.9260 3112.00 2971.94 55.79
1823 45.9430 3048.00 2972.82 55.21
1824 45.9600 3102.00 2973.79 55.70
1825 45.9770 2999.00 2974.87 54.76
1826 45.9940 2983.00 2976.05 54.62
1827 46.0110 3009.00 2977.37 54.85
1828 46.0280 3161.00 2978.83 56.22
1829 46.0450 3072.00 2980.45 55.43
1830 46.0620 3071.00 2982.26 55.42
1831 46.0790 3079.00 2984.29 55.49
1832 46.0960 2994.00 2986.57 54.72
1833 46.1130 2913.00 2989.14 53.97
1834 46.1300 3044.00 2992.05 55.17
1835 46.1470 2974.00 2995.36 54.53
1836 46.1640 3134.00 2999.14 55.98
1837 46.1810 2983.00 3003.49 54.62
1838 46.1980 2875.00 3008.52 53.62
1839 46.2150 2984.00 3014.37 54.63
1840 46.2320 2992.00 3021.24 54.70
1841 46.2490 2972.00 3029.36 54.52
1842 46.2660 2997.00 3039.06 54.74
1843 46.2830 3016.00 3050.75 54.92
1844 46.3000 3141.00 3065.01 56.04
1845 46.3170 3173.00 3082.64 56.33
1846 46.3340 3145.00 3104.71 56.08
1847 46.3510 3196.00 3132.80 56.53
1848 46.3680 3139.00 3169.11 56.03
1849 46.3850 3273.00 3216.77 57.21
1850 46.4020 3311.00 3280.14 57.54
1851 46.4190 3453.00 3364.69 58.76
1852 46.4360 3552.00 3475.67 59.60
1853 46.4530 3698.00 3614.13 60.81
1854 46.4700 3837.00 3772.28 61.94
1855 46.4870 3994.00 3932.50 63.20
1856 46.5040 4131.00 4062.16 64.27
1857 46.5210 4114.00 4114.24 64.14
1858 46.5380 4056.00 4070.93 63.69
1859 46.5550 4028.00 3975.55 63.47
1860 46.5720 3982.00 3884.53 63.10
1861 46.5890 3847.00 3821.33 62.02
1862 46.6060 3843.00 3776.27 61.99
1863 46.6230 3757.00 3720.37 61.29
1864 46.6400 3587.00 3630.98 59.89
1865 46.6570 3468.00 3517.27 58.89
1866 46.6740 3395.00 3405.32 58.27
1867 46.6910 3408.00 3311.57 58.38
1868 46.7080 3271.00 3238.93 57.19
1869 46.7250 3236.00 3184.05 56.89
1870 46.7420 3274.00 3142.60 57.22
1871 46.7590 3183.00 3110.92 56.42
1872 46.7760 3101.00 3086.32 55.69
1873 46.7930 3100.00 3066.89 55.68
1874 46.8100 3067.00 3051.32 55.38
1875 46.8270 3045.00 3038.64 55.18
1876 46.8440 3094.00 3028.19 55.62
1877 46.8610 2982.00 3019.47 54.61
1878 46.8780 3016.00 3012.11 54.92
1879 46.8950 3010.00 3005.85 54.86
1880 46.9120 2952.00 3000.47 54.33
1881 46.9290 3096.00 2995.82 55.64
1882 46.9460 2952.00 2991.76 54.33
1883 46.9630 3023.00 2988.20 54.98
1884 46.9800 2998.00 2985.06 54.75
1885 46.9970 3028.00 2982.27 55.03
1886 47.0140 2975.00 2979.78 54.54
1887 47.0310 2983.00 2977.55 54.62
1888 47.0480 3111.00 2975.55 55.78
1889 47.0650 3101.00 2973.74 55.69
1890 47.0820 3082.00 2972.09 55.52
1891 47.0990 3011.00 2970.59 54.87
1892 47.1160 2999.00 2969.23 54.76
1893 47.1330 2990.00 2967.97 54.68
1894 47.1500 2941.00 2966.82 54.23
1895 47.1670 2934.00 2965.76 54.17
1896 47.1840 3074.00 2964.78 55.44
1897 47.2010 2886.00 2963.87 53.72
1898 47.2180 2996.00 2963.03 54.74
1899 47.2350 3086.00 2962.24 55.55
1900 47.2520 3117.00 2961.51 55.83
1901 47.2690 2985.00 2960.83 54.64
1902 47.2860 3001.00 2960.19 54.78
1903 47.3030 2855.00 2959.59 53.43
1904 47.3200 2761.00 2959.02 52.55
1905 47.3370 2916.00 2958.49 54.00
1906 47.3540 3055.00 2957.99 55.27
1907 47.3710 2970.00 2957.52 54.50
1908 47.3880 2960.00 2957.07 54.41
1909 47.4050 2952.00 2956.65 54.33
1910 47.4220 2968.00 2956.24 54.48
1911 47.4390 2977.00 2955.86 54.56
1912 47.4560 2969.00 2955.50 54.49
1913 47.4730 2897.00 2955.15 53.82
1914 47.4900 2856.00 2954.82 53.44
1915 47.5070 2840.00 2954.51 53.29
1916 47.5240 2844.00 2954.21 53.33
1917 47.5410 2916.00 2953.92 54.00
1918 47.5580 2930.00 2953.64 54.13
1919 47.5750 2947.00 2953.38 54.29
1920 47.5920 2958.00 2953.13 54.39
1921 47.6090 3008.00 2952.88 54.85
1922 47.6260 2953.00 2952.65 54.34
1923 47.6430 2933.00 2952.43 54.16
1924 47.6600 2991.00 2952.21 54.69
1925 47.6770 3027.00 2952.00 55.02
1926 47.6940 2916.00 2951.80 54.00
1927 47.7110 2925.00 2951.61 54.08
1928 47.7280 2986.00 2951.42 54.64
1929 47.7450 2937.00 2951.24 54.19
1930 47.7620 2984.00 2951.07 54.63
1931 47.7790 2968.00 2950.90 54.48
1932 47.7960 3000.00 2950.74 54.77
1933 47.8130 2889.00 2950.58 53.75
1934 47.8300 3024.00 2950.43 54.99
1935 47.8470 3031.00 2950.29 55.05
1936 47.8640 2891.00 2950.15 53.77
1937 47.8810 2884.00 2950.01 53.70
1938 47.8980 2958.00 2949.88 54.39
1939 47.9150 2913.00 2949.75 53.97
1940 47.9320 2891.00 2949.63 53.77
1941 47.9490 2795.00 2949.52 52.87
1942 47.9660 2938.00 2949.41 54.20
1943 47.9830 3018.00 2949.30 54.94
1944 48.0000 2796.00 2949.20 52.88
1945 48.0170 2983.00 2949.10 54.62
1946 48.0340 2950.00 2949.01 54.31
1947 48.0510 2808.00 2948.92 52.99
1948 48.0680 2923.00 2948.84 54.06
1949 48.0850 2950.00 2948.77 54.31
1950 48.1020 2861.00 2948.70 53.49
1951 48.1190 2849.00 2948.64 53.38
1952 48.1360 2802.00 2948.59 52.93
1953 48.1530 2883.00 2948.55 53.69
1954 48.1700 2943.00 2948.52 54.25
1955 48.1870 2869.00 2948.50 53.56
1956 48.2040 2899.00 2948.50 53.84
1957 48.2210 2978.00 2948.52 54.57
1958 48.2380 2969.00 2948.55 54.49
1959 48.2550 3011.00 2948.61 54.87
1960 48.2720 2936.00 2948.70 54.18
1961 48.2890 2829.00 2948.85 53.19
1962 48.3060 2843.00 2949.03 53.32
1963 48.3230 2721.00 2949.28 52.16
1964 48.3400 2921.00 2949.62 54.05
1965 48.3570 2926.00 2950.08 54.09
1966 48.3740 2896.00 2950.70 53.81
1967 48.3910 2949.00 2951.55 54.30
1968 48.4080 2924.00 2952.83 54.07
1969 48.4250 2932.00 2954.44 54.15
1970 48.4420 2920.00 2956.46 54.04
1971 48.4590 2939.00 2958.91 54.21
1972 48.4760 2912.00 2961.57 53.96
1973 48.4930 2859.00 2963.99 53.47
1974 48.5100 2830.00 2965.46 53.20
1975 48.5270 2851.00 2965.37 53.39
1976 48.5440 2921.00 2963.98 54.05
1977 48.5610 2909.00 2962.25 53.94
1978 48.5780 2947.00 2960.90 54.29
1979 48.5950 2926.00 2959.01 54.09
1980 48.6120 2855.00 2958.32 53.43
1981 48.6290 2903.00 2957.30 53.88
1982 48.6460 2929.00 2955.70 54.12
1983 48.6630 2954.00 2953.78 54.35
1984 48.6800 2869.00 2951.93 53.56
1985 48.6970 2795.00 2949.90 52.87
1986 48.7140 2896.00 2948.70 53.81
1987 48.7310 2945.00 2947.79 54.27
1988 48.7480 2923.00 2947.08 54.06
1989 48.7650 2962.00 2946.53 54.42
1990 48.7820 3003.00 2946.10 54.80
1991 48.7990 3014.00 2945.74 54.90
1992 48.8160 2981.00 2945.45 54.60
1993 48.8330 2924.00 2945.20 54.07
1994 48.8500 2922.00 2944.99 54.06
1995 48.8670 2903.00 2944.81 53.88
1996 48.8840 2910.00 2944.65 53.94
1997 48.9010 2911.00 2944.51 53.95
1998 48.9180 2932.00 2944.39 54.15
1999 48.9350 2858.00 2944.28 53.46
2000 48.9520 2937.00 2944.17 54.19
2001 48.9690 2924.00 2944.08 54.07
2002 48.9860 2976.00 2943.99 54.55
2003 49.0030 2961.00 2943.91 54.42
2004 49.0200 3017.00 2943.84 54.93
2005 49.0370 2886.00 2943.77 53.72
2006 49.0540 2964.00 2943.70 54.44
2007 49.0710 2839.00 2943.64 53.28
2008 49.0880 2922.00 2943.58 54.06
2009 49.1050 2978.00 2943.53 54.57
2010 49.1220 2861.00 2943.47 53.49
2011 49.1390 2857.00 2943.42 53.45
2012 49.1560 2962.00 2943.38 54.42
2013 49.1730 2838.00 2943.33 53.27
2014 49.1900 2898.00 2943.28 53.83
2015 49.2070 2801.00 2943.24 52.92
2016 49.2240 2921.00 2943.20 54.05
2017 49.2410 3001.00 2943.16 54.78
2018 49.2580 2973.00 2943.12 54.53
2019 49.2750 2908.00 2943.09 53.93
2020 49.2920 2976.00 2943.05 54.55
2021 49.3090 2783.00 2943.02 52.75
2022 49.3260 2827.00 2942.99 53.17
2023 49.3430 2987.00 2942.96 54.65
2024 49.3600 2955.00 2942.93 54.36
2025 49.3770 2909.00 2942.90 53.94
2026 49.3940 2859.00 2942.87 53.47
2027 49.4110 2914.00 2942.85 53.98
2028 49.4280 2893.00 2942.83 53.79
2029 49.4450 2852.00 2942.80 53.40
2030 49.4620 2912.00 2942.78 53.96
2031 49.4790 2943.00 2942.76 54.25
2032 49.4960 2909.00 2942.75 53.94
2033 49.5130 2922.00 2942.73 54.06
2034 49.5300 2951.00 2942.72 54.32
2035 49.5470 2853.00 2942.71 53.41
2036 49.5640 2921.00 2942.69 54.05
2037 49.5810 2974.00 2942.69 54.53
2038 49.5980 3012.00 2942.68 54.88
2039 49.6150 2953.00 2942.68 54.34
2040 49.6320 2968.00 2942.67 54.48
2041 49.6490 2960.00 2942.68 54.41
2042 49.6660 2970.00 2942.68 54.50
2043 49.6830 2982.00 2942.69 54.61
2044 49.7000 2896.00 2942.70 53.81
2045 49.7170 2914.00 2942.71 53.98
2046 49.7340 2949.00 2942.73 54.30
2047 49.7510 2938.00 2942.75 54.20
2048 49.7680 2979.00 2942.77 54.58
2049 49.7850 2953.00 2942.80 54.34
2050 49.8020 2928.00 2942.83 54.11
2051 49.8190 2916.00 2942.87 54.00
2052 49.8360 3015.00 2942.92 54.91
2053 49.8530 2904.00 2942.97 53.89
2054 49.8700 2922.00 2943.03 54.06
2055 49.8870 2964.00 2943.10 54.44
2056 49.9040 2943.00 2943.17 54.25
2057 49.9210 2846.00 2943.26 53.35
2058 49.9380 2857.00 2943.36 53.45
2059 49.9550 2939.00 2943.47 54.21
2060 49.9720 2820.00 2943.59 53.10
2061 49.9890 2850.00 2943.73 53.39
2062 50.0060 2849.00 2943.88 53.38
2063 50.0230 2762.00 2944.05 52.55
2064 50.0400 2933.00 2944.25 54.16
2065 50.0570 2883.00 2944.47 53.69
2066 50.0740 2850.00 2944.73 53.39
2067 50.0910 2910.00 2945.01 53.94
2068 50.1080 2961.00 2945.34 54.42
2069 50.1250 2797.00 2945.71 52.89
2070 50.1420 2899.00 2946.13 53.84
2071 50.1590 2947.00 2946.62 54.29
2072 50.1760 2960.00 2947.19 54.41
2073 50.1930 2960.00 2947.84 54.41
2074 50.2100 3040.00 2948.61 55.14
2075 50.2270 2966.00 2949.52 54.46
2076 50.2440 3002.00 2950.59 54.79
2077 50.2610 2904.00 2951.88 53.89
2078 50.2780 2964.00 2953.44 54.44
2079 50.2950 2920.00 2955.34 54.04
2080 50.3120 2946.00 2957.69 54.28
2081 50.3290 2980.00 2960.63 54.59
2082 50.3460 3010.00 2964.37 54.86
2083 50.3630 2909.00 2969.18 53.94
2084 50.3800 3049.00 2975.47 55.22
2085 50.3970 3035.00 2983.76 55.09
2086 50.4140 3082.00 2994.68 55.52
2087 50.4310 2968.00 3008.81 54.48
2088 50.4480 3044.00 3026.22 55.17
2089 50.4650 3050.00 3045.76 55.23
2090 50.4820 3001.00 3064.56 54.78
2091 50.4990 3136.00 3078.10 56.00
2092 50.5160 3121.00 3081.73 55.87
2093 50.5330 3059.00 3074.96 55.31
2094 50.5500 3107.00 3063.10 55.74
2095 50.5670 3064.00 3052.32 55.35
2096 50.5840 3074.00 3045.20 55.44
2097 50.6010 3009.00 3040.71 54.85
2098 50.6180 2977.00 3035.89 54.56
2099 50.6350 2981.00 3027.77 54.60
2100 50.6520 3090.00 3015.83 55.59
2101 50.6690 3033.00 3002.45 55.07
2102 50.6860 3048.00 2990.19 55.21
2103 50.7030 3067.00 2980.17 55.38
2104 50.7200 3024.00 2972.40 54.99
2105 50.7370 3051.00 2966.45 55.24
2106 50.7540 3019.00 2961.87 54.95
2107 50.7710 3000.00 2958.32 54.77
2108 50.7880 3015.00 2955.51 54.91
2109 50.8050 2965.00 2953.26 54.45
2110 50.8220 3027.00 2951.44 55.02
2111 50.8390 2988.00 2949.93 54.66
2112 50.8560 3004.00 2948.67 54.81
2113 50.8730 2912.00 2947.61 53.96
2114 50.8900 2880.00 2946.70 53.67
2115 50.9070 3042.00 2945.93 55.15
2116 50.9240 2930.00 2945.25 54.13
2117 50.9410 2950.00 2944.66 54.31
2118 50.9580 3000.00 2944.14 54.77
2119 50.9750 2956.00 2943.67 54.37
2120 50.9920 3029.00 2943.26 55.04
2121 51.0090 3082.00 2942.89 55.52
2122 51.0260 3038.00 2942.56 55.12
2123 51.0430 2953.00 2942.25 54.34
2124 51.0600 2943.00 2941.98 54.25
2125 51.0770 2872.00 2941.72 53.59
2126 51.0940 3032.00 2941.49 55.06
2127 51.1110 2982.00 2941.28 54.61
2128 51.1280 2973.00 2941.08 54.53
2129 51.1450 2975.00 2940.90 54.54
2130 51.1620 2933.00 2940.73 54.16
2131 51.1790 2885.00 2940.57 53.71
2132 51.1960 2911.00 2940.42 53.95
2133 51.2130 3150.00 2940.27 56.12
2134 51.2300 3043.00 2940.14 55.16
2135 51.2470 2865.00 2940.01 53.53
2136 51.2640 2899.00 2939.90 53.84
2137 51.2810 2957.00 2939.78 54.38
2138 51.2980 2928.00 2939.67 54.11
2139 51.3150 2941.00 2939.57 54.23
2140 51.3320 2835.00 2939.47 53.24
2141 51.3490 2947.00 2939.38 54.29
2142 51.3660 2921.00 2939.29 54.05
2143 51.3830 2887.00 2939.20 53.73
2144 51.4000 2931.00 2939.12 54.14
2145 51.4170 2911.00 2939.04 53.95
2146 51.4340 3014.00 2938.96 54.90
2147 51.4510 2930.00 2938.88 54.13
2148 51.4680 2969.00 2938.81 54.49
2149 51.4850 2959.00 2938.74 54.40
2150 51.5020 3008.00 2938.67 54.85
2151 51.5190 2981.00 2938.60 54.60
2152 51.5360 2956.00 2938.54 54.37
2153 51.5530 2983.00 2938.47 54.62
2154 51.5700 2996.00 2938.41 54.74
2155 51.5870 2968.00 2938.35 54.48
2156 51.6040 2904.00 2938.29 53.89
2157 51.6210 2760.00 2938.23 52.54
2158 51.6380 2853.00 2938.18 53.41
2159 51.6550 2819.00 2938.12 53.09
2160 51.6720 2853.00 2938.07 53.41
2161 51.6890 2912.00 2938.01 53.96
2162 51.7060 2855.00 2937.96 53.43
2163 51.7230 2932.00 2937.91 54.15
2164 51.7400 2995.00 2937.85 54.73
2165 51.7570 2874.00 2937.80 53.61
2166 51.7740 2891.00 2937.75 53.77
2167 51.7910 2921.00 2937.70 54.05
2168 51.8080 2942.00 2937.66 54.24
2169 51.8250 2933.00 2937.61 54.16
2170 51.8420 2967.00 2937.56 54.47
2171 51.8590 2942.00 2937.51 54.24
2172 51.8760 2946.00 2937.47 54.28
2173 51.8930 2981.00 2937.42 54.60
2174 51.9100 2945.00 2937.37 54.27
2175 51.9270 2993.00 2943.08 54.71
2176 51.9440 3020.00 2943.12 54.95
2177 51.9610 2824.00 2943.16 53.14
2178 51.9780 2872.00 2943.21 53.59
2179 51.9950 3029.00 2943.26 55.04
2180 52.0120 2933.00 2943.31 54.16
2181 52.0290 2935.00 2943.36 54.18
2182 52.0460 2956.00 2943.42 54.37
2183 52.0630 2869.00 2952.09 53.56
2184 52.0800 2882.00 2960.32 53.68
2185 52.0970 2959.00 2960.65 54.40
2186 52.1140 2997.00 2960.98 54.74
2187 52.1310 2918.00 2963.85 54.02
2188 52.1480 2791.00 2964.24 52.83
2189 52.1650 2856.00 2964.64 53.44
2190 52.1820 2924.00 2965.05 54.07
2191 52.1990 3022.00 2965.47 54.97
2192 52.2160 2803.00 2965.90 52.94
2193 52.2330 2834.00 2966.35 53.24
2194 52.2500 2906.00 2966.80 53.91
2195 52.2670 2926.00 2967.27 54.09
2196 52.2840 3022.00 2967.76 54.97
2197 52.3010 2915.00 2968.25 53.99
2198 52.3180 2947.00 2968.76 54.29
2199 52.3350 3024.00 2969.29 54.99
2200 52.3520 3052.00 2969.83 55.24
2201 52.3690 2985.00 2970.38 54.64
2202 52.3860 2933.00 2970.96 54.16
2203 52.4030 2944.00 2971.54 54.26
2204 52.4200 2925.00 2972.15 54.08
2205 52.4370 2854.00 2972.77 53.42
2206 52.4540 2894.00 2973.42 53.80
2207 52.4710 2970.00 2974.08 54.50
2208 52.4880 3064.00 2974.76 55.35
2209 52.5050 2917.00 2975.46 54.01
2210 52.5220 2991.00 2976.19 54.69
2211 52.5390 2995.00 2976.93 54.73
2212 52.5560 2894.00 2977.70 53.80
2213 52.5730 2814.00 2978.50 53.05
2214 52.5900 2900.00 2979.31 53.85
2215 52.6070 3094.00 2980.16 55.62
2216 52.6240 2996.00 2981.03 54.74
2217 52.6410 2902.00 2981.93 53.87
2218 52.6580 2998.00 2982.86 54.75
2219 52.6750 2914.00 2983.81 53.98
2220 52.6920 2863.00 2984.69 53.51
2221 52.7090 2898.00 2985.72 53.83
2222 52.7260 2944.00 2986.78 54.26
2223 52.7430 2925.00 2987.88 54.08
2224 52.7600 2892.00 2989.02 53.78
2225 52.7770 2838.00 2990.19 53.27
2226 52.7940 2884.00 2991.41 53.70
2227 52.8110 2982.00 2992.61 54.61
2228 52.8280 2908.00 2993.92 53.93
2229 52.8450 2949.00 2995.28 54.30
2230 52.8620 2950.00 2996.68 54.31
2231 52.8790 3063.00 2998.14 55.34
2232 52.8960 3105.00 2999.66 55.72
2233 52.9130 3104.00 3001.23 55.71
2234 52.9300 2994.00 3002.86 54.72
2235 52.9470 3090.00 3004.56 55.59
2236 52.9640 3085.00 3006.32 55.54
2237 52.9810 3003.00 3008.15 54.80
2238 52.9980 2987.00 3010.06 54.65
2239 53.0150 2993.00 3012.05 54.71
2240 53.0320 2994.00 3014.11 54.72
2241 53.0490 3061.00 3016.27 55.33
2242 53.0660 2860.00 3018.52 53.48
2243 53.0830 3061.00 3020.86 55.33
2244 53.1000 3140.00 3023.31 56.04
2245 53.1170 2999.00 3025.87 54.76
2246 53.1340 3171.00 3028.54 56.31
2247 53.1510 2880.00 3031.33 53.67
2248 53.1680 2858.00 3034.26 53.46
2249 53.1850 3106.00 3037.32 55.73
2250 53.2020 3142.00 3040.53 56.05
2251 53.2190 3175.00 3043.90 56.35
2252 53.2360 3061.00 3047.43 55.33
2253 53.2530 3098.00 3051.14 55.66
2254 53.2700 3046.00 3055.04 55.19
2255 53.2870 3077.00 3059.13 55.47
2256 53.3040 3073.00 3063.45 55.43
2257 53.3210 3231.00 3068.00 56.84
2258 53.3380 3093.00 3072.80 55.61
2259 53.3550 3105.00 3077.86 55.72
2260 53.3720 3050.00 3083.22 55.23
2261 53.3890 3196.00 3088.88 56.53
2262 53.4060 3204.00 3094.88 56.60
2263 53.4230 3126.00 3101.23 55.91
2264 53.4400 3126.00 3107.97 55.91
2265 53.4570 3074.00 3115.14 55.44
2266 53.4740 3205.00 3122.76 56.61
2267 53.4910 3274.00 3130.89 57.22
2268 53.5080 3204.00 3139.55 56.60
2269 53.5250 3135.00 3148.80 55.99
2270 53.5420 3173.00 3158.70 56.33
2271 53.5590 3193.00 3169.31 56.51
2272 53.5760 3177.00 3180.69 56.36
2273 53.5930 3126.00 3192.93 55.91
2274 53.6100 3252.00 3206.10 57.03
2275 53.6270 3151.00 3220.31 56.13
2276 53.6440 3208.00 3235.69 56.64
2277 53.6610 3258.00 3252.33 57.08
2278 53.6780 3185.00 3270.41 56.44
2279 53.6950 3312.00 3290.08 57.55
2280 53.7120 3310.00 3311.54 57.53
2281 53.7290 3300.00 3335.05 57.45
2282 53.7460 3444.00 3360.79 58.69
2283 53.7630 3344.00 3389.12 57.83
2284 53.7800 3377.00 3420.37 58.11
2285 53.7970 3444.00 3455.00 58.69
2286 53.8140 3383.00 3493.46 58.16
2287 53.8310 3394.00 3536.39 58.26
2288 53.8480 3582.00 3584.60 59.85
2289 53.8650 3679.00 3638.74 60.65
2290 53.8820 3770.00 3699.95 61.40
2291 53.8990 3845.00 3769.57 62.01
2292 53.9160 3953.00 3849.16 62.87
2293 53.9330 4029.00 3940.78 63.47
2294 53.9500 4131.00 4046.94 64.27
2295 53.9670 4243.00 4170.88 65.14
2296 53.9840 4400.00 4316.87 66.33
2297 54.0010 4603.00 4490.26 67.85
2298 54.0180 4955.00 4698.46 70.39
2299 54.0350 5021.00 4951.03 70.86
2300 54.0520 5333.00 5261.39 73.03
2301 54.0690 5705.00 5647.40 75.53
2302 54.0860 6079.00 6134.27 77.97
2303 54.1030 6710.00 6756.18 81.91
2304 54.1200 7454.00 7558.92 86.34
2305 54.1370 8433.00 8599.17 91.83
2306 54.1540 9609.00 9934.49 98.03
2307 54.1710 11216.00 11595.90 105.91
2308 54.1880 13193.00 13534.00 114.86
2309 54.2050 15495.00 15571.90 124.48
2310 54.2220 17354.00 17395.00 131.74
2311 54.2390 18923.00 18679.90 137.56
2312 54.2560 19802.00 19288.00 140.72
2313 54.2730 19818.00 19309.20 140.78
2314 54.2900 18959.00 18939.00 137.69
2315 54.3070 18288.00 18318.80 135.23
2316 54.3240 17348.00 17536.90 131.71
2317 54.3410 16505.00 16688.20 128.47
2318 54.3580 15980.00 15801.50 126.41
2319 54.3750 15207.00 14836.30 123.32
2320 54.3920 14169.00 13767.50 119.03
2321 54.4090 12936.00 12616.90 113.74
2322 54.4260 11696.00 11414.80 108.15
2323 54.4430 10446.00 10184.50 102.21
2324 54.4600 9213.00 8991.78 95.98
2325 54.4770 8076.00 7929.17 89.87
2326 54.4940 7013.00 7048.78 83.74
2327 54.5110 6502.00 6348.09 80.64
2328 54.5280 5965.00 5798.65 77.23
2329 54.5450 5616.00 5366.71 74.94
2330 54.5620 5209.00 5024.20 72.17
2331 54.5790 4905.00 4749.05 70.04
2332 54.5960 4751.00 4525.18 68.93
2333 54.6130 4435.00 4340.74 66.60
2334 54.6300 4352.00 4187.00 65.97
2335 54.6470 4196.00 4057.50 64.78
2336 54.6640 4077.00 3947.35 63.85
2337 54.6810 3984.00 3852.88 63.12
2338 54.6980 3843.00 3771.16 61.99
2339 54.7150 3718.00 3700.03 60.98
2340 54.7320 3670.00 3637.68 60.58
2341 54.7490 3655.00 3582.72 60.46
2342 54.7660 3457.00 3534.00 58.80
2343 54.7830 3388.00 3490.61 58.21
2344 54.8000 3444.00 3451.78 58.69
2345 54.8170 3540.00 3416.90 59.50
2346 54.8340 3470.00 3385.44 58.91
2347 54.8510 3412.00 3356.96 58.41
2348 54.8680 3326.00 3331.10 57.67
2349 54.8850 3363.00 3307.53 57.99
2350 54.9020 3244.00 3286.00 56.96
2351 54.9190 3209.00 3266.27 56.65
2352 54.9360 3262.00 3248.15 57.11
2353 54.9530 3300.00 3231.46 57.45
2354 54.9700 3339.00 3216.05 57.78
2355 54.9870 3393.00 3201.80 58.25
2356 55.0040 3322.00 3188.60 57.64
2357 55.0210 3359.00 3176.34 57.96
2358 55.0380 3374.00 3164.93 58.09
2359 55.0550 3173.00 3154.30 56.33
2360 55.0720 3102.00 3144.38 55.70
2361 55.0890 3250.00 3135.10 57.01
2362 55.1060 3190.00 3126.41 56.48
2363 55.1230 3102.00 3118.26 55.70
2364 55.1400 3046.00 3110.61 55.19
2365 55.1570 3106.00 3103.42 55.73
2366 55.1740 3126.00 3096.65 55.91
2367 55.1910 3092.00 3090.27 55.61
2368 55.2080 3108.00 3084.25 55.75
2369 55.2250 3128.00 3078.57 55.93
2370 55.2420 3189.00 3073.20 56.47
2371 55.2590 2986.00 3068.11 54.64
2372 55.2760 2994.00 3063.30 54.72
2373 55.2930 3011.00 3058.73 54.87
2374 55.3100 3075.00 3054.40 55.45
2375 55.3270 3017.00 3050.28 54.93
2376 55.3440 3039.00 3046.38 55.13
2377 55.3610 2988.00 3042.66 54.66
2378 55.3780 3139.00 3039.13 56.03
2379 55.3950 3009.00 3035.77 54.85
2380 55.4120 2908.00 3032.57 53.93
2381 55.4290 2991.00 3029.52 54.69
2382 55.4460 3073.00 3026.61 55.43
2383 55.4630 3003.00 3023.85 54.80
2384 55.4800 3007.00 3021.21 54.84
2385 55.4970 3035.00 3018.70 55.09
2386 55.5140 2968.00 3016.31 54.48
2387 55.5310 3018.00 3014.03 54.94
2388 55.5480 2950.00 3011.86 54.31
2389 55.5650 2971.00 3009.83 54.51
2390 55.5820 2952.00 3007.88 54.33
2391 55.5990 2992.00 3006.03 54.70
2392 55.6160 3015.00 3004.29 54.91
2393 55.6330 2930.00 3002.64 54.13
2394 55.6500 2930.00 3001.10 54.13
2395 55.6670 2944.00 2999.66 54.26
2396 55.6840 2939.00 2998.32 54.21
2397 55.7010 2957.00 2997.09 54.38
2398 55.7180 2993.00 2995.99 54.71
2399 55.7350 3077.00 2995.00 55.47
2400 55.7520 3035.00 2994.16 55.09
2401 55.7690 2949.00 2993.47 54.30
2402 55.7860 2892.00 2992.95 53.78
2403 55.8030 2905.00 2992.63 53.90
2404 55.8200 2896.00 2992.55 53.81
2405 55.8370 3004.00 2992.75 54.81
2406 55.8540 2833.00 2993.30 53.23
2407 55.8710 2938.00 2994.30 54.20
2408 55.8880 3007.00 2995.85 54.84
2409 55.9050 3022.00 2998.12 54.97
2410 55.9220 3060.00 3001.36 55.32
2411 55.9390 3017.00 3005.88 54.93
2412 55.9560 2967.00 3012.09 54.47
2413 55.9730 2870.00 3020.52 53.57
2414 55.9900 3025.00 3031.63 55.00
2415 56.0070 2896.00 3045.52 53.81
2416 56.0240 2962.00 3061.22 54.42
2417 56.0410 2843.00 3076.07 53.32
2418 56.0580 2894.00 3085.89 53.80
2419 56.0750 2901.00 3086.98 53.86
2420 56.0920 2922.00 3079.57 54.06
2421 56.1090 3053.00 3068.16 55.25
2422 56.1260 2970.00 3057.70 54.50
2423 56.1430 3016.00 3050.64 54.92
2424 56.1600 2951.00 3046.85 54.32
2425 56.1770 2876.00 3044.40 53.63
2426 56.1940 2902.00 3040.54 53.87
2427 56.2110 2863.00 3033.27 53.51
2428 56.2280 2893.00 3022.93 53.79
2429 56.2450 2874.00 3011.64 53.61
2430 56.2620 2862.00 3001.25 53.50
2431 56.2790 2930.00 2992.58 54.13
2432 56.2960 3061.00 2985.62 55.33
2433 56.3130 2916.00 2980.09 54.00
2434 56.3300 2917.00 2975.66 54.01
2435 56.3470 3101.00 2972.07 55.69
2436 56.3640 2987.00 2969.10 54.65
2437 56.3810 2903.00 2966.61 53.88
2438 56.3980 3008.00 2964.49 54.85
2439 56.4150 3007.00 2962.66 54.84
2440 56.4320 2970.00 2961.05 54.50
2441 56.4490 3050.00 2959.62 55.23
2442 56.4660 3008.00 2958.34 54.85
2443 56.4830 2925.00 2957.18 54.08
2444 56.5000 2907.00 2956.12 53.92
2445 56.5170 2942.00 2949.40 54.24
2446 56.5340 2899.00 2943.30 53.84
2447 56.5510 2932.00 2942.62 54.15
2448 56.5680 2899.00 2941.98 53.84
2449 56.5850 2990.00 2936.26 54.68
2450 56.6020 2975.00 2935.78 54.54
2451 56.6190 2890.00 2935.34 53.76
2452 56.6360 2957.00 2932.05 54.38
2453 56.6530 2929.00 2931.70 54.12
2454 56.6700 2916.00 2928.77 54.00
2455 56.6870 2870.00 2928.49 53.57
2456 56.7040 2961.00 2928.23 54.42
2457 56.7210 2989.00 2925.46 54.67
2458 56.7380 2952.00 2925.26 54.33
2459 56.7550 2865.00 2925.07 53.53
2460 56.7720 2877.00 2924.89 53.64
2461 56.7890 2959.00 2924.72 54.40
2462 56.8060 2948.00 2924.55 54.30
2463 56.8230 2949.00 2924.40 54.30
2464 56.8400 3093.00 2924.24 55.61
2465 56.8570 2910.00 2924.10 53.94
2466 56.8740 2913.00 2923.95 53.97
2467 56.8910 3053.00 2923.82 55.25
2468 56.9080 3023.00 2923.68 54.98
2469 56.9250 2980.00 2923.55 54.59
2470 56.9420 3068.00 2923.43 55.39
2471 56.9590 3000.00 2923.30 54.77
2472 56.9760 3004.00 2923.19 54.81
2473 56.9930 2962.00 2923.07 54.42
2474 57.0100 2909.00 2922.96 53.94
2475 57.0270 2943.00 2922.84 54.25
2476 57.0440 2968.00 2922.74 54.48
2477 57.0610 2950.00 2922.63 54.31
2478 57.0780 3054.00 2922.53 55.26
2479 57.0950 2964.00 2922.42 54.44
2480 57.1120 2896.00 2922.32 53.81
2481 57.1290 2995.00 2922.28 54.73
2482 57.1460 2994.00 2922.18 54.72
2483 57.1630 2996.00 2922.09 54.74
2484 57.1800 2938.00 2922.00 54.20
2485 57.1970 2886.00 2921.91 53.72
2486 57.2140 3024.00 2921.82 54.99
2487 57.2310 3022.00 2921.74 54.97
2488 57.2480 2923.00 2921.66 54.06
2489 57.2650 2987.00 2921.68 54.65
2490 57.2820 2964.00 2921.61 54.44
2491 57.2990 2974.00 2921.57 54.53
2492 57.3160 2970.00 2921.51 54.50
2493 57.3330 2946.00 2921.44 54.28
2494 57.3500 2829.00 2921.38 53.19
2495 57.3670 2924.00 2921.32 54.07
2496 57.3840 2975.00 2921.26 54.54
2497 57.4010 2952.00 2921.21 54.33
2498 57.4180 2968.00 2921.17 54.48
2499 57.4350 2896.00 2921.13 53.81
2500 57.4520 2754.00 2921.10 52.48
2501 57.4690 2832.00 2921.07 53.22
2502 57.4860 2935.00 2921.06 54.18
2503 57.5030 2853.00 2921.05 53.41
2504 57.5200 2883.00 2921.06 53.69
2505 57.5370 2870.00 2921.08 53.57
2506 57.5540 2895.00 2921.12 53.81
2507 57.5710 3042.00 2921.18 55.15
2508 57.5880 2933.00 2921.27 54.16
2509 57.6050 2889.00 2921.39 53.75
2510 57.6220 2939.00 2921.55 54.21
2511 57.6390 2998.00 2921.76 54.75
2512 57.6560 3061.00 2922.03 55.33
2513 57.6730 2820.00 2922.37 53.10
2514 57.6900 3010.00 2922.83 54.86
2515 57.7070 3103.00 2923.41 55.70
2516 57.7240 3048.00 2924.18 55.21
2517 57.7410 2915.00 2925.19 53.99
2518 57.7580 2915.00 2926.53 53.99
2519 57.7750 2984.00 2928.28 54.63
2520 57.7920 2831.00 2930.56 53.21
2521 57.8090 2919.00 2933.39 54.03
2522 57.8260 3143.00 2936.63 56.06
2523 57.8430 3011.00 2939.82 54.87
2524 57.8600 2938.00 2942.14 54.20
2525 57.8770 2880.00 2942.79 53.67
2526 57.8940 3095.00 2941.63 55.63
2527 57.9110 3089.00 2939.44 55.58
2528 57.9280 2917.00 2937.23 54.01
2529 57.9450 2963.00 2935.63 54.43
2530 57.9620 2935.00 2934.77 54.18
2531 57.9790 2884.00 2934.36 53.70
2532 57.9960 2904.00 2933.91 53.89
2533 58.0130 2968.00 2932.89 54.48
2534 58.0300 3084.00 2931.15 55.53
2535 58.0470 2964.00 2928.98 54.44
2536 58.0640 3094.00 2926.80 55.62
2537 58.0810 3031.00 2924.90 55.05
2538 58.0980 2847.00 2923.35 53.36
2539 58.1150 2829.00 2922.10 53.19
2540 58.1320 2888.00 2921.11 53.74
2541 58.1490 2907.00 2920.32 53.92
2542 58.1660 2906.00 2919.67 53.91
2543 58.1830 2919.00 2919.13 54.03
2544 58.2000 2957.00 2918.67 54.38
2545 58.2170 2968.00 2918.28 54.48
2546 58.2340 2983.00 2917.94 54.62
2547 58.2510 3051.00 2917.65 55.24
2548 58.2680 3032.00 2917.38 55.06
2549 58.2850 3010.00 2917.14 54.86
2550 58.3020 2973.00 2916.92 54.53
2551 58.3190 2937.00 2916.72 54.19
2552 58.3360 2918.00 2916.53 54.02
2553 58.3530 2954.00 2916.36 54.35
2554 58.3700 2886.00 2916.19 53.72
2555 58.3870 2948.00 2916.04 54.30
2556 58.4040 3000.00 2915.79 54.77
2557 58.4210 3031.00 2915.65 55.05
2558 58.4380 2949.00 2915.52 54.30
2559 58.4550 2944.00 2915.39 54.26
2560 58.4720 2973.00 2915.27 54.53
2561 58.4890 3012.00 2915.15 54.88
2562 58.5060 2985.00 2915.04 54.64
2563 58.5230 2996.00 2914.93 54.74
2564 58.5400 3038.00 2914.77 55.12
2565 58.5570 2967.00 2914.67 54.47
2566 58.5740 2946.00 2914.57 54.28
2567 58.5910 3051.00 2914.48 55.24
2568 58.6080 3051.00 2914.39 55.24
2569 58.6250 3040.00 2914.30 55.14
2570 58.6420 2947.00 2914.21 54.29
2571 58.6590 2929.00 2914.13 54.12
2572 58.6760 2895.00 2914.05 53.81
2573 58.6930 2949.00 2913.97 54.30
2574 58.7100 2810.00 2913.90 53.01
2575 58.7270 2775.00 2913.83 52.68
2576 58.7440 2883.00 2913.76 53.69
2577 58.7610 2982.00 2913.70 54.61
2578 58.7780 2967.00 2915.49 54.47
2579 58.7950 2936.00 2915.46 54.18
2580 58.8120 2918.00 2915.44 54.02
2581 58.8290 2899.00 2915.42 53.84
2582 58.8460 2954.00 2915.40 54.35
2583 58.8630 2986.00 2915.39 54.64
2584 58.8800 2865.00 2915.39 53.53
2585 58.8970 2901.00 2915.40 53.86
2586 58.9140 2993.00 2915.41 54.71
2587 58.9310 3057.00 2921.76 55.29
2588 58.9480 2956.00 2924.89 54.37
2589 58.9650 2945.00 2928.31 54.27
2590 58.9820 2932.00 2931.49 54.15
2591 58.9990 2999.00 2932.62 54.76
2592 59.0160 2988.00 2932.95 54.66
2593 59.0330 2843.00 2933.29 53.32
2594 59.0500 2964.00 2933.66 54.44
2595 59.0670 3061.00 2934.05 55.33
2596 59.0840 2998.00 2934.47 54.75
2597 59.1010 3027.00 2934.91 55.02
2598 59.1180 3047.00 2935.39 55.20
2599 59.1350 2906.00 2935.91 53.91
2600 59.1520 2881.00 2936.47 53.67
2601 59.1690 2858.00 2937.07 53.46
2602 59.1860 2915.00 2937.73 53.99
2603 59.2030 2914.00 2938.45 53.98
2604 59.2200 2909.00 2939.24 53.94
2605 59.2370 2861.00 2940.11 53.49
2606 59.2540 2992.00 2941.08 54.70
2607 59.2710 2970.00 2942.15 54.50
2608 59.2880 2938.00 2943.37 54.20
2609 59.3050 2905.00 2944.74 53.90
2610 59.3220 2942.00 2946.31 54.24
2611 59.3390 2893.00 2948.12 53.79
2612 59.3560 2955.00 2950.23 54.36
2613 59.3730 2928.00 2952.71 54.11
2614 59.3900 2933.00 2955.68 54.16
2615 59.4070 2989.00 2959.26 54.67
2616 59.4240 2966.00 2963.64 54.46
2617 59.4410 3007.00 2969.10 54.84
2618 59.4580 3002.00 2975.95 54.79
2619 59.4750 2968.00 2984.66 54.48
2620 59.4920 2906.00 2995.75 53.91
2621 59.5090 2918.00 3009.71 54.02
2622 59.5260 2911.00 3026.65 53.95
2623 59.5430 2854.00 3045.69 53.42
2624 59.5600 3063.00 3064.28 55.34
2625 59.5770 3109.00 3078.29 55.76
2626 59.5940 2985.00 3083.84 54.64
2627 59.6110 2927.00 3080.01 54.10
2628 59.6280 2916.00 3069.95 54.00
2629 59.6450 3005.00 3058.66 54.82
2630 59.6620 2998.00 3049.95 54.75
2631 59.6790 3004.00 3045.12 54.81
2632 59.6960 2940.00 3043.28 54.22
2633 59.7130 3025.00 3042.09 55.00
2634 59.7300 2969.00 3038.88 54.49
2635 59.7470 2966.00 3032.07 54.46
2636 59.7640 2940.00 3022.22 54.22
2637 59.7810 2988.00 3011.28 54.66
2638 59.7980 2955.00 3001.15 54.36
2639 59.8150 3010.00 2992.73 54.86
2640 59.8320 2980.00 2986.16 54.59
2641 59.8490 3172.00 2981.20 56.32
2642 59.8660 3063.00 2977.53 55.34
2643 59.8830 3097.00 2974.87 55.65
2644 59.9000 3009.00 2972.97 54.85
2645 59.9170 3137.00 2971.67 56.01
2646 59.9340 3045.00 2970.85 55.18
2647 59.9510 3134.00 2970.40 55.98
2648 59.9680 3050.00 2970.26 55.23
2649 59.9850 3173.00 2970.38 56.33
2650 60.0020 3094.00 2970.73 55.62
2651 60.0190 3096.00 2971.26 55.64
2652 60.0360 3051.00 2971.97 55.24
2653 60.0530 3074.00 2972.82 55.44
2654 60.0700 2995.00 2973.83 54.73
2655 60.0870 3197.00 2974.96 56.54
2656 60.1040 3168.00 2976.22 56.28
2657 60.1210 3234.00 2977.61 56.87
2658 60.1380 3126.00 2979.12 55.91
2659 60.1550 3162.00 2980.75 56.23
2660 60.1720 3040.00 2982.50 55.14
2661 60.1890 3105.00 2984.37 55.72
2662 60.2060 3144.00 2986.36 56.07
2663 60.2230 3048.00 2988.49 55.21
2664 60.2400 3148.00 2990.75 56.11
2665 60.2570 3135.00 2993.12 55.99
2666 60.2740 3032.00 2995.66 55.06
2667 60.2910 3119.00 2998.35 55.85
2668 60.3080 3114.00 3001.21 55.80
2669 60.3250 3094.00 3004.22 55.62
2670 60.3420 3148.00 3007.42 56.11
2671 60.3590 3129.00 3010.80 55.94
2672 60.3760 3147.00 3014.38 56.10
2673 60.3930 3137.00 3018.18 56.01
2674 60.4100 3105.00 3022.20 55.72
2675 60.4270 3150.00 3026.47 56.12
2676 60.4440 3067.00 3031.02 55.38
2677 60.4610 3056.00 3035.83 55.28
2678 60.4780 3169.00 3040.95 56.29
2679 60.4950 3154.00 3046.39 56.16
2680 60.5120 3088.00 3052.19 55.57
2681 60.5290 3142.00 3058.37 56.05
2682 60.5460 3168.00 3064.96 56.28
2683 60.5630 3156.00 3072.01 56.18
2684 60.5800 3138.00 3079.55 56.02
2685 60.5970 3048.00 3087.63 55.21
2686 60.6140 3119.00 3096.29 55.85
2687 60.6310 3245.00 3105.60 56.96
2688 60.6480 3132.00 3115.61 55.96
2689 60.6650 3214.00 3126.41 56.69
2690 60.6820 3257.00 3138.06 57.07
2691 60.6990 3320.00 3150.67 57.62
2692 60.7160 3336.00 3164.32 57.76
2693 60.7330 3189.00 3179.17 56.47
2694 60.7500 3192.00 3195.32 56.50
2695 60.7670 3160.00 3212.95 56.21
2696 60.7840 3216.00 3232.24 56.71
2697 60.8010 3395.00 3253.40 58.27
2698 60.8180 3479.00 3276.67 58.98
2699 60.8350 3437.00 3302.35 58.63
2700 60.8520 3464.00 3330.78 58.86
2701 60.8690 3474.00 3362.36 58.94
2702 60.8860 3498.00 3397.58 59.14
2703 60.9030 3651.00 3437.01 60.42
2704 60.9200 3601.00 3481.35 60.01
2705 60.9370 3739.00 3531.45 61.15
2706 60.9540 3778.00 3588.34 61.47
2707 60.9710 3804.00 3653.30 61.68
2708 60.9880 4041.00 3727.92 63.57
2709 61.0050 4202.00 3814.21 64.82
2710 61.0220 4180.00 3914.68 64.65
2711 61.0390 4243.00 4032.59 65.14
2712 61.0560 4403.00 4172.15 66.36
2713 61.0730 4458.00 4338.86 66.77
2714 61.0900 4596.00 4539.90 67.79
2715 61.1070 4882.00 4785.16 69.87
2716 61.1240 5215.00 5087.62 72.21
2717 61.1410 5664.00 5464.91 75.26
2718 61.1580 6250.00 5940.56 79.06
2719 61.1750 6695.00 6545.13 81.82
2720 61.1920 7568.00 7315.56 86.99
2721 61.2090 8600.00 8289.04 92.74
2722 61.2260 9840.00 9485.34 99.20
2723 61.2430 11303.00 10872.50 106.32
2724 61.2600 12821.00 12327.20 113.23
2725 61.2770 14214.00 13630.70 119.22
2726 61.2940 14944.00 14544.40 122.25
2727 61.3110 15148.00 14930.80 123.08
2728 61.3280 14973.00 14803.90 122.36
2729 61.3450 14548.00 14285.00 120.61
2730 61.3620 13803.00 13558.90 117.49
2731 61.3790 13372.00 12837.20 115.64
2732 61.3960 12875.00 12269.70 113.47
2733 61.4130 12432.00 11869.00 111.50
2734 61.4300 12034.00 11529.60 109.70
2735 61.4470 11482.00 11119.00 107.15
2736 61.4640 10858.00 10558.80 104.20
2737 61.4810 9961.00 9840.10 99.80
2738 61.4980 9091.00 9001.55 95.35
2739 61.5150 8376.00 8117.16 91.52
2740 61.5320 7427.00 7275.48 86.18
2741 61.5490 6810.00 6540.42 82.52
2742 61.5660 6272.00 5933.51 79.20
2743 61.5830 5756.00 5446.24 75.87
2744 61.6000 5239.00 5058.34 72.38
2745 61.6170 4882.00 4748.73 69.87
2746 61.6340 4648.00 4499.58 68.18
2747 61.6510 4415.00 4296.95 66.45
2748 61.6680 4187.00 4130.31 64.71
2749 61.6850 4046.00 3991.77 63.61
2750 61.7020 3921.00 3875.39 62.62
2751 61.7190 3784.00 3776.70 61.51
2752 61.7360 3502.00 3692.28 59.18
2753 61.7530 3462.00 3619.50 58.84
2754 61.7700 3514.00 3556.24 59.28
2755 61.7870 3554.00 3500.97 59.62
2756 61.8040 3538.00 3452.32 59.48
2757 61.8210 3560.00 3409.29 59.67
2758 61.8380 3358.00 3371.03 57.95
2759 61.8550 3246.00 3336.85 56.97
2760 61.8720 3249.00 3306.18 57.00
2761 61.8890 3166.00 3278.55 56.27
2762 61.9060 3172.00 3253.57 56.32
2763 61.9230 3160.00 3230.90 56.21
2764 61.9400 3164.00 3210.26 56.25
2765 61.9570 3107.00 3191.41 55.74
2766 61.9740 2935.00 3174.15 54.18
2767 61.9910 3048.00 3158.30 55.21
2768 62.0080 3136.00 3143.71 56.00
2769 62.0250 3134.00 3130.19 55.98
2770 62.0420 3016.00 3117.66 54.92
2771 62.0590 2968.00 3106.12 54.48
2772 62.0760 3094.00 3095.40 55.62
2773 62.0930 3012.00 3085.42 54.88
2774 62.1100 3018.00 3076.12 54.94
2775 62.1270 3039.00 3067.44 55.13
2776 62.1440 2946.00 3059.31 54.28
2777 62.1610 2949.00 3051.67 54.30
2778 62.1780 2991.00 3044.52 54.69
2779 62.1950 2997.00 3037.77 54.74
2780 62.2120 2972.00 3031.46 54.52
2781 62.2290 2898.00 3025.50 53.83
2782 62.2460 2902.00 3019.88 53.87
2783 62.2630 2949.00 3014.58 54.30
2784 62.2800 3093.00 3009.56 55.61
2785 62.2970 2963.00 3004.80 54.43
2786 62.3140 2937.00 3000.30 54.19
2787 62.3310 2874.00 2996.02 53.61
2788 62.3480 2883.00 2991.96 53.69
2789 62.3650 2969.00 2988.10 54.49
2790 62.3820 2963.00 2984.43 54.43
2791 62.3990 2973.00 2980.93 54.53
2792 62.4160 2938.00 2977.60 54.20
2793 62.4330 2986.00 2974.42 54.64
2794 62.4500 2991.00 2971.38 54.69
2795 62.4670 2883.00 2968.49 53.69
2796 62.4840 2852.00 2965.72 53.40
2797 62.5010 2869.00 2963.07 53.56
2798 62.5180 2865.00 2960.53 53.53
2799 62.5350 2986.00 2958.11 54.64
2800 62.5520 2913.00 2955.79 53.97
2801 62.5690 2835.00 2953.57 53.24
2802 62.5860 2889.00 2951.44 53.75
2803 62.6030 2923.00 2949.41 54.06
2804 62.6200 2872.00 2947.46 53.59
2805 62.6370 2833.00 2945.60 53.23
2806 62.6540 2898.00 2943.83 53.83
2807 62.6710 2904.00 2942.14 53.89
2808 62.6880 2841.00 2940.53 53.30
2809 62.7050 2921.00 2939.01 54.05
2810 62.7220 2812.00 2937.57 53.03
2811 62.7390 2886.00 2936.23 53.72
2812 62.7560 2952.00 2934.98 54.33
2813 62.7730 2983.00 2933.84 54.62
2814 62.7900 2951.00 2932.82 54.32
2815 62.8070 2875.00 2931.94 53.62
2816 62.8240 2817.00 2931.23 53.08
2817 62.8410 2827.00 2930.71 53.17
2818 62.8580 2825.00 2930.44 53.15
2819 62.8750 2832.00 2930.48 53.22
2820 62.8920 2849.00 2930.91 53.38
2821 62.9090 2857.00 2931.82 53.45
2822 62.9260 2838.00 2933.28 53.27
2823 62.9430 2852.00 2935.23 53.40
2824 62.9600 3022.00 2937.42 54.97
2825 62.9770 2867.00 2939.23 53.54
2826 62.9940 2956.00 2939.86 54.37
2827 63.0110 2754.00 2938.82 52.48
2828 63.0280 2858.00 2936.35 53.46
2829 63.0450 2855.00 2933.25 53.43
2830 63.0620 2870.00 2930.32 53.57
2831 63.0790 2754.00 2927.99 52.48
2832 63.0960 2857.00 2926.37 53.45
2833 63.1130 2841.00 2925.27 53.30
2834 63.1300 2941.00 2924.29 54.23
2835 63.1470 2859.00 2922.95 53.47
2836 63.1640 2841.00 2920.95 53.30
2837 63.1810 2835.00 2918.40 53.24
2838 63.1980 2829.00 2915.63 53.19
2839 63.2150 2862.00 2912.98 53.50
2840 63.2320 2663.00 2910.61 51.60
2841 63.2490 2726.00 2908.55 52.21
2842 63.2660 2762.00 2906.77 52.55
2843 63.2830 2765.00 2905.22 52.58
2844 63.3000 2750.00 2903.86 52.44
2845 63.3170 2820.00 2902.64 53.10
2846 63.3340 2896.00 2901.53 53.81
2847 63.3510 2889.00 2900.52 53.75
2848 63.3680 2799.00 2899.57 52.91
2849 63.3850 2761.00 2898.69 52.55
2850 63.4020 2770.00 2897.85 52.63
2851 63.4190 2800.00 2897.06 52.92
2852 63.4360 2844.00 2896.30 53.33
2853 63.4530 2893.00 2895.57 53.79
2854 63.4700 2788.00 2894.87 52.80
2855 63.4870 2788.00 2894.19 52.80
2856 63.5040 2918.00 2893.54 54.02
2857 63.5210 2873.00 2892.90 53.60
2858 63.5380 2818.00 2892.28 53.08
2859 63.5550 2926.00 2891.67 54.09
2860 63.5720 2866.00 2891.08 53.53
2861 63.5890 2833.00 2890.50 53.23
2862 63.6060 2883.00 2889.94 53.69
2863 63.6230 2897.00 2889.38 53.82
2864 63.6400 2891.00 2888.84 53.77
2865 63.6570 2849.00 2888.30 53.38
2866 63.6740 2739.00 2887.78 52.34
2867 63.6910 2759.00 2887.26 52.53
2868 63.7080 2787.00 2886.76 52.79
2869 63.7250 2792.00 2886.26 52.84
2870 63.7420 2893.00 2885.77 53.79
2871 63.7590 2850.00 2885.28 53.39
2872 63.7760 2865.00 2881.16 53.53
2873 63.7930 2824.00 2878.50 53.14
2874 63.8100 2792.00 2876.42 52.84
2875 63.8270 2988.00 2876.06 54.66
2876 63.8440 2894.00 2871.88 53.80
2877 63.8610 2722.00 2871.58 52.17
2878 63.8780 2759.00 2871.28 52.53
2879 63.8950 2829.00 2870.99 53.19
2880 63.9120 2836.00 2870.70 53.25
2881 63.9290 2794.00 2868.61 52.86
2882 63.9460 2824.00 2867.25 53.14
2883 63.9630 2805.00 2866.16 52.96
2884 63.9800 2880.00 2864.86 53.67
2885 63.9970 2813.00 2863.81 53.04
2886 64.0140 2819.00 2863.60 53.09
2887 64.0310 2837.00 2863.40 53.26
2888 64.0480 2782.00 2863.19 52.74
2889 64.0650 2748.00 2862.99 52.42
2890 64.0820 2744.00 2862.78 52.38
2891 64.0990 2823.00 2862.58 53.13
2892 64.1160 2812.00 2862.37 53.03
2893 64.1330 2920.00 2862.17 54.04
2894 64.1500 2923.00 2861.97 54.06
2895 64.1670 2848.00 2861.77 53.37
2896 64.1840 2842.00 2861.56 53.31
2897 64.2010 2846.00 2861.36 53.35
2898 64.2180 2825.00 2861.16 53.15
2899 64.2350 2753.00 2860.96 52.47
2900 64.2520 2754.00 2860.77 52.48
2901 64.2690 2820.00 2860.57 53.10
2902 64.2860 2835.00 2860.38 53.24
2903 64.3030 2917.00 2860.18 54.01
2904 64.3200 2883.00 2859.99 53.69
2905 64.3370 2846.00 2859.80 53.35
2906 64.3540 2818.00 2859.62 53.08
2907 64.3710 2798.00 2859.44 52.90
2908 64.3880 2874.00 2859.26 53.61
2909 64.4050 2972.00 2859.09 54.52
2910 64.4220 2964.00 2858.92 54.44
2911 64.4390 2863.00 2858.77 53.51
2912 64.4560 2868.00 2858.62 53.55
2913 64.4730 2830.00 2858.49 53.20
2914 64.4900 2820.00 2858.37 53.10
2915 64.5070 2852.00 2858.28 53.40
2916 64.5240 2846.00 2858.22 53.35
2917 64.5410 2868.00 2858.20 53.55
2918 64.5580 2857.00 2858.23 53.45
2919 64.5750 2786.00 2858.33 52.78
2920 64.5920 2715.00 2858.49 52.11
2921 64.6090 2746.00 2858.73 52.40
2922 64.6260 2866.00 2859.00 53.53
2923 64.6430 2940.00 2859.21 54.22
2924 64.6600 2888.00 2859.25 53.74
2925 64.6770 2850.00 2859.04 53.39
2926 64.6940 2842.00 2858.61 53.31
2927 64.7110 2846.00 2858.08 53.35
2928 64.7280 2829.00 2857.56 53.19
2929 64.7450 2827.00 2857.12 53.17
2930 64.7620 2856.00 2856.79 53.44
2931 64.7790 2843.00 2856.54 53.32
2932 64.7960 2768.00 2856.33 52.61
2933 64.8130 2750.00 2856.08 52.44
2934 64.8300 2783.00 2855.73 52.75
2935 64.8470 2792.00 2855.29 52.84
2936 64.8640 2838.00 2854.79 53.27
2937 64.8810 2791.00 2854.30 52.83
2938 64.8980 2880.00 2853.83 53.67
2939 64.9150 2855.00 2853.41 53.43
2940 64.9320 2895.00 2853.03 53.81
2941 64.9490 2848.00 2852.68 53.37
2942 64.9660 2911.00 2852.36 53.95
2943 64.9830 2842.00 2852.06 53.31
2944 65.0000 2898.00 2851.78 53.83
2945 65.0170 2806.00 2851.51 52.97
2946 65.0340 2930.00 2851.25 54.13
2947 65.0510 2786.00 2850.99 52.78
2948 65.0680 2909.00 2850.74 53.94
2949 65.0850 2948.00 2850.50 54.30
2950 65.1020 2952.00 2850.26 54.33
2951 65.1190 2841.00 2850.02 53.30
2952 65.1360 2800.00 2849.79 52.92
2953 65.1530 2771.00 2849.56 52.64
2954 65.1700 2791.00 2849.33 52.83
2955 65.1870 2783.00 2852.87 52.75
2956 65.2040 2952.00 2852.69 54.33
2957 65.2210 2789.00 2852.52 52.81
2958 65.2380 2781.00 2852.34 52.74
2959 65.2550 2821.00 2852.17 53.11
2960 65.2720 2800.00 2851.99 52.92
2961 65.2890 2927.00 2851.82 54.10
2962 65.3060 2939.00 2851.65 54.21
2963 65.3230 2880.00 2851.49 53.67
2964 65.3400 2895.00 2858.05 53.81
2965 65.3570 2839.00 2865.31 53.28
2966 65.3740 2806.00 2865.33 52.97
2967 65.3910 2743.00 2867.68 52.37
2968 65.4080 2813.00 2867.74 53.04
2969 65.4250 2877.00 2867.81 53.64
2970 65.4420 2794.00 2867.88 52.86
2971 65.4590 2802.00 2867.97 52.93
2972 65.4760 2821.00 2868.05 53.11
2973 65.4930 2795.00 2868.14 52.87
2974 65.5100 2804.00 2868.24 52.95
2975 65.5270 2755.00 2868.35 52.49
2976 65.5440 2793.00 2868.44 52.85
2977 65.5610 2798.00 2868.56 52.90
2978 65.5780 2824.00 2868.69 53.14
2979 65.5950 2716.00 2868.83 52.12
2980 65.6120 2821.00 2868.97 53.11
2981 65.6290 2892.00 2869.12 53.78
2982 65.6460 2813.00 2869.28 53.04
2983 65.6630 2830.00 2869.45 53.20
2984 65.6800 2872.00 2869.63 53.59
2985 65.6970 2942.00 2869.80 54.24
2986 65.7140 2904.00 2870.00 53.89
2987 65.7310 2817.00 2870.20 53.08
2988 65.7480 2831.00 2870.42 53.21
2989 65.7650 2789.00 2870.64 52.81
2990 65.7820 2863.00 2870.88 53.51
2991 65.7990 2878.00 2871.12 53.65
2992 65.8160 2927.00 2871.38 54.10
2993 65.8330 2715.00 2871.65 52.11
2994 65.8500 2804.00 2871.93 52.95
2995 65.8670 2914.00 2872.22 53.98
2996 65.8840 2780.00 2872.53 52.73
2997 65.9010 2888.00 2872.84 53.74
2998 65.9180 2809.00 2873.18 53.00
2999 65.9350 2884.00 2873.52 53.70
3000 65.9520 2862.00 2873.88 53.50
3001 65.9690 2684.00 2874.25 51.81
3002 65.9860 2810.00 2874.64 53.01
3003 66.0030 2880.00 2875.05 53.67
3004 66.0200 2824.00 2875.47 53.14
3005 66.0370 2670.00 2875.91 51.67
3006 66.0540 2768.00 2876.37 52.61
3007 66.0710 2845.00 2876.84 53.34
3008 66.0880 2831.00 2877.34 53.21
3009 66.1050 2804.00 2877.85 52.95
3010 66.1220 2826.00 2878.39 53.16
3011 66.1390 2830.00 2878.94 53.20
3012 66.1560 2788.00 2879.52 52.80
3013 66.1730 2843.00 2880.12 53.32
3014 66.1900 2810.00 2880.75 53.01
3015 66.2070 2863.00 2881.40 53.51
3016 66.2240 2878.00 2882.07 53.65
3017 66.2410 2815.00 2882.77 53.06
3018 66.2580 2844.00 2883.50 53.33
3019 66.2750 2903.00 2884.26 53.88
3020 66.2920 2921.00 2885.05 54.05
3021 66.3090 2972.00 2885.87 54.52
3022 66.3260 2885.00 2886.72 53.71
3023 66.3430 2845.00 2887.61 53.34
3024 66.3600 2891.00 2888.53 53.77
3025 66.3770 2905.00 2889.49 53.90
3026 66.3940 2870.00 2890.49 53.57
3027 66.4110 2814.00 2891.53 53.05
3028 66.4280 2890.00 2892.61 53.76
3029 66.4450 2915.00 2893.73 53.99
3030 66.4620 2959.00 2894.90 54.40
3031 66.4790 2925.00 2896.12 54.08
3032 66.4960 2770.00 2897.39 52.63
3033 66.5130 2833.00 2898.72 53.23
3034 66.5300 2859.00 2900.09 53.47
3035 66.5470 2793.00 2901.53 52.85
3036 66.5640 2933.00 2903.03 54.16
3037 66.5810 2901.00 2904.59 53.86
3038 66.5980 2780.00 2906.22 52.73
3039 66.6150 2863.00 2907.92 53.51
3040 66.6320 2832.00 2909.69 53.22
3041 66.6490 2823.00 2911.55 53.13
3042 66.6660 2789.00 2913.48 52.81
3043 66.6830 2860.00 2915.50 53.48
3044 66.7000 2928.00 2917.62 54.11
3045 66.7170 2908.00 2919.83 53.93
3046 66.7340 2872.00 2922.17 53.59
3047 66.7510 2970.00 2924.59 54.50
3048 66.7680 2916.00 2927.13 54.00
3049 66.7850 2781.00 2929.79 52.74
3050 66.8020 2851.00 2932.57 53.39
3051 66.8190 2876.00 2935.49 53.63
3052 66.8360 2870.00 2938.56 53.57
3053 66.8530 2839.00 2941.78 53.28
3054 66.8700 2931.00 2945.16 54.14
3055 66.8870 3007.00 2948.73 54.84
3056 66.9040 3026.00 2952.47 55.01
3057 66.9210 3009.00 2956.40 54.85
3058 66.9380 2848.00 2960.55 53.37
3059 66.9550 2915.00 2964.92 53.99
3060 66.9720 2882.00 2969.54 53.68
3061 66.9890 2977.00 2974.41 54.56
3062 67.0060 2877.00 2979.56 53.64
3063 67.0230 2950.00 2985.00 54.31
3064 67.0400 3056.00 2990.77 55.28
3065 67.0570 3058.00 2996.87 55.30
3066 67.0740 3036.00 3003.35 55.10
3067 67.0910 2968.00 3010.23 54.48
3068 67.1080 3049.00 3017.54 55.22
3069 67.1250 3179.00 3025.32 56.38
3070 67.1420 3089.00 3033.60 55.58
3071 67.1590 3068.00 3042.44 55.39
3072 67.1760 3118.00 3051.89 55.84
3073 67.1930 3022.00 3061.99 54.97
3074 67.2100 3035.00 3072.80 55.09
3075 67.2270 3062.00 3084.40 55.34
3076 67.2440 3181.00 3096.86 56.40
3077 67.2610 3086.00 3110.27 55.55
3078 67.2780 3060.00 3124.72 55.32
3079 67.2950 3087.00 3140.32 55.56
3080 67.3120 3112.00 3157.21 55.79
3081 67.3290 3203.00 3175.52 56.60
3082 67.3460 3218.00 3195.41 56.73
3083 67.3630 3198.00 3217.07 56.55
3084 67.3800 3317.00 3240.72 57.59
3085 67.3970 3305.00 3266.59 57.49
3086 67.4140 3295.00 3294.99 57.40
3087 67.4310 3422.00 3326.23 58.50
3088 67.4480 3490.00 3360.71 59.08
3089 67.4650 3482.00 3398.93 59.01
3090 67.4820 3472.00 3441.39 58.92
3091 67.4990 3627.00 3488.76 60.22
3092 67.5160 3661.00 3541.79 60.51
3093 67.5330 3677.00 3601.48 60.64
3094 67.5500 3794.00 3668.98 61.60
3095 67.5670 3852.00 3745.62 62.06
3096 67.5840 3855.00 3833.12 62.09
3097 67.6010 3878.00 3933.70 62.27
3098 67.6180 4035.00 4050.04 63.52
3099 67.6350 4282.00 4185.45 65.44
3100 67.6520 4358.00 4344.22 66.02
3101 67.6690 4482.00 4532.04 66.95
3102 67.6860 4877.00 4756.09 69.84
3103 67.7030 5028.00 5025.80 70.91
3104 67.7200 5409.00 5353.64 73.55
3105 67.7370 5798.00 5756.05 76.14
3106 67.7540 6057.00 6254.63 77.83
3107 67.7710 6868.00 6877.24 82.87
3108 67.7880 7720.00 7658.24 87.86
3109 67.8050 8569.00 8635.80 92.57
3110 67.8220 9799.00 9841.42 98.99
3111 67.8390 11318.00 11278.50 106.39
3112 67.8560 12898.00 12880.80 113.57
3113 67.8730 14424.00 14473.40 120.10
3114 67.8900 15520.00 15788.60 124.58
3115 67.9070 15880.00 16562.20 126.02
3116 67.9240 16073.00 16660.30 126.78
3117 67.9410 15553.00 16141.40 124.71
3118 67.9580 14892.00 15226.40 122.03
3119 67.9750 14188.00 14208.40 119.11
3120 67.9920 13518.00 13340.70 116.27
3121 68.0090 13035.00 12754.60 114.17
3122 68.0260 12866.00 12445.60 113.43
3123 68.0430 12532.00 12298.10 111.95
3124 68.0600 12198.00 12137.70 110.44
3125 68.0770 11791.00 11805.20 108.59
3126 68.0940 11363.00 11221.50 106.60
3127 68.1110 10510.00 10405.90 102.52
3128 68.1280 9506.00 9452.83 97.50
3129 68.1450 8577.00 8484.28 92.61
3130 68.1620 7872.00 7595.95 88.72
3131 68.1790 6878.00 6835.89 82.93
3132 68.1960 6437.00 6209.85 80.23
3133 68.2130 6077.00 5702.36 77.96
3134 68.2300 5603.00 5292.44 74.85
3135 68.2470 5283.00 4960.36 72.68
3136 68.2640 4914.00 4689.23 70.10
3137 68.2810 4705.00 4465.65 68.59
3138 68.2980 4496.00 4279.60 67.05
3139 68.3150 4256.00 4123.24 65.24
3140 68.3320 4194.00 3990.80 64.76
3141 68.3490 4030.00 3877.53 63.48
3142 68.3660 3816.00 3779.94 61.77
3143 68.3830 3732.00 3695.22 61.09
3144 68.4000 3677.00 3621.28 60.64
3145 68.4170 3637.00 3556.29 60.31
3146 68.4340 3584.00 3498.84 59.87
3147 68.4510 3514.00 3447.83 59.28
3148 68.4680 3483.00 3402.25 59.02
3149 68.4850 3404.00 3361.41 58.34
3150 68.5020 3542.00 3324.65 59.51
3151 68.5190 3334.00 3291.45 57.74
3152 68.5360 3310.00 3261.31 57.53
3153 68.5530 3298.00 3233.90 57.43
3154 68.5700 3212.00 3208.90 56.67
3155 68.5870 3201.00 3186.01 56.58
3156 68.6040 3193.00 3164.99 56.51
3157 68.6210 3131.00 3145.66 55.96
3158 68.6380 3068.00 3127.84 55.39
3159 68.6550 3141.00 3111.35 56.04
3160 68.6720 3173.00 3096.08 56.33
3161 68.6890 3146.00 3081.90 56.09
3162 68.7060 3127.00 3068.72 55.92
3163 68.7230 3086.00 3056.43 55.55
3164 68.7400 3016.00 3044.96 54.92
3165 68.7570 3040.00 3034.23 55.14
3166 68.7740 3075.00 3024.19 55.45
3167 68.7910 3164.00 3014.77 56.25
3168 68.8080 3095.00 3005.92 55.63
3169 68.8250 2948.00 2997.60 54.30
3170 68.8420 3068.00 2989.76 55.39
3171 68.8590 3037.00 2982.37 55.11
3172 68.8760 3067.00 2975.39 55.38
3173 68.8930 3095.00 2968.80 55.63
3174 68.9100 3101.00 2962.56 55.69
3175 68.9270 2915.00 2956.65 53.99
3176 68.9440 2933.00 2951.05 54.16
3177 68.9610 3037.00 2945.74 55.11
3178 68.9780 2933.00 2940.69 54.16
3179 68.9950 2940.00 2935.89 54.22
3180 69.0120 3008.00 2931.34 54.85
3181 69.0290 3062.00 2927.00 55.34
3182 69.0460 2931.00 2922.87 54.14
3183 69.0630 2885.00 2918.94 53.71
3184 69.0800 2898.00 2915.20 53.83
3185 69.0970 2987.00 2911.64 54.65
3186 69.1140 2883.00 2908.24 53.69
3187 69.1310 2945.00 2905.01 54.27
3188 69.1480 2872.00 2901.94 53.59
3189 69.1650 2857.00 2899.03 53.45
3190 69.1820 2968.00 2896.26 54.48
3191 69.1990 2971.00 2893.65 54.51
3192 69.2160 2976.00 2891.19 54.55
3193 69.2330 2951.00 2888.89 54.32
3194 69.2500 2914.00 2886.75 53.98
3195 69.2670 2843.00 2884.78 53.32
3196 69.2840 2794.00 2883.00 52.86
3197 69.3010 2763.00 2881.43 52.56
3198 69.3180 2796.00 2880.10 52.88
3199 69.3350 2836.00 2879.06 53.25
3200 69.3520 2892.00 2878.36 53.78
3201 69.3690 2860.00 2878.08 53.48
3202 69.3860 2885.00 2878.30 53.71
3203 69.4030 2880.00 2879.10 53.67
3204 69.4200 2849.00 2880.50 53.38
3205 69.4370 2833.00 2882.40 53.23
3206 69.4540 2900.00 2884.39 53.85
3207 69.4710 2902.00 2885.74 53.87
3208 69.4880 2817.00 2885.61 53.08
3209 69.5050 2801.00 2883.60 52.92
3210 69.5220 2859.00 2880.09 53.47
3211 69.5390 2930.00 2875.99 54.13
3212 69.5560 2821.00 2872.10 53.11
3213 69.5730 2792.00 2868.88 52.84
3214 69.5900 2891.00 2866.48 53.77
3215 69.6070 2901.00 2864.82 53.86
3216 69.6240 2857.00 2863.62 53.45
3217 69.6410 2759.00 2862.43 52.53
3218 69.6580 2723.00 2860.76 52.18
3219 69.6750 2692.00 2858.33 51.88
3220 69.6920 2872.00 2855.26 53.59
3221 69.7090 2839.00 2851.91 53.28
3222 69.7260 2738.00 2848.66 52.33
3223 69.7430 2695.00 2845.70 51.91
3224 69.7600 2870.00 2843.07 53.57
3225 69.7770 2800.00 2840.77 52.92
3226 69.7940 2775.00 2838.74 52.68
3227 69.8110 2877.00 2836.93 53.64
3228 69.8280 2879.00 2835.30 53.66
3229 69.8450 2798.00 2833.82 52.90
3230 69.8620 2887.00 2832.45 53.73
3231 69.8790 2762.00 2831.18 52.55
3232 69.8960 2841.00 2829.98 53.30
3233 69.9130 2766.00 2828.85 52.59
3234 69.9300 2825.00 2827.81 53.15
3235 69.9470 2907.00 2826.79 53.92
3236 69.9640 2812.00 2825.85 53.03
3237 69.9810 2783.00 2824.92 52.75
3238 69.9980 2862.00 2824.02 53.50
3239 70.0150 2837.00 2823.16 53.26
3240 70.0320 2747.00 2822.32 52.41
3241 70.0490 2759.00 2821.50 52.53
3242 70.0660 2804.00 2820.71 52.95
3243 70.0830 2769.00 2819.94 52.62
3244 70.1000 2883.00 2819.19 53.69
3245 70.1170 2830.00 2818.46 53.20
3246 70.1340 2823.00 2817.75 53.13
3247 70.1510 2769.00 2817.06 52.62
3248 70.1680 2829.00 2816.39 53.19
3249 70.1850 2865.00 2815.72 53.53
3250 70.2020 2758.00 2815.08 52.52
3251 70.2190 2870.00 2814.45 53.57
3252 70.2360 2840.00 2813.83 53.29
3253 70.2530 2734.00 2813.23 52.29
3254 70.2700 2868.00 2812.64 53.55
3255 70.2870 2849.00 2812.06 53.38
3256 70.3040 2791.00 2811.49 52.83
3257 70.3210 2876.00 2810.94 53.63
3258 70.3380 2865.00 2810.40 53.53
3259 70.3550 2841.00 2809.86 53.30
3260 70.3720 2680.00 2809.34 51.77
3261 70.3890 2725.00 2808.84 52.20
3262 70.4060 2770.00 2808.34 52.63
3263 70.4230 2767.00 2807.85 52.60
3264 70.4400 2913.00 2807.38 53.97
3265 70.4570 2810.00 2806.91 53.01
3266 70.4740 2710.00 2806.46 52.06
3267 70.4910 2810.00 2806.02 53.01
3268 70.5080 2724.00 2805.59 52.19
3269 70.5250 2750.00 2805.17 52.44
3270 70.5420 2780.00 2804.76 52.73
3271 70.5590 2889.00 2804.36 53.75
3272 70.5760 2893.00 2803.98 53.79
3273 70.5930 2837.00 2799.86 53.26
3274 70.6100 2809.00 2799.55 53.00
3275 70.6270 2798.00 2794.91 52.90
3276 70.6440 2792.00 2789.98 52.84
3277 70.6610 2911.00 2789.84 53.95
3278 70.6780 2871.00 2789.71 53.58
3279 70.6950 2882.00 2789.59 53.68
3280 70.7120 2836.00 2789.50 53.25
3281 70.7290 2806.00 2789.44 52.97
3282 70.7460 2781.00 2789.41 52.74
3283 70.7630 2870.00 2787.55 53.57
3284 70.7800 2746.00 2787.62 52.40
3285 70.7970 2790.00 2785.58 52.82
3286 70.8140 2817.00 2785.78 53.08
3287 70.8310 2787.00 2783.76 52.79
3288 70.8480 2705.00 2784.15 52.01
3289 70.8650 2797.00 2784.65 52.89
3290 70.8820 2776.00 2785.30 52.69
3291 70.8990 2778.00 2786.12 52.71
3292 70.9160 2727.00 2787.16 52.22
3293 70.9330 2760.00 2788.50 52.54
3294 70.9500 2827.00 2790.21 53.17
3295 70.9670 2759.00 2792.38 52.53
3296 70.9840 2742.00 2795.08 52.36
3297 71.0010 2710.00 2798.33 52.06
3298 71.0180 2747.00 2802.01 52.41
3299 71.0350 2760.00 2805.73 52.54
3300 71.0520 2811.00 2808.82 53.02
3301 71.0690 2847.00 2810.57 53.36
3302 71.0860 2938.00 2810.61 54.20
3303 71.1030 2816.00 2809.23 53.07
3304 71.1200 2755.00 2807.08 52.49
3305 71.1370 2727.00 2804.81 52.22
3306 71.1540 2711.00 2802.80 52.07
3307 71.1710 2781.00 2801.26 52.74
3308 71.1880 2730.00 2800.25 52.25
3309 71.2050 2757.00 2799.67 52.51
3310 71.2220 2763.00 2799.26 52.56
3311 71.2390 2808.00 2798.59 52.99
3312 71.2560 2785.00 2797.37 52.77
3313 71.2730 2758.00 2795.54 52.52
3314 71.2900 2870.00 2793.33 53.57
3315 71.3070 2727.00 2791.02 52.22
3316 71.3240 2677.00 2788.79 51.74
3317 71.3410 2824.00 2786.73 53.14
3318 71.3580 2778.00 2784.87 52.71
3319 71.3750 2817.00 2783.24 53.08
3320 71.3920 2733.00 2781.85 52.28
3321 71.4090 2798.00 2780.67 52.90
3322 71.4260 2787.00 2779.67 52.79
3323 71.4430 2642.00 2778.83 51.40
3324 71.4600 2723.00 2778.11 52.18
3325 71.4770 2687.00 2777.49 51.84
3326 71.4940 2759.00 2776.95 52.53
3327 71.5110 2779.00 2776.47 52.72
3328 71.5280 2745.00 2776.04 52.39
3329 71.5450 2770.00 2775.66 52.63
3330 71.5620 2709.00 2775.31 52.05
3331 71.5790 2698.00 2774.99 51.94
3332 71.5960 2839.00 2774.69 53.28
3333 71.6130 2726.00 2774.42 52.21
3334 71.6300 2711.00 2774.16 52.07
3335 71.6470 2681.00 2773.92 51.78
3336 71.6640 2611.00 2773.70 51.10
3337 71.6810 2732.00 2773.48 52.27
3338 71.6980 2760.00 2773.28 52.54
3339 71.7150 2726.00 2773.09 52.21
3340 71.7320 2762.00 2772.90 52.55
3341 71.7490 2885.00 2772.72 53.71
3342 71.7660 2763.00 2772.56 52.56
3343 71.7830 2838.00 2772.39 53.27
3344 71.8000 2815.00 2772.24 53.06
3345 71.8170 2753.00 2772.09 52.47
3346 71.8340 2780.00 2771.94 52.73
3347 71.8510 2712.00 2771.80 52.08
3348 71.8680 2694.00 2771.67 51.90
3349 71.8850 2750.00 2771.54 52.44
3350 71.9020 2788.00 2771.42 52.80
3351 71.9190 2859.00 2771.30 53.47
3352 71.9360 2964.00 2771.18 54.44
3353 71.9530 2774.00 2771.07 52.67
3354 71.9700 2804.00 2770.97 52.95
3355 71.9870 2852.00 2770.87 53.40
3356 72.0040 2771.00 2770.78 52.64
3357 72.0210 2824.00 2770.69 53.14
3358 72.0380 2784.00 2770.61 52.76
3359 72.0550 2748.00 2770.53 52.42
3360 72.0720 2804.00 2770.46 52.95
3361 72.0890 2785.00 2770.40 52.77
3362 72.1060 2764.00 2770.34 52.57
3363 72.1230 2822.00 2770.29 53.12
3364 72.1400 2813.00 2770.26 53.04
3365 72.1570 2808.00 2770.23 52.99
3366 72.1740 2771.00 2770.21 52.64
3367 72.1910 2790.00 2770.20 52.82
3368 72.2080 2818.00 2770.20 53.08
3369 72.2250 2792.00 2770.22 52.84
3370 72.2420 2836.00 2770.26 53.25
3371 72.2590 2800.00 2770.28 52.92
3372 72.2760 2722.00 2770.36 52.17
3373 72.2930 2784.00 2770.45 52.76
3374 72.3100 2758.00 2770.58 52.52
3375 72.3270 2762.00 2770.74 52.55
3376 72.3440 2775.00 2770.93 52.68
3377 72.3610 2766.00 2771.17 52.59
3378 72.3780 2829.00 2771.47 53.19
3379 72.3950 2856.00 2771.82 53.44
3380 72.4120 2866.00 2772.25 53.53
3381 72.4290 2915.00 2772.77 53.99
3382 72.4460 2823.00 2773.41 53.13
3383 72.4630 2821.00 2774.20 53.11
3384 72.4800 2772.00 2775.16 52.65
3385 72.4970 2790.00 2776.36 52.82
3386 72.5140 2653.00 2777.84 51.51
3387 72.5310 2842.00 2779.69 53.31
3388 72.5480 2905.00 2781.99 53.90
3389 72.5650 2806.00 2784.85 52.97
3390 72.5820 2771.00 2788.35 52.64
3391 72.5990 2802.00 2792.50 52.93
3392 72.6160 2815.00 2797.16 53.06
3393 72.6330 2778.00 2801.96 52.71
3394 72.6500 2792.00 2806.36 52.84
3395 72.6670 2847.00 2809.81 53.36
3396 72.6840 2860.00 2811.97 53.48
3397 72.7010 2815.00 2812.61 53.06
3398 72.7180 2802.00 2811.61 52.93
3399 72.7350 2936.00 2809.18 54.18
3400 72.7520 2804.00 2805.99 52.95
3401 72.7690 2764.00 2802.88 52.57
3402 72.7860 2897.00 2800.41 53.82
3403 72.8030 2814.00 2798.75 53.05
3404 72.8200 2775.00 2797.71 52.68
3405 72.8370 2743.00 2796.93 52.37
3406 72.8540 2848.00 2796.07 53.37
3407 72.8710 2757.00 2794.87 52.51
3408 72.8880 2772.00 2793.13 52.65
3409 72.9050 2849.00 2790.74 53.38
3410 72.9220 2749.00 2787.83 52.43
3411 72.9390 2703.00 2784.68 51.99
3412 72.9560 2793.00 2781.66 52.85
3413 72.9730 2820.00 2778.97 53.10
3414 72.9900 2774.00 2776.68 52.67
3415 73.0070 2692.00 2774.79 51.88
3416 73.0240 2741.00 2773.22 52.35
3417 73.0410 2723.00 2771.94 52.18
3418 73.0580 2826.00 2770.86 53.16
3419 73.0750 2770.00 2769.97 52.63
3420 73.0920 2736.00 2769.21 52.31
3421 73.1090 2757.00 2768.57 52.51
3422 73.1260 2755.00 2768.01 52.49
3423 73.1430 2771.00 2767.53 52.64
3424 73.1600 2769.00 2767.10 52.62
3425 73.1770 2874.00 2766.73 53.61
3426 73.1940 2862.00 2766.39 53.50
3427 73.2110 2827.00 2766.10 53.17
3428 73.2280 2873.00 2765.83 53.60
3429 73.2450 2830.00 2765.59 53.20
3430 73.2620 2866.00 2765.36 53.53
3431 73.2790 2793.00 2765.16 52.85
3432 73.2960 2735.00 2764.98 52.30
3433 73.3130 2782.00 2764.81 52.74
3434 73.3300 2783.00 2764.65 52.75
3435 73.3470 2743.00 2764.50 52.37
3436 73.3640 2718.00 2764.37 52.13
3437 73.3810 2707.00 2764.24 52.03
3438 73.3980 2757.00 2764.12 52.51
3439 73.4150 2756.00 2764.01 52.50
3440 73.4320 2743.00 2763.91 52.37
3441 73.4490 2780.00 2763.81 52.73
3442 73.4660 2750.00 2763.72 52.44
3443 73.4830 2778.00 2763.63 52.71
3444 73.5000 2871.00 2763.55 53.58
3445 73.5170 2881.00 2763.47 53.67
3446 73.5340 2803.00 2763.40 52.94
3447 73.5510 2788.00 2763.33 52.80
3448 73.5680 2880.00 2763.27 53.67
3449 73.5850 2837.00 2763.21 53.26
3450 73.6020 2606.00 2763.15 51.05
3451 73.6190 2727.00 2763.10 52.22
3452 73.6360 2752.00 2763.04 52.46
3453 73.6530 2781.00 2763.00 52.74
3454 73.6700 2720.00 2762.95 52.15
3455 73.6870 2776.00 2762.91 52.69
3456 73.7040 2788.00 2762.87 52.80
3457 73.7210 2786.00 2762.83 52.78
3458 73.7380 2758.00 2762.80 52.52
3459 73.7550 2782.00 2762.76 52.74
3460 73.7720 2771.00 2762.73 52.64
3461 73.7890 2786.00 2762.70 52.78
3462 73.8060 2782.00 2762.68 52.74
3463 73.8230 2662.00 2762.65 51.59
3464 73.8400 2708.00 2762.63 52.04
3465 73.8570 2847.00 2762.61 53.36
3466 73.8740 2717.00 2762.59 52.12
3467 73.8910 2738.00 2762.56 52.33
3468 73.9080 2818.00 2762.54 53.08
3469 73.9250 2728.00 2762.52 52.23
3470 73.9420 2661.00 2762.51 51.58
3471 73.9590 2745.00 2762.51 52.39
3472 73.9760 2707.00 2762.50 52.03
3473 73.9930 2822.00 2762.49 53.12
3474 74.0100 2651.00 2762.49 51.49
3475 74.0270 2789.00 2762.49 52.81
3476 74.0440 2693.00 2762.49 51.89
3477 74.0610 2751.00 2762.48 52.45
3478 74.0780 2740.00 2762.49 52.35
3479 74.0950 2670.00 2762.49 51.67
3480 74.1120 2756.00 2762.50 52.50
3481 74.1290 2795.00 2762.51 52.87
3482 74.1460 2760.00 2762.52 52.54
3483 74.1630 2734.00 2762.53 52.29
3484 74.1800 2778.00 2762.54 52.71
3485 74.1970 2670.00 2762.56 51.67
3486 74.2140 2704.00 2762.58 52.00
3487 74.2310 2773.00 2762.60 52.66
3488 74.2480 2856.00 2762.62 53.44
3489 74.2650 2865.00 2762.64 53.53
3490 74.2820 2769.00 2762.66 52.62
3491 74.2990 2737.00 2762.69 52.32
3492 74.3160 2760.00 2762.72 52.54
3493 74.3330 2833.00 2762.75 53.23
3494 74.3500 2772.00 2762.78 52.65
3495 74.3670 2724.00 2762.81 52.19
3496 74.3840 2806.00 2762.84 52.97
3497 74.4010 2876.00 2762.88 53.63
3498 74.4180 2900.00 2762.94 53.85
3499 74.4350 2853.00 2762.98 53.41
3500 74.4520 2770.00 2763.02 52.63
3501 74.4690 2747.00 2763.06 52.41
3502 74.4860 2675.00 2763.12 51.72
3503 74.5030 2683.00 2763.16 51.80
3504 74.5200 2789.00 2763.21 52.81
3505 74.5370 2759.00 2763.26 52.53
3506 74.5540 2770.00 2763.31 52.63
3507 74.5710 2716.00 2763.36 52.12
3508 74.5880 2799.00 2763.42 52.91
3509 74.6050 2772.00 2763.47 52.65
3510 74.6220 2867.00 2763.53 53.54
3511 74.6390 2816.00 2763.59 53.07
3512 74.6560 2822.00 2763.65 53.12
3513 74.6730 2810.00 2763.71 53.01
3514 74.6900 2744.00 2763.78 52.38
3515 74.7070 2759.00 2763.84 52.53
3516 74.7240 2825.00 2763.91 53.15
3517 74.7410 2803.00 2763.98 52.94
3518 74.7580 2682.00 2764.05 51.79
3519 74.7750 2699.00 2764.13 51.95
3520 74.7920 2764.00 2764.20 52.57
3521 74.8090 2736.00 2764.28 52.31
3522 74.8260 2790.00 2764.36 52.82
3523 74.8430 2723.00 2764.44 52.18
3524 74.8600 2802.00 2764.52 52.93
3525 74.8770 2759.00 2764.61 52.53
3526 74.8940 2751.00 2764.69 52.45
3527 74.9110 2851.00 2764.78 53.39
3528 74.9280 2718.00 2764.87 52.13
3529 74.9450 2716.00 2764.97 52.12
loop_
_refln_index_h
_refln_index_k
_refln_index_l
_refln_F_squared_calc
_refln_F_squared_meas
_refln_F_squared_sigma
_refln_observed_status
_refln_d_spacing
1 1 0 0.47 17.39 13.80 < 5.545411
1 1 1 38.56 15.46 20.60 < 4.529171
0 0 2 65344.27 64033.87 1289.95 o 3.924739
0 2 0 60431.40 59198.68 1192.44 o 3.922738
2 0 0 58370.03 57164.85 1151.36 o 3.919659
0 2 1 279.29 82.08 69.72 < 3.508961
1 1 2 29.46 31.80 23.77 < 3.203572
0 2 2 75350.03 75781.67 1535.07 o 2.774502
2 0 2 75991.41 76405.12 1547.67 o 2.773412
2 2 0 67337.52 67721.39 1371.90 o 2.772706
2 2 1 382.72 205.38 61.71 o 2.614394
1 3 0 574.30 479.25 115.89 o 2.480762
3 1 0 218.30 181.49 43.95 o 2.479205
1 1 3 30.23 22.47 1.56 o 2.366318
1 3 1 531.14 396.43 27.77 o 2.365441
3 1 1 1036.23 775.41 53.89 o 2.364090
2 2 2 3967.90 4149.00 136.55 o 2.264585
0 2 3 154.79 25.02 45.84 < 2.176712
1 3 2 55.77 52.07 10.88 o 2.096980
3 1 2 577.38 541.87 112.73 o 2.096038
0 0 4 143779.09 144473.97 2956.91 o 1.962370
0 4 0 130693.84 131435.22 2688.22 o 1.961369
4 0 0 127790.98 128539.93 2628.55 o 1.959830
2 2 3 232.22 71.92 33.42 < 1.902969
0 4 1 976.42 292.00 141.37 < 1.902865
1 1 4 0.17 0.12 0.21 < 1.849954
3 3 0 324.87 228.84 399.76 < 1.848470
1 3 3 409.55 207.27 48.72 o 1.800236
3 1 3 598.69 307.47 70.57 o 1.799640
3 3 1 14.82 7.71 1.68 o 1.799254
0 2 4 32951.07 34322.59 702.31 o 1.755018
2 0 4 32019.13 33348.87 682.06 o 1.754742
0 4 2 39876.23 41513.81 849.26 o 1.754481
2 4 0 30360.08 31616.50 646.43 o 1.754026
4 0 2 38560.50 40184.50 821.63 o 1.753379
4 2 0 30094.71 31362.16 641.05 o 1.753200
2 4 1 199.38 64.79 68.00 < 1.711809
4 2 1 12.65 2.99 4.44 < 1.711041
3 3 2 33.40 21.21 48.72 < 1.672279
2 2 4 44134.09 43842.04 899.64 o 1.601786
2 4 2 51589.10 51314.99 1052.30 o 1.601377
4 2 2 55337.67 55057.57 1129.07 o 1.600749
0 4 3 669.62 428.87 119.97 o 1.569383
1 3 4 233.67 142.80 187.55 < 1.539061
3 1 4 86.90 53.52 70.43 < 1.538689
1 5 0 95.14 58.59 76.91 < 1.538578
5 1 0 103.19 63.39 83.68 < 1.537463
1 1 5 1.37 1.14 0.73 < 1.510532
1 5 1 254.27 204.26 136.23 < 1.509847
3 3 3 2.62 2.10 1.31 < 1.509724
5 1 1 375.27 304.02 197.53 < 1.508794
