#------------------------------------------------------------------------------
#$Date: 2016-03-21 01:21:50 +0200 (Mon, 21 Mar 2016) $
#$Revision: 178377 $
#$URL: svn://www.crystallography.net/cod/cif/4/00/20/4002093.cif $
#------------------------------------------------------------------------------
#
# This file is available in the Crystallography Open Database (COD),
# http://www.crystallography.net/
#
# All data on this site have been placed in the public domain by the
# contributors.
#
data_4002093
loop_
_publ_author_name
'Nanthamathee, Chompoonoot'
'Ling, Sanliang'
'Slater, Ben'
'Attfield, Martin P.'
_publ_section_title
;
 Contradistinct Thermoresponsive Behavior of Isostructural MIL-53 Type
 Metal--Organic Frameworks by Modifying the Framework Inorganic Anion
;
_journal_name_full               'Chemistry of Materials'
_journal_page_first              141223143002002
_journal_paper_doi               10.1021/cm503311x
_journal_year                    2014
_chemical_formula_sum            'C8 Al F O4'
_chemical_formula_weight         206.06
_chemical_name_systematic        ' ?'
_space_group_IT_number           74
_symmetry_cell_setting           orthorhombic
_symmetry_space_group_name_Hall  '-I 2b 2'
_symmetry_space_group_name_H-M   'I m m a'
_audit_creation_date             2014-08-28T13:17
_audit_creation_method           'from EXP file using GSAS2CIF'
_audit_update_record
' 2014-08-28T13:17  Initial CIF as created by GSAS2CIF'
_cell_angle_alpha                90.0
_cell_angle_beta                 90.0
_cell_angle_gamma                90.0
_cell_formula_units_Z            4
_cell_length_a                   6.56802(17)
_cell_length_b                   16.3948(5)
_cell_length_c                   13.1677(7)
_cell_volume                     1417.92(9)
_computing_structure_refinement  GSAS
_diffrn_radiation_polarisn_ratio 0.95
_diffrn_radiation_probe          x-ray
_diffrn_radiation_wavelength     0.825993
_exptl_absorpt_correction_T_max  1.00000
_exptl_absorpt_correction_T_min  1.00000
_exptl_absorpt_process_details
;   GSAS Absorption/surface roughness correction: function number 0
 No correction is applied.
;
_pd_block_id                     2014-08-28T13:17|425K|425K|
_pd_calc_method                  'Rietveld Refinement'
_pd_instr_location               ' ?'
_pd_meas_2theta_range_inc        0.003
_pd_meas_2theta_range_max        149.9955
_pd_meas_2theta_range_min        0.0015
_pd_meas_number_of_points        49999
_pd_phase_name                   300K
_pd_proc_2theta_range_inc        0.003
_pd_proc_2theta_range_max        150.00435
_pd_proc_2theta_range_min        0.010351
_pd_proc_info_datetime           2014-08-28T13:17:52
_pd_proc_info_excluded_regions   ' ?'
_pd_proc_ls_background_function
;   GSAS Background function number 1 with  2 terms.
 Shifted Chebyshev function of 1st kind
      1:    0.00000     2:    0.00000    
;
_pd_proc_ls_peak_cutoff          0.00010
_pd_proc_ls_profile_function
;
 CW Profile function number 4 with  18 terms
 Pseudovoigt profile coefficients as parameterized in
 P. Thompson, D.E. Cox & J.B. Hastings (1987). J. Appl. Cryst.,20,79-83.
 Asymmetry correction of L.W. Finger, D.E. Cox & A. P. Jephcoat (1994).
 J. Appl. Cryst.,27,892-900.
 Microstrain broadening by P.W. Stephens,  (1999). J. Appl. Cryst.,32,281-289.
 Peak tails are ignored  where the intensity is below 0.0001 times the peak
   Aniso. broadening axis   1.0   0.0   1.0
;
_pd_proc_ls_prof_R_factor        0.0333
_pd_proc_ls_prof_wR_expected     0.0257
_pd_proc_ls_prof_wR_factor       0.0426
_pd_proc_number_of_points        49999
_pd_spec_mounting                ' ?'
_refine_ls_goodness_of_fit_all   1.66
_refine_ls_matrix_type           full
_refine_ls_number_parameters     30
_refine_ls_number_restraints     0
_refine_ls_R_Fsqd_factor         0.23045
_refine_ls_shift/su_max          0.03
_refine_ls_shift/su_mean         0.01
_reflns_d_resolution_high        1.209
_reflns_d_resolution_low         8.197
_reflns_limit_h_max              5
_reflns_limit_h_min              0
_reflns_limit_k_max              13
_reflns_limit_k_min              0
_reflns_limit_l_max              11
_reflns_limit_l_min              0
_reflns_number_total             252
_cod_data_source_file            alf425K.cif
_cod_data_source_block           425K_publ
_cod_depositor_comments
;
The following automatic conversions were performed:

'_geom_bond_publ_flag' value 'N' changed to 'n' according to
/home/saulius/struct/COD-crude-data--automatic-downloads/rss-feeds/ACS/lib/dictionaries/cif_core.dic
dictionary named 'cif_core.dic' version 2.4.2 from 2011-04-26 (18
times).

'_geom_angle_publ_flag' value 'N' changed to 'n' according
to
/home/saulius/struct/COD-crude-data--automatic-downloads/rss-feeds/ACS/lib/dictionaries/cif_core.dic
dictionary named 'cif_core.dic' version 2.4.2 from 2011-04-26 (24
times).

Automatic conversion script
Id: cif_fix_values 2935 2014-11-11 08:27:57Z andrius 
;
_cod_original_cell_volume        1417.91(9)
_cod_database_code               4002093
#BEGIN Tags that were not found in dictionaries:
_gsas_exptl_extinct_corr_t_min   1.00000
_gsas_exptl_extinct_corr_t_max   1.00000
#END Tags that were not found in dictionaries
loop_
_symmetry_equiv_pos_site_id
_symmetry_equiv_pos_as_xyz
1 +x,+y,+z
2 -x,+y,+z
3 +x,-y+1/2,+z
4 -x,-y+1/2,+z
-1 -x,-y,-z
-2 +x,-y,-z
-3 -x,+y+1/2,-z
-4 +x,+y+1/2,-z
101 +x+1/2,+y+1/2,+z+1/2
102 -x+1/2,+y+1/2,+z+1/2
103 +x+1/2,-y,+z+1/2
104 -x+1/2,-y,+z+1/2
-101 -x+1/2,-y+1/2,-z+1/2
-102 +x+1/2,-y+1/2,-z+1/2
-103 -x+1/2,+y,-z+1/2
-104 +x+1/2,+y,-z+1/2
loop_
_atom_site_type_symbol
_atom_site_label
_atom_site_fract_x
_atom_site_fract_y
_atom_site_fract_z
_atom_site_occupancy
_atom_site_thermal_displace_type
_atom_site_U_iso_or_equiv
_atom_site_symmetry_multiplicity
Al Al1 0.25 0.25 0.75 1.0 Uiso 0.0266(19) 4
F F1 0.0 0.25 0.6937(6) 1.0 Uiso 0.0187(14) 4
O O1 0.1700(6) 0.16802(26) 0.8401(4) 1.0 Uiso 0.0187(14) 16
C C1 -0.1935(7) 0.0271(6) 0.9553(7) 1.0 Uiso 0.0365(26) 16
C C2 0.0 0.0652(6) 0.9491(10) 1.0 Uiso 0.0365(26) 8
C C3 0.0 0.1376(7) 0.8669(10) 1.0 Uiso 0.0365(26) 8
loop_
_atom_type_symbol
_atom_type_number_in_cell
_atom_type_scat_dispersion_real
_atom_type_scat_dispersion_imag
_atom_type_scat_Cromer_Mann_a1
_atom_type_scat_Cromer_Mann_a2
_atom_type_scat_Cromer_Mann_a3
_atom_type_scat_Cromer_Mann_a4
_atom_type_scat_Cromer_Mann_b1
_atom_type_scat_Cromer_Mann_b2
_atom_type_scat_Cromer_Mann_b3
_atom_type_scat_Cromer_Mann_b4
_atom_type_scat_Cromer_Mann_c
_atom_type_scat_source
Al 4.0 0.000 0.000 6.42020 3.03870 1.90020 0.74260 1.59360 31.5472 1.96460
85.0886 1.11510 International_Tables_Vol_C
F 4.0 0.000 0.000 3.53920 10.2825 2.64120 4.29440 1.51700 0.26150 1.02430
26.1476 0.27760 International_Tables_Vol_C
O 16.0 0.000 0.000 3.04850 13.2771 2.28680 5.70110 1.54630 0.32390 0.86700
32.9089 0.25080 International_Tables_Vol_C
C 32.0 0.000 0.000 2.31000 20.8439 1.02000 10.2075 1.58860 0.56870 0.86500
51.6512 0.21560 International_Tables_Vol_C
loop_
_geom_angle_atom_site_label_1
_geom_angle_atom_site_label_2
_geom_angle_atom_site_label_3
_geom_angle
_geom_angle_site_symmetry_1
_geom_angle_site_symmetry_3
_geom_angle_publ_flag
F1 Al1 F1 180.0 1_555 -101_546 n
F1 Al1 O1 90.29(19) 1_555 1_555 n
F1 Al1 O1 90.29(19) 1_555 3_555 n
F1 Al1 O1 89.71(19) 1_555 -101_566 n
F1 Al1 O1 89.71(19) 1_555 -103_566 n
F1 Al1 O1 89.71(19) -101_566 1_555 n
F1 Al1 O1 89.71(19) -101_566 3_555 n
F1 Al1 O1 90.29(19) -101_566 -101_566 n
F1 Al1 O1 90.29(19) -101_566 -103_566 n
O1 Al1 O1 92.04(32) 1_555 3_555 n
O1 Al1 O1 180.0 1_555 -101_566 n
O1 Al1 O1 87.96(32) 1_555 -103_566 n
O1 Al1 O1 87.96(32) 3_555 -101_566 n
O1 Al1 O1 180.0 3_555 -103_566 n
O1 Al1 O1 92.04(32) -101_566 -103_566 n
Al1 F1 Al1 131.4(5) 1_555 2_555 n
Al1 O1 C3 134.8(6) 1_555 1_555 n
C1 C1 C2 108.1(7) -2_557 1_555 n
C1 C2 C1 127.3(12) 1_555 2_555 n
C1 C2 C3 111.3(7) 1_555 1_555 n
C1 C2 C3 111.3(7) 2_555 1_555 n
O1 C3 O1 122.6(10) 1_555 2_555 n
O1 C3 C2 118.5(5) 1_555 1_555 n
O1 C3 C2 118.5(5) 2_555 1_555 n
loop_
_geom_bond_atom_site_label_1
_geom_bond_atom_site_label_2
_geom_bond_distance
_geom_bond_site_symmetry_2
_geom_bond_publ_flag
Al1 F1 1.8018(33) 1_555 n
Al1 F1 1.8018(33) -101_445 n
Al1 O1 1.8678(35) 1_555 n
Al1 O1 1.8678(35) 3_555 n
Al1 O1 1.8678(35) -101_445 n
Al1 O1 1.8678(35) -103_445 n
F1 Al1 1.8018(33) 1_555 n
F1 Al1 1.8018(33) 2_555 n
O1 Al1 1.8678(35) 1_555 n
O1 C3 1.273(5) 1_555 n
C1 C1 1.475(13) -2_557 n
C1 C2 1.418(7) 1_555 n
C2 C1 1.418(7) 1_555 n
C2 C1 1.418(7) 2_555 n
C2 C3 1.606(10) 1_555 n
C3 O1 1.273(5) 1_555 n
C3 O1 1.273(5) 2_555 n
C3 C2 1.606(10) 1_555 n
loop_
_pd_meas_intensity_total
_pd_proc_ls_weight
_pd_proc_intensity_bkg_calc
_pd_calc_intensity_total
15.6(22) 0.0 0.00 .
17.2(22) 0.0 0.00 .
22.9(28) 0.0 0.00 .
29.8(31) 0.0 0.00 .
52(4) 0.0 0.0 .
269(9) 0.0 0.0 .
208(8) 0.0 0.0 .
1105(19) 0.0 0.0 .
2021(24) 0.0 0.0 .
3925(33) 0.0 0.0 .
4712(36) 0.0 0. .
4492(36) 0.0 0. .
4321(37) 0.0 0. .
1716(22) 0.0 0.0 .
137(6) 0.0 0.0 .
70(4) 0.0 0.0 .
46(4) 0.0 0.0 .
46(4) 0.0 0.0 .
41.3(34) 0.0 0.00 .
81(5) 0.0 0.0 .
271(9) 0.0 0.0 .
413(11) 0.0 0.0 .
855(16) 0.0 0.0 .
1096(18) 0.0 0.0 .
1174(18) 0.0 0.0 .
1346(19) 0.0 0.0 .
1454(20) 0.0 0.0 .
1589(22) 0.0 0.0 .
1880(24) 0.0 0.0 .
1911(23) 0.0 0.0 .
2155(24) 0.0 0.0 .
2163(25) 0.0 0.0 .
1949(24) 0.0 0.0 .
1687(22) 0.0 0.0 .
1249(18) 0.0 0.0 .
757(15) 0.0 0.0 .
397(11) 0.0 0.0 .
245(8) 0.0 0.0 .
167(7) 0.0 0.0 .
78(5) 0.0 0.0 .
48(4) 0.0 0.0 .
32.4(31) 0.0 0.00 .
37.7(34) 0.0 0.00 .
29.6(28) 0.0 0.00 .
28.7(28) 0.0 0.00 .
33.8(30) 0.0 0.00 .
35.5(32) 0.0 0.00 .
23.8(27) 0.0 0.00 .
24.3(28) 0.0 0.00 .
26.1(27) 0.0 0.00 .
24.2(26) 0.0 0.00 .
22.5(26) 0.0 0.00 .
31.0(31) 0.0 0.00 .
31.2(31) 0.0 0.00 .
29.2(28) 0.0 0.00 .
33.6(31) 0.0 0.00 .
30.9(32) 0.0 0.00 .
28.7(29) 0.0 0.00 .
22.8(24) 0.0 0.00 .
28.0(28) 0.0 0.00 .
29.8(30) 0.0 0.00 .
31.0(29) 0.0 0.00 .
34.1(31) 0.0 0.00 .
31.9(30) 0.0 0.00 .
22.4(27) 0.0 0.00 .
28.8(29) 0.0 0.00 .
25.9(28) 0.0 0.00 .
27.0(28) 0.0 0.00 .
33.7(30) 0.0 0.00 .
37.1(32) 0.0 0.00 .
32.4(30) 0.0 0.00 .
32.2(30) 0.0 0.00 .
36.9(33) 0.0 0.00 .
44.0(35) 0.0 0.00 .
28.7(28) 0.0 0.00 .
31.1(30) 0.0 0.00 .
37.5(33) 0.0 0.00 .
36.2(33) 0.0 0.00 .
28.1(28) 0.0 0.00 .
31.9(30) 0.0 0.00 .
40(4) 0.0 0.0 .
31.5(31) 0.0 0.00 .
33.3(30) 0.0 0.00 .
33.3(30) 0.0 0.00 .
45(4) 0.0 0.0 .
37.4(32) 0.0 0.00 .
47(4) 0.0 0.0 .
40.0(35) 0.0 0.00 .
29.8(28) 0.0 0.00 .
30.5(30) 0.0 0.00 .
39.8(35) 0.0 0.00 .
44(4) 0.0 0.0 .
39.6(33) 0.0 0.00 .
48(4) 0.0 0.0 .
66(4) 0.0 0.0 .
74(5) 0.0 0.0 .
75(5) 0.0 0.0 .
70(4) 0.0 0.0 .
82(5) 0.0 0.0 .
88(5) 0.0 0.0 .
101(6) 0.0 0.0 .
112(6) 0.0 0.0 .
124(6) 0.0 0.0 .
124(6) 0.0 0.0 .
149(7) 0.0 0.0 .
146(7) 0.0 0.0 .
159(7) 0.0 0.0 .
160(7) 0.0 0.0 .
167(7) 0.0 0.0 .
167(7) 0.0 0.0 .
211(8) 0.0 0.0 .
189(7) 0.0 0.0 .
223(8) 0.0 0.0 .
204(7) 0.0 0.0 .
239(8) 0.0 0.0 .
227(8) 0.0 0.0 .
214(8) 0.0 0.0 .
254(8) 0.0 0.0 .
257(8) 0.0 0.0 .
254(8) 0.0 0.0 .
291(10) 0.0 0.0 .
272(9) 0.0 0.0 .
282(9) 0.0 0.0 .
304(9) 0.0 0.0 .
322(10) 0.0 0.0 .
328(10) 0.0 0.0 .
349(10) 0.0 0.0 .
327(9) 0.0 0.0 .
354(10) 0.0 0.0 .
363(10) 0.0 0.0 .
348(10) 0.0 0.0 .
336(10) 0.0 0.0 .
405(10) 0.0 0.0 .
392(10) 0.0 0.0 .
419(11) 0.0 0.0 .
397(11) 0.0 0.0 .
426(11) 0.0 0.0 .
403(10) 0.0 0.0 .
444(11) 0.0 0.0 .
423(11) 0.0 0.0 .
446(12) 0.0 0.0 .
454(11) 0.0 0.0 .
489(11) 0.0 0.0 .
436(11) 0.0 0.0 .
444(11) 0.0 0.0 .
508(12) 0.0 0.0 .
485(12) 0.0 0.0 .
503(12) 0.0 0.0 .
510(12) 0.0 0.0 .
475(12) 0.0 0.0 .
498(12) 0.0 0.0 .
526(12) 0.0 0.0 .
502(12) 0.0 0.0 .
543(13) 0.0 0.0 .
526(13) 0.0 0.0 .
524(12) 0.0 0.0 .
548(12) 0.0 0.0 .
529(12) 0.0 0.0 .
559(13) 0.0 0.0 .
587(13) 0.0 0.0 .
540(12) 0.0 0.0 .
541(12) 0.0 0.0 .
526(12) 0.0 0.0 .
571(13) 0.0 0.0 .
557(13) 0.0 0.0 .
527(12) 0.0 0.0 .
561(12) 0.0 0.0 .
612(13) 0.0 0.0 .
576(13) 0.0 0.0 .
565(13) 0.0 0.0 .
570(13) 0.0 0.0 .
581(12) 0.0 0.0 .
589(13) 0.0 0.0 .
587(13) 0.0 0.0 .
588(13) 0.0 0.0 .
607(13) 0.0 0.0 .
605(13) 0.0 0.0 .
594(13) 0.0 0.0 .
634(14) 0.0 0.0 .
602(14) 0.0 0.0 .
642(14) 0.0 0.0 .
635(13) 0.0 0.0 .
590(13) 0.0 0.0 .
599(13) 0.0 0.0 .
604(13) 0.0 0.0 .
646(14) 0.0 0.0 .
670(13) 0.0 0.0 .
651(14) 0.0 0.0 .
630(14) 0.0 0.0 .
631(14) 0.0 0.0 .
670(14) 0.0 0.0 .
651(13) 0.0 0.0 .
658(14) 0.0 0.0 .
641(14) 0.0 0.0 .
649(14) 0.0 0.0 .
648(14) 0.0 0.0 .
654(13) 0.0 0.0 .
671(14) 0.0 0.0 .
681(14) 0.0 0.0 .
694(14) 0.0 0.0 .
703(14) 0.0 0.0 .
690(14) 0.0 0.0 .
693(14) 0.0 0.0 .
701(15) 0.0 0.0 .
697(14) 0.0 0.0 .
696(14) 0.0 0.0 .
731(14) 0.0 0.0 .
708(14) 0.0 0.0 .
700(15) 0.0 0.0 .
697(14) 0.0 0.0 .
716(14) 0.0 0.0 .
714(14) 0.0 0.0 .
728(14) 0.0 0.0 .
742(15) 0.0 0.0 .
731(15) 0.0 0.0 .
714(14) 0.0 0.0 .
725(14) 0.0 0.0 .
717(14) 0.0 0.0 .
730(15) 0.0 0.0 .
743(15) 0.0 0.0 .
726(14) 0.0 0.0 .
788(15) 0.0 0.0 .
764(15) 0.0 0.0 .
759(15) 0.0 0.0 .
748(15) 0.0 0.0 .
756(14) 0.0 0.0 .
743(14) 0.0 0.0 .
797(15) 0.0 0.0 .
792(16) 0.0 0.0 .
767(15) 0.0 0.0 .
794(15) 0.0 0.0 .
805(15) 0.0 0.0 .
772(15) 0.0 0.0 .
806(16) 0.0 0.0 .
779(15) 0.0 0.0 .
829(15) 0.0 0.0 .
793(15) 0.0 0.0 .
792(15) 0.0 0.0 .
824(16) 0.0 0.0 .
823(15) 0.0 0.0 .
806(15) 0.0 0.0 .
774(15) 0.0 0.0 .
797(15) 0.0 0.0 .
825(16) 0.0 0.0 .
823(15) 0.0 0.0 .
810(15) 0.0 0.0 .
835(16) 0.0 0.0 .
812(15) 0.0 0.0 .
838(16) 0.0 0.0 .
837(15) 0.0 0.0 .
799(15) 0.0 0.0 .
843(16) 0.0 0.0 .
833(16) 0.0 0.0 .
825(15) 0.0 0.0 .
811(15) 0.0 0.0 .
857(15) 0.0 0.0 .
862(16) 0.0 0.0 .
835(16) 0.0 0.0 .
837(16) 0.0 0.0 .
848(15) 0.0 0.0 .
840(15) 0.0 0.0 .
849(16) 0.0 0.0 .
849(16) 0.0 0.0 .
883(16) 0.0 0.0 .
868(15) 0.0 0.0 .
825(15) 0.0 0.0 .
840(16) 0.0 0.0 .
857(16) 0.0 0.0 .
860(16) 0.0 0.0 .
873(15) 0.0 0.0 .
850(15) 0.0 0.0 .
824(15) 0.0 0.0 .
880(16) 0.0 0.0 .
867(16) 0.0 0.0 .
884(15) 0.0 0.0 .
873(15) 0.0 0.0 .
858(16) 0.0 0.0 .
877(16) 0.0 0.0 .
916(16) 0.0 0.0 .
901(16) 0.0 0.0 .
918(16) 0.0 0.0 .
919(16) 0.0 0.0 .
855(16) 0.0 0.0 .
879(16) 0.0 0.0 .
924(16) 0.0 0.0 .
901(16) 0.0 0.0 .
925(16) 0.0 0.0 .
872(16) 0.0 0.0 .
930(16) 0.0 0.0 .
896(15) 0.0 0.0 .
889(16) 0.0 0.0 .
912(16) 0.0 0.0 .
909(16) 0.0 0.0 .
943(16) 0.0 0.0 .
899(16) 0.0 0.0 .
906(16) 0.0 0.0 .
896(16) 0.0 0.0 .
921(16) 0.0 0.0 .
913(16) 0.0 0.0 .
915(16) 0.0 0.0 .
903(16) 0.0 0.0 .
926(17) 0.0 0.0 .
896(16) 0.0 0.0 .
924(16) 0.0 0.0 .
903(16) 0.0 0.0 .
970(17) 0.0 0.0 .
968(17) 0.0 0.0 .
946(17) 0.0 0.0 .
912(16) 0.0 0.0 .
905(16) 0.0 0.0 .
938(16) 0.0 0.0 .
940(17) 0.0 0.0 .
991(17) 0.0 0.0 .
970(16) 0.0 0.0 .
971(16) 0.0 0.0 .
944(16) 0.0 0.0 .
931(17) 0.0 0.0 .
978(17) 0.0 0.0 .
944(16) 0.0 0.0 .
956(16) 0.0 0.0 .
921(16) 0.0 0.0 .
979(17) 0.0 0.0 .
936(16) 0.0 0.0 .
971(16) 0.0 0.0 .
968(16) 0.0 0.0 .
988(17) 0.0 0.0 .
978(17) 0.0 0.0 .
996(17) 0.0 0.0 .
983(16) 0.0 0.0 .
981(16) 0.0 0.0 .
982(17) 0.0 0.0 .
965(17) 0.0 0.0 .
986(17) 0.0 0.0 .
992(16) 0.0 0.0 .
985(16) 0.0 0.0 .
1039(17) 0.0 0.0 .
979(17) 0.0 0.0 .
1030(17) 0.0 0.0 .
1002(16) 0.0 0.0 .
1008(17) 0.0 0.0 .
1029(17) 0.0 0.0 .
1025(17) 0.0 0.0 .
996(17) 0.0 0.0 .
1012(17) 0.0 0.0 .
1038(17) 0.0 0.0 .
1009(17) 0.0 0.0 .
1018(17) 0.0 0.0 .
1069(17) 0.0 0.0 .
1039(17) 0.0 0.0 .
1036(17) 0.0 0.0 .
1045(18) 0.0 0.0 .
1085(18) 0.0 0.0 .
1055(17) 0.0 0.0 .
1068(17) 0.0 0.0 .
1114(18) 0.0 0.0 .
1039(18) 0.0 0.0 .
1088(18) 0.0 0.0 .
1061(17) 0.0 0.0 .
1080(17) 0.0 0.0 .
1086(18) 0.0 0.0 .
1081(18) 0.0 0.0 .
1098(18) 0.0 0.0 .
1137(18) 0.0 0.0 .
1074(17) 0.0 0.0 .
1092(18) 0.0 0.0 .
1068(18) 0.0 0.0 .
1076(18) 0.0 0.0 .
1075(17) 0.0 0.0 .
1157(18) 0.0 0.0 .
1123(18) 0.0 0.0 .
1078(18) 0.0 0.0 .
1052(17) 0.0 0.0 .
1155(18) 0.0 0.0 .
1130(18) 0.0 0.0 .
1163(18) 0.0 0.0 .
1138(19) 0.0 0.0 .
1155(18) 0.0 0.0 .
1112(17) 0.0 0.0 .
1136(18) 0.0 0.0 .
1153(18) 0.0 0.0 .
1136(19) 0.0 0.0 .
1133(18) 0.0 0.0 .
1144(18) 0.0 0.0 .
1183(18) 0.0 0.0 .
1208(19) 0.0 0.0 .
1157(19) 0.0 0.0 .
1150(18) 0.0 0.0 .
1176(18) 0.0 0.0 .
1163(18) 0.0 0.0 .
1146(18) 0.0 0.0 .
1165(19) 0.0 0.0 .
1127(18) 0.0 0.0 .
1170(18) 0.0 0.0 .
1234(19) 0.0 0.0 .
1186(19) 0.0 0.0 .
1205(19) 0.0 0.0 .
1182(18) 0.0 0.0 .
1128(17) 0.0 0.0 .
1188(19) 0.0 0.0 .
1176(19) 0.0 0.0 .
1210(19) 0.0 0.0 .
1230(18) 0.0 0.0 .
1233(18) 0.0 0.0 .
1189(19) 0.0 0.0 .
1196(19) 0.0 0.0 .
1160(18) 0.0 0.0 .
1186(18) 0.0 0.0 .
1169(18) 0.0 0.0 .
1189(19) 0.0 0.0 .
1163(19) 0.0 0.0 .
1224(19) 0.0 0.0 .
1163(18) 0.0 0.0 .
1225(18) 0.0 0.0 .
1189(18) 0.0 0.0 .
1188(19) 0.0 0.0 .
1208(19) 0.0 0.0 .
1254(18) 0.0 0.0 .
1241(18) 0.0 0.0 .
1234(19) 0.0 0.0 .
1193(19) 0.0 0.0 .
1211(19) 0.0 0.0 .
1219(18) 0.0 0.0 .
1235(18) 0.0 0.0 .
1201(19) 0.0 0.0 .
1226(19) 0.0 0.0 .
1260(19) 0.0 0.0 .
1210(18) 0.0 0.0 .
1205(18) 0.0 0.0 .
1225(19) 0.0 0.0 .
1247(19) 0.0 0.0 .
1257(19) 0.0 0.0 .
1267(19) 0.0 0.0 .
1257(19) 0.0 0.0 .
1245(19) 0.0 0.0 .
1216(19) 0.0 0.0 .
1273(19) 0.0 0.0 .
1262(18) 0.0 0.0 .
1206(18) 0.0 0.0 .
1256(19) 0.0 0.0 .
1243(19) 0.0 0.0 .
1215(19) 0.0 0.0 .
1247(18) 0.0 0.0 .
1238(19) 0.0 0.0 .
1285(19) 0.0 0.0 .
1275(20) 0.0 0.0 .
1282(19) 0.0 0.0 .
1271(18) 0.0 0.0 .
1266(19) 0.0 0.0 .
1210(19) 0.0 0.0 .
1238(19) 0.0 0.0 .
1228(18) 0.0 0.0 .
1268(18) 0.0 0.0 .
1303(19) 0.0 0.0 .
1253(19) 0.0 0.0 .
1185(18) 0.0 0.0 .
1226(18) 0.0 0.0 .
1206(18) 0.0 0.0 .
1236(19) 0.0 0.0 .
1210(19) 0.0 0.0 .
1188(18) 0.0 0.0 .
1270(19) 0.0 0.0 .
1268(19) 0.0 0.0 .
1231(19) 0.0 0.0 .
1218(19) 0.0 0.0 .
1204(19) 0.0 0.0 .
1253(18) 0.0 0.0 .
1268(19) 0.0 0.0 .
1266(19) 0.0 0.0 .
1263(20) 0.0 0.0 .
1281(19) 0.0 0.0 .
1284(19) 0.0 0.0 .
1220(18) 0.0 0.0 .
1242(19) 0.0 0.0 .
1278(20) 0.0 0.0 .
1221(19) 0.0 0.0 .
1219(18) 0.0 0.0 .
1197(18) 0.0 0.0 .
1254(19) 0.0 0.0 .
1294(20) 0.0 0.0 .
1232(19) 0.0 0.0 .
1231(18) 0.0 0.0 .
1252(19) 0.0 0.0 .
1273(19) 0.0 0.0 .
1227(19) 0.0 0.0 .
1220(19) 0.0 0.0 .
1276(19) 0.0 0.0 .
1250(19) 0.0 0.0 .
1236(19) 0.0 0.0 .
1224(19) 0.0 0.0 .
1198(19) 0.0 0.0 .
1213(18) 0.0 0.0 .
1214(19) 0.0 0.0 .
1253(19) 0.0 0.0 .
1205(19) 0.0 0.0 .
1240(19) 0.0 0.0 .
1315(19) 0.0 0.0 .
1247(19) 0.0 0.0 .
1234(19) 0.0 0.0 .
1251(19) 0.0 0.0 .
1233(19) 0.0 0.0 .
1194(18) 0.0 0.0 .
1245(19) 0.0 0.0 .
1309(20) 0.0 0.0 .
1277(19) 0.0 0.0 .
1232(18) 0.0 0.0 .
1265(19) 0.0 0.0 .
1293(19) 0.0 0.0 .
1220(19) 0.0 0.0 .
1185(19) 0.0 0.0 .
1209(18) 0.0 0.0 .
1243(18) 0.0 0.0 .
1228(19) 0.0 0.0 .
1235(20) 0.0 0.0 .
1263(19) 0.0 0.0 .
1302(19) 0.0 0.0 .
1268(19) 0.0 0.0 .
1266(19) 0.0 0.0 .
1235(19) 0.0 0.0 .
1262(19) 0.0 0.0 .
1279(19) 0.0 0.0 .
1232(18) 0.0 0.0 .
1277(19) 0.0 0.0 .
1246(20) 0.0 0.0 .
1212(19) 0.0 0.0 .
1221(18) 0.0 0.0 .
1230(18) 0.0 0.0 .
1203(18) 0.0 0.0 .
1239(19) 0.0 0.0 .
1222(19) 0.0 0.0 .
1211(18) 0.0 0.0 .
1240(19) 0.0 0.0 .
1229(19) 0.0 0.0 .
1227(19) 0.0 0.0 .
1216(19) 0.0 0.0 .
1217(18) 0.0 0.0 .
1285(19) 0.0 0.0 .
1245(19) 0.0 0.0 .
1233(19) 0.0 0.0 .
1207(19) 0.0 0.0 .
1285(19) 0.0 0.0 .
1250(19) 0.0 0.0 .
1219(19) 0.0 0.0 .
1201(19) 0.0 0.0 .
1238(19) 0.0 0.0 .
1237(18) 0.0 0.0 .
1182(18) 0.0 0.0 .
1183(19) 0.0 0.0 .
1222(19) 0.0 0.0 .
1179(18) 0.0 0.0 .
1176(18) 0.0 0.0 .
1206(19) 0.0 0.0 .
1226(19) 0.0 0.0 .
1203(19) 0.0 0.0 .
1206(18) 0.0 0.0 .
1229(18) 0.0 0.0 .
1207(19) 0.0 0.0 .
1189(19) 0.0 0.0 .
1194(19) 0.0 0.0 .
1200(18) 0.0 0.0 .
1172(18) 0.0 0.0 .
1215(19) 0.0 0.0 .
1226(19) 0.0 0.0 .
1222(18) 0.0 0.0 .
1188(18) 0.0 0.0 .
1220(18) 0.0 0.0 .
1244(19) 0.0 0.0 .
1156(19) 0.0 0.0 .
1224(19) 0.0 0.0 .
1231(18) 0.0 0.0 .
1247(18) 0.0 0.0 .
1237(19) 0.0 0.0 .
1183(19) 0.0 0.0 .
1169(18) 0.0 0.0 .
1147(18) 0.0 0.0 .
1205(18) 0.0 0.0 .
1196(19) 0.0 0.0 .
1165(19) 0.0 0.0 .
1158(18) 0.0 0.0 .
1226(18) 0.0 0.0 .
1240(18) 0.0 0.0 .
1231(19) 0.0 0.0 .
1213(19) 0.0 0.0 .
1261(19) 0.0 0.0 .
1222(18) 0.0 0.0 .
1211(18) 0.0 0.0 .
1203(19) 0.0 0.0 .
1202(19) 0.0 0.0 .
1202(19) 0.0 0.0 .
1160(18) 0.0 0.0 .
1165(18) 0.0 0.0 .
1182(18) 0.0 0.0 .
1163(18) 0.0 0.0 .
1154(18) 0.0 0.0 .
1217(18) 0.0 0.0 .
1179(18) 0.0 0.0 .
1193(19) 0.0 0.0 .
1191(19) 0.0 0.0 .
1236(19) 0.0 0.0 .
1237(18) 0.0 0.0 .
1218(19) 0.0 0.0 .
1182(19) 0.0 0.0 .
1224(19) 0.0 0.0 .
1184(18) 0.0 0.0 .
1139(17) 0.0 0.0 .
1120(18) 0.0 0.0 .
1187(19) 0.0 0.0 .
1155(18) 0.0 0.0 .
1174(18) 0.0 0.0 .
1213(18) 0.0 0.0 .
1236(19) 0.0 0.0 .
1207(19) 0.0 0.0 .
1151(18) 0.0 0.0 .
1189(18) 0.0 0.0 .
1178(18) 0.0 0.0 .
1110(18) 0.0 0.0 .
1158(19) 0.0 0.0 .
1101(18) 0.0 0.0 .
1154(18) 0.0 0.0 .
1163(18) 0.0 0.0 .
1152(18) 0.0 0.0 .
1147(19) 0.0 0.0 .
1186(19) 0.0 0.0 .
1148(18) 0.0 0.0 .
1153(18) 0.0 0.0 .
1176(18) 0.0 0.0 .
1168(19) 0.0 0.0 .
1153(18) 0.0 0.0 .
1128(17) 0.0 0.0 .
1158(18) 0.0 0.0 .
1185(18) 0.0 0.0 .
1152(19) 0.0 0.0 .
1107(18) 0.0 0.0 .
1132(17) 0.0 0.0 .
1115(18) 0.0 0.0 .
1134(18) 0.0 0.0 .
1168(19) 0.0 0.0 .
1070(18) 0.0 0.0 .
1101(17) 0.0 0.0 .
1099(18) 0.0 0.0 .
1191(19) 0.0 0.0 .
1208(19) 0.0 0.0 .
1116(18) 0.0 0.0 .
1175(18) 0.0 0.0 .
1141(18) 0.0 0.0 .
1118(18) 0.0 0.0 .
1156(19) 0.0 0.0 .
1146(18) 0.0 0.0 .
1117(17) 0.0 0.0 .
1142(18) 0.0 0.0 .
1146(19) 0.0 0.0 .
1106(18) 0.0 0.0 .
1170(18) 0.0 0.0 .
1050(17) 0.0 0.0 .
1082(18) 0.0 0.0 .
1111(18) 0.0 0.0 .
1111(18) 0.0 0.0 .
1170(18) 0.0 0.0 .
1137(17) 0.0 0.0 .
1107(18) 0.0 0.0 .
1077(18) 0.0 0.0 .
1094(18) 0.0 0.0 .
1140(18) 0.0 0.0 .
1129(17) 0.0 0.0 .
1065(17) 0.0 0.0 .
1103(18) 0.0 0.0 .
1141(18) 0.0 0.0 .
1145(18) 0.0 0.0 .
1105(17) 0.0 0.0 .
1095(18) 0.0 0.0 .
1092(18) 0.0 0.0 .
1114(18) 0.0 0.0 .
1113(17) 0.0 0.0 .
1167(18) 0.0 0.0 .
1113(18) 0.0 0.0 .
1122(19) 0.0 0.0 .
1143(18) 0.0 0.0 .
1108(17) 0.0 0.0 .
1040(17) 0.0 0.0 .
1078(18) 0.0 0.0 .
1109(18) 0.0 0.0 .
1078(17) 0.0 0.0 .
1149(18) 0.0 0.0 .
1097(17) 0.0 0.0 .
1074(18) 0.0 0.0 .
1105(18) 0.0 0.0 .
1075(18) 0.0 0.0 .
1075(17) 0.0 0.0 .
1083(17) 0.0 0.0 .
1078(18) 0.0 0.0 .
1060(18) 0.0 0.0 .
1070(18) 0.0 0.0 .
1137(18) 0.0 0.0 .
1067(17) 0.0 0.0 .
1062(18) 0.0 0.0 .
1084(18) 0.0 0.0 .
1078(17) 0.0 0.0 .
1101(17) 0.0 0.0 .
1093(18) 0.0 0.0 .
1073(18) 0.0 0.0 .
1080(18) 0.0 0.0 .
1068(17) 0.0 0.0 .
1044(17) 0.0 0.0 .
1085(18) 0.0 0.0 .
1047(17) 0.0 0.0 .
1058(17) 0.0 0.0 .
1076(17) 0.0 0.0 .
1080(17) 0.0 0.0 .
1056(17) 0.0 0.0 .
1063(18) 0.0 0.0 .
1076(18) 0.0 0.0 .
1067(17) 0.0 0.0 .
1072(17) 0.0 0.0 .
1101(18) 0.0 0.0 .
1042(18) 0.0 0.0 .
1083(18) 0.0 0.0 .
1088(17) 0.0 0.0 .
1033(17) 0.0 0.0 .
1021(17) 0.0 0.0 .
1028(18) 0.0 0.0 .
1035(17) 0.0 0.0 .
1026(17) 0.0 0.0 .
1109(17) 0.0 0.0 .
998(17) 0.0 0.0 .
1017(18) 0.0 0.0 .
1020(17) 0.0 0.0 .
1057(17) 0.0 0.0 .
1040(17) 0.0 0.0 .
1046(17) 0.0 0.0 .
1042(18) 0.0 0.0 .
1029(17) 0.0 0.0 .
997(16) 0.0 0.0 .
1057(17) 0.0 0.0 .
1069(18) 0.0 0.0 .
1027(17) 0.0 0.0 .
1016(17) 0.0 0.0 .
1032(17) 0.0 0.0 .
1059(17) 0.0 0.0 .
1077(18) 0.0 0.0 .
1030(17) 0.0 0.0 .
1053(17) 0.0 0.0 .
1011(17) 0.0 0.0 .
1028(17) 0.0 0.0 .
1025(17) 0.0 0.0 .
1052(18) 0.0 0.0 .
1015(17) 0.0 0.0 .
1006(16) 0.0 0.0 .
1030(17) 0.0 0.0 .
1016(17) 0.0 0.0 .
1022(18) 0.0 0.0 .
999(17) 0.0 0.0 .
984(16) 0.0 0.0 .
1021(17) 0.0 0.0 .
1009(17) 0.0 0.0 .
1017(17) 0.0 0.0 .
996(16) 0.0 0.0 .
1008(16) 0.0 0.0 .
963(17) 0.0 0.0 .
1000(17) 0.0 0.0 .
979(17) 0.0 0.0 .
999(16) 0.0 0.0 .
1001(16) 0.0 0.0 .
1031(17) 0.0 0.0 .
976(17) 0.0 0.0 .
1013(17) 0.0 0.0 .
1038(17) 0.0 0.0 .
1035(17) 0.0 0.0 .
1003(17) 0.0 0.0 .
998(17) 0.0 0.0 .
1051(17) 0.0 0.0 .
1001(16) 0.0 0.0 .
997(16) 0.0 0.0 .
999(17) 0.0 0.0 .
961(17) 0.0 0.0 .
1022(17) 0.0 0.0 .
993(16) 0.0 0.0 .
979(16) 0.0 0.0 .
989(17) 0.0 0.0 .
962(17) 0.0 0.0 .
975(17) 0.0 0.0 .
1035(17) 0.0 0.0 .
969(16) 0.0 0.0 .
976(17) 0.0 0.0 .
972(17) 0.0 0.0 .
1009(17) 0.0 0.0 .
1002(16) 0.0 0.0 .
1008(17) 0.0 0.0 .
1004(17) 0.0 0.0 .
980(17) 0.0 0.0 .
998(17) 0.0 0.0 .
1002(16) 0.0 0.0 .
966(16) 0.0 0.0 .
981(17) 0.0 0.0 .
997(17) 0.0 0.0 .
1012(17) 0.0 0.0 .
983(16) 0.0 0.0 .
997(17) 0.0 0.0 .
992(17) 0.0 0.0 .
947(17) 0.0 0.0 .
941(16) 0.0 0.0 .
995(16) 0.0 0.0 .
937(16) 0.0 0.0 .
981(17) 0.0 0.0 .
979(17) 0.0 0.0 .
947(16) 0.0 0.0 .
966(16) 0.0 0.0 .
957(17) 0.0 0.0 .
976(17) 0.0 0.0 .
943(16) 0.0 0.0 .
964(16) 0.0 0.0 .
956(16) 0.0 0.0 .
958(17) 0.0 0.0 .
955(17) 0.0 0.0 .
952(16) 0.0 0.0 .
957(16) 0.0 0.0 .
945(16) 0.0 0.0 .
1026(17) 0.0 0.0 .
1002(18) 0.0 0.0 .
969(17) 0.0 0.0 .
985(16) 0.0 0.0 .
1015(17) 0.0 0.0 .
972(17) 0.0 0.0 .
941(17) 0.0 0.0 .
949(17) 0.0 0.0 .
943(16) 0.0 0.0 .
963(16) 0.0 0.0 .
977(17) 0.0 0.0 .
942(17) 0.0 0.0 .
965(17) 0.0 0.0 .
947(16) 0.0 0.0 .
970(16) 0.0 0.0 .
954(17) 0.0 0.0 .
946(17) 0.0 0.0 .
979(17) 0.0 0.0 .
951(16) 0.0 0.0 .
1015(17) 0.0 0.0 .
966(17) 0.0 0.0 .
957(17) 0.0 0.0 .
935(16) 0.0 0.0 .
921(16) 0.0 0.0 .
939(16) 0.0 0.0 .
951(17) 0.0 0.0 .
964(17) 0.0 0.0 .
887(16) 0.0 0.0 .
885(15) 0.0 0.0 .
922(16) 0.0 0.0 .
907(16) 0.0 0.0 .
919(16) 0.0 0.0 .
917(16) 0.0 0.0 .
923(16) 0.0 0.0 .
893(16) 0.0 0.0 .
950(17) 0.0 0.0 .
916(16) 0.0 0.0 .
948(16) 0.0 0.0 .
898(16) 0.0 0.0 .
910(16) 0.0 0.0 .
905(16) 0.0 0.0 .
899(16) 0.0 0.0 .
905(16) 0.0 0.0 .
947(16) 0.0 0.0 .
961(17) 0.0 0.0 .
921(17) 0.0 0.0 .
930(17) 0.0 0.0 .
915(16) 0.0 0.0 .
925(16) 0.0 0.0 .
894(16) 0.0 0.0 .
908(17) 0.0 0.0 .
903(16) 0.0 0.0 .
936(16) 0.0 0.0 .
923(16) 0.0 0.0 .
922(16) 0.0 0.0 .
899(17) 0.0 0.0 .
942(17) 0.0 0.0 .
856(15) 0.0 0.0 .
869(15) 0.0 0.0 .
924(16) 0.0 0.0 .
925(17) 0.0 0.0 .
948(16) 0.0 0.0 .
956(16) 0.0 0.0 .
887(15) 0.0 0.0 .
928(16) 0.0 0.0 .
900(16) 0.0 0.0 .
952(17) 0.0 0.0 .
872(15) 0.0 0.0 .
903(16) 0.0 0.0 .
900(16) 0.0 0.0 .
881(16) 0.0 0.0 .
933(17) 0.0 0.0 .
907(16) 0.0 0.0 .
859(15) 0.0 0.0 .
938(17) 0.0 0.0 .
903(16) 0.0 0.0 .
911(16) 0.0 0.0 .
937(16) 0.0 0.0 .
886(16) 0.0 0.0 .
836(16) 0.0 0.0 .
898(16) 0.0 0.0 .
901(16) 0.0 0.0 .
886(15) 0.0 0.0 .
911(16) 0.0 0.0 .
875(16) 0.0 0.0 .
897(16) 0.0 0.0 .
890(16) 0.0 0.0 .
905(16) 0.0 0.0 .
912(16) 0.0 0.0 .
912(16) 0.0 0.0 .
916(16) 0.0 0.0 .
879(16) 0.0 0.0 .
885(15) 0.0 0.0 .
850(16) 0.0 0.0 .
886(16) 0.0 0.0 .
859(16) 0.0 0.0 .
881(16) 0.0 0.0 .
900(16) 0.0 0.0 .
879(16) 0.0 0.0 .
891(16) 0.0 0.0 .
906(16) 0.0 0.0 .
885(16) 0.0 0.0 .
895(16) 0.0 0.0 .
849(15) 0.0 0.0 .
840(16) 0.0 0.0 .
908(16) 0.0 0.0 .
864(15) 0.0 0.0 .
846(15) 0.0 0.0 .
868(16) 0.0 0.0 .
916(17) 0.0 0.0 .
890(16) 0.0 0.0 .
910(16) 0.0 0.0 .
858(15) 0.0 0.0 .
874(16) 0.0 0.0 .
864(16) 0.0 0.0 .
887(16) 0.0 0.0 .
881(15) 0.0 0.0 .
870(15) 0.0 0.0 .
841(15) 0.0 0.0 .
827(16) 0.0 0.0 .
868(16) 0.0 0.0 .
889(15) 0.0 0.0 .
852(15) 0.0 0.0 .
890(16) 0.0 0.0 .
896(16) 0.0 0.0 .
857(16) 0.0 0.0 .
908(16) 0.0 0.0 .
852(16) 0.0 0.0 .
883(16) 0.0 0.0 .
859(16) 0.0 0.0 .
834(15) 0.0 0.0 .
862(15) 0.0 0.0 .
846(16) 0.0 0.0 .
880(16) 0.0 0.0 .
850(15) 0.0 0.0 .
900(16) 0.0 0.0 .
848(15) 0.0 0.0 .
875(16) 0.0 0.0 .
859(16) 0.0 0.0 .
837(16) 0.0 0.0 .
863(16) 0.0 0.0 .
837(15) 0.0 0.0 .
829(16) 0.0 0.0 .
865(16) 0.0 0.0 .
881(16) 0.0 0.0 .
846(15) 0.0 0.0 .
806(15) 0.0 0.0 .
852(16) 0.0 0.0 .
855(16) 0.0 0.0 .
868(16) 0.0 0.0 .
851(15) 0.0 0.0 .
836(15) 0.0 0.0 .
867(16) 0.0 0.0 .
860(16) 0.0 0.0 .
845(16) 0.0 0.0 .
862(15) 0.0 0.0 .
869(15) 0.0 0.0 .
858(16) 0.0 0.0 .
850(16) 0.0 0.0 .
819(15) 0.0 0.0 .
813(15) 0.0 0.0 .
842(15) 0.0 0.0 .
851(16) 0.0 0.0 .
878(16) 0.0 0.0 .
847(15) 0.0 0.0 .
850(15) 0.0 0.0 .
794(15) 0.0 0.0 .
810(15) 0.0 0.0 .
842(16) 0.0 0.0 .
849(16) 0.0 0.0 .
834(15) 0.0 0.0 .
794(15) 0.0 0.0 .
833(16) 0.0 0.0 .
814(16) 0.0 0.0 .
798(15) 0.0 0.0 .
813(15) 0.0 0.0 .
790(15) 0.0 0.0 .
833(16) 0.0 0.0 .
812(16) 0.0 0.0 .
799(15) 0.0 0.0 .
817(15) 0.0 0.0 .
830(15) 0.0 0.0 .
842(16) 0.0 0.0 .
805(15) 0.0 0.0 .
820(15) 0.0 0.0 .
849(15) 0.0 0.0 .
808(15) 0.0 0.0 .
808(15) 0.0 0.0 .
814(16) 0.0 0.0 .
790(15) 0.0 0.0 .
803(15) 0.0 0.0 .
822(16) 0.0 0.0 .
823(16) 0.0 0.0 .
806(15) 0.0 0.0 .
761(14) 0.0 0.0 .
819(15) 0.0 0.0 .
803(15) 0.0 0.0 .
804(16) 0.0 0.0 .
815(15) 0.0 0.0 .
848(15) 0.0 0.0 .
827(15) 0.0 0.0 .
806(15) 0.0 0.0 .
805(16) 0.0 0.0 .
780(15) 0.0 0.0 .
770(14) 0.0 0.0 .
821(15) 0.0 0.0 .
796(15) 0.0 0.0 .
754(15) 0.0 0.0 .
793(15) 0.0 0.0 .
806(15) 0.0 0.0 .
796(15) 0.0 0.0 .
792(15) 0.0 0.0 .
779(15) 0.0 0.0 .
764(15) 0.0 0.0 .
776(14) 0.0 0.0 .
798(15) 0.0 0.0 .
785(15) 0.0 0.0 .
797(15) 0.0 0.0 .
798(15) 0.0 0.0 .
795(15) 0.0 0.0 .
776(15) 0.0 0.0 .
795(15) 0.0 0.0 .
778(15) 0.0 0.0 .
776(15) 0.0 0.0 .
774(14) 0.0 0.0 .
789(15) 0.0 0.0 .
840(16) 0.0 0.0 .
799(15) 0.0 0.0 .
786(15) 0.0 0.0 .
838(15) 0.0 0.0 .
788(15) 0.0 0.0 .
772(15) 0.0 0.0 .
776(15) 0.0 0.0 .
756(15) 0.0 0.0 .
752(14) 0.0 0.0 .
819(15) 0.0 0.0 .
771(15) 0.0 0.0 .
724(14) 0.0 0.0 .
754(14) 0.0 0.0 .
783(15) 0.0 0.0 .
793(15) 0.0 0.0 .
764(15) 0.0 0.0 .
773(15) 0.0 0.0 .
745(14) 0.0 0.0 .
754(14) 0.0 0.0 .
766(15) 0.0 0.0 .
756(15) 0.0 0.0 .
796(15) 0.0 0.0 .
749(14) 0.0 0.0 .
760(14) 0.0 0.0 .
752(15) 0.0 0.0 .
790(15) 0.0 0.0 .
761(15) 0.0 0.0 .
752(14) 0.0 0.0 .
739(14) 0.0 0.0 .
783(15) 0.0 0.0 .
750(15) 0.0 0.0 .
785(15) 0.0 0.0 .
779(15) 0.0 0.0 .
758(14) 0.0 0.0 .
757(15) 0.0 0.0 .
778(16) 0.0 0.0 .
774(15) 0.0 0.0 .
733(14) 0.0 0.0 .
736(14) 0.0 0.0 .
770(15) 0.0 0.0 .
767(15) 0.0 0.0 .
771(15) 0.0 0.0 .
755(14) 0.0 0.0 .
766(15) 0.0 0.0 .
783(15) 0.0 0.0 .
724(15) 0.0 0.0 .
718(14) 0.0 0.0 .
748(14) 0.0 0.0 .
747(14) 0.0 0.0 .
752(15) 0.0 0.0 .
747(15) 0.0 0.0 .
731(14) 0.0 0.0 .
769(14) 0.0 0.0 .
722(14) 0.0 0.0 .
755(15) 0.0 0.0 .
754(15) 0.0 0.0 .
789(15) 0.0 0.0 .
709(14) 0.0 0.0 .
775(15) 0.0 0.0 .
767(15) 0.0 0.0 .
729(14) 0.0 0.0 .
735(14) 0.0 0.0 .
757(14) 0.0 0.0 .
785(15) 0.0 0.0 .
759(15) 0.0 0.0 .
755(15) 0.0 0.0 .
765(14) 0.0 0.0 .
770(14) 0.0 0.0 .
737(14) 0.0 0.0 .
739(15) 0.0 0.0 .
725(14) 0.0 0.0 .
750(14) 0.0 0.0 .
710(14) 0.0 0.0 .
740(14) 0.0 0.0 .
778(15) 0.0 0.0 .
722(14) 0.0 0.0 .
737(14) 0.0 0.0 .
704(14) 0.0 0.0 .
735(15) 0.0 0.0 .
735(15) 0.0 0.0 .
763(15) 0.0 0.0 .
732(14) 0.0 0.0 .
690(14) 0.0 0.0 .
712(14) 0.0 0.0 .
749(15) 0.0 0.0 .
711(14) 0.0 0.0 .
733(14) 0.0 0.0 .
780(15) 0.0 0.0 .
749(15) 0.0 0.0 .
715(15) 0.0 0.0 .
726(15) 0.0 0.0 .
730(14) 0.0 0.0 .
730(14) 0.0 0.0 .
704(14) 0.0 0.0 .
724(15) 0.0 0.0 .
727(14) 0.0 0.0 .
734(14) 0.0 0.0 .
712(14) 0.0 0.0 .
706(14) 0.0 0.0 .
744(15) 0.0 0.0 .
741(15) 0.0 0.0 .
718(14) 0.0 0.0 .
710(14) 0.0 0.0 .
740(15) 0.0 0.0 .
720(14) 0.0 0.0 .
743(15) 0.0 0.0 .
684(14) 0.0 0.0 .
698(14) 0.0 0.0 .
763(15) 0.0 0.0 .
739(15) 0.0 0.0 .
726(14) 0.0 0.0 .
720(14) 0.0 0.0 .
686(14) 0.0 0.0 .
747(15) 0.0 0.0 .
721(14) 0.0 0.0 .
733(14) 0.0 0.0 .
712(14) 0.0 0.0 .
717(15) 0.0 0.0 .
703(15) 0.0 0.0 .
720(15) 0.0 0.0 .
717(14) 0.0 0.0 .
730(14) 0.0 0.0 .
698(14) 0.0 0.0 .
688(15) 0.0 0.0 .
709(14) 0.0 0.0 .
703(14) 0.0 0.0 .
705(14) 0.0 0.0 .
729(15) 0.0 0.0 .
741(15) 0.0 0.0 .
683(14) 0.0 0.0 .
681(14) 0.0 0.0 .
679(14) 0.0 0.0 .
706(14) 0.0 0.0 .
706(15) 0.0 0.0 .
721(14) 0.0 0.0 .
725(14) 0.0 0.0 .
722(14) 0.0 0.0 .
685(14) 0.0 0.0 .
701(15) 0.0 0.0 .
712(14) 0.0 0.0 .
670(13) 0.0 0.0 .
698(14) 0.0 0.0 .
693(14) 0.0 0.0 .
677(14) 0.0 0.0 .
685(14) 0.0 0.0 .
700(14) 0.0 0.0 .
679(14) 0.0 0.0 .
672(14) 0.0 0.0 .
695(14) 0.0 0.0 .
682(14) 0.0 0.0 .
701(14) 0.0 0.0 .
684(14) 0.0 0.0 .
691(14) 0.0 0.0 .
655(14) 0.0 0.0 .
624(13) 0.0 0.0 .
665(13) 0.0 0.0 .
691(14) 0.0 0.0 .
718(15) 0.0 0.0 .
721(15) 0.0 0.0 .
701(14) 0.0 0.0 .
665(13) 0.0 0.0 .
694(14) 0.0 0.0 .
696(14) 0.0 0.0 .
688(14) 0.0 0.0 .
675(14) 0.0 0.0 .
670(13) 0.0 0.0 .
669(14) 0.0 0.0 .
684(14) 0.0 0.0 .
663(14) 0.0 0.0 .
656(13) 0.0 0.0 .
674(13) 0.0 0.0 .
654(14) 0.0 0.0 .
670(14) 0.0 0.0 .
638(13) 0.0 0.0 .
673(14) 0.0 0.0 .
702(14) 0.0 0.0 .
678(14) 0.0 0.0 .
653(14) 0.0 0.0 .
692(14) 0.0 0.0 .
711(14) 0.0 0.0 .
692(14) 0.0 0.0 .
672(14) 0.0 0.0 .
678(15) 0.0 0.0 .
669(14) 0.0 0.0 .
635(13) 0.0 0.0 .
693(14) 0.0 0.0 .
699(14) 0.0 0.0 .
675(14) 0.0 0.0 .
698(15) 0.0 0.0 .
703(14) 0.0 0.0 .
696(14) 0.0 0.0 .
643(14) 0.0 0.0 .
674(14) 0.0 0.0 .
685(14) 0.0 0.0 .
704(14) 0.0 0.0 .
650(13) 0.0 0.0 .
628(13) 0.0 0.0 .
680(14) 0.0 0.0 .
680(14) 0.0 0.0 .
654(13) 0.0 0.0 .
688(14) 0.0 0.0 .
654(14) 0.0 0.0 .
707(14) 0.0 0.0 .
683(14) 0.0 0.0 .
636(13) 0.0 0.0 .
679(14) 0.0 0.0 .
681(14) 0.0 0.0 .
672(14) 0.0 0.0 .
683(14) 0.0 0.0 .
680(14) 0.0 0.0 .
676(14) 0.0 0.0 .
657(14) 0.0 0.0 .
652(14) 0.0 0.0 .
648(13) 0.0 0.0 .
638(13) 0.0 0.0 .
686(14) 0.0 0.0 .
687(15) 0.0 0.0 .
664(14) 0.0 0.0 .
686(14) 0.0 0.0 .
691(14) 0.0 0.0 .
667(14) 0.0 0.0 .
644(14) 0.0 0.0 .
689(14) 0.0 0.0 .
675(14) 0.0 0.0 .
653(13) 0.0 0.0 .
682(14) 0.0 0.0 .
677(14) 0.0 0.0 .
674(14) 0.0 0.0 .
630(13) 0.0 0.0 .
657(13) 0.0 0.0 .
674(14) 0.0 0.0 .
654(14) 0.0 0.0 .
663(14) 0.0 0.0 .
674(13) 0.0 0.0 .
635(13) 0.0 0.0 .
625(13) 0.0 0.0 .
661(14) 0.0 0.0 .
677(14) 0.0 0.0 .
670(13) 0.0 0.0 .
670(14) 0.0 0.0 .
664(14) 0.0 0.0 .
690(15) 0.0 0.0 .
683(14) 0.0 0.0 .
647(13) 0.0 0.0 .
674(14) 0.0 0.0 .
650(14) 0.0 0.0 .
627(14) 0.0 0.0 .
690(14) 0.0 0.0 .
648(13) 0.0 0.0 .
638(13) 0.0 0.0 .
649(14) 0.0 0.0 .
685(14) 0.0 0.0 .
654(14) 0.0 0.0 .
628(13) 0.0 0.0 .
651(14) 0.0 0.0 .
655(14) 0.0 0.0 .
644(14) 0.0 0.0 .
661(14) 0.0 0.0 .
694(14) 0.0 0.0 .
665(14) 0.0 0.0 .
692(14) 0.0 0.0 .
637(14) 0.0 0.0 .
647(13) 0.0 0.0 .
639(13) 0.0 0.0 .
637(14) 0.0 0.0 .
669(14) 0.0 0.0 .
661(14) 0.0 0.0 .
610(13) 0.0 0.0 .
678(14) 0.0 0.0 .
651(14) 0.0 0.0 .
660(14) 0.0 0.0 .
637(14) 0.0 0.0 .
636(13) 0.0 0.0 .
623(13) 0.0 0.0 .
642(14) 0.0 0.0 .
655(14) 0.0 0.0 .
637(13) 0.0 0.0 .
642(13) 0.0 0.0 .
663(13) 0.0 0.0 .
648(13) 0.0 0.0 .
623(14) 0.0 0.0 .
647(14) 0.0 0.0 .
651(13) 0.0 0.0 .
678(14) 0.0 0.0 .
636(13) 0.0 0.0 .
649(14) 0.0 0.0 .
659(14) 0.0 0.0 .
613(13) 0.0 0.0 .
636(13) 0.0 0.0 .
660(14) 0.0 0.0 .
624(14) 0.0 0.0 .
636(14) 0.0 0.0 .
637(13) 0.0 0.0 .
626(13) 0.0 0.0 .
644(14) 0.0 0.0 .
627(14) 0.0 0.0 .
654(14) 0.0 0.0 .
653(13) 0.0 0.0 .
634(13) 0.0 0.0 .
635(14) 0.0 0.0 .
644(14) 0.0 0.0 .
621(13) 0.0 0.0 .
624(13) 0.0 0.0 .
611(13) 0.0 0.0 .
610(13) 0.0 0.0 .
604(13) 0.0 0.0 .
679(14) 0.0 0.0 .
658(13) 0.0 0.0 .
638(13) 0.0 0.0 .
610(13) 0.0 0.0 .
616(13) 0.0 0.0 .
672(14) 0.0 0.0 .
635(13) 0.0 0.0 .
635(13) 0.0 0.0 .
678(14) 0.0 0.0 .
627(13) 0.0 0.0 .
635(13) 0.0 0.0 .
633(13) 0.0 0.0 .
648(14) 0.0 0.0 .
615(14) 0.0 0.0 .
643(14) 0.0 0.0 .
622(13) 0.0 0.0 .
621(13) 0.0 0.0 .
645(14) 0.0 0.0 .
610(14) 0.0 0.0 .
627(13) 0.0 0.0 .
658(13) 0.0 0.0 .
574(12) 0.0 0.0 .
661(14) 0.0 0.0 .
633(14) 0.0 0.0 .
639(14) 0.0 0.0 .
638(13) 0.0 0.0 .
627(13) 0.0 0.0 .
638(14) 0.0 0.0 .
630(14) 0.0 0.0 .
646(14) 0.0 0.0 .
643(13) 0.0 0.0 .
660(13) 0.0 0.0 .
635(13) 0.0 0.0 .
629(14) 0.0 0.0 .
656(14) 0.0 0.0 .
614(13) 0.0 0.0 .
633(13) 0.0 0.0 .
592(13) 0.0 0.0 .
599(13) 0.0 0.0 .
643(14) 0.0 0.0 .
596(13) 0.0 0.0 .
635(13) 0.0 0.0 .
618(13) 0.0 0.0 .
621(13) 0.0 0.0 .
648(14) 0.0 0.0 .
648(13) 0.0 0.0 .
618(13) 0.0 0.0 .
639(14) 0.0 0.0 .
647(14) 0.0 0.0 .
631(13) 0.0 0.0 .
623(13) 0.0 0.0 .
626(13) 0.0 0.0 .
635(14) 0.0 0.0 .
642(14) 0.0 0.0 .
643(13) 0.0 0.0 .
648(13) 0.0 0.0 .
641(14) 0.0 0.0 .
628(14) 0.0 0.0 .
616(13) 0.0 0.0 .
646(13) 0.0 0.0 .
639(13) 0.0 0.0 .
629(13) 0.0 0.0 .
647(14) 0.0 0.0 .
649(14) 0.0 0.0 .
595(13) 0.0 0.0 .
652(13) 0.0 0.0 .
647(14) 0.0 0.0 .
646(14) 0.0 0.0 .
630(13) 0.0 0.0 .
634(13) 0.0 0.0 .
635(13) 0.0 0.0 .
655(14) 0.0 0.0 .
662(14) 0.0 0.0 .
676(14) 0.0 0.0 .
640(13) 0.0 0.0 .
651(13) 0.0 0.0 .
643(14) 0.0 0.0 .
639(14) 0.0 0.0 .
691(14) 0.0 0.0 .
625(13) 0.0 0.0 .
668(14) 0.0 0.0 .
620(13) 0.0 0.0 .
637(14) 0.0 0.0 .
633(13) 0.0 0.0 .
659(13) 0.0 0.0 .
683(14) 0.0 0.0 .
669(14) 0.0 0.0 .
626(14) 0.0 0.0 .
643(14) 0.0 0.0 .
646(13) 0.0 0.0 .
638(13) 0.0 0.0 .
650(14) 0.0 0.0 .
681(14) 0.0 0.0 .
669(14) 0.0 0.0 .
677(14) 0.0 0.0 .
686(14) 0.0 0.0 .
637(14) 0.0 0.0 .
670(14) 0.0 0.0 .
651(14) 0.0 0.0 .
702(14) 0.0 0.0 .
693(14) 0.0 0.0 .
660(14) 0.0 0.0 .
677(14) 0.0 0.0 .
639(14) 0.0 0.0 .
654(13) 0.0 0.0 .
708(14) 0.0 0.0 .
686(14) 0.0 0.0 .
672(14) 0.0 0.0 .
685(14) 0.0 0.0 .
663(13) 0.0 0.0 .
663(14) 0.0 0.0 .
653(14) 0.0 0.0 .
694(14) 0.0 0.0 .
696(14) 0.0 0.0 .
696(14) 0.0 0.0 .
688(14) 0.0 0.0 .
686(14) 0.0 0.0 .
678(14) 0.0 0.0 .
688(14) 0.0 0.0 .
666(13) 0.0 0.0 .
679(14) 0.0 0.0 .
733(15) 0.0 0.0 .
721(15) 0.0 0.0 .
739(14) 0.0 0.0 .
729(14) 0.0 0.0 .
706(14) 0.0 0.0 .
736(15) 0.0 0.0 .
767(15) 0.0 0.0 .
780(15) 0.0 0.0 .
752(14) 0.0 0.0 .
731(14) 0.0 0.0 .
763(15) 0.0 0.0 .
785(15) 0.0 0.0 .
774(14) 0.0 0.0 .
783(15) 0.0 0.0 .
793(15) 0.0 0.0 .
775(15) 0.0 0.0 .
810(15) 0.0 0.0 .
866(15) 0.0 0.0 .
879(16) 0.0 0.0 .
885(16) 0.0 0.0 .
935(17) 0.0 0.0 .
977(17) 0.0 0.0 .
933(16) 0.0 0.0 .
944(16) 0.0 0.0 .
1022(17) 0.0 0.0 .
1050(18) 0.0 0.0 .
1077(18) 0.0 0.0 .
1120(17) 0.0 0.0 .
1172(18) 0.0 0.0 .
1217(19) 0.0 0.0 .
1292(20) 0.0 0.0 .
1291(19) 0.0 0.0 .
1372(19) 0.0 0.0 .
1503(21) 0.0 0.0 .
1490(21) 0.0 0.0 .
1561(21) 0.0 0.0 .
1623(21) 0.0 0.0 .
1706(21) 0.0 0.0 .
1757(23) 0.0 0.0 .
1927(24) 0.0 0.0 .
2088(25) 0.0 0.0 .
2248(25) 0.0 0.0 .
2438(26) 0.0 0.0 .
2754(28) 0.0 0.0 .
3115(31) 0.0 0.0 .
3644(33) 0.0 0.0 .
4102(34) 0.0 0.0 .
4689(36) 0.0 0. .
5384(40) 0.0 0. .
6241(44) 0.0 0. .
7259(46) 0.0 0. .
8438(48) 0.0 0. .
9546(51) 0.0 0. .
10747(56) 0.0 0. .
11922(61) 0.0 0. .
13220(62) 0.0 0. .
14560(63) 0.0 0. .
16191(67) 0.0 0. .
17778(72) 0.0 0. .
19654(79) 0.0 0. .
21515(81) 0.0 0. .
24377(83) 0.0 0. .
27367(88) 0.0 0. .
30553(96) 0.0 0. .
34000(110) 0.0 0. .
36530(110) 0.0 0. .
37480(100) 0.0 0. .
36170(100) 0.0 0. .
32280(100) 0.0 0. .
27248(92) 0.0 0. .
22737(82) 0.0 0. .
19016(73) 0.0 0. .
15639(67) 0.0 0. .
13034(62) 0.0 0. .
10950(57) 0.0 0. .
9181(52) 0.0 0. .
7678(46) 0.0 0. .
6690(44) 0.0 0. .
5651(41) 0.0 0. .
4840(38) 0.0 0. .
4349(35) 0.0 0. .
3817(32) 0.0 0.0 .
3345(31) 0.0 0.0 .
2975(30) 0.0 0.0 .
2741(28) 0.0 0.0 .
2422(26) 0.0 0.0 .
2256(25) 0.0 0.0 .
2125(25) 0.0 0.0 .
1971(24) 0.0 0.0 .
1770(23) 0.0 0.0 .
1707(22) 0.0 0.0 .
1608(21) 0.0 0.0 .
1512(21) 0.0 0.0 .
1420(21) 0.0 0.0 .
1346(20) 0.0 0.0 .
1286(19) 0.0 0.0 .
1220(18) 0.0 0.0 .
1170(18) 0.0 0.0 .
1147(19) 0.0 0.0 .
1101(18) 0.0 0.0 .
1049(17) 0.0 0.0 .
1051(17) 0.0 0.0 .
1014(17) 0.0 0.0 .
964(17) 0.0 0.0 .
976(17) 0.0 0.0 .
889(15) 0.0 0.0 .
845(15) 0.0 0.0 .
868(16) 0.0 0.0 .
872(16) 0.0 0.0 .
872(16) 0.0 0.0 .
851(15) 0.0 0.0 .
865(15) 0.0 0.0 .
804(15) 0.0 0.0 .
816(16) 0.0 0.0 .
797(15) 0.0 0.0 .
760(14) 0.0 0.0 .
778(15) 0.0 0.0 .
746(15) 0.0 0.0 .
763(15) 0.0 0.0 .
752(15) 0.0 0.0 .
756(14) 0.0 0.0 .
738(14) 0.0 0.0 .
741(15) 0.0 0.0 .
730(15) 0.0 0.0 .
757(15) 0.0 0.0 .
759(14) 0.0 0.0 .
706(14) 0.0 0.0 .
687(14) 0.0 0.0 .
699(14) 0.0 0.0 .
666(14) 0.0 0.0 .
701(14) 0.0 0.0 .
682(14) 0.0 0.0 .
708(14) 0.0 0.0 .
660(14) 0.0 0.0 .
664(14) 0.0 0.0 .
689(14) 0.0 0.0 .
678(14) 0.0 0.0 .
679(14) 0.0 0.0 .
637(13) 0.0 0.0 .
660(14) 0.0 0.0 .
685(14) 0.0 0.0 .
655(14) 0.0 0.0 .
635(14) 0.0 0.0 .
642(13) 0.0 0.0 .
658(14) 0.0 0.0 .
600(13) 0.0 0.0 .
654(14) 0.0 0.0 .
647(14) 0.0 0.0 .
655(14) 0.0 0.0 .
639(13) 0.0 0.0 .
603(13) 0.0 0.0 .
615(13) 0.0 0.0 .
636(14) 0.0 0.0 .
652(14) 0.0 0.0 .
623(13) 0.0 0.0 .
634(13) 0.0 0.0 .
602(13) 0.0 0.0 .
651(14) 0.0 0.0 .
620(13) 0.0 0.0 .
601(13) 0.0 0.0 .
605(13) 0.0 0.0 .
608(13) 0.0 0.0 .
614(14) 0.0 0.0 .
600(13) 0.0 0.0 .
608(13) 0.0 0.0 .
644(13) 0.0 0.0 .
607(13) 0.0 0.0 .
619(14) 0.0 0.0 .
580(13) 0.0 0.0 .
579(12) 0.0 0.0 .
611(13) 0.0 0.0 .
603(13) 0.0 0.0 .
570(13) 0.0 0.0 .
592(13) 0.0 0.0 .
603(13) 0.0 0.0 .
602(13) 0.0 0.0 .
600(13) 0.0 0.0 .
591(13) 0.0 0.0 .
608(13) 0.0 0.0 .
602(13) 0.0 0.0 .
591(13) 0.0 0.0 .
606(13) 0.0 0.0 .
593(13) 0.0 0.0 .
582(13) 0.0 0.0 .
581(12) 0.0 0.0 .
564(13) 0.0 0.0 .
561(13) 0.0 0.0 .
557(13) 0.0 0.0 .
627(13) 0.0 0.0 .
551(12) 0.0 0.0 .
595(13) 0.0 0.0 .
588(13) 0.0 0.0 .
570(13) 0.0 0.0 .
574(13) 0.0 0.0 .
577(12) 0.0 0.0 .
584(13) 0.0 0.0 .
582(13) 0.0 0.0 .
582(13) 0.0 0.0 .
549(12) 0.0 0.0 .
558(12) 0.00631 579.8 39.9
610(13) 0.00541 579.8 39.3
594(14) 0.00522 579.6 38.8
587(13) 0.00565 579.2 38.2
584(12) 0.00608 578.8 37.7
608(13) 0.00580 578.3 37.1
583(13) 0.00579 577.9 36.6
578(14) 0.00511 577.5 36.1
571(13) 0.00568 577.1 35.6
603(13) 0.00575 576.7 35.1
589(13) 0.00595 576.3 34.6
567(13) 0.00579 575.9 34.2
613(14) 0.00501 575.5 33.7
588(13) 0.00555 575.1 33.2
580(13) 0.00600 574.7 32.8
546(12) 0.00634 574.3 32.4
553(12) 0.00610 573.8 31.9
544(13) 0.00594 573.4 31.5
590(13) 0.00550 573.0 31.1
579(13) 0.00603 572.6 30.7
585(13) 0.00595 572.2 30.3
613(13) 0.00531 571.8 29.9
561(13) 0.00556 571.4 29.6
542(13) 0.00601 571.0 29.2
582(12) 0.00607 570.6 28.8
599(13) 0.00569 570.2 28.5
571(13) 0.00581 569.8 28.1
550(13) 0.00587 569.3 27.8
568(13) 0.00582 568.9 27.4
584(13) 0.00601 568.5 27.1
574(12) 0.00608 568.1 26.8
586(13) 0.00554 567.7 26.5
543(13) 0.00598 567.3 26.2
584(13) 0.00557 566.9 25.9
566(12) 0.00618 566.5 25.6
557(13) 0.00588 566.1 25.3
535(13) 0.00588 565.7 25.0
516(12) 0.00634 565.3 24.7
551(12) 0.00616 564.8 24.4
573(12) 0.00611 564.4 24.1
567(13) 0.00579 564.0 23.9
540(13) 0.00601 563.6 23.6
557(13) 0.00580 563.2 23.3
578(13) 0.00582 562.8 23.1
555(12) 0.00633 562.4 22.8
601(13) 0.00539 562.0 22.6
557(13) 0.00566 561.6 22.3
540(12) 0.00616 561.2 22.1
528(12) 0.00652 560.7 21.9
555(12) 0.00629 560.3 21.6
555(13) 0.00590 559.9 21.4
559(13) 0.00544 559.5 21.2
557(13) 0.00583 559.1 21.0
563(12) 0.00621 558.7 20.7
537(12) 0.00650 558.3 20.5
570(13) 0.00553 557.9 20.3
561(13) 0.00544 557.5 20.1
562(13) 0.00584 557.1 19.9
558(12) 0.00624 556.7 19.7
535(12) 0.00650 556.2 19.5
533(12) 0.00628 555.8 19.3
517(12) 0.00608 555.4 19.1
542(12) 0.00618 555.0 19.0
578(13) 0.00602 554.6 18.8
608(13) 0.00569 554.2 18.6
552(13) 0.00586 553.8 18.4
548(13) 0.00560 553.4 18.2
535(12) 0.00611 553.0 18.1
537(12) 0.00654 552.6 17.9
563(13) 0.00601 552.2 17.7
521(12) 0.00631 551.7 17.6
533(13) 0.00600 551.3 17.4
593(13) 0.00557 550.9 17.2
558(12) 0.00625 550.5 17.1
559(12) 0.00611 550.1 16.9
529(12) 0.00632 549.7 16.8
536(13) 0.00591 549.3 16.6
548(13) 0.00581 548.9 16.5
554(12) 0.00631 548.5 16.3
575(13) 0.00590 548.1 16.2
570(13) 0.00577 547.7 16.1
539(12) 0.00608 547.2 15.9
562(13) 0.00581 546.8 15.8
579(12) 0.00606 546.4 15.6
552(12) 0.00610 546.0 15.5
529(12) 0.00618 545.6 15.4
528(12) 0.00619 545.2 15.3
521(12) 0.00626 544.8 15.1
541(12) 0.00644 544.4 15.0
566(13) 0.00587 544.0 14.9
551(13) 0.00580 543.6 14.8
539(12) 0.00606 543.2 14.6
543(12) 0.00631 542.7 14.5
560(12) 0.00627 542.3 14.4
537(12) 0.00611 541.9 14.3
545(13) 0.00567 541.5 14.2
538(12) 0.00619 541.1 14.1
534(12) 0.00636 540.7 14.0
523(12) 0.00665 540.3 13.9
544(13) 0.00586 539.9 13.8
534(13) 0.00573 539.5 13.7
554(13) 0.00588 539.1 13.6
541(12) 0.00642 538.6 13.5
529(12) 0.00664 538.2 13.4
543(13) 0.00603 537.8 13.3
533(13) 0.00566 537.4 13.2
529(12) 0.00630 537.0 13.1
524(12) 0.00659 536.6 13.0
526(12) 0.00661 536.2 12.9
533(12) 0.00616 535.8 12.8
536(13) 0.00570 535.4 12.7
535(12) 0.00611 535.0 12.6
491(12) 0.00703 534.6 12.5
513(12) 0.00677 534.1 12.4
537(13) 0.00604 533.7 12.4
542(13) 0.00561 533.3 12.3
541(13) 0.00593 532.9 12.2
563(12) 0.00619 532.5 12.1
541(12) 0.00633 532.1 12.0
527(12) 0.00621 531.7 12.0
547(13) 0.00577 531.3 11.9
522(12) 0.00620 530.9 11.8
525(12) 0.00662 530.5 11.7
533(12) 0.00635 530.1 11.7
521(12) 0.00621 529.6 11.6
520(12) 0.00610 529.2 11.5
537(12) 0.00610 528.8 11.5
524(12) 0.00661 528.4 11.4
537(12) 0.00611 528.0 11.3
527(13) 0.00595 527.6 11.3
538(13) 0.00584 527.2 11.2
519(12) 0.00631 526.8 11.2
533(12) 0.00655 526.4 11.1
521(12) 0.00635 526.0 11.0
545(13) 0.00591 525.6 11.0
540(13) 0.00596 525.1 10.9
559(13) 0.00593 524.7 10.9
490(12) 0.00694 524.3 10.8
515(12) 0.00623 523.9 10.8
515(12) 0.00614 523.5 10.7
536(12) 0.00606 523.1 10.7
495(12) 0.00681 522.7 10.6
504(12) 0.00680 522.3 10.6
484(12) 0.00673 521.9 10.5
550(13) 0.00559 521.5 10.5
536(12) 0.00622 521.0 10.4
557(12) 0.00617 520.6 10.4
553(12) 0.00630 520.2 10.4
505(12) 0.00632 519.8 10.3
530(13) 0.00577 519.4 10.3
536(12) 0.00610 519.0 10.2
524(12) 0.00655 518.6 10.2
558(12) 0.00630 518.2 10.2
528(12) 0.00632 517.8 10.1
546(13) 0.00561 517.4 10.1
512(12) 0.00651 517.0 10.1
527(12) 0.00663 516.5 10.1
501(12) 0.00693 516.1 10.0
527(12) 0.00617 515.7 10.0
529(13) 0.00560 515.3 10.0
527(12) 0.00631 514.9 10.0
552(12) 0.00637 514.5 9.9
521(12) 0.00667 514.1 9.9
521(12) 0.00627 513.7 9.9
505(12) 0.00613 513.3 9.9
504(12) 0.00657 512.9 9.9
518(12) 0.00675 512.5 9.9
512(12) 0.00671 512.2 9.9
521(13) 0.00604 512.1 9.9
500(12) 0.00632 512.0 9.9
482(12) 0.00699 511.9 9.9
526(12) 0.00658 511.8 9.9
530(12) 0.00641 511.7 9.9
533(13) 0.00599 511.7 9.9
511(12) 0.00628 511.6 9.9
530(12) 0.00624 511.5 9.9
506(12) 0.00685 511.4 9.9
523(12) 0.00647 511.3 9.9
536(12) 0.00617 511.2 9.9
540(13) 0.00589 511.1 10.0
529(13) 0.00605 511.0 10.0
495(12) 0.00705 510.9 10.0
535(12) 0.00631 510.8 10.0
528(12) 0.00611 510.7 10.1
529(12) 0.00610 510.6 10.1
523(12) 0.00645 510.5 10.2
555(12) 0.00631 510.5 10.2
518(12) 0.00647 510.4 10.3
544(13) 0.00575 510.3 10.3
583(13) 0.00550 510.2 10.4
541(12) 0.00634 510.1 10.4
519(12) 0.00669 510.0 10.5
523(13) 0.00597 509.9 10.6
527(13) 0.00595 509.8 10.7
513(12) 0.00643 509.7 10.8
515(12) 0.00666 509.6 10.9
512(12) 0.00685 509.5 11.0
504(12) 0.00653 509.4 11.1
523(12) 0.00608 509.3 11.2
524(12) 0.00616 509.3 11.3
537(12) 0.00646 509.2 11.5
529(12) 0.00659 509.1 11.6
521(12) 0.00638 509.0 11.8
517(12) 0.00606 508.9 11.9
520(12) 0.00618 508.8 12.1
508(12) 0.00669 508.7 12.3
495(12) 0.00692 508.6 12.5
529(12) 0.00625 508.5 12.8
528(12) 0.00610 508.4 13.0
529(12) 0.00635 508.3 13.3
527(12) 0.00663 508.2 13.5
519(12) 0.00677 508.1 13.8
562(13) 0.00579 508.1 14.1
551(13) 0.00578 508.0 14.5
535(12) 0.00616 507.9 14.9
518(12) 0.00664 507.8 15.3
507(12) 0.00684 507.7 15.7
508(12) 0.00652 507.6 16.2
553(13) 0.00566 507.5 16.7
524(12) 0.00621 507.4 17.2
528(12) 0.00666 507.3 17.8
553(12) 0.00640 507.2 18.5
571(13) 0.00577 507.1 19.2
548(13) 0.00570 507.0 19.9
536(13) 0.00591 506.9 20.8
528(12) 0.00662 506.9 21.7
575(13) 0.00589 506.8 22.8
525(12) 0.00627 506.7 23.9
559(13) 0.00573 506.6 25.2
563(13) 0.00591 506.5 26.7
541(12) 0.00646 506.4 28.4
540(12) 0.00607 506.3 30.3
526(12) 0.00612 506.2 32.5
534(12) 0.00610 506.1 35.1
565(13) 0.00601 506.0 38.1
593(13) 0.00592 505.9 41.6
582(13) 0.00585 505.8 45.7
577(13) 0.00555 505.7 50.5
596(13) 0.00544 505.7 56.2
580(13) 0.00591 505.6 62.9
639(13) 0.00553 505.5 70.6
611(13) 0.00542 505.4 79.6
621(14) 0.00517 505.3 89.9
625(14) 0.00513 505.2 101.6
606(13) 0.00566 505.1 114.8
598(13) 0.00582 505.0 129.5
641(14) 0.00508 504.9 145.5
663(14) 0.00482 504.8 162.9
704(14) 0.00478 504.7 181.2
699(14) 0.00503 504.6 200.0
697(14) 0.00514 504.6 218.6
683(14) 0.00483 504.5 236.0
719(15) 0.00435 504.4 251.2
681(14) 0.00489 504.3 262.8
666(13) 0.00531 504.2 269.7
657(13) 0.00536 504.1 271.1
699(14) 0.00473 504.0 266.9
706(15) 0.00440 503.9 257.5
677(14) 0.00488 503.8 243.9
700(14) 0.00505 503.7 227.5
661(13) 0.00529 503.6 209.3
612(13) 0.00543 503.5 190.4
614(14) 0.00491 503.4 171.7
600(13) 0.00554 503.4 153.8
614(13) 0.00573 503.3 137.0
604(13) 0.00576 503.2 121.6
559(13) 0.00592 503.1 107.6
581(13) 0.00526 503.0 95.0
587(13) 0.00551 502.9 84.0
530(12) 0.00651 502.8 74.3
565(12) 0.00610 502.7 65.9
561(13) 0.00593 502.6 58.7
560(13) 0.00562 502.5 52.5
559(13) 0.00576 502.4 47.2
538(12) 0.00649 502.3 42.6
529(12) 0.00649 502.2 38.8
552(13) 0.00582 502.2 35.5
480(12) 0.00655 502.1 32.7
497(12) 0.00645 502.0 30.2
514(12) 0.00679 501.9 28.1
520(12) 0.00653 501.8 26.3
515(12) 0.00634 501.7 24.7
537(13) 0.00602 501.6 23.3
518(12) 0.00641 501.5 22.0
494(11) 0.00711 501.4 20.8
510(12) 0.00654 501.3 19.8
526(12) 0.00609 501.2 18.8
518(12) 0.00635 501.1 18.0
504(12) 0.00660 501.0 17.2
493(11) 0.00710 501.0 16.5
490(12) 0.00674 500.9 15.8
510(12) 0.00626 500.8 15.2
509(12) 0.00659 500.7 14.6
489(12) 0.00684 500.6 14.0
516(12) 0.00682 500.5 13.5
526(12) 0.00624 500.4 13.1
516(12) 0.00607 500.3 12.6
528(12) 0.00620 500.2 12.2
522(12) 0.00657 500.1 11.8
513(12) 0.00677 500.0 11.5
538(13) 0.00595 499.9 11.1
515(12) 0.00616 499.8 10.8
490(12) 0.00665 499.8 10.5
528(12) 0.00653 499.7 10.2
500(12) 0.00697 499.6 10.0
468(11) 0.00709 499.5 9.7
496(12) 0.00626 499.4 9.5
482(12) 0.00684 499.3 9.2
477(11) 0.00726 499.2 9.0
539(12) 0.00647 499.1 8.8
505(12) 0.00648 499.0 8.6
495(12) 0.00615 498.9 8.4
505(12) 0.00659 498.8 8.3
520(12) 0.00670 498.7 8.1
516(12) 0.00680 498.7 7.9
512(12) 0.00638 498.6 7.8
467(12) 0.00656 498.5 7.6
486(12) 0.00682 498.4 7.5
515(12) 0.00673 498.3 7.3
532(12) 0.00651 498.2 7.2
480(12) 0.00663 498.1 7.1
450(12) 0.00682 498.0 7.0
495(12) 0.00649 497.9 6.8
507(12) 0.00679 497.8 6.7
486(12) 0.00699 497.7 6.6
510(12) 0.00643 497.6 6.5
492(12) 0.00656 497.5 3.1
536(13) 0.00595 497.5 3.0
521(12) 0.00669 497.4 2.9
522(12) 0.00645 497.3 2.8
519(12) 0.00620 497.2 2.8
516(12) 0.00621 497.1 2.7
479(12) 0.00684 497.0 2.6
490(11) 0.00711 496.9 2.6
505(12) 0.00664 496.8 2.5
520(12) 0.00608 496.7 2.4
501(12) 0.00646 496.6 2.4
492(12) 0.00693 496.5 2.3
494(12) 0.00705 496.4 2.3
485(12) 0.00661 496.3 2.2
531(13) 0.00588 496.3 2.2
510(12) 0.00633 496.2 2.1
521(12) 0.00659 496.1 2.1
520(12) 0.00673 496.0 2.0
514(12) 0.00626 495.9 2.0
494(12) 0.00644 495.8 1.9
499(12) 0.00662 495.7 1.9
480(11) 0.00718 495.6 1.9
479(11) 0.00730 495.5 1.8
453(11) 0.00722 495.4 1.8
499(13) 0.00601 495.3 1.7
497(12) 0.00658 495.2 1.7
479(12) 0.00704 495.1 1.7
502(12) 0.00694 495.1 1.6
480(12) 0.00674 495.0 1.6
508(12) 0.00610 494.9 1.6
488(12) 0.00672 494.8 1.6
550(12) 0.00626 494.7 1.5
493(12) 0.00701 494.6 1.5
509(12) 0.00629 494.5 1.5
494(12) 0.00614 494.4 1.4
487(12) 0.00690 494.3 1.4
504(12) 0.00688 494.2 1.4
516(12) 0.00665 494.1 1.4
503(12) 0.00634 494.0 1.3
476(12) 0.00651 493.9 1.3
493(12) 0.00651 493.9 1.3
512(12) 0.00687 493.8 1.3
481(11) 0.00713 493.7 1.3
500(12) 0.00645 493.6 1.2
515(13) 0.00603 493.5 1.2
559(13) 0.00590 493.4 1.2
531(12) 0.00658 493.3 1.2
477(11) 0.00713 493.2 1.2
481(12) 0.00681 493.1 1.1
503(12) 0.00630 493.0 1.1
491(12) 0.00635 492.9 1.1
513(12) 0.00677 492.8 1.1
507(12) 0.00660 492.7 1.1
506(12) 0.00641 492.7 1.1
492(12) 0.00647 492.6 1.0
462(11) 0.00721 492.5 1.0
488(11) 0.00715 492.4 1.0
494(12) 0.00682 492.3 1.0
510(12) 0.00621 492.2 1.0
479(12) 0.00679 492.1 1.0
522(12) 0.00632 492.0 1.0
466(11) 0.00743 491.9 0.9
477(12) 0.00687 491.8 0.9
486(12) 0.00651 491.7 0.9
501(12) 0.00644 491.6 0.9
523(12) 0.00641 491.6 0.9
511(12) 0.00677 491.5 0.9
494(12) 0.00654 491.4 0.9
496(12) 0.00646 491.3 0.9
492(12) 0.00662 491.2 0.8
493(12) 0.00688 491.1 0.8
508(12) 0.00688 491.0 0.8
467(12) 0.00683 490.9 0.8
481(12) 0.00655 490.8 0.8
504(12) 0.00639 490.7 0.8
501(12) 0.00682 490.6 0.8
528(12) 0.00665 490.5 0.8
474(12) 0.00694 490.5 0.8
471(12) 0.00658 490.4 0.8
495(12) 0.00660 490.4 0.7
493(11) 0.00713 490.3 0.7
488(12) 0.00708 490.3 0.7
511(12) 0.00637 490.3 0.7
515(12) 0.00610 490.2 0.7
505(12) 0.00657 490.2 0.7
460(11) 0.00756 490.2 0.7
493(12) 0.00698 490.1 0.7
510(12) 0.00650 490.1 0.7
510(12) 0.00618 490.1 0.7
524(12) 0.00621 490.0 0.7
485(11) 0.00719 490.0 0.7
498(12) 0.00701 490.0 0.7
481(12) 0.00682 489.9 0.6
497(12) 0.00627 489.9 0.6
479(12) 0.00697 489.8 0.6
500(12) 0.00687 489.8 0.6
492(12) 0.00704 489.8 0.6
490(12) 0.00668 489.7 0.6
507(13) 0.00602 489.7 0.6
496(12) 0.00659 489.7 0.6
466(11) 0.00742 489.6 0.6
503(12) 0.00671 489.6 0.6
508(12) 0.00635 489.6 0.6
485(12) 0.00669 489.5 0.6
487(12) 0.00679 489.5 0.6
543(12) 0.00645 489.5 0.6
513(12) 0.00662 489.4 0.6
479(12) 0.00682 489.4 0.6
489(12) 0.00657 489.3 0.5
477(12) 0.00700 489.3 0.5
467(11) 0.00747 489.3 0.5
479(12) 0.00705 489.2 0.5
513(12) 0.00615 489.2 0.5
510(12) 0.00616 489.2 0.5
491(12) 0.00693 489.1 0.5
506(12) 0.00689 489.1 0.5
508(12) 0.00648 489.1 0.5
515(12) 0.00624 489.0 0.5
506(12) 0.00643 489.0 0.5
484(12) 0.00704 489.0 0.5
482(11) 0.00718 488.9 0.5
477(12) 0.00693 488.9 0.5
459(12) 0.00683 488.8 0.5
470(12) 0.00684 488.8 0.5
484(12) 0.00703 488.8 0.5
487(11) 0.00721 488.7 0.5
508(12) 0.00649 488.7 0.5
509(12) 0.00613 488.7 0.5
520(12) 0.00637 488.6 0.5
505(12) 0.00687 488.6 0.5
502(12) 0.00695 488.6 0.5
506(12) 0.00647 488.5 0.5
485(12) 0.00644 488.5 0.5
517(12) 0.00615 488.5 0.5
493(12) 0.00695 488.4 0.4
529(12) 0.00663 488.4 0.4
491(12) 0.00669 488.3 0.4
467(12) 0.00661 488.3 0.4
489(12) 0.00658 488.3 0.4
500(12) 0.00688 488.2 0.4
524(12) 0.00649 488.2 0.4
496(12) 0.00674 488.2 0.4
514(12) 0.00606 488.1 0.4
527(12) 0.00620 488.1 0.4
509(12) 0.00686 488.1 0.4
507(12) 0.00680 488.0 0.4
505(12) 0.00648 488.0 0.4
497(12) 0.00634 487.9 0.4
505(12) 0.00652 487.9 0.4
490(11) 0.00713 487.9 0.4
503(12) 0.00681 487.8 0.4
521(12) 0.00615 487.8 0.4
502(12) 0.00641 487.8 0.4
478(12) 0.00674 487.7 0.4
492(11) 0.00711 487.7 0.4
496(12) 0.00670 487.7 0.4
502(12) 0.00639 487.6 0.4
518(12) 0.00618 487.6 0.4
493(12) 0.00673 487.6 0.4
498(12) 0.00699 487.5 0.4
504(12) 0.00647 487.5 0.4
485(12) 0.00650 487.4 0.4
484(12) 0.00656 487.4 0.4
496(12) 0.00666 487.4 0.4
477(11) 0.00724 487.3 0.4
522(12) 0.00622 487.3 0.4
514(12) 0.00612 487.3 0.4
513(12) 0.00634 487.2 0.4
517(12) 0.00668 487.2 0.4
485(11) 0.00712 487.2 0.4
512(12) 0.00641 487.1 0.4
460(12) 0.00693 487.1 0.4
490(12) 0.00664 487.1 0.4
491(12) 0.00694 487.0 0.4
496(12) 0.00702 487.0 0.4
486(12) 0.00679 486.9 0.4
472(12) 0.00666 486.9 0.4
481(12) 0.00674 486.9 0.4
506(12) 0.00678 486.8 0.4
505(12) 0.00686 486.8 0.4
514(12) 0.00638 486.8 0.4
489(12) 0.00629 486.7 0.4
498(12) 0.00659 486.7 0.4
499(12) 0.00690 486.7 0.4
468(11) 0.00742 486.6 0.4
484(12) 0.00698 486.6 0.4
505(13) 0.00597 486.6 0.4
511(12) 0.00650 486.5 0.4
502(12) 0.00686 486.5 0.4
541(12) 0.00639 486.4 0.4
502(12) 0.00651 486.4 0.4
496(12) 0.00618 486.4 0.4
456(11) 0.00718 486.3 0.4
479(11) 0.00719 486.3 0.3
483(11) 0.00717 486.3 0.3
461(11) 0.00723 486.2 0.3
468(12) 0.00681 486.2 0.3
475(12) 0.00681 486.2 0.3
520(12) 0.00673 486.1 0.3
495(12) 0.00676 486.1 0.3
487(12) 0.00672 486.1 0.3
500(12) 0.00645 486.0 0.3
506(12) 0.00630 486.0 0.3
474(11) 0.00730 485.9 0.3
495(12) 0.00678 485.9 0.3
515(12) 0.00634 485.9 0.3
512(12) 0.00622 485.8 0.3
530(12) 0.00625 485.8 0.3
491(11) 0.00713 485.8 0.3
510(12) 0.00648 485.7 0.3
463(11) 0.00715 485.7 0.3
494(12) 0.00643 485.7 0.3
493(12) 0.00675 485.6 0.3
486(11) 0.00717 485.6 0.3
512(12) 0.00649 485.6 0.3
515(12) 0.00624 485.5 0.3
496(12) 0.00646 485.5 0.3
495(12) 0.00694 485.4 0.3
516(12) 0.00674 485.4 0.3
489(12) 0.00648 485.4 0.3
483(12) 0.00661 485.3 0.4
472(12) 0.00683 485.3 0.4
502(12) 0.00686 485.3 0.4
517(12) 0.00681 485.2 0.4
493(12) 0.00657 485.2 0.4
491(12) 0.00646 485.2 0.4
507(12) 0.00646 485.1 0.4
482(11) 0.00717 485.1 0.4
483(11) 0.00716 485.1 0.4
479(12) 0.00684 485.0 0.4
493(12) 0.00610 485.0 0.7
472(12) 0.00688 484.9 0.8
481(11) 0.00718 484.9 0.8
479(11) 0.00722 484.9 0.8
463(11) 0.00713 484.8 0.8
469(12) 0.00631 484.8 0.8
456(11) 0.00724 484.8 0.8
492(11) 0.00712 484.7 0.8
474(11) 0.00726 484.7 0.8
473(12) 0.00692 484.7 0.8
442(11) 0.00714 484.6 0.8
487(12) 0.00667 484.6 0.8
480(11) 0.00730 484.6 0.8
458(11) 0.00736 484.5 0.8
521(12) 0.00626 484.5 0.8
489(12) 0.00647 484.4 0.8
495(12) 0.00655 484.4 0.8
476(11) 0.00722 484.4 0.8
484(12) 0.00706 484.3 0.8
481(12) 0.00662 484.3 0.8
462(12) 0.00673 484.3 0.8
472(12) 0.00682 484.2 0.8
481(11) 0.00722 484.2 0.8
499(12) 0.00688 484.2 0.8
484(12) 0.00678 484.1 0.8
467(12) 0.00685 484.1 0.8
501(12) 0.00667 484.0 0.8
508(12) 0.00691 484.0 0.8
506(12) 0.00662 484.0 0.9
495(12) 0.00637 483.9 0.9
480(12) 0.00664 483.9 0.9
477(12) 0.00699 483.9 0.9
497(12) 0.00701 483.8 0.9
471(12) 0.00695 483.8 0.9
476(12) 0.00676 483.8 0.9
492(12) 0.00665 483.7 0.9
482(12) 0.00683 483.7 0.9
484(11) 0.00718 483.7 0.9
456(11) 0.00719 483.6 0.9
463(12) 0.00664 483.6 0.9
516(12) 0.00620 483.5 0.9
488(12) 0.00698 483.5 0.9
473(11) 0.00734 483.5 0.9
524(13) 0.00592 483.4 0.9
499(12) 0.00615 483.4 0.9
465(11) 0.00723 483.4 0.9
499(12) 0.00673 483.3 1.0
484(11) 0.00720 483.3 1.0
504(12) 0.00648 483.3 1.0
489(12) 0.00640 483.2 1.0
497(12) 0.00658 483.2 1.0
461(11) 0.00740 483.2 1.0
494(12) 0.00708 483.1 1.0
508(12) 0.00620 483.1 1.0
491(12) 0.00632 483.0 1.0
487(12) 0.00681 483.0 1.0
502(12) 0.00680 483.0 1.0
506(12) 0.00693 482.9 1.0
485(12) 0.00691 482.9 1.1
486(12) 0.00633 482.9 1.1
457(11) 0.00727 482.8 1.1
476(11) 0.00727 482.8 1.1
489(11) 0.00716 482.8 1.1
481(12) 0.00681 482.7 1.1
470(12) 0.00647 482.7 1.1
487(12) 0.00682 482.7 1.1
504(12) 0.00692 482.6 1.1
489(12) 0.00698 482.6 1.1
490(12) 0.00674 482.5 1.2
494(12) 0.00636 482.5 1.2
483(12) 0.00658 482.5 1.2
515(12) 0.00680 482.4 1.2
485(12) 0.00683 482.4 1.2
499(12) 0.00657 482.4 1.2
500(12) 0.00635 482.3 1.2
503(12) 0.00649 482.3 1.2
483(11) 0.00722 482.4 1.3
487(12) 0.00681 482.5 1.3
487(12) 0.00659 482.6 1.3
488(12) 0.00650 482.7 1.3
492(12) 0.00671 482.8 1.3
509(12) 0.00685 482.9 1.3
469(11) 0.00708 483.0 1.4
491(12) 0.00641 483.1 1.4
486(12) 0.00668 483.2 1.4
485(12) 0.00696 483.3 1.4
492(12) 0.00704 483.4 1.4
488(12) 0.00665 483.5 1.4
478(12) 0.00662 483.6 1.5
487(12) 0.00670 483.7 1.5
465(11) 0.00718 483.8 1.5
487(11) 0.00710 484.0 2.0
465(12) 0.00705 484.1 2.0
510(12) 0.00618 484.2 2.0
473(12) 0.00704 484.3 2.0
480(12) 0.00697 484.4 2.1
463(11) 0.00753 484.5 2.1
520(12) 0.00638 484.6 2.1
502(12) 0.00618 484.7 2.1
479(12) 0.00684 484.8 2.2
491(12) 0.00705 484.9 2.2
501(12) 0.00696 485.0 2.2
505(12) 0.00637 485.1 2.3
500(13) 0.00595 485.2 2.3
486(12) 0.00675 485.3 2.3
476(11) 0.00719 485.4 2.4
512(12) 0.00680 485.5 2.4
491(12) 0.00681 485.6 2.5
506(13) 0.00598 485.7 2.5
510(12) 0.00637 485.8 2.5
492(12) 0.00704 485.9 2.6
486(11) 0.00717 486.0 2.6
513(12) 0.00643 486.2 2.7
493(12) 0.00627 486.3 2.7
521(12) 0.00643 486.4 2.8
481(11) 0.00721 486.5 2.9
457(11) 0.00742 486.6 2.9
482(12) 0.00668 486.7 3.0
492(12) 0.00639 486.8 3.0
475(12) 0.00682 486.9 3.1
456(11) 0.00765 487.0 3.2
488(12) 0.00700 487.1 3.3
496(12) 0.00651 487.2 3.3
484(12) 0.00635 487.3 3.4
481(12) 0.00674 487.4 3.5
530(12) 0.00654 487.5 3.6
511(12) 0.00675 487.6 3.7
499(12) 0.00637 487.7 3.8
491(12) 0.00635 487.8 3.9
508(12) 0.00652 487.9 4.1
466(11) 0.00751 488.0 4.2
464(11) 0.00716 488.1 4.3
497(12) 0.00644 488.3 4.5
489(12) 0.00667 488.4 4.6
505(12) 0.00668 488.5 4.8
491(11) 0.00712 488.6 5.0
499(12) 0.00648 488.7 5.2
480(12) 0.00674 488.8 5.4
517(12) 0.00623 488.9 5.6
460(11) 0.00730 489.0 5.9
493(11) 0.00709 489.1 6.2
498(12) 0.00658 489.2 6.5
479(12) 0.00676 489.3 6.8
486(12) 0.00689 489.4 7.2
479(11) 0.00727 489.5 7.6
482(11) 0.00721 489.6 8.0
516(12) 0.00630 489.7 8.5
495(12) 0.00623 489.8 9.0
486(12) 0.00669 489.9 9.5
500(12) 0.00684 490.0 10.1
506(12) 0.00696 490.1 10.8
502(12) 0.00648 490.2 11.5
498(12) 0.00609 490.3 12.3
487(12) 0.00671 490.5 13.1
489(12) 0.00702 490.6 14.0
481(11) 0.00725 490.7 14.9
515(12) 0.00637 490.8 15.9
514(13) 0.00587 490.9 17.0
507(12) 0.00647 491.0 18.2
509(12) 0.00681 491.1 19.4
475(11) 0.00727 491.2 20.6
503(12) 0.00637 491.3 21.9
503(12) 0.00614 491.4 23.2
513(12) 0.00628 491.5 24.5
499(12) 0.00700 491.6 25.8
486(11) 0.00710 491.7 27.0
507(12) 0.00639 491.8 28.1
498(12) 0.00634 491.9 29.1
510(12) 0.00659 492.0 30.0
517(12) 0.00673 492.1 30.6
478(11) 0.00712 492.2 31.1
516(13) 0.00604 492.3 31.2
505(12) 0.00610 492.4 31.2
531(12) 0.00614 492.6 30.8
511(12) 0.00679 492.7 30.3
510(12) 0.00652 492.8 29.5
511(12) 0.00652 492.9 28.6
478(12) 0.00688 493.0 27.5
481(12) 0.00676 493.1 26.3
494(11) 0.00710 493.2 25.0
514(12) 0.00644 493.3 23.7
469(12) 0.00699 493.4 22.5
485(12) 0.00669 493.5 21.2
486(12) 0.00701 493.6 19.9
511(12) 0.00683 493.7 18.8
515(12) 0.00654 493.8 17.6
505(12) 0.00633 493.9 16.5
521(12) 0.00614 494.0 15.5
517(12) 0.00637 494.1 14.6
495(12) 0.00697 494.2 13.7
533(13) 0.00602 494.3 12.8
476(12) 0.00674 494.4 12.1
506(12) 0.00653 494.5 11.4
528(12) 0.00655 494.6 10.7
478(11) 0.00718 494.8 10.1
488(12) 0.00670 494.9 9.6
515(13) 0.00595 495.0 9.0
496(12) 0.00653 495.1 8.6
517(12) 0.00668 495.2 8.2
515(12) 0.00673 495.3 7.8
467(12) 0.00702 495.4 7.4
513(13) 0.00587 495.5 7.1
488(12) 0.00690 495.6 6.8
490(12) 0.00705 495.7 6.5
489(11) 0.00708 495.8 6.3
501(12) 0.00644 495.9 6.1
475(12) 0.00626 496.0 5.9
526(12) 0.00610 496.1 5.7
498(12) 0.00698 496.2 5.5
518(12) 0.00667 496.3 5.3
480(12) 0.00680 496.4 5.2
514(13) 0.00596 496.5 5.1
508(12) 0.00654 496.6 4.9
486(11) 0.00713 496.7 4.8
498(12) 0.00696 496.9 4.7
491(12) 0.00677 497.0 4.6
493(12) 0.00629 497.1 4.5
483(12) 0.00666 497.2 4.4
442(11) 0.00780 497.3 4.4
489(12) 0.00703 497.4 4.3
493(12) 0.00662 497.5 4.2
512(12) 0.00611 497.6 4.2
510(12) 0.00632 497.7 4.1
494(12) 0.00702 497.8 4.1
522(12) 0.00637 497.9 4.0
496(12) 0.00640 498.0 4.0
493(12) 0.00629 498.1 3.9
508(12) 0.00631 498.2 3.9
514(12) 0.00680 498.3 3.8
515(12) 0.00633 498.4 3.8
514(12) 0.00624 498.5 3.8
516(12) 0.00607 498.6 3.7
468(11) 0.00712 498.7 3.7
497(12) 0.00701 498.8 3.7
525(12) 0.00635 498.9 3.6
491(12) 0.00666 499.1 3.6
486(12) 0.00679 499.2 3.6
483(12) 0.00694 499.3 3.6
511(12) 0.00678 499.4 3.6
485(12) 0.00692 499.5 3.6
505(12) 0.00623 499.6 3.5
487(12) 0.00668 499.7 3.5
525(12) 0.00644 499.8 3.5
529(12) 0.00658 499.9 3.5
532(12) 0.00620 500.0 3.5
504(12) 0.00620 500.1 3.5
485(12) 0.00675 500.2 3.5
471(11) 0.00725 500.3 3.5
514(12) 0.00682 500.4 3.5
479(12) 0.00682 500.5 3.5
478(12) 0.00639 500.6 3.5
518(12) 0.00626 500.7 3.5
472(11) 0.00727 500.8 3.5
479(11) 0.00729 500.9 3.5
465(12) 0.00700 501.0 3.5
488(12) 0.00613 501.2 3.5
508(12) 0.00652 501.3 3.5
513(12) 0.00665 501.4 3.5
492(12) 0.00704 501.5 3.5
512(12) 0.00635 501.6 3.5
511(13) 0.00599 501.7 3.5
492(12) 0.00685 501.8 3.5
501(12) 0.00703 501.9 3.5
532(12) 0.00643 502.0 3.5
498(12) 0.00657 502.1 3.5
513(13) 0.00603 502.2 3.6
499(12) 0.00652 502.3 3.6
511(12) 0.00689 502.4 3.6
493(12) 0.00702 502.5 3.6
500(12) 0.00655 502.6 3.6
512(13) 0.00592 502.7 3.6
484(12) 0.00666 502.8 3.6
499(12) 0.00697 502.9 3.7
506(12) 0.00666 503.0 3.7
442(11) 0.00726 503.1 3.7
486(12) 0.00646 503.2 3.7
503(12) 0.00656 503.4 3.7
532(12) 0.00659 503.5 3.8
507(12) 0.00652 503.6 3.8
498(12) 0.00641 503.7 3.8
534(13) 0.00598 503.8 3.8
489(12) 0.00676 503.9 3.8
519(12) 0.00673 504.0 3.9
504(12) 0.00668 504.1 3.9
476(12) 0.00669 504.2 3.9
488(12) 0.00656 504.3 3.9
505(12) 0.00657 504.4 4.0
521(12) 0.00671 504.5 4.0
518(12) 0.00636 504.6 4.0
481(12) 0.00670 504.7 4.1
507(12) 0.00634 504.8 4.1
491(12) 0.00686 504.9 4.1
503(12) 0.00691 505.0 4.1
485(12) 0.00673 505.1 4.2
526(13) 0.00597 505.2 4.2
519(12) 0.00634 505.3 4.2
506(12) 0.00689 505.5 4.3
539(12) 0.00648 505.6 4.3
542(13) 0.00597 505.7 4.3
508(12) 0.00624 505.8 4.4
520(12) 0.00648 505.9 4.4
510(12) 0.00686 506.0 4.5
523(12) 0.00665 506.1 4.5
504(12) 0.00664 506.2 4.5
534(13) 0.00569 506.3 4.6
525(12) 0.00627 506.4 4.6
514(12) 0.00676 506.5 4.7
487(11) 0.00715 506.6 4.7
524(12) 0.00618 506.7 4.8
505(12) 0.00619 506.8 4.8
531(12) 0.00610 506.9 4.9
527(12) 0.00661 507.0 4.9
489(12) 0.00706 507.1 5.0
495(12) 0.00657 507.2 5.0
499(12) 0.00627 507.3 5.1
514(12) 0.00633 507.4 5.1
502(12) 0.00689 507.5 5.2
522(12) 0.00654 507.7 5.2
534(12) 0.00607 507.8 5.3
525(13) 0.00588 507.9 5.3
521(12) 0.00626 508.0 5.4
486(11) 0.00720 508.1 5.5
486(12) 0.00694 508.2 5.5
524(12) 0.00611 508.4 5.6
491(12) 0.00659 508.6 5.6
528(13) 0.00600 508.8 5.7
501(12) 0.00696 509.0 5.8
508(12) 0.00664 509.2 5.8
529(12) 0.00615 509.5 5.9
524(12) 0.00644 509.7 6.0
526(12) 0.00621 509.9 6.1
502(12) 0.00696 510.1 6.1
513(12) 0.00638 510.3 6.2
518(12) 0.00621 510.5 6.3
501(12) 0.00660 510.7 6.4
518(12) 0.00643 510.9 6.5
513(12) 0.00686 511.1 6.6
509(12) 0.00655 511.4 6.6
516(12) 0.00618 511.6 6.7
490(12) 0.00666 511.8 6.8
504(12) 0.00676 512.0 6.9
530(12) 0.00668 512.2 7.0
491(12) 0.00656 512.4 7.1
484(12) 0.00666 512.6 7.2
518(12) 0.00633 512.8 7.3
506(12) 0.00671 513.0 7.4
510(12) 0.00686 513.2 7.6
513(12) 0.00640 513.5 7.7
514(13) 0.00604 513.7 7.8
505(12) 0.00651 513.9 7.9
522(12) 0.00655 514.1 8.0
538(12) 0.00646 514.3 8.2
504(12) 0.00651 514.5 8.3
542(13) 0.00571 514.7 8.4
541(13) 0.00598 514.9 8.6
493(12) 0.00704 515.1 8.7
483(11) 0.00718 515.3 8.9
521(12) 0.00639 515.6 9.0
523(13) 0.00588 515.8 9.2
513(12) 0.00633 516.0 9.3
517(12) 0.00673 516.2 9.5
495(12) 0.00678 516.4 9.7
533(12) 0.00618 516.6 9.8
533(13) 0.00594 516.8 10.0
512(12) 0.00636 517.0 10.2
482(11) 0.00711 517.2 10.4
512(12) 0.00675 517.5 10.6
503(12) 0.00659 517.7 10.8
522(13) 0.00595 517.9 11.0
536(12) 0.00609 518.1 11.2
561(12) 0.00623 518.3 11.4
536(12) 0.00630 518.5 11.7
528(13) 0.00601 518.7 11.9
494(12) 0.00652 518.9 12.2
533(12) 0.00629 519.1 12.4
484(11) 0.00715 519.3 12.7
527(12) 0.00628 519.6 13.0
545(13) 0.00583 519.8 13.2
538(13) 0.00590 520.0 13.5
517(12) 0.00651 520.2 13.8
538(12) 0.00653 520.4 14.2
507(12) 0.00649 520.6 14.5
498(12) 0.00660 520.8 14.8
546(13) 0.00588 521.0 15.2
516(12) 0.00649 521.2 15.6
518(12) 0.00680 521.4 16.0
532(12) 0.00631 521.7 16.4
525(13) 0.00605 521.9 16.8
504(12) 0.00653 522.1 17.2
528(12) 0.00632 522.3 17.7
510(12) 0.00678 522.5 18.1
529(13) 0.00598 522.7 18.6
525(13) 0.00603 522.9 19.1
543(13) 0.00603 523.1 19.7
550(12) 0.00621 523.3 20.2
508(12) 0.00677 523.6 20.8
512(12) 0.00637 523.8 21.4
512(13) 0.00604 524.0 22.1
540(12) 0.00620 524.2 22.7
539(12) 0.00640 524.4 23.4
554(12) 0.00632 524.6 24.2
539(12) 0.00611 524.8 25.0
559(13) 0.00554 525.0 25.8
543(12) 0.00606 525.2 26.6
548(12) 0.00625 525.4 27.5
517(12) 0.00676 525.7 28.5
552(13) 0.00599 525.9 29.5
558(13) 0.00550 526.1 30.6
545(12) 0.00613 526.3 31.7
522(12) 0.00668 526.5 32.9
541(12) 0.00647 526.7 34.1
563(13) 0.00581 526.9 35.5
557(13) 0.00561 527.1 36.9
554(13) 0.00583 527.3 38.4
555(12) 0.00629 527.5 40.0
554(12) 0.00632 527.8 41.7
562(13) 0.00578 528.0 43.5
521(12) 0.00609 528.2 45.5
554(13) 0.00596 528.4 47.6
549(12) 0.00644 528.6 49.8
560(12) 0.00605 528.8 52.2
572(13) 0.00562 529.0 54.8
560(13) 0.00576 529.2 57.6
558(13) 0.00593 529.4 60.6
576(12) 0.00611 529.7 63.9
588(13) 0.00582 529.9 67.4
547(13) 0.00590 530.1 71.2
589(13) 0.00539 530.3 75.4
614(13) 0.00533 530.5 79.9
585(13) 0.00603 530.7 84.9
583(13) 0.00583 530.9 90.4
595(13) 0.00542 531.1 96.4
603(13) 0.00544 531.3 103.0
622(13) 0.00543 531.5 110.3
605(13) 0.00586 531.8 118.4
627(13) 0.00541 532.0 127.4
663(14) 0.00495 532.2 137.6
689(14) 0.00466 532.4 149.0
656(14) 0.00513 532.6 162.0
687(14) 0.00514 532.8 177.0
749(15) 0.00442 533.0 194.5
746(15) 0.00437 533.2 215.2
753(15) 0.00448 533.4 240.4
801(15) 0.00439 533.6 271.5
877(15) 0.00410 533.9 310.7
879(16) 0.00384 534.1 360.9
980(17) 0.003249 534.3 425.7
1066(18) 0.003147 534.5 509.6
1176(18) 0.003007 534.7 617.8
1404(19) 0.002583 534.9 755.6
1509(21) 0.002268 535.1 928.4
1709(23) 0.001878 535.3 1140.4
1928(24) 0.001753 535.5 1394.0
2202(25) 0.001638 535.8 1688.8
2462(26) 0.001487 536.0 2019.7
2862(29) 0.001204 536.2 2376.4
3142(31) 0.001021 536.4 2739.9
3526(32) 0.000964 536.6 3081.7
3832(32) 0.000952 536.8 3362.9
4210(34) 0.000868 537.0 3540.4
4307(35) 0.000800 537. 3581.
4216(36) 0.000755 537. 3477.
3931(34) 0.000881 537.6 3248.6
3394(30) 0.001083 537.9 2935.3
3008(29) 0.001198 538.1 2579.7
2645(28) 0.001292 538.3 2216.2
2364(27) 0.001346 538.5 1869.3
2008(24) 0.001714 538.7 1553.4
1750(22) 0.002086 538.9 1276.5
1599(21) 0.002231 539.1 1041.6
1467(21) 0.002277 539.3 847.4
1309(20) 0.002448 539.5 690.7
1182(19) 0.002842 539.8 566.7
1100(17) 0.003275 540.0 469.9
1012(17) 0.003451 540.2 395.1
975(17) 0.003430 540.4 337.3
908(16) 0.00360 540.6 292.4
895(16) 0.00382 540.8 257.1
900(16) 0.00401 541.0 228.9
812(15) 0.00424 541.2 205.9
772(15) 0.00422 541.4 186.7
736(15) 0.00434 541.6 170.4
683(14) 0.00474 541.9 156.4
745(14) 0.00477 542.1 144.1
721(14) 0.00477 542.3 133.3
691(14) 0.00469 542.5 123.7
639(14) 0.00520 542.7 115.1
635(13) 0.00534 542.9 107.4
650(13) 0.00543 543.1 100.4
654(14) 0.00503 543.3 94.1
649(14) 0.00494 543.5 88.4
609(13) 0.00541 543.7 83.2
593(13) 0.00576 544.0 78.5
614(13) 0.00578 544.2 74.1
607(13) 0.00552 544.4 70.1
571(13) 0.00565 544.6 66.4
567(13) 0.00582 544.8 63.1
589(13) 0.00581 545.0 59.9
609(13) 0.00577 545.2 57.0
584(13) 0.00544 545.4 54.4
568(13) 0.00546 545.6 51.9
592(13) 0.00542 545.9 49.6
577(13) 0.00590 546.1 47.4
588(13) 0.00598 546.3 45.4
565(13) 0.00571 546.5 43.5
552(13) 0.00574 546.7 41.8
591(13) 0.00545 546.9 40.1
557(12) 0.00630 547.1 38.6
591(13) 0.00590 547.3 37.1
550(13) 0.00600 547.5 35.8
556(13) 0.00543 547.7 34.5
550(13) 0.00604 548.0 33.3
527(12) 0.00667 548.2 32.1
580(13) 0.00598 548.4 31.1
566(13) 0.00592 548.6 30.0
572(13) 0.00544 548.8 29.1
562(13) 0.00579 549.0 28.2
527(12) 0.00660 549.2 27.3
574(13) 0.00595 549.4 26.5
530(12) 0.00618 549.6 25.7
567(13) 0.00553 549.8 24.9
560(13) 0.00585 550.1 24.2
538(12) 0.00647 550.3 23.6
554(12) 0.00616 550.5 22.9
538(12) 0.00619 550.7 22.3
511(12) 0.00628 550.9 21.7
543(13) 0.00595 551.1 21.2
550(12) 0.00640 551.3 20.6
551(12) 0.00618 551.5 20.1
536(12) 0.00611 551.7 19.7
561(13) 0.00570 552.0 19.2
533(12) 0.00624 552.2 18.7
552(12) 0.00641 552.4 18.3
568(13) 0.00584 552.6 17.9
538(12) 0.00610 552.8 17.5
592(13) 0.00551 553.0 17.2
590(13) 0.00569 553.2 16.8
562(12) 0.00625 553.4 16.5
543(13) 0.00603 553.6 16.1
559(13) 0.00571 553.8 15.8
521(12) 0.00644 554.1 15.5
558(12) 0.00615 554.3 15.2
577(12) 0.00615 554.5 14.9
563(13) 0.00577 554.7 14.7
546(13) 0.00576 554.9 14.4
549(13) 0.00597 555.1 14.1
572(13) 0.00595 555.3 13.9
571(12) 0.00619 555.5 13.7
549(13) 0.00588 555.7 13.4
562(13) 0.00552 555.9 13.2
561(13) 0.00597 556.2 13.0
574(13) 0.00602 556.4 12.8
574(12) 0.00611 556.6 12.6
586(13) 0.00561 556.8 12.4
550(13) 0.00572 557.0 12.3
576(13) 0.00568 557.2 12.1
557(12) 0.00623 557.4 11.9
562(12) 0.00621 557.6 11.8
536(12) 0.00623 557.8 11.6
555(13) 0.00544 558.1 11.5
550(13) 0.00596 558.3 11.3
540(12) 0.00647 558.5 11.2
561(12) 0.00621 558.7 11.0
555(13) 0.00605 558.9 10.9
549(13) 0.00566 559.1 10.8
578(13) 0.00565 559.3 10.7
568(12) 0.00620 559.5 10.6
561(12) 0.00611 559.7 10.4
555(12) 0.00606 559.9 10.3
565(13) 0.00556 560.2 10.2
579(13) 0.00565 560.4 10.1
539(12) 0.00652 560.6 10.0
557(12) 0.00613 560.8 9.9
555(13) 0.00586 561.0 9.8
576(13) 0.00541 561.2 9.8
534(12) 0.00611 561.4 9.7
581(12) 0.00609 561.6 9.6
586(13) 0.00585 561.8 9.5
597(13) 0.00540 562.1 9.4
563(13) 0.00572 562.3 9.4
544(13) 0.00590 562.5 9.3
546(12) 0.00649 562.7 9.2
582(13) 0.00574 562.9 9.2
519(12) 0.00638 563.1 9.1
549(13) 0.00585 563.3 9.0
572(13) 0.00579 563.5 9.0
535(12) 0.00652 563.7 8.9
568(13) 0.00581 563.9 8.9
588(13) 0.00550 564.2 8.8
575(13) 0.00579 564.4 8.8
538(12) 0.00617 564.6 8.7
550(12) 0.00640 564.8 8.7
558(13) 0.00585 565.0 8.6
563(13) 0.00575 565.2 8.6
574(13) 0.00577 565.4 8.6
549(12) 0.00625 565.6 8.5
538(12) 0.00650 565.8 8.5
559(13) 0.00579 566.0 8.4
555(13) 0.00580 566.3 8.4
573(13) 0.00569 566.5 8.4
590(13) 0.00586 566.7 8.4
609(13) 0.00572 566.9 8.3
590(13) 0.00558 567.1 8.3
548(13) 0.00591 567.3 8.3
582(13) 0.00570 567.5 8.3
568(13) 0.00604 567.7 8.2
553(12) 0.00633 567.9 8.2
600(13) 0.00550 568.2 8.2
582(13) 0.00542 568.4 8.2
606(13) 0.00554 568.6 8.2
572(12) 0.00616 568.8 8.2
573(12) 0.00608 569.0 8.1
554(13) 0.00600 569.2 8.1
574(13) 0.00529 569.4 8.1
577(13) 0.00550 569.6 8.1
581(13) 0.00599 569.8 8.1
602(13) 0.00574 570.0 8.1
560(13) 0.00597 570.3 8.1
567(13) 0.00557 570.5 8.1
570(13) 0.00566 570.7 8.1
582(12) 0.00608 570.9 8.1
554(12) 0.00624 571.1 8.2
569(13) 0.00583 571.3 8.2
555(13) 0.00576 571.5 8.2
562(13) 0.00588 571.7 8.2
593(13) 0.00594 571.9 8.2
553(12) 0.00615 572.1 8.2
561(13) 0.00572 572.4 8.2
578(13) 0.00557 572.6 8.2
573(13) 0.00583 572.8 8.2
566(12) 0.00627 573.0 8.2
604(13) 0.00556 573.2 8.2
559(13) 0.00584 573.4 8.3
558(13) 0.00565 573.6 8.3
560(13) 0.00598 573.8 8.3
547(12) 0.00641 574.0 8.3
534(12) 0.00628 574.3 8.3
566(13) 0.00566 574.5 8.4
590(13) 0.00547 574.7 8.4
566(12) 0.00608 574.9 8.4
566(12) 0.00617 575.1 8.4
549(13) 0.00598 575.3 8.5
589(13) 0.00536 575.5 8.5
589(13) 0.00548 575.7 8.5
557(12) 0.00632 575.9 8.5
585(13) 0.00596 576.1 8.6
606(13) 0.00530 576.5 8.6
576(13) 0.00550 576.9 8.6
591(13) 0.00569 577.4 8.7
540(12) 0.00642 577.9 8.7
578(13) 0.00603 578.3 8.8
573(13) 0.00587 578.8 8.8
599(13) 0.00529 579.2 8.8
576(13) 0.00570 579.7 8.9
564(12) 0.00628 580.2 8.9
583(13) 0.00603 580.6 9.0
582(13) 0.00565 581.1 9.0
566(13) 0.00527 581.5 9.1
583(13) 0.00563 582.0 9.1
582(12) 0.00608 582.5 9.2
590(13) 0.00595 582.9 9.2
552(12) 0.00607 583.4 9.3
577(13) 0.00541 583.9 9.3
586(13) 0.00576 584.3 9.4
571(12) 0.00620 584.8 9.4
597(13) 0.00568 585.2 9.5
562(13) 0.00589 585.7 9.5
601(14) 0.00509 586.2 9.6
558(13) 0.00593 586.6 9.7
580(12) 0.00607 587.1 9.7
557(12) 0.00620 587.5 9.8
577(13) 0.00569 588.0 9.9
615(14) 0.00499 588.5 9.9
587(13) 0.00564 588.9 10.0
585(13) 0.00600 589.4 10.1
552(12) 0.00614 589.8 10.2
571(13) 0.00574 590.3 10.2
586(13) 0.00547 590.8 10.3
601(13) 0.00548 591.2 10.4
602(13) 0.00585 591.7 10.5
588(13) 0.00580 592.1 10.6
588(13) 0.00545 592.6 10.6
599(13) 0.00531 593.1 10.7
579(13) 0.00578 593.5 10.8
615(13) 0.00574 594.0 10.9
586(13) 0.00582 594.4 11.0
585(13) 0.00558 594.9 11.1
581(13) 0.00546 595.4 11.2
580(13) 0.00584 595.8 11.3
574(12) 0.00611 596.3 11.4
589(13) 0.00574 596.7 11.5
601(13) 0.00534 597.2 11.6
604(13) 0.00541 597.7 11.7
570(13) 0.00597 598.1 11.8
577(12) 0.00606 598.6 12.0
597(13) 0.00549 599.1 12.1
606(14) 0.00516 599.5 12.2
570(13) 0.00575 600.0 12.3
541(12) 0.00634 600.4 12.5
590(13) 0.00590 600.9 12.6
581(13) 0.00563 601.4 12.7
608(14) 0.00511 601.8 12.9
660(14) 0.00506 602.3 13.0
625(13) 0.00565 602.7 13.1
588(13) 0.00599 603.2 13.3
581(13) 0.00574 603.7 13.4
591(13) 0.00530 604.1 13.6
621(13) 0.00531 604.6 13.7
611(13) 0.00569 605.0 13.9
631(13) 0.00561 605.5 14.1
657(14) 0.00493 606.0 14.2
618(14) 0.00494 606.4 14.4
611(14) 0.00520 606.9 14.6
581(13) 0.00604 607.3 14.7
647(13) 0.00538 607.8 14.9
612(13) 0.00545 608.3 15.1
620(14) 0.00507 608.7 15.3
603(13) 0.00551 609.2 15.5
613(13) 0.00572 609.6 15.7
633(13) 0.00550 610.1 15.9
618(13) 0.00536 610.6 16.1
610(14) 0.00512 611.0 16.3
540(12) 0.00626 611.5 16.6
580(13) 0.00598 611.9 16.8
602(13) 0.00565 612.4 17.0
623(13) 0.00535 612.9 17.3
600(13) 0.00547 613.3 17.5
602(13) 0.00545 613.8 17.8
608(13) 0.00580 614.3 18.0
612(13) 0.00553 614.7 18.3
601(13) 0.00550 615.2 18.5
614(13) 0.00538 615.6 18.8
630(14) 0.00518 616.1 19.1
602(13) 0.00588 616.6 19.4
596(13) 0.00559 617.0 19.7
605(13) 0.00550 617.5 20.0
609(13) 0.00535 617.9 20.3
600(13) 0.00566 618.4 20.7
608(13) 0.00581 618.9 21.0
657(14) 0.00504 619.3 21.3
651(14) 0.00514 619.8 21.7
646(14) 0.00511 620.2 22.0
606(13) 0.00551 620.7 22.4
596(13) 0.00591 621.2 22.8
602(13) 0.00541 621.6 23.2
610(14) 0.00520 622.1 23.6
627(14) 0.00513 622.5 24.0
667(14) 0.00510 623.0 24.5
634(13) 0.00557 623.5 24.9
654(14) 0.00501 623.9 25.4
623(14) 0.00507 624.4 25.8
603(13) 0.00557 624.8 26.3
619(13) 0.00558 625.3 26.8
625(13) 0.00561 625.8 27.3
626(13) 0.00539 626.2 27.9
637(14) 0.00483 626.7 28.4
650(14) 0.00499 627.1 29.0
616(13) 0.00567 627.6 29.6
608(13) 0.00580 628.1 30.2
639(14) 0.00512 628.5 30.8
662(14) 0.00456 629.0 31.4
647(13) 0.00528 629.5 32.1
637(13) 0.00554 629.9 32.8
636(13) 0.00556 630.4 33.5
615(13) 0.00523 630.8 34.2
637(14) 0.00482 631.3 35.0
629(13) 0.00532 631.8 35.8
631(13) 0.00556 632.2 36.6
652(13) 0.00540 632.7 37.4
667(14) 0.00498 633.1 38.3
670(14) 0.00474 633.6 39.2
635(13) 0.00527 634.1 40.2
655(13) 0.00539 634.5 41.2
659(13) 0.00530 635.0 42.2
671(14) 0.00481 635.4 43.2
657(14) 0.00489 635.9 44.3
704(14) 0.00458 636.4 45.5
621(13) 0.00566 636.8 46.7
655(14) 0.00523 637.3 47.9
664(14) 0.00487 637.7 49.2
677(14) 0.00469 638.2 50.6
686(14) 0.00489 638.7 52.0
649(13) 0.00547 639.1 53.4
682(14) 0.00492 639.6 55.0
675(14) 0.00487 640.0 56.6
680(14) 0.00476 640.5 58.3
680(14) 0.00499 641.0 60.0
673(13) 0.00530 641.4 61.8
691(14) 0.00491 641.9 63.8
700(14) 0.00461 642.3 65.8
686(14) 0.00481 642.8 67.9
677(14) 0.00512 643.3 70.1
688(14) 0.00511 643.7 72.4
704(14) 0.00470 644.2 74.9
664(14) 0.00480 644.7 77.5
704(14) 0.00471 645.1 80.2
721(14) 0.00477 645.6 83.0
680(14) 0.00522 646.0 86.1
697(14) 0.00459 646.5 89.3
684(14) 0.00463 647.0 92.6
692(14) 0.00470 647.4 96.2
678(14) 0.00509 647.9 100.0
720(14) 0.00494 648.3 104.0
709(14) 0.00477 648.8 108.3
710(15) 0.00447 649.3 112.8
727(14) 0.00459 649.7 117.6
729(14) 0.00480 650.2 122.8
734(14) 0.00485 650.6 128.2
727(14) 0.00458 651.1 134.1
741(15) 0.00430 651.6 140.4
759(15) 0.00440 652.0 147.1
753(14) 0.00476 652.5 154.3
772(14) 0.00458 652.9 162.1
753(15) 0.00450 653.4 170.4
772(15) 0.00406 653.9 179.4
770(15) 0.00441 654.3 189.2
806(15) 0.00438 654.8 199.7
802(15) 0.00436 655.2 211.1
817(15) 0.00404 655.7 223.6
830(16) 0.00373 656.2 237.2
854(16) 0.00394 656.6 252.0
875(15) 0.00405 657.1 268.3
859(15) 0.00409 657.5 286.3
914(16) 0.00366 658.0 306.2
894(16) 0.00359 658.5 328.3
937(16) 0.00356 658.9 353.1
1002(16) 0.00359 659.4 381.1
1013(17) 0.003496 659.9 412.9
1088(18) 0.003058 660.3 449.5
1073(18) 0.003063 660.8 491.8
1140(18) 0.002945 661.2 541.3
1233(18) 0.002923 661.7 599.7
1307(19) 0.002661 662.2 669.0
1348(20) 0.002476 662.6 751.6
1495(21) 0.002185 663.1 850.4
1549(21) 0.002246 663.5 968.6
1764(22) 0.002065 664.0 1109.4
1913(23) 0.001805 664.5 1276.6
2096(25) 0.001609 664.9 1473.3
2358(26) 0.001435 665.4 1702.5
2600(27) 0.001331 665.8 1966.8
2936(28) 0.001250 666.3 2267.2
3319(31) 0.001040 666.8 2603.4
3710(33) 0.000914 667.2 2972.1
4175(35) 0.000815 667.7 3366.3
4623(36) 0.000760 668. 3774.
5142(37) 0.000715 669. 4176.
5519(40) 0.000625 669. 4546.
5842(42) 0.000565 670. 4850.
5964(42) 0.000577 670. 5054.
6165(41) 0.000585 670. 5130.
5836(40) 0.000626 671. 5068.
5440(40) 0.000625 671. 4877.
5060(39) 0.000643 672. 4582.
4588(36) 0.000759 672. 4218.
4189(34) 0.000871 672.8 3817.8
3840(32) 0.000954 673.2 3410.0
3508(32) 0.000976 673.7 3013.9
3272(32) 0.000986 674.1 2642.6
2978(29) 0.001168 674.6 2303.4
2780(28) 0.001303 675.1 1999.5
2484(26) 0.001450 675.5 1732.0
2351(26) 0.001431 676.0 1499.6
2159(26) 0.001469 676.4 1300.1
2018(24) 0.001696 676.9 1130.7
1868(22) 0.001942 677.4 987.7
1764(22) 0.002013 677.8 868.0
1723(22) 0.001955 678.3 767.8
1627(22) 0.001946 678.7 684.2
1519(21) 0.002243 679.2 614.3
1400(19) 0.002581 679.7 555.6
1330(19) 0.002666 680.1 506.0
1269(20) 0.002567 680.6 463.8
1225(19) 0.002654 681.0 427.6
1218(19) 0.002787 681.5 396.3
1157(18) 0.003104 682.0 369.0
1081(17) 0.003266 682.4 345.0
1080(18) 0.003074 682.9 323.9
1057(18) 0.003013 683.3 305.2
998(17) 0.003306 683.8 288.7
1021(17) 0.00351 684.3 274.1
971(17) 0.00352 684.7 261.2
971(17) 0.003440 685.2 249.9
953(17) 0.003371 685.6 240.2
923(16) 0.00362 686.1 231.9
908(16) 0.00395 686.6 225.2
893(16) 0.00376 687.0 219.9
881(16) 0.00378 687.5 216.1
910(16) 0.00359 688.0 213.9
912(16) 0.00368 688.4 213.2
959(16) 0.00373 688.9 214.1
925(16) 0.00362 689.3 216.7
900(16) 0.00364 689.8 221.0
935(17) 0.003502 690.3 227.0
925(16) 0.00376 690.7 234.5
920(16) 0.00387 691.2 243.4
939(17) 0.003498 691.6 253.5
883(16) 0.00375 692.1 264.3
922(16) 0.00359 692.6 275.2
928(16) 0.00373 693.0 285.2
930(16) 0.00386 693.5 293.3
971(17) 0.003425 693.9 298.2
961(17) 0.003340 694.4 299.2
961(17) 0.003412 694.9 295.5
954(16) 0.00368 695.3 287.3
896(16) 0.00397 695.8 275.2
965(17) 0.003460 696.2 260.1
913(17) 0.003492 696.7 243.2
850(16) 0.00393 697.2 225.5
807(15) 0.00438 697.6 207.9
859(15) 0.00413 698.1 190.9
804(15) 0.00420 698.5 174.9
838(16) 0.00369 699.0 160.1
781(15) 0.00435 699.5 146.7
778(14) 0.00461 699.9 134.5
823(15) 0.00432 700.4 123.7
710(14) 0.00480 700.8 114.0
749(15) 0.00419 701.3 105.5
766(15) 0.00435 701.8 98.1
768(14) 0.00462 702.2 91.5
767(15) 0.00454 702.7 85.8
738(14) 0.00459 703.2 80.7
740(15) 0.00433 703.6 76.3
712(14) 0.00470 704.1 72.3
716(14) 0.00495 704.5 68.8
753(14) 0.00462 705.0 65.7
806(15) 0.00413 705.5 62.8
743(15) 0.00433 705.9 60.2
700(14) 0.00475 706.4 57.9
728(14) 0.00488 706.8 55.7
708(14) 0.00491 707.3 53.7
709(14) 0.00470 707.8 51.9
711(15) 0.00451 708.2 50.1
725(15) 0.00452 708.7 48.5
759(14) 0.00469 709.1 47.0
756(15) 0.00448 709.6 45.5
747(15) 0.00440 710.1 44.2
729(15) 0.00447 710.5 42.9
673(14) 0.00515 711.0 41.7
691(14) 0.00514 711.4 40.5
726(15) 0.00454 711.9 39.5
710(15) 0.00456 712.4 38.4
718(15) 0.00453 712.8 37.4
664(14) 0.00515 713.3 36.5
711(14) 0.00497 713.7 35.6
701(14) 0.00464 714.2 34.7
717(15) 0.00440 714.7 33.9
708(14) 0.00469 715.1 33.1
711(14) 0.00487 715.6 32.4
677(14) 0.00523 716.0 31.6
739(15) 0.00443 716.5 30.9
736(15) 0.00431 717.0 30.3
713(14) 0.00473 717.4 29.6
737(14) 0.00474 717.9 29.0
719(14) 0.00495 718.4 28.4
699(14) 0.00481 718.8 27.8
757(15) 0.00425 719.3 27.3
725(14) 0.00473 719.7 26.8
733(14) 0.00482 720.2 26.2
713(14) 0.00499 720.7 25.8
696(14) 0.00471 721.1 25.3
693(14) 0.00461 721.6 24.8
731(14) 0.00467 722.0 24.4
706(14) 0.00501 722.5 23.9
748(14) 0.00473 723.0 23.5
719(14) 0.00477 723.4 23.1
716(15) 0.00454 723.9 22.7
716(14) 0.00473 724.3 22.4
755(14) 0.00471 724.8 22.0
726(14) 0.00485 725.3 21.6
777(15) 0.00420 725.7 21.3
744(15) 0.00420 726.2 21.0
742(15) 0.00443 726.6 20.7
705(14) 0.00503 727.1 20.4
741(14) 0.00474 727.6 20.1
757(15) 0.00441 728.0 19.8
724(15) 0.00443 728.5 19.5
709(14) 0.00462 728.9 19.2
709(14) 0.00499 729.4 18.9
746(15) 0.00456 729.9 18.7
771(15) 0.00432 730.3 18.4
716(14) 0.00471 730.8 18.2
750(15) 0.00439 731.2 18.0
760(14) 0.00468 731.7 17.7
732(14) 0.00474 732.2 17.5
748(15) 0.00441 732.6 17.3
744(15) 0.00437 733.1 17.1
746(14) 0.00456 733.6 16.9
698(14) 0.00506 734.0 16.7
752(15) 0.00442 734.5 16.5
747(15) 0.00427 734.9 16.4
763(15) 0.00429 735.4 16.2
745(14) 0.00460 735.9 16.0
734(14) 0.00484 736.3 15.9
766(15) 0.00422 736.8 15.7
726(15) 0.00436 737.2 15.6
720(14) 0.00458 737.7 15.4
747(14) 0.00464 738.2 15.3
786(15) 0.00454 738.6 15.2
763(15) 0.00438 739.1 15.0
770(15) 0.00412 739.6 14.9
788(15) 0.00412 740.2 14.8
747(14) 0.00465 740.7 14.7
736(14) 0.00488 741.2 14.6
750(15) 0.00436 741.7 14.5
748(15) 0.00414 742.2 14.4
733(15) 0.00455 742.8 14.3
701(14) 0.00504 743.3 14.2
754(14) 0.00466 743.8 14.1
772(15) 0.00425 744.3 14.1
726(15) 0.00437 744.8 14.0
747(15) 0.00453 745.4 13.9
759(14) 0.00466 745.9 13.9
749(14) 0.00471 746.4 13.8
749(14) 0.00457 746.9 13.8
781(15) 0.00411 747.4 13.8
741(15) 0.00452 748.0 13.7
748(14) 0.00478 748.5 13.7
764(14) 0.00460 749.0 13.7
757(15) 0.00443 749.5 13.7
757(15) 0.00415 750.0 13.7
739(14) 0.00464 750.6 13.7
792(15) 0.00451 751.1 13.7
759(14) 0.00466 751.6 13.7
771(15) 0.00422 752.1 13.8
765(15) 0.00412 752.7 13.8
771(15) 0.00431 753.2 13.9
774(14) 0.00459 753.7 13.9
736(14) 0.00473 754.2 14.0
725(14) 0.00463 754.7 14.1
751(15) 0.00432 755.3 14.2
762(15) 0.00440 755.8 14.3
756(14) 0.00473 756.3 14.4
736(14) 0.00459 756.8 14.6
741(15) 0.00451 757.3 14.7
755(15) 0.00431 757.9 14.9
786(15) 0.00437 758.4 15.1
720(14) 0.00490 758.9 15.3
757(15) 0.00456 759.4 15.5
784(15) 0.00417 759.9 15.8
753(15) 0.00452 760.5 16.0
759(14) 0.00457 761.0 16.3
734(14) 0.00485 761.5 16.7
767(15) 0.00439 762.0 17.1
757(15) 0.00427 762.5 17.5
779(15) 0.00427 763.1 17.9
808(15) 0.00424 763.6 18.4
747(14) 0.00477 764.1 19.0
746(15) 0.00442 764.6 19.6
772(15) 0.00416 765.2 20.2
785(15) 0.00431 765.7 21.0
793(15) 0.00442 766.2 21.8
795(15) 0.00450 766.7 22.7
811(15) 0.00415 767.2 23.7
788(15) 0.00402 767.8 24.9
802(15) 0.00407 768.3 26.1
733(14) 0.00483 768.8 27.6
764(14) 0.00465 769.3 29.2
831(16) 0.00399 769.8 31.0
835(16) 0.00382 770.4 33.1
814(15) 0.00425 770.9 35.5
840(15) 0.00422 771.4 38.2
821(15) 0.00433 771.9 41.5
809(15) 0.00412 772.4 45.4
841(16) 0.00367 773.0 50.3
852(16) 0.00398 773.5 56.4
869(15) 0.00411 774.0 64.3
889(16) 0.00400 774.5 74.8
912(16) 0.00365 775.1 88.9
919(17) 0.003504 775.6 107.9
954(17) 0.003479 776.1 133.3
953(16) 0.00380 776.6 166.8
1039(17) 0.003348 777.1 209.9
1029(17) 0.003263 777.7 263.7
1143(19) 0.002787 778.2 328.3
1201(19) 0.002804 778.7 402.8
1297(19) 0.002789 779.2 484.5
1304(19) 0.002693 779.7 568.2
1416(20) 0.002387 780.3 645.3
1531(21) 0.002129 780.8 704.7
1505(21) 0.002233 781.3 734.3
1547(20) 0.002357 781.8 727.1
1554(21) 0.002235 782.3 684.8
1411(20) 0.002427 782.9 617.1
1292(19) 0.002597 783.4 536.2
1174(18) 0.002900 783.9 452.5
1061(17) 0.003399 784.4 373.0
1047(17) 0.003260 784.9 301.9
947(17) 0.00354 785.5 241.3
945(17) 0.00351 786.0 191.7
906(16) 0.00377 786.5 152.3
870(15) 0.00409 787.0 122.0
848(16) 0.00401 787.6 99.1
871(16) 0.00376 788.1 82.1
889(16) 0.00371 788.6 69.5
855(15) 0.00406 789.1 60.0
840(15) 0.00423 789.6 52.8
824(16) 0.00401 790.2 47.2
797(15) 0.00411 790.7 42.6
780(15) 0.00443 791.2 38.9
832(15) 0.00417 791.7 35.8
786(15) 0.00453 792.2 33.1
809(15) 0.00407 792.8 30.7
782(15) 0.00408 793.3 28.7
817(15) 0.00412 793.8 26.9
788(15) 0.00452 794.3 25.3
777(14) 0.00461 794.8 23.8
799(15) 0.00420 795.4 22.5
828(16) 0.00378 795.9 21.4
814(15) 0.00426 796.4 20.3
853(15) 0.00414 796.9 19.4
826(15) 0.00431 797.4 18.5
831(15) 0.00403 798.0 17.7
798(16) 0.00395 798.5 17.0
870(16) 0.00382 799.0 16.3
858(15) 0.00415 799.5 15.7
818(15) 0.00433 800.1 15.2
854(16) 0.00400 800.6 14.7
838(16) 0.00365 801.1 14.2
800(15) 0.00417 801.6 13.8
812(15) 0.00437 802.1 13.3
796(15) 0.00449 802.7 13.0
806(15) 0.00422 803.2 12.6
807(16) 0.00393 803.7 12.3
792(15) 0.00411 804.2 12.0
808(15) 0.00440 804.7 11.7
819(15) 0.00429 805.3 11.4
827(15) 0.00405 805.8 11.2
791(16) 0.00401 806.3 10.9
804(16) 0.00399 806.8 10.7
792(15) 0.00451 807.3 10.5
820(15) 0.00421 807.9 10.3
801(15) 0.00422 808.4 10.1
788(15) 0.00421 808.9 9.9
843(15) 0.00403 809.4 9.8
858(15) 0.00419 809.9 9.6
842(15) 0.00404 810.5 9.5
823(16) 0.00396 811.0 9.3
807(15) 0.00408 811.5 9.2
806(15) 0.00427 812.0 9.1
823(15) 0.00434 812.6 9.0
814(15) 0.00420 813.1 8.9
814(16) 0.00399 813.6 8.8
822(15) 0.00406 814.1 8.7
811(15) 0.00430 814.6 8.6
844(15) 0.00419 815.2 8.5
803(15) 0.00417 815.7 8.4
787(15) 0.00426 816.2 8.3
848(16) 0.00388 816.7 8.3
873(16) 0.00392 817.2 8.2
828(15) 0.00434 817.8 8.1
845(16) 0.00399 818.3 8.1
794(15) 0.00416 818.8 8.0
846(16) 0.00393 819.3 8.0
839(15) 0.00424 819.8 7.9
807(15) 0.00443 820.4 7.9
807(15) 0.00415 820.9 7.8
846(16) 0.00373 821.4 7.8
824(15) 0.00414 821.9 7.8
838(15) 0.00421 822.5 7.7
882(16) 0.00401 823.0 7.7
823(15) 0.00411 823.5 7.7
845(16) 0.00364 824.0 7.6
798(15) 0.00421 824.5 7.6
790(15) 0.00448 825.1 7.6
833(15) 0.00427 825.6 7.6
826(15) 0.00417 826.1 7.6
877(17) 0.003489 826.6 7.6
813(15) 0.00420 827.1 7.5
866(15) 0.00413 827.7 7.5
832(15) 0.00425 828.2 7.5
815(15) 0.00410 828.7 7.5
801(16) 0.00398 829.2 7.5
797(15) 0.00424 829.7 7.5
847(15) 0.00420 830.3 7.5
867(15) 0.00404 830.8 7.5
825(15) 0.00406 831.3 7.6
825(16) 0.00382 831.8 7.6
803(15) 0.00411 832.3 7.6
837(15) 0.00428 832.9 7.6
855(15) 0.00408 833.4 7.6
829(16) 0.00401 833.9 7.6
833(16) 0.00386 834.4 7.7
787(15) 0.00435 834.9 7.7
858(15) 0.00417 835.5 7.7
878(16) 0.00390 836.0 7.7
862(16) 0.00382 836.5 7.8
850(16) 0.00381 837.0 7.8
828(15) 0.00412 837.5 7.8
839(15) 0.00426 838.0 7.9
872(16) 0.00380 838.5 7.9
832(16) 0.00398 839.0 8.0
859(16) 0.00381 839.6 8.0
820(15) 0.00430 840.1 8.1
886(16) 0.00401 840.6 8.1
837(16) 0.00394 841.1 8.2
845(16) 0.00381 841.6 8.2
870(16) 0.00381 842.1 8.3
897(16) 0.00390 842.6 8.4
878(15) 0.00408 843.1 8.4
816(15) 0.00405 843.7 8.5
831(16) 0.00391 844.2 8.6
856(16) 0.00391 844.7 8.7
855(15) 0.00406 845.2 8.7
827(15) 0.00433 845.7 8.8
851(15) 0.00402 846.2 8.9
872(16) 0.00365 846.7 9.0
888(16) 0.00371 847.2 9.1
851(15) 0.00409 847.8 9.2
846(15) 0.00424 848.3 9.3
912(16) 0.00373 848.8 9.4
849(16) 0.00376 849.3 9.5
829(16) 0.00401 849.8 9.7
873(15) 0.00408 850.3 9.8
926(16) 0.00386 850.8 9.9
895(16) 0.00383 851.3 10.0
905(17) 0.003415 851.9 10.2
853(16) 0.00390 852.4 10.3
845(15) 0.00426 852.9 10.5
860(15) 0.00413 853.4 10.6
830(15) 0.00403 853.9 10.8
935(17) 0.003332 854.4 11.0
899(16) 0.00368 854.9 11.1
885(15) 0.00406 855.4 11.3
832(15) 0.00411 856.0 11.5
812(15) 0.00408 856.5 11.7
881(17) 0.00352 857.0 11.9
855(16) 0.00383 857.5 12.1
889(16) 0.00400 858.0 12.4
884(15) 0.00401 858.5 12.6
874(16) 0.00380 859.0 12.9
835(16) 0.00398 859.5 13.1
876(16) 0.00388 860.1 13.4
841(15) 0.00422 860.6 13.7
871(16) 0.00394 861.1 14.0
847(16) 0.00385 861.6 14.3
856(16) 0.00380 862.1 14.6
908(16) 0.00374 862.6 14.9
888(15) 0.00401 863.1 15.3
875(16) 0.00382 863.6 15.6
891(16) 0.00363 864.2 16.0
878(16) 0.00377 864.7 16.4
883(16) 0.00393 865.2 16.9
874(15) 0.00408 865.7 17.3
901(16) 0.00376 866.2 17.8
908(16) 0.00359 866.7 18.3
878(16) 0.00385 867.2 18.8
860(15) 0.00402 867.8 19.3
860(15) 0.00416 868.3 19.9
895(16) 0.00371 868.8 20.5
886(16) 0.00368 869.3 21.1
856(16) 0.00400 869.8 21.8
867(15) 0.00405 870.3 22.5
925(16) 0.00388 870.8 23.2
885(16) 0.00379 871.3 24.0
900(16) 0.00359 871.9 24.8
878(16) 0.00384 872.4 25.7
904(16) 0.00396 872.9 26.7
885(15) 0.00404 873.4 27.6
895(16) 0.00374 873.9 28.7
912(17) 0.00352 874.4 29.8
887(16) 0.00383 874.9 31.0
881(15) 0.00405 875.4 32.3
890(15) 0.00403 876.0 33.7
950(17) 0.00351 876.5 35.1
897(16) 0.00356 877.0 36.7
880(16) 0.00381 877.5 38.3
909(16) 0.00394 878.0 40.1
880(15) 0.00405 878.5 42.1
949(17) 0.003493 879.0 44.1
918(17) 0.003400 879.5 46.4
896(16) 0.00360 880.1 48.8
952(16) 0.00378 880.6 51.5
927(16) 0.00383 881.1 54.4
928(16) 0.00364 881.6 57.5
949(17) 0.003381 882.1 61.0
955(17) 0.00355 882.6 64.8
931(16) 0.00383 883.1 69.0
1017(17) 0.003436 883.6 73.7
995(17) 0.003385 884.2 79.0
967(17) 0.003384 884.7 84.9
971(17) 0.003454 885.2 91.5
999(16) 0.00363 885.7 99.1
1032(17) 0.003347 886.2 107.6
1022(17) 0.003267 886.7 117.3
1053(18) 0.003112 887.2 128.4
1057(17) 0.003206 887.7 141.0
1034(17) 0.003489 888.3 155.3
1065(17) 0.003226 888.8 171.6
1082(18) 0.003017 889.3 190.2
1099(18) 0.003033 889.8 211.1
1124(18) 0.003127 890.3 234.6
1180(18) 0.003052 890.8 261.0
1212(19) 0.002825 891.3 290.3
1169(18) 0.002872 891.8 322.7
1240(19) 0.002736 892.4 358.0
1278(19) 0.002727 892.9 396.2
1342(19) 0.002702 893.4 436.9
1387(20) 0.002459 893.9 479.4
1472(21) 0.002233 894.4 522.6
1520(21) 0.002212 894.9 565.2
1559(21) 0.002260 895.4 605.0
1665(21) 0.002185 895.9 639.8
1600(21) 0.002151 896.5 667.1
1676(23) 0.001938 897.0 684.6
1669(22) 0.002018 897.5 690.6
1604(21) 0.002248 898.0 684.6
1626(21) 0.002228 898.5 667.1
1520(21) 0.002271 899.0 639.8
1430(21) 0.002251 899.5 605.0
1422(20) 0.002396 900.1 565.1
1418(20) 0.002548 900.6 522.6
1410(20) 0.002548 901.1 479.3
1309(19) 0.002580 901.6 436.8
1302(20) 0.002424 902.1 396.1
1292(19) 0.002646 902.6 357.9
1256(18) 0.002877 903.1 322.5
1230(18) 0.002930 903.6 290.2
1212(19) 0.002801 904.2 260.8
1212(19) 0.002649 904.7 234.4
1184(19) 0.002819 905.2 210.9
1126(17) 0.003173 905.7 189.9
1110(17) 0.003219 906.2 171.4
1102(18) 0.003085 906.7 155.1
1059(18) 0.003064 907.2 140.7
1046(17) 0.003267 907.7 128.1
1061(17) 0.003402 908.3 117.0
1061(17) 0.003354 908.8 107.3
1044(17) 0.003301 909.3 98.7
1035(18) 0.003151 909.8 91.2
1019(17) 0.003270 910.3 84.5
1065(17) 0.003382 910.8 78.6
985(17) 0.00355 911.3 73.3
990(17) 0.003398 911.8 68.6
1034(18) 0.003118 912.4 64.4
1001(17) 0.003439 912.9 60.5
1063(17) 0.003383 913.4 57.1
1004(17) 0.003420 913.9 53.9
982(17) 0.003398 914.4 51.0
985(17) 0.003329 914.9 48.3
934(16) 0.00368 915.4 45.9
989(16) 0.00363 915.9 43.6
1012(17) 0.003413 916.5 41.5
984(17) 0.003282 917.0 39.6
946(17) 0.003489 917.5 37.7
991(17) 0.003499 918.0 36.1
1004(16) 0.00359 918.5 34.5
961(17) 0.003487 919.0 33.0
944(17) 0.003471 919.5 31.6
956(17) 0.00354 920.0 30.4
953(16) 0.00366 920.6 29.1
961(16) 0.00370 921.1 28.0
978(17) 0.003360 921.6 26.9
966(17) 0.003345 922.1 25.9
983(17) 0.003438 922.6 25.0
935(16) 0.00383 923.1 24.1
952(16) 0.00376 923.6 23.2
929(16) 0.00364 924.1 22.4
940(17) 0.003325 924.7 21.7
948(17) 0.00351 925.2 21.0
998(16) 0.00356 925.7 20.3
933(16) 0.00384 926.2 19.6
970(17) 0.003505 926.7 19.0
984(18) 0.003144 927.2 18.4
928(16) 0.00362 927.7 17.9
965(16) 0.00371 928.2 17.3
961(16) 0.00372 928.8 16.8
979(17) 0.003377 929.3 16.3
947(17) 0.003313 929.8 15.9
968(17) 0.00354 930.3 15.4
986(16) 0.00362 930.8 15.0
990(16) 0.00359 931.3 14.6
973(17) 0.00352 931.8 14.2
1005(18) 0.003143 932.4 13.9
970(17) 0.003450 932.9 13.5
952(16) 0.00378 933.4 13.2
984(16) 0.00357 933.9 12.8
913(16) 0.00371 934.4 12.5
956(17) 0.003390 934.9 12.2
961(17) 0.003430 935.4 11.9
977(16) 0.00367 935.9 11.7
986(16) 0.00356 936.5 11.4
982(17) 0.003391 937.0 11.1
972(17) 0.003425 937.5 10.9
970(17) 0.003467 938.0 10.6
957(16) 0.00375 938.5 10.4
967(16) 0.00356 939.0 10.2
983(17) 0.003401 939.5 10.0
958(17) 0.003423 940.0 9.8
1009(17) 0.003362 940.6 9.6
983(16) 0.00364 941.1 9.4
978(17) 0.003471 941.6 9.2
976(17) 0.003369 942.1 9.0
970(17) 0.003450 942.6 8.9
991(17) 0.003481 943.1 8.7
949(16) 0.00378 943.6 8.6
948(17) 0.003505 944.1 8.4
968(17) 0.003290 944.7 8.3
942(16) 0.00359 945.2 8.1
962(16) 0.00366 945.7 8.0
1009(16) 0.00356 946.2 7.8
996(17) 0.003346 946.7 7.7
989(17) 0.003300 947.2 7.6
986(17) 0.003396 947.7 7.5
942(16) 0.00373 948.2 7.3
993(16) 0.00363 948.8 7.2
971(17) 0.003448 949.3 7.1
953(17) 0.003345 949.8 7.0
1013(17) 0.003213 950.3 6.9
957(16) 0.00370 950.8 6.8
987(16) 0.00367 951.3 6.7
974(17) 0.003466 951.8 6.6
991(18) 0.003133 952.3 6.5
1003(17) 0.003397 952.9 6.4
978(16) 0.00368 953.4 6.3
995(16) 0.00358 953.9 6.2
964(16) 0.00356 954.4 6.1
945(17) 0.003272 954.9 6.0
947(17) 0.00352 955.4 6.0
964(16) 0.00373 955.9 5.9
982(16) 0.00363 956.4 5.8
958(17) 0.003493 957.0 5.7
936(17) 0.003409 957.5 5.7
946(17) 0.00353 958.0 5.6
948(16) 0.00378 958.5 5.5
954(16) 0.00367 959.0 5.5
963(17) 0.00354 959.5 5.4
955(17) 0.003352 960.0 5.3
986(17) 0.003210 960.5 5.3
954(16) 0.00377 961.1 5.2
1022(17) 0.003424 961.6 5.1
1005(17) 0.003355 962.1 5.1
946(17) 0.003461 962.6 5.0
956(17) 0.003466 963.1 5.0
977(16) 0.00368 963.6 4.9
964(16) 0.00363 964.1 4.9
989(17) 0.003347 964.7 4.8
928(16) 0.00357 965.2 4.8
996(17) 0.003354 965.7 4.7
972(16) 0.00372 966.2 4.7
991(17) 0.00351 966.7 4.6
975(17) 0.003440 967.2 4.6
986(17) 0.003345 967.7 4.6
942(16) 0.00362 968.2 4.5
1000(16) 0.00358 968.8 4.5
984(17) 0.003444 969.3 4.5
974(17) 0.003420 969.8 4.4
1011(17) 0.003290 970.3 4.4
1053(17) 0.003339 970.8 4.3
1000(16) 0.00359 971.3 4.3
973(17) 0.003406 971.8 4.3
982(17) 0.003302 972.3 4.3
1010(17) 0.003307 972.9 4.2
990(17) 0.00354 973.4 4.2
981(16) 0.00370 973.9 4.2
955(17) 0.003494 974.4 4.2
967(17) 0.003299 974.9 4.1
982(17) 0.003380 975.4 4.1
1006(17) 0.00352 975.9 4.1
1016(17) 0.00353 976.4 4.1
992(17) 0.003417 977.0 4.1
1003(17) 0.003221 977.5 4.0
987(17) 0.003431 978.0 4.0
957(16) 0.00375 978.5 4.0
1002(16) 0.00358 979.0 4.0
1026(17) 0.003258 979.5 4.0
1022(18) 0.003047 980.0 4.0
990(17) 0.003408 980.5 4.0
992(16) 0.00362 981.1 4.0
969(16) 0.00367 981.6 4.0
988(17) 0.003381 982.1 4.0
983(17) 0.003257 982.6 4.0
1033(17) 0.003234 983.1 4.0
985(16) 0.00367 983.6 4.0
995(17) 0.00352 984.1 4.1
1026(17) 0.003272 984.6 4.1
959(17) 0.003348 985.2 4.1
1026(17) 0.003223 985.7 4.1
1009(16) 0.00358 986.2 4.2
972(16) 0.00362 986.7 4.2
993(17) 0.003355 987.2 4.2
937(17) 0.003502 987.7 4.3
971(17) 0.003477 988.2 4.3
1000(16) 0.00361 988.7 4.3
1009(17) 0.003445 989.3 4.4
1014(17) 0.003277 989.8 4.4
1008(17) 0.003201 990.3 4.5
990(17) 0.003353 990.8 4.5
990(16) 0.00363 991.3 4.6
964(16) 0.00358 991.8 4.6
971(17) 0.003397 992.3 4.7
997(17) 0.003274 992.8 4.7
996(17) 0.003456 993.4 4.8
1015(17) 0.00355 993.9 4.8
1023(17) 0.003339 994.4 4.9
1026(17) 0.003181 994.9 4.9
978(17) 0.003371 995.4 5.0
1009(17) 0.003422 995.9 5.0
989(16) 0.00362 996.4 5.0
981(17) 0.003383 997.0 5.0
976(17) 0.003329 997.5 5.0
972(17) 0.003480 997.8 5.0
1015(17) 0.003459 997.8 5.0
974(16) 0.00369 997.9 4.9
983(17) 0.003434 998.0 4.9
978(17) 0.003313 998.0 4.8
972(17) 0.003485 998.1 4.8
1015(17) 0.00351 998.2 4.7
985(16) 0.00366 998.3 4.6
1022(17) 0.003308 998.3 4.6
966(17) 0.003390 998.4 4.5
978(17) 0.003395 998.5 4.4
993(16) 0.00358 998.5 4.4
1031(17) 0.003490 998.6 4.3
1036(17) 0.003206 998.7 4.2
996(18) 0.003172 998.8 4.1
1002(17) 0.003430 998.8 4.1
996(16) 0.00357 998.9 4.0
991(16) 0.00363 999.0 3.9
1026(17) 0.003320 999.1 3.9
1020(18) 0.003097 999.1 3.8
995(17) 0.003347 999.2 3.8
984(16) 0.00366 999.3 3.7
997(17) 0.00355 999.3 3.7
1041(17) 0.003278 999.4 3.6
1023(17) 0.003175 999.5 3.6
1008(17) 0.003293 999.6 3.5
981(16) 0.00366 999.6 3.5
1009(17) 0.003460 999.7 3.5
1022(17) 0.003241 999.8 3.4
1037(18) 0.003116 999.8 3.4
1024(17) 0.003236 999.9 3.4
1027(17) 0.003494 1000.0 3.4
988(17) 0.00352 1000.1 3.4
992(17) 0.003420 1000.1 3.3
1004(17) 0.003325 1000.2 3.3
1039(17) 0.003208 1000.3 3.3
1049(17) 0.003426 1000.4 3.3
1031(17) 0.003307 1000.4 3.3
1004(17) 0.003367 1000.5 3.3
998(17) 0.003266 1000.6 3.3
962(17) 0.00353 1000.6 3.3
973(16) 0.00367 1000.7 3.3
1010(17) 0.003376 1000.8 3.3
1003(17) 0.003311 1000.9 3.3
1032(18) 0.003135 1000.9 3.3
974(17) 0.003497 1001.0 3.3
960(16) 0.00372 1001.1 3.3
982(17) 0.003382 1001.1 3.3
1007(17) 0.003184 1001.2 3.3
957(17) 0.003497 1001.3 3.3
1051(17) 0.003276 1001.4 3.3
1039(17) 0.003423 1001.4 3.4
1034(17) 0.003286 1001.5 3.4
1063(18) 0.002986 1001.6 3.4
1025(17) 0.003268 1001.6 3.4
1029(17) 0.003389 1001.7 3.4
995(16) 0.00361 1001.8 3.5
1061(18) 0.003124 1001.9 3.5
1001(17) 0.003234 1001.9 3.5
968(17) 0.003455 1002.0 3.6
985(16) 0.00359 1002.1 3.6
1080(17) 0.003341 1002.2 3.6
1055(18) 0.003144 1002.2 3.7
1028(18) 0.003025 1002.3 3.7
1004(17) 0.003351 1002.4 3.8
1018(17) 0.003479 1002.4 3.8
1070(17) 0.003331 1002.5 3.9
1045(17) 0.003221 1002.6 3.9
1048(18) 0.003072 1002.7 4.0
1043(17) 0.003215 1002.7 4.0
1018(17) 0.00354 1002.8 4.1
997(16) 0.00358 1002.9 4.2
1024(17) 0.003271 1002.9 4.2
1001(18) 0.003147 1003.0 4.3
1036(17) 0.003249 1003.1 4.4
1030(17) 0.003492 1003.2 4.5
1035(17) 0.003430 1003.2 4.6
1033(17) 0.003222 1003.3 4.7
1008(17) 0.003220 1003.4 4.8
1018(17) 0.003316 1003.5 4.9
1033(17) 0.003478 1003.5 5.0
1032(17) 0.003446 1003.6 5.1
1059(18) 0.003082 1003.7 5.3
1044(18) 0.003090 1003.7 5.4
994(17) 0.003415 1003.8 5.6
993(16) 0.00363 1003.9 5.7
1017(17) 0.003432 1004.0 5.9
1050(17) 0.003232 1004.0 6.1
1048(18) 0.003147 1004.1 6.3
1005(17) 0.003366 1004.2 6.5
1017(16) 0.00356 1004.2 6.7
1049(17) 0.003255 1004.3 7.0
984(17) 0.003350 1004.4 7.3
1003(17) 0.003283 1004.5 7.6
1059(17) 0.003251 1004.5 7.9
1031(17) 0.003497 1004.6 8.2
1021(17) 0.003309 1004.7 8.6
1042(17) 0.003175 1004.7 9.0
1027(17) 0.003305 1004.8 9.5
1004(17) 0.003488 1004.9 9.9
1036(17) 0.003457 1005.0 10.5
1013(17) 0.003260 1005.0 11.1
1056(18) 0.003008 1005.1 11.7
1029(17) 0.003308 1005.2 12.4
1016(17) 0.003497 1005.3 13.1
1034(17) 0.003496 1005.3 14.0
1051(17) 0.003196 1005.4 14.8
1040(18) 0.003109 1005.5 15.8
1078(18) 0.003124 1005.5 16.9
1040(17) 0.003412 1005.6 18.0
1059(17) 0.003414 1005.7 19.2
1055(18) 0.003146 1005.8 20.5
1035(18) 0.003051 1005.8 21.9
1032(17) 0.003254 1005.9 23.4
1032(17) 0.003471 1006.0 25.0
1072(17) 0.003356 1006.0 26.7
1053(17) 0.003216 1006.1 28.4
1030(18) 0.002969 1006.2 30.2
984(17) 0.003469 1006.3 32.1
1029(17) 0.003495 1006.3 34.0
1096(17) 0.003267 1006.4 35.9
1045(17) 0.003277 1006.5 37.7
1021(17) 0.003200 1006.6 39.5
1031(17) 0.003292 1006.6 41.1
1066(17) 0.003396 1006.7 42.5
1029(17) 0.003437 1006.8 43.7
1022(17) 0.003270 1006.8 44.5
1016(17) 0.003221 1006.9 45.0
1065(18) 0.003133 1007.0 45.2
1043(17) 0.003445 1007.1 45.0
1058(17) 0.003326 1007.1 44.4
1061(17) 0.003200 1007.2 43.5
1071(18) 0.003008 1007.3 42.3
1027(17) 0.003285 1007.3 40.8
1032(17) 0.003478 1007.4 39.2
1058(17) 0.003297 1007.5 37.4
1064(18) 0.003142 1007.6 35.5
1043(17) 0.003230 1007.6 33.6
1060(17) 0.003188 1007.7 31.7
1016(17) 0.00353 1007.8 29.9
1001(17) 0.003445 1007.8 28.0
1023(17) 0.003213 1007.9 26.3
1048(18) 0.003137 1008.0 24.6
1047(17) 0.003329 1008.1 23.0
1051(17) 0.003411 1008.1 21.6
1018(17) 0.003339 1008.2 20.2
1040(18) 0.003161 1008.3 18.8
1070(18) 0.003100 1008.4 17.6
1024(17) 0.003336 1008.4 16.5
1026(17) 0.003484 1008.5 15.5
1055(17) 0.003194 1008.6 14.5
1007(17) 0.003295 1008.6 13.6
1025(17) 0.003296 1008.7 12.8
1036(17) 0.003398 1008.8 12.0
1041(17) 0.003470 1008.9 11.3
1026(17) 0.003256 1008.9 10.7
1043(18) 0.003087 1009.0 10.1
1026(17) 0.003275 1009.1 9.6
1007(17) 0.00352 1009.1 9.1
1080(17) 0.003356 1009.2 8.6
1091(18) 0.003096 1009.3 8.2
1008(17) 0.003184 1009.4 7.8
1051(17) 0.003182 1009.4 7.5
1041(17) 0.003406 1009.5 7.1
1049(17) 0.003430 1009.6 6.8
1034(17) 0.003266 1009.7 6.6
1032(18) 0.002996 1009.7 6.3
1017(17) 0.003303 1009.8 6.1
997(16) 0.00363 1009.9 5.8
991(16) 0.00363 1009.9 5.6
993(17) 0.003351 1010.0 5.4
1055(18) 0.002969 1010.1 5.2
1036(17) 0.003276 1010.2 5.1
1021(17) 0.00352 1010.2 4.9
1027(17) 0.003457 1010.3 4.7
1062(17) 0.003179 1010.4 4.6
1061(18) 0.002993 1010.4 4.5
989(17) 0.003434 1010.5 4.3
1041(17) 0.003465 1010.6 4.2
1061(17) 0.003299 1010.7 4.1
1063(18) 0.003168 1010.7 4.0
1037(17) 0.003182 1010.8 3.9
1044(17) 0.003198 1010.9 3.8
1027(17) 0.00351 1010.9 3.7
985(17) 0.00352 1011.0 3.6
1079(18) 0.003042 1011.1 3.5
1018(17) 0.003234 1011.2 3.4
1018(17) 0.003327 1011.2 3.4
997(16) 0.00362 1011.3 3.3
1011(17) 0.003418 1011.4 3.2
1041(18) 0.003162 1011.5 3.1
1008(17) 0.003273 1011.5 3.1
1052(17) 0.003230 1011.6 3.0
1025(17) 0.00351 1011.7 3.0
984(17) 0.003455 1011.7 2.9
1070(18) 0.003100 1011.8 2.8
1043(17) 0.003185 1011.9 2.8
969(16) 0.00363 1012.0 2.7
1036(17) 0.003471 1012.0 2.7
1051(17) 0.003174 1012.1 2.6
1076(18) 0.003010 1012.2 2.6
1091(18) 0.003037 1012.2 2.6
1068(17) 0.003315 1012.3 2.5
1036(17) 0.003492 1012.4 2.5
952(16) 0.00360 1012.5 2.4
1001(17) 0.003247 1012.5 2.4
1049(17) 0.003218 1012.6 2.4
1011(17) 0.003484 1012.7 2.3
1052(17) 0.003410 1012.8 2.3
1059(17) 0.003230 1012.8 2.3
1022(18) 0.003145 1012.9 2.2
1045(18) 0.003172 1013.0 2.2
1050(17) 0.003396 1013.0 2.2
1027(17) 0.003488 1013.1 2.1
1005(17) 0.003327 1013.2 2.1
1016(18) 0.003133 1013.3 2.1
1004(17) 0.003384 1013.3 2.0
1048(17) 0.003400 1013.4 2.0
993(16) 0.00360 1013.5 2.0
1018(17) 0.003328 1013.5 2.0
993(17) 0.003234 1013.6 2.0
1080(18) 0.003054 1013.7 1.9
1030(17) 0.003491 1013.8 1.9
992(16) 0.00361 1013.8 1.9
1009(17) 0.003349 1013.9 1.9
1013(18) 0.003143 1014.0 1.8
1000(17) 0.003392 1014.0 1.8
997(16) 0.00362 1014.1 1.8
1047(17) 0.003390 1014.2 1.8
1076(18) 0.003085 1014.3 1.8
1013(17) 0.003254 1014.3 1.8
1031(17) 0.003246 1014.4 1.7
1052(17) 0.003421 1014.5 1.7
995(17) 0.003436 1014.6 1.7
1020(17) 0.003272 1014.6 1.7
1012(17) 0.003309 1014.7 1.7
1012(17) 0.003289 1014.8 1.7
990(16) 0.00364 1014.8 1.6
1018(17) 0.003408 1014.9 1.6
995(17) 0.003403 1015.0 1.6
966(17) 0.003423 1015.1 1.6
1002(17) 0.003384 1015.1 1.6
1022(17) 0.003493 1015.2 1.6
1046(17) 0.003298 1015.3 1.6
998(17) 0.003346 1015.3 1.5
1021(17) 0.003283 1015.4 1.5
1026(17) 0.003407 1015.1 1.5
1024(17) 0.003504 1014.6 1.5
1060(18) 0.003160 1014.1 1.5
1014(17) 0.003251 1013.7 1.5
996(17) 0.003385 1013.2 1.5
1011(17) 0.003406 1012.8 1.5
995(16) 0.00364 1012.3 1.5
959(17) 0.00351 1011.9 1.4
1017(18) 0.003168 1011.4 1.4
1001(17) 0.003383 1011.0 1.4
988(16) 0.00361 1010.5 1.4
1005(16) 0.00358 1010.1 1.4
1013(17) 0.003323 1009.6 1.4
1026(18) 0.003116 1009.1 1.4
1060(18) 0.003144 1008.7 1.4
1034(17) 0.003443 1008.2 1.4
1019(17) 0.00351 1007.8 1.4
1004(17) 0.003306 1007.3 1.4
1009(18) 0.003147 1006.9 1.3
1054(17) 0.003207 1006.4 1.3
1025(17) 0.003470 1006.0 1.3
992(16) 0.00362 1005.5 1.3
1026(17) 0.003272 1005.1 1.3
1034(18) 0.003016 1004.6 1.3
1019(17) 0.003330 1004.1 1.3
1050(17) 0.003442 1003.7 1.3
1001(17) 0.00355 1003.2 1.3
998(17) 0.003400 1002.8 1.3
1049(18) 0.003017 1002.3 1.3
986(17) 0.003409 1001.9 1.3
1019(17) 0.00353 1001.4 1.3
1019(17) 0.003497 1001.0 1.3
1013(17) 0.003325 1000.5 1.3
1002(17) 0.003276 1000.1 1.3
1016(17) 0.003261 999.6 1.3
988(16) 0.00365 999.1 1.3
1028(17) 0.003408 998.7 1.3
1015(17) 0.003322 998.2 1.3
993(17) 0.003337 997.8 1.3
1035(17) 0.003258 997.3 1.3
1045(17) 0.003471 996.9 1.3
993(17) 0.00354 996.4 1.3
1010(17) 0.003289 996.0 1.3
1053(18) 0.003121 995.5 1.3
1015(17) 0.003334 995.1 1.3
972(16) 0.00371 994.6 1.3
970(17) 0.003491 994.1 1.3
987(17) 0.003329 993.7 1.2
1004(17) 0.003370 993.2 1.2
1014(17) 0.003415 992.8 1.2
992(16) 0.00360 992.3 1.2
1020(17) 0.003336 991.9 1.2
955(17) 0.003457 991.4 1.2
963(17) 0.003434 991.0 1.2
1016(17) 0.003452 990.5 1.2
1053(17) 0.003419 990.1 1.2
1006(17) 0.003357 989.6 1.2
958(17) 0.003480 989.1 1.2
1017(17) 0.003324 988.7 1.2
997(17) 0.00351 988.2 1.2
1007(16) 0.00358 987.8 1.2
974(17) 0.003462 987.3 1.2
982(17) 0.003280 986.9 1.2
1006(17) 0.003342 986.4 1.2
983(16) 0.00365 986.0 1.2
963(16) 0.00372 985.5 1.2
979(17) 0.003445 985.1 1.2
1001(17) 0.003197 984.6 1.2
998(17) 0.003359 984.1 1.2
1007(17) 0.00351 983.7 1.2
1037(17) 0.003404 983.2 1.2
993(17) 0.003438 982.8 1.2
1029(18) 0.003034 982.3 1.2
991(17) 0.003430 981.9 1.2
985(16) 0.00365 981.4 1.2
954(16) 0.00371 981.0 1.2
990(17) 0.003363 980.5 1.2
1003(18) 0.003156 980.1 1.2
994(17) 0.003365 979.6 1.1
1015(17) 0.00353 979.1 1.1
1001(16) 0.00360 978.7 1.1
976(17) 0.003506 978.2 1.1
990(17) 0.003323 977.8 1.1
970(17) 0.003503 977.3 1.1
1006(16) 0.00359 976.9 1.1
962(16) 0.00364 976.4 1.1
1033(17) 0.003219 976.0 1.1
993(17) 0.003294 975.5 1.1
966(17) 0.003472 975.0 1.1
958(16) 0.00374 974.6 1.1
1011(17) 0.003459 974.1 1.1
955(16) 0.00357 973.7 1.1
973(17) 0.003474 973.2 1.1
984(17) 0.003434 972.8 1.1
1001(16) 0.00360 972.3 1.1
975(17) 0.003501 971.9 1.1
971(17) 0.003404 971.4 1.1
960(17) 0.003434 971.0 1.1
981(17) 0.003486 970.5 1.1
992(16) 0.00363 970.0 1.1
984(17) 0.003392 969.6 1.1
987(17) 0.003273 969.1 1.1
957(17) 0.003469 968.7 1.1
997(17) 0.003476 968.2 1.1
985(16) 0.00364 967.8 1.1
965(17) 0.003473 967.3 1.1
951(17) 0.003346 966.9 1.1
958(17) 0.003459 966.4 1.1
950(16) 0.00369 966.0 1.1
943(16) 0.00382 965.5 1.1
1062(18) 0.003115 965.0 1.1
961(17) 0.003359 964.6 1.1
961(17) 0.003463 964.1 1.1
952(16) 0.00374 963.7 1.1
927(16) 0.00391 963.2 1.1
994(17) 0.003404 962.8 1.1
1033(18) 0.003079 962.3 1.1
962(16) 0.00357 961.9 1.1
942(16) 0.00380 961.4 1.1
982(16) 0.00365 961.0 1.1
1028(17) 0.003187 960.5 1.1
983(18) 0.003168 960.0 1.1
1007(17) 0.003326 959.6 1.1
977(16) 0.00372 959.1 1.1
916(16) 0.00389 958.7 1.1
948(17) 0.00355 958.2 1.1
970(17) 0.003187 957.8 1.1
959(17) 0.003442 957.3 1.1
957(16) 0.00376 956.9 1.1
957(16) 0.00373 956.4 1.1
944(17) 0.00354 956.0 1.1
972(17) 0.003249 955.5 1.1
963(17) 0.003465 955.0 1.1
998(16) 0.00357 954.6 1.1
953(16) 0.00371 954.1 1.1
970(17) 0.003431 953.7 1.1
999(17) 0.003198 953.2 1.1
990(17) 0.003408 952.8 1.1
967(16) 0.00370 952.3 1.1
989(17) 0.003484 951.9 1.1
947(17) 0.003486 951.4 1.1
952(17) 0.003402 951.0 1.1
953(17) 0.00356 950.5 1.1
931(16) 0.00387 950.0 1.1
963(17) 0.00351 949.6 1.1
964(17) 0.003438 949.1 1.1
954(17) 0.003468 948.7 1.1
948(16) 0.00361 948.2 1.1
975(16) 0.00368 947.8 1.1
968(17) 0.00353 947.3 1.1
960(17) 0.003439 946.9 1.1
982(17) 0.003338 946.4 1.1
957(16) 0.00368 946.0 1.1
926(16) 0.00385 945.5 1.1
920(16) 0.00363 945.0 1.1
919(17) 0.00353 944.6 1.1
988(17) 0.003322 944.1 1.1
961(16) 0.00367 943.7 1.1
985(16) 0.00366 943.2 1.1
955(17) 0.003505 942.8 1.1
958(17) 0.003324 942.3 1.1
976(17) 0.003379 941.9 1.1
892(16) 0.00393 941.4 1.1
929(16) 0.00387 941.0 1.1
974(17) 0.003413 940.5 1.1
946(17) 0.003356 940.0 1.1
899(16) 0.00376 939.6 1.1
895(16) 0.00398 939.1 1.1
927(16) 0.00385 938.7 1.1
959(17) 0.003495 938.2 1.1
924(17) 0.003410 937.8 1.1
970(17) 0.003463 937.3 1.1
924(16) 0.00389 936.9 1.1
948(16) 0.00376 936.4 1.1
912(16) 0.00375 936.0 1.1
940(17) 0.003354 935.5 1.1
947(17) 0.00351 935.0 1.1
958(16) 0.00375 934.6 1.1
936(16) 0.00382 934.1 1.1
944(16) 0.00356 933.7 1.1
911(17) 0.003496 933.2 1.1
918(16) 0.00366 932.8 1.1
981(16) 0.00365 932.3 1.1
932(16) 0.00382 931.9 1.1
921(16) 0.00363 931.4 1.1
946(17) 0.003440 931.0 1.1
966(17) 0.003435 930.5 1.1
978(16) 0.00366 930.0 1.1
964(16) 0.00361 929.6 1.1
915(16) 0.00360 929.1 1.1
928(17) 0.003499 928.7 1.1
963(17) 0.003446 928.2 1.1
911(16) 0.00395 927.8 1.1
915(16) 0.00374 927.3 1.1
936(17) 0.00355 926.9 1.1
906(16) 0.00368 926.4 1.1
904(16) 0.00375 926.0 1.2
908(16) 0.00396 925.5 1.2
939(16) 0.00359 925.0 1.2
911(16) 0.00361 924.6 1.2
918(16) 0.00357 924.1 1.2
898(16) 0.00378 923.7 1.2
929(16) 0.00385 923.2 1.2
968(17) 0.003423 922.8 1.2
943(17) 0.003417 922.3 1.2
904(16) 0.00373 921.9 1.2
922(16) 0.00378 921.4 1.2
915(16) 0.00394 921.0 1.2
910(16) 0.00366 920.5 1.2
921(17) 0.003480 920.0 1.2
917(16) 0.00364 919.6 1.2
887(16) 0.00397 919.1 1.2
890(15) 0.00402 918.7 1.2
936(17) 0.00354 918.2 1.2
915(17) 0.003496 917.8 1.2
896(16) 0.00379 917.3 1.2
931(16) 0.00383 916.9 1.2
923(16) 0.00389 916.4 1.2
891(16) 0.00381 916.0 1.2
908(17) 0.003462 915.5 1.2
931(16) 0.00361 915.0 1.2
922(16) 0.00386 914.6 1.2
888(15) 0.00406 914.1 1.2
945(17) 0.00355 913.7 1.2
927(17) 0.003343 913.2 1.2
926(16) 0.00364 912.8 1.2
925(16) 0.00388 912.3 1.2
885(16) 0.00400 911.9 1.3
921(16) 0.00366 911.4 1.3
932(17) 0.003392 911.0 1.3
907(16) 0.00376 910.5 1.3
911(16) 0.00395 910.0 1.3
894(16) 0.00396 909.6 1.3
915(16) 0.00373 909.1 1.3
935(17) 0.003377 908.7 1.3
900(16) 0.00365 908.2 1.3
940(16) 0.00380 907.8 1.3
916(16) 0.00388 907.3 1.3
905(16) 0.00371 906.9 1.3
908(16) 0.00359 906.4 1.3
928(16) 0.00358 906.0 1.3
918(16) 0.00390 905.5 1.3
912(16) 0.00381 905.0 1.3
948(17) 0.003492 904.6 1.3
934(17) 0.003486 904.1 1.3
916(16) 0.00361 903.7 1.3
927(16) 0.00388 903.2 1.4
883(16) 0.00395 902.6 1.4
905(16) 0.00361 902.1 1.4
894(16) 0.00366 901.6 1.4
914(16) 0.00377 901.1 1.4
894(15) 0.00404 900.6 1.4
891(16) 0.00380 900.1 1.4
919(17) 0.00355 899.6 1.4
897(16) 0.00375 899.1 1.4
904(16) 0.00387 898.5 1.4
908(16) 0.00394 898.0 1.4
935(17) 0.00352 897.5 1.4
865(16) 0.00373 897.0 1.4
889(16) 0.00378 896.5 1.4
923(16) 0.00380 896.0 1.5
873(15) 0.00412 895.5 1.5
914(16) 0.00367 894.9 1.5
903(16) 0.00359 894.4 1.5
917(16) 0.00361 893.9 1.5
843(15) 0.00422 893.4 1.5
880(15) 0.00406 892.9 1.5
901(16) 0.00364 892.4 1.5
885(17) 0.003489 891.9 1.5
914(16) 0.00368 891.3 1.5
912(16) 0.00388 890.8 1.6
891(16) 0.00399 890.3 1.6
887(16) 0.00380 889.8 1.6
924(17) 0.003371 889.3 1.6
905(16) 0.00376 888.8 1.6
891(16) 0.00397 888.3 1.6
934(16) 0.00381 887.7 1.6
873(16) 0.00391 887.2 1.6
924(17) 0.003369 886.7 1.6
897(16) 0.00369 886.2 1.7
906(16) 0.00397 885.7 1.7
854(15) 0.00410 885.2 1.7
881(16) 0.00385 884.7 1.7
906(16) 0.00360 884.2 1.7
906(16) 0.00365 883.6 1.7
877(15) 0.00408 883.1 1.7
884(16) 0.00392 882.6 1.8
845(16) 0.00398 882.1 1.8
880(16) 0.00356 881.6 1.8
870(16) 0.00384 881.1 1.8
860(15) 0.00413 880.6 1.8
839(15) 0.00405 880.0 1.9
875(16) 0.00380 879.5 1.9
905(16) 0.00365 879.0 1.9
914(16) 0.00374 878.5 1.9
887(15) 0.00403 878.0 1.9
888(16) 0.00389 877.5 2.0
907(16) 0.00363 877.0 2.0
854(16) 0.00382 876.4 2.0
878(16) 0.00382 875.9 2.0
855(15) 0.00418 875.4 2.1
862(16) 0.00387 874.9 2.1
825(16) 0.00398 874.4 2.1
865(16) 0.00386 873.9 2.1
887(16) 0.00390 873.4 2.2
888(15) 0.00406 872.8 2.2
894(16) 0.00372 872.3 2.2
874(16) 0.00377 871.8 2.3
889(16) 0.00377 871.3 2.3
860(15) 0.00408 870.8 2.3
884(15) 0.00408 870.3 2.4
893(16) 0.00371 869.8 2.4
899(17) 0.00355 869.3 2.5
879(16) 0.00388 868.7 2.5
879(15) 0.00401 868.2 2.6
867(15) 0.00409 867.7 2.6
831(15) 0.00407 867.2 2.7
871(16) 0.00362 866.7 2.7
861(16) 0.00394 866.2 2.8
887(15) 0.00404 865.7 2.9
844(15) 0.00421 865.1 2.9
832(15) 0.00406 864.6 3.0
891(17) 0.003441 864.1 3.1
891(16) 0.00373 863.6 3.2
864(15) 0.00411 863.1 3.2
866(15) 0.00406 862.6 3.3
878(16) 0.00381 862.1 3.4
865(16) 0.00364 861.5 3.5
856(16) 0.00395 861.0 3.6
857(15) 0.00420 860.5 3.8
842(15) 0.00409 860.0 3.9
853(16) 0.00397 859.5 4.0
880(16) 0.00368 859.0 4.2
848(16) 0.00398 858.5 4.3
872(15) 0.00412 857.9 4.5
852(15) 0.00412 857.4 4.7
932(16) 0.00358 856.9 4.8
910(16) 0.00356 856.4 5.0
850(16) 0.00392 855.9 5.3
844(15) 0.00425 855.4 5.5
833(15) 0.00417 854.9 5.7
823(16) 0.00400 854.4 5.9
877(16) 0.00362 853.8 6.2
845(15) 0.00401 853.3 6.5
856(15) 0.00418 852.8 6.7
885(16) 0.00379 852.3 7.0
855(16) 0.00389 851.8 7.3
864(16) 0.00384 851.3 7.6
858(16) 0.00400 850.8 7.9
878(15) 0.00411 850.2 8.2
880(16) 0.00390 849.7 8.5
865(16) 0.00387 849.2 8.8
861(16) 0.00383 848.7 9.1
850(16) 0.00396 848.2 9.3
834(15) 0.00428 847.7 9.5
890(16) 0.00362 847.2 9.7
844(16) 0.00380 846.6 9.9
855(16) 0.00384 846.1 10.0
835(15) 0.00415 845.6 10.1
824(15) 0.00434 845.1 10.1
844(16) 0.00398 844.6 10.1
886(16) 0.00359 844.1 10.0
880(16) 0.00384 843.6 9.9
867(15) 0.00405 843.0 9.7
856(15) 0.00415 842.5 9.6
864(16) 0.00386 842.0 9.3
814(16) 0.00389 841.5 9.1
840(16) 0.00396 841.0 8.9
839(15) 0.00422 840.5 8.6
841(15) 0.00427 840.0 8.4
874(16) 0.00381 839.5 8.1
881(16) 0.00356 838.9 7.8
879(16) 0.00384 838.4 7.6
879(16) 0.00401 837.9 7.3
809(15) 0.00440 837.4 7.1
813(15) 0.00407 836.9 6.9
794(16) 0.00395 836.4 6.7
829(15) 0.00408 835.9 6.5
836(15) 0.00430 835.3 6.3
828(15) 0.00424 834.8 6.1
844(16) 0.00397 834.3 5.9
844(16) 0.00373 833.8 5.8
807(15) 0.00425 833.3 5.6
829(15) 0.00427 832.8 5.5
800(15) 0.00438 832.3 5.4
868(16) 0.00372 831.7 5.2
854(16) 0.00369 831.2 5.1
838(15) 0.00402 830.7 5.1
826(15) 0.00435 830.2 5.0
835(15) 0.00418 829.7 4.9
872(16) 0.00381 829.2 4.8
847(16) 0.00386 828.7 4.8
797(15) 0.00414 828.1 4.7
864(15) 0.00413 827.6 4.7
853(15) 0.00404 827.1 4.6
852(16) 0.00388 826.6 4.6
852(16) 0.00393 826.1 4.6
885(16) 0.00381 825.6 4.6
842(15) 0.00425 825.1 4.6
820(15) 0.00417 824.6 4.6
819(15) 0.00408 824.0 4.5
836(16) 0.00396 823.5 4.6
850(15) 0.00407 823.0 4.6
837(15) 0.00427 822.5 4.6
867(16) 0.00390 822.0 4.6
825(16) 0.00393 821.5 4.6
818(16) 0.00401 821.0 4.6
823(15) 0.00412 820.4 4.7
795(15) 0.00452 819.9 4.7
860(16) 0.00389 819.4 4.7
871(16) 0.00367 818.9 4.8
840(16) 0.00397 818.4 4.8
834(15) 0.00415 818.0 4.8
823(15) 0.00434 817.5 4.9
820(15) 0.00410 817.0 5.0
820(16) 0.00385 816.5 5.0
835(15) 0.00403 816.0 5.1
827(15) 0.00425 815.5 5.1
813(15) 0.00443 815.0 5.2
822(16) 0.00400 814.6 5.3
799(16) 0.00395 814.1 5.4
833(16) 0.00393 813.6 5.4
824(15) 0.00425 813.1 5.5
789(15) 0.00451 812.6 5.6
806(15) 0.00411 812.1 5.7
824(16) 0.00378 811.7 5.8
827(16) 0.00387 811.2 5.9
851(15) 0.00415 810.7 6.0
803(15) 0.00435 810.2 6.2
789(15) 0.00414 809.7 6.3
790(16) 0.00389 809.2 6.4
792(15) 0.00416 808.7 6.6
833(15) 0.00427 808.3 6.7
797(15) 0.00442 807.8 6.9
782(15) 0.00438 807.3 7.0
812(16) 0.00384 806.8 7.2
781(15) 0.00425 806.3 7.4
845(15) 0.00426 805.8 7.6
831(15) 0.00419 805.4 7.8
796(15) 0.00429 804.9 8.0
835(16) 0.00391 804.4 8.3
808(15) 0.00408 803.9 8.5
782(15) 0.00456 803.4 8.8
839(15) 0.00411 802.9 9.0
812(15) 0.00410 802.4 9.3
806(16) 0.00395 802.0 9.6
795(15) 0.00422 801.5 10.0
738(14) 0.00479 801.0 10.3
808(15) 0.00425 800.5 10.7
819(16) 0.00388 800.0 11.1
771(15) 0.00423 799.5 11.6
819(15) 0.00419 799.1 12.0
825(15) 0.00429 798.6 12.5
808(15) 0.00409 798.1 13.1
787(15) 0.00407 797.6 13.6
809(15) 0.00413 797.1 14.3
851(15) 0.00406 796.6 15.0
770(14) 0.00460 796.1 15.7
791(15) 0.00426 795.7 16.5
787(15) 0.00417 795.2 17.4
792(15) 0.00420 794.7 18.3
792(15) 0.00437 794.2 19.4
820(15) 0.00434 793.7 20.5
786(15) 0.00419 793.2 21.8
772(15) 0.00417 792.8 23.2
828(16) 0.00394 792.3 24.8
804(15) 0.00431 791.8 26.5
801(15) 0.00447 791.3 28.4
797(15) 0.00422 790.8 30.6
812(16) 0.00386 790.3 33.1
850(16) 0.00383 789.8 35.8
800(15) 0.00442 789.4 39.0
821(15) 0.00430 788.9 42.7
811(15) 0.00418 788.4 46.9
838(16) 0.00378 787.9 51.9
849(16) 0.00389 787.4 58.0
837(15) 0.00421 786.9 65.4
894(16) 0.00396 786.5 74.7
854(16) 0.00399 786.0 86.8
896(17) 0.00352 785.5 102.6
895(16) 0.00366 785.0 123.7
903(16) 0.00396 784.5 151.5
941(16) 0.00375 784.0 188.2
1017(17) 0.003272 783.5 235.4
1019(17) 0.003182 783.1 294.8
1088(18) 0.003076 782.6 367.2
1133(18) 0.003163 782.1 452.0
1260(19) 0.002802 781.6 546.6
1320(19) 0.002572 781.1 645.2
1467(21) 0.002156 780.6 737.2
1503(21) 0.002231 780.1 807.6
1568(21) 0.002291 779.7 840.2
1651(21) 0.002151 779.2 826.1
1638(22) 0.002022 778.7 769.3
1431(21) 0.002325 778.2 684.1
1324(19) 0.002582 777.7 586.7
1306(19) 0.002773 777.2 489.6
1120(18) 0.003079 776.8 400.4
1073(18) 0.003115 776.3 322.9
1063(18) 0.003059 775.8 258.4
1012(17) 0.003376 775.3 206.4
936(16) 0.00384 774.8 165.8
917(16) 0.00363 774.3 134.7
916(17) 0.003497 773.8 111.2
890(16) 0.00375 773.4 93.5
872(16) 0.00400 772.9 80.1
907(16) 0.00397 772.4 69.8
847(16) 0.00399 771.9 61.8
841(16) 0.00382 771.4 55.3
815(15) 0.00409 770.9 50.0
850(15) 0.00407 770.5 45.5
806(15) 0.00441 770.0 41.7
825(16) 0.00401 769.5 38.4
789(15) 0.00406 769.0 35.6
831(16) 0.00393 768.5 33.1
770(15) 0.00450 768.0 30.9
784(14) 0.00456 767.5 28.9
786(15) 0.00422 767.1 27.2
783(15) 0.00402 766.6 25.6
795(15) 0.00433 766.1 24.2
799(15) 0.00444 765.6 23.0
809(15) 0.00441 765.1 21.9
788(15) 0.00434 764.6 20.8
782(16) 0.00401 764.2 19.9
799(15) 0.00413 763.7 19.1
775(14) 0.00459 763.2 18.3
750(14) 0.00471 762.7 17.7
822(16) 0.00400 762.2 17.0
774(15) 0.00409 761.7 16.5
748(15) 0.00447 761.2 16.0
782(14) 0.00456 760.8 15.5
744(14) 0.00480 760.3 15.1
805(15) 0.00409 759.8 14.7
772(15) 0.00412 759.3 14.3
751(15) 0.00449 758.8 14.0
761(14) 0.00466 758.3 13.7
802(15) 0.00429 757.9 13.4
774(15) 0.00426 757.4 13.2
777(15) 0.00414 756.9 13.0
726(15) 0.00456 756.4 12.8
747(14) 0.00480 755.9 12.6
734(14) 0.00478 755.4 12.4
723(14) 0.00472 754.9 12.3
774(15) 0.00424 754.5 12.2
798(15) 0.00419 754.0 12.1
782(14) 0.00457 753.5 12.0
776(15) 0.00438 753.0 11.9
788(15) 0.00423 752.5 11.9
720(14) 0.00472 752.0 11.8
749(15) 0.00453 751.6 11.8
774(14) 0.00463 751.1 11.7
730(14) 0.00469 750.6 11.7
719(14) 0.00459 750.1 11.7
725(14) 0.00458 749.6 11.8
717(14) 0.00478 749.1 11.8
767(14) 0.00465 748.6 11.8
753(15) 0.00438 748.2 11.9
729(15) 0.00447 747.7 12.0
772(15) 0.00436 747.2 12.1
770(15) 0.00453 746.7 12.2
792(15) 0.00449 746.2 12.3
757(15) 0.00438 745.7 12.4
789(15) 0.00405 745.3 12.6
776(15) 0.00433 744.8 12.8
747(14) 0.00471 744.3 13.0
713(14) 0.00499 743.8 13.3
718(14) 0.00465 743.3 13.5
753(15) 0.00417 742.8 13.8
757(15) 0.00443 742.4 14.1
747(14) 0.00472 741.9 14.4
763(14) 0.00466 741.5 14.6
746(15) 0.00438 741.0 14.9
720(15) 0.00428 740.6 15.0
717(14) 0.00466 740.1 15.2
756(14) 0.00473 739.6 15.3
771(14) 0.00460 739.2 15.4
694(14) 0.00490 738.7 15.6
748(15) 0.00410 738.3 15.7
750(15) 0.00441 737.8 15.9
746(14) 0.00477 737.4 16.1
738(14) 0.00475 736.9 16.3
771(15) 0.00435 736.4 16.6
779(15) 0.00402 736.0 16.9
710(14) 0.00473 735.5 17.2
746(14) 0.00474 735.1 17.6
733(14) 0.00480 734.6 18.0
790(15) 0.00411 734.2 18.4
766(15) 0.00423 733.7 18.9
752(15) 0.00447 733.2 19.3
750(14) 0.00475 732.8 19.8
742(14) 0.00467 732.3 20.4
715(14) 0.00465 731.9 21.0
704(14) 0.00465 731.4 21.6
732(14) 0.00459 731.0 22.2
744(14) 0.00479 730.5 22.9
740(14) 0.00460 730.0 23.6
746(15) 0.00435 729.6 24.4
672(14) 0.00495 729.1 25.2
721(14) 0.00464 728.7 26.0
722(14) 0.00493 728.2 27.0
747(14) 0.00456 727.8 27.9
784(15) 0.00413 727.3 28.9
723(14) 0.00464 726.8 30.0
762(15) 0.00440 726.4 31.2
747(14) 0.00477 725.9 32.5
742(15) 0.00444 725.5 33.8
731(15) 0.00434 725.0 35.2
727(14) 0.00459 724.5 36.7
755(15) 0.00450 724.1 38.4
768(14) 0.00462 723.6 40.1
725(14) 0.00461 723.2 42.0
765(15) 0.00418 722.7 44.0
745(15) 0.00450 722.3 46.2
737(14) 0.00477 721.8 48.6
759(14) 0.00471 721.3 51.1
749(15) 0.00454 720.9 53.9
749(15) 0.00426 720.4 56.9
784(15) 0.00425 720.0 60.3
767(14) 0.00465 719.5 63.9
803(15) 0.00443 719.1 67.9
790(15) 0.00414 718.6 72.4
777(15) 0.00404 718.1 77.3
755(15) 0.00454 717.7 82.8
754(14) 0.00471 717.2 89.0
791(15) 0.00452 716.8 95.9
800(15) 0.00427 716.3 103.7
807(16) 0.00390 715.9 112.5
797(15) 0.00421 715.4 122.5
816(15) 0.00439 714.9 133.8
875(15) 0.00402 714.5 146.6
909(16) 0.00365 714.0 161.1
849(16) 0.00373 713.6 177.5
895(16) 0.00366 713.1 196.0
905(16) 0.00395 712.7 216.8
914(16) 0.00386 712.2 240.1
977(17) 0.003393 711.7 266.0
975(17) 0.003349 711.3 294.8
1023(17) 0.003255 710.8 326.3
1038(17) 0.003462 710.4 360.7
1082(17) 0.003219 709.9 397.6
1149(18) 0.002866 709.5 436.5
1178(19) 0.002767 709.0 476.9
1234(19) 0.002676 708.5 517.5
1281(19) 0.002827 708.1 556.7
1355(19) 0.002592 707.6 592.5
1322(19) 0.002581 707.2 622.6
1351(20) 0.002487 706.7 644.8
1355(19) 0.002593 706.3 657.1
1380(19) 0.002629 705.8 658.2
1297(19) 0.002654 705.3 648.2
1289(19) 0.002591 704.9 628.0
1240(19) 0.002673 704.4 599.3
1213(18) 0.002859 704.0 564.5
1170(18) 0.003091 703.5 525.9
1166(18) 0.002882 703.1 485.5
1104(18) 0.003008 702.6 445.1
1018(17) 0.003338 702.1 405.8
1025(17) 0.003412 701.7 368.5
1022(17) 0.00354 701.2 333.7
992(17) 0.003331 700.8 301.6
952(17) 0.003404 700.3 272.4
961(17) 0.003444 699.9 246.0
942(16) 0.00376 699.4 222.2
944(16) 0.00378 698.9 201.0
914(16) 0.00365 698.5 182.1
928(17) 0.003419 698.0 165.4
887(16) 0.00380 697.6 150.6
856(15) 0.00416 697.1 137.6
806(15) 0.00442 696.7 126.1
835(16) 0.00399 696.2 115.9
822(16) 0.00382 695.7 107.0
785(15) 0.00425 695.3 99.1
776(15) 0.00453 694.8 92.1
803(15) 0.00443 694.4 85.9
760(15) 0.00439 693.9 80.4
750(15) 0.00406 693.5 75.4
768(15) 0.00428 693.0 71.0
786(15) 0.00451 692.5 67.0
781(14) 0.00457 692.1 63.4
780(15) 0.00439 691.6 60.2
765(15) 0.00420 691.2 57.2
759(15) 0.00447 690.7 54.5
749(14) 0.00473 690.2 52.1
746(14) 0.00474 689.8 49.8
728(14) 0.00469 689.3 47.7
736(15) 0.00430 688.9 45.9
755(15) 0.00431 688.4 44.1
739(14) 0.00482 688.0 42.5
698(14) 0.00500 687.5 41.1
742(15) 0.00441 687.0 39.8
711(15) 0.00456 686.6 38.6
740(15) 0.00448 686.1 37.4
737(14) 0.00479 685.7 36.4
730(14) 0.00480 685.2 35.5
750(15) 0.00448 684.8 34.7
713(14) 0.00467 684.3 34.0
703(14) 0.00479 683.8 33.3
688(14) 0.00516 683.4 32.8
688(14) 0.00492 682.9 32.3
725(15) 0.00445 682.5 31.9
676(14) 0.00486 682.0 31.6
705(14) 0.00481 681.6 31.4
725(14) 0.00488 681.1 31.3
736(14) 0.00457 680.6 31.2
684(14) 0.00480 680.2 31.3
699(14) 0.00473 679.7 31.5
738(14) 0.00465 679.3 31.8
720(14) 0.00494 678.8 32.2
701(14) 0.00477 678.4 32.7
703(14) 0.00465 677.9 33.4
690(14) 0.00494 677.4 34.2
709(14) 0.00497 677.0 35.3
700(14) 0.00509 676.5 36.5
713(15) 0.00455 676.1 37.9
717(15) 0.00441 675.6 39.6
717(14) 0.00460 675.2 41.5
713(14) 0.00485 674.7 43.7
719(14) 0.00492 674.2 46.1
751(15) 0.00446 673.8 48.8
762(15) 0.00413 673.3 51.9
749(15) 0.00446 672.9 55.2
737(14) 0.00482 672.4 58.8
702(14) 0.00502 672.0 62.6
747(15) 0.00440 671.5 66.7
736(15) 0.00421 671.0 70.8
750(15) 0.00448 670.6 75.0
737(14) 0.00477 670.1 79.0
745(14) 0.00468 669.7 82.6
701(14) 0.00472 669.2 85.7
764(15) 0.00402 668.8 88.0
770(15) 0.00426 668.3 89.4
762(14) 0.00465 667.8 89.7
748(14) 0.00471 667.4 89.0
769(15) 0.00427 666.9 87.3
728(15) 0.00442 666.5 84.7
749(15) 0.00445 666.0 81.5
737(14) 0.00482 665.6 77.9
691(14) 0.00510 665.1 74.0
756(15) 0.00437 664.6 70.1
732(15) 0.00437 664.2 66.3
717(14) 0.00463 663.7 62.6
709(14) 0.00500 663.3 59.3
703(14) 0.00487 662.8 56.2
731(15) 0.00446 662.4 53.5
684(14) 0.00475 661.9 51.2
639(13) 0.00533 661.4 49.2
700(14) 0.00510 661.0 47.5
689(14) 0.00496 660.5 46.2
691(14) 0.00475 660.1 45.2
691(14) 0.00469 659.6 44.5
704(14) 0.00479 659.2 44.2
680(14) 0.00522 658.7 44.2
705(14) 0.00472 658.2 44.4
688(14) 0.00480 657.8 45.0
676(14) 0.00487 657.3 45.8
679(14) 0.00501 656.9 46.9
695(14) 0.00509 656.4 48.3
666(14) 0.00494 656.0 49.9
664(14) 0.00497 655.5 51.7
705(14) 0.00460 655.0 53.8
657(13) 0.00528 654.6 56.0
712(14) 0.00499 654.1 58.4
695(14) 0.00474 653.7 60.8
701(15) 0.00456 653.2 63.3
683(14) 0.00495 652.7 65.8
707(14) 0.00494 652.3 68.2
714(14) 0.00501 651.8 70.3
691(14) 0.00491 651.4 72.2
714(15) 0.00447 650.9 73.6
739(15) 0.00456 650.5 74.5
679(14) 0.00521 650.0 74.9
701(14) 0.00500 649.5 74.6
704(14) 0.00465 649.1 73.7
661(14) 0.00476 648.6 72.3
700(14) 0.00475 648.2 70.3
673(13) 0.00529 647.7 67.9
645(13) 0.00543 647.3 65.2
682(14) 0.00482 646.8 62.2
668(14) 0.00475 646.3 59.1
739(15) 0.00447 645.9 56.0
683(14) 0.00519 645.4 52.8
655(13) 0.00538 645.0 49.8
654(14) 0.00492 644.5 46.8
649(14) 0.00490 644.1 43.9
681(14) 0.00493 643.6 41.2
683(14) 0.00517 643.1 38.7
680(14) 0.00509 642.7 36.3
643(13) 0.00524 642.2 34.1
639(14) 0.00498 641.8 32.0
627(13) 0.00529 641.3 30.1
633(13) 0.00559 640.9 28.4
643(13) 0.00533 640.4 26.8
653(14) 0.00503 639.9 25.3
644(14) 0.00510 639.5 23.9
662(14) 0.00501 639.0 22.7
651(13) 0.00544 638.6 21.6
654(14) 0.00512 638.1 20.5
663(14) 0.00487 637.7 19.6
638(14) 0.00519 637.2 18.8
654(14) 0.00506 636.7 18.0
635(13) 0.00555 636.3 17.3
662(14) 0.00512 635.8 16.6
648(14) 0.00503 635.4 16.0
634(14) 0.00509 634.9 15.5
630(13) 0.00536 634.5 15.0
644(13) 0.00549 634.0 14.6
598(13) 0.00539 633.5 14.2
619(14) 0.00514 633.1 13.9
636(14) 0.00511 632.6 13.6
662(14) 0.00518 632.2 13.3
637(13) 0.00554 631.7 13.0
631(13) 0.00523 631.3 12.8
644(14) 0.00475 630.8 12.6
621(13) 0.00528 630.3 12.5
642(13) 0.00536 629.9 12.3
682(14) 0.00517 629.4 12.2
606(13) 0.00557 629.0 12.2
625(14) 0.00502 628.5 12.1
623(13) 0.00524 628.1 12.1
617(13) 0.00574 627.6 12.1
648(13) 0.00546 627.1 12.1
615(13) 0.00527 626.7 12.2
593(13) 0.00525 626.2 12.3
630(14) 0.00522 625.8 12.5
600(13) 0.00583 625.3 12.7
621(13) 0.00564 624.9 13.0
614(13) 0.00546 624.4 13.3
620(14) 0.00511 623.9 13.8
650(14) 0.00509 623.5 14.3
629(13) 0.00564 623.0 15.1
622(13) 0.00554 622.6 16.0
628(13) 0.00527 622.1 17.3
640(14) 0.00483 621.7 19.2
621(14) 0.00521 621.2 22.1
622(13) 0.00568 620.7 26.2
643(13) 0.00539 620.3 32.4
709(14) 0.00470 619.8 41.1
677(14) 0.00479 619.4 52.8
710(14) 0.00465 618.9 68.0
698(14) 0.00512 618.5 86.1
700(14) 0.00490 618.0 105.9
690(14) 0.00491 617.5 125.0
783(15) 0.00405 617.1 139.3
764(15) 0.00428 616.6 144.3
748(14) 0.00476 616.2 138.1
733(14) 0.00467 615.7 123.0
693(14) 0.00484 615.3 103.4
717(15) 0.00452 614.8 83.4
691(14) 0.00477 614.3 65.2
629(13) 0.00560 613.9 50.2
639(13) 0.00527 613.4 38.4
647(14) 0.00503 613.0 29.7
619(13) 0.00525 612.5 23.6
638(14) 0.00521 612.0 19.3
634(13) 0.00560 611.6 16.3
636(13) 0.00527 611.1 14.3
642(14) 0.00515 610.7 12.8
614(13) 0.00538 610.2 11.6
625(13) 0.00536 609.8 10.7
644(13) 0.00550 609.3 9.9
590(13) 0.00560 608.8 9.3
603(13) 0.00529 608.4 8.7
627(14) 0.00512 607.9 8.2
587(13) 0.00595 607.5 7.8
619(13) 0.00566 607.0 7.4
618(13) 0.00534 606.6 7.1
586(13) 0.00554 606.1 6.8
607(13) 0.00553 605.6 6.5
617(13) 0.00558 605.2 6.2
569(12) 0.00620 604.7 6.0
604(13) 0.00555 604.3 5.8
630(14) 0.00486 603.8 5.6
588(13) 0.00564 603.4 5.4
594(13) 0.00588 602.9 5.3
628(13) 0.00554 602.4 5.1
613(13) 0.00542 602.0 5.0
588(13) 0.00542 601.5 4.8
622(13) 0.00536 601.1 4.7
575(12) 0.00608 600.6 4.6
557(12) 0.00623 600.2 4.5
582(13) 0.00561 599.7 4.4
570(13) 0.00536 599.2 4.3
593(13) 0.00546 598.8 4.2
582(13) 0.00605 598.3 4.1
600(13) 0.00580 597.9 4.0
601(13) 0.00554 597.4 3.9
592(13) 0.00527 597.0 3.8
605(14) 0.00517 596.5 3.8
601(13) 0.00590 596.0 3.7
583(13) 0.00588 595.6 3.6
606(13) 0.00534 595.1 3.6
589(13) 0.00537 594.7 3.5
611(13) 0.00534 594.2 3.4
592(13) 0.00591 593.8 3.4
590(13) 0.00579 593.3 3.3
606(13) 0.00537 592.8 3.3
597(13) 0.00532 592.4 3.2
568(13) 0.00585 591.9 3.2
627(13) 0.00566 591.5 3.1
602(13) 0.00544 591.0 3.1
581(13) 0.00559 590.6 3.1
579(13) 0.00565 590.1 3.0
602(13) 0.00555 589.6 3.0
565(12) 0.00621 589.2 2.9
566(13) 0.00578 588.7 2.9
574(13) 0.00561 588.3 2.9
564(13) 0.00567 587.8 2.8
570(13) 0.00598 587.4 2.8
570(12) 0.00616 586.9 2.8
566(13) 0.00584 586.4 2.7
584(13) 0.00552 586.0 2.7
580(13) 0.00555 585.5 2.7
619(13) 0.00545 585.1 2.6
567(12) 0.00618 584.6 2.6
614(13) 0.00533 584.2 2.6
597(13) 0.00532 583.7 2.6
639(14) 0.00512 583.2 2.5
621(13) 0.00557 582.8 2.5
616(13) 0.00571 582.3 2.5
599(13) 0.00549 581.9 2.5
589(13) 0.00537 581.4 2.4
571(13) 0.00589 581.0 2.4
602(13) 0.00575 580.5 2.4
559(12) 0.00622 580.0 2.4
585(13) 0.00548 579.6 2.4
561(13) 0.00525 579.1 2.3
557(13) 0.00591 578.7 2.3
601(13) 0.00583 578.2 2.3
607(13) 0.00574 577.7 2.3
596(13) 0.00554 577.3 2.3
562(13) 0.00558 576.8 2.3
579(13) 0.00561 576.4 2.2
565(12) 0.00619 575.9 2.2
587(13) 0.00596 575.5 2.2
573(13) 0.00582 575.0 2.2
576(13) 0.00536 574.5 2.2
543(13) 0.00599 574.1 2.2
578(12) 0.00609 573.6 2.1
564(12) 0.00614 573.2 2.1
607(13) 0.00534 572.7 2.1
574(13) 0.00554 572.3 2.1
581(13) 0.00564 571.8 2.1
584(13) 0.00602 571.3 2.1
569(12) 0.00608 570.9 2.1
597(13) 0.00553 570.4 2.1
571(13) 0.00566 570.0 2.0
561(13) 0.00593 569.5 2.0
562(12) 0.00625 569.1 2.0
585(13) 0.00580 568.6 2.0
596(13) 0.00548 568.1 2.0
578(13) 0.00553 567.7 2.0
554(13) 0.00601 567.2 2.0
593(13) 0.00591 566.8 2.0
588(13) 0.00557 566.3 2.0
593(13) 0.00537 565.9 2.0
599(13) 0.00540 565.4 2.0
542(12) 0.00626 564.9 2.0
552(12) 0.00636 564.5 2.0
567(13) 0.00577 564.0 1.9
573(13) 0.00555 563.6 1.9
556(13) 0.00580 563.1 1.9
567(13) 0.00590 562.7 1.9
555(12) 0.00638 562.2 1.9
549(13) 0.00578 561.8 1.9
558(13) 0.00562 561.5 1.9
573(13) 0.00576 561.2 1.9
600(13) 0.00579 561.0 1.9
562(12) 0.00627 560.7 1.9
572(13) 0.00565 560.5 1.9
570(13) 0.00534 560.2 1.9
528(12) 0.00626 559.9 1.9
578(12) 0.00606 559.7 1.9
551(12) 0.00633 559.4 1.9
576(13) 0.00582 559.1 2.0
537(13) 0.00586 558.9 2.0
568(13) 0.00584 558.6 2.0
559(12) 0.00634 558.3 2.0
590(13) 0.00595 558.1 2.0
528(12) 0.00611 557.8 2.0
545(13) 0.00557 557.5 2.0
538(12) 0.00618 557.3 2.0
551(12) 0.00628 557.0 2.0
555(12) 0.00622 556.7 2.1
572(13) 0.00587 556.5 2.1
581(13) 0.00540 556.2 2.1
557(13) 0.00594 555.9 2.1
543(12) 0.00647 555.7 2.2
567(12) 0.00613 555.4 2.2
565(13) 0.00574 555.1 2.2
539(13) 0.00585 554.9 2.2
522(12) 0.00631 554.6 2.3
581(12) 0.00606 554.4 2.3
526(12) 0.00651 554.1 2.3
547(13) 0.00592 553.8 2.3
546(13) 0.00581 553.6 2.4
567(13) 0.00585 553.3 2.4
568(12) 0.00618 553.0 2.4
573(13) 0.00590 552.8 2.4
540(13) 0.00583 552.5 2.4
547(13) 0.00583 552.2 2.4
561(13) 0.00604 552.0 2.4
544(12) 0.00648 551.7 2.4
542(12) 0.00611 551.4 2.4
541(13) 0.00587 551.2 2.4
508(12) 0.00646 550.9 2.4
578(13) 0.00570 550.6 2.4
553(12) 0.00635 550.4 2.3
534(12) 0.00610 550.1 2.3
558(13) 0.00572 549.8 2.3
541(12) 0.00607 549.6 2.3
539(12) 0.00636 549.3 2.3
549(12) 0.00633 549.0 2.2
508(12) 0.00641 548.8 2.2
495(12) 0.00652 548.5 2.2
557(13) 0.00591 548.3 2.2
528(12) 0.00664 548.0 2.2
567(12) 0.00619 547.7 2.2
513(12) 0.00627 547.5 2.2
569(13) 0.00541 547.2 2.2
543(12) 0.00607 546.9 2.2
532(12) 0.00652 546.7 2.2
508(12) 0.00686 546.4 2.2
579(13) 0.00564 546.1 2.2
562(13) 0.00552 545.9 2.2
574(13) 0.00574 545.6 2.2
567(12) 0.00613 545.3 2.2
566(12) 0.00615 545.1 2.2
521(12) 0.00611 544.8 2.2
544(13) 0.00544 544.5 2.3
545(13) 0.00594 544.3 2.3
539(12) 0.00650 544.0 2.3
545(12) 0.00634 543.7 2.3
545(12) 0.00620 543.5 2.4
540(13) 0.00571 543.2 2.4
533(12) 0.00608 543.0 2.4
541(12) 0.00644 542.7 2.5
543(12) 0.00644 542.4 2.5
540(12) 0.00621 542.2 2.5
562(13) 0.00552 541.9 2.6
518(12) 0.00628 541.6 2.6
527(12) 0.00666 541.4 2.7
549(12) 0.00615 541.1 2.8
549(13) 0.00598 540.8 2.8
578(13) 0.00546 540.6 2.9
552(13) 0.00588 540.3 3.0
553(12) 0.00632 540.0 3.1
510(12) 0.00653 539.8 3.1
550(13) 0.00588 539.5 3.2
550(13) 0.00596 539.2 3.3
572(13) 0.00564 539.0 3.5
540(12) 0.00644 538.7 3.6
514(12) 0.00646 538.4 3.7
526(12) 0.00609 538.2 3.9
517(12) 0.00626 537.9 4.0
520(12) 0.00641 537.6 4.2
521(12) 0.00677 537.4 4.4
547(13) 0.00604 537.1 4.6
521(12) 0.00629 536.9 4.9
568(13) 0.00564 536.6 5.1
556(13) 0.00600 536.3 5.4
561(12) 0.00627 536.1 5.8
534(12) 0.00608 535.8 6.2
512(12) 0.00621 535.5 6.6
567(13) 0.00561 535.3 7.0
542(12) 0.00628 535.0 7.6
541(12) 0.00646 534.7 8.2
543(13) 0.00590 534.5 8.9
541(13) 0.00577 534.2 9.8
528(12) 0.00629 533.9 10.7
524(12) 0.00657 533.7 11.9
533(12) 0.00653 533.4 13.4
537(12) 0.00615 533.1 15.2
558(13) 0.00559 532.9 17.5
565(13) 0.00594 532.6 20.7
576(12) 0.00610 532.3 24.8
577(13) 0.00604 532.1 30.4
555(13) 0.00585 531.8 37.8
555(13) 0.00559 531.5 47.5
592(13) 0.00547 531.3 59.9
605(13) 0.00582 531.0 75.0
595(13) 0.00585 530.8 92.9
681(14) 0.00492 530.5 112.7
702(15) 0.00447 530.2 133.1
700(14) 0.00474 530.0 151.2
724(14) 0.00492 529.7 163.3
722(14) 0.00486 529.4 165.9
715(15) 0.00451 529.2 158.4
671(14) 0.00476 528.9 142.9
641(13) 0.00526 528.6 123.2
642(13) 0.00554 528.4 102.9
644(13) 0.00531 528.1 83.9
580(13) 0.00569 527.8 67.3
571(13) 0.00567 527.6 53.5
591(13) 0.00544 527.3 42.5
579(13) 0.00602 527.0 34.0
582(13) 0.00590 526.8 27.5
554(13) 0.00600 526.5 22.7
531(13) 0.00599 526.2 19.1
539(13) 0.00605 526.0 16.4
518(12) 0.00676 525.7 14.3
531(12) 0.00631 525.5 12.7
532(13) 0.00599 525.2 11.4
514(12) 0.00620 524.9 10.4
536(12) 0.00613 524.7 9.5
523(12) 0.00670 524.4 8.7
519(12) 0.00641 524.1 8.0
497(12) 0.00651 523.9 7.5
523(12) 0.00622 523.6 7.0
536(12) 0.00643 523.3 6.5
537(12) 0.00645 523.1 6.1
502(12) 0.00658 522.8 5.8
530(12) 0.00620 522.5 5.5
519(12) 0.00651 522.3 5.2
532(12) 0.00638 522.0 5.0
559(12) 0.00630 521.7 4.7
534(12) 0.00610 521.5 4.5
524(12) 0.00606 521.2 4.4
499(12) 0.00660 520.9 4.2
532(12) 0.00641 520.7 4.1
490(11) 0.00712 520.4 3.9
511(12) 0.00627 520.1 3.8
501(12) 0.00625 519.9 3.7
519(12) 0.00621 519.6 3.6
516(12) 0.00672 519.4 3.5
540(12) 0.00638 519.1 3.4
503(12) 0.00643 518.8 3.4
542(13) 0.00551 518.6 3.3
514(12) 0.00649 518.3 3.2
559(12) 0.00620 518.0 3.2
511(12) 0.00679 517.8 3.1
511(12) 0.00633 517.5 3.1
519(13) 0.00587 517.2 3.1
489(12) 0.00684 517.0 3.0
501(12) 0.00699 516.7 3.0
505(12) 0.00681 516.4 3.0
498(12) 0.00668 516.2 2.9
508(12) 0.00623 515.9 2.9
523(12) 0.00635 515.6 2.9
501(12) 0.00689 515.4 2.9
503(12) 0.00671 515.1 2.9
522(12) 0.00641 514.8 2.9
543(13) 0.00581 514.6 2.9
496(12) 0.00667 514.3 2.9
501(12) 0.00693 514.0 2.9
508(12) 0.00664 513.8 2.9
528(13) 0.00601 513.5 2.9
509(12) 0.00614 513.3 2.9
527(12) 0.00606 513.0 2.9
516(12) 0.00676 512.7 3.0
533(12) 0.00624 512.5 3.0
529(13) 0.00601 512.2 3.0
512(12) 0.00622 511.9 3.0
531(12) 0.00618 511.7 3.1
520(12) 0.00667 511.4 3.1
503(12) 0.00663 511.1 3.1
496(12) 0.00664 510.9 3.2
505(12) 0.00641 510.6 3.2
490(12) 0.00683 510.3 3.3
495(12) 0.00705 510.1 3.4
502(12) 0.00649 509.8 3.4
508(12) 0.00626 509.5 3.5
504(12) 0.00648 509.3 3.6
499(12) 0.00684 509.0 3.6
520(12) 0.00674 508.7 3.7
505(12) 0.00639 508.5 3.8
518(13) 0.00601 508.2 3.9
505(12) 0.00648 508.0 4.0
547(12) 0.00624 507.7 4.1
516(12) 0.00679 507.4 4.2
487(12) 0.00676 507.2 4.3
504(12) 0.00612 506.9 4.5
495(12) 0.00676 506.6 4.6
526(12) 0.00653 506.4 4.7
532(12) 0.00658 506.1 4.9
503(12) 0.00645 505.8 5.1
490(13) 0.00603 505.6 5.2
515(12) 0.00631 505.3 5.4
509(12) 0.00683 505.0 5.6
511(12) 0.00678 504.8 5.8
500(12) 0.00660 504.5 6.0
498(12) 0.00614 504.2 6.2
517(12) 0.00620 504.0 6.5
525(12) 0.00671 503.7 6.7
540(12) 0.00652 503.4 7.0
519(12) 0.00628 503.2 7.2
510(12) 0.00606 502.9 7.5
492(12) 0.00660 502.6 7.8
527(12) 0.00659 502.4 8.1
543(12) 0.00635 502.1 8.4
516(12) 0.00653 501.9 8.7
540(13) 0.00587 501.6 9.1
494(12) 0.00672 501.3 9.4
498(12) 0.00697 501.1 9.7
504(12) 0.00673 500.8 10.1
499(12) 0.00646 500.5 10.4
521(13) 0.00604 500.3 10.7
500(12) 0.00641 500.0 11.1
518(12) 0.00674 499.7 11.4
499(12) 0.00682 499.5 11.7
495(12) 0.00664 499.2 12.0
517(12) 0.00618 498.9 12.3
515(12) 0.00632 498.7 12.6
530(12) 0.00662 498.4 12.8
557(12) 0.00607 498.1 13.0
494(12) 0.00667 497.9 13.2
521(12) 0.00636 497.6 13.4
528(12) 0.00638 497.3 13.6
520(12) 0.00671 497.1 13.8
510(12) 0.00641 496.8 13.9
503(12) 0.00630 496.5 14.1
513(12) 0.00642 496.3 14.3
531(12) 0.00631 496.0 14.6
532(12) 0.00651 495.8 14.8
533(12) 0.00615 495.5 15.1
528(13) 0.00594 495.2 15.4
504(12) 0.00647 495.0 15.7
522(12) 0.00646 494.7 15.8
512(12) 0.00682 494.4 15.7
512(12) 0.00644 494.2 15.3
521(13) 0.00598 493.9 14.7
508(12) 0.00649 493.6 13.9
500(12) 0.00689 493.4 13.0
497(12) 0.00703 493.1 12.1
519(12) 0.00639 492.8 11.3
493(12) 0.00630 492.6 10.5
478(12) 0.00690 492.3 9.8
517(12) 0.00673 492.0 9.2
481(11) 0.00723 491.8 8.6
532(12) 0.00614 491.5 8.1
485(12) 0.00622 491.2 7.7
494(12) 0.00644 491.0 7.3
488(11) 0.00711 490.7 7.0
536(12) 0.00647 490.5 6.6
511(12) 0.00640 490.2 6.3
487(12) 0.00626 489.9 6.1
497(12) 0.00654 489.7 5.8
500(12) 0.00694 489.4 5.6
479(11) 0.00716 489.1 5.3
484(12) 0.00679 488.9 5.1
466(12) 0.00671 488.6 4.9
482(12) 0.00663 488.3 4.7
491(11) 0.00715 488.1 4.6
463(11) 0.00732 487.8 4.4
481(12) 0.00701 487.5 4.2
496(12) 0.00640 487.3 4.1
495(12) 0.00657 487.0 4.0
477(11) 0.00721 486.7 3.8
529(12) 0.00630 486.5 3.7
470(12) 0.00671 486.2 3.6
487(12) 0.00631 485.9 3.5
486(12) 0.00679 485.7 3.4
488(11) 0.00711 485.4 3.3
470(11) 0.00712 485.1 3.2
493(12) 0.00630 484.9 3.1
488(12) 0.00647 484.6 3.0
480(11) 0.00709 484.4 2.9
494(12) 0.00706 484.1 2.8
533(12) 0.00625 483.8 2.7
519(12) 0.00613 483.6 2.7
460(11) 0.00716 483.3 2.6
490(12) 0.00687 483.0 2.5
490(11) 0.00710 482.8 2.5
494(12) 0.00669 482.5 2.4
485(12) 0.00672 482.2 2.4
481(12) 0.00693 482.0 2.3
524(12) 0.00656 481.7 2.3
496(12) 0.00701 481.4 2.2
455(11) 0.00733 481.2 2.2
457(12) 0.00689 480.9 2.1
467(12) 0.00697 480.6 2.1
446(11) 0.00758 480.4 2.1
493(12) 0.00703 480.1 2.0
481(12) 0.00694 479.8 2.0
468(12) 0.00669 479.6 2.0
483(12) 0.00648 479.3 1.9
496(12) 0.00698 479.1 1.9
474(11) 0.00732 478.8 1.9
466(12) 0.00686 478.5 1.8
482(12) 0.00627 478.3 1.8
493(12) 0.00659 478.0 1.8
489(11) 0.00708 477.7 1.7
475(11) 0.00724 477.5 1.7
509(12) 0.00644 477.2 1.7
491(12) 0.00634 476.9 1.7
484(12) 0.00678 476.7 1.7
465(11) 0.00747 476.4 1.7
501(12) 0.00675 476.1 1.7
498(12) 0.00653 475.9 1.7
458(12) 0.00684 475.6 1.6
442(11) 0.00712 475.3 1.6
458(11) 0.00748 475.1 1.6
471(11) 0.00720 474.8 1.6
473(12) 0.00683 474.5 1.6
468(12) 0.00667 474.3 1.6
465(12) 0.00693 474.0 1.5
453(11) 0.00767 473.7 1.5
461(11) 0.00724 473.5 1.5
439(11) 0.00748 473.2 1.5
458(12) 0.00696 473.0 1.5
490(12) 0.00662 472.7 1.5
486(11) 0.00720 472.4 1.5
465(11) 0.00733 472.2 1.4
516(13) 0.00599 471.9 1.4
465(12) 0.00688 471.6 1.4
461(11) 0.00720 471.4 1.4
484(11) 0.00721 471.1 1.4
488(12) 0.00661 470.8 1.4
463(12) 0.00704 470.6 1.4
462(12) 0.00708 470.3 1.4
474(12) 0.00702 470.0 1.4
502(12) 0.00693 469.8 1.4
494(12) 0.00657 469.5 1.4
485(12) 0.00660 469.2 1.3
481(12) 0.00684 469.0 1.3
464(11) 0.00734 468.7 1.3
458(11) 0.00755 468.4 1.3
455(12) 0.00708 468.2 1.3
481(12) 0.00649 467.9 1.3
478(12) 0.00682 467.6 1.3
467(11) 0.00708 467.4 1.3
463(11) 0.00758 467.1 1.3
472(12) 0.00683 466.9 1.3
451(12) 0.00684 466.6 1.3
473(12) 0.00704 466.3 1.3
481(11) 0.00718 466.1 1.3
503(12) 0.00695 465.8 1.3
428(11) 0.00785 465.5 1.3
469(12) 0.00630 465.3 1.3
455(11) 0.00708 465.0 1.3
463(11) 0.00745 464.7 1.3
473(11) 0.00721 464.5 1.3
461(12) 0.00690 464.2 1.3
458(12) 0.00651 463.9 1.3
469(12) 0.00681 463.7 1.3
478(11) 0.00734 463.4 1.3
443(11) 0.00773 463.1 1.3
483(12) 0.00663 462.9 1.3
447(12) 0.00698 462.6 1.3
460(11) 0.00718 462.3 1.3
481(11) 0.00729 462.1 1.3
453(11) 0.00742 461.8 1.3
467(12) 0.00696 461.7 1.3
443(11) 0.00717 461.5 1.3
456(11) 0.00730 461.3 1.3
457(11) 0.00749 461.2 1.3
452(11) 0.00748 461.0 1.3
475(12) 0.00677 460.8 1.3
470(12) 0.00674 460.7 1.3
467(12) 0.00695 460.5 1.3
442(11) 0.00779 460.3 1.3
468(12) 0.00705 460.1 1.3
450(12) 0.00704 460.0 1.3
447(11) 0.00725 459.8 1.3
477(12) 0.00700 459.6 1.3
453(11) 0.00771 459.5 1.3
445(11) 0.00735 459.3 1.3
462(12) 0.00674 459.1 1.3
457(12) 0.00707 459.0 1.4
459(11) 0.00729 458.8 1.4
463(11) 0.00752 458.6 1.4
477(12) 0.00671 458.5 1.4
436(11) 0.00721 458.3 1.4
478(12) 0.00652 458.1 1.4
455(11) 0.00742 458.0 1.4
458(11) 0.00751 457.8 1.4
489(12) 0.00657 457.6 1.5
466(12) 0.00672 457.5 1.5
447(11) 0.00724 457.3 1.5
446(11) 0.00767 457.1 1.5
437(11) 0.00798 457.0 1.5
443(11) 0.00736 456.8 1.6
440(11) 0.00711 456.6 1.6
477(12) 0.00700 456.4 1.6
443(11) 0.00777 456.3 1.7
478(11) 0.00723 456.1 1.7
458(12) 0.00685 455.9 1.7
450(12) 0.00657 455.8 1.8
457(12) 0.00692 455.6 1.8
436(11) 0.00786 455.4 1.9
480(11) 0.00711 455.3 1.9
452(11) 0.00735 455.1 2.0
452(12) 0.00675 454.9 2.0
455(12) 0.00696 454.8 2.1
472(11) 0.00733 454.6 2.1
445(11) 0.00780 454.4 2.2
446(11) 0.00748 454.3 2.3
444(11) 0.00709 454.1 2.4
467(12) 0.00693 453.9 2.5
432(11) 0.00794 453.8 2.6
456(11) 0.00749 453.6 2.8
458(11) 0.00720 453.4 2.9
479(12) 0.00651 453.3 3.1
435(11) 0.00763 453.1 3.3
434(11) 0.00794 452.9 3.5
459(11) 0.00733 452.7 3.8
436(11) 0.00740 452.6 4.1
432(11) 0.00728 452.4 4.4
433(11) 0.00725 452.2 4.9
474(11) 0.00730 452.1 5.3
445(11) 0.00738 451.9 5.9
458(12) 0.00689 451.7 6.6
467(12) 0.00651 451.6 7.3
444(11) 0.00731 451.4 8.1
454(11) 0.00764 451.2 9.1
455(12) 0.00707 451.1 10.2
437(11) 0.00730 450.9 11.3
460(12) 0.00706 450.7 12.6
481(11) 0.00710 450.6 13.9
467(11) 0.00736 450.4 15.3
457(11) 0.00721 450.2 16.5
474(12) 0.00657 450.1 17.6
464(12) 0.00680 449.9 18.4
448(11) 0.00757 449.7 18.8
457(11) 0.00756 449.6 18.8
446(11) 0.00718 449.4 18.4
446(11) 0.00719 449.2 17.5
476(12) 0.00696 449.0 16.4
470(11) 0.00728 448.9 15.2
438(11) 0.00797 448.7 13.8
467(12) 0.00699 448.5 12.5
450(12) 0.00685 448.4 11.3
432(11) 0.00766 448.2 10.1
463(11) 0.00726 448.0 9.1
419(11) 0.00835 447.9 8.1
444(11) 0.00750 447.7 7.3
473(12) 0.00647 447.5 6.6
466(12) 0.00697 447.4 5.9
467(11) 0.00730 447.2 5.4
436(11) 0.00781 447.0 4.9
457(11) 0.00711 446.9 4.5
451(12) 0.00663 446.7 4.2
416(11) 0.00795 446.5 3.9
447(11) 0.00769 446.4 3.6
447(11) 0.00771 446.2 3.4
456(11) 0.00723 446.0 3.2
444(12) 0.00698 445.9 3.0
445(11) 0.00719 445.7 2.9
452(11) 0.00768 445.5 2.8
453(11) 0.00760 445.3 2.7
448(11) 0.00718 445.2 2.6
449(12) 0.00690 445.0 2.5
451(11) 0.00724 444.8 2.4
461(11) 0.00751 444.7 2.3
421(11) 0.00806 444.5 2.3
454(11) 0.00716 444.3 2.2
433(11) 0.00733 444.2 2.2
423(11) 0.00779 444.0 2.1
414(10) 0.00840 443.8 2.1
476(12) 0.00676 443.7 2.1
417(11) 0.00768 443.5 2.0
457(12) 0.00690 443.3 2.0
461(11) 0.00721 443.2 2.0
424(11) 0.00817 443.0 2.0
437(11) 0.00752 442.8 1.9
428(11) 0.00752 442.7 1.9
430(11) 0.00755 442.5 1.9
419(11) 0.00815 442.3 1.9
449(11) 0.00767 442.2 1.9
442(11) 0.00727 442.0 1.9
436(11) 0.00720 441.8 1.9
420(11) 0.00753 441.6 1.9
445(11) 0.00741 441.5 1.9
446(11) 0.00778 441.3 1.9
464(12) 0.00702 441.1 1.9
453(12) 0.00697 441.0 2.0
456(11) 0.00718 440.8 2.0
447(11) 0.00753 440.6 2.0
426(11) 0.00809 440.5 2.0
462(11) 0.00719 440.3 2.0
430(11) 0.00737 440.1 2.0
449(12) 0.00691 440.0 2.1
444(11) 0.00767 439.8 2.1
442(11) 0.00791 439.6 2.1
452(12) 0.00703 439.5 2.2
444(12) 0.00677 439.3 2.2
422(11) 0.00754 439.1 2.2
440(11) 0.00778 439.0 2.2
476(11) 0.00722 438.8 2.3
443(11) 0.00741 438.6 2.3
431(11) 0.00724 438.5 2.3
452(11) 0.00734 438.3 2.4
473(11) 0.00717 438.1 2.4
459(11) 0.00764 437.9 2.4
446(11) 0.00742 437.8 2.5
441(12) 0.00704 437.6 2.5
436(11) 0.00764 437.4 2.5
470(11) 0.00732 437.3 2.5
441(11) 0.00780 437.1 2.6
431(11) 0.00757 436.9 2.6
401(11) 0.00810 436.8 2.6
415(11) 0.00790 436.6 2.6
427(11) 0.00807 436.4 2.6
433(11) 0.00786 436.3 2.6
448(11) 0.00736 436.1 2.6
452(12) 0.00700 435.9 2.6
443(11) 0.00719 435.8 2.5
406(10) 0.00847 435.6 2.5
457(11) 0.00711 435.4 2.5
433(11) 0.00763 435.3 2.5
428(11) 0.00767 435.1 2.4
422(11) 0.00791 434.9 2.4
459(11) 0.00759 434.7 2.4
429(11) 0.00770 434.6 2.3
432(11) 0.00736 434.4 2.3
427(11) 0.00752 434.2 2.3
440(11) 0.00746 434.1 2.2
466(11) 0.00743 433.9 2.2
420(11) 0.00789 433.7 2.1
441(12) 0.00696 433.6 2.1
442(11) 0.00710 433.4 2.1
438(11) 0.00757 433.2 2.0
420(11) 0.00823 433.1 2.0
446(12) 0.00706 432.9 2.0
438(11) 0.00712 432.7 1.9
443(11) 0.00724 432.6 1.9
425(11) 0.00798 432.4 1.9
440(11) 0.00782 432.2 1.8
460(12) 0.00697 432.1 1.8
434(11) 0.00712 431.9 1.8
453(12) 0.00708 431.7 1.7
430(11) 0.00793 431.6 1.7
426(11) 0.00799 431.4 1.7
423(11) 0.00776 431.2 1.7
420(11) 0.00733 431.0 1.7
408(11) 0.00821 430.9 1.6
441(11) 0.00765 430.7 1.6
413(11) 0.00835 430.5 1.6
446(12) 0.00704 430.4 1.6
438(12) 0.00692 430.2 1.6
431(11) 0.00761 430.0 1.6
419(11) 0.00826 429.9 1.5
469(11) 0.00727 429.7 1.5
431(11) 0.00747 429.5 1.5
430(12) 0.00706 429.4 1.5
457(12) 0.00706 429.2 1.5
432(11) 0.00804 429.0 1.5
419(11) 0.00810 428.9 1.5
428(11) 0.00775 428.7 1.5
448(12) 0.00678 428.5 1.5
413(11) 0.00785 428.4 1.5
447(11) 0.00769 428.2 1.4
408(11) 0.00831 428.0 1.4
407(11) 0.00782 427.9 1.4
422(11) 0.00729 427.7 1.4
421(11) 0.00745 427.5 1.4
446(11) 0.00771 427.3 1.4
434(11) 0.00779 427.2 1.4
435(11) 0.00724 427.0 1.4
442(11) 0.00715 426.8 1.4
423(11) 0.00779 426.7 1.4
415(11) 0.00830 426.5 1.4
425(11) 0.00783 426.3 1.4
436(11) 0.00754 426.2 1.4
447(12) 0.00705 426.0 1.4
410(11) 0.00805 425.8 1.4
440(11) 0.00786 425.7 1.4
429(11) 0.00764 425.5 1.4
419(11) 0.00751 425.3 1.4
423(11) 0.00754 425.2 1.4
404(11) 0.00799 425.0 1.4
412(11) 0.00838 424.8 1.4
428(11) 0.00753 424.7 1.4
416(11) 0.00767 424.5 1.4
442(11) 0.00734 424.3 1.4
417(11) 0.00804 424.2 1.4
435(11) 0.00801 424.0 1.4
424(11) 0.00764 423.8 1.4
444(12) 0.00702 423.6 1.4
421(11) 0.00760 423.5 1.4
408(11) 0.00822 423.3 1.4
434(11) 0.00798 423.1 1.4
419(11) 0.00759 423.0 1.4
421(11) 0.00738 422.8 1.4
426(11) 0.00775 422.6 1.5
419(11) 0.00821 422.5 1.5
433(11) 0.00795 422.3 1.5
427(11) 0.00753 422.1 1.5
428(12) 0.00694 422.0 1.5
419(11) 0.00768 421.8 1.5
391(10) 0.00860 421.6 1.5
398(10) 0.00865 421.5 1.5
426(11) 0.00766 421.3 1.5
446(12) 0.00662 421.1 1.5
458(11) 0.00709 421.0 1.5
428(11) 0.00816 420.8 1.5
417(11) 0.00811 420.6 1.5
418(11) 0.00777 420.5 1.5
400(11) 0.00748 420.3 1.5
416(11) 0.00764 420.1 1.5
412(10) 0.00841 419.9 1.5
437(11) 0.00775 419.8 1.6
431(11) 0.00732 419.6 1.6
449(12) 0.00675 419.4 1.6
404(11) 0.00811 419.3 1.6
407(10) 0.00839 419.1 1.6
422(11) 0.00808 418.9 1.6
425(11) 0.00768 418.8 1.6
459(12) 0.00666 418.6 1.6
428(11) 0.00757 418.4 1.6
418(11) 0.00822 418.3 1.6
424(11) 0.00759 418.1 1.6
426(11) 0.00761 417.9 1.6
432(11) 0.00720 417.8 1.7
416(11) 0.00785 417.6 1.7
397(10) 0.00865 417.4 1.7
418(11) 0.00777 417.3 1.7
431(11) 0.00730 417.1 1.7
407(11) 0.00792 416.9 1.7
405(11) 0.00814 416.8 1.7
427(11) 0.00812 416.6 1.7
439(11) 0.00729 416.4 1.7
405(11) 0.00788 416.2 1.8
427(11) 0.00715 416.1 1.8
419(11) 0.00799 415.9 1.8
431(11) 0.00800 415.7 1.8
406(11) 0.00791 415.6 1.8
432(11) 0.00713 415.4 1.8
430(11) 0.00745 415.2 1.8
420(11) 0.00798 415.1 1.8
378(10) 0.00906 414.9 1.9
392(11) 0.00792 414.7 1.9
406(11) 0.00758 414.6 1.9
432(11) 0.00765 414.4 1.9
416(11) 0.00800 414.2 1.9
433(11) 0.00798 414.1 1.9
376(11) 0.00829 414.0 1.9
409(11) 0.00725 413.9 2.0
429(11) 0.00749 413.8 2.0
401(10) 0.00845 413.6 2.0
428(11) 0.00811 413.5 2.0
399(11) 0.00810 413.4 2.0
398(11) 0.00763 413.3 2.0
414(11) 0.00787 413.2 2.1
406(10) 0.00840 413.0 2.1
382(10) 0.00885 412.9 2.1
399(11) 0.00785 412.8 2.1
416(11) 0.00727 412.7 2.1
427(11) 0.00765 412.6 2.2
455(11) 0.00762 412.5 2.2
427(11) 0.00799 412.3 2.2
397(11) 0.00821 412.2 2.2
416(12) 0.00703 412.1 2.2
401(11) 0.00782 412.0 2.3
428(11) 0.00795 411.9 2.3
416(11) 0.00800 411.8 2.3
427(11) 0.00757 411.6 2.3
412(11) 0.00775 411.5 2.4
443(11) 0.00735 411.4 2.4
405(10) 0.00856 411.3 2.4
390(10) 0.00839 411.2 2.4
399(11) 0.00806 411.1 2.5
427(11) 0.00740 410.9 2.5
415(11) 0.00788 410.8 2.5
396(10) 0.00868 410.7 2.6
394(11) 0.00834 410.6 2.6
403(11) 0.00802 410.5 2.6
395(11) 0.00798 410.4 2.6
403(11) 0.00821 410.2 2.7
407(11) 0.00832 410.1 2.7
397(11) 0.00809 410.0 2.8
380(11) 0.00808 409.9 2.8
402(11) 0.00764 409.8 2.8
399(10) 0.00851 409.6 2.9
407(11) 0.00837 409.5 2.9
400(11) 0.00807 409.4 2.9
424(11) 0.00735 409.3 3.0
392(11) 0.00838 409.2 3.0
415(11) 0.00810 409.1 3.1
425(11) 0.00817 408.9 3.1
407(11) 0.00792 408.8 3.2
409(11) 0.00737 408.7 3.2
396(11) 0.00816 408.6 3.2
394(10) 0.00850 408.5 3.3
402(10) 0.00853 408.4 3.3
381(10) 0.00859 408.2 3.4
411(11) 0.00734 408.1 3.5
413(11) 0.00789 408.0 3.5
405(10) 0.00851 407.9 3.6
405(10) 0.00843 407.8 3.6
421(11) 0.00752 407.7 3.7
411(11) 0.00758 407.5 3.8
408(11) 0.00794 407.4 3.8
411(10) 0.00842 407.3 3.9
411(11) 0.00834 407.2 4.0
423(11) 0.00775 407.1 4.0
404(11) 0.00749 407.0 4.1
413(11) 0.00770 406.8 4.2
413(11) 0.00835 406.7 4.3
394(10) 0.00872 406.6 4.4
432(11) 0.00769 406.5 4.5
409(11) 0.00768 406.4 4.6
440(11) 0.00732 406.2 4.7
426(11) 0.00799 406.1 4.8
421(11) 0.00808 406.0 4.9
413(11) 0.00763 405.9 5.0
408(11) 0.00750 405.8 5.1
416(11) 0.00780 405.7 5.2
392(10) 0.00878 405.5 5.3
400(11) 0.00808 405.4 5.5
413(11) 0.00781 405.3 5.6
407(11) 0.00797 405.2 5.8
409(11) 0.00799 405.1 5.9
414(11) 0.00827 405.0 6.1
421(11) 0.00778 404.8 6.3
426(11) 0.00753 404.7 6.4
393(11) 0.00817 404.6 6.6
433(11) 0.00745 404.5 6.8
426(11) 0.00804 404.4 7.0
422(11) 0.00772 404.3 7.3
425(11) 0.00726 404.1 7.5
403(11) 0.00771 404.0 7.8
402(10) 0.00839 403.9 8.1
407(10) 0.00843 403.8 8.3
390(11) 0.00815 403.7 8.7
419(11) 0.00726 403.6 9.0
423(11) 0.00762 403.4 9.4
422(11) 0.00792 403.3 9.7
409(11) 0.00838 403.2 10.2
421(11) 0.00761 403.1 10.6
403(11) 0.00770 403.0 11.1
401(11) 0.00821 402.8 11.6
413(11) 0.00816 402.7 12.2
411(10) 0.00840 402.6 12.9
430(11) 0.00750 402.5 13.5
414(11) 0.00731 402.4 14.3
428(11) 0.00737 402.3 15.1
429(11) 0.00814 402.1 16.1
413(11) 0.00818 402.0 17.1
415(11) 0.00784 401.9 18.3
428(12) 0.00703 401.8 19.6
426(11) 0.00774 401.7 21.1
395(10) 0.00871 401.6 22.8
429(11) 0.00795 401.4 24.7
408(11) 0.00802 401.3 27.1
406(11) 0.00740 401.2 29.8
416(11) 0.00780 401.1 33.0
449(11) 0.00777 401.0 36.9
428(11) 0.00806 400.9 41.7
432(11) 0.00740 400.7 47.3
444(12) 0.00668 400.6 54.2
483(12) 0.00668 400.5 62.4
462(11) 0.00755 400.4 72.1
482(12) 0.00701 400.3 83.5
514(12) 0.00634 400.2 96.8
564(13) 0.00547 400.0 111.8
550(13) 0.00590 399.9 128.5
537(12) 0.00653 399.8 146.2
615(13) 0.00564 399.7 164.1
658(14) 0.00506 399.6 180.5
654(14) 0.00494 399.5 193.6
659(14) 0.00506 399.3 201.1
678(13) 0.00523 399.2 201.7
601(13) 0.00568 399.1 195.4
606(13) 0.00538 399.0 183.4
619(14) 0.00516 398.9 167.8
567(13) 0.00591 398.7 150.6
560(12) 0.00628 398.6 133.4
529(12) 0.00629 398.5 117.3
538(13) 0.00589 398.4 102.8
474(12) 0.00702 398.3 90.1
483(12) 0.00699 398.2 79.3
464(11) 0.00746 398.0 70.3
479(12) 0.00662 397.9 63.0
435(11) 0.00740 397.8 57.2
488(12) 0.00637 397.7 52.8
472(11) 0.00718 397.6 49.5
469(11) 0.00735 397.5 47.4
483(12) 0.00671 397.3 46.2
470(12) 0.00672 397.2 46.0
461(11) 0.00715 397.1 46.7
462(11) 0.00726 397.0 48.2
486(11) 0.00712 396.9 50.6
469(12) 0.00708 396.8 53.8
441(11) 0.00710 396.6 57.7
460(12) 0.00702 396.5 62.3
486(12) 0.00708 396.4 67.3
474(11) 0.00735 396.3 72.4
490(12) 0.00662 396.2 76.8
481(12) 0.00634 396.1 80.0
482(12) 0.00673 395.9 81.2
493(12) 0.00699 395.8 80.2
497(12) 0.00690 395.7 77.1
472(12) 0.00689 395.6 72.5
460(12) 0.00638 395.5 67.0
453(11) 0.00714 395.3 61.3
438(11) 0.00769 395.2 55.8
466(11) 0.00747 395.1 50.9
459(11) 0.00722 395.0 46.5
456(12) 0.00677 394.9 42.8
448(11) 0.00717 394.8 39.7
445(11) 0.00772 394.6 37.2
421(11) 0.00802 394.5 35.2
424(11) 0.00763 394.4 33.7
425(11) 0.00726 394.3 32.6
400(11) 0.00799 394.2 31.9
417(11) 0.00818 394.1 31.4
414(11) 0.00806 393.9 31.2
402(11) 0.00785 393.8 31.3
439(12) 0.00701 393.7 31.5
442(12) 0.00699 393.6 31.8
433(11) 0.00797 393.5 32.4
422(11) 0.00802 393.4 33.0
428(11) 0.00755 393.2 33.8
384(11) 0.00835 393.1 34.8
400(11) 0.00791 393.0 35.9
421(11) 0.00820 392.9 37.1
431(11) 0.00780 392.8 38.4
434(11) 0.00741 392.7 40.0
420(11) 0.00766 392.5 41.6
416(11) 0.00786 392.4 43.5
414(11) 0.00827 392.3 45.5
413(11) 0.00778 392.2 47.7
453(12) 0.00699 392.1 50.1
437(11) 0.00735 391.9 52.8
437(11) 0.00764 391.8 55.7
427(11) 0.00797 391.7 59.0
448(11) 0.00711 391.6 62.7
434(11) 0.00750 391.5 66.8
453(12) 0.00687 391.4 71.4
435(11) 0.00771 391.2 76.8
450(11) 0.00760 391.1 83.1
457(11) 0.00712 391.0 90.6
476(12) 0.00639 390.9 99.7
490(12) 0.00656 390.8 110.7
496(12) 0.00689 390.7 124.2
520(12) 0.00675 390.5 140.9
556(13) 0.00596 390.4 161.5
562(13) 0.00537 390.3 186.8
590(13) 0.00560 390.2 217.4
616(13) 0.00570 390.1 254.0
626(13) 0.00561 390.0 297.0
699(14) 0.00482 389.8 346.3
740(15) 0.00430 389.7 400.9
835(16) 0.00397 389.6 458.4
884(16) 0.00400 389.5 514.2
882(15) 0.00408 389.4 561.8
932(16) 0.00361 389.3 593.0
946(17) 0.003363 389.1 601.1
939(16) 0.00363 389.0 584.3
918(16) 0.00392 388.9 546.1
836(15) 0.00421 388.8 494.0
805(15) 0.00418 388.7 436.0
733(15) 0.00438 388.5 378.0
662(14) 0.00501 388.4 323.9
639(13) 0.00553 388.3 275.6
599(13) 0.00579 388.2 233.7
610(13) 0.00531 388.1 198.2
573(13) 0.00574 388.0 168.6
570(13) 0.00562 387.8 144.2
544(12) 0.00640 387.7 124.3
520(12) 0.00650 387.6 108.1
506(12) 0.00640 387.5 95.0
485(12) 0.00670 387.4 84.3
507(12) 0.00650 387.3 75.5
449(11) 0.00774 387.1 68.2
491(12) 0.00673 387.0 62.1
455(11) 0.00711 386.9 56.9
474(12) 0.00675 386.8 52.5
436(11) 0.00789 386.7 48.6
451(11) 0.00764 386.6 45.2
459(11) 0.00717 386.4 42.3
438(11) 0.00740 386.3 39.6
414(11) 0.00795 386.2 37.3
416(11) 0.00792 386.1 35.1
421(11) 0.00818 386.0 33.3
414(11) 0.00772 385.9 31.6
419(11) 0.00741 385.7 30.0
408(11) 0.00789 385.6 28.6
409(11) 0.00805 385.5 27.4
405(10) 0.00843 385.4 26.2
430(11) 0.00740 385.3 25.2
403(11) 0.00783 385.2 24.2
397(11) 0.00825 385.0 23.4
416(11) 0.00815 384.9 22.6
401(10) 0.00856 384.8 21.9
392(11) 0.00810 384.7 21.3
409(11) 0.00732 384.6 20.7
415(11) 0.00793 384.4 20.2
399(11) 0.00824 384.3 19.7
406(10) 0.00858 384.2 19.3
431(11) 0.00753 384.1 18.9
408(11) 0.00756 384.0 18.6
401(11) 0.00797 383.9 18.3
424(11) 0.00809 383.7 18.0
380(10) 0.00896 383.6 17.8
400(11) 0.00795 383.5 17.6
398(11) 0.00775 383.4 17.5
410(11) 0.00808 383.3 17.3
411(11) 0.00836 383.2 17.3
402(10) 0.00848 383.0 17.2
390(11) 0.00825 382.9 17.2
409(11) 0.00741 382.8 17.2
369(10) 0.00893 382.7 17.3
386(10) 0.00893 382.6 17.3
398(11) 0.00837 382.5 17.5
394(11) 0.00812 382.3 17.6
407(11) 0.00745 382.2 17.8
400(11) 0.00815 382.1 18.1
412(11) 0.00838 382.0 18.3
419(11) 0.00801 381.9 18.6
428(11) 0.00750 381.8 19.0
390(11) 0.00806 381.6 19.4
385(10) 0.00846 381.5 19.9
386(10) 0.00885 381.4 20.4
383(10) 0.00872 381.3 21.0
420(11) 0.00760 381.2 21.7
426(11) 0.00722 381.0 22.4
399(10) 0.00853 380.9 23.3
423(11) 0.00817 380.8 24.2
416(11) 0.00764 380.7 25.3
419(11) 0.00744 380.6 26.4
403(11) 0.00786 380.5 27.8
383(10) 0.00872 380.3 29.3
417(11) 0.00824 380.2 30.9
397(10) 0.00845 380.1 32.9
393(11) 0.00812 380.0 35.0
436(11) 0.00745 379.9 37.5
435(11) 0.00770 379.8 40.2
418(11) 0.00830 379.6 43.4
487(12) 0.00656 379.5 47.0
458(12) 0.00691 379.4 51.0
450(11) 0.00714 379.3 55.6
464(11) 0.00727 379.2 60.8
468(11) 0.00749 379.1 66.6
481(12) 0.00682 378.9 73.1
480(12) 0.00610 378.8 80.3
468(12) 0.00671 378.7 88.3
490(12) 0.00688 378.6 97.0
517(12) 0.00681 378.5 106.5
501(12) 0.00649 378.4 116.6
490(12) 0.00628 378.2 127.2
538(13) 0.00596 378.1 138.1
547(12) 0.00633 378.0 148.8
545(12) 0.00640 377.9 158.9
571(13) 0.00593 377.8 167.8
579(14) 0.00522 377.6 174.8
585(13) 0.00553 377.5 179.3
558(12) 0.00629 377.4 181.0
583(13) 0.00593 377.3 179.6
545(12) 0.00618 377.2 175.3
565(13) 0.00540 377.1 168.5
546(12) 0.00608 376.9 159.8
554(12) 0.00640 376.8 149.7
524(12) 0.00642 376.7 139.0
516(12) 0.00635 376.6 128.1
491(12) 0.00631 376.5 117.3
470(12) 0.00700 376.4 107.0
471(11) 0.00738 376.2 97.4
443(11) 0.00759 376.1 88.5
454(11) 0.00710 376.0 80.3
437(11) 0.00725 375.9 72.9
413(11) 0.00791 375.8 66.2
433(11) 0.00797 375.7 60.3
434(11) 0.00774 375.5 54.9
425(11) 0.00751 375.4 50.2
433(11) 0.00733 375.3 46.0
416(11) 0.00799 375.2 42.3
415(11) 0.00831 375.1 38.9
436(11) 0.00751 375.0 36.0
407(11) 0.00788 374.8 33.4
411(11) 0.00784 374.7 31.1
404(11) 0.00811 374.6 29.1
370(10) 0.00917 374.5 27.3
395(11) 0.00831 374.4 25.6
404(11) 0.00774 374.2 24.2
383(10) 0.00841 374.1 22.9
394(11) 0.00838 374.0 21.7
417(11) 0.00826 373.9 20.6
384(10) 0.00843 373.8 19.6
404(11) 0.00763 373.7 18.7
384(10) 0.00844 373.5 17.9
380(10) 0.00901 373.4 17.1
400(10) 0.00851 373.3 16.4
388(10) 0.00844 373.2 15.8
394(11) 0.00807 373.1 15.2
415(11) 0.00777 373.0 14.6
392(10) 0.00864 372.8 14.1
380(10) 0.00908 372.7 13.7
403(11) 0.00791 372.6 13.2
394(11) 0.00785 372.5 12.8
376(10) 0.00857 372.4 12.4
351(10) 0.00970 372.3 12.1
359(10) 0.00955 372.1 11.7
369(10) 0.00867 372.0 11.4
372(11) 0.00800 371.9 11.1
368(10) 0.00883 371.8 10.8
376(10) 0.00907 371.7 10.6
349(10) 0.00954 371.6 10.3
376(10) 0.00851 371.4 10.1
378(11) 0.00803 371.3 9.9
378(10) 0.00858 371.2 9.7
380(10) 0.00906 371.1 9.5
386(10) 0.00863 371.0 9.3
401(11) 0.00795 370.8 9.2
386(11) 0.00801 370.7 9.0
384(10) 0.00848 370.6 8.9
362(10) 0.00924 370.5 8.7
401(11) 0.00831 370.4 8.6
388(11) 0.00818 370.3 8.5
366(10) 0.00884 370.1 8.4
374(10) 0.00855 370.0 8.3
378(10) 0.00907 369.9 8.2
374(10) 0.00869 369.8 8.1
391(11) 0.00800 369.7 8.0
372(10) 0.00841 369.6 7.9
373(10) 0.00875 369.4 7.9
364(10) 0.00932 369.3 7.8
369(10) 0.00883 369.2 7.7
387(11) 0.00792 369.1 7.7
372(10) 0.00859 369.0 7.6
372(10) 0.00887 368.9 7.6
393(10) 0.00866 368.7 7.5
392(11) 0.00832 368.6 7.5
363(10) 0.00854 368.5 7.5
366(10) 0.00864 368.4 7.5
390(10) 0.00844 368.3 7.4
328(9) 0.01035 368.2 7.4
374(11) 0.00818 368.0 7.4
353(10) 0.00889 367.9 7.4
364(10) 0.00872 367.8 7.4
383(10) 0.00887 367.7 7.4
373(10) 0.00897 367.6 7.4
371(10) 0.00848 367.5 7.4
357(10) 0.00845 367.4 7.5
360(10) 0.00864 367.4 7.5
315(9) 0.01040 367.3 7.5
354(10) 0.00962 367.2 7.6
367(10) 0.00880 367.1 7.6
354(10) 0.00841 367.0 7.6
359(10) 0.00872 366.9 7.7
364(10) 0.00934 366.8 7.8
379(10) 0.00913 366.7 7.8
383(10) 0.00844 366.6 7.9
363(10) 0.00846 366.5 8.0
358(10) 0.00894 366.4 8.1
373(10) 0.00899 366.3 8.3
376(10) 0.00910 366.2 8.4
358(10) 0.00890 366.1 8.6
356(10) 0.00857 366.0 8.7
386(11) 0.00826 365.9 8.9
367(10) 0.00928 365.8 9.1
359(10) 0.00948 365.8 9.4
379(10) 0.00839 365.7 9.7
396(11) 0.00770 365.6 10.1
410(11) 0.00770 365.5 10.5
373(10) 0.00921 365.4 11.1
392(10) 0.00848 365.3 11.8
376(11) 0.00830 365.2 12.8
361(10) 0.00845 365.1 14.2
380(10) 0.00846 365.0 15.9
379(10) 0.00897 364.9 18.3
365(10) 0.00924 364.8 21.3
403(11) 0.00814 364.7 25.1
386(11) 0.00838 364.6 29.4
410(11) 0.00779 364.5 34.2
397(10) 0.00865 364.4 38.7
423(11) 0.00768 364.3 42.0
404(11) 0.00802 364.3 43.2
431(11) 0.00742 364.2 41.7
406(11) 0.00793 364.1 38.3
382(10) 0.00892 364.0 33.9
388(11) 0.00829 363.9 29.5
389(11) 0.00800 363.8 25.5
393(11) 0.00812 363.7 22.2
404(11) 0.00822 363.6 19.6
366(10) 0.00934 363.5 17.7
357(10) 0.00907 363.4 16.3
340(10) 0.00910 363.3 15.3
356(10) 0.00885 363.2 14.7
376(10) 0.00880 363.1 14.3
342(10) 0.00987 363.0 14.0
388(11) 0.00798 362.9 13.9
394(11) 0.00770 362.8 13.9
395(11) 0.00824 362.7 13.9
378(10) 0.00907 362.7 14.0
372(10) 0.00927 362.6 14.1
349(10) 0.00896 362.5 14.2
357(10) 0.00842 362.4 14.4
398(11) 0.00796 362.3 14.6
377(10) 0.00905 362.2 14.9
388(10) 0.00882 362.1 15.1
390(10) 0.00845 362.0 15.4
376(11) 0.00801 361.9 15.7
358(10) 0.00926 361.8 16.0
380(10) 0.00888 361.7 16.4
373(10) 0.00895 361.6 16.8
375(11) 0.00818 361.5 17.2
382(11) 0.00791 361.4 17.6
377(10) 0.00868 361.3 18.0
374(10) 0.00918 361.2 18.5
393(10) 0.00854 361.1 19.0
374(10) 0.00858 361.1 19.5
353(10) 0.00871 361.0 20.1
385(11) 0.00837 360.9 20.6
372(10) 0.00920 360.8 21.2
386(10) 0.00857 360.7 21.9
388(11) 0.00831 360.6 22.5
394(11) 0.00786 360.5 23.2
416(11) 0.00762 360.4 24.0
426(11) 0.00806 360.3 24.8
386(10) 0.00875 360.2 25.6
383(11) 0.00825 360.1 26.5
376(10) 0.00867 360.0 27.4
371(10) 0.00852 359.9 28.4
412(10) 0.00843 359.8 29.4
399(11) 0.00826 359.7 30.5
389(11) 0.00808 359.6 31.7
386(11) 0.00823 359.6 32.9
409(11) 0.00799 359.5 34.2
396(10) 0.00863 359.4 35.6
398(10) 0.00843 359.3 37.1
395(11) 0.00818 359.2 38.7
393(11) 0.00790 359.1 40.4
426(11) 0.00782 359.0 42.1
407(10) 0.00846 358.9 44.0
393(11) 0.00803 358.8 46.0
414(11) 0.00740 358.7 48.1
396(11) 0.00812 358.6 50.2
443(11) 0.00746 358.5 52.5
402(10) 0.00854 358.4 54.8
408(11) 0.00778 358.3 57.1
447(12) 0.00683 358.2 59.4
429(11) 0.00778 358.1 61.7
451(11) 0.00752 358.0 63.9
446(11) 0.00772 358.0 65.9
457(11) 0.00713 357.9 67.6
433(11) 0.00719 357.8 69.0
445(12) 0.00706 357.7 70.0
447(11) 0.00771 357.6 70.5
444(11) 0.00778 357.5 70.5
423(11) 0.00781 357.4 70.1
439(12) 0.00697 357.3 69.2
438(11) 0.00757 357.2 67.9
427(11) 0.00808 357.1 66.3
429(11) 0.00796 357.0 64.4
407(11) 0.00807 356.9 62.4
424(12) 0.00707 356.8 60.2
434(11) 0.00754 356.7 58.1
412(11) 0.00835 356.6 55.9
409(11) 0.00825 356.5 53.8
412(11) 0.00770 356.4 51.9
401(11) 0.00772 356.4 50.0
417(11) 0.00760 356.3 48.2
401(10) 0.00846 356.2 46.6
399(10) 0.00858 356.1 45.1
419(11) 0.00765 356.0 43.8
403(11) 0.00785 355.9 42.6
428(11) 0.00737 355.8 41.5
375(10) 0.00906 355.7 40.6
394(11) 0.00838 355.6 39.8
408(11) 0.00804 355.5 39.1
385(11) 0.00838 355.4 38.6
386(11) 0.00836 355.3 38.2
383(10) 0.00893 355.2 37.9
351(10) 0.00952 355.1 37.7
403(11) 0.00770 355.0 37.6
385(11) 0.00817 354.9 37.6
381(10) 0.00852 354.9 37.7
374(10) 0.00915 354.8 38.0
409(11) 0.00788 354.7 38.3
395(11) 0.00791 354.6 38.8
376(11) 0.00827 354.5 39.4
386(10) 0.00872 354.4 40.1
391(10) 0.00875 354.3 40.9
399(11) 0.00796 354.2 41.9
415(11) 0.00749 354.1 43.0
400(11) 0.00789 354.0 44.3
389(10) 0.00867 353.9 45.7
411(10) 0.00840 353.8 47.3
370(10) 0.00854 353.7 49.1
395(11) 0.00769 353.6 51.1
388(11) 0.00831 353.5 53.3
396(10) 0.00845 353.4 55.8
399(10) 0.00858 353.3 58.6
432(11) 0.00761 353.3 61.7
418(11) 0.00754 353.2 65.1
424(11) 0.00765 353.1 68.9
417(11) 0.00811 353.0 73.1
426(11) 0.00810 352.9 77.8
430(11) 0.00743 352.8 83.0
429(11) 0.00719 352.7 88.6
482(12) 0.00670 352.6 94.9
456(11) 0.00745 352.5 101.8
426(11) 0.00819 352.4 109.3
451(11) 0.00724 352.3 117.5
480(12) 0.00615 352.2 126.5
466(12) 0.00698 352.1 136.2
502(12) 0.00693 352.0 146.7
508(12) 0.00688 351.9 157.9
529(12) 0.00616 351.8 169.9
526(13) 0.00579 351.7 182.5
536(12) 0.00611 351.7 195.7
559(12) 0.00630 351.6 209.2
580(13) 0.00595 351.5 222.8
552(12) 0.00606 351.4 236.1
597(14) 0.00514 351.3 248.9
627(14) 0.00522 351.2 260.7
604(13) 0.00583 351.1 270.9
602(13) 0.00575 351.0 279.3
635(14) 0.00507 350.9 285.4
616(14) 0.00519 350.8 289.0
551(12) 0.00609 350.7 290.1
594(13) 0.00595 350.6 288.6
618(13) 0.00546 350.5 284.9
583(13) 0.00556 350.4 279.2
580(13) 0.00555 350.3 271.7
527(12) 0.00642 350.2 262.8
517(12) 0.00675 350.2 252.7
520(12) 0.00660 350.1 241.5
538(13) 0.00595 350.0 229.6
530(12) 0.00609 349.9 217.1
510(12) 0.00656 349.8 204.1
495(12) 0.00705 349.7 191.0
485(12) 0.00682 349.6 178.0
488(12) 0.00652 349.5 165.3
445(11) 0.00735 349.4 153.1
442(11) 0.00767 349.3 141.5
459(11) 0.00749 349.2 130.6
453(12) 0.00700 349.1 120.5
434(11) 0.00711 349.0 111.2
413(11) 0.00794 348.9 102.6
432(11) 0.00782 348.8 94.8
404(10) 0.00860 348.7 87.7
420(11) 0.00762 348.6 81.2
399(11) 0.00792 348.6 75.4
408(11) 0.00797 348.5 70.1
415(11) 0.00823 348.4 65.3
396(10) 0.00860 348.3 61.0
416(11) 0.00763 348.2 57.0
380(11) 0.00815 348.1 53.5
407(11) 0.00794 348.0 50.3
387(10) 0.00885 347.9 47.3
402(10) 0.00865 347.8 44.7
398(11) 0.00815 347.7 42.2
388(11) 0.00775 347.6 40.0
381(11) 0.00813 347.5 38.0
366(10) 0.00927 347.4 36.1
396(10) 0.00864 347.3 34.4
364(10) 0.00880 347.2 32.8
396(11) 0.00753 347.1 31.4
353(10) 0.00931 347.1 30.0
379(10) 0.00894 347.0 28.8
373(10) 0.00916 346.9 27.6
382(11) 0.00831 346.8 26.5
365(11) 0.00808 346.7 25.5
351(10) 0.00895 346.6 24.5
372(10) 0.00921 346.5 23.6
365(10) 0.00895 346.4 22.8
374(10) 0.00844 346.3 22.0
376(11) 0.00814 346.2 21.2
363(10) 0.00887 346.1 20.5
373(10) 0.00913 346.0 19.9
371(10) 0.00897 345.9 19.2
368(10) 0.00849 345.8 18.6
345(10) 0.00893 345.7 18.1
342(10) 0.00923 345.6 17.6
367(10) 0.00932 345.5 17.1
343(10) 0.00952 345.5 16.6
344(10) 0.00923 345.4 16.2
353(10) 0.00891 345.3 15.7
365(10) 0.00875 345.2 15.4
367(10) 0.00925 345.1 15.0
386(11) 0.00832 345.0 14.6
367(10) 0.00842 344.9 14.3
359(10) 0.00883 344.8 14.0
358(10) 0.00883 344.7 13.7
371(10) 0.00917 344.6 13.4
359(10) 0.00889 344.5 13.2
356(10) 0.00861 344.4 12.9
350(10) 0.00899 344.3 12.7
330(10) 0.00995 344.2 12.5
354(10) 0.00959 344.1 12.3
367(10) 0.00881 344.0 12.1
347(10) 0.00883 343.9 12.0
353(10) 0.00917 343.9 11.8
359(10) 0.00932 343.8 11.7
360(10) 0.00948 343.7 11.6
353(10) 0.00892 343.6 11.5
341(10) 0.00890 343.5 11.4
341(10) 0.00945 343.4 11.4
339(10) 0.00987 343.3 11.3
341(10) 0.00992 343.2 11.3
361(10) 0.00877 343.1 11.3
344(10) 0.00865 343.0 11.3
340(10) 0.00923 342.9 11.4
353(10) 0.00953 342.8 11.5
326(9) 0.01030 342.7 11.5
353(10) 0.00909 342.6 11.7
358(11) 0.00836 342.5 11.8
350(10) 0.00921 342.4 12.0
350(10) 0.00965 342.4 12.1
337(10) 0.00992 342.3 12.4
345(10) 0.00939 342.2 12.6
357(10) 0.00858 342.1 12.8
338(10) 0.00932 342.0 13.1
316(9) 0.01055 341.9 13.4
355(10) 0.00924 341.8 13.7
337(10) 0.00936 341.7 14.0
347(10) 0.00869 341.6 14.4
341(10) 0.00905 341.5 14.7
349(10) 0.00974 341.4 14.9
339(10) 0.00958 341.3 15.2
350(10) 0.00924 341.2 15.4
333(10) 0.00939 341.1 15.5
340(10) 0.00948 341.0 15.6
352(10) 0.00961 340.9 15.6
338(10) 0.00947 340.8 15.6
339(10) 0.00922 340.8 15.4
339(10) 0.00913 340.7 15.2
363(10) 0.00876 340.6 14.9
345(10) 0.00986 340.5 14.5
330(10) 0.00993 340.4 14.1
325(10) 0.00963 340.3 13.7
317(10) 0.00965 340.2 13.3
344(10) 0.00945 340.1 12.8
339(10) 0.01006 340.0 12.3
341(10) 0.00919 339.9 11.8
342(10) 0.00878 339.8 11.4
347(10) 0.00908 339.7 11.0
343(10) 0.00956 339.6 10.5
355(10) 0.00954 339.5 10.1
334(10) 0.00947 339.4 9.7
329(10) 0.00931 339.3 9.4
344(10) 0.00922 339.2 9.1
330(9) 0.01016 339.2 8.7
351(10) 0.00967 339.1 8.4
326(10) 0.00983 339.0 8.2
346(10) 0.00865 338.9 7.9
340(10) 0.00962 338.8 7.7
331(10) 0.00991 338.7 7.5
353(10) 0.00956 338.6 7.3
343(10) 0.00900 338.5 7.1
318(10) 0.00972 338.4 6.9
328(10) 0.00971 338.3 6.7
326(9) 0.01020 338.2 6.6
326(9) 0.01037 338.1 6.4
322(10) 0.00990 338.0 6.3
350(11) 0.00830 337.9 6.2
338(10) 0.00947 337.8 6.1
350(10) 0.00969 337.7 6.0
301(9) 0.01102 337.7 5.9
354(10) 0.00893 337.6 5.8
350(10) 0.00852 337.5 5.8
321(10) 0.00999 337.4 5.7
332(9) 0.01018 337.3 5.6
336(10) 0.00993 337.2 5.6
333(10) 0.00981 337.1 5.5
347(10) 0.00855 337.0 5.5
334(10) 0.00924 336.9 5.4
320(9) 0.01073 336.8 5.4
319(9) 0.01046 336.7 5.3
339(10) 0.00930 336.6 5.3
317(10) 0.00982 336.5 5.3
326(10) 0.00954 336.4 5.3
336(9) 0.01008 336.3 5.3
347(10) 0.00923 336.2 5.2
337(10) 0.00909 336.1 5.2
324(10) 0.00949 336.1 5.2
329(10) 0.00999 336.0 5.2
326(9) 0.01033 335.9 5.2
330(10) 0.00966 335.8 5.2
330(10) 0.00962 335.7 5.2
358(10) 0.00880 335.6 5.2
350(10) 0.00941 335.5 5.3
320(9) 0.01043 335.4 5.3
340(10) 0.00932 335.3 5.3
335(10) 0.00930 335.2 5.3
333(10) 0.00940 335.1 5.4
346(10) 0.00941 335.0 5.4
321(9) 0.01047 334.9 5.5
357(10) 0.00888 334.8 5.5
353(10) 0.00871 334.7 5.6
328(10) 0.00961 334.6 5.6
326(9) 0.01030 334.6 5.7
351(10) 0.00971 334.5 5.7
344(10) 0.00910 334.4 5.8
334(10) 0.00901 334.3 5.9
341(10) 0.00938 334.2 6.0
337(10) 0.00983 334.1 6.1
369(10) 0.00915 334.0 6.2
343(10) 0.00921 333.9 6.3
358(11) 0.00809 333.8 6.5
336(10) 0.00943 333.7 6.6
339(10) 0.00992 333.6 6.7
304(9) 0.01103 333.5 6.9
338(10) 0.00966 333.4 7.1
340(10) 0.00872 333.3 7.3
312(10) 0.01001 333.2 7.5
324(9) 0.01039 333.1 7.7
343(10) 0.00980 333.0 7.9
366(10) 0.00859 333.0 8.2
351(10) 0.00854 332.9 8.4
312(9) 0.01045 332.8 8.7
353(10) 0.00955 332.7 9.0
361(10) 0.00918 332.6 9.4
335(10) 0.00958 332.5 9.7
338(10) 0.00867 332.4 10.1
304(9) 0.01042 332.3 10.5
348(10) 0.00970 332.2 11.0
304(9) 0.01080 332.1 11.4
320(10) 0.01001 332.0 11.9
352(10) 0.00861 331.9 12.4
345(10) 0.00912 331.8 13.0
327(9) 0.01039 331.7 13.6
340(10) 0.00960 331.6 14.2
351(10) 0.00893 331.5 14.9
322(10) 0.00965 331.4 15.6
337(10) 0.00927 331.4 16.3
340(10) 0.01002 331.3 17.0
337(10) 0.00969 331.2 17.8
344(10) 0.00891 331.1 18.6
335(10) 0.00940 331.0 19.4
357(10) 0.00903 330.9 20.2
350(10) 0.00972 330.8 21.0
324(10) 0.01000 330.7 21.8
346(10) 0.00905 330.6 22.6
342(10) 0.00913 330.5 23.3
374(10) 0.00883 330.4 24.0
362(10) 0.00940 330.3 24.6
360(10) 0.00870 330.2 25.2
335(10) 0.00927 330.1 25.6
353(10) 0.00879 330.0 25.9
354(10) 0.00953 329.9 26.1
335(10) 0.00988 329.9 26.2
342(10) 0.00939 329.8 26.2
347(10) 0.00893 329.7 26.0
350(10) 0.00925 329.6 25.7
328(9) 0.01008 329.5 25.2
353(10) 0.00958 329.4 24.7
362(10) 0.00885 329.3 24.1
327(10) 0.00956 329.2 23.4
344(10) 0.00922 329.1 22.7
356(10) 0.00917 329.0 21.9
367(10) 0.00930 328.9 21.1
365(10) 0.00870 328.8 20.3
359(11) 0.00823 328.7 19.5
340(10) 0.00951 328.6 18.7
340(10) 0.00980 328.5 17.9
348(10) 0.00970 328.4 17.1
330(10) 0.00995 328.3 16.4
320(10) 0.00932 328.3 15.6
314(10) 0.00994 328.2 14.9
332(10) 0.01006 328.1 14.3
322(9) 0.01024 328.0 13.6
323(10) 0.00966 327.9 13.0
314(10) 0.00967 327.8 12.5
365(10) 0.00859 327.7 11.9
324(9) 0.01040 327.6 11.4
338(10) 0.00977 327.5 11.0
348(10) 0.00893 327.4 10.5
311(10) 0.00953 327.3 10.1
333(10) 0.00941 327.2 9.7
315(9) 0.01056 327.1 9.4
354(10) 0.00927 327.0 9.0
327(10) 0.01004 326.9 8.7
326(10) 0.00928 326.8 8.4
313(9) 0.01025 326.7 8.2
326(9) 0.01032 326.7 7.9
334(10) 0.00959 326.6 7.7
312(10) 0.00985 326.5 7.5
319(10) 0.00943 326.4 7.3
329(10) 0.00993 326.3 7.1
316(9) 0.01060 326.2 6.9
317(10) 0.00993 326.1 6.8
324(10) 0.00980 326.0 6.6
325(10) 0.00970 325.9 6.5
318(10) 0.01000 325.8 6.4
315(9) 0.01053 325.7 6.3
296(9) 0.01031 325.6 6.2
302(9) 0.01026 325.5 6.1
330(10) 0.00962 325.4 6.0
327(10) 0.00993 325.3 6.0
298(9) 0.01097 325.2 5.9
313(10) 0.00995 325.2 5.9
336(10) 0.00890 325.1 5.8
308(9) 0.01063 325.0 5.8
327(10) 0.00988 324.9 5.7
316(9) 0.01075 324.8 5.7
330(10) 0.00960 324.7 5.7
323(10) 0.00928 324.6 5.7
330(10) 0.00949 324.5 5.7
321(9) 0.01059 324.4 5.7
333(9) 0.01008 324.3 5.7
297(9) 0.01070 324.2 5.7
332(10) 0.00901 324.1 5.7
331(10) 0.00957 324.0 5.7
338(10) 0.00990 323.9 5.7
322(9) 0.01036 323.8 5.8
339(10) 0.00929 323.7 5.8
321(10) 0.00919 323.6 5.8
328(10) 0.00961 323.6 5.9
312(9) 0.01087 323.5 5.9
331(10) 0.00998 323.4 5.9
312(9) 0.01036 323.3 6.0
314(10) 0.00972 323.2 6.0
337(10) 0.00930 323.1 6.1
320(9) 0.01059 323.0 6.1
314(9) 0.01061 322.9 6.1
318(10) 0.00975 322.8 6.2
317(10) 0.00959 322.7 6.2
338(10) 0.00960 322.6 6.3
323(9) 0.01049 322.5 6.3
331(10) 0.00980 322.4 6.3
312(10) 0.01006 322.3 6.4
322(10) 0.00975 322.2 6.4
338(10) 0.00909 322.1 6.4
314(9) 0.01067 322.0 6.4
334(10) 0.00985 321.9 6.4
319(10) 0.00973 321.8 6.4
309(10) 0.00974 321.7 6.4
301(9) 0.01062 321.6 6.4
307(9) 0.01096 321.5 6.4
357(10) 0.00905 321.4 6.4
338(10) 0.00933 321.3 6.4
311(9) 0.01008 321.2 6.3
322(10) 0.01000 321.1 6.3
307(9) 0.01087 321.0 6.2
303(9) 0.01027 320.9 6.2
313(10) 0.00972 320.8 6.1
327(10) 0.00956 320.7 6.0
319(9) 0.01020 320.6 6.0
340(10) 0.01003 320.5 5.9
331(10) 0.00930 320.4 5.8
311(10) 0.00981 320.3 5.7
321(9) 0.01032 320.2 5.6
335(10) 0.00991 320.1 5.5
303(9) 0.01105 320.0 5.5
351(10) 0.00892 319.9 5.4
308(10) 0.01007 319.8 5.3
324(10) 0.00985 319.7 5.2
308(9) 0.01064 319.6 5.1
314(9) 0.01064 319.5 5.0
337(10) 0.00932 319.5 4.9
321(10) 0.00949 319.4 4.8
332(10) 0.00943 319.3 4.7
323(9) 0.01041 319.2 4.6
315(9) 0.01069 319.1 4.5
323(10) 0.00964 319.0 4.4
307(10) 0.00944 318.9 4.3
315(9) 0.01019 318.8 4.2
332(9) 0.01027 318.7 4.1
316(9) 0.01060 318.6 4.1
324(10) 0.01005 318.5 4.0
320(10) 0.00934 318.4 3.9
306(9) 0.01012 318.3 3.8
304(9) 0.01090 318.2 3.7
326(9) 0.01024 318.1 3.7
318(10) 0.00974 318.0 3.6
301(10) 0.00998 317.9 3.5
313(9) 0.01027 317.8 3.5
353(10) 0.00962 317.7 3.4
298(9) 0.01072 317.6 3.3
307(10) 0.01002 317.5 3.3
302(9) 0.01021 317.4 3.2
320(10) 0.00989 317.3 3.2
326(9) 0.01025 317.2 3.1
335(10) 0.00989 317.1 3.1
327(10) 0.00932 317.0 3.0
324(10) 0.00980 316.9 3.0
307(9) 0.01027 316.8 2.9
310(9) 0.01094 316.7 2.9
339(10) 0.00951 316.6 2.8
303(9) 0.01048 316.5 2.8
313(10) 0.01001 316.4 2.7
301(9) 0.01066 316.3 2.7
302(9) 0.01099 316.2 2.7
300(9) 0.01075 316.1 2.6
278(9) 0.01104 316.0 2.6
306(9) 0.01038 315.9 2.6
327(10) 0.01002 315.8 2.5
296(9) 0.01131 315.7 2.5
294(9) 0.01100 315.6 2.5
334(10) 0.00932 315.5 2.5
316(9) 0.01017 315.4 2.4
299(9) 0.01117 315.3 2.4
322(9) 0.01049 315.2 2.4
329(10) 0.00989 315.1 2.4
343(10) 0.00895 315.0 2.3
338(10) 0.00934 314.9 2.3
308(9) 0.01061 314.8 2.3
317(9) 0.01048 314.7 2.3
313(10) 0.00998 314.6 2.3
317(10) 0.00928 314.5 2.2
295(9) 0.01070 314.4 2.2
311(9) 0.01091 314.3 2.2
305(9) 0.01102 314.2 2.2
305(9) 0.01024 314.1 2.2
303(10) 0.00923 314.0 2.2
291(9) 0.01095 313.9 2.2
313(9) 0.01051 313.8 2.1
325(9) 0.01028 313.7 2.1
315(9) 0.01029 313.6 2.1
304(10) 0.00971 313.5 2.1
297(9) 0.01051 313.4 2.1
315(9) 0.01056 313.3 2.1
321(9) 0.01024 313.2 2.1
301(9) 0.01042 313.1 2.1
307(10) 0.00915 313.0 2.1
306(10) 0.00988 312.9 2.1
346(10) 0.00984 312.8 2.1
316(9) 0.01042 312.7 2.1
290(9) 0.01076 312.6 2.1
324(10) 0.00910 312.5 2.1
284(9) 0.01128 312.4 2.1
305(9) 0.01095 312.3 2.1
319(9) 0.01039 312.2 2.1
319(10) 0.00996 312.1 2.1
330(10) 0.00937 312.0 2.1
331(10) 0.00954 311.9 2.1
307(9) 0.01089 311.8 2.1
304(9) 0.01044 311.7 2.1
299(9) 0.01042 311.6 2.1
300(9) 0.01055 311.5 2.1
305(9) 0.01044 311.4 2.1
300(9) 0.01116 311.3 2.1
300(9) 0.01070 311.2 2.1
313(10) 0.00969 311.1 2.1
305(9) 0.01028 311.0 2.1
285(9) 0.01151 310.9 2.1
286(9) 0.01166 310.8 2.2
298(9) 0.01065 310.7 2.2
321(10) 0.00939 310.6 2.2
312(10) 0.01003 310.5 2.2
321(9) 0.01030 310.4 2.2
325(9) 0.01047 310.3 2.3
287(9) 0.01067 310.2 2.3
307(10) 0.00982 310.1 2.3
326(10) 0.00987 310.0 2.3
316(9) 0.01030 309.9 2.4
328(9) 0.01038 309.8 2.4
312(9) 0.01021 309.7 2.4
316(10) 0.00937 309.6 2.5
311(9) 0.01028 309.5 2.5
291(9) 0.01141 309.4 2.6
329(9) 0.01017 309.3 2.6
319(10) 0.00969 309.2 2.7
296(10) 0.00980 309.1 2.8
329(10) 0.00951 309.0 2.9
307(9) 0.01088 308.9 2.9
298(9) 0.01123 308.8 3.0
301(9) 0.01051 308.7 3.1
306(10) 0.00988 308.6 3.3
309(9) 0.01008 308.5 3.4
312(9) 0.01078 308.4 3.5
299(9) 0.01112 308.3 3.7
317(10) 0.00970 308.2 3.9
313(10) 0.00946 308.1 4.1
318(9) 0.01009 308.0 4.4
304(9) 0.01115 307.9 4.7
315(9) 0.01066 307.8 5.0
325(10) 0.00990 307.7 5.4
298(9) 0.01027 307.6 5.9
295(9) 0.01043 307.5 6.5
300(9) 0.01121 307.4 7.3
316(9) 0.01030 307.3 8.1
326(10) 0.00973 307.2 9.1
303(9) 0.01041 307.1 10.3
306(10) 0.01003 307.0 11.7
310(9) 0.01078 306.9 13.3
323(9) 0.01010 306.8 15.0
332(10) 0.00967 306.8 16.9
320(9) 0.01009 306.7 18.9
327(9) 0.01010 306.6 20.9
329(9) 0.01033 306.5 22.6
316(9) 0.01013 306.4 23.8
295(9) 0.01062 306.3 24.4
328(10) 0.00963 306.2 24.2
310(9) 0.01054 306.1 23.2
308(9) 0.01080 306.0 21.7
301(9) 0.01057 305.9 19.9
337(10) 0.00914 305.8 17.9
335(10) 0.00939 305.7 16.0
293(9) 0.01116 305.6 14.2
313(9) 0.01068 305.5 12.6
328(10) 0.00955 305.4 11.1
285(9) 0.01082 305.3 9.9
318(10) 0.00965 305.2 8.8
311(9) 0.01055 305.1 7.9
299(9) 0.01125 305.0 7.2
298(9) 0.01029 304.9 6.6
310(10) 0.00960 304.8 6.1
301(9) 0.01033 304.7 5.7
289(9) 0.01148 304.6 5.3
334(9) 0.01011 304.5 5.0
318(10) 0.01002 304.4 4.8
297(9) 0.01030 304.3 4.6
305(9) 0.01016 304.2 4.4
296(9) 0.01073 304.1 4.3
311(9) 0.01070 304.0 4.2
317(9) 0.01019 303.9 4.1
312(10) 0.00962 303.8 4.0
318(10) 0.00964 303.7 4.0
306(9) 0.01097 303.6 3.9
287(9) 0.01161 303.5 3.9
295(9) 0.01043 303.4 3.9
287(9) 0.01058 303.3 3.9
305(9) 0.01053 303.2 3.9
305(9) 0.01100 303.1 3.9
283(9) 0.01130 303.0 3.9
298(9) 0.01063 302.9 3.9
332(10) 0.00899 302.8 4.0
317(10) 0.00956 302.7 4.0
318(9) 0.01052 302.6 4.1
307(9) 0.01058 302.5 4.2
315(10) 0.00961 302.4 4.3
305(9) 0.01013 302.3 4.4
299(9) 0.01019 302.2 4.5
322(9) 0.01050 302.1 4.7
320(9) 0.01013 302.0 4.8
300(9) 0.01065 301.9 5.0
304(9) 0.01052 301.8 5.2
287(9) 0.01101 301.7 5.4
281(9) 0.01173 301.6 5.7
315(9) 0.01029 301.5 5.9
307(9) 0.01034 301.4 6.1
310(9) 0.01012 301.3 6.3
287(9) 0.01137 301.2 6.5
299(9) 0.01112 301.1 6.6
316(10) 0.00984 301.0 6.7
314(10) 0.00957 300.9 6.7
273(9) 0.01150 300.8 6.6
311(9) 0.01033 300.7 6.5
308(9) 0.01086 300.6 6.3
324(10) 0.00971 300.5 6.1
289(9) 0.01075 300.4 5.9
308(9) 0.01010 300.3 5.6
272(9) 0.01179 300.2 5.4
312(9) 0.01069 300.1 5.2
318(10) 0.00998 300.0 5.0
316(10) 0.00957 299.9 4.8
304(9) 0.01031 299.8 4.6
292(9) 0.01137 299.7 4.5
326(9) 0.01035 299.6 4.4
308(9) 0.01011 299.5 4.3
291(9) 0.01018 299.4 4.2
280(9) 0.01139 299.3 4.1
273(9) 0.01229 299.2 4.1
298(9) 0.01104 299.2 4.0
323(10) 0.00968 299.1 4.0
290(9) 0.01018 299.0 4.0
306(9) 0.01022 299.0 4.0
288(9) 0.01160 298.9 4.0
319(9) 0.01034 298.9 4.0
301(9) 0.01031 298.8 4.0
323(10) 0.00889 298.7 4.0
313(10) 0.00980 298.7 4.0
284(9) 0.01176 298.6 4.0
279(9) 0.01191 298.5 4.1
309(9) 0.01027 298.5 4.1
293(10) 0.01000 298.4 4.2
310(10) 0.00984 298.4 4.2
288(9) 0.01155 298.3 4.3
308(9) 0.01064 298.2 4.3
299(9) 0.01045 298.2 4.4
297(9) 0.01029 298.1 4.5
291(9) 0.01049 298.0 4.6
300(9) 0.01102 298.0 4.7
302(9) 0.01088 297.9 4.7
311(9) 0.01028 297.9 4.8
292(9) 0.01076 297.8 4.9
301(9) 0.01054 297.7 5.0
301(9) 0.01105 297.7 5.1
325(9) 0.01009 297.6 5.3
297(9) 0.01029 297.5 5.4
280(9) 0.01106 297.5 5.5
317(9) 0.01036 297.4 5.6
304(9) 0.01102 297.4 5.8
300(9) 0.01014 297.3 5.9
311(10) 0.00997 297.2 6.1
303(9) 0.01021 297.2 6.2
296(9) 0.01111 297.1 6.4
300(9) 0.01099 297.1 6.6
296(9) 0.01086 297.0 6.7
283(9) 0.01097 296.9 6.9
319(10) 0.00990 296.9 7.1
309(9) 0.01093 296.8 7.3
318(9) 0.01043 296.7 7.5
317(9) 0.01008 296.7 7.6
315(10) 0.00964 296.6 7.8
323(10) 0.00960 296.6 8.0
312(9) 0.01063 296.5 8.2
299(9) 0.01113 296.4 8.4
309(9) 0.01019 296.4 8.6
307(10) 0.00971 296.3 8.8
318(10) 0.00968 296.2 9.0
298(9) 0.01131 296.2 9.2
311(9) 0.01074 296.1 9.4
308(10) 0.00992 296.1 9.6
277(9) 0.01050 296.0 9.7
300(9) 0.01016 295.9 9.9
320(9) 0.01041 295.9 10.1
297(9) 0.01114 295.8 10.2
335(10) 0.00959 295.7 10.3
324(10) 0.00930 295.7 10.4
318(10) 0.00981 295.6 10.5
307(9) 0.01084 295.6 10.6
336(10) 0.00990 295.5 10.7
304(9) 0.01044 295.4 10.8
291(9) 0.01013 295.4 10.8
297(9) 0.01072 295.3 10.8
324(9) 0.01046 295.2 10.8
316(9) 0.01030 295.2 10.8
283(9) 0.01120 295.1 10.8
315(10) 0.00980 295.1 10.8
323(10) 0.01001 295.0 10.8
292(9) 0.01133 294.9 10.7
324(9) 0.01009 294.9 10.7
289(9) 0.01063 294.8 10.7
278(9) 0.01096 294.7 10.6
303(9) 0.01021 294.7 10.6
306(9) 0.01089 294.6 10.5
301(9) 0.01074 294.6 10.5
292(9) 0.01097 294.5 10.4
302(9) 0.01039 294.4 10.4
300(9) 0.01050 294.4 10.4
296(9) 0.01125 294.3 10.4
343(10) 0.00944 294.3 10.4
309(9) 0.01019 294.2 10.4
301(9) 0.01041 294.1 10.4
292(9) 0.01088 294.1 10.4
317(9) 0.01055 294.0 10.5
321(10) 0.00957 293.9 10.5
308(10) 0.01001 293.9 10.6
324(10) 0.00986 293.8 10.7
319(9) 0.01038 293.8 10.8
315(9) 0.01076 293.7 11.0
311(9) 0.01025 293.6 11.1
328(10) 0.00952 293.6 11.3
329(10) 0.00975 293.5 11.5
321(9) 0.01038 293.4 11.7
307(9) 0.01088 293.4 11.9
315(10) 0.00979 293.3 12.2
335(10) 0.00877 293.3 12.4
316(9) 0.01045 293.2 12.7
314(9) 0.01056 293.1 13.0
290(9) 0.01148 293.1 13.3
322(10) 0.00979 293.0 13.6
318(10) 0.00932 292.9 13.9
305(9) 0.01063 292.9 14.2
324(9) 0.01030 292.8 14.5
312(9) 0.01075 292.8 14.7
305(9) 0.01044 292.7 15.0
322(10) 0.00898 292.6 15.2
349(10) 0.00906 292.6 15.4
362(10) 0.00944 292.5 15.6
339(10) 0.00990 292.4 15.7
341(10) 0.00934 292.4 15.8
336(10) 0.00930 292.3 15.9
349(10) 0.00921 292.3 15.8
320(9) 0.01061 292.2 15.8
313(9) 0.01048 292.1 15.6
316(10) 0.00991 292.1 15.5
323(10) 0.00925 292.0 15.2
291(9) 0.01085 292.0 15.0
320(9) 0.01062 291.9 14.7
318(9) 0.01010 291.8 14.3
310(9) 0.01046 291.8 14.0
302(9) 0.01049 291.7 13.6
324(10) 0.00956 291.6 13.2
307(9) 0.01094 291.6 12.8
317(9) 0.01054 291.5 12.4
319(10) 0.00996 291.5 12.0
308(10) 0.01005 291.4 11.6
320(10) 0.00988 291.3 11.2
312(9) 0.01061 291.3 10.8
300(9) 0.01044 291.2 10.4
329(10) 0.00930 291.1 10.0
289(9) 0.01120 291.1 9.7
325(10) 0.00993 291.0 9.4
308(9) 0.01090 291.0 9.0
305(9) 0.01055 290.9 8.7
300(9) 0.01028 290.8 8.5
310(9) 0.01028 290.8 8.2
331(10) 0.01003 290.7 7.9
326(9) 0.01029 290.6 7.7
330(10) 0.00973 290.6 7.5
326(10) 0.00916 290.5 7.3
307(9) 0.01009 290.5 7.1
294(9) 0.01107 290.4 6.9
317(9) 0.01059 290.3 6.7
318(10) 0.00968 290.3 6.6
313(10) 0.00921 290.2 6.5
325(10) 0.00955 290.1 6.3
316(9) 0.01050 290.1 6.2
316(9) 0.01061 290.0 6.1
308(9) 0.01039 290.0 6.0
304(10) 0.00978 289.9 6.0
284(9) 0.01109 289.8 5.9
299(9) 0.01123 289.8 5.8
305(9) 0.01080 289.7 5.8
289(9) 0.01069 289.6 5.7
282(9) 0.01057 289.6 5.7
315(9) 0.01033 289.5 5.7
306(9) 0.01100 289.5 5.6
295(9) 0.01122 289.4 5.6
274(9) 0.01169 289.3 5.6
284(9) 0.01050 289.3 5.6
308(9) 0.01012 289.2 5.5
318(9) 0.01040 289.2 5.5
297(9) 0.01117 289.1 5.5
293(9) 0.01077 289.0 5.5
299(9) 0.01015 289.0 5.4
287(9) 0.01097 288.9 5.4
290(9) 0.01154 288.8 5.4
296(9) 0.01103 288.8 5.3
296(9) 0.01025 288.7 5.3
303(10) 0.00990 288.7 5.2
304(9) 0.01032 288.6 5.2
291(9) 0.01133 288.5 5.1
282(9) 0.01112 288.5 5.0
291(9) 0.01065 288.4 4.9
299(9) 0.01025 288.3 4.9
305(9) 0.01078 288.3 4.8
270(9) 0.01219 288.2 4.7
267(9) 0.01178 288.2 4.6
277(9) 0.01139 288.1 4.5
285(9) 0.01111 288.0 4.4
277(9) 0.01200 288.0 4.3
294(9) 0.01122 287.9 4.2
315(9) 0.01016 287.8 4.1
314(10) 0.00982 287.8 4.0
315(10) 0.00973 287.7 4.0
268(9) 0.01230 287.7 3.9
296(9) 0.01130 287.6 3.8
287(9) 0.01103 287.5 3.7
300(9) 0.01038 287.5 3.6
294(9) 0.01073 287.4 3.5
266(8) 0.01233 287.3 3.5
313(9) 0.01081 287.3 3.4
270(9) 0.01178 287.2 3.3
264(9) 0.01128 287.2 3.2
278(9) 0.01118 287.1 3.2
291(9) 0.01138 287.0 3.1
288(9) 0.01149 287.0 3.1
288(9) 0.01086 286.9 3.0
285(9) 0.01030 286.8 2.9
283(9) 0.01130 286.8 2.9
274(9) 0.01217 286.7 2.8
302(9) 0.01101 286.7 2.8
300(9) 0.01050 286.6 2.8
271(9) 0.01077 286.5 2.7
294(9) 0.01061 286.5 2.7
306(9) 0.01082 286.4 2.6
277(9) 0.01190 286.4 2.6
269(9) 0.01184 286.3 2.6
302(10) 0.00948 286.2 2.6
272(9) 0.01161 286.2 2.5
282(9) 0.01186 286.1 2.5
284(9) 0.01162 286.0 2.5
307(9) 0.01029 286.0 2.5
297(9) 0.01048 285.9 2.5
277(9) 0.01141 285.9 2.4
272(9) 0.01218 285.8 2.4
279(9) 0.01181 285.7 2.4
270(9) 0.01177 285.7 2.4
280(9) 0.01114 285.6 2.4
311(10) 0.00986 285.5 2.4
273(9) 0.01227 285.5 2.4
266(9) 0.01211 285.4 2.4
288(9) 0.01088 285.4 2.4
289(9) 0.01076 285.3 2.4
280(9) 0.01140 285.2 2.4
289(9) 0.01147 285.2 2.4
280(9) 0.01152 285.1 2.5
260(9) 0.01190 285.0 2.5
290(9) 0.01018 285.0 2.5
302(9) 0.01036 284.9 2.5
275(9) 0.01211 284.9 2.5
283(9) 0.01132 284.8 2.5
314(10) 0.00954 284.7 2.4
288(9) 0.01077 284.7 2.4
267(9) 0.01209 284.6 2.4
280(9) 0.01180 284.5 2.4
305(10) 0.00999 284.5 2.3
263(9) 0.01200 284.4 2.3
285(9) 0.01113 284.4 2.3
288(9) 0.01120 284.3 2.2
285(9) 0.01169 284.2 2.2
284(9) 0.01121 284.2 2.2
298(9) 0.01015 284.1 2.1
294(9) 0.01057 284.1 2.1
286(9) 0.01117 284.0 2.1
293(9) 0.01124 283.9 2.1
304(10) 0.00972 283.9 2.0
295(10) 0.01000 283.8 2.0
266(9) 0.01158 283.7 2.0
290(9) 0.01150 283.7 2.0
287(9) 0.01151 283.6 2.0
285(9) 0.01111 283.6 1.9
286(9) 0.01054 283.5 1.9
299(9) 0.01060 283.4 1.9
301(9) 0.01088 283.4 1.9
322(9) 0.01014 283.3 1.9
279(9) 0.01133 283.2 1.9
275(9) 0.01070 283.2 1.9
277(9) 0.01137 283.1 1.9
277(9) 0.01209 283.1 1.9
283(9) 0.01162 283.0 1.8
272(9) 0.01178 282.9 1.8
278(9) 0.01107 282.9 1.8
281(9) 0.01116 282.9 1.8
266(8) 0.01253 283.0 1.8
298(9) 0.01096 283.0 1.8
270(9) 0.01180 283.0 1.8
284(9) 0.01035 283.0 1.8
273(9) 0.01155 283.0 1.8
266(8) 0.01236 283.0 1.8
282(9) 0.01142 283.0 1.8
289(9) 0.01041 283.0 1.8
265(9) 0.01128 283.0 1.8
281(9) 0.01137 283.1 1.8
291(9) 0.01143 283.1 1.8
280(9) 0.01137 283.1 1.8
278(9) 0.01107 283.1 1.8
282(9) 0.01034 283.1 1.8
259(9) 0.01177 283.1 1.8
275(9) 0.01203 283.1 1.8
262(9) 0.01223 283.1 1.8
301(10) 0.00966 283.1 1.8
282(9) 0.01097 283.2 1.8
281(9) 0.01172 283.2 1.8
292(9) 0.01141 283.2 1.8
273(9) 0.01157 283.2 1.8
296(9) 0.01058 283.2 1.8
268(9) 0.01188 283.2 1.8
277(9) 0.01171 283.2 1.8
277(9) 0.01200 283.2 1.8
271(9) 0.01159 283.3 1.8
303(10) 0.01001 283.3 1.8
273(9) 0.01136 283.3 1.8
290(9) 0.01125 283.3 1.8
302(9) 0.01104 283.3 1.8
296(9) 0.01069 283.3 1.8
298(10) 0.01005 283.3 1.8
290(9) 0.01090 283.3 1.9
279(9) 0.01134 283.3 1.9
279(9) 0.01178 283.4 1.9
283(9) 0.01124 283.4 1.9
287(9) 0.01055 283.4 1.9
282(9) 0.01078 283.4 1.9
277(9) 0.01174 283.4 1.9
288(9) 0.01159 283.4 1.9
297(9) 0.01083 283.4 1.9
288(9) 0.01015 283.4 1.9
271(9) 0.01149 283.4 1.9
260(8) 0.01260 283.5 1.9
273(9) 0.01197 283.5 1.9
289(9) 0.01074 283.5 1.9
282(9) 0.01041 283.5 1.9
273(9) 0.01165 283.5 2.0
269(9) 0.01222 283.5 2.0
264(8) 0.01246 283.5 2.0
281(9) 0.01102 283.5 2.0
273(9) 0.01112 283.6 2.0
291(9) 0.01069 283.6 2.0
259(8) 0.01274 283.6 2.0
281(9) 0.01142 283.6 2.0
289(9) 0.01087 283.6 2.0
265(9) 0.01133 283.6 2.0
277(9) 0.01148 283.6 2.1
294(9) 0.01133 283.6 2.1
289(9) 0.01095 283.6 2.1
282(9) 0.01092 283.7 2.1
283(9) 0.01093 283.7 2.1
300(9) 0.01070 283.7 2.1
286(9) 0.01158 283.7 2.1
280(9) 0.01119 283.7 2.1
291(9) 0.01085 283.7 2.2
299(9) 0.01027 283.7 2.2
305(9) 0.01049 283.7 2.2
302(9) 0.01108 283.7 2.2
249(8) 0.01274 283.8 2.2
284(9) 0.01057 283.8 2.2
293(9) 0.01066 283.8 2.3
276(9) 0.01170 283.8 2.3
274(9) 0.01212 283.8 2.3
279(9) 0.01109 283.8 2.3
276(9) 0.01069 283.8 2.3
286(9) 0.01066 283.8 2.4
307(9) 0.01073 283.9 2.4
290(9) 0.01167 283.9 2.4
263(9) 0.01191 283.9 2.5
274(9) 0.01077 283.9 2.5
268(9) 0.01168 283.9 2.5
287(9) 0.01136 283.9 2.5
278(9) 0.01178 283.9 2.6
287(9) 0.01091 283.9 2.6
288(9) 0.01026 283.9 2.6
277(9) 0.01117 284.0 2.7
289(9) 0.01135 284.0 2.7
262(8) 0.01243 284.0 2.7
272(9) 0.01177 284.0 2.8
287(9) 0.01019 284.0 2.8
313(10) 0.00959 284.0 2.9
270(9) 0.01217 284.0 2.9
299(9) 0.01085 284.0 3.0
279(9) 0.01135 284.0 3.0
273(9) 0.01093 284.1 3.1
316(10) 0.00996 284.1 3.1
285(9) 0.01150 284.1 3.2
277(9) 0.01158 284.1 3.2
281(9) 0.01045 284.1 3.3
275(9) 0.01112 284.1 3.4
297(9) 0.01094 284.1 3.4
316(9) 0.01057 284.1 3.5
288(9) 0.01133 284.2 3.6
271(9) 0.01152 284.2 3.7
286(9) 0.01059 284.2 3.7
304(10) 0.01004 284.2 3.8
294(9) 0.01119 284.2 3.9
296(9) 0.01081 284.2 4.0
284(9) 0.01081 284.2 4.1
312(10) 0.00968 284.2 4.2
294(9) 0.01012 284.2 4.2
279(9) 0.01189 284.3 4.3
290(9) 0.01081 284.3 4.4
310(10) 0.01004 284.3 4.4
283(9) 0.01102 284.3 4.5
305(9) 0.01033 284.3 4.6
313(9) 0.01070 284.3 4.6
291(9) 0.01087 284.3 4.7
275(9) 0.01066 284.3 4.7
272(9) 0.01061 284.3 4.7
267(9) 0.01176 284.4 4.7
290(9) 0.01150 284.4 4.7
287(9) 0.01080 284.4 4.7
275(9) 0.01110 284.4 4.7
279(9) 0.01123 284.4 4.6
285(9) 0.01162 284.4 4.6
288(9) 0.01144 284.4 4.6
311(10) 0.00980 284.4 4.6
296(10) 0.00989 284.5 4.5
297(9) 0.01028 284.5 4.5
294(9) 0.01121 284.5 4.5
272(9) 0.01224 284.5 4.5
282(9) 0.01073 284.5 4.4
270(9) 0.01062 284.5 4.4
272(9) 0.01159 284.5 4.4
272(8) 0.01231 284.5 4.4
274(9) 0.01189 284.5 4.4
277(9) 0.01117 284.6 4.4
289(9) 0.01018 284.6 4.4
295(9) 0.01074 284.6 4.4
296(9) 0.01106 284.6 4.4
280(9) 0.01170 284.6 4.4
275(9) 0.01171 284.6 4.4
278(9) 0.01118 284.6 4.4
280(9) 0.01108 284.6 4.4
277(9) 0.01198 284.6 4.4
292(9) 0.01150 284.7 4.5
287(9) 0.01093 284.7 4.5
285(9) 0.01065 284.7 4.5
287(9) 0.01089 284.7 4.5
289(9) 0.01158 284.7 4.6
273(9) 0.01196 284.7 4.6
297(9) 0.01037 284.7 4.6
294(9) 0.01057 284.7 4.7
286(9) 0.01090 284.8 4.7
272(9) 0.01222 284.8 4.8
278(9) 0.01168 284.8 4.8
287(9) 0.01076 284.8 4.9
291(9) 0.01095 284.8 4.9
265(9) 0.01220 284.8 5.0
299(9) 0.01108 284.8 5.0
279(9) 0.01151 284.8 5.1
258(9) 0.01174 284.8 5.2
275(9) 0.01072 284.9 5.2
284(9) 0.01151 284.9 5.3
297(9) 0.01124 284.9 5.4
288(9) 0.01110 284.9 5.4
277(9) 0.01106 284.9 5.5
276(9) 0.01129 284.9 5.6
283(9) 0.01158 284.9 5.7
286(9) 0.01167 284.9 5.8
267(9) 0.01172 284.9 5.8
278(9) 0.01065 285.0 5.9
291(9) 0.01049 285.0 6.0
313(9) 0.01040 285.0 6.1
306(9) 0.01097 285.0 6.2
293(9) 0.01065 285.0 6.3
307(10) 0.00973 285.0 6.4
289(9) 0.01106 285.0 6.5
276(9) 0.01181 285.0 6.7
295(9) 0.01142 285.0 6.8
274(9) 0.01155 285.1 6.9
304(10) 0.00975 285.1 7.0
311(9) 0.01012 285.1 7.2
288(9) 0.01142 285.1 7.3
276(9) 0.01208 285.1 7.4
285(9) 0.01107 285.1 7.6
287(10) 0.00999 285.1 7.7
294(9) 0.01037 285.1 7.9
282(9) 0.01191 285.2 8.0
290(9) 0.01139 285.2 8.2
295(9) 0.01062 285.2 8.4
300(10) 0.01003 285.2 8.5
292(9) 0.01089 285.2 8.7
307(9) 0.01078 285.2 8.9
276(9) 0.01203 285.2 9.1
298(9) 0.01080 285.2 9.3
303(10) 0.00952 285.2 9.5
291(9) 0.01077 285.3 9.8
296(9) 0.01129 285.3 10.0
305(9) 0.01066 285.3 10.2
300(9) 0.01075 285.3 10.5
271(9) 0.01125 285.3 10.7
269(9) 0.01127 285.3 11.0
279(9) 0.01184 285.3 11.3
293(9) 0.01126 285.3 11.6
297(9) 0.01060 285.3 11.9
280(9) 0.01124 285.4 12.2
303(9) 0.01018 285.4 12.5
272(9) 0.01207 285.4 12.8
293(9) 0.01108 285.4 13.2
315(10) 0.00969 285.4 13.5
315(10) 0.00988 285.4 13.9
309(9) 0.01017 285.4 14.3
306(9) 0.01100 285.4 14.8
303(9) 0.01069 285.5 15.2
319(10) 0.00978 285.5 15.6
296(9) 0.01063 285.5 16.1
313(9) 0.01041 285.5 16.6
298(9) 0.01127 285.5 17.2
287(9) 0.01086 285.5 17.7
301(9) 0.01023 285.5 18.3
317(10) 0.00988 285.5 18.9
297(9) 0.01082 285.5 19.5
324(9) 0.01040 285.6 20.2
301(9) 0.01051 285.6 20.9
333(10) 0.00888 285.6 21.7
304(9) 0.01026 285.6 22.5
286(9) 0.01144 285.6 23.3
316(9) 0.01078 285.6 24.2
304(9) 0.01049 285.6 25.2
326(10) 0.00940 285.6 26.2
334(10) 0.00950 285.6 27.2
315(9) 0.01066 285.7 28.4
313(9) 0.01061 285.7 29.6
327(10) 0.00981 285.7 30.9
304(9) 0.01026 285.7 32.3
340(10) 0.00910 285.7 33.8
319(9) 0.01072 285.7 35.4
324(10) 0.01005 285.7 37.1
330(10) 0.00933 285.7 39.0
330(10) 0.00852 285.8 41.0
343(10) 0.00908 285.8 43.2
326(9) 0.01034 285.8 45.6
323(9) 0.01021 285.8 48.3
341(10) 0.00905 285.8 51.2
356(11) 0.00826 285.8 54.5
360(10) 0.00890 285.8 58.1
350(10) 0.00957 285.8 62.1
358(10) 0.00947 285.8 66.7
359(10) 0.00891 285.9 71.8
374(11) 0.00833 285.9 77.7
411(11) 0.00777 285.9 84.3
388(10) 0.00877 285.9 92.0
390(10) 0.00864 285.9 100.8
395(11) 0.00822 285.9 110.9
402(11) 0.00802 285.9 122.6
436(11) 0.00742 285.9 135.9
430(11) 0.00801 285.9 151.3
468(11) 0.00725 286.0 168.8
495(12) 0.00650 286.0 188.8
522(12) 0.00608 286.0 211.2
509(12) 0.00646 286.0 236.3
550(12) 0.00637 286.0 263.7
585(13) 0.00568 286.0 293.3
609(13) 0.00533 286.0 324.2
638(14) 0.00515 286.0 355.2
665(14) 0.00510 286.1 384.7
675(13) 0.00525 286.1 410.6
696(14) 0.00483 286.1 431.3
710(15) 0.00455 286.1 445.3
671(14) 0.00495 286.1 452.6
682(14) 0.00498 286.1 454.0
697(14) 0.00508 286.1 451.1
708(14) 0.00472 286.1 445.3
719(15) 0.00438 286.1 438.1
673(14) 0.00487 286.2 429.8
677(14) 0.00516 286.2 420.2
647(13) 0.00546 286.2 408.6
680(14) 0.00485 286.2 393.9
686(14) 0.00460 286.2 375.7
682(14) 0.00491 286.2 354.0
670(13) 0.00525 286.2 329.5
644(13) 0.00547 286.2 303.3
618(13) 0.00525 286.2 276.6
558(13) 0.00554 286.3 250.5
503(12) 0.00663 286.3 225.7
535(12) 0.00647 286.3 202.8
484(11) 0.00717 286.3 181.9
476(12) 0.00696 286.3 163.2
453(12) 0.00680 286.3 146.5
406(11) 0.00777 286.3 131.8
391(10) 0.00877 286.3 118.9
372(10) 0.00913 286.4 107.5
378(11) 0.00837 286.4 97.6
385(11) 0.00778 286.4 88.9
365(10) 0.00860 286.4 81.3
359(10) 0.00952 286.4 74.6
378(10) 0.00881 286.4 68.8
364(10) 0.00866 286.4 63.6
356(10) 0.00860 286.4 59.1
362(10) 0.00874 286.4 55.0
331(9) 0.01025 286.5 51.4
351(10) 0.00939 286.5 48.2
353(10) 0.00901 286.5 45.3
330(10) 0.00946 286.5 42.7
325(10) 0.00950 286.5 40.3
331(9) 0.01017 286.5 38.2
339(10) 0.00962 286.5 36.2
306(9) 0.01080 286.5 34.4
326(10) 0.00960 286.5 32.7
318(10) 0.00976 286.6 31.2
296(9) 0.01128 286.6 29.8
316(10) 0.00991 286.6 28.5
304(9) 0.01039 286.6 27.3
284(9) 0.01122 286.6 26.1
315(9) 0.01030 286.6 25.1
305(9) 0.01099 286.6 24.1
315(9) 0.01041 286.6 23.2
314(10) 0.00975 286.7 22.4
305(9) 0.01011 286.7 21.6
288(9) 0.01138 286.7 20.9
305(9) 0.01100 286.7 20.2
300(9) 0.01047 286.7 19.5
290(9) 0.01026 286.7 18.9
315(10) 0.00945 286.7 18.4
318(10) 0.00998 286.7 17.8
272(9) 0.01227 286.7 17.3
304(9) 0.01019 286.8 16.9
307(10) 0.00954 286.8 16.4
294(9) 0.01060 286.8 16.0
325(9) 0.01026 286.8 15.7
317(9) 0.01066 286.8 15.3
325(10) 0.00961 286.8 15.0
302(10) 0.00998 286.8 14.7
289(9) 0.01095 286.8 14.4
274(9) 0.01177 286.8 14.1
329(9) 0.01011 286.9 13.9
289(9) 0.01101 286.9 13.7
294(9) 0.01035 286.9 13.5
300(9) 0.01080 286.9 13.4
295(9) 0.01112 286.9 13.2
276(9) 0.01206 286.9 13.1
297(9) 0.01048 286.9 13.0
292(10) 0.01006 286.9 12.9
293(9) 0.01062 287.0 12.9
321(9) 0.01054 287.0 12.9
340(10) 0.00998 287.0 12.9
310(9) 0.01034 287.0 12.9
295(10) 0.00974 287.0 13.0
311(10) 0.00990 287.0 13.2
305(9) 0.01100 287.0 13.3
304(9) 0.01077 287.0 13.6
324(10) 0.00976 287.0 13.9
313(10) 0.00990 287.1 14.2
294(9) 0.01075 287.1 14.7
295(9) 0.01135 287.1 15.3
300(9) 0.01065 287.1 16.0
323(10) 0.00950 287.1 16.8
318(10) 0.00961 287.1 17.9
327(10) 0.01002 287.1 19.3
332(9) 0.01034 287.1 21.1
322(9) 0.01009 287.1 23.4
328(10) 0.00968 287.2 26.4
321(10) 0.00986 287.2 30.3
343(10) 0.00931 287.2 35.4
318(9) 0.01070 287.2 41.8
345(10) 0.00935 287.2 49.7
376(11) 0.00802 287.2 59.2
352(10) 0.00888 287.2 70.2
381(11) 0.00818 287.2 82.1
367(10) 0.00935 287.3 93.7
384(11) 0.00838 287.3 102.8
413(11) 0.00740 287.3 107.2
378(10) 0.00858 287.3 105.5
404(11) 0.00821 287.3 98.1
347(10) 0.00982 287.3 87.2
364(10) 0.00865 287.3 75.1
366(11) 0.00804 287.3 63.4
329(10) 0.00979 287.3 53.1
324(9) 0.01047 287.4 44.2
311(9) 0.01081 287.4 37.0
321(10) 0.00998 287.4 31.2
313(10) 0.00963 287.4 26.7
291(9) 0.01107 287.4 23.1
296(9) 0.01124 287.4 20.3
305(9) 0.01093 287.4 18.2
335(10) 0.00953 287.4 16.4
297(10) 0.00997 287.4 15.1
278(9) 0.01133 287.5 13.9
301(9) 0.01097 287.5 13.0
306(9) 0.01071 287.5 12.2
306(9) 0.01080 287.5 11.5
319(10) 0.00917 287.5 10.9
303(10) 0.00980 287.5 10.4
292(9) 0.01115 287.5 9.9
289(9) 0.01148 287.5 9.5
270(9) 0.01170 287.5 9.2
287(9) 0.01040 287.6 8.9
305(9) 0.01017 287.6 8.6
287(9) 0.01162 287.6 8.3
304(9) 0.01084 287.6 8.1
320(10) 0.00949 287.6 7.9
280(9) 0.01084 287.6 7.7
300(9) 0.01009 287.6 7.5
319(9) 0.01048 287.6 7.4
317(9) 0.01020 287.7 7.2
307(9) 0.01018 287.7 7.1
309(10) 0.01006 287.7 7.0
337(10) 0.00939 287.7 6.8
303(9) 0.01110 287.7 6.7
301(9) 0.01085 287.7 6.6
285(9) 0.01106 287.7 6.6
318(10) 0.00957 287.7 6.5
282(9) 0.01099 287.7 6.4
293(9) 0.01130 287.8 6.3
296(9) 0.01066 287.8 6.3
298(9) 0.01055 287.8 6.2
283(9) 0.01088 287.8 6.2
296(9) 0.01056 287.8 6.1
295(9) 0.01122 287.8 6.1
306(9) 0.01046 287.8 6.0
291(9) 0.01046 287.8 6.0
305(9) 0.01012 287.8 6.0
306(9) 0.01077 287.9 5.9
296(9) 0.01133 287.9 5.9
310(9) 0.01021 287.9 5.9
286(9) 0.01057 287.9 5.9
293(9) 0.01029 287.9 5.8
287(9) 0.01135 287.9 5.8
278(9) 0.01193 287.9 5.8
285(9) 0.01097 287.9 5.8
283(9) 0.01064 288.0 5.8
310(9) 0.01019 288.0 5.8
296(9) 0.01113 288.0 5.8
278(9) 0.01172 288.0 5.8
293(9) 0.01077 288.0 5.8
297(10) 0.00983 288.0 5.8
302(9) 0.01020 288.0 5.8
302(9) 0.01102 288.0 5.8
298(9) 0.01130 288.0 5.8
324(10) 0.00955 288.1 5.8
297(9) 0.01021 288.1 5.8
302(9) 0.01067 288.1 5.9
296(9) 0.01125 288.1 5.9
307(9) 0.01076 288.1 5.9
298(9) 0.01040 288.1 5.9
279(9) 0.01038 288.1 5.9
287(9) 0.01049 288.1 6.0
302(9) 0.01097 288.1 6.0
306(9) 0.01082 288.2 6.0
292(9) 0.01055 288.2 6.1
282(9) 0.01039 288.2 6.1
313(10) 0.00967 288.2 6.1
293(9) 0.01147 288.2 6.2
311(9) 0.01058 288.2 6.2
314(9) 0.01027 288.2 6.3
308(10) 0.00985 288.2 6.3
286(9) 0.01065 288.3 6.4
284(9) 0.01171 288.3 6.4
286(9) 0.01120 288.3 6.5
269(9) 0.01129 288.3 6.5
281(9) 0.01042 288.3 6.6
271(9) 0.01176 288.3 6.6
280(9) 0.01170 288.3 6.7
292(9) 0.01129 288.3 6.8
284(9) 0.01082 288.3 6.8
287(9) 0.01049 288.4 6.9
277(9) 0.01106 288.4 7.0
306(9) 0.01088 288.4 7.1
313(10) 0.01005 288.4 7.1
293(10) 0.00997 288.4 7.2
289(9) 0.01072 288.4 7.3
298(9) 0.01108 288.4 7.4
286(9) 0.01158 288.5 7.5
304(9) 0.01043 288.5 7.6
305(10) 0.00964 288.5 7.7
284(9) 0.01059 288.5 7.8
288(9) 0.01141 288.5 7.9
286(9) 0.01155 288.5 8.0
275(9) 0.01136 288.5 8.1
293(9) 0.01027 288.6 8.2
297(9) 0.01055 288.6 8.3
296(9) 0.01110 288.6 8.4
311(9) 0.01085 288.6 8.5
305(9) 0.01014 288.6 8.6
298(10) 0.01007 288.6 8.8
297(9) 0.01064 288.6 8.9
293(9) 0.01129 288.7 9.0
296(9) 0.01137 288.7 9.1
264(9) 0.01186 288.7 9.3
288(10) 0.00974 288.7 9.4
313(10) 0.00972 288.7 9.6
286(9) 0.01165 288.7 9.7
312(9) 0.01043 288.7 9.8
296(9) 0.01063 288.8 10.0
306(10) 0.00936 288.8 10.1
297(9) 0.01046 288.8 10.3
300(9) 0.01112 288.8 10.4
309(9) 0.01062 288.8 10.5
310(9) 0.01020 288.8 10.7
291(9) 0.01057 288.8 10.8
276(9) 0.01111 288.9 11.0
294(9) 0.01137 288.9 11.1
315(9) 0.01042 288.9 11.3
321(10) 0.00953 288.9 11.4
287(9) 0.01065 288.9 11.6
281(9) 0.01091 288.9 11.7
275(9) 0.01209 288.9 11.8
299(9) 0.01078 289.0 12.0
310(10) 0.00986 289.0 12.1
316(10) 0.00950 289.0 12.3
297(9) 0.01046 289.0 12.4
278(9) 0.01193 289.0 12.5
299(9) 0.01073 289.0 12.7
313(10) 0.00986 289.0 12.8
281(9) 0.01118 289.1 12.9
329(10) 0.00979 289.1 13.1
333(9) 0.01015 289.1 13.2
308(9) 0.01031 289.1 13.4
286(9) 0.01104 289.1 13.5
307(9) 0.01022 289.1 13.7
290(9) 0.01126 289.1 13.8
292(9) 0.01140 289.2 14.0
288(9) 0.01069 289.2 14.1
305(10) 0.00981 289.2 14.3
332(10) 0.00929 289.2 14.5
321(9) 0.01044 289.2 14.7
314(9) 0.01072 289.2 14.9
316(10) 0.00982 289.2 15.1
329(10) 0.00901 289.3 15.3
312(10) 0.00988 289.3 15.5
295(9) 0.01103 289.3 15.8
325(9) 0.01043 289.3 16.0
319(10) 0.00977 289.3 16.3
301(10) 0.00995 289.3 16.6
291(9) 0.01114 289.3 16.9
319(9) 0.01052 289.4 17.3
322(9) 0.01054 289.4 17.7
299(9) 0.01056 289.4 18.1
328(10) 0.00879 289.4 18.5
310(9) 0.01028 289.4 19.0
291(9) 0.01159 289.4 19.5
320(9) 0.01034 289.4 20.1
301(9) 0.01056 289.5 20.7
317(10) 0.00945 289.5 21.4
324(10) 0.00977 289.5 22.1
335(9) 0.01015 289.5 22.9
327(9) 0.01015 289.5 23.7
344(10) 0.00941 289.5 24.6
333(10) 0.00933 289.5 25.7
326(10) 0.00964 289.6 26.8
324(9) 0.01040 289.6 28.0
289(9) 0.01128 289.6 29.4
325(10) 0.00977 289.6 30.9
309(10) 0.00984 289.6 32.6
329(10) 0.00942 289.6 34.5
345(10) 0.00979 289.7 36.6
324(9) 0.01018 289.7 39.0
334(10) 0.00964 289.7 41.8
347(10) 0.00900 289.7 44.9
351(10) 0.00901 289.7 48.6
347(10) 0.00981 289.7 52.9
360(10) 0.00911 289.7 58.1
369(10) 0.00847 289.8 64.5
383(11) 0.00824 289.8 72.7
397(11) 0.00811 289.8 83.3
391(10) 0.00865 289.8 97.1
407(11) 0.00808 289.8 115.4
421(11) 0.00756 289.8 139.2
501(12) 0.00622 289.8 169.3
504(12) 0.00659 289.9 206.4
558(12) 0.00630 289.9 249.7
597(13) 0.00547 289.9 296.4
652(14) 0.00497 289.9 339.9
668(14) 0.00497 289.9 369.9
708(14) 0.00483 289.9 376.2
711(14) 0.00505 289.9 356.9
650(14) 0.00507 290.0 320.1
629(14) 0.00496 290.0 276.6
591(13) 0.00541 290.0 234.6
526(12) 0.00648 290.0 198.0
496(12) 0.00703 290.0 168.0
471(12) 0.00691 290.0 144.5
458(12) 0.00667 290.0 126.6
446(11) 0.00711 290.1 113.1
404(11) 0.00830 290.1 103.1
420(11) 0.00828 290.1 95.7
404(11) 0.00816 290.1 89.9
410(11) 0.00718 290.1 85.4
410(11) 0.00795 290.1 81.8
388(10) 0.00888 290.1 78.8
382(10) 0.00898 290.2 76.3
377(10) 0.00839 290.2 74.2
362(11) 0.00818 290.2 72.4
370(10) 0.00841 290.2 70.9
352(10) 0.00957 290.2 69.7
355(10) 0.00950 290.2 68.8
355(10) 0.00905 290.2 68.1
378(11) 0.00783 290.3 67.6
381(11) 0.00830 290.3 67.3
384(10) 0.00896 290.3 67.3
377(10) 0.00876 290.3 67.3
368(10) 0.00842 290.3 67.6
376(11) 0.00808 290.3 67.9
348(10) 0.00904 290.3 68.4
329(9) 0.01033 290.4 68.9
352(10) 0.00926 290.4 69.4
363(10) 0.00852 290.4 70.0
367(11) 0.00836 290.4 70.5
345(10) 0.00926 290.4 71.0
334(9) 0.01015 290.4 71.4
348(10) 0.00972 290.4 71.6
373(10) 0.00866 290.5 71.6
370(10) 0.00845 290.5 71.5
385(11) 0.00826 290.5 71.1
386(10) 0.00885 290.5 70.6
383(10) 0.00859 290.5 69.8
375(11) 0.00826 290.5 68.8
367(10) 0.00848 290.5 67.7
372(10) 0.00889 290.6 66.4
352(10) 0.00968 290.6 65.0
358(10) 0.00912 290.6 63.6
352(10) 0.00896 290.6 62.0
376(11) 0.00837 290.6 60.5
358(10) 0.00931 290.6 58.8
328(9) 0.01031 290.6 57.2
311(9) 0.01009 290.7 55.4
353(10) 0.00848 290.7 53.5
357(10) 0.00899 290.7 51.5
364(10) 0.00922 290.7 49.5
355(10) 0.00964 290.7 47.5
336(10) 0.00966 290.7 45.6
333(10) 0.00905 290.7 43.8
344(10) 0.00927 290.8 42.1
331(9) 0.01031 290.8 40.6
329(9) 0.01012 290.8 39.1
342(10) 0.00920 290.8 37.8
319(10) 0.00947 290.8 36.6
323(10) 0.00991 290.8 35.5
327(9) 0.01014 290.8 34.4
318(9) 0.01063 290.9 33.5
309(9) 0.01047 290.9 32.6
298(9) 0.01014 290.9 31.9
317(10) 0.00982 290.9 31.2
316(9) 0.01064 290.9 30.5
312(9) 0.01043 290.9 29.9
319(10) 0.00983 290.9 29.4
310(10) 0.00945 291.0 29.0
326(10) 0.00981 291.0 28.6
329(9) 0.01040 291.0 28.2
319(9) 0.01039 291.0 27.9
311(9) 0.01011 291.0 27.7
305(10) 0.00949 291.0 27.5
283(9) 0.01099 291.0 27.3
318(9) 0.01061 291.1 27.2
318(9) 0.01013 291.1 27.2
318(10) 0.01000 291.1 27.1
303(9) 0.01048 291.1 27.1
294(9) 0.01090 291.1 27.2
312(9) 0.01077 291.1 27.3
318(9) 0.01033 291.2 27.4
298(9) 0.01089 291.2 27.6
324(10) 0.00928 291.2 27.8
320(10) 0.00995 291.2 28.0
320(9) 0.01054 291.2 28.3
331(10) 0.00977 291.2 28.6
317(10) 0.00979 291.2 29.0
331(10) 0.00957 291.3 29.4
333(10) 0.00982 291.3 29.9
340(10) 0.00992 291.3 30.4
356(10) 0.00883 291.3 30.9
330(10) 0.00950 291.3 31.5
351(10) 0.00939 291.3 32.1
345(10) 0.00983 291.3 32.9
355(10) 0.00957 291.4 33.6
336(10) 0.00922 291.4 34.5
333(10) 0.00933 291.4 35.4
336(10) 0.00935 291.4 36.3
326(9) 0.01010 291.4 37.4
335(9) 0.01013 291.4 38.5
341(10) 0.00914 291.4 39.8
334(10) 0.00907 291.5 41.2
323(10) 0.00990 291.5 42.6
343(10) 0.00986 291.5 44.2
349(10) 0.00963 291.5 46.0
344(10) 0.00941 291.5 47.9
338(10) 0.00845 291.5 49.9
359(10) 0.00848 291.5 52.2
383(10) 0.00865 291.6 54.6
359(10) 0.00959 291.6 57.3
364(10) 0.00867 291.6 60.2
393(11) 0.00754 291.6 63.3
379(10) 0.00874 291.6 66.7
365(10) 0.00928 291.6 70.4
359(10) 0.00932 291.6 74.3
378(10) 0.00844 291.7 78.6
374(11) 0.00805 291.7 83.2
377(10) 0.00864 291.7 88.0
391(10) 0.00867 291.7 93.2
414(11) 0.00835 291.7 98.6
412(11) 0.00794 291.7 104.2
398(11) 0.00779 291.7 110.0
425(11) 0.00758 291.8 115.8
455(11) 0.00752 291.8 121.6
410(11) 0.00823 291.8 127.1
446(11) 0.00723 291.8 132.3
439(11) 0.00745 291.8 137.1
445(11) 0.00734 291.8 141.1
465(11) 0.00743 291.8 144.5
451(11) 0.00755 291.9 147.0
434(11) 0.00760 291.9 148.8
466(12) 0.00673 291.9 149.9
428(11) 0.00774 291.9 150.6
427(11) 0.00809 291.9 150.9
446(11) 0.00741 291.9 151.3
460(11) 0.00709 291.9 151.9
476(12) 0.00671 292.0 153.0
455(11) 0.00730 292.0 155.0
486(11) 0.00708 292.0 157.9
449(11) 0.00745 292.0 162.1
487(12) 0.00651 292.0 167.8
469(12) 0.00690 292.0 174.9
463(11) 0.00724 292.0 183.6
480(11) 0.00718 292.1 193.8
489(12) 0.00664 292.1 205.2
450(11) 0.00713 292.1 217.1
520(12) 0.00606 292.1 228.6
514(12) 0.00668 292.1 238.4
521(12) 0.00669 292.1 245.3
555(13) 0.00586 292.1 248.0
542(13) 0.00582 292.2 246.4
527(12) 0.00638 292.2 240.9
496(12) 0.00676 292.2 232.7
518(12) 0.00678 292.2 223.2
506(12) 0.00644 292.2 213.6
504(12) 0.00615 292.2 204.8
496(12) 0.00649 292.2 197.4
480(11) 0.00732 292.3 191.5
444(11) 0.00758 292.3 187.4
471(12) 0.00682 292.3 185.0
457(12) 0.00649 292.3 184.3
472(12) 0.00685 292.3 185.0
515(12) 0.00673 292.3 187.2
521(12) 0.00658 292.3 190.7
486(12) 0.00680 292.4 195.3
490(12) 0.00636 292.4 201.0
503(12) 0.00655 292.4 207.5
508(12) 0.00682 292.4 214.7
525(12) 0.00661 292.4 222.5
568(13) 0.00576 292.4 230.7
566(13) 0.00545 292.4 239.0
590(13) 0.00565 292.5 247.3
580(13) 0.00602 292.5 255.2
596(13) 0.00570 292.5 262.7
596(13) 0.00547 292.5 269.2
599(13) 0.00530 292.5 274.8
552(13) 0.00605 292.5 278.9
605(13) 0.00583 292.5 281.6
561(12) 0.00611 292.6 282.6
607(13) 0.00529 292.6 281.8
582(13) 0.00549 292.6 279.3
548(12) 0.00614 292.6 275.1
549(12) 0.00642 292.6 269.4
514(12) 0.00660 292.6 262.4
527(12) 0.00616 292.6 254.1
553(13) 0.00581 292.7 244.9
502(12) 0.00670 292.7 234.8
471(11) 0.00734 292.7 224.3
532(12) 0.00626 292.7 213.4
454(11) 0.00727 292.7 202.4
474(12) 0.00677 292.7 191.5
466(11) 0.00737 292.8 180.8
483(11) 0.00717 292.8 170.5
440(11) 0.00735 292.8 160.7
447(12) 0.00697 292.8 151.3
428(11) 0.00739 292.8 142.4
432(11) 0.00773 292.8 134.1
391(10) 0.00871 292.8 126.2
395(11) 0.00783 292.9 118.9
425(11) 0.00714 292.9 112.0
406(11) 0.00779 292.9 105.6
403(11) 0.00833 292.9 99.7
400(10) 0.00857 292.9 94.1
392(11) 0.00832 292.9 89.0
402(11) 0.00767 292.9 84.2
365(10) 0.00882 293.0 79.8
367(10) 0.00905 293.0 75.7
398(10) 0.00860 293.0 71.9
392(10) 0.00845 293.0 68.3
393(11) 0.00765 293.0 65.1
385(11) 0.00829 293.0 62.0
382(10) 0.00890 293.0 59.2
390(10) 0.00875 293.1 56.6
359(10) 0.00920 293.1 54.1
353(10) 0.00872 293.1 51.9
378(10) 0.00870 293.1 49.8
378(10) 0.00909 293.1 47.8
335(10) 0.00991 293.1 46.0
329(10) 0.00984 293.1 44.3
348(10) 0.00854 293.2 42.7
329(10) 0.00971 293.2 41.2
338(10) 0.01007 293.2 39.8
338(9) 0.01014 293.2 38.5
338(10) 0.00960 293.2 37.3
319(10) 0.01006 293.2 36.1
353(10) 0.00910 293.2 35.0
330(9) 0.01028 293.3 34.0
346(10) 0.00918 293.3 33.0
345(10) 0.00919 293.3 32.1
318(10) 0.00972 293.3 31.2
338(10) 0.00928 293.3 30.4
341(10) 0.01000 293.3 29.6
330(10) 0.00997 293.3 28.9
322(10) 0.00977 293.4 28.1
296(9) 0.01021 293.4 27.4
322(10) 0.00986 293.4 26.8
344(10) 0.00978 293.4 26.1
351(10) 0.00889 293.4 25.5
339(10) 0.00914 293.4 24.9
332(10) 0.00961 293.4 24.4
336(10) 0.00991 293.5 23.8
307(9) 0.01092 293.5 23.3
332(10) 0.00962 293.5 22.8
334(10) 0.00933 293.5 22.3
300(9) 0.01063 293.5 21.8
328(10) 0.00991 293.5 21.4
309(9) 0.01080 293.5 21.0
339(10) 0.00932 293.6 20.5
343(10) 0.00892 293.6 20.1
322(10) 0.00975 293.6 19.8
313(9) 0.01064 293.6 19.4
335(9) 0.01015 293.6 19.1
322(10) 0.00996 293.6 18.7
307(10) 0.00951 293.6 18.4
306(10) 0.00991 293.7 18.1
301(9) 0.01099 293.7 17.8
328(9) 0.01037 293.7 17.6
312(9) 0.01030 293.7 17.3
328(10) 0.00898 293.7 17.1
303(9) 0.01072 293.7 16.9
318(9) 0.01041 293.7 16.7
305(9) 0.01105 293.8 16.5
325(10) 0.00987 293.8 16.3
309(10) 0.00980 293.8 16.2
306(9) 0.01035 293.8 16.0
318(9) 0.01045 293.8 15.9
308(9) 0.01085 293.8 15.9
297(9) 0.01101 293.8 15.8
303(10) 0.00991 293.9 15.8
327(10) 0.00940 293.9 15.7
321(9) 0.01038 293.9 15.8
302(9) 0.01089 293.9 15.8
304(10) 0.00997 293.9 15.9
303(10) 0.00977 293.9 16.0
304(9) 0.01023 293.9 16.2
286(9) 0.01158 294.0 16.3
309(9) 0.01062 294.0 16.6
302(9) 0.01014 294.0 16.9
313(10) 0.00980 294.0 17.2
298(9) 0.01067 294.0 17.6
318(9) 0.01055 294.0 18.1
295(9) 0.01074 294.0 18.6
304(10) 0.00984 294.1 19.2
314(10) 0.00963 294.1 19.9
307(10) 0.00991 294.1 20.6
314(9) 0.01071 294.1 21.5
337(10) 0.00982 294.1 22.4
314(10) 0.00978 294.1 23.4
330(10) 0.00926 294.1 24.5
325(10) 0.01003 294.2 25.6
307(9) 0.01098 294.2 26.8
315(10) 0.00998 294.2 28.1
323(10) 0.00948 294.2 29.3
332(10) 0.00950 294.2 30.5
312(9) 0.01076 294.2 31.7
340(10) 0.00983 294.3 32.7
334(10) 0.00926 294.3 33.5
311(10) 0.00971 294.3 34.0
325(10) 0.00944 294.3 34.3
331(10) 0.00997 294.3 34.3
328(9) 0.01032 294.3 33.9
326(10) 0.00968 294.3 33.3
337(10) 0.00899 294.4 32.4
348(10) 0.00898 294.4 31.3
305(9) 0.01084 294.4 30.0
319(9) 0.01066 294.4 28.6
329(10) 0.00953 294.4 27.2
318(10) 0.00928 294.4 25.8
335(10) 0.00934 294.4 24.4
337(10) 0.01007 294.5 23.0
329(9) 0.01030 294.5 21.7
316(10) 0.01007 294.5 20.5
310(10) 0.00939 294.5 19.4
320(10) 0.00976 294.5 18.3
323(9) 0.01059 294.5 17.4
317(9) 0.01057 294.5 16.5
291(9) 0.01104 294.6 15.6
283(9) 0.01057 294.6 14.9
296(9) 0.01058 294.6 14.2
299(9) 0.01105 294.6 13.6
321(9) 0.01053 294.6 13.0
335(10) 0.00933 294.6 12.5
309(10) 0.00972 294.6 12.0
300(9) 0.01053 294.7 11.6
293(9) 0.01150 294.7 11.2
306(9) 0.01070 294.7 10.8
296(9) 0.01071 294.7 10.5
323(10) 0.00960 294.7 10.2
316(10) 0.00982 294.7 10.0
305(9) 0.01103 294.7 9.7
294(9) 0.01128 294.8 9.5
313(9) 0.01029 294.8 9.3
297(9) 0.01061 294.8 9.1
312(9) 0.01036 294.8 8.9
279(9) 0.01186 294.8 8.8
292(9) 0.01124 294.8 8.7
320(10) 0.00960 294.8 8.5
311(9) 0.01011 294.9 8.4
312(9) 0.01041 294.9 8.3
313(9) 0.01070 294.9 8.2
300(9) 0.01085 294.9 8.1
313(10) 0.00987 294.9 8.1
290(9) 0.01098 294.9 8.0
288(9) 0.01106 294.9 8.0
324(9) 0.01049 295.0 7.9
287(9) 0.01107 295.0 7.9
297(9) 0.01042 295.0 7.9
298(9) 0.01082 295.0 7.9
288(9) 0.01157 295.0 7.9
292(9) 0.01139 295.0 7.9
296(9) 0.01055 295.0 7.9
288(9) 0.01045 295.1 7.9
311(10) 0.00990 295.1 8.0
310(9) 0.01060 295.1 8.1
339(10) 0.01007 295.1 8.1
316(9) 0.01022 295.1 8.2
335(10) 0.00874 295.1 8.4
311(10) 0.01005 295.1 8.5
306(9) 0.01094 295.2 8.6
288(9) 0.01167 295.2 8.8
293(9) 0.01051 295.2 9.0
305(10) 0.00966 295.2 9.2
297(9) 0.01070 295.2 9.5
278(9) 0.01189 295.2 9.8
302(9) 0.01112 295.2 10.1
307(9) 0.01026 295.3 10.5
311(10) 0.00950 295.3 10.9
299(9) 0.01080 295.3 11.3
310(9) 0.01085 295.3 11.8
312(9) 0.01063 295.3 12.3
286(9) 0.01128 295.3 12.9
327(10) 0.00905 295.3 13.5
299(9) 0.01077 295.4 14.1
304(9) 0.01099 295.4 14.8
302(9) 0.01077 295.4 15.5
300(9) 0.01062 295.4 16.2
305(9) 0.01019 295.4 16.9
316(10) 0.00999 295.4 17.6
317(9) 0.01071 295.4 18.2
266(9) 0.01192 295.5 18.8
302(9) 0.01044 295.5 19.2
313(10) 0.00985 295.5 19.6
338(10) 0.00946 295.5 19.8
309(9) 0.01091 295.5 19.8
341(10) 0.00951 295.5 19.7
327(10) 0.00975 295.5 19.5
299(9) 0.01060 295.6 19.0
320(10) 0.00976 295.6 18.5
297(9) 0.01122 295.6 17.9
318(9) 0.01016 295.6 17.2
292(9) 0.01098 295.6 16.5
303(9) 0.01056 295.6 15.7
294(9) 0.01101 295.6 14.9
306(9) 0.01098 295.7 14.2
307(9) 0.01030 295.7 13.5
310(10) 0.00986 295.7 12.8
295(9) 0.01077 295.7 12.1
287(9) 0.01151 295.7 11.5
281(9) 0.01178 295.7 11.0
268(9) 0.01155 295.7 10.4
283(9) 0.01054 295.8 9.9
305(9) 0.01019 295.8 9.5
293(9) 0.01138 295.8 9.1
286(9) 0.01157 295.8 8.7
281(9) 0.01127 295.8 8.4
301(10) 0.00963 295.8 8.0
283(9) 0.01096 295.9 7.7
301(9) 0.01087 295.9 7.5
297(9) 0.01139 295.9 7.2
299(9) 0.01066 295.9 7.0
302(10) 0.00963 295.9 6.8
314(10) 0.01003 295.9 6.6
289(9) 0.01146 295.9 6.5
288(9) 0.01165 296.0 6.3
302(9) 0.01068 296.0 6.2
306(10) 0.00950 296.0 6.0
302(9) 0.01016 296.0 5.9
289(9) 0.01149 296.0 5.8
303(9) 0.01108 296.0 5.7
304(9) 0.01036 296.0 5.6
296(9) 0.01016 296.1 5.5
299(9) 0.01031 296.1 5.5
325(9) 0.01040 296.1 5.4
289(9) 0.01128 296.1 5.3
286(9) 0.01080 296.1 5.2
302(10) 0.00968 296.1 5.2
280(9) 0.01073 296.1 5.1
301(9) 0.01108 296.2 5.1
308(9) 0.01067 296.2 5.0
278(9) 0.01168 296.2 5.0
294(9) 0.01065 296.2 5.0
292(9) 0.01075 296.2 4.9
284(9) 0.01189 296.2 4.9
277(9) 0.01163 296.2 4.9
279(9) 0.01092 296.3 4.8
308(10) 0.00985 296.3 4.8
314(10) 0.00986 296.3 4.8
286(9) 0.01163 296.3 4.7
310(9) 0.01023 296.3 4.7
283(9) 0.01092 296.3 4.7
282(9) 0.01085 296.3 4.7
300(9) 0.01051 296.4 4.7
276(9) 0.01208 296.4 4.7
308(9) 0.01041 296.4 4.7
307(9) 0.01020 296.4 4.7
317(10) 0.00991 296.4 4.6
293(9) 0.01108 296.4 4.6
292(9) 0.01139 296.4 4.6
291(9) 0.01057 296.5 4.6
293(9) 0.01044 296.5 4.6
279(9) 0.01151 296.5 4.6
298(9) 0.01078 296.5 4.6
282(9) 0.01184 296.5 4.6
313(10) 0.00974 296.5 4.6
295(9) 0.01029 296.5 4.6
297(9) 0.01064 296.5 4.7
310(9) 0.01090 296.4 4.7
308(9) 0.01096 296.4 4.7
301(9) 0.01057 296.4 4.7
338(10) 0.00876 296.3 4.7
299(9) 0.01067 296.3 4.7
293(9) 0.01131 296.2 4.7
293(9) 0.01139 296.2 4.7
323(10) 0.00968 296.1 4.8
300(10) 0.00994 296.1 4.8
294(9) 0.01047 296.0 4.8
305(9) 0.01100 296.0 4.8
309(9) 0.01071 296.0 4.9
293(9) 0.01068 295.9 4.9
301(9) 0.01015 295.9 4.9
299(9) 0.01059 295.8 4.9
291(9) 0.01155 295.8 5.0
308(9) 0.01060 295.7 5.0
292(9) 0.01093 295.7 5.0
308(10) 0.00964 295.6 5.1
282(9) 0.01091 295.6 5.1
308(9) 0.01095 295.6 5.2
315(9) 0.01019 295.5 5.2
330(10) 0.00981 295.5 5.2
302(9) 0.01014 295.4 5.3
281(9) 0.01094 295.4 5.3
292(9) 0.01138 295.3 5.4
275(9) 0.01169 295.3 5.4
293(9) 0.01091 295.3 5.5
305(9) 0.01030 295.2 5.6
312(9) 0.01013 295.2 5.6
311(9) 0.01078 295.1 5.7
295(9) 0.01079 295.1 5.7
259(9) 0.01197 295.0 5.8
295(10) 0.00998 295.0 5.9
303(9) 0.01073 294.9 6.0
297(9) 0.01136 294.9 6.0
317(9) 0.01017 294.9 6.1
327(10) 0.00925 294.8 6.2
300(9) 0.01027 294.8 6.3
280(9) 0.01173 294.7 6.4
315(9) 0.01078 294.7 6.5
295(9) 0.01090 294.6 6.6
285(9) 0.01114 294.6 6.7
285(9) 0.01097 294.5 6.8
284(9) 0.01136 294.5 6.9
262(8) 0.01259 294.5 7.0
275(9) 0.01136 294.4 7.2
310(10) 0.00968 294.4 7.3
311(10) 0.00982 294.3 7.5
324(10) 0.00988 294.3 7.6
312(9) 0.01085 294.2 7.8
299(9) 0.01061 294.2 7.9
310(10) 0.00952 294.1 8.1
304(10) 0.01005 294.1 8.3
307(9) 0.01088 294.1 8.5
330(9) 0.01009 294.0 8.7
320(10) 0.01001 294.0 8.9
316(10) 0.00942 293.9 9.1
317(10) 0.01001 293.9 9.4
337(10) 0.01007 293.8 9.6
316(9) 0.01055 293.8 9.9
312(9) 0.01028 293.8 10.2
309(10) 0.00993 293.7 10.5
325(10) 0.00969 293.7 10.8
292(9) 0.01145 293.6 11.2
325(9) 0.01014 293.6 11.6
305(9) 0.01070 293.5 12.0
315(10) 0.00975 293.5 12.4
301(9) 0.01058 293.4 12.9
274(9) 0.01220 293.4 13.4
304(9) 0.01074 293.4 13.9
328(10) 0.00941 293.3 14.5
295(9) 0.01035 293.3 15.1
291(9) 0.01063 293.2 15.8
308(9) 0.01087 293.2 16.6
323(9) 0.01017 293.1 17.4
320(10) 0.00972 293.1 18.3
309(10) 0.00979 293.0 19.3
312(9) 0.01035 293.0 20.4
329(9) 0.01032 293.0 21.6
303(9) 0.01036 292.9 22.9
310(9) 0.01010 292.9 24.3
306(10) 0.01006 292.8 25.8
296(9) 0.01076 292.8 27.5
305(9) 0.01104 292.7 29.4
311(9) 0.01023 292.7 31.4
327(10) 0.00941 292.6 33.6
323(10) 0.00950 292.6 36.0
317(9) 0.01022 292.6 38.5
337(10) 0.00996 292.5 41.2
304(9) 0.01052 292.5 44.1
330(10) 0.00923 292.4 47.1
330(10) 0.00965 292.4 50.2
348(10) 0.00956 292.3 53.3
341(10) 0.00988 292.3 56.3
338(10) 0.00939 292.2 59.2
363(10) 0.00844 292.2 61.8
346(10) 0.00947 292.2 64.0
376(10) 0.00903 292.1 65.7
360(10) 0.00934 292.1 66.8
331(10) 0.00970 292.0 67.2
357(10) 0.00851 292.0 66.9
352(10) 0.00913 291.9 66.1
334(9) 0.01008 291.9 64.6
338(10) 0.00991 291.9 62.8
327(10) 0.00984 291.8 60.6
338(10) 0.00873 291.8 58.2
342(10) 0.00961 291.7 55.8
363(10) 0.00941 291.7 53.3
322(9) 0.01029 291.6 50.8
367(10) 0.00843 291.6 48.5
347(10) 0.00842 291.5 46.2
309(9) 0.01033 291.5 44.1
359(10) 0.00943 291.5 42.1
344(10) 0.00971 291.4 40.2
344(10) 0.00948 291.4 38.4
353(11) 0.00834 291.3 36.8
349(10) 0.00914 291.3 35.4
339(10) 0.01000 291.2 34.0
322(9) 0.01022 291.2 32.8
308(9) 0.01035 291.1 31.6
329(10) 0.00937 291.1 30.6
347(10) 0.00940 291.1 29.7
334(9) 0.01013 291.0 28.8
325(10) 0.01003 291.0 28.0
333(10) 0.00937 290.9 27.4
341(10) 0.00919 290.9 26.7
344(10) 0.00904 290.8 26.2
322(9) 0.01053 290.8 25.7
313(9) 0.01036 290.7 25.2
326(10) 0.00964 290.7 24.9
326(10) 0.00955 290.7 24.5
324(10) 0.00963 290.6 24.3
318(9) 0.01054 290.6 24.0
310(9) 0.01049 290.5 23.8
324(10) 0.00958 290.5 23.7
319(10) 0.00951 290.4 23.6
301(9) 0.01073 290.4 23.5
303(9) 0.01105 290.4 23.5
302(9) 0.01066 290.3 23.5
334(10) 0.00906 290.3 23.5
308(9) 0.01029 290.2 23.6
324(10) 0.00992 290.2 23.7
307(9) 0.01091 290.1 23.8
324(10) 0.00990 290.1 23.9
336(10) 0.00934 290.0 24.1
330(10) 0.00987 290.0 24.3
321(9) 0.01047 290.0 24.5
316(9) 0.01075 289.9 24.8
310(9) 0.01022 289.9 25.1
302(9) 0.01038 289.8 25.4
340(10) 0.00917 289.8 25.8
340(10) 0.00974 289.7 26.2
311(9) 0.01071 289.7 26.6
300(9) 0.01080 289.6 27.1
302(10) 0.00965 289.6 27.6
308(9) 0.01028 289.6 28.3
326(9) 0.01038 289.5 29.0
317(9) 0.01057 289.5 29.8
307(9) 0.01015 289.4 30.8
325(10) 0.00915 289.4 31.9
337(10) 0.00950 289.3 33.2
368(10) 0.00937 289.3 34.8
333(10) 0.01005 289.2 36.6
349(10) 0.00917 289.2 38.7
357(10) 0.00857 289.2 41.2
353(10) 0.00890 289.1 43.9
337(10) 0.01004 289.1 47.0
375(10) 0.00906 289.0 50.3
387(10) 0.00842 289.0 53.7
356(10) 0.00872 288.9 56.9
378(10) 0.00865 288.9 59.5
392(10) 0.00870 288.9 61.2
404(11) 0.00829 288.8 61.6
414(11) 0.00754 288.8 60.7
379(11) 0.00822 288.7 58.8
353(10) 0.00907 288.7 56.2
378(10) 0.00896 288.6 53.2
372(10) 0.00906 288.6 50.3
356(10) 0.00880 288.5 47.5
366(10) 0.00839 288.5 45.0
345(10) 0.00928 288.5 42.9
330(9) 0.01025 288.4 41.1
329(10) 0.00979 288.4 39.7
314(10) 0.00997 288.3 38.5
325(10) 0.00990 288.3 37.6
338(10) 0.00958 288.2 36.8
348(10) 0.00975 288.2 36.3
341(10) 0.00957 288.1 35.9
299(9) 0.01070 288.1 35.7
325(10) 0.00962 288.1 35.5
319(9) 0.01022 288.0 35.4
325(9) 0.01037 288.0 35.4
330(10) 0.00949 287.9 35.4
329(10) 0.00905 287.9 35.4
314(9) 0.01021 287.8 35.5
316(9) 0.01035 287.8 35.5
305(9) 0.01102 287.7 35.5
340(10) 0.00931 287.7 35.5
330(10) 0.00920 287.7 35.5
337(10) 0.00944 287.6 35.5
331(10) 0.00996 287.6 35.4
332(9) 0.01015 287.5 35.3
340(10) 0.00929 287.5 35.2
337(10) 0.00889 287.4 35.0
343(10) 0.00924 287.4 34.8
331(9) 0.01021 287.3 34.5
312(9) 0.01078 287.3 34.2
329(10) 0.00983 287.3 33.9
335(10) 0.00889 287.2 33.5
311(9) 0.01040 287.2 33.2
301(9) 0.01112 287.1 32.7
318(9) 0.01059 287.1 32.3
309(10) 0.01002 287.0 31.8
318(10) 0.00916 287.0 31.4
328(10) 0.00932 287.0 30.9
291(9) 0.01150 286.9 30.4
290(9) 0.01132 286.9 29.9
317(9) 0.01015 286.8 29.4
332(10) 0.00923 286.8 28.9
329(10) 0.00945 286.7 28.4
297(9) 0.01132 286.7 27.9
283(9) 0.01138 286.6 27.5
323(10) 0.00954 286.6 27.0
321(10) 0.00947 286.6 26.6
288(9) 0.01062 286.5 26.2
303(9) 0.01105 286.5 25.8
342(10) 0.00939 286.4 25.5
321(10) 0.00943 286.4 25.2
294(9) 0.01049 286.3 24.9
306(9) 0.01068 286.3 24.6
324(9) 0.01043 286.2 24.3
311(9) 0.01027 286.2 24.1
330(10) 0.00940 286.2 23.9
325(10) 0.00957 286.1 23.7
309(9) 0.01035 286.1 23.6
310(9) 0.01086 286.0 23.5
308(9) 0.01023 286.0 23.4
303(10) 0.00985 285.9 23.3
311(10) 0.00980 285.9 23.3
336(10) 0.00944 285.8 23.2
319(9) 0.01059 285.8 23.2
326(10) 0.00953 285.8 23.2
307(9) 0.01013 285.7 23.2
318(10) 0.01000 285.7 23.2
322(9) 0.01029 285.6 23.2
337(10) 0.00995 285.6 23.2
325(10) 0.00975 285.5 23.3
325(10) 0.00924 285.5 23.3
320(10) 0.00993 285.5 23.2
321(9) 0.01042 285.4 23.2
311(9) 0.01072 285.4 23.2
304(9) 0.01013 285.3 23.1
312(10) 0.00936 285.3 23.0
315(9) 0.01012 285.2 22.8
309(9) 0.01071 285.2 22.7
307(9) 0.01085 285.1 22.5
310(9) 0.01008 285.1 22.3
307(10) 0.00934 285.1 22.1
321(10) 0.01006 285.0 21.8
301(9) 0.01100 285.0 21.5
338(10) 0.00997 284.9 21.2
298(9) 0.01091 284.9 20.9
273(9) 0.01058 284.8 20.6
293(9) 0.01032 284.8 20.3
299(9) 0.01101 284.7 20.0
301(9) 0.01126 284.7 19.6
302(9) 0.01032 284.7 19.3
342(10) 0.00875 284.6 19.0
328(10) 0.00972 284.6 18.7
304(9) 0.01099 284.5 18.5
312(9) 0.01048 284.5 18.2
285(9) 0.01105 284.4 18.0
308(10) 0.00978 284.4 17.8
316(10) 0.01001 284.3 17.6
334(9) 0.01008 284.3 17.4
340(10) 0.00978 284.3 17.3
323(10) 0.00977 284.2 17.2
322(10) 0.00974 284.2 17.1
306(9) 0.01024 284.1 17.1
305(9) 0.01106 284.1 17.1
319(9) 0.01018 284.0 17.1
310(10) 0.01004 284.0 17.2
306(9) 0.01030 283.9 17.3
318(9) 0.01016 283.9 17.4
297(9) 0.01126 283.9 17.6
300(9) 0.01056 283.8 17.9
296(9) 0.01046 283.8 18.2
282(9) 0.01117 283.7 18.6
309(9) 0.01060 283.7 19.0
290(9) 0.01139 283.6 19.6
322(10) 0.00910 283.6 20.2
315(10) 0.00968 283.6 20.9
315(10) 0.00985 283.5 21.8
303(9) 0.01078 283.5 22.8
330(9) 0.01015 283.4 23.9
350(10) 0.00913 283.4 25.3
307(10) 0.01002 283.3 26.8
332(10) 0.00939 283.3 28.5
315(9) 0.01061 283.2 30.4
331(9) 0.01024 283.2 32.6
362(10) 0.00900 283.2 34.9
311(9) 0.01026 283.1 37.5
331(10) 0.00974 283.1 40.3
348(10) 0.00951 283.0 43.2
360(10) 0.00965 283.0 46.1
351(10) 0.00924 282.9 48.8
356(10) 0.00847 282.9 51.3
360(10) 0.00886 282.8 53.3
352(10) 0.00952 282.8 54.9
344(10) 0.00974 282.8 55.9
376(10) 0.00855 282.7 56.6
343(10) 0.00901 282.7 57.0
361(10) 0.00859 282.6 57.4
343(10) 0.00989 282.6 58.0
371(10) 0.00917 282.5 58.9
354(10) 0.00907 282.5 60.2
351(10) 0.00842 282.4 62.1
387(11) 0.00839 282.4 64.5
366(10) 0.00934 282.4 67.6
357(10) 0.00954 282.3 71.3
368(10) 0.00874 282.3 75.7
422(11) 0.00730 282.2 80.6
392(11) 0.00830 282.2 86.2
417(11) 0.00833 282.1 92.2
403(10) 0.00840 282.1 98.5
441(11) 0.00728 282.1 105.0
464(12) 0.00680 282.0 111.2
465(12) 0.00705 282.0 117.0
452(11) 0.00761 281.9 121.8
470(11) 0.00723 281.9 125.4
472(12) 0.00683 281.8 127.2
456(12) 0.00688 281.8 127.3
432(11) 0.00754 281.7 125.5
411(10) 0.00844 281.7 121.9
416(11) 0.00802 281.7 116.9
431(11) 0.00736 281.6 110.7
409(11) 0.00790 281.6 103.9
417(11) 0.00784 281.5 96.7
399(10) 0.00861 281.5 89.5
396(11) 0.00812 281.4 82.4
382(11) 0.00831 281.4 75.6
373(10) 0.00868 281.3 69.3
334(10) 0.01007 281.3 63.4
349(10) 0.00977 281.3 58.0
335(10) 0.00943 281.2 53.1
354(10) 0.00868 281.2 48.7
361(10) 0.00880 281.1 44.7
365(10) 0.00902 281.1 41.1
339(10) 0.00998 281.0 37.9
346(10) 0.00911 281.0 35.0
335(10) 0.00929 280.9 32.5
329(10) 0.00990 280.9 30.2
321(9) 0.01030 280.9 28.2
332(9) 0.01020 280.8 26.3
322(10) 0.00988 280.8 24.7
320(10) 0.00910 280.7 23.3
288(9) 0.01117 280.7 22.0
304(9) 0.01082 280.6 20.8
312(9) 0.01058 280.6 19.8
286(9) 0.01117 280.5 18.8
302(10) 0.00951 280.5 18.0
299(9) 0.01059 280.5 17.2
304(9) 0.01099 280.4 16.5
315(9) 0.01046 280.4 15.9
285(9) 0.01123 280.3 15.3
309(10) 0.00963 280.3 14.8
300(9) 0.01082 280.2 14.3
302(9) 0.01106 280.2 13.9
281(9) 0.01185 280.2 13.5
280(9) 0.01117 280.1 13.1
305(10) 0.00984 280.1 12.8
316(10) 0.00996 280.0 12.5
288(9) 0.01165 280.0 12.2
298(9) 0.01084 279.9 11.9
308(9) 0.01016 279.9 11.7
311(10) 0.00954 279.8 11.5
303(10) 0.00976 279.8 11.4
292(9) 0.01122 279.8 11.2
264(9) 0.01220 279.7 11.1
293(9) 0.01040 279.7 11.0
303(9) 0.01016 279.6 10.9
304(9) 0.01058 279.6 10.8
316(9) 0.01058 279.5 10.8
301(9) 0.01050 279.5 10.8
289(9) 0.01104 279.4 10.8
309(9) 0.01042 279.4 10.8
290(9) 0.01110 279.4 10.8
305(9) 0.01105 279.3 10.8
288(9) 0.01114 279.3 10.9
305(10) 0.01003 279.2 11.0
303(10) 0.01002 279.2 11.1
292(9) 0.01096 279.1 11.2
299(9) 0.01127 279.1 11.4
321(10) 0.00944 279.0 11.5
298(9) 0.01044 279.0 11.7
278(9) 0.01143 279.0 11.9
287(9) 0.01147 278.9 12.1
267(8) 0.01240 278.9 12.3
278(9) 0.01136 278.8 12.5
294(9) 0.01044 278.8 12.8
286(9) 0.01093 278.7 13.0
289(9) 0.01133 278.7 13.3
313(9) 0.01084 278.7 13.6
315(10) 0.00971 278.6 13.8
289(9) 0.01053 278.6 14.1
286(9) 0.01087 278.5 14.3
288(9) 0.01132 278.5 14.5
294(9) 0.01137 278.4 14.8
264(9) 0.01211 278.4 14.9
287(9) 0.01029 278.3 15.1
284(9) 0.01072 278.3 15.2
299(9) 0.01102 278.3 15.3
301(9) 0.01118 278.2 15.3
289(9) 0.01069 278.2 15.3
281(9) 0.01010 278.1 15.2
291(9) 0.01068 278.1 15.1
280(9) 0.01199 278.0 15.0
283(9) 0.01148 278.0 14.8
290(9) 0.01085 277.9 14.6
290(9) 0.01012 277.9 14.3
295(9) 0.01042 277.9 14.0
266(9) 0.01222 277.8 13.7
273(9) 0.01190 277.8 13.4
284(9) 0.01081 277.7 13.0
281(9) 0.01118 277.7 12.7
285(9) 0.01089 277.6 12.3
284(9) 0.01179 277.6 12.0
295(9) 0.01086 277.5 11.6
268(9) 0.01203 277.5 11.3
283(9) 0.01094 277.5 11.0
286(9) 0.01092 277.4 10.6
322(9) 0.01038 277.4 10.3
288(9) 0.01128 277.3 10.0
258(9) 0.01181 277.3 9.8
258(9) 0.01175 277.2 9.5
285(9) 0.01116 277.2 9.2
275(9) 0.01211 277.2 9.0
288(9) 0.01137 277.1 8.7
285(9) 0.01089 277.1 8.5
292(9) 0.01049 277.0 8.3
284(9) 0.01137 277.0 8.1
297(9) 0.01129 276.9 8.0
294(9) 0.01090 276.9 7.8
292(9) 0.01089 276.8 7.6
281(9) 0.01149 276.8 7.5
282(9) 0.01151 276.8 7.3
286(9) 0.01166 276.7 7.2
290(9) 0.01058 276.7 7.1
275(9) 0.01101 276.6 7.0
294(9) 0.01051 276.6 6.9
279(9) 0.01174 276.5 6.8
264(8) 0.01253 276.5 6.7
290(9) 0.01042 276.4 6.6
266(9) 0.01065 276.4 6.6
276(9) 0.01105 276.4 6.5
272(9) 0.01175 276.3 6.4
278(9) 0.01199 276.3 6.4
278(9) 0.01128 276.2 6.3
288(9) 0.01041 276.2 6.3
294(9) 0.01106 276.1 6.3
273(9) 0.01204 276.1 6.2
272(9) 0.01213 276.0 6.2
275(9) 0.01168 276.0 6.2
283(9) 0.01037 276.0 6.1
265(9) 0.01151 275.9 6.1
268(8) 0.01242 275.9 6.1
284(9) 0.01160 275.8 6.1
302(9) 0.01059 275.8 6.1
303(10) 0.00973 275.7 6.1
280(9) 0.01129 275.7 6.1
288(9) 0.01163 275.6 6.1
271(9) 0.01166 275.6 6.1
266(9) 0.01147 275.6 6.1
276(9) 0.01071 275.5 6.1
295(9) 0.01048 275.5 6.1
279(9) 0.01194 275.4 6.1
297(9) 0.01087 275.4 6.1
279(9) 0.01107 275.3 6.1
279(9) 0.01050 275.3 6.1
300(9) 0.01023 275.3 6.1
281(9) 0.01192 275.2 6.1
270(9) 0.01192 275.2 6.1
280(9) 0.01112 275.1 6.1
315(10) 0.00966 275.1 6.1
295(9) 0.01100 275.0 6.2
293(9) 0.01130 275.0 6.2
283(9) 0.01131 274.9 6.2
276(9) 0.01084 274.9 6.2
267(9) 0.01169 274.9 6.2
272(9) 0.01171 274.8 6.2
287(9) 0.01151 274.8 6.2
277(9) 0.01158 274.7 6.2
293(9) 0.01028 274.7 6.2
277(9) 0.01129 274.6 6.1
294(9) 0.01064 274.6 6.1
311(9) 0.01081 274.5 6.1
298(9) 0.01042 274.5 6.1
273(9) 0.01048 274.5 6.1
275(9) 0.01141 274.4 6.1
260(8) 0.01239 274.4 6.1
255(8) 0.01289 274.3 6.0
254(8) 0.01234 274.3 6.0
252(9) 0.01198 274.2 6.0
270(9) 0.01157 274.2 6.0
286(9) 0.01157 274.1 5.9
271(9) 0.01228 274.1 5.9
272(9) 0.01132 274.1 5.9
273(9) 0.01067 274.0 5.8
272(9) 0.01199 274.0 5.8
271(9) 0.01214 273.9 5.7
281(9) 0.01191 273.9 5.7
280(9) 0.01150 273.8 5.7
279(9) 0.01035 273.8 5.6
278(9) 0.01130 273.8 5.6
267(8) 0.01235 273.7 5.5
278(9) 0.01199 273.7 5.5
270(9) 0.01166 273.6 5.4
279(9) 0.01041 273.6 5.4
272(9) 0.01144 273.5 5.3
275(9) 0.01200 273.5 5.3
284(9) 0.01144 273.4 5.2
290(9) 0.01053 273.4 5.2
265(9) 0.01145 273.4 5.1
287(9) 0.01102 273.4 5.1
258(8) 0.01284 273.4 5.0
262(8) 0.01263 273.4 5.0
276(9) 0.01123 273.4 4.9
264(9) 0.01163 273.4 4.9
284(9) 0.01115 273.4 4.8
275(9) 0.01216 273.4 4.8
295(9) 0.01069 273.4 4.7
294(9) 0.01100 273.4 4.7
290(9) 0.01111 273.4 4.6
274(9) 0.01181 273.4 4.6
291(9) 0.01146 273.4 4.5
280(9) 0.01112 273.4 4.5
261(9) 0.01207 273.4 4.5
275(9) 0.01115 273.4 4.4
280(9) 0.01115 273.4 4.4
267(8) 0.01239 273.4 4.3
275(9) 0.01140 273.4 4.3
283(9) 0.01106 273.4 4.2
291(9) 0.01058 273.4 4.2
286(9) 0.01134 273.4 4.2
292(9) 0.01148 273.4 4.1
289(9) 0.01089 273.4 4.1
292(9) 0.01032 273.4 4.1
272(9) 0.01145 273.4 4.0
263(8) 0.01266 273.4 4.0
283(9) 0.01157 273.4 4.0
300(10) 0.00990 273.4 3.9
279(9) 0.01050 273.4 3.9
268(9) 0.01180 273.4 3.9
273(9) 0.01200 273.4 3.8
284(9) 0.01165 273.4 3.8
300(9) 0.01045 273.4 3.8
276(9) 0.01062 273.4 3.8
298(9) 0.01073 273.4 3.7
290(9) 0.01122 273.4 3.7
266(8) 0.01246 273.4 3.7
271(9) 0.01144 273.4 3.7
296(10) 0.00974 273.4 3.6
272(9) 0.01165 273.4 3.6
254(8) 0.01293 273.4 3.6
280(9) 0.01191 273.4 3.6
262(9) 0.01228 273.4 3.6
279(9) 0.01085 273.4 3.6
307(9) 0.01043 273.4 3.5
274(9) 0.01196 273.4 3.5
250(8) 0.01320 273.4 3.5
255(8) 0.01244 273.4 3.5
297(9) 0.01008 273.4 3.5
259(8) 0.01259 273.4 3.5
258(8) 0.01273 273.4 3.5
256(8) 0.01288 273.4 3.5
290(9) 0.01030 273.4 3.4
269(9) 0.01143 273.4 3.4
280(9) 0.01118 273.4 3.4
254(8) 0.01291 273.4 3.4
293(9) 0.01091 273.4 3.4
277(9) 0.01105 273.4 3.4
266(9) 0.01121 273.4 3.4
295(9) 0.01033 273.4 3.4
276(9) 0.01199 273.4 3.4
290(9) 0.01084 273.4 3.4
273(9) 0.01151 273.4 3.4
281(9) 0.01055 273.4 3.4
253(8) 0.01248 273.4 3.4
281(9) 0.01186 273.4 3.4
285(9) 0.01111 273.4 3.4
260(8) 0.01239 273.4 3.4
280(9) 0.01132 273.4 3.4
286(9) 0.01130 273.4 3.4
280(9) 0.01193 273.4 3.4
271(9) 0.01152 273.4 3.4
277(9) 0.01092 273.4 3.4
280(9) 0.01087 273.4 3.4
249(8) 0.01232 273.4 3.4
275(9) 0.01211 273.4 3.4
287(9) 0.01017 273.4 3.5
284(9) 0.01033 273.4 3.5
262(9) 0.01147 273.4 3.5
264(9) 0.01224 273.4 3.5
257(8) 0.01293 273.4 3.5
297(9) 0.01056 273.4 3.5
308(10) 0.00937 273.4 3.5
303(9) 0.01042 273.4 3.5
278(9) 0.01185 273.4 3.6
280(9) 0.01189 273.4 3.6
266(9) 0.01222 273.4 3.6
277(9) 0.01040 273.4 3.6
265(9) 0.01174 273.4 3.6
292(9) 0.01150 273.4 3.7
285(9) 0.01161 273.4 3.7
280(9) 0.01100 273.4 3.7
286(9) 0.01021 273.4 3.7
292(9) 0.01079 273.4 3.8
276(9) 0.01204 273.4 3.8
281(9) 0.01175 273.4 3.8
272(9) 0.01142 273.4 3.9
280(9) 0.01062 273.4 3.9
275(9) 0.01113 273.4 3.9
277(9) 0.01198 273.4 4.0
270(9) 0.01208 273.4 4.0
278(9) 0.01113 273.4 4.1
285(9) 0.01027 273.4 4.1
270(9) 0.01126 273.4 4.2
291(9) 0.01138 273.4 4.2
276(9) 0.01174 273.4 4.3
269(9) 0.01148 273.4 4.3
290(9) 0.01018 273.4 4.4
279(9) 0.01116 273.4 4.5
265(8) 0.01257 273.4 4.5
273(9) 0.01178 273.4 4.6
286(9) 0.01084 273.4 4.7
263(9) 0.01135 273.4 4.8
288(9) 0.01093 273.4 4.9
275(9) 0.01212 273.4 4.9
279(9) 0.01123 273.4 5.1
276(9) 0.01162 273.4 5.2
303(10) 0.01005 273.4 5.3
264(9) 0.01188 273.4 5.4
257(8) 0.01275 273.4 5.6
294(9) 0.01099 273.4 5.7
298(9) 0.01050 273.4 5.9
289(9) 0.01086 273.4 6.1
258(8) 0.01245 273.4 6.3
258(8) 0.01279 273.4 6.5
285(9) 0.01083 273.4 6.8
271(9) 0.01112 273.4 7.1
268(9) 0.01154 273.4 7.5
274(9) 0.01199 273.4 7.9
300(9) 0.01121 273.4 8.3
289(9) 0.01104 273.4 8.9
263(9) 0.01197 273.4 9.5
256(8) 0.01286 273.4 10.2
293(9) 0.01116 273.4 11.1
304(9) 0.01098 273.4 12.1
292(9) 0.01089 273.4 13.4
299(10) 0.00965 273.4 14.8
296(9) 0.01069 273.4 16.4
278(9) 0.01182 273.4 18.2
309(9) 0.01075 273.4 20.3
274(9) 0.01167 273.4 22.5
304(10) 0.00956 273.4 24.8
304(10) 0.00988 273.4 27.1
307(9) 0.01101 273.4 29.1
298(9) 0.01112 273.4 30.6
324(10) 0.00959 273.4 31.3
318(10) 0.00932 273.4 31.2
338(10) 0.00942 273.4 30.3
287(9) 0.01163 273.4 28.7
303(9) 0.01087 273.4 26.7
306(9) 0.01040 273.4 24.6
308(10) 0.00980 273.4 22.4
284(9) 0.01074 273.4 20.4
277(9) 0.01174 273.4 18.6
289(9) 0.01140 273.4 17.1
301(9) 0.01019 273.4 15.7
288(9) 0.01057 273.4 14.6
280(9) 0.01119 273.4 13.6
294(9) 0.01134 273.4 12.8
267(9) 0.01195 273.4 12.2
293(9) 0.01055 273.4 11.7
284(9) 0.01120 273.4 11.3
293(9) 0.01092 273.4 11.0
261(8) 0.01254 273.4 10.8
269(9) 0.01220 273.4 10.6
301(9) 0.01014 273.4 10.5
275(9) 0.01145 273.4 10.5
276(9) 0.01169 273.4 10.5
267(8) 0.01245 273.4 10.5
265(9) 0.01182 273.4 10.6
282(9) 0.01074 273.4 10.7
272(9) 0.01189 273.4 10.8
288(9) 0.01112 273.4 11.0
292(9) 0.01143 273.4 11.2
287(9) 0.01064 273.4 11.4
272(9) 0.01086 273.4 11.7
271(9) 0.01153 273.4 12.0
274(9) 0.01173 273.4 12.4
271(9) 0.01221 273.4 12.8
284(9) 0.01094 273.4 13.3
276(9) 0.01070 273.4 13.8
280(9) 0.01120 273.4 14.4
282(9) 0.01186 273.4 15.0
295(9) 0.01125 273.4 15.7
290(9) 0.01093 273.4 16.5
286(9) 0.01061 273.4 17.3
293(9) 0.01042 273.4 18.2
265(8) 0.01244 273.4 19.2
292(9) 0.01135 273.4 20.2
282(9) 0.01121 273.4 21.4
308(10) 0.00966 273.4 22.5
315(10) 0.00978 273.4 23.7
295(9) 0.01135 273.4 24.9
307(9) 0.01095 273.4 26.1
319(10) 0.00982 273.4 27.2
295(9) 0.01024 273.4 28.1
281(9) 0.01120 273.4 28.9
302(9) 0.01114 273.4 29.5
300(9) 0.01092 273.4 29.8
290(9) 0.01098 273.4 29.9
308(10) 0.00984 273.4 29.8
295(9) 0.01057 273.4 29.5
290(9) 0.01153 273.4 29.1
282(9) 0.01157 273.4 28.5
290(9) 0.01022 273.4 28.0
284(9) 0.01038 273.4 27.4
268(9) 0.01151 273.4 26.9
276(9) 0.01204 273.4 26.4
299(9) 0.01102 273.4 26.0
297(9) 0.01060 273.4 25.7
288(9) 0.01066 273.4 25.5
268(9) 0.01150 273.4 25.4
277(9) 0.01210 273.4 25.4
260(8) 0.01234 273.4 25.6
294(9) 0.01051 273.4 25.8
291(9) 0.01075 273.4 26.1
291(9) 0.01122 273.4 26.6
315(9) 0.01067 273.4 27.1
300(9) 0.01077 273.4 27.8
306(10) 0.00993 273.4 28.5
309(9) 0.01011 273.4 29.4
296(9) 0.01108 273.4 30.3
311(9) 0.01084 273.4 31.4
321(10) 0.00963 273.4 32.6
297(10) 0.01002 273.4 33.9
292(9) 0.01069 273.4 35.3
308(9) 0.01051 273.4 36.8
291(9) 0.01156 273.4 38.5
300(9) 0.01086 273.4 40.2
302(9) 0.01063 273.4 42.1
330(10) 0.00972 273.4 44.1
299(9) 0.01118 273.4 46.2
288(9) 0.01150 273.4 48.4
315(9) 0.01052 273.4 50.7
337(10) 0.00884 273.4 53.0
350(10) 0.00918 273.4 55.5
343(10) 0.00983 273.4 58.0
335(9) 0.01012 273.4 60.5
376(10) 0.00872 273.4 62.9
354(11) 0.00813 273.4 65.4
337(10) 0.00887 273.4 67.7
359(10) 0.00943 273.4 69.9
386(10) 0.00876 273.4 71.8
373(10) 0.00878 273.4 73.5
357(10) 0.00848 273.4 75.0
369(10) 0.00867 273.4 76.0
357(10) 0.00951 273.4 76.7
357(10) 0.00950 273.4 77.0
354(10) 0.00904 273.4 77.0
379(11) 0.00790 273.4 76.5
358(10) 0.00890 273.4 75.7
350(10) 0.00980 273.4 74.6
355(10) 0.00946 273.4 73.3
361(10) 0.00879 273.4 71.7
352(10) 0.00885 273.4 69.9
364(10) 0.00844 273.4 68.0
340(10) 0.00993 273.4 66.1
325(9) 0.01018 273.4 64.1
347(10) 0.00896 273.4 62.1
317(10) 0.00972 273.4 60.1
317(9) 0.01029 273.4 58.2
335(9) 0.01009 273.4 56.4
327(10) 0.00995 273.4 54.6
329(10) 0.00954 273.4 52.9
320(10) 0.00983 273.4 51.4
317(9) 0.01012 273.4 49.9
292(9) 0.01145 273.4 48.5
301(9) 0.01027 273.4 47.2
317(9) 0.01022 273.4 46.0
329(10) 0.00959 273.4 44.9
314(9) 0.01038 273.4 43.8
343(10) 0.00977 273.4 42.9
324(10) 0.00991 273.4 42.0
335(10) 0.00926 273.4 41.1
309(9) 0.01016 273.4 40.3
304(9) 0.01092 273.4 39.6
335(10) 0.01005 273.4 38.9
315(9) 0.01016 273.4 38.3
316(10) 0.00950 273.4 37.6
319(10) 0.00982 273.4 37.0
303(9) 0.01111 273.4 36.4
337(10) 0.01000 273.4 35.8
319(10) 0.00992 273.4 35.3
297(9) 0.01038 273.4 34.7
309(9) 0.01029 273.4 34.1
323(9) 0.01036 273.4 33.6
311(9) 0.01083 273.4 33.0
300(9) 0.01048 273.4 32.4
333(10) 0.00855 273.4 31.8
301(9) 0.01053 273.4 31.3
324(9) 0.01032 273.4 30.7
280(9) 0.01198 273.4 30.1
327(10) 0.00975 273.4 29.5
318(10) 0.00959 273.4 28.9
315(9) 0.01018 273.4 28.3
285(9) 0.01162 273.4 27.7
294(9) 0.01132 273.4 27.1
301(9) 0.01046 273.4 26.5
297(9) 0.01023 273.4 25.9
313(9) 0.01013 273.4 25.3
304(9) 0.01106 273.4 24.7
290(9) 0.01149 273.4 24.1
284(9) 0.01105 273.4 23.6
275(9) 0.01080 273.4 23.0
275(9) 0.01109 273.4 22.5
315(9) 0.01073 273.4 21.9
284(9) 0.01117 273.4 21.4
299(9) 0.01034 273.4 20.9
300(9) 0.01020 273.4 20.4
289(9) 0.01087 273.4 19.9
293(9) 0.01141 273.4 19.5
280(9) 0.01163 273.4 19.0
303(9) 0.01018 273.4 18.6
288(9) 0.01085 273.4 18.2
285(9) 0.01131 273.4 17.8
276(9) 0.01193 273.4 17.4
280(9) 0.01137 273.4 17.0
293(9) 0.01019 273.4 16.6
278(9) 0.01090 273.4 16.3
284(9) 0.01141 273.4 15.9
254(8) 0.01294 273.4 15.6
282(9) 0.01115 273.4 15.3
297(9) 0.01040 273.4 15.0
309(9) 0.01032 273.4 14.7
282(9) 0.01174 273.4 14.5
282(9) 0.01167 273.4 14.2
283(9) 0.01111 273.4 14.0
281(9) 0.01066 273.4 13.8
272(9) 0.01157 273.4 13.5
268(9) 0.01203 273.4 13.3
285(9) 0.01167 273.4 13.1
266(9) 0.01177 273.4 13.0
281(9) 0.01044 273.4 12.8
242(8) 0.01319 273.4 12.6
283(9) 0.01177 273.4 12.5
276(9) 0.01169 273.4 12.4
269(9) 0.01175 273.4 12.2
277(9) 0.01061 273.4 12.1
265(9) 0.01198 273.4 12.0
278(9) 0.01168 273.4 11.9
267(9) 0.01228 273.4 11.9
258(9) 0.01203 273.4 11.8
281(9) 0.01069 273.4 11.7
283(9) 0.01128 273.4 11.7
281(9) 0.01181 273.4 11.7
293(9) 0.01146 273.4 11.6
273(9) 0.01125 273.4 11.6
256(9) 0.01156 273.4 11.6
277(9) 0.01132 273.4 11.6
296(9) 0.01133 273.4 11.6
308(9) 0.01046 273.4 11.7
274(9) 0.01095 273.4 11.7
274(9) 0.01097 273.4 11.8
281(9) 0.01122 273.4 11.9
290(9) 0.01147 273.4 11.9
276(9) 0.01172 273.4 12.0
298(9) 0.01067 273.4 12.1
272(9) 0.01179 273.4 12.2
300(9) 0.01020 273.4 12.4
282(9) 0.01170 273.4 12.5
282(9) 0.01160 273.3 12.7
296(9) 0.01057 273.3 12.8
283(9) 0.01075 273.3 13.0
276(9) 0.01199 273.3 13.1
276(9) 0.01204 273.3 13.3
266(9) 0.01176 273.3 13.4
270(9) 0.01137 273.3 13.6
271(9) 0.01117 273.2 13.8
271(9) 0.01187 273.2 13.9
285(9) 0.01165 273.2 14.0
282(9) 0.01098 273.2 14.2
257(9) 0.01211 273.2 14.3
293(9) 0.01059 273.2 14.4
301(9) 0.01069 273.1 14.5
289(9) 0.01155 273.1 14.5
279(9) 0.01125 273.1 14.6
284(9) 0.01084 273.1 14.6
281(9) 0.01161 273.1 14.7
320(9) 0.01033 273.1 14.7
284(9) 0.01172 273.1 14.7
280(9) 0.01128 273.0 14.7
303(10) 0.00968 273.0 14.7
279(9) 0.01112 273.0 14.8
283(9) 0.01163 273.0 14.8
291(9) 0.01162 273.0 14.8
281(9) 0.01106 273.0 14.8
302(10) 0.00966 273.0 14.9
286(9) 0.01093 272.9 14.9
287(9) 0.01146 272.9 15.0
289(9) 0.01137 272.9 15.0
308(10) 0.01000 272.9 15.1
295(10) 0.00997 272.9 15.1
327(10) 0.00970 272.9 15.2
309(9) 0.01091 272.9 15.2
289(9) 0.01154 272.8 15.3
288(9) 0.01062 272.8 15.3
301(10) 0.00988 272.8 15.4
302(9) 0.01038 272.8 15.5
292(9) 0.01148 272.8 15.5
267(9) 0.01227 272.8 15.6
283(9) 0.01098 272.7 15.6
281(9) 0.01092 272.7 15.7
284(9) 0.01118 272.7 15.7
282(9) 0.01186 272.7 15.8
304(9) 0.01095 272.7 15.8
291(9) 0.01066 272.7 15.8
281(9) 0.01063 272.7 15.9
283(9) 0.01101 272.6 15.9
282(9) 0.01172 272.6 15.9
302(9) 0.01078 272.6 15.9
291(9) 0.01053 272.6 15.9
298(9) 0.01026 272.6 15.9
300(9) 0.01072 272.6 15.9
290(9) 0.01141 272.6 15.9
312(10) 0.00976 272.5 15.9
267(9) 0.01164 272.5 15.9
301(10) 0.00999 272.5 15.9
267(9) 0.01202 272.5 15.9
269(8) 0.01235 272.5 15.9
293(9) 0.01050 272.5 16.0
280(9) 0.01126 272.4 16.0
284(9) 0.01112 272.4 16.0
277(9) 0.01147 272.4 16.0
300(9) 0.01110 272.4 16.0
274(9) 0.01152 272.4 16.1
310(10) 0.00966 272.4 16.1
297(9) 0.01065 272.4 16.2
292(9) 0.01126 272.3 16.3
291(9) 0.01141 272.3 16.4
296(10) 0.00983 272.3 16.5
294(10) 0.00999 272.3 16.6
282(9) 0.01108 272.3 16.8
288(9) 0.01136 272.3 17.0
302(9) 0.01117 272.3 17.2
302(9) 0.01044 272.2 17.5
285(9) 0.01050 272.2 17.8
284(9) 0.01065 272.2 18.2
296(9) 0.01108 272.2 18.7
317(9) 0.01055 272.2 19.2
281(9) 0.01107 272.2 19.8
282(10) 0.01005 272.1 20.6
293(9) 0.01117 272.1 21.5
318(9) 0.01062 272.1 22.5
295(9) 0.01136 272.1 23.7
305(9) 0.01032 272.1 25.1
302(10) 0.00978 272.1 26.6
291(9) 0.01087 272.1 28.4
341(10) 0.00992 272.0 30.5
329(9) 0.01017 272.0 32.7
311(9) 0.01009 272.0 35.0
328(10) 0.00898 272.0 37.5
316(10) 0.00999 272.0 39.8
343(10) 0.00984 272.0 41.9
340(10) 0.00950 272.0 43.5
367(10) 0.00872 271.9 44.4
367(10) 0.00848 271.9 44.5
333(10) 0.00965 271.9 43.9
360(10) 0.00951 271.9 42.6
356(10) 0.00935 271.9 41.0
334(10) 0.00968 271.9 39.1
320(10) 0.00973 271.9 37.2
328(10) 0.00973 271.8 35.5
316(9) 0.01060 271.8 33.9
298(9) 0.01044 271.8 32.6
325(10) 0.00952 271.8 31.5
302(9) 0.01044 271.8 30.6
311(9) 0.01033 271.8 29.9
306(9) 0.01100 271.7 29.4
286(9) 0.01129 271.7 29.0
290(9) 0.01047 271.7 28.6
293(9) 0.01053 271.7 28.1
290(9) 0.01096 271.7 27.6
304(9) 0.01110 271.7 27.0
320(10) 0.00987 271.7 26.3
281(9) 0.01114 271.6 25.5
283(9) 0.01079 271.6 24.7
298(9) 0.01097 271.6 24.0
294(9) 0.01144 271.6 23.2
311(9) 0.01016 271.6 22.6
300(9) 0.01064 271.6 21.9
282(9) 0.01136 271.6 21.4
285(9) 0.01136 271.5 20.9
308(9) 0.01093 271.5 20.4
291(9) 0.01099 271.5 20.0
286(9) 0.01047 271.5 19.7
316(10) 0.00964 271.5 19.4
300(9) 0.01085 271.5 19.1
296(9) 0.01121 271.4 18.9
298(9) 0.01052 271.4 18.7
285(9) 0.01016 271.4 18.6
289(9) 0.01096 271.4 18.4
306(9) 0.01093 271.4 18.3
317(9) 0.01028 271.4 18.2
287(9) 0.01082 271.4 18.2
295(10) 0.00929 271.3 18.1
276(9) 0.01130 271.3 18.1
282(9) 0.01175 271.3 18.0
292(9) 0.01135 271.3 18.0
275(9) 0.01131 271.3 18.0
288(9) 0.01032 271.3 18.1
283(9) 0.01091 271.3 18.1
268(9) 0.01222 271.2 18.2
269(9) 0.01211 271.2 18.2
282(9) 0.01078 271.2 18.3
287(9) 0.01026 271.2 18.4
277(9) 0.01109 271.2 18.5
268(8) 0.01237 271.2 18.6
272(9) 0.01185 271.1 18.8
279(9) 0.01140 271.1 18.9
287(9) 0.01084 271.1 19.1
309(10) 0.00983 271.1 19.3
295(9) 0.01125 271.1 19.4
301(9) 0.01066 271.1 19.6
291(9) 0.01093 271.1 19.8
290(9) 0.01072 271.0 20.1
294(9) 0.01073 271.0 20.3
274(9) 0.01209 271.0 20.5
261(9) 0.01212 271.0 20.8
260(9) 0.01163 271.0 21.0
275(9) 0.01065 271.0 21.3
281(9) 0.01099 271.0 21.6
285(9) 0.01171 270.9 21.8
281(9) 0.01105 270.9 22.1
296(10) 0.01003 270.9 22.4
279(9) 0.01105 270.9 22.8
324(9) 0.01013 270.9 23.1
315(9) 0.01055 270.9 23.4
290(9) 0.01066 270.9 23.8
278(9) 0.01033 270.8 24.2
296(9) 0.01033 270.8 24.7
284(9) 0.01146 270.8 25.1
290(9) 0.01141 270.8 25.6
295(9) 0.01076 270.8 26.0
308(10) 0.00975 270.8 26.5
313(9) 0.01037 270.7 26.9
293(9) 0.01139 270.7 27.2
316(9) 0.01055 270.7 27.4
311(9) 0.01009 270.7 27.6
296(9) 0.01051 270.7 27.6
302(9) 0.01078 270.7 27.5
286(9) 0.01171 270.7 27.4
292(9) 0.01141 270.6 27.3
292(9) 0.01077 270.6 27.1
305(10) 0.00984 270.6 27.0
281(9) 0.01111 270.6 27.0
297(9) 0.01116 270.6 27.1
313(9) 0.01033 270.6 27.4
305(9) 0.01051 270.6 27.8
288(9) 0.01056 270.5 28.5
300(9) 0.01058 270.5 29.3
308(9) 0.01086 270.5 30.4
308(9) 0.01072 270.5 31.8
312(9) 0.01019 270.5 33.5
297(9) 0.01035 270.5 35.6
311(9) 0.01030 270.4 38.1
290(9) 0.01156 270.4 41.0
347(10) 0.00945 270.4 44.3
333(10) 0.00939 270.4 48.0
344(10) 0.00863 270.4 51.9
329(10) 0.00980 270.4 55.9
344(10) 0.00988 270.4 59.7
346(10) 0.00950 270.3 62.9
331(10) 0.01003 270.3 65.2
330(10) 0.00936 270.3 66.2
324(10) 0.00971 270.3 66.0
324(9) 0.01040 270.3 64.9
342(10) 0.00927 270.3 63.2
339(10) 0.00940 270.3 61.1
338(10) 0.00944 270.2 58.8
334(10) 0.00953 270.2 56.4
314(9) 0.01079 270.2 54.1
331(10) 0.00975 270.2 51.7
329(10) 0.00920 270.2 49.4
307(9) 0.01054 270.2 47.1
325(10) 0.00995 270.2 44.9
328(9) 0.01018 270.1 42.8
306(9) 0.01045 270.1 40.8
288(9) 0.01058 270.1 39.0
303(9) 0.01030 270.1 37.4
286(9) 0.01133 270.1 35.9
293(9) 0.01147 270.1 34.5
287(9) 0.01066 270.0 33.4
283(9) 0.01033 270.0 32.4
277(9) 0.01138 270.0 31.6
308(9) 0.01064 270.0 30.9
282(9) 0.01191 270.0 30.4
282(9) 0.01140 270.0 30.1
305(10) 0.00986 270.0 29.9
290(9) 0.01106 269.9 29.8
272(9) 0.01204 269.9 30.0
318(9) 0.01063 269.9 30.2
307(10) 0.00974 269.9 30.6
310(10) 0.00945 269.9 31.2
300(9) 0.01078 269.9 31.9
321(9) 0.01064 269.9 32.7
308(9) 0.01059 269.8 33.7
305(9) 0.01033 269.8 34.9
285(9) 0.01042 269.8 36.1
330(10) 0.00922 269.8 37.5
323(9) 0.01029 269.8 39.1
319(9) 0.01042 269.8 40.7
310(9) 0.01054 269.7 42.5
299(9) 0.01032 269.7 44.3
324(10) 0.00966 269.7 46.2
329(9) 0.01034 269.7 48.1
316(9) 0.01040 269.7 50.0
313(9) 0.01025 269.7 51.8
315(10) 0.00998 269.7 53.5
356(10) 0.00853 269.6 55.2
323(9) 0.01042 269.6 56.6
323(9) 0.01018 269.6 57.8
325(10) 0.00917 269.6 58.7
299(9) 0.01028 269.6 59.4
325(10) 0.00961 269.6 59.7
277(9) 0.01199 269.6 59.6
334(10) 0.00973 269.5 59.2
315(10) 0.01002 269.5 58.4
312(9) 0.01010 269.5 57.2
327(10) 0.01005 269.5 55.6
337(9) 0.01009 269.5 53.7
324(10) 0.00941 269.5 51.6
312(10) 0.00987 269.4 49.2
313(10) 0.00993 269.4 46.8
309(9) 0.01084 269.4 44.2
301(9) 0.01110 269.4 41.7
309(9) 0.01008 269.4 39.2
313(10) 0.01004 269.4 36.9
317(9) 0.01032 269.4 34.6
286(9) 0.01149 269.3 32.5
304(9) 0.01117 269.3 30.5
301(9) 0.01060 269.3 28.7
303(10) 0.01000 269.3 27.0
297(9) 0.01073 269.3 25.4
283(9) 0.01128 269.3 24.0
284(9) 0.01169 269.3 22.6
278(9) 0.01086 269.2 21.4
282(9) 0.01040 269.2 20.3
290(9) 0.01085 269.2 19.3
290(9) 0.01135 269.2 18.4
273(8) 0.01238 269.2 17.6
276(9) 0.01146 269.2 16.9
291(9) 0.01033 269.2 16.2
288(9) 0.01081 269.1 15.6
275(9) 0.01205 269.1 15.0
275(9) 0.01207 269.1 14.5
283(9) 0.01129 269.1 14.1
280(9) 0.01042 269.1 13.7
265(9) 0.01199 269.1 13.3
273(9) 0.01223 269.0 13.0
267(9) 0.01202 269.0 12.7
279(9) 0.01059 269.0 12.5
265(9) 0.01152 269.0 12.3
283(9) 0.01090 269.0 12.1
284(9) 0.01167 269.0 12.0
267(9) 0.01180 269.0 11.8
266(9) 0.01145 268.9 11.8
256(9) 0.01201 268.9 11.7
272(9) 0.01135 268.9 11.7
272(9) 0.01213 268.9 11.7
268(9) 0.01171 268.9 11.8
281(9) 0.01078 268.9 11.8
261(9) 0.01197 268.9 11.9
264(9) 0.01200 268.8 12.0
280(9) 0.01183 268.8 12.2
275(9) 0.01143 268.8 12.3
287(9) 0.01067 268.8 12.5
303(10) 0.00995 268.8 12.7
250(8) 0.01243 268.8 12.8
263(8) 0.01264 268.7 13.0
275(9) 0.01117 268.7 13.2
261(9) 0.01168 268.7 13.3
273(9) 0.01110 268.7 13.4
282(9) 0.01111 268.7 13.4
277(9) 0.01209 268.7 13.4
278(9) 0.01131 268.7 13.4
286(9) 0.01039 268.6 13.3
282(9) 0.01105 268.6 13.1
291(9) 0.01134 268.6 12.9
275(9) 0.01195 268.6 12.7
273(9) 0.01116 268.6 12.4
262(9) 0.01171 268.6 12.1
283(9) 0.01090 268.6 11.7
280(9) 0.01149 268.5 11.4
278(9) 0.01215 268.5 11.1
274(9) 0.01134 268.5 10.7
269(9) 0.01088 268.5 10.4
263(9) 0.01175 268.5 10.1
267(9) 0.01210 268.5 9.8
266(8) 0.01250 268.4 9.6
272(9) 0.01131 268.4 9.3
285(10) 0.00995 268.4 9.1
272(9) 0.01185 268.4 8.9
286(9) 0.01157 268.4 8.7
247(8) 0.01293 268.4 8.5
271(9) 0.01145 268.4 8.3
261(9) 0.01104 268.3 8.2
263(9) 0.01205 268.3 8.0
277(9) 0.01193 268.3 7.9
270(9) 0.01183 268.3 7.8
257(9) 0.01192 268.3 7.7
260(9) 0.01137 268.3 7.7
260(9) 0.01193 268.3 7.6
290(9) 0.01163 268.2 7.5
289(9) 0.01114 268.2 7.5
270(9) 0.01178 268.2 7.5
259(9) 0.01163 268.2 7.4
267(9) 0.01145 268.2 7.4
260(8) 0.01267 268.2 7.4
258(8) 0.01238 268.2 7.4
277(9) 0.01135 268.1 7.4
268(9) 0.01160 268.1 7.5
256(9) 0.01230 268.1 7.5
261(8) 0.01263 268.1 7.5
266(9) 0.01181 268.1 7.6
255(9) 0.01208 268.1 7.6
264(9) 0.01166 268.0 7.7
266(9) 0.01146 268.0 7.8
281(9) 0.01194 268.0 7.9
271(9) 0.01151 268.0 7.9
276(9) 0.01063 268.0 8.0
279(9) 0.01087 268.0 8.1
282(9) 0.01141 268.0 8.3
284(9) 0.01158 267.9 8.4
289(9) 0.01072 267.9 8.5
283(9) 0.01092 267.9 8.7
274(9) 0.01146 267.9 8.8
271(9) 0.01197 267.9 9.0
239(8) 0.01370 267.9 9.2
260(9) 0.01213 267.9 9.4
242(8) 0.01289 267.9 9.6
265(9) 0.01183 267.9 9.8
256(8) 0.01267 267.9 10.1
261(8) 0.01266 267.9 10.3
283(9) 0.01060 267.9 10.6
257(9) 0.01184 267.9 10.9
277(9) 0.01112 267.9 11.3
269(8) 0.01237 267.9 11.6
260(8) 0.01251 267.9 12.0
282(9) 0.01069 267.9 12.4
248(9) 0.01187 267.9 12.8
277(9) 0.01116 267.9 13.2
269(9) 0.01196 267.9 13.7
267(9) 0.01226 267.9 14.2
265(9) 0.01185 267.9 14.8
284(9) 0.01055 267.9 15.4
294(9) 0.01063 267.9 16.0
296(9) 0.01119 267.9 16.7
274(9) 0.01196 267.9 17.4
290(9) 0.01117 267.9 18.2
292(9) 0.01017 267.9 19.0
285(9) 0.01129 267.9 19.8
280(9) 0.01189 267.9 20.7
297(9) 0.01050 267.9 21.7
252(8) 0.01257 267.9 22.7
261(9) 0.01154 267.9 23.7
283(9) 0.01102 267.9 24.8
292(9) 0.01142 267.9 26.0
293(9) 0.01116 267.9 27.2
316(10) 0.00986 267.9 28.5
274(9) 0.01145 267.9 29.8
268(9) 0.01147 267.9 31.1
288(9) 0.01138 267.9 32.5
301(9) 0.01076 267.9 33.8
303(9) 0.01031 267.9 35.2
312(10) 0.01007 267.9 36.6
324(10) 0.00975 267.9 37.9
299(9) 0.01118 267.9 39.2
309(9) 0.01056 267.9 40.5
288(9) 0.01123 267.9 41.6
319(10) 0.00938 267.9 42.6
314(9) 0.01008 267.9 43.5
306(9) 0.01100 267.9 44.2
299(9) 0.01050 267.9 44.7
324(10) 0.00972 267.9 45.1
309(9) 0.01040 267.9 45.2
310(9) 0.01074 267.9 45.1
336(10) 0.00998 267.9 44.9
299(9) 0.01046 267.9 44.4
298(10) 0.01001 267.9 43.7
276(9) 0.01122 267.9 42.9
298(9) 0.01089 267.9 41.9
297(9) 0.01127 267.9 40.9
282(9) 0.01113 267.9 39.7
305(9) 0.01014 267.9 38.4
323(10) 0.00973 267.9 37.1
285(9) 0.01167 267.9 35.8
295(9) 0.01141 267.9 34.4
284(9) 0.01089 267.9 33.1
289(9) 0.01058 267.9 31.7
321(10) 0.00971 267.9 30.4
297(9) 0.01126 267.9 29.1
265(8) 0.01239 267.9 27.9
270(9) 0.01189 267.9 26.7
288(10) 0.00997 267.9 25.6
282(9) 0.01097 267.9 24.5
305(9) 0.01067 267.9 23.4
297(9) 0.01102 267.9 22.5
267(9) 0.01180 267.9 21.5
277(9) 0.01058 267.9 20.7
294(9) 0.01011 267.9 19.8
286(9) 0.01170 267.9 19.1
284(9) 0.01146 267.9 18.3
278(9) 0.01145 267.9 17.6
305(10) 0.00957 267.9 17.0
264(9) 0.01203 267.9 16.4
290(9) 0.01153 267.9 15.9
279(9) 0.01155 267.9 15.4
281(9) 0.01154 267.9 14.9
278(9) 0.01073 267.9 14.4
294(9) 0.01038 267.9 14.0
298(9) 0.01111 267.9 13.7
281(9) 0.01124 267.9 13.3
274(9) 0.01146 267.9 13.0
256(8) 0.01243 267.9 12.7
272(9) 0.01104 267.9 12.5
279(9) 0.01191 267.9 12.2
277(9) 0.01178 267.9 12.0
279(9) 0.01126 267.9 11.8
275(9) 0.01127 267.9 11.7
293(9) 0.01089 267.9 11.5
272(9) 0.01212 267.9 11.4
289(9) 0.01048 267.9 11.3
291(9) 0.01081 267.9 11.2
286(9) 0.01114 267.9 11.1
299(9) 0.01091 267.9 11.1
271(9) 0.01217 267.9 11.1
266(9) 0.01166 267.9 11.1
286(9) 0.01018 267.9 11.1
254(9) 0.01220 267.9 11.1
285(9) 0.01124 267.9 11.2
284(9) 0.01166 267.9 11.3
294(9) 0.01032 267.9 11.4
274(9) 0.01120 267.9 11.5
299(9) 0.01029 267.9 11.7
268(8) 0.01241 267.9 11.8
276(9) 0.01204 267.9 12.0
312(10) 0.00998 267.9 12.3
275(9) 0.01093 267.9 12.6
281(9) 0.01126 267.9 12.9
272(8) 0.01233 267.9 13.2
283(9) 0.01172 267.9 13.6
265(9) 0.01173 267.9 14.0
255(9) 0.01147 267.9 14.5
288(9) 0.01102 267.9 15.0
277(9) 0.01201 267.9 15.6
290(9) 0.01148 267.9 16.2
285(9) 0.01116 267.9 16.9
282(9) 0.01036 267.9 17.7
269(9) 0.01176 267.9 18.5
277(9) 0.01186 267.9 19.5
282(9) 0.01175 267.9 20.4
292(9) 0.01044 267.9 21.5
265(9) 0.01104 267.9 22.7
299(9) 0.01018 267.9 23.9
292(9) 0.01144 267.9 25.2
284(9) 0.01143 267.9 26.6
292(9) 0.01080 267.9 28.0
276(9) 0.01119 267.9 29.5
297(9) 0.01048 267.9 31.1
275(9) 0.01197 267.9 32.7
304(9) 0.01079 267.9 34.3
301(9) 0.01065 267.9 35.8
313(10) 0.00990 267.9 37.3
303(9) 0.01046 267.9 38.6
303(9) 0.01110 267.9 39.8
302(9) 0.01040 267.9 40.8
314(10) 0.00994 267.9 41.5
309(10) 0.00990 267.9 41.9
304(9) 0.01048 267.9 42.0
281(9) 0.01191 267.9 41.8
300(9) 0.01066 267.9 41.3
316(10) 0.00950 267.9 40.5
306(9) 0.01029 267.9 39.5
288(9) 0.01141 267.9 38.3
301(9) 0.01117 267.9 37.0
286(9) 0.01112 267.9 35.5
306(9) 0.01013 267.9 34.0
297(9) 0.01064 267.9 32.4
297(9) 0.01083 267.9 30.9
273(9) 0.01198 267.9 29.4
298(9) 0.01036 267.9 28.0
313(10) 0.00935 267.9 26.6
306(9) 0.01033 267.9 25.3
284(9) 0.01171 267.9 24.1
290(9) 0.01146 267.9 23.0
290(9) 0.01034 267.9 21.9
289(9) 0.01029 267.9 21.0
297(9) 0.01036 267.9 20.1
274(9) 0.01180 267.9 19.3
286(9) 0.01152 267.9 18.5
268(9) 0.01175 267.9 17.9
283(10) 0.00998 267.9 17.3
269(9) 0.01190 267.9 16.8
288(9) 0.01171 267.9 16.3
290(9) 0.01150 267.9 15.9
278(9) 0.01166 267.9 15.6
276(9) 0.01116 267.9 15.3
279(9) 0.01115 267.9 15.0
283(9) 0.01174 267.9 14.8
302(9) 0.01073 267.9 14.7
284(9) 0.01097 267.9 14.6
263(9) 0.01150 267.9 14.5
282(9) 0.01123 267.9 14.4
286(9) 0.01170 267.9 14.4
300(9) 0.01101 267.9 14.4
288(9) 0.01064 267.9 14.5
292(9) 0.01029 267.9 14.6
272(9) 0.01154 267.9 14.7
276(9) 0.01190 267.9 14.8
294(9) 0.01099 267.9 15.0
297(9) 0.01044 267.9 15.1
284(9) 0.01063 267.9 15.3
279(9) 0.01124 267.9 15.5
312(9) 0.01078 267.9 15.8
281(9) 0.01159 267.9 16.0
276(9) 0.01158 267.9 16.3
303(9) 0.01048 267.9 16.5
307(9) 0.01054 267.9 16.8
291(9) 0.01149 267.9 17.1
278(9) 0.01153 267.9 17.3
274(9) 0.01123 267.9 17.6
296(9) 0.01012 267.9 17.9
291(9) 0.01126 267.9 18.1
283(9) 0.01180 267.9 18.3
316(9) 0.01019 267.9 18.5
301(9) 0.01034 267.9 18.7
299(9) 0.01038 267.9 18.9
300(9) 0.01082 267.9 19.0
288(9) 0.01167 267.9 19.1
286(9) 0.01104 267.9 19.2
289(9) 0.01022 267.9 19.2
302(9) 0.01025 267.9 19.2
300(9) 0.01116 267.9 19.2
301(9) 0.01116 267.9 19.1
292(9) 0.01086 267.9 19.0
271(9) 0.01150 267.9 18.8
295(9) 0.01040 267.9 18.6
294(9) 0.01119 267.9 18.4
299(9) 0.01107 267.9 18.2
282(9) 0.01139 267.9 18.0
295(10) 0.00982 267.9 17.7
262(8) 0.01244 267.9 17.4
288(9) 0.01157 267.9 17.1
281(9) 0.01177 267.9 16.8
282(9) 0.01153 267.9 16.5
288(9) 0.01033 267.9 16.1
273(9) 0.01162 267.9 15.8
279(9) 0.01186 267.9 15.5
272(9) 0.01221 267.9 15.1
254(9) 0.01213 267.9 14.8
280(9) 0.01057 267.9 14.5
285(9) 0.01082 267.9 14.2
288(9) 0.01172 267.9 13.8
267(9) 0.01210 267.9 13.5
268(9) 0.01173 267.9 13.3
293(9) 0.01044 267.9 13.0
299(9) 0.01039 267.9 12.7
262(8) 0.01259 267.9 12.4
271(8) 0.01237 267.9 12.2
276(9) 0.01123 267.9 12.0
258(9) 0.01160 267.9 11.8
252(9) 0.01230 267.9 11.6
283(9) 0.01187 267.9 11.4
283(9) 0.01141 267.9 11.2
296(9) 0.01056 267.9 11.1
283(9) 0.01092 267.9 10.9
288(9) 0.01100 267.9 10.8
297(9) 0.01112 267.9 10.7
265(9) 0.01207 267.9 10.6
297(9) 0.01019 267.9 10.5
257(9) 0.01195 267.9 10.4
291(9) 0.01102 267.9 10.4
287(9) 0.01150 267.9 10.3
280(9) 0.01106 267.9 10.3
297(10) 0.01005 267.9 10.3
278(9) 0.01076 267.9 10.3
254(8) 0.01237 267.9 10.3
261(8) 0.01274 267.9 10.3
290(9) 0.01074 267.9 10.4
296(9) 0.01021 267.9 10.4
289(9) 0.01041 267.9 10.5
280(9) 0.01155 267.9 10.6
273(9) 0.01215 267.9 10.7
280(9) 0.01103 267.9 10.8
286(10) 0.01000 267.9 10.9
279(9) 0.01080 267.9 11.1
257(8) 0.01264 267.9 11.2
288(9) 0.01157 267.9 11.4
270(9) 0.01151 267.9 11.6
280(9) 0.01018 267.9 11.8
269(9) 0.01141 267.9 12.0
266(8) 0.01243 267.9 12.2
267(8) 0.01248 267.9 12.5
274(9) 0.01139 267.9 12.7
278(9) 0.01031 267.9 13.0
284(9) 0.01094 267.9 13.3
267(8) 0.01246 267.9 13.6
290(9) 0.01136 267.9 13.9
266(9) 0.01193 267.9 14.3
276(9) 0.01041 267.9 14.6
270(9) 0.01153 267.9 15.0
282(9) 0.01189 267.9 15.4
285(9) 0.01156 267.9 15.8
312(10) 0.00947 267.9 16.2
265(9) 0.01131 267.9 16.6
289(9) 0.01053 267.9 17.0
288(9) 0.01151 267.9 17.5
277(9) 0.01143 267.9 17.9
273(9) 0.01115 267.9 18.4
269(9) 0.01149 267.9 18.9
288(9) 0.01091 267.9 19.3
300(9) 0.01113 267.9 19.8
309(9) 0.01061 267.9 20.3
279(9) 0.01116 267.9 20.7
290(9) 0.01082 267.9 21.2
310(9) 0.01028 267.9 21.6
285(9) 0.01159 267.9 22.0
294(9) 0.01092 267.9 22.4
292(9) 0.01029 267.9 22.8
274(9) 0.01097 267.9 23.1
278(9) 0.01132 267.9 23.4
303(9) 0.01113 267.9 23.6
289(9) 0.01099 267.9 23.8
286(9) 0.01051 267.9 24.0
315(10) 0.00931 267.9 24.1
306(9) 0.01009 267.9 24.2
280(9) 0.01177 267.9 24.2
277(9) 0.01122 267.9 24.1
278(9) 0.01090 267.9 24.0
287(9) 0.01099 267.9 23.9
289(9) 0.01140 267.9 23.7
283(9) 0.01181 267.9 23.5
296(9) 0.01044 267.9 23.2
278(9) 0.01096 267.9 22.9
287(9) 0.01080 267.9 22.5
315(9) 0.01067 267.9 22.1
288(9) 0.01149 267.9 21.7
281(9) 0.01124 267.9 21.3
276(9) 0.01103 267.9 20.8
265(9) 0.01222 267.9 20.4
263(9) 0.01216 267.9 19.9
272(9) 0.01221 267.9 19.4
284(9) 0.01090 267.9 19.0
291(9) 0.01026 267.9 18.5
281(9) 0.01140 267.9 18.0
275(9) 0.01218 267.9 17.6
269(9) 0.01230 267.9 17.1
270(9) 0.01197 267.9 16.6
285(9) 0.01017 267.9 16.2
282(9) 0.01094 267.9 15.8
274(9) 0.01194 267.9 15.4
283(9) 0.01139 267.9 15.0
256(8) 0.01250 267.9 14.6
293(9) 0.01020 267.9 14.2
273(9) 0.01164 267.9 13.8
286(9) 0.01167 267.9 13.5
274(9) 0.01186 267.9 13.2
268(9) 0.01154 267.9 12.9
286(9) 0.01019 267.9 12.6
255(8) 0.01248 267.9 12.3
260(8) 0.01275 267.9 12.0
260(9) 0.01205 267.9 11.7
272(9) 0.01157 267.9 11.5
297(9) 0.01012 267.9 11.3
282(9) 0.01117 267.9 11.0
294(9) 0.01140 267.9 10.8
288(9) 0.01140 267.9 10.6
277(9) 0.01132 267.9 10.5
258(9) 0.01175 267.9 10.3
269(9) 0.01171 267.9 10.1
276(9) 0.01200 267.9 10.0
261(9) 0.01189 267.9 9.8
252(8) 0.01238 267.9 9.7
279(9) 0.01103 267.9 9.6
257(8) 0.01273 267.9 9.5
275(9) 0.01207 267.9 9.4
292(9) 0.01087 267.9 9.3
267(9) 0.01101 267.9 9.2
262(9) 0.01154 267.9 9.2
286(9) 0.01126 267.9 9.1
277(9) 0.01210 267.9 9.0
282(9) 0.01135 267.9 9.0
289(9) 0.01049 267.9 8.9
263(9) 0.01193 267.9 8.9
281(9) 0.01190 267.9 8.9
286(9) 0.01171 267.9 8.9
275(9) 0.01139 267.9 8.8
263(9) 0.01142 267.9 8.8
294(9) 0.01048 267.9 8.8
276(9) 0.01195 267.9 8.8
278(9) 0.01215 267.9 8.8
281(9) 0.01118 267.9 8.9
272(9) 0.01105 267.9 8.9
284(9) 0.01125 267.9 8.9
271(9) 0.01221 267.9 9.0
257(8) 0.01264 267.9 9.0
279(9) 0.01117 267.9 9.0
271(9) 0.01048 267.9 9.1
249(8) 0.01248 267.9 9.1
286(9) 0.01149 267.9 9.2
266(8) 0.01248 267.9 9.3
264(9) 0.01195 267.9 9.3
288(9) 0.01024 267.9 9.4
290(9) 0.01100 267.9 9.5
276(9) 0.01218 267.9 9.6
274(9) 0.01197 267.9 9.7
278(9) 0.01120 267.9 9.8
285(9) 0.01074 267.9 9.9
255(9) 0.01214 267.9 10.0
273(9) 0.01209 267.9 10.2
286(9) 0.01117 267.9 10.3
265(9) 0.01143 267.9 10.5
276(9) 0.01086 267.9 10.6
276(9) 0.01156 267.9 10.8
288(9) 0.01154 267.9 10.9
282(9) 0.01172 267.9 11.1
269(9) 0.01126 267.9 11.3
263(9) 0.01125 267.9 11.4
276(9) 0.01168 267.9 11.6
283(9) 0.01178 267.9 11.8
264(9) 0.01204 267.9 12.0
291(9) 0.01042 267.9 12.2
273(9) 0.01154 267.9 12.4
267(9) 0.01192 267.9 12.6
267(9) 0.01225 267.9 12.7
284(9) 0.01093 267.9 12.9
288(9) 0.01052 267.9 13.1
284(9) 0.01105 267.9 13.2
289(9) 0.01102 267.9 13.4
290(9) 0.01145 267.9 13.5
281(9) 0.01100 267.9 13.6
254(9) 0.01201 267.9 13.7
264(9) 0.01192 267.9 13.8
275(9) 0.01188 267.9 13.8
274(9) 0.01223 267.9 13.9
277(9) 0.01156 267.9 13.9
269(9) 0.01142 267.9 14.0
300(9) 0.01017 267.9 14.0
273(9) 0.01222 267.9 14.0
296(9) 0.01116 267.9 14.0
281(9) 0.01125 267.9 14.0
276(9) 0.01088 267.9 14.0
282(9) 0.01095 267.9 14.0
277(9) 0.01200 267.9 14.0
291(9) 0.01133 267.9 14.0
259(9) 0.01205 267.9 14.1
252(9) 0.01157 267.9 14.1
266(9) 0.01075 267.9 14.2
279(9) 0.01190 267.9 14.2
295(9) 0.01129 267.9 14.3
256(8) 0.01246 267.9 14.4
265(9) 0.01111 267.9 14.6
295(9) 0.01032 267.9 14.7
294(9) 0.01138 267.9 14.9
280(9) 0.01193 267.9 15.1
287(9) 0.01082 267.9 15.4
278(9) 0.01046 267.9 15.7
286(9) 0.01082 267.9 16.0
289(9) 0.01142 267.9 16.4
273(9) 0.01219 267.9 16.9
290(9) 0.01035 267.9 17.5
273(9) 0.01112 267.9 18.2
309(9) 0.01047 267.9 19.0
319(9) 0.01053 267.9 20.1
292(9) 0.01062 267.9 21.3
293(9) 0.01036 267.9 22.9
303(9) 0.01009 267.9 24.8
301(9) 0.01028 267.9 27.2
287(9) 0.01157 267.9 29.9
312(9) 0.01045 267.9 33.0
309(10) 0.00982 267.9 36.4
320(10) 0.00943 267.9 40.0
302(9) 0.01070 267.9 43.3
298(9) 0.01124 267.9 45.9
304(9) 0.01021 267.9 47.1
293(9) 0.01031 267.9 46.7
281(9) 0.01103 267.9 44.9
288(9) 0.01095 267.9 42.1
294(9) 0.01135 267.9 38.9
268(9) 0.01174 267.9 35.7
298(10) 0.01005 267.9 32.8
300(9) 0.01055 267.9 30.2
308(9) 0.01087 267.9 28.0
278(9) 0.01169 267.9 26.2
290(9) 0.01029 267.9 24.7
281(9) 0.01056 267.9 23.5
313(10) 0.00996 267.9 22.6
296(9) 0.01098 267.9 21.8
313(9) 0.01078 267.9 21.2
279(9) 0.01108 267.9 20.7
268(9) 0.01088 267.9 20.3
286(9) 0.01110 267.9 19.9
311(9) 0.01081 267.9 19.5
305(9) 0.01079 267.9 19.2
292(9) 0.01094 267.9 18.9
287(9) 0.01010 267.9 18.6
305(9) 0.01012 267.9 18.3
262(8) 0.01232 267.9 18.0
310(9) 0.01089 267.9 17.8
286(9) 0.01076 267.9 17.5
270(9) 0.01104 267.9 17.2
311(9) 0.01008 267.9 16.9
294(9) 0.01140 267.9 16.6
312(9) 0.01059 267.9 16.3
283(9) 0.01129 267.9 16.1
297(10) 0.00990 267.9 15.8
302(9) 0.01038 267.9 15.5
297(9) 0.01130 267.9 15.2
277(9) 0.01179 267.9 14.9
277(9) 0.01115 267.9 14.6
259(9) 0.01157 267.9 14.4
282(9) 0.01122 267.9 14.1
289(9) 0.01150 267.9 13.8
285(9) 0.01139 267.9 13.6
288(9) 0.01070 267.9 13.3
283(9) 0.01084 267.9 13.0
276(9) 0.01141 267.9 12.8
266(8) 0.01234 267.9 12.5
265(9) 0.01205 267.9 12.3
289(9) 0.01082 267.9 12.1
283(9) 0.01112 267.9 11.8
292(9) 0.01098 267.9 11.6
283(9) 0.01194 267.9 11.4
248(8) 0.01244 267.9 11.2
279(9) 0.01075 267.9 11.0
282(9) 0.01053 267.9 10.8
273(9) 0.01167 267.9 10.6
270(9) 0.01216 267.9 10.4
297(9) 0.01021 267.9 10.2
264(9) 0.01157 267.9 10.1
265(9) 0.01204 267.9 9.9
282(9) 0.01145 267.9 9.7
265(8) 0.01256 267.9 9.6
275(9) 0.01155 267.9 9.4
281(9) 0.01082 267.9 9.3
274(9) 0.01127 267.9 9.2
245(8) 0.01311 267.9 9.0
277(9) 0.01193 267.9 8.9
297(9) 0.01067 267.9 8.8
282(9) 0.01071 267.9 8.7
261(9) 0.01205 267.9 8.6
276(9) 0.01199 267.9 8.5
274(9) 0.01193 267.9 8.4
276(9) 0.01166 267.9 8.3
272(9) 0.01086 267.9 8.2
283(9) 0.01111 267.9 8.2
260(8) 0.01280 267.9 8.1
278(9) 0.01197 267.9 8.0
256(8) 0.01231 267.9 8.0
267(9) 0.01098 267.9 7.9
285(9) 0.01112 267.9 7.9
290(9) 0.01158 267.9 7.8
265(8) 0.01254 267.9 7.8
286(9) 0.01090 267.9 7.7
288(10) 0.00997 267.9 7.7
267(9) 0.01148 267.9 7.7
272(9) 0.01227 267.9 7.7
266(9) 0.01189 267.9 7.7
270(9) 0.01149 267.9 7.6
266(9) 0.01100 267.9 7.6
272(9) 0.01121 267.9 7.6
278(9) 0.01181 267.9 7.7
274(9) 0.01192 267.9 7.7
268(9) 0.01170 267.9 7.7
287(9) 0.01048 267.9 7.7
281(9) 0.01125 267.9 7.8
268(9) 0.01227 267.9 7.8
279(9) 0.01161 267.9 7.9
261(9) 0.01157 267.9 7.9
264(9) 0.01146 267.9 8.0
285(9) 0.01124 267.9 8.1
283(9) 0.01159 267.9 8.1
269(9) 0.01173 267.9 8.2
293(9) 0.01034 267.9 8.4
266(9) 0.01177 267.9 8.5
254(8) 0.01249 267.9 8.6
274(9) 0.01202 267.9 8.8
273(9) 0.01150 267.9 9.0
296(9) 0.01013 267.9 9.2
282(9) 0.01089 267.9 9.4
270(9) 0.01182 267.9 9.7
301(9) 0.01104 267.9 10.0
279(9) 0.01152 267.9 10.4
306(10) 0.00973 267.9 10.9
281(9) 0.01104 267.9 11.4
278(9) 0.01176 267.9 12.1
282(9) 0.01179 267.9 12.8
279(9) 0.01123 267.9 13.8
299(10) 0.00978 267.9 15.0
297(9) 0.01085 267.9 16.4
296(9) 0.01112 267.9 18.2
281(9) 0.01176 267.9 20.4
300(9) 0.01044 267.9 22.9
316(10) 0.00907 267.9 26.0
298(9) 0.01041 267.9 29.6
328(9) 0.01034 267.9 33.6
323(9) 0.01043 267.9 38.0
321(10) 0.00985 267.9 42.4
323(10) 0.00938 267.9 46.6
332(10) 0.00968 267.9 49.8
317(9) 0.01062 267.9 51.4
320(9) 0.01034 267.9 51.2
304(9) 0.01037 267.9 49.1
314(10) 0.00943 267.9 45.6
307(9) 0.01017 267.9 41.4
314(9) 0.01062 267.9 36.8
298(9) 0.01093 267.9 32.5
296(9) 0.01065 267.9 28.5
303(9) 0.01013 267.9 25.0
306(9) 0.01015 267.9 22.0
261(8) 0.01260 267.9 19.5
288(9) 0.01116 267.9 17.4
282(9) 0.01048 267.9 15.7
281(9) 0.01112 267.9 14.3
288(9) 0.01097 267.9 13.1
288(9) 0.01163 267.9 12.1
289(9) 0.01129 267.9 11.4
314(10) 0.00955 267.9 10.7
276(9) 0.01160 267.9 10.2
277(9) 0.01160 267.9 9.7
255(8) 0.01283 267.9 9.3
254(8) 0.01242 267.9 9.0
286(9) 0.01051 267.9 8.7
276(9) 0.01084 267.9 8.5
281(9) 0.01121 267.9 8.2
281(9) 0.01173 267.9 8.0
278(9) 0.01133 267.9 7.9
278(9) 0.01111 267.9 7.7
265(9) 0.01196 267.9 7.6
288(9) 0.01127 267.9 7.4
278(9) 0.01200 267.9 7.3
269(9) 0.01173 267.9 7.2
280(9) 0.01105 267.9 7.1
282(9) 0.01091 267.9 7.0
266(8) 0.01232 267.9 7.0
267(9) 0.01228 267.9 6.9
267(9) 0.01153 267.9 6.8
270(9) 0.01122 267.9 6.8
270(9) 0.01157 267.9 6.7
267(9) 0.01214 267.9 6.7
263(8) 0.01239 267.9 6.6
260(9) 0.01209 267.9 6.6
285(9) 0.01013 267.9 6.6
301(9) 0.01047 267.9 6.5
296(9) 0.01116 267.9 6.5
273(9) 0.01205 267.9 6.5
267(9) 0.01184 267.9 6.5
289(10) 0.00996 267.9 6.5
253(8) 0.01261 268.0 6.5
278(9) 0.01195 268.0 6.4
290(9) 0.01133 268.0 6.4
271(9) 0.01149 268.1 6.5
293(10) 0.00972 268.1 6.5
248(8) 0.01246 268.1 6.5
248(8) 0.01312 268.1 6.5
270(9) 0.01214 268.2 6.6
266(9) 0.01138 268.2 6.6
275(9) 0.01101 268.2 6.7
274(9) 0.01157 268.3 6.8
274(9) 0.01205 268.3 6.9
272(9) 0.01206 268.3 7.1
274(9) 0.01142 268.3 7.3
274(9) 0.01083 268.4 7.6
281(9) 0.01120 268.4 7.9
301(9) 0.01114 268.4 8.3
253(8) 0.01301 268.5 8.7
281(9) 0.01081 268.5 9.3
290(9) 0.01030 268.5 9.8
283(9) 0.01121 268.5 10.4
279(9) 0.01182 268.6 10.9
285(9) 0.01101 268.6 11.4
283(9) 0.01069 268.6 11.6
287(9) 0.01041 268.7 11.6
284(9) 0.01106 268.7 11.3
312(9) 0.01085 268.7 10.8
287(9) 0.01100 268.7 10.2
293(9) 0.01031 268.8 9.6
296(9) 0.01074 268.8 9.0
281(9) 0.01170 268.8 8.4
260(8) 0.01262 268.9 7.9
284(9) 0.01100 268.9 7.4
287(9) 0.01057 268.9 7.1
280(9) 0.01094 268.9 6.7
266(8) 0.01262 269.0 6.5
289(9) 0.01151 269.0 6.3
302(9) 0.01020 269.0 6.1
261(9) 0.01192 269.0 5.9
288(9) 0.01076 269.1 5.8
266(8) 0.01252 269.1 5.7
282(9) 0.01165 269.1 5.6
271(9) 0.01156 269.2 5.5
273(9) 0.01075 269.2 5.5
256(9) 0.01222 269.2 5.4
262(9) 0.01223 269.2 5.4
262(8) 0.01259 269.3 5.3
274(9) 0.01127 269.3 5.3
294(10) 0.00983 269.3 5.3
260(9) 0.01228 269.4 5.2
258(8) 0.01273 269.4 5.2
276(9) 0.01214 269.4 5.2
274(9) 0.01080 269.4 5.2
274(9) 0.01052 269.5 5.2
257(9) 0.01176 269.5 5.2
255(8) 0.01292 269.5 5.2
267(9) 0.01179 269.6 5.2
268(9) 0.01166 269.6 5.2
278(9) 0.01083 269.6 5.2
262(9) 0.01200 269.6 5.2
245(8) 0.01338 269.7 5.2
276(9) 0.01194 269.7 5.2
278(9) 0.01112 269.7 5.2
271(9) 0.01133 269.8 5.2
276(9) 0.01158 269.8 5.2
284(9) 0.01172 269.8 5.3
285(9) 0.01121 269.8 5.3
266(9) 0.01187 269.9 5.3
274(9) 0.01117 269.9 5.3
284(9) 0.01092 269.9 5.4
282(9) 0.01193 270.0 5.4
272(9) 0.01155 270.0 5.4
282(9) 0.01094 270.0 5.5
269(9) 0.01179 270.0 5.5
266(9) 0.01202 270.1 5.6
287(9) 0.01160 270.1 5.6
260(9) 0.01188 270.1 5.7
293(9) 0.01071 270.2 5.7
284(9) 0.01085 270.2 5.8
280(9) 0.01152 270.2 5.8
267(8) 0.01255 270.2 5.9
280(9) 0.01075 270.3 6.0
278(9) 0.01087 270.3 6.1
279(9) 0.01106 270.3 6.1
268(9) 0.01227 270.4 6.2
277(9) 0.01204 270.4 6.3
249(9) 0.01213 270.4 6.4
276(9) 0.01071 270.4 6.5
263(9) 0.01181 270.5 6.6
275(9) 0.01176 270.5 6.7
283(9) 0.01178 270.5 6.8
269(9) 0.01162 270.5 6.9
256(9) 0.01125 270.6 7.0
242(8) 0.01250 270.6 7.1
278(9) 0.01186 270.6 7.3
284(9) 0.01175 270.7 7.4
281(9) 0.01144 270.7 7.6
286(9) 0.01054 270.7 7.7
264(9) 0.01135 270.7 7.9
264(8) 0.01248 270.8 8.1
262(8) 0.01262 270.8 8.3
271(9) 0.01143 270.8 8.5
285(9) 0.01050 270.9 8.7
292(9) 0.01086 270.9 8.9
291(9) 0.01154 270.9 9.1
299(9) 0.01116 270.9 9.4
271(9) 0.01168 271.0 9.7
290(9) 0.01035 271.0 10.0
297(9) 0.01081 271.0 10.3
288(9) 0.01147 271.1 10.6
280(9) 0.01160 271.1 11.0
277(9) 0.01111 271.1 11.4
272(9) 0.01123 271.1 11.9
296(9) 0.01017 271.2 12.4
270(9) 0.01222 271.2 12.9
305(9) 0.01059 271.2 13.5
271(9) 0.01154 271.3 14.2
285(9) 0.01039 271.3 14.9
302(9) 0.01107 271.3 15.7
284(9) 0.01145 271.3 16.5
286(9) 0.01044 271.4 17.5
259(9) 0.01179 271.4 18.5
295(9) 0.01072 271.4 19.6
285(9) 0.01178 271.5 20.7
303(9) 0.01050 271.5 21.9
309(9) 0.01011 271.5 23.1
309(9) 0.01013 271.5 24.4
301(9) 0.01053 271.6 25.6
292(9) 0.01141 271.6 26.7
296(9) 0.01071 271.6 27.6
306(9) 0.01010 271.7 28.4
327(10) 0.00942 271.7 28.9
302(9) 0.01067 271.7 29.3
319(9) 0.01062 271.7 29.4
307(9) 0.01010 271.8 29.3
292(9) 0.01021 271.8 29.0
302(9) 0.01038 271.8 28.6
313(9) 0.01046 271.9 28.0
307(9) 0.01087 271.9 27.4
310(9) 0.01008 271.9 26.6
306(10) 0.00965 271.9 25.8
290(9) 0.01104 272.0 24.9
283(9) 0.01171 272.0 24.1
306(9) 0.01095 272.0 23.2
289(9) 0.01104 272.0 22.4
287(9) 0.01023 272.1 21.6
266(9) 0.01182 272.1 20.9
285(9) 0.01149 272.1 20.2
289(9) 0.01158 272.2 19.5
298(9) 0.01025 272.2 19.0
282(9) 0.01047 272.2 18.4
299(9) 0.01026 272.2 17.9
285(9) 0.01165 272.3 17.5
287(9) 0.01137 272.3 17.1
287(9) 0.01089 272.3 16.7
300(10) 0.00956 272.4 16.3
308(9) 0.01026 272.4 16.0
270(8) 0.01236 272.4 15.7
301(9) 0.01107 272.4 15.4
274(9) 0.01144 272.5 15.1
287(9) 0.01053 272.5 14.8
286(9) 0.01080 272.5 14.6
259(8) 0.01275 272.6 14.3
287(9) 0.01149 272.6 14.1
294(9) 0.01064 272.6 13.9
272(9) 0.01098 272.6 13.7
271(9) 0.01166 272.7 13.5
282(9) 0.01174 272.7 13.2
280(9) 0.01105 272.7 13.1
303(9) 0.01010 272.8 12.9
274(9) 0.01164 272.8 12.7
286(9) 0.01089 272.8 12.5
287(9) 0.01171 272.8 12.3
266(9) 0.01215 272.9 12.1
264(9) 0.01171 272.9 12.0
278(9) 0.01110 272.9 11.8
287(9) 0.01120 273.0 11.6
275(9) 0.01195 273.0 11.5
274(9) 0.01163 273.0 11.3
277(9) 0.01119 273.0 11.2
286(9) 0.01086 273.1 11.0
297(9) 0.01108 273.1 10.9
287(9) 0.01160 273.1 10.8
266(9) 0.01164 273.2 10.6
259(9) 0.01149 273.2 10.5
268(9) 0.01117 273.2 10.4
287(9) 0.01143 273.2 10.3
278(9) 0.01190 273.3 10.2
297(9) 0.01042 273.3 10.1
280(9) 0.01064 273.3 10.0
282(9) 0.01087 273.4 9.9
275(9) 0.01200 273.4 9.8
275(9) 0.01200 273.4 9.7
277(9) 0.01151 273.4 9.6
299(10) 0.00995 273.5 9.5
279(9) 0.01139 273.5 9.4
251(8) 0.01283 273.5 9.4
257(8) 0.01290 273.5 9.3
283(9) 0.01103 273.6 9.2
286(9) 0.01070 273.6 9.2
294(9) 0.01096 273.6 9.1
299(9) 0.01133 273.7 9.0
297(9) 0.01095 273.7 9.0
291(9) 0.01100 273.7 8.9
265(9) 0.01113 273.7 8.9
281(9) 0.01110 273.8 8.8
299(9) 0.01105 273.8 8.8
273(9) 0.01194 273.8 8.7
278(9) 0.01130 273.9 8.7
282(9) 0.01035 273.9 8.7
287(9) 0.01085 273.9 8.6
272(9) 0.01215 273.9 8.6
289(9) 0.01122 274.0 8.5
272(9) 0.01151 274.0 8.5
287(9) 0.01028 274.0 8.5
273(9) 0.01144 274.1 8.4
270(9) 0.01219 274.1 8.4
267(9) 0.01220 274.1 8.4
284(9) 0.01086 274.1 8.3
274(9) 0.01092 274.2 8.3
265(9) 0.01189 274.2 8.3
280(9) 0.01190 274.2 8.2
284(9) 0.01101 274.3 8.2
296(9) 0.01017 274.3 8.2
276(9) 0.01111 274.3 8.1
294(9) 0.01042 274.3 8.1
291(9) 0.01140 274.4 8.1
268(9) 0.01186 274.4 8.0
290(9) 0.01065 274.4 8.0
289(9) 0.01121 274.5 8.0
295(9) 0.01060 274.5 8.0
276(9) 0.01195 274.5 7.9
263(9) 0.01199 274.5 7.9
261(9) 0.01190 274.6 7.9
281(9) 0.01171 274.6 7.9
297(9) 0.01118 274.6 7.8
274(9) 0.01215 274.7 7.8
297(9) 0.01080 274.7 7.8
284(9) 0.01078 274.7 7.8
273(9) 0.01172 274.7 7.8
258(8) 0.01292 274.8 7.8
272(9) 0.01212 274.8 7.8
301(9) 0.01032 274.8 7.8
287(9) 0.01042 274.9 7.8
266(9) 0.01206 274.9 7.9
296(9) 0.01123 274.9 7.9
265(8) 0.01242 274.9 7.9
275(9) 0.01183 275.0 7.9
292(10) 0.00977 275.0 8.0
277(9) 0.01141 275.0 8.1
301(9) 0.01116 275.0 8.1
281(9) 0.01146 275.1 8.2
273(9) 0.01154 275.1 8.3
268(9) 0.01110 275.1 8.4
288(9) 0.01105 275.2 8.5
279(9) 0.01185 275.2 8.6
279(9) 0.01177 275.2 8.7
288(9) 0.01066 275.2 8.9
283(9) 0.01068 275.3 9.1
288(9) 0.01072 275.3 9.3
284(9) 0.01173 275.3 9.5
290(9) 0.01132 275.4 9.8
285(9) 0.01101 275.4 10.1
308(10) 0.00955 275.4 10.5
280(9) 0.01134 275.4 10.9
267(9) 0.01225 275.5 11.5
304(9) 0.01049 275.5 12.1
278(9) 0.01107 275.5 12.8
288(9) 0.01069 275.6 13.7
280(9) 0.01128 275.6 14.7
304(9) 0.01107 275.6 15.9
253(8) 0.01270 275.6 17.3
275(9) 0.01116 275.7 18.9
274(9) 0.01110 275.7 20.8
297(9) 0.01028 275.7 22.8
305(9) 0.01090 275.8 24.9
277(9) 0.01142 275.8 27.0
285(9) 0.01049 275.8 28.8
275(9) 0.01136 275.8 30.3
300(9) 0.01067 275.9 31.1
297(9) 0.01124 275.9 31.1
303(9) 0.01043 275.9 30.3
299(9) 0.01045 276.0 29.0
292(9) 0.01067 276.0 27.3
293(9) 0.01106 276.0 25.6
303(9) 0.01112 276.0 23.9
317(10) 0.00987 276.1 22.3
318(10) 0.00973 276.1 21.0
293(9) 0.01091 276.1 19.8
300(9) 0.01100 276.2 18.9
266(8) 0.01237 276.2 18.2
278(9) 0.01115 276.2 17.6
295(9) 0.01013 276.2 17.2
305(9) 0.01032 276.3 17.0
279(9) 0.01182 276.3 16.9
281(9) 0.01185 276.3 16.9
300(9) 0.01056 276.4 17.0
285(9) 0.01029 276.4 17.2
286(9) 0.01051 276.4 17.5
300(9) 0.01085 276.4 17.8
281(9) 0.01169 276.5 18.2
255(9) 0.01208 276.5 18.7
304(10) 0.00950 276.5 19.3
302(9) 0.01054 276.5 20.0
293(9) 0.01138 276.6 20.8
308(9) 0.01070 276.6 21.8
303(9) 0.01076 276.6 22.9
298(10) 0.00998 276.7 24.1
296(9) 0.01057 276.7 25.6
304(9) 0.01096 276.7 27.3
316(9) 0.01044 276.7 29.3
300(9) 0.01032 276.8 31.6
314(10) 0.00948 276.8 34.2
326(10) 0.00962 276.8 37.2
304(9) 0.01098 276.9 40.5
326(10) 0.01005 276.9 44.3
316(10) 0.00963 276.9 48.4
318(10) 0.00980 276.9 52.8
322(10) 0.00983 277.0 57.2
341(10) 0.00998 277.0 61.6
326(10) 0.01003 277.0 65.5
350(10) 0.00893 277.1 68.6
327(10) 0.00953 277.1 70.5
333(10) 0.00964 277.1 71.0
323(9) 0.01054 277.1 70.1
331(10) 0.00992 277.2 68.1
313(9) 0.01013 277.2 65.3
314(10) 0.00983 277.2 62.1
323(9) 0.01013 277.3 59.0
331(9) 0.01019 277.3 56.0
319(10) 0.00989 277.3 53.5
336(10) 0.00912 277.3 51.6
340(10) 0.00903 277.4 50.2
330(9) 0.01014 277.4 49.3
325(9) 0.01032 277.4 48.9
304(9) 0.01047 277.5 48.9
310(10) 0.00969 277.5 49.1
303(9) 0.01025 277.5 49.2
326(9) 0.01019 277.5 49.1
316(9) 0.01061 277.6 48.4
317(10) 0.00982 277.6 47.2
305(9) 0.01011 277.6 45.3
331(10) 0.00959 277.7 43.1
313(9) 0.01056 277.7 40.5
313(9) 0.01070 277.7 38.0
326(10) 0.01003 277.7 35.5
283(9) 0.01071 277.8 33.1
311(10) 0.00986 277.8 31.0
290(9) 0.01156 277.8 29.2
313(9) 0.01070 277.9 27.6
299(9) 0.01073 277.9 26.2
306(10) 0.00957 277.9 25.1
317(10) 0.00994 277.9 24.2
308(9) 0.01084 278.0 23.5
332(9) 0.01021 278.0 22.9
287(9) 0.01111 278.0 22.5
305(10) 0.00967 278.0 22.2
302(10) 0.01000 278.1 22.0
308(9) 0.01104 278.1 22.0
265(9) 0.01230 278.1 22.1
282(9) 0.01145 278.2 22.2
301(10) 0.00971 278.2 22.5
279(9) 0.01103 278.2 22.8
307(9) 0.01093 278.2 23.2
311(9) 0.01053 278.3 23.7
286(9) 0.01092 278.3 24.3
285(9) 0.01063 278.3 24.9
290(9) 0.01048 278.4 25.6
282(9) 0.01188 278.4 26.4
304(9) 0.01068 278.4 27.3
338(10) 0.00915 278.4 28.2
304(9) 0.01031 278.5 29.1
306(9) 0.01037 278.5 30.1
314(9) 0.01070 278.5 31.1
311(9) 0.01038 278.6 32.1
282(9) 0.01098 278.6 33.1
303(10) 0.00998 278.6 34.1
285(9) 0.01135 278.6 35.0
298(9) 0.01124 278.7 35.9
274(9) 0.01121 278.7 36.8
305(10) 0.00982 278.7 37.5
316(10) 0.00995 278.8 38.2
307(9) 0.01032 278.8 38.8
361(10) 0.00953 278.8 39.3
289(9) 0.01054 278.8 39.6
284(9) 0.01050 278.9 39.8
292(9) 0.01087 278.9 39.9
317(9) 0.01026 278.9 39.8
304(9) 0.01103 279.0 39.5
269(9) 0.01165 279.0 39.1
314(10) 0.00960 279.0 38.4
333(10) 0.00929 279.0 37.6
310(9) 0.01073 279.1 36.7
307(9) 0.01083 279.1 35.7
314(10) 0.01004 279.1 34.6
331(10) 0.00899 279.2 33.4
326(10) 0.00959 279.2 32.1
297(9) 0.01083 279.2 30.9
307(9) 0.01096 279.2 29.6
297(9) 0.01078 279.3 28.4
284(9) 0.01035 279.3 27.2
314(10) 0.00982 279.3 26.1
313(9) 0.01064 279.4 25.0
284(9) 0.01180 279.4 24.0
318(10) 0.00986 279.4 23.1
294(10) 0.00947 279.4 22.2
281(9) 0.01087 279.5 21.4
294(9) 0.01136 279.5 20.6
294(9) 0.01134 279.5 20.0
282(9) 0.01103 279.5 19.4
308(10) 0.00960 279.6 18.8
296(9) 0.01071 279.6 18.3
282(9) 0.01167 279.6 17.9
273(9) 0.01186 279.7 17.5
304(10) 0.00999 279.7 17.2
297(9) 0.01040 279.7 16.9
297(9) 0.01048 279.7 16.7
305(9) 0.01098 279.8 16.5
286(9) 0.01167 279.8 16.3
300(9) 0.01042 279.8 16.2
273(9) 0.01124 279.9 16.1
279(9) 0.01085 279.9 16.0
279(9) 0.01191 279.9 15.9
260(8) 0.01242 279.9 15.8
271(9) 0.01184 280.0 15.7
275(9) 0.01159 280.0 15.7
282(9) 0.01090 280.0 15.6
316(9) 0.01070 280.1 15.6
302(9) 0.01011 280.1 15.5
301(9) 0.01012 280.1 15.5
302(9) 0.01017 280.1 15.6
298(9) 0.01101 280.2 15.6
317(9) 0.01059 280.2 15.7
304(10) 0.00993 280.2 15.9
308(10) 0.00988 280.3 16.1
300(9) 0.01021 280.3 16.4
297(9) 0.01096 280.3 16.8
309(9) 0.01076 280.3 17.3
301(10) 0.00988 280.4 17.9
288(9) 0.01042 280.4 18.7
306(10) 0.01002 280.4 19.6
278(9) 0.01184 280.5 20.6
291(9) 0.01158 280.5 21.8
294(9) 0.01089 280.5 23.2
327(10) 0.00912 280.5 24.7
296(9) 0.01097 280.6 26.5
310(9) 0.01068 280.6 28.4
306(9) 0.01103 280.6 30.4
305(9) 0.01014 280.7 32.6
310(10) 0.00963 280.7 34.8
369(10) 0.00839 280.7 36.9
316(9) 0.01044 280.7 38.9
332(9) 0.01021 280.8 40.5
352(10) 0.00873 280.8 41.6
329(10) 0.00888 280.8 42.2
318(9) 0.01013 280.9 42.0
312(9) 0.01078 280.9 41.2
303(9) 0.01091 280.9 39.9
324(10) 0.00977 280.9 38.1
313(10) 0.00958 281.0 36.0
326(10) 0.00979 281.0 33.8
291(9) 0.01149 281.0 31.6
303(9) 0.01058 281.0 29.5
291(9) 0.01100 281.1 27.5
319(10) 0.00957 281.1 25.7
303(10) 0.01000 281.1 24.0
305(9) 0.01092 281.2 22.5
293(9) 0.01121 281.2 21.2
281(9) 0.01102 281.2 20.1
288(9) 0.01037 281.2 19.1
300(9) 0.01032 281.3 18.3
291(9) 0.01140 281.3 17.6
330(10) 0.00973 281.3 17.1
278(9) 0.01132 281.4 16.6
291(9) 0.01052 281.4 16.3
308(9) 0.01029 281.4 16.1
315(9) 0.01074 281.4 16.0
286(9) 0.01095 281.5 16.0
301(10) 0.00994 281.5 16.1
276(9) 0.01084 281.5 16.2
288(9) 0.01082 281.6 16.5
282(9) 0.01179 281.6 16.9
320(10) 0.00983 281.6 17.3
286(9) 0.01097 281.6 17.9
309(9) 0.01018 281.7 18.5
323(10) 0.00985 281.7 19.3
294(9) 0.01138 281.7 20.2
301(9) 0.01085 281.8 21.2
315(10) 0.00982 281.8 22.4
288(9) 0.01096 281.8 23.6
325(10) 0.00989 281.8 25.1
290(9) 0.01161 281.9 26.6
295(9) 0.01108 281.9 28.3
327(10) 0.00910 281.9 30.1
313(10) 0.00987 282.0 32.1
323(10) 0.01005 282.0 34.1
302(9) 0.01109 282.0 36.2
316(10) 0.00988 282.0 38.3
318(10) 0.00933 282.1 40.3
322(10) 0.00983 282.1 42.2
314(9) 0.01073 282.1 43.8
310(9) 0.01055 282.2 45.2
303(9) 0.01057 282.2 46.1
330(10) 0.00925 282.2 46.6
325(9) 0.01010 282.2 46.5
318(9) 0.01053 282.3 46.0
331(9) 0.01017 282.3 45.0
309(9) 0.01057 282.3 43.5
348(10) 0.00848 282.4 41.8
292(9) 0.01115 282.4 39.8
319(9) 0.01054 282.4 37.7
327(9) 0.01026 282.4 35.6
314(9) 0.01019 282.5 33.4
314(10) 0.00992 282.5 31.3
315(10) 0.00987 282.5 29.3
313(9) 0.01077 282.5 27.5
299(9) 0.01073 282.6 25.7
273(9) 0.01181 282.6 24.1
273(9) 0.01106 282.6 22.6
316(10) 0.00956 282.7 21.3
301(9) 0.01107 282.7 20.1
281(9) 0.01122 282.7 19.0
277(9) 0.01127 282.7 18.0
282(9) 0.01053 282.8 17.2
287(9) 0.01049 282.8 16.4
286(9) 0.01166 282.8 15.8
284(9) 0.01128 282.9 15.3
288(9) 0.01088 282.9 14.8
278(9) 0.01094 282.9 14.5
304(9) 0.01018 282.9 14.2
282(9) 0.01184 283.0 14.0
273(9) 0.01135 283.0 13.9
290(9) 0.01038 283.0 13.9
291(9) 0.01061 283.1 13.9
271(9) 0.01160 283.1 14.0
278(9) 0.01191 283.1 14.2
302(9) 0.01047 283.1 14.4
289(9) 0.01063 283.2 14.7
285(9) 0.01101 283.2 15.0
296(9) 0.01089 283.2 15.4
306(9) 0.01091 283.3 15.8
289(9) 0.01075 283.3 16.2
288(9) 0.01014 283.3 16.6
278(9) 0.01115 283.3 16.9
300(9) 0.01103 283.4 17.2
295(9) 0.01125 283.4 17.3
275(9) 0.01138 283.4 17.4
318(10) 0.00912 283.5 17.3
275(9) 0.01172 283.5 17.0
275(9) 0.01204 283.5 16.6
264(8) 0.01271 283.5 16.2
287(9) 0.01078 283.6 15.6
290(10) 0.00987 283.6 15.0
300(9) 0.01012 283.6 14.4
282(9) 0.01166 283.7 13.8
294(9) 0.01109 283.7 13.2
310(9) 0.01020 283.7 12.6
291(9) 0.01036 283.7 12.1
287(9) 0.01128 283.8 11.6
283(9) 0.01178 283.8 11.2
299(9) 0.01116 283.8 10.8
281(9) 0.01133 283.9 10.4
295(9) 0.01037 283.9 10.1
279(9) 0.01129 283.9 9.9
286(9) 0.01165 283.9 9.7
270(9) 0.01193 284.0 9.5
278(9) 0.01150 284.0 9.3
300(9) 0.01029 284.0 9.2
306(9) 0.01016 284.0 9.1
297(9) 0.01128 284.1 9.1
302(9) 0.01071 284.1 9.1
285(9) 0.01068 284.1 9.1
285(9) 0.01054 284.2 9.1
297(9) 0.01045 284.2 9.2
279(9) 0.01198 284.2 9.4
272(9) 0.01200 284.2 9.5
285(9) 0.01127 284.3 9.8
294(9) 0.01065 284.3 10.0
295(9) 0.01069 284.3 10.4
307(9) 0.01093 284.3 10.8
284(9) 0.01095 284.3 11.2
290(9) 0.01042 284.4 11.8
285(9) 0.01092 284.4 12.4
288(9) 0.01119 284.4 13.1
300(9) 0.01122 284.4 13.9
328(10) 0.00940 284.4 14.8
295(9) 0.01043 284.4 15.8
299(9) 0.01071 284.4 16.9
293(9) 0.01121 284.5 18.1
284(9) 0.01183 284.5 19.3
283(9) 0.01073 284.5 20.6
298(10) 0.00999 284.5 21.8
297(9) 0.01050 284.5 23.0
302(9) 0.01071 284.5 23.9
313(9) 0.01072 284.6 24.6
294(9) 0.01080 284.6 24.9
291(10) 0.00976 284.6 24.9
272(9) 0.01147 284.6 24.6
295(9) 0.01124 284.6 23.9
304(9) 0.01103 284.6 23.0
288(9) 0.01055 284.7 22.0
290(10) 0.00998 284.7 21.0
289(9) 0.01072 284.7 19.9
286(9) 0.01129 284.7 19.0
292(9) 0.01148 284.7 18.1
289(9) 0.01117 284.7 17.3
281(9) 0.01055 284.7 16.6
289(9) 0.01084 284.8 16.0
307(9) 0.01095 284.8 15.6
312(9) 0.01031 284.8 15.2
284(9) 0.01115 284.8 14.9
305(10) 0.00956 284.8 14.8
296(9) 0.01042 284.8 14.7
300(9) 0.01121 284.9 14.7
289(9) 0.01109 284.9 14.8
294(9) 0.01030 284.9 14.9
298(10) 0.01002 284.9 15.1
279(9) 0.01119 284.9 15.4
314(9) 0.01074 284.9 15.8
312(9) 0.01021 284.9 16.2
302(9) 0.01033 285.0 16.6
299(9) 0.01017 285.0 17.1
274(9) 0.01115 285.0 17.7
272(9) 0.01226 285.0 18.3
285(9) 0.01105 285.0 19.0
303(10) 0.00982 285.0 19.7
297(10) 0.01004 285.1 20.4
302(9) 0.01053 285.1 21.2
299(9) 0.01116 285.1 22.0
295(9) 0.01087 285.1 22.9
314(10) 0.00972 285.1 23.8
302(9) 0.01037 285.1 24.7
313(9) 0.01028 285.2 25.6
319(9) 0.01054 285.2 26.6
327(10) 0.00949 285.2 27.5
293(9) 0.01078 285.2 28.4
288(9) 0.01087 285.2 29.2
309(9) 0.01056 285.2 30.0
336(10) 0.01001 285.2 30.7
327(10) 0.00970 285.3 31.3
277(9) 0.01094 285.3 31.8
279(9) 0.01127 285.3 32.2
314(9) 0.01049 285.3 32.5
337(10) 0.00988 285.3 32.6
328(10) 0.00958 285.3 32.5
312(10) 0.00968 285.4 32.3
301(9) 0.01026 285.4 32.0
293(9) 0.01108 285.4 31.5
316(9) 0.01063 285.4 30.9
312(9) 0.01013 285.4 30.2
326(10) 0.00873 285.4 29.5
291(9) 0.01070 285.4 28.6
282(9) 0.01146 285.5 27.7
288(9) 0.01152 285.5 26.7
327(10) 0.00916 285.5 25.8
329(10) 0.00892 285.5 24.8
335(10) 0.00955 285.5 23.8
327(9) 0.01019 285.5 22.8
296(9) 0.01109 285.6 21.9
308(10) 0.00989 285.6 21.0
288(9) 0.01053 285.6 20.1
294(9) 0.01060 285.6 19.2
284(9) 0.01161 285.6 18.4
275(9) 0.01196 285.6 17.6
319(10) 0.00966 285.7 16.8
306(10) 0.00974 285.7 16.1
310(10) 0.01004 285.7 15.4
296(9) 0.01125 285.7 14.8
286(9) 0.01131 285.7 14.2
289(9) 0.01093 285.7 13.7
316(10) 0.00963 285.7 13.1
304(10) 0.01001 285.8 12.6
311(9) 0.01085 285.8 12.2
291(9) 0.01126 285.8 11.7
280(9) 0.01102 285.8 11.3
284(9) 0.01071 285.8 11.0
277(9) 0.01140 285.8 10.6
271(9) 0.01203 285.9 10.3
288(9) 0.01112 285.9 10.0
330(10) 0.00932 285.9 9.7
300(10) 0.01005 285.9 9.5
283(9) 0.01135 285.9 9.2
289(9) 0.01150 285.9 9.0
306(9) 0.01051 285.9 8.8
272(9) 0.01147 286.0 8.6
283(9) 0.01059 286.0 8.5
300(9) 0.01077 286.0 8.3
280(9) 0.01183 286.0 8.2
271(9) 0.01159 286.0 8.0
268(9) 0.01164 286.0 7.9
259(9) 0.01219 286.1 7.8
297(9) 0.01111 286.1 7.7
283(9) 0.01180 286.1 7.6
311(9) 0.01022 286.1 7.6
307(10) 0.00997 286.1 7.5
300(9) 0.01059 286.1 7.4
291(9) 0.01120 286.1 7.4
303(9) 0.01103 286.2 7.3
302(9) 0.01039 286.2 7.3
335(10) 0.00876 286.2 7.3
295(9) 0.01074 286.2 7.2
307(9) 0.01094 286.2 7.2
296(9) 0.01136 286.2 7.1
286(9) 0.01081 286.3 7.1
270(9) 0.01063 286.3 7.1
293(9) 0.01060 286.3 7.1
325(10) 0.01007 286.3 7.0
284(9) 0.01177 286.3 7.0
304(10) 0.00998 286.3 6.9
304(10) 0.00982 286.4 6.9
285(9) 0.01106 286.4 6.9
298(9) 0.01120 286.4 6.8
299(9) 0.01104 286.4 6.8
315(10) 0.00970 286.4 6.7
291(9) 0.01031 286.4 6.7
320(10) 0.00967 286.4 6.6
295(9) 0.01125 286.5 6.6
287(9) 0.01142 286.5 6.5
272(9) 0.01146 286.5 6.4
310(10) 0.00958 286.5 6.4
307(9) 0.01014 286.5 6.3
311(9) 0.01075 286.5 6.3
305(9) 0.01069 286.6 6.2
298(9) 0.01064 286.6 6.1
298(9) 0.01044 286.6 6.1
305(9) 0.01041 286.6 6.0
281(9) 0.01183 286.6 5.9
300(9) 0.01086 286.6 5.9
283(9) 0.01119 286.6 5.8
283(9) 0.01111 286.7 5.8
283(9) 0.01156 286.7 5.7
296(9) 0.01129 286.7 5.7
314(9) 0.01022 286.7 5.6
300(9) 0.01025 286.7 5.6
283(9) 0.01077 286.7 5.5
281(9) 0.01149 286.8 5.5
273(9) 0.01214 286.8 5.5
307(9) 0.01029 286.8 5.4
315(10) 0.00970 286.8 5.4
289(9) 0.01068 286.8 5.4
277(9) 0.01166 286.8 5.4
286(9) 0.01155 286.9 5.4
291(9) 0.01064 286.9 5.4
280(9) 0.01036 286.9 5.4
267(9) 0.01176 286.9 5.4
288(9) 0.01149 286.9 5.4
286(9) 0.01140 286.9 5.4
298(9) 0.01097 286.9 5.5
301(9) 0.01024 287.0 5.5
294(9) 0.01087 287.0 5.5
295(9) 0.01138 287.0 5.6
298(9) 0.01105 287.0 5.7
267(9) 0.01191 287.0 5.7
318(10) 0.00914 287.0 5.8
302(9) 0.01068 287.1 5.9
300(9) 0.01110 287.1 6.0
285(9) 0.01180 287.1 6.2
305(9) 0.01021 287.1 6.3
295(10) 0.00989 287.1 6.5
278(9) 0.01152 287.1 6.6
304(9) 0.01097 287.1 6.9
289(9) 0.01133 287.2 7.1
287(9) 0.01125 287.2 7.4
305(10) 0.00965 287.2 7.7
297(9) 0.01043 287.2 8.1
321(9) 0.01054 287.2 8.5
305(9) 0.01060 287.2 9.0
282(9) 0.01118 287.3 9.5
318(10) 0.00979 287.3 10.2
290(9) 0.01080 287.3 10.9
304(9) 0.01108 287.3 11.7
307(9) 0.01076 287.3 12.7
302(9) 0.01074 287.3 13.7
292(9) 0.01063 287.4 14.9
296(9) 0.01049 287.4 16.2
287(9) 0.01165 287.4 17.6
301(9) 0.01071 287.4 19.2
295(9) 0.01072 287.4 20.8
318(10) 0.00985 287.4 22.4
310(9) 0.01053 287.4 24.1
298(9) 0.01117 287.5 25.6
332(10) 0.00993 287.5 26.9
317(9) 0.01022 287.5 27.8
318(10) 0.00997 287.5 28.4
336(10) 0.00978 287.5 28.6
337(10) 0.00998 287.5 28.2
320(10) 0.01007 287.6 27.5
293(9) 0.01061 287.6 26.3
327(10) 0.00938 287.6 25.0
303(9) 0.01109 287.6 23.4
290(9) 0.01143 287.6 21.8
300(9) 0.01017 287.6 20.2
311(10) 0.00940 287.6 18.7
297(9) 0.01069 287.7 17.3
312(9) 0.01063 287.7 15.9
301(9) 0.01108 287.7 14.7
300(9) 0.01051 287.7 13.6
297(9) 0.01019 287.7 12.7
312(10) 0.00995 287.7 11.8
307(9) 0.01069 287.8 11.1
314(9) 0.01076 287.8 10.4
292(9) 0.01055 287.8 9.8
306(10) 0.00965 287.8 9.3
313(10) 0.00993 287.8 8.9
261(8) 0.01263 287.8 8.5
276(9) 0.01197 287.8 8.2
306(9) 0.01057 287.9 8.0
283(9) 0.01071 287.9 7.7
285(9) 0.01095 287.9 7.5
302(9) 0.01118 287.9 7.3
277(9) 0.01175 287.9 7.2
275(9) 0.01146 287.9 7.1
302(9) 0.01025 288.0 7.0
284(9) 0.01114 288.0 6.9
287(9) 0.01155 288.0 6.8
286(9) 0.01125 288.0 6.8
330(10) 0.00931 288.0 6.7
306(10) 0.00956 288.0 6.7
307(9) 0.01021 288.1 6.6
305(9) 0.01090 288.1 6.6
298(9) 0.01071 288.1 6.6
295(9) 0.01066 288.1 6.6
285(9) 0.01058 288.1 6.6
296(9) 0.01042 288.1 6.6
321(9) 0.01043 288.1 6.7
301(9) 0.01073 288.2 6.7
324(10) 0.00932 288.2 6.7
297(9) 0.01027 288.2 6.8
287(9) 0.01096 288.2 6.8
275(9) 0.01205 288.2 6.9
309(9) 0.01033 288.2 6.9
322(10) 0.00972 288.3 7.0
314(10) 0.01001 288.3 7.1
299(9) 0.01075 288.3 7.1
306(9) 0.01097 288.3 7.2
296(9) 0.01058 288.3 7.3
298(9) 0.01039 288.3 7.4
305(9) 0.01073 288.3 7.5
311(9) 0.01051 288.4 7.6
315(9) 0.01060 288.4 7.7
280(9) 0.01131 288.4 7.9
308(10) 0.00952 288.4 8.0
297(9) 0.01084 288.4 8.1
294(9) 0.01127 288.4 8.3
292(9) 0.01147 288.5 8.4
289(9) 0.01114 288.5 8.6
307(10) 0.00966 288.5 8.8
301(9) 0.01037 288.5 9.0
303(9) 0.01083 288.5 9.2
310(9) 0.01085 288.5 9.4
313(10) 0.01005 288.6 9.6
308(10) 0.00983 288.6 9.9
315(10) 0.00961 288.6 10.1
301(9) 0.01094 288.6 10.4
308(9) 0.01072 288.6 10.7
321(10) 0.00957 288.6 11.1
321(10) 0.00904 288.6 11.5
314(9) 0.01012 288.7 11.9
315(9) 0.01056 288.7 12.3
292(9) 0.01135 288.7 12.8
331(10) 0.00945 288.7 13.4
276(9) 0.01107 288.7 14.0
316(10) 0.00959 288.7 14.7
317(9) 0.01072 288.8 15.5
318(9) 0.01027 288.8 16.4
347(10) 0.00900 288.8 17.4
340(10) 0.00882 288.8 18.6
323(10) 0.00985 288.8 19.8
346(10) 0.00976 288.8 21.3
345(10) 0.00953 288.8 22.9
328(10) 0.00977 288.9 24.6
310(9) 0.01013 288.9 26.6
354(10) 0.00897 288.9 28.7
349(10) 0.00970 288.9 30.9
352(10) 0.00932 288.9 33.3
360(10) 0.00842 288.9 35.7
330(10) 0.00943 289.0 38.0
330(10) 0.00967 289.0 40.1
347(10) 0.00980 289.0 41.8
364(10) 0.00882 289.0 43.1
380(11) 0.00820 289.0 43.7
385(11) 0.00814 289.0 43.6
362(10) 0.00932 289.1 43.0
335(10) 0.01003 289.1 41.9
364(10) 0.00869 289.1 40.5
340(10) 0.00898 289.1 38.9
330(10) 0.00916 289.1 37.3
347(10) 0.00965 289.1 35.8
342(10) 0.00980 289.1 34.4
347(10) 0.00915 289.2 33.2
333(10) 0.00926 289.2 32.2
330(10) 0.00930 289.2 31.4
338(10) 0.00970 289.2 30.9
327(9) 0.01036 289.2 30.5
325(10) 0.00950 289.2 30.4
319(10) 0.00936 289.3 30.5
360(10) 0.00867 289.3 30.8
345(10) 0.00979 289.3 31.3
325(9) 0.01028 289.3 32.1
345(10) 0.00900 289.3 33.0
353(11) 0.00837 289.3 34.2
341(10) 0.00939 289.3 35.5
325(9) 0.01024 289.4 37.1
349(10) 0.00959 289.4 38.9
369(11) 0.00838 289.4 40.9
369(11) 0.00795 289.4 43.0
377(11) 0.00832 289.4 45.4
354(10) 0.00961 289.4 47.8
346(10) 0.00961 289.5 50.3
339(10) 0.00969 289.5 52.7
361(11) 0.00838 289.5 55.0
370(10) 0.00870 289.5 56.9
382(10) 0.00891 289.5 58.4
357(10) 0.00929 289.5 59.2
368(10) 0.00869 289.5 59.4
373(11) 0.00809 289.6 58.8
350(10) 0.00933 289.6 57.6
377(10) 0.00900 289.6 55.7
352(10) 0.00943 289.6 53.5
380(11) 0.00832 289.6 50.9
353(10) 0.00894 289.6 48.2
361(10) 0.00896 289.7 45.4
330(9) 0.01020 289.7 42.8
326(9) 0.01033 289.7 40.2
342(10) 0.00936 289.7 37.7
312(10) 0.00980 289.7 35.5
322(10) 0.00972 289.7 33.4
334(9) 0.01018 289.8 31.5
307(9) 0.01008 289.8 29.8
328(10) 0.00920 289.8 28.2
319(10) 0.00992 289.8 26.8
302(9) 0.01079 289.8 25.5
299(9) 0.01110 289.8 24.3
356(10) 0.00885 289.8 23.3
335(10) 0.00921 289.9 22.4
319(10) 0.00958 289.9 21.5
313(9) 0.01046 289.9 20.8
284(9) 0.01163 289.9 20.1
273(9) 0.01173 289.9 19.5
295(9) 0.01048 289.9 18.9
298(9) 0.01039 290.0 18.4
311(9) 0.01035 290.0 17.9
289(9) 0.01165 290.0 17.5
294(9) 0.01072 290.0 17.1
291(9) 0.01035 290.0 16.7
319(10) 0.00977 290.0 16.4
302(9) 0.01075 290.0 16.1
287(9) 0.01166 290.1 15.8
319(10) 0.00967 290.1 15.5
338(10) 0.00898 290.1 15.3
304(9) 0.01067 290.1 15.1
304(9) 0.01092 290.1 14.9
308(9) 0.01084 290.1 14.7
323(10) 0.00962 290.2 14.6
299(9) 0.01020 290.2 14.4
338(10) 0.00992 290.2 14.3
332(9) 0.01015 290.2 14.2
297(9) 0.01133 290.2 14.1
306(10) 0.01000 290.2 14.0
290(10) 0.01001 290.3 13.9
308(9) 0.01041 290.3 13.9
302(9) 0.01117 290.3 13.9
307(9) 0.01087 290.3 13.9
304(9) 0.01038 290.3 13.9
288(9) 0.01018 290.3 13.9
316(10) 0.00966 290.3 13.9
301(9) 0.01105 290.4 14.0
306(9) 0.01069 290.4 14.0
294(9) 0.01032 290.4 14.1
299(9) 0.01012 290.4 14.2
299(9) 0.01046 290.4 14.3
292(9) 0.01132 290.4 14.5
304(9) 0.01071 290.5 14.6
290(9) 0.01056 290.5 14.8
326(10) 0.00896 290.5 15.0
289(9) 0.01102 290.5 15.2
328(9) 0.01022 290.5 15.5
289(9) 0.01140 290.5 15.8
306(10) 0.00999 290.5 16.1
330(10) 0.00920 290.6 16.4
334(10) 0.00940 290.6 16.7
323(9) 0.01042 290.6 17.1
319(9) 0.01026 290.6 17.5
315(10) 0.00981 290.6 17.9
305(9) 0.01010 290.6 18.4
301(9) 0.01072 290.7 18.9
303(9) 0.01096 290.7 19.4
326(10) 0.00945 290.7 19.9
279(9) 0.01099 290.7 20.5
340(10) 0.00892 290.7 21.0
308(9) 0.01061 290.7 21.6
308(9) 0.01084 290.8 22.2
291(9) 0.01063 290.8 22.8
293(9) 0.01032 290.8 23.4
312(10) 0.00995 290.8 24.0
322(9) 0.01032 290.8 24.6
348(10) 0.00975 290.8 25.1
325(10) 0.00942 290.8 25.7
322(10) 0.00922 290.9 26.2
310(9) 0.01042 290.9 26.7
341(10) 0.00983 290.9 27.2
321(9) 0.01058 290.9 27.6
317(10) 0.00996 290.9 28.1
325(10) 0.00888 290.9 28.5
296(9) 0.01098 291.0 28.9
289(9) 0.01139 291.0 29.3
313(9) 0.01045 291.0 29.7
324(10) 0.00930 291.0 30.1
305(10) 0.00973 291.0 30.5
308(9) 0.01042 291.0 30.9
312(9) 0.01080 291.0 31.2
317(9) 0.01030 291.1 31.6
302(9) 0.01088 291.1 31.9
321(10) 0.00951 291.1 32.2
308(9) 0.01062 291.1 32.5
312(9) 0.01070 291.1 32.7
315(9) 0.01043 291.1 32.9
310(9) 0.01036 291.2 33.0
298(9) 0.01027 291.2 33.1
317(10) 0.00955 291.2 33.1
303(9) 0.01102 291.2 33.1
302(9) 0.01070 291.2 33.1
313(10) 0.00973 291.2 33.0
309(9) 0.01017 291.2 32.9
303(9) 0.01039 291.3 32.7
314(9) 0.01069 291.3 32.5
330(10) 0.00998 291.3 32.3
312(9) 0.01026 291.3 32.1
327(10) 0.00936 291.3 31.9
320(10) 0.01003 291.3 31.6
319(9) 0.01057 291.4 31.4
306(9) 0.01058 291.4 31.2
299(9) 0.01053 291.4 31.0
319(10) 0.00983 291.4 30.8
305(9) 0.01066 291.4 30.6
313(9) 0.01078 291.4 30.4
328(10) 0.00956 291.5 30.3
333(10) 0.00909 291.5 30.2
343(10) 0.00945 291.5 30.1
352(10) 0.00924 291.5 30.1
316(9) 0.01076 291.5 30.1
339(10) 0.00938 291.5 30.1
342(10) 0.00927 291.5 30.2
327(10) 0.00995 291.6 30.3
344(10) 0.00950 291.6 30.4
327(9) 0.01042 291.6 30.6
319(10) 0.00994 291.6 30.7
339(10) 0.00900 291.6 31.0
321(9) 0.01017 291.6 31.2
352(10) 0.00948 291.7 31.6
310(9) 0.01086 291.7 31.9
331(10) 0.00979 291.7 32.3
337(10) 0.00867 291.7 32.7
320(10) 0.00979 291.7 33.2
348(10) 0.00973 291.7 33.8
308(9) 0.01090 291.7 34.4
332(10) 0.00966 291.8 35.0
324(10) 0.00935 291.8 35.8
362(10) 0.00902 291.8 36.6
337(9) 0.01014 291.8 37.5
369(10) 0.00918 291.8 38.5
356(10) 0.00908 291.8 39.6
353(10) 0.00858 291.9 40.8
357(10) 0.00891 291.9 42.2
357(10) 0.00954 291.9 43.6
325(9) 0.01009 291.9 45.2
322(10) 0.00978 291.9 46.9
357(11) 0.00819 291.9 48.6
309(9) 0.01044 292.0 50.5
343(10) 0.00988 292.0 52.3
343(10) 0.00952 292.0 54.1
363(10) 0.00859 292.0 55.8
353(10) 0.00878 292.0 57.3
351(10) 0.00913 292.0 58.5
332(9) 0.01013 292.0 59.2
361(10) 0.00907 292.1 59.4
328(10) 0.00984 292.1 59.1
343(10) 0.00908 292.1 58.2
325(10) 0.00996 292.1 56.9
329(9) 0.01032 292.1 55.1
339(10) 0.00954 292.1 52.9
350(10) 0.00911 292.2 50.6
342(10) 0.00909 292.2 48.1
345(10) 0.00942 292.2 45.6
340(10) 0.00983 292.2 43.1
366(10) 0.00885 292.2 40.7
338(10) 0.00929 292.2 38.4
333(10) 0.00936 292.2 36.2
333(10) 0.00982 292.3 34.2
331(9) 0.01022 292.3 32.3
339(10) 0.00935 292.3 30.6
328(10) 0.00936 292.3 29.0
331(10) 0.00968 292.3 27.6
333(10) 0.01004 292.3 26.3
317(9) 0.01067 292.4 25.1
312(9) 0.01022 292.4 24.0
314(10) 0.00971 292.4 23.0
321(10) 0.00993 292.4 22.0
329(9) 0.01013 292.4 21.2
336(10) 0.01004 292.4 20.5
311(9) 0.01021 292.5 19.8
322(10) 0.00947 292.5 19.1
310(9) 0.01045 292.5 18.6
320(9) 0.01047 292.5 18.0
290(9) 0.01146 292.5 17.5
325(10) 0.00981 292.5 17.1
305(10) 0.00938 292.5 16.7
305(9) 0.01016 292.6 16.3
339(10) 0.00992 292.6 15.9
317(9) 0.01047 292.6 15.6
300(10) 0.01005 292.6 15.3
319(10) 0.00922 292.6 15.0
292(9) 0.01096 292.6 14.8
302(9) 0.01111 292.7 14.5
306(9) 0.01074 292.7 14.3
306(9) 0.01023 292.7 14.1
294(10) 0.00982 292.7 13.9
297(9) 0.01040 292.7 13.7
301(9) 0.01124 292.7 13.5
323(9) 0.01028 292.7 13.4
300(9) 0.01020 292.8 13.2
273(9) 0.01137 292.8 13.1
306(9) 0.01038 292.8 13.0
312(9) 0.01080 292.8 12.9
323(10) 0.00998 292.8 12.8
320(10) 0.00966 292.8 12.7
324(10) 0.00950 292.9 12.6
304(9) 0.01065 292.9 12.5
303(9) 0.01097 292.9 12.5
318(9) 0.01023 292.9 12.4
284(9) 0.01122 292.9 12.3
302(9) 0.01030 292.9 12.3
316(9) 0.01046 292.9 12.3
319(9) 0.01058 293.0 12.2
316(9) 0.01011 293.0 12.2
314(10) 0.01004 293.0 12.2
292(9) 0.01102 293.0 12.2
307(9) 0.01040 293.0 12.2
333(9) 0.01018 293.0 12.2
317(10) 0.00967 293.1 12.2
300(9) 0.01050 293.1 12.2
318(10) 0.00999 293.1 12.2
318(9) 0.01030 293.1 12.2
302(9) 0.01107 293.1 12.3
316(9) 0.01016 293.1 12.3
308(10) 0.00983 293.2 12.4
321(10) 0.00961 293.2 12.4
323(10) 0.01005 293.2 12.5
312(9) 0.01086 293.2 12.6
304(9) 0.01035 293.2 12.6
284(9) 0.01036 293.2 12.7
308(10) 0.00977 293.2 12.8
337(10) 0.00969 293.3 12.9
320(9) 0.01032 293.3 13.1
292(9) 0.01097 293.3 13.2
296(9) 0.01026 293.3 13.3
316(9) 0.01009 293.3 13.5
342(10) 0.00989 293.3 13.7
326(9) 0.01015 293.4 13.9
304(9) 0.01022 293.4 14.1
313(10) 0.00926 293.4 14.3
303(9) 0.01038 293.4 14.5
335(10) 0.00992 293.4 14.7
316(9) 0.01052 293.4 15.0
352(10) 0.00864 293.4 15.3
309(10) 0.00980 293.5 15.5
327(10) 0.00947 293.5 15.8
292(9) 0.01137 293.5 16.1
329(10) 0.01002 293.5 16.4
341(10) 0.00928 293.5 16.6
332(10) 0.00935 293.5 16.9
329(10) 0.00969 293.6 17.1
320(9) 0.01042 293.6 17.2
346(10) 0.00954 293.6 17.4
320(10) 0.00977 293.6 17.4
309(10) 0.01000 293.6 17.4
341(10) 0.00934 293.6 17.3
328(9) 0.01041 293.7 17.2
345(10) 0.00935 293.7 17.0
316(9) 0.01016 293.7 16.7
324(10) 0.00980 293.7 16.4
314(9) 0.01017 293.7 16.0
321(9) 0.01042 293.7 15.6
313(9) 0.01035 293.7 15.2
310(10) 0.00985 293.8 14.8
295(9) 0.01051 293.8 14.3
325(10) 0.00995 293.8 13.9
309(9) 0.01093 293.8 13.4
303(9) 0.01042 293.8 13.0
301(9) 0.01028 293.8 12.6
298(9) 0.01071 293.9 12.2
328(10) 0.00994 293.9 11.8
306(9) 0.01081 293.9 11.4
314(9) 0.01015 293.9 11.1
315(10) 0.00959 293.9 10.7
283(9) 0.01102 293.9 10.4
312(9) 0.01066 293.9 10.1
323(9) 0.01035 294.0 9.8
315(9) 0.01024 294.0 9.6
323(10) 0.00916 294.0 9.3
294(9) 0.01061 294.0 9.1
310(9) 0.01068 294.0 8.9
304(9) 0.01103 294.0 8.6
296(9) 0.01080 294.1 8.4
302(10) 0.00964 294.1 8.3
300(9) 0.01026 294.1 8.1
296(9) 0.01118 294.1 7.9
311(9) 0.01085 294.1 7.8
314(10) 0.00985 294.1 7.6
314(10) 0.00952 294.2 7.5
312(9) 0.01025 294.2 7.4
311(9) 0.01066 294.2 7.2
307(9) 0.01080 294.2 7.1
300(9) 0.01075 294.2 7.0
309(10) 0.00936 294.2 6.9
314(10) 0.00982 294.2 6.8
288(9) 0.01157 294.3 6.7
293(9) 0.01126 294.3 6.6
313(9) 0.01029 294.3 6.5
305(10) 0.00978 294.3 6.5
299(9) 0.01053 294.3 6.4
295(9) 0.01120 294.3 6.3
294(9) 0.01105 294.4 6.3
306(9) 0.01029 294.4 6.2
323(10) 0.00913 294.4 6.1
313(10) 0.00972 294.4 6.1
270(9) 0.01230 294.4 6.1
282(9) 0.01116 294.4 6.0
279(9) 0.01134 294.4 6.0
295(9) 0.01016 294.5 5.9
303(9) 0.01038 294.5 5.9
325(9) 0.01038 294.5 5.9
289(9) 0.01102 294.5 5.9
301(9) 0.01069 294.5 5.8
297(9) 0.01045 294.5 5.8
306(9) 0.01028 294.6 5.8
285(9) 0.01176 294.6 5.8
296(9) 0.01040 294.6 5.7
271(9) 0.01106 294.6 5.7
290(9) 0.01080 294.6 5.7
305(9) 0.01101 294.6 5.7
320(9) 0.01035 294.7 5.6
284(9) 0.01111 294.7 5.6
317(10) 0.00958 294.7 5.6
326(10) 0.00958 294.7 5.6
312(9) 0.01066 294.7 5.6
319(9) 0.01048 294.7 5.5
297(9) 0.01033 294.7 5.5
302(10) 0.00954 294.8 5.5
307(9) 0.01023 294.8 5.5
280(9) 0.01182 294.8 5.5
309(9) 0.01075 294.8 5.5
297(9) 0.01059 294.8 5.5
309(10) 0.00951 294.8 5.5
290(9) 0.01080 294.9 5.5
306(9) 0.01072 294.9 5.6
289(9) 0.01164 294.9 5.6
299(9) 0.01032 294.9 5.6
322(10) 0.00938 294.9 5.6
329(10) 0.00969 294.9 5.6
306(9) 0.01096 294.9 5.7
310(9) 0.01073 295.0 5.7
309(9) 0.01052 295.0 5.7
297(9) 0.01016 295.0 5.8
302(9) 0.01023 295.0 5.8
318(9) 0.01058 295.0 5.9
312(9) 0.01065 295.0 5.9
276(9) 0.01176 295.1 6.0
303(10) 0.00984 295.1 6.0
296(9) 0.01083 295.1 6.1
303(9) 0.01092 295.1 6.1
313(9) 0.01048 295.1 6.2
286(9) 0.01109 295.1 6.2
308(10) 0.00941 295.1 6.3
280(9) 0.01093 295.2 6.3
298(9) 0.01120 295.2 6.4
317(9) 0.01050 295.2 6.5
299(9) 0.01045 295.2 6.5
303(10) 0.01002 295.2 6.6
278(9) 0.01157 295.2 6.6
302(9) 0.01114 295.3 6.6
297(9) 0.01100 295.3 6.7
280(9) 0.01146 295.3 6.7
339(10) 0.00914 295.3 6.8
325(10) 0.00987 295.3 6.8
312(9) 0.01068 295.3 6.8
313(10) 0.00978 295.4 6.8
275(9) 0.01150 295.4 6.8
329(10) 0.00874 295.4 6.9
293(9) 0.01071 295.4 6.9
295(9) 0.01137 295.4 6.9
309(10) 0.00985 295.4 6.9
285(9) 0.01055 295.4 6.9
289(9) 0.01080 295.5 6.9
286(9) 0.01142 295.5 6.9
296(9) 0.01140 295.5 6.8
321(10) 0.00975 295.5 6.8
314(10) 0.00972 295.5 6.8
305(10) 0.01002 295.5 6.8
288(9) 0.01144 295.6 6.8
309(9) 0.01068 295.6 6.7
325(10) 0.00972 295.6 6.7
294(9) 0.01031 295.6 6.7
316(10) 0.00982 295.6 6.6
313(9) 0.01046 295.6 6.6
305(9) 0.01091 295.6 6.6
302(9) 0.01009 295.7 6.5
283(9) 0.01061 295.7 6.5
302(9) 0.01061 295.7 6.5
288(9) 0.01138 295.7 6.4
314(9) 0.01069 295.7 6.4
318(10) 0.00987 295.7 6.3
290(9) 0.01012 295.8 6.3
286(9) 0.01074 295.8 6.3
288(9) 0.01144 295.8 6.2
327(10) 0.00982 295.8 6.2
313(10) 0.00998 295.8 6.1
293(9) 0.01054 295.8 6.1
294(9) 0.01065 295.9 6.1
285(9) 0.01157 295.9 6.0
290(9) 0.01127 295.9 6.0
306(9) 0.01037 295.9 6.0
304(10) 0.00980 295.9 5.9
305(10) 0.01003 295.9 5.9
304(9) 0.01098 295.9 5.9
301(9) 0.01079 296.0 5.8
306(9) 0.01043 296.0 5.8
323(10) 0.00929 296.0 5.8
290(9) 0.01091 296.0 5.7
289(9) 0.01152 296.0 5.7
302(9) 0.01029 296.0 5.7
301(9) 0.01054 296.1 5.6
320(10) 0.00969 296.1 5.6
304(9) 0.01053 296.1 5.6
293(9) 0.01138 296.1 5.6
310(9) 0.01020 296.1 5.5
292(9) 0.01024 296.1 5.5
307(9) 0.01015 296.1 5.5
303(9) 0.01068 296.2 5.5
289(9) 0.01157 296.2 5.4
274(9) 0.01118 296.2 5.4
309(10) 0.00985 296.2 5.4
309(9) 0.01015 296.2 5.4
297(9) 0.01089 296.2 5.3
297(9) 0.01133 296.3 5.3
319(10) 0.00997 296.3 5.3
316(10) 0.00973 296.3 5.3
287(9) 0.01110 296.3 5.2
315(9) 0.01047 296.3 5.2
307(9) 0.01092 296.3 5.2
285(9) 0.01112 296.4 5.2
312(10) 0.00960 296.4 5.2
292(9) 0.01127 296.4 5.2
310(9) 0.01089 296.4 5.2
315(9) 0.01051 296.4 5.1
296(9) 0.01067 296.4 5.1
311(10) 0.00919 296.4 5.1
293(9) 0.01085 296.5 5.1
293(9) 0.01136 296.5 5.1
326(9) 0.01026 296.5 5.1
294(9) 0.01087 296.5 5.1
282(9) 0.01057 296.5 5.1
292(9) 0.01067 296.5 5.1
312(9) 0.01073 296.5 5.1
290(9) 0.01152 296.5 5.1
316(10) 0.00999 296.6 5.2
306(10) 0.00992 296.6 5.2
307(9) 0.01055 296.6 5.2
325(9) 0.01048 296.6 5.2
298(9) 0.01094 296.6 5.2
312(10) 0.00983 296.6 5.3
311(10) 0.00971 296.6 5.3
288(9) 0.01061 296.6 5.3
300(9) 0.01111 296.6 5.3
315(9) 0.01008 296.6 5.4
315(10) 0.00956 296.6 5.4
290(9) 0.01060 296.6 5.5
294(9) 0.01052 296.6 5.5
289(9) 0.01170 296.6 5.6
312(9) 0.01018 296.6 5.6
329(10) 0.00949 296.6 5.7
322(10) 0.00933 296.6 5.8
301(9) 0.01056 296.6 5.9
289(9) 0.01150 296.6 5.9
310(9) 0.01029 296.6 6.0
290(9) 0.01111 296.6 6.1
309(9) 0.01017 296.6 6.2
300(9) 0.01058 296.6 6.3
314(9) 0.01076 296.7 6.5
310(9) 0.01036 296.7 6.6
303(10) 0.00990 296.7 6.7
298(10) 0.00991 296.7 6.9
301(9) 0.01091 296.7 7.1
311(9) 0.01061 296.7 7.2
303(9) 0.01032 296.7 7.4
314(10) 0.00963 296.7 7.6
308(9) 0.01022 296.7 7.9
292(9) 0.01113 296.7 8.1
294(9) 0.01151 296.7 8.4
295(9) 0.01072 296.7 8.6
316(10) 0.00957 296.7 8.9
312(10) 0.01006 296.7 9.2
297(9) 0.01121 296.7 9.5
304(9) 0.01092 296.7 9.9
281(9) 0.01119 296.7 10.2
317(10) 0.00927 296.7 10.6
303(9) 0.01042 296.7 11.0
305(9) 0.01091 296.7 11.4
322(9) 0.01051 296.7 11.8
317(9) 0.01011 296.7 12.2
299(10) 0.00994 296.7 12.6
305(9) 0.01041 296.8 13.0
314(9) 0.01084 296.8 13.4
303(9) 0.01075 296.8 13.8
326(10) 0.00960 296.8 14.1
303(9) 0.01017 296.8 14.3
324(10) 0.00982 296.8 14.6
310(9) 0.01091 296.8 14.7
306(9) 0.01083 296.8 14.8
305(10) 0.00995 296.8 14.9
301(10) 0.00978 296.8 14.8
288(9) 0.01101 296.8 14.8
303(9) 0.01109 296.8 14.6
323(9) 0.01025 296.8 14.4
300(9) 0.01063 296.8 14.2
333(10) 0.00930 296.8 13.9
297(9) 0.01082 296.8 13.6
317(9) 0.01061 296.8 13.3
308(9) 0.01070 296.8 13.0
308(10) 0.00989 296.8 12.6
325(10) 0.00949 296.8 12.3
308(9) 0.01019 296.8 12.0
305(9) 0.01094 296.8 11.7
319(10) 0.01000 296.8 11.4
319(10) 0.00949 296.9 11.2
310(9) 0.01029 296.9 10.9
323(10) 0.00982 296.9 10.7
341(10) 0.00985 296.9 10.5
282(9) 0.01120 296.9 10.3
335(10) 0.00893 296.9 10.2
324(10) 0.00972 296.9 10.1
292(9) 0.01104 296.9 9.9
302(9) 0.01107 296.9 9.8
311(9) 0.01021 296.9 9.7
325(10) 0.00949 296.9 9.7
292(9) 0.01107 296.9 9.6
307(9) 0.01093 296.9 9.6
290(9) 0.01152 296.9 9.6
299(9) 0.01024 296.9 9.6
289(9) 0.01060 296.9 9.6
329(10) 0.00967 296.9 9.6
305(9) 0.01088 296.9 9.6
303(9) 0.01091 296.9 9.7
261(9) 0.01227 296.9 9.7
325(10) 0.00904 296.9 9.8
305(9) 0.01065 296.9 9.9
308(9) 0.01097 296.9 10.0
278(9) 0.01196 297.0 10.1
296(9) 0.01064 297.0 10.2
305(10) 0.00988 297.0 10.3
316(9) 0.01022 297.0 10.4
329(10) 0.01006 297.0 10.6
303(9) 0.01098 297.0 10.8
316(10) 0.00971 297.0 11.0
332(10) 0.00905 297.0 11.2
343(10) 0.00936 297.0 11.4
308(9) 0.01096 297.0 11.7
321(9) 0.01026 297.0 12.0
329(10) 0.00935 297.0 12.3
299(9) 0.01025 297.0 12.7
317(10) 0.00992 297.0 13.1
328(9) 0.01015 297.0 13.5
305(9) 0.01041 297.0 14.0
315(10) 0.01000 297.0 14.5
302(9) 0.01015 297.0 15.1
297(9) 0.01047 297.0 15.7
301(9) 0.01112 297.0 16.4
284(9) 0.01142 297.0 17.1
321(10) 0.00955 297.0 17.8
309(9) 0.01027 297.0 18.6
326(10) 0.00964 297.1 19.4
310(9) 0.01091 297.1 20.2
325(10) 0.00991 297.1 21.1
363(10) 0.00862 297.1 21.9
320(10) 0.00993 297.1 22.8
327(10) 0.00979 297.1 23.5
321(9) 0.01055 297.1 24.2
351(10) 0.00891 297.1 24.8
317(10) 0.00990 297.1 25.3
344(10) 0.00921 297.1 25.6
315(9) 0.01054 297.1 25.8
320(9) 0.01050 297.1 25.7
353(10) 0.00895 297.1 25.5
352(10) 0.00876 297.1 25.1
324(10) 0.00992 297.1 24.5
315(9) 0.01049 297.1 23.9
307(9) 0.01093 297.1 23.1
310(10) 0.01005 297.1 22.2
338(10) 0.00903 297.1 21.3
347(10) 0.00916 297.1 20.4
303(9) 0.01097 297.1 19.4
310(9) 0.01093 297.1 18.5
313(9) 0.01025 297.1 17.6
340(11) 0.00827 297.1 16.7
312(9) 0.01018 297.2 15.9
305(9) 0.01066 297.2 15.1
314(9) 0.01068 297.2 14.3
313(10) 0.00987 297.2 13.6
315(10) 0.00931 297.2 13.0
318(9) 0.01015 297.2 12.4
333(9) 0.01016 297.2 11.8
307(9) 0.01076 297.2 11.3
291(9) 0.01083 297.2 10.9
314(10) 0.00923 297.2 10.4
282(9) 0.01132 297.2 10.0
294(9) 0.01131 297.2 9.7
316(9) 0.01046 297.2 9.4
312(10) 0.00941 297.2 9.1
313(10) 0.00937 297.2 8.8
307(9) 0.01018 297.2 8.6
306(9) 0.01106 297.2 8.4
314(9) 0.01047 297.2 8.2
328(10) 0.00936 297.2 8.0
300(9) 0.01023 297.2 7.8
312(9) 0.01032 297.2 7.7
312(9) 0.01080 297.2 7.6
307(9) 0.01033 297.2 7.5
292(9) 0.01069 297.3 7.4
287(9) 0.01078 297.3 7.3
300(9) 0.01043 297.3 7.3
324(9) 0.01041 297.3 7.2
313(9) 0.01037 297.3 7.1
312(9) 0.01033 297.3 7.1
307(9) 0.01046 297.3 7.1
305(9) 0.01050 297.3 7.0
317(9) 0.01062 297.3 7.0
300(9) 0.01071 297.3 6.9
301(10) 0.00994 297.3 6.9
316(10) 0.00971 297.3 6.9
306(9) 0.01076 297.3 6.8
332(10) 0.01004 297.3 6.8
297(9) 0.01020 297.3 6.7
305(9) 0.01009 297.3 6.7
319(10) 0.00989 297.3 6.6
297(9) 0.01104 297.3 6.6
288(9) 0.01141 297.3 6.5
297(9) 0.01098 297.3 6.4
298(9) 0.01042 297.3 6.4
307(9) 0.01021 297.3 6.3
298(9) 0.01108 297.3 6.2
275(9) 0.01212 297.4 6.1
299(9) 0.01077 297.4 6.0
331(10) 0.00915 297.4 5.9
322(10) 0.00984 297.4 5.9
306(9) 0.01085 297.4 5.8
293(9) 0.01133 297.4 5.7
304(9) 0.01023 297.4 5.6
301(10) 0.00997 297.4 5.5
304(9) 0.01036 297.4 5.5
306(9) 0.01083 297.4 5.4
302(9) 0.01118 297.4 5.3
274(9) 0.01173 297.4 5.3
299(10) 0.00975 297.4 5.2
310(10) 0.01004 297.4 5.1
304(9) 0.01113 297.4 5.1
287(9) 0.01144 297.4 5.0
279(9) 0.01090 297.4 5.0
283(9) 0.01021 297.4 5.0
284(9) 0.01063 297.4 4.9
307(9) 0.01075 297.4 4.9
318(9) 0.01033 297.4 4.9
302(9) 0.01040 297.4 4.8
296(9) 0.01033 297.4 4.8
287(9) 0.01073 297.5 4.8
291(9) 0.01145 297.5 4.8
304(9) 0.01088 297.5 4.8
299(9) 0.01060 297.5 4.8
298(9) 0.01062 297.5 4.8
318(10) 0.00973 297.5 4.8
304(9) 0.01095 297.5 4.8
301(9) 0.01051 297.5 4.9
292(9) 0.01043 297.5 4.9
293(9) 0.01055 297.5 4.9
303(9) 0.01045 297.5 4.9
271(9) 0.01219 297.5 5.0
301(9) 0.01061 297.5 5.0
308(10) 0.01001 297.5 5.1
316(10) 0.00967 297.5 5.1
272(9) 0.01127 297.5 5.2
299(9) 0.01107 297.5 5.3
304(9) 0.01048 297.5 5.4
305(10) 0.00987 297.5 5.5
274(9) 0.01095 297.5 5.6
331(10) 0.00947 297.5 5.7
318(9) 0.01062 297.5 5.8
303(9) 0.01060 297.5 6.0
299(10) 0.00997 297.6 6.1
295(9) 0.01033 297.6 6.3
312(9) 0.01069 297.6 6.5
291(9) 0.01151 297.6 6.8
292(9) 0.01061 297.6 7.0
303(10) 0.00996 297.6 7.3
302(9) 0.01028 297.6 7.6
273(9) 0.01202 297.6 8.0
294(9) 0.01133 297.6 8.4
324(10) 0.00951 297.6 8.8
298(10) 0.00987 297.6 9.3
301(9) 0.01059 297.6 9.8
324(9) 0.01033 297.6 10.4
320(9) 0.01041 297.6 11.0
340(10) 0.00885 297.6 11.6
316(10) 0.00906 297.6 12.2
307(9) 0.01062 297.6 12.9
314(9) 0.01077 297.6 13.5
305(9) 0.01100 297.6 14.1
316(10) 0.01000 297.6 14.6
293(9) 0.01034 297.6 15.0
329(10) 0.00962 297.6 15.3
321(9) 0.01043 297.6 15.5
331(10) 0.00999 297.7 15.5
308(9) 0.01055 297.7 15.3
323(10) 0.00930 297.7 15.1
315(10) 0.00962 297.7 14.8
332(9) 0.01023 297.7 14.5
316(9) 0.01050 297.7 14.2
329(10) 0.00943 297.7 13.8
313(10) 0.00967 297.7 13.5
291(9) 0.01078 297.7 13.3
289(9) 0.01150 297.7 13.0
340(10) 0.00965 297.7 12.9
305(9) 0.01046 297.7 12.7
321(10) 0.00966 297.7 12.7
316(9) 0.01023 297.7 12.6
303(9) 0.01103 297.7 12.6
310(9) 0.01019 297.7 12.7
312(10) 0.00995 297.7 12.8
304(9) 0.01061 297.7 12.9
312(10) 0.01007 297.7 13.1
292(9) 0.01147 297.7 13.2
322(10) 0.00952 297.7 13.4
319(10) 0.00958 297.7 13.7
304(9) 0.01053 297.7 13.9
310(9) 0.01052 297.8 14.1
296(9) 0.01123 297.8 14.4
327(10) 0.00984 297.8 14.6
327(10) 0.00944 297.8 14.9
318(10) 0.00991 297.8 15.1
309(9) 0.01073 297.8 15.3
314(9) 0.01073 297.8 15.5
331(10) 0.00945 297.8 15.7
298(10) 0.01003 297.8 15.8
294(9) 0.01074 297.8 16.0
332(9) 0.01023 297.8 16.1
299(9) 0.01125 297.8 16.1
300(9) 0.01039 297.8 16.2
330(10) 0.00904 297.8 16.2
328(10) 0.00985 297.8 16.2
356(10) 0.00950 297.8 16.1
310(9) 0.01075 297.8 16.1
312(9) 0.01022 297.8 16.0
316(10) 0.00924 297.8 15.9
309(9) 0.01016 297.8 15.8
324(9) 0.01046 297.8 15.7
302(9) 0.01104 297.8 15.6
310(9) 0.01030 297.8 15.5
317(10) 0.00950 297.9 15.5
301(9) 0.01065 297.9 15.4
309(9) 0.01088 297.9 15.3
307(9) 0.01089 297.9 15.2
313(9) 0.01022 297.9 15.2
321(10) 0.00939 297.9 15.1
293(9) 0.01070 297.9 15.1
331(9) 0.01034 297.9 15.1
340(10) 0.00981 297.9 15.2
318(10) 0.00997 297.9 15.2
348(10) 0.00861 297.9 15.3
324(10) 0.00965 297.9 15.4
327(9) 0.01034 297.9 15.5
304(9) 0.01075 297.9 15.7
310(10) 0.00999 297.9 15.9
328(10) 0.00928 297.9 16.1
335(10) 0.00957 297.9 16.4
336(10) 0.01004 297.9 16.7
312(9) 0.01017 297.9 17.0
289(9) 0.01106 297.9 17.4
326(10) 0.00959 297.9 17.8
315(9) 0.01027 297.9 18.2
294(9) 0.01129 297.9 18.6
323(10) 0.01000 298.0 19.1
306(9) 0.01049 298.0 19.6
317(10) 0.00961 298.0 20.0
310(9) 0.01060 298.0 20.5
313(9) 0.01073 298.0 20.9
303(9) 0.01043 298.0 21.2
331(10) 0.00926 298.0 21.4
316(9) 0.01023 298.0 21.6
342(10) 0.00979 298.0 21.6
341(10) 0.00992 298.0 21.5
332(10) 0.00931 298.0 21.2
331(10) 0.00888 298.0 20.9
338(10) 0.00945 298.0 20.4
340(10) 0.00988 298.0 19.8
324(9) 0.01032 298.0 19.2
287(9) 0.01116 298.0 18.6
328(10) 0.00908 298.0 17.9
317(10) 0.00976 298.0 17.2
301(9) 0.01110 298.0 16.5
324(9) 0.01046 298.0 15.9
322(10) 0.00990 298.0 15.2
316(10) 0.00901 298.0 14.7
313(10) 0.00992 298.0 14.1
333(10) 0.00994 298.1 13.6
306(9) 0.01088 298.1 13.1
291(9) 0.01103 298.1 12.6
320(10) 0.00924 298.1 12.2
316(10) 0.01006 298.1 11.9
332(9) 0.01009 298.1 11.5
315(9) 0.01062 298.1 11.2
297(9) 0.01028 298.1 10.9
284(9) 0.01031 298.1 10.7
294(9) 0.01043 298.1 10.5
303(9) 0.01107 298.1 10.3
317(9) 0.01032 298.1 10.2
325(10) 0.00971 298.1 10.0
295(9) 0.01057 298.1 9.9
314(10) 0.00978 298.1 9.8
295(9) 0.01127 298.1 9.8
298(9) 0.01088 298.1 9.7
286(9) 0.01090 298.1 9.7
291(9) 0.01064 298.1 9.8
303(9) 0.01034 298.1 9.8
308(9) 0.01092 298.1 9.9
321(10) 0.00989 298.1 10.0
292(9) 0.01038 298.1 10.2
299(9) 0.01012 298.2 10.3
326(10) 0.00997 298.2 10.5
324(9) 0.01043 298.2 10.8
300(9) 0.01064 298.2 11.1
311(10) 0.01002 298.2 11.4
309(9) 0.01030 298.2 11.8
318(9) 0.01046 298.2 12.2
329(9) 0.01029 298.2 12.7
325(10) 0.00957 298.2 13.2
318(10) 0.00999 298.2 13.8
348(10) 0.00899 298.2 14.4
298(9) 0.01106 298.2 15.0
298(9) 0.01104 298.2 15.7
291(9) 0.01066 298.2 16.4
307(10) 0.00968 298.2 17.2
315(9) 0.01039 298.2 17.9
331(9) 0.01012 298.2 18.6
304(9) 0.01097 298.2 19.3
320(10) 0.00980 298.2 19.8
331(10) 0.00901 298.2 20.3
312(9) 0.01029 298.2 20.7
336(10) 0.00999 298.2 20.9
327(9) 0.01029 298.2 20.9
316(10) 0.00991 298.3 20.7
315(10) 0.00912 298.3 20.4
316(10) 0.00971 298.3 20.0
306(9) 0.01077 298.3 19.4
300(9) 0.01083 298.3 18.7
329(10) 0.00937 298.3 18.0
320(10) 0.00913 298.3 17.2
314(10) 0.00973 298.3 16.5
295(9) 0.01127 298.3 15.7
299(9) 0.01117 298.3 15.0
331(10) 0.00966 298.3 14.3
330(10) 0.00907 298.3 13.6
307(9) 0.01029 298.3 13.0
311(9) 0.01069 298.3 12.4
313(9) 0.01047 298.3 11.9
305(9) 0.01015 298.3 11.4
319(10) 0.00943 298.3 11.0
320(10) 0.00992 298.3 10.6
331(9) 0.01015 298.3 10.2
323(10) 0.01000 298.3 9.9
318(10) 0.00988 298.3 9.7
316(10) 0.00955 298.3 9.5
289(9) 0.01114 298.3 9.3
324(9) 0.01040 298.3 9.1
299(9) 0.01076 298.4 9.0
287(9) 0.01103 298.4 8.9
275(9) 0.01132 298.4 8.8
291(9) 0.01087 298.4 8.8
263(8) 0.01257 298.4 8.8
301(10) 0.00991 298.4 8.8
318(10) 0.00983 298.4 8.9
301(9) 0.01039 298.4 9.0
339(10) 0.00926 298.4 9.1
296(9) 0.01125 298.4 9.3
289(9) 0.01079 298.4 9.6
289(9) 0.01051 298.4 9.9
306(9) 0.01019 298.4 10.3
327(9) 0.01027 298.4 10.7
320(9) 0.01044 298.4 11.2
309(9) 0.01010 298.4 11.8
302(10) 0.00974 298.4 12.4
321(10) 0.00940 298.4 13.1
300(9) 0.01106 298.4 13.8
324(9) 0.01032 298.4 14.6
306(9) 0.01011 298.4 15.2
302(10) 0.00988 298.4 15.8
338(10) 0.00932 298.4 16.3
336(10) 0.01000 298.5 16.5
326(9) 0.01017 298.5 16.5
310(9) 0.01028 298.5 16.2
308(10) 0.00963 298.5 15.8
294(9) 0.01041 298.5 15.3
300(9) 0.01101 298.5 14.7
301(9) 0.01109 298.5 14.1
327(10) 0.00978 298.5 13.6
314(10) 0.00982 298.5 13.1
331(10) 0.00955 298.5 12.6
287(9) 0.01175 298.5 12.2
294(9) 0.01138 298.5 11.9
301(9) 0.01033 298.5 11.6
310(10) 0.00935 298.5 11.4
290(9) 0.01080 298.5 11.3
307(9) 0.01092 298.5 11.2
317(9) 0.01053 298.5 11.1
319(10) 0.00956 298.5 11.1
307(10) 0.00994 298.5 11.1
305(9) 0.01047 298.5 11.1
328(9) 0.01027 298.5 11.2
324(9) 0.01024 298.5 11.3
291(9) 0.01096 298.5 11.4
300(9) 0.01012 298.6 11.5
313(9) 0.01010 298.6 11.7
316(9) 0.01058 298.6 11.8
315(9) 0.01015 298.6 12.0
303(9) 0.01023 298.6 12.2
297(9) 0.01035 298.6 12.4
327(10) 0.00995 298.6 12.6
308(9) 0.01088 298.6 12.9
330(10) 0.00983 298.6 13.2
330(10) 0.00947 298.6 13.5
307(9) 0.01019 298.6 13.8
309(9) 0.01012 298.6 14.1
306(9) 0.01092 298.6 14.5
314(10) 0.00966 298.6 14.9
301(10) 0.01003 298.6 15.3
307(9) 0.01030 298.6 15.8
330(10) 0.00978 298.6 16.3
332(9) 0.01019 298.6 16.9
318(10) 0.00988 298.6 17.5
338(10) 0.00905 298.6 18.2
314(9) 0.01019 298.6 19.0
318(9) 0.01027 298.6 19.8
318(9) 0.01056 298.6 20.8
335(10) 0.00939 298.7 21.8
341(10) 0.00860 298.7 23.0
315(9) 0.01022 298.7 24.3
334(10) 0.00976 298.7 25.8
343(10) 0.00982 298.7 27.4
322(10) 0.00964 298.7 29.2
361(11) 0.00815 298.7 31.3
331(10) 0.00962 298.7 33.5
338(10) 0.01001 298.7 36.0
340(10) 0.01001 298.7 38.8
356(10) 0.00891 298.7 41.8
356(11) 0.00838 298.7 45.1
359(10) 0.00880 298.7 48.7
363(10) 0.00947 298.7 52.5
392(10) 0.00861 298.7 56.7
372(10) 0.00863 298.7 61.0
369(11) 0.00824 298.7 65.5
384(11) 0.00836 298.7 70.1
397(10) 0.00869 298.7 74.7
420(11) 0.00802 298.7 79.0
392(11) 0.00805 298.7 82.9
409(11) 0.00734 298.7 86.2
428(11) 0.00749 298.7 88.8
424(11) 0.00815 298.8 90.4
433(11) 0.00773 298.8 90.9
388(11) 0.00819 298.8 90.4
398(11) 0.00788 298.8 88.8
399(11) 0.00827 298.8 86.3
400(10) 0.00857 298.8 83.1
375(10) 0.00885 298.8 79.2
387(11) 0.00817 298.8 75.0
379(10) 0.00851 298.8 70.6
373(10) 0.00884 298.8 66.1
375(10) 0.00916 298.8 61.6
368(10) 0.00889 298.8 57.3
358(10) 0.00861 298.8 53.2
323(10) 0.00964 298.8 49.3
306(9) 0.01063 298.8 45.7
342(10) 0.00989 298.8 42.3
359(10) 0.00845 298.8 39.2
315(10) 0.00962 298.8 36.3
338(10) 0.00917 298.8 33.7
331(10) 0.00985 298.8 31.3
326(9) 0.01026 298.8 29.1
322(10) 0.00968 298.8 27.2
300(9) 0.01017 298.8 25.4
297(9) 0.01023 298.9 23.7
316(9) 0.01042 298.9 22.3
313(9) 0.01070 298.9 20.9
319(10) 0.00994 298.9 19.7
308(10) 0.00981 298.9 18.7
315(9) 0.01022 298.9 17.7
306(9) 0.01074 298.9 16.8
312(9) 0.01076 298.9 16.0
333(10) 0.00957 298.9 15.3
295(9) 0.01037 298.9 14.6
287(9) 0.01069 298.9 14.0
305(9) 0.01096 298.9 13.5
292(9) 0.01143 298.9 13.0
300(9) 0.01054 298.9 12.5
302(10) 0.00979 298.9 12.1
309(9) 0.01011 298.9 11.7
319(9) 0.01042 298.9 11.4
286(9) 0.01169 298.9 11.1
323(10) 0.00996 298.9 10.8
333(10) 0.00876 298.9 10.5
307(10) 0.01006 298.9 10.3
312(9) 0.01066 298.9 10.1
338(10) 0.00981 298.9 9.9
285(9) 0.01107 299.0 9.7
294(10) 0.01000 299.0 9.6
317(10) 0.00985 299.0 9.4
296(9) 0.01114 299.0 9.3
294(9) 0.01106 299.0 9.2
302(9) 0.01016 299.0 9.1
283(9) 0.01055 299.0 9.0
289(9) 0.01089 299.0 8.9
308(9) 0.01077 299.0 8.9
307(9) 0.01052 299.0 8.8
315(10) 0.00989 299.0 8.8
316(10) 0.00923 299.0 8.7
299(9) 0.01051 299.0 8.7
304(9) 0.01079 299.0 8.6
289(9) 0.01124 299.0 8.6
309(10) 0.00962 299.0 8.5
319(10) 0.00946 299.0 8.5
329(10) 0.00961 299.0 8.4
293(9) 0.01135 299.0 8.3
307(9) 0.01013 299.0 8.3
322(10) 0.00968 299.0 8.2
327(10) 0.00981 299.0 8.1
321(9) 0.01017 299.0 8.0
299(9) 0.01125 299.1 7.9
301(9) 0.01034 299.1 7.8
325(10) 0.00905 299.1 7.8
316(10) 0.00964 299.1 7.7
297(9) 0.01087 299.1 7.6
297(9) 0.01125 299.1 7.5
329(10) 0.00936 299.1 7.4
310(10) 0.00967 299.1 7.3
288(9) 0.01100 299.1 7.3
310(9) 0.01064 299.1 7.2
300(9) 0.01112 299.1 7.1
297(9) 0.01069 299.1 7.1
315(10) 0.00935 299.1 7.0
296(9) 0.01033 299.1 7.0
285(9) 0.01142 299.1 6.9
306(9) 0.01096 299.1 6.9
328(10) 0.00982 299.1 6.9
316(10) 0.00930 299.1 6.9
300(9) 0.01059 299.1 6.9
290(9) 0.01145 299.1 6.9
310(9) 0.01079 299.1 6.9
341(10) 0.00884 299.1 6.9
331(10) 0.00895 299.1 6.9
320(10) 0.01006 299.2 6.9
280(9) 0.01192 299.2 6.9
282(9) 0.01175 299.2 7.0
317(10) 0.00999 299.2 7.0
309(10) 0.00966 299.2 7.0
319(10) 0.00959 299.2 7.1
292(9) 0.01137 299.2 7.1
309(9) 0.01062 299.2 7.2
314(10) 0.00968 299.2 7.3
285(9) 0.01093 299.2 7.3
318(10) 0.00966 299.2 7.4
306(9) 0.01071 299.2 7.5
331(10) 0.00988 299.2 7.6
308(9) 0.01016 299.2 7.6
276(9) 0.01122 299.2 7.7
291(9) 0.01068 299.2 7.8
278(9) 0.01195 299.2 7.9
301(9) 0.01049 299.2 8.0
326(10) 0.00939 299.2 8.0
312(10) 0.00971 299.2 8.1
314(10) 0.00985 299.2 8.2
328(9) 0.01032 299.2 8.3
294(9) 0.01065 299.2 8.3
297(9) 0.01043 299.3 8.4
318(10) 0.00974 299.3 8.5
324(9) 0.01010 299.3 8.5
289(9) 0.01143 299.3 8.6
335(10) 0.00929 299.2 8.6
307(9) 0.01035 299.2 8.6
299(9) 0.01056 299.2 8.7
309(9) 0.01058 299.2 8.7
315(9) 0.01056 299.2 8.7
320(9) 0.01009 299.2 8.8
309(10) 0.00979 299.2 8.8
284(9) 0.01125 299.2 8.8
290(9) 0.01120 299.2 8.8
308(9) 0.01094 299.2 8.9
319(10) 0.00982 299.1 8.9
309(10) 0.01002 299.1 8.9
296(9) 0.01113 299.1 8.9
304(9) 0.01067 299.1 8.9
321(9) 0.01055 299.1 9.0
310(9) 0.01015 299.1 9.0
318(10) 0.00935 299.1 9.0
318(10) 0.00997 299.1 9.0
307(9) 0.01067 299.1 9.1
301(9) 0.01121 299.1 9.1
334(10) 0.00881 299.1 9.1
310(10) 0.00917 299.0 9.1
303(10) 0.00991 299.0 9.2
305(9) 0.01086 299.0 9.2
310(9) 0.01092 299.0 9.2
329(10) 0.00957 299.0 9.3
322(10) 0.00929 299.0 9.3
289(9) 0.01119 299.0 9.3
293(9) 0.01134 299.0 9.4
297(9) 0.01135 299.0 9.4
264(9) 0.01216 299.0 9.5
294(9) 0.01042 298.9 9.5
280(9) 0.01142 298.9 9.6
283(9) 0.01184 298.9 9.6
318(9) 0.01029 298.9 9.7
313(10) 0.01004 298.9 9.8
315(10) 0.00987 298.9 9.8
324(10) 0.00949 298.9 9.9
296(9) 0.01151 298.9 10.0
304(9) 0.01021 298.9 10.1
270(9) 0.01147 298.9 10.2
280(9) 0.01118 298.9 10.3
319(9) 0.01011 298.8 10.4
304(9) 0.01087 298.8 10.5
318(10) 0.00996 298.8 10.7
287(9) 0.01071 298.8 10.8
323(10) 0.00955 298.8 11.0
319(9) 0.01025 298.8 11.2
297(9) 0.01112 298.8 11.3
316(10) 0.01000 298.8 11.5
330(10) 0.00932 298.8 11.7
315(10) 0.00989 298.8 12.0
319(9) 0.01031 298.7 12.2
307(9) 0.01072 298.7 12.4
275(9) 0.01127 298.7 12.7
304(10) 0.00946 298.7 13.0
321(10) 0.00969 298.7 13.3
313(9) 0.01040 298.7 13.6
340(10) 0.00989 298.7 13.9
308(10) 0.01007 298.7 14.3
316(10) 0.00944 298.7 14.7
323(10) 0.00970 298.7 15.1
305(9) 0.01069 298.7 15.5
342(10) 0.00988 298.6 16.0
332(10) 0.00946 298.6 16.4
317(10) 0.00929 298.6 17.0
321(10) 0.01003 298.6 17.5
316(9) 0.01078 298.6 18.0
354(10) 0.00967 298.6 18.6
334(10) 0.00967 298.6 19.3
312(10) 0.00981 298.6 19.9
303(9) 0.01074 298.6 20.6
337(10) 0.01003 298.6 21.3
345(10) 0.00961 298.5 22.1
323(10) 0.00988 298.5 22.9
328(10) 0.00945 298.5 23.7
346(10) 0.00934 298.5 24.6
336(9) 0.01018 298.5 25.5
341(10) 0.00977 298.5 26.4
347(10) 0.00918 298.5 27.4
325(10) 0.00941 298.5 28.4
364(11) 0.00834 298.5 29.4
349(10) 0.00966 298.5 30.5
336(10) 0.00998 298.5 31.6
321(9) 0.01010 298.4 32.7
348(10) 0.00870 298.4 33.9
342(10) 0.00920 298.4 35.0
338(10) 0.00988 298.4 36.2
355(10) 0.00920 298.4 37.3
377(10) 0.00863 298.4 38.4
352(10) 0.00919 298.4 39.6
345(10) 0.00922 298.4 40.7
338(10) 0.01002 298.4 41.7
369(10) 0.00881 298.4 42.8
348(10) 0.00897 298.3 43.8
357(10) 0.00861 298.3 44.7
341(10) 0.00941 298.3 45.6
360(10) 0.00942 298.3 46.4
352(10) 0.00911 298.3 47.2
357(10) 0.00862 298.3 47.9
362(10) 0.00881 298.3 48.5
355(10) 0.00914 298.3 49.0
358(10) 0.00955 298.3 49.5
354(10) 0.00894 298.3 50.0
369(11) 0.00828 298.3 50.3
344(10) 0.00939 298.2 50.5
357(10) 0.00908 298.2 50.7
356(10) 0.00949 298.2 50.8
364(10) 0.00877 298.2 50.7
358(10) 0.00842 298.2 50.6
340(10) 0.00943 298.2 50.3
325(9) 0.01018 298.2 49.9
372(10) 0.00922 298.2 49.4
351(10) 0.00910 298.2 48.7
364(11) 0.00823 298.2 47.9
355(10) 0.00881 298.1 47.0
339(10) 0.00975 298.1 46.0
353(10) 0.00951 298.1 44.8
322(10) 0.00980 298.1 43.6
314(10) 0.00940 298.1 42.3
316(9) 0.01035 298.1 41.0
347(10) 0.00986 298.1 39.7
345(10) 0.00983 298.1 38.3
332(10) 0.00977 298.1 37.0
334(10) 0.00887 298.1 35.7
331(10) 0.00948 298.1 34.4
332(9) 0.01023 298.0 33.1
334(9) 0.01013 298.0 31.9
340(10) 0.00925 298.0 30.7
306(10) 0.00981 298.0 29.5
312(10) 0.01000 298.0 28.4
299(9) 0.01124 298.0 27.4
312(9) 0.01066 298.0 26.4
328(10) 0.00952 298.0 25.5
309(10) 0.01006 298.0 24.6
322(10) 0.01007 298.0 23.8
326(9) 0.01033 297.9 23.0
286(9) 0.01153 297.9 22.2
327(10) 0.00960 297.9 21.5
328(10) 0.00935 297.9 20.8
315(10) 0.00999 297.9 20.2
300(9) 0.01118 297.9 19.6
299(9) 0.01074 297.9 19.0
329(10) 0.00940 297.9 18.5
337(10) 0.00930 297.9 18.0
319(9) 0.01022 297.9 17.5
326(9) 0.01040 297.9 17.1
308(9) 0.01033 297.8 16.7
334(10) 0.00888 297.8 16.3
298(9) 0.01072 297.8 15.9
296(9) 0.01131 297.8 15.5
309(9) 0.01079 297.8 15.2
303(10) 0.00993 297.8 14.9
319(10) 0.00940 297.8 14.6
292(9) 0.01087 297.8 14.3
296(9) 0.01104 297.8 14.0
292(9) 0.01144 297.8 13.8
312(10) 0.01004 297.7 13.5
308(10) 0.00983 297.7 13.3
318(10) 0.00983 297.7 13.0
312(9) 0.01070 297.7 12.8
316(9) 0.01054 297.7 12.6
283(9) 0.01117 297.7 12.4
303(10) 0.00981 297.7 12.2
298(9) 0.01084 297.7 12.0
311(9) 0.01072 297.7 11.9
318(9) 0.01064 297.7 11.7
327(10) 0.00967 297.7 11.5
290(9) 0.01052 297.6 11.3
292(9) 0.01094 297.6 11.2
301(9) 0.01111 297.6 11.0
303(9) 0.01098 297.6 10.9
314(10) 0.00986 297.6 10.7
291(9) 0.01024 297.6 10.6
310(9) 0.01023 297.6 10.5
297(9) 0.01128 297.6 10.3
301(9) 0.01113 297.6 10.2
283(9) 0.01160 297.6 10.1
324(10) 0.00899 297.5 10.0
314(9) 0.01020 297.5 9.8
296(9) 0.01136 297.5 9.7
297(9) 0.01081 297.5 9.6
335(10) 0.00945 297.5 9.5
321(10) 0.00945 297.5 9.4
301(9) 0.01060 297.5 9.3
331(9) 0.01017 297.5 9.2
312(9) 0.01026 297.5 9.1
300(9) 0.01040 297.5 9.0
308(10) 0.01004 297.5 8.9
304(9) 0.01029 297.4 8.8
281(9) 0.01172 297.4 8.7
319(9) 0.01023 297.4 8.6
310(9) 0.01010 297.4 8.5
304(9) 0.01039 297.4 8.4
300(9) 0.01083 297.4 8.3
305(9) 0.01097 297.4 8.3
286(9) 0.01143 297.4 8.2
284(9) 0.01086 297.4 8.1
292(9) 0.01052 297.4 8.0
298(9) 0.01108 297.4 7.9
298(9) 0.01129 297.3 7.9
293(9) 0.01078 297.3 7.8
296(9) 0.01014 297.3 7.7
292(9) 0.01077 297.3 7.7
286(9) 0.01122 297.3 7.6
289(9) 0.01145 297.3 7.5
301(9) 0.01013 297.3 7.5
298(9) 0.01032 297.3 7.4
286(9) 0.01073 297.3 7.4
288(9) 0.01128 297.3 7.3
298(9) 0.01101 297.2 7.3
288(9) 0.01106 297.2 7.2
298(10) 0.00982 297.2 7.2
300(9) 0.01009 297.2 7.1
312(9) 0.01047 297.2 7.1
304(9) 0.01095 297.2 7.1
275(9) 0.01158 297.2 7.0
291(10) 0.00982 297.2 7.0
267(9) 0.01171 297.2 7.0
285(9) 0.01159 297.2 6.9
294(9) 0.01128 297.2 6.9
258(9) 0.01207 297.1 6.9
290(9) 0.01013 297.1 6.8
289(9) 0.01126 297.1 6.8
302(9) 0.01107 297.1 6.8
303(9) 0.01076 297.1 6.8
301(9) 0.01053 297.1 6.8
314(10) 0.00940 297.1 6.8
296(9) 0.01040 297.1 6.7
305(9) 0.01085 297.1 6.7
287(9) 0.01146 297.1 6.7
274(9) 0.01153 297.0 6.7
288(9) 0.01032 297.0 6.7
304(9) 0.01050 297.0 6.7
302(9) 0.01101 297.0 6.7
292(9) 0.01122 297.0 6.7
326(10) 0.00973 297.0 6.7
315(10) 0.00971 297.0 6.7
291(9) 0.01040 297.0 6.8
267(9) 0.01230 297.0 6.8
285(9) 0.01118 297.0 6.8
302(9) 0.01044 297.0 6.8
340(10) 0.00908 296.9 6.8
315(10) 0.01006 296.9 6.8
304(9) 0.01095 296.9 6.9
312(9) 0.01022 296.9 6.9
297(9) 0.01043 296.9 6.9
295(9) 0.01030 296.9 7.0
287(9) 0.01100 296.9 7.0
289(9) 0.01161 296.9 7.0
283(9) 0.01092 296.9 7.1
286(9) 0.01030 296.9 7.1
279(9) 0.01130 296.8 7.2
314(9) 0.01025 296.8 7.2
305(9) 0.01084 296.8 7.2
318(10) 0.01004 296.8 7.3
306(10) 0.00976 296.8 7.3
293(9) 0.01035 296.8 7.4
294(9) 0.01118 296.8 7.5
288(9) 0.01148 296.8 7.5
286(9) 0.01100 296.8 7.6
296(9) 0.01013 296.8 7.6
297(9) 0.01031 296.8 7.7
295(9) 0.01091 296.7 7.8
315(9) 0.01075 296.7 7.8
289(9) 0.01104 296.7 7.9
313(10) 0.00945 296.7 8.0
307(9) 0.01046 296.7 8.1
291(9) 0.01153 296.7 8.1
274(9) 0.01190 296.7 8.2
319(10) 0.00949 296.7 8.3
305(10) 0.00957 296.7 8.4
296(9) 0.01080 296.7 8.4
294(9) 0.01149 296.6 8.5
297(9) 0.01124 296.6 8.6
313(9) 0.01041 296.6 8.7
300(9) 0.01026 296.6 8.7
313(10) 0.01007 296.6 8.8
287(9) 0.01170 296.6 8.9
291(9) 0.01140 296.6 9.0
282(9) 0.01116 296.6 9.0
320(10) 0.00920 296.6 9.1
295(9) 0.01082 296.6 9.2
287(9) 0.01178 296.6 9.2
277(9) 0.01160 296.5 9.3
311(10) 0.01005 296.5 9.3
283(9) 0.01107 296.5 9.4
309(9) 0.01016 296.5 9.5
289(9) 0.01161 296.5 9.5
278(9) 0.01159 296.5 9.6
299(9) 0.01047 296.4 9.6
317(10) 0.00975 296.4 9.7
316(9) 0.01008 296.4 9.7
297(9) 0.01132 296.4 9.8
300(9) 0.01063 296.4 9.8
300(9) 0.01044 296.4 9.8
325(10) 0.00918 296.3 9.9
301(9) 0.01064 296.3 9.9
298(9) 0.01125 296.3 10.0
287(9) 0.01122 296.3 10.0
287(9) 0.01070 296.3 10.0
284(9) 0.01044 296.3 10.1
284(9) 0.01129 296.2 10.1
299(9) 0.01114 296.2 10.2
298(9) 0.01070 296.2 10.2
272(9) 0.01126 296.2 10.3
272(9) 0.01159 296.2 10.3
277(9) 0.01176 296.2 10.4
302(9) 0.01088 296.2 10.4
278(9) 0.01118 296.1 10.5
314(10) 0.00922 296.1 10.5
315(10) 0.00974 296.1 10.6
296(9) 0.01122 296.1 10.6
305(9) 0.01057 296.1 10.7
281(9) 0.01124 296.1 10.7
303(10) 0.00969 296.0 10.8
302(9) 0.01042 296.0 10.8
325(9) 0.01037 296.0 10.9
288(9) 0.01174 296.0 10.9
307(9) 0.01036 296.0 11.0
306(10) 0.00968 296.0 11.0
298(9) 0.01071 295.9 11.0
300(9) 0.01120 295.9 11.1
284(9) 0.01171 295.9 11.1
315(9) 0.01019 295.9 11.1
288(9) 0.01058 295.9 11.1
299(9) 0.01059 295.9 11.2
303(9) 0.01098 295.8 11.2
300(9) 0.01109 295.8 11.2
305(10) 0.00996 295.8 11.2
249(8) 0.01240 295.8 11.2
310(10) 0.00996 295.8 11.2
308(9) 0.01076 295.8 11.2
296(9) 0.01121 295.7 11.1
315(10) 0.00979 295.7 11.1
309(10) 0.00993 295.7 11.1
306(9) 0.01039 295.7 11.1
313(9) 0.01089 295.7 11.0
286(9) 0.01135 295.7 11.0
314(10) 0.00992 295.6 10.9
311(10) 0.00973 295.6 10.9
317(10) 0.01000 295.6 10.8
303(9) 0.01103 295.6 10.8
319(10) 0.01006 295.6 10.7
291(9) 0.01059 295.6 10.7
296(9) 0.01067 295.5 10.6
322(10) 0.01000 295.5 10.5
313(9) 0.01067 295.5 10.5
308(9) 0.01009 295.5 10.4
306(9) 0.01015 295.5 10.4
297(9) 0.01039 295.5 10.3
299(9) 0.01081 295.4 10.2
311(9) 0.01084 295.4 10.2
323(10) 0.00994 295.4 10.1
302(9) 0.01030 295.4 10.1
309(9) 0.01025 295.4 10.0
314(9) 0.01056 295.4 10.0
304(9) 0.01109 295.3 9.9
286(9) 0.01031 295.3 9.9
317(10) 0.00961 295.3 9.9
333(10) 0.00992 295.3 9.8
315(9) 0.01043 295.3 9.8
292(9) 0.01141 295.3 9.7
299(9) 0.01049 295.3 9.7
305(10) 0.00971 295.2 9.7
301(9) 0.01054 295.2 9.6
330(9) 0.01011 295.2 9.6
312(9) 0.01081 295.2 9.6
295(9) 0.01104 295.2 9.6
321(10) 0.00929 295.2 9.6
323(10) 0.00989 295.1 9.6
309(9) 0.01081 295.1 9.6
312(9) 0.01070 295.1 9.6
319(10) 0.00967 295.1 9.6
334(10) 0.00885 295.1 9.6
320(9) 0.01009 295.1 9.7
311(9) 0.01066 295.0 9.7
309(9) 0.01087 295.0 9.8
298(9) 0.01061 295.0 9.8
320(10) 0.00927 295.0 9.9
296(9) 0.01061 295.0 10.0
292(9) 0.01157 295.0 10.2
292(9) 0.01124 294.9 10.4
281(9) 0.01106 294.9 10.6
269(9) 0.01147 294.9 10.8
297(9) 0.01018 294.9 11.2
303(9) 0.01111 294.9 11.6
312(9) 0.01040 294.9 12.0
318(10) 0.00984 294.8 12.6
313(10) 0.00978 294.8 13.3
285(9) 0.01111 294.8 14.1
312(9) 0.01074 294.8 15.0
307(9) 0.01034 294.8 16.1
287(9) 0.01098 294.8 17.3
306(10) 0.00993 294.7 18.6
303(9) 0.01028 294.7 20.1
316(9) 0.01063 294.7 21.6
308(9) 0.01058 294.7 23.2
297(9) 0.01059 294.7 24.8
311(9) 0.01019 294.7 26.1
303(9) 0.01061 294.6 27.2
308(9) 0.01091 294.6 27.8
318(10) 0.00956 294.6 28.0
325(10) 0.00951 294.6 27.5
324(10) 0.00981 294.6 26.6
294(9) 0.01119 294.6 25.3
329(9) 0.01022 294.5 23.8
312(9) 0.01023 294.5 22.2
323(10) 0.00952 294.5 20.6
303(9) 0.01033 294.5 19.1
298(9) 0.01135 294.5 17.7
298(9) 0.01129 294.5 16.4
291(9) 0.01082 294.4 15.2
311(10) 0.00933 294.4 14.2
300(10) 0.01007 294.4 13.3
293(9) 0.01127 294.4 12.6
284(9) 0.01158 294.4 12.0
292(9) 0.01048 294.4 11.4
286(9) 0.01039 294.4 11.0
316(9) 0.01025 294.3 10.6
302(9) 0.01090 294.3 10.3
301(9) 0.01101 294.3 10.0
289(9) 0.01122 294.3 9.8
295(10) 0.00986 294.3 9.7
303(10) 0.01002 294.3 9.5
279(9) 0.01197 294.2 9.4
297(9) 0.01098 294.2 9.3
305(10) 0.00988 294.2 9.3
297(10) 0.01003 294.2 9.2
299(9) 0.01042 294.2 9.2
307(9) 0.01101 294.2 9.2
322(9) 0.01015 294.1 9.2
289(9) 0.01077 294.1 9.2
295(10) 0.00985 294.1 9.2
302(9) 0.01028 294.1 9.2
292(9) 0.01151 294.1 9.2
310(9) 0.01045 294.1 9.3
287(9) 0.01098 294.0 9.3
309(10) 0.00981 294.0 9.4
297(9) 0.01101 294.0 9.5
308(9) 0.01076 294.0 9.6
288(9) 0.01109 294.0 9.7
302(9) 0.01032 294.0 9.8
291(9) 0.01095 293.9 9.9
303(9) 0.01039 293.9 10.0
299(9) 0.01124 293.9 10.1
287(9) 0.01111 293.9 10.3
313(10) 0.00955 293.9 10.5
306(10) 0.00980 293.9 10.6
304(9) 0.01032 293.8 10.8
295(9) 0.01131 293.8 11.0
310(9) 0.01027 293.8 11.2
337(10) 0.00928 293.8 11.4
306(9) 0.01047 293.8 11.7
292(9) 0.01114 293.8 11.9
305(9) 0.01094 293.7 12.2
303(9) 0.01047 293.7 12.4
313(10) 0.00997 293.7 12.7
289(9) 0.01133 293.7 13.0
296(9) 0.01106 293.7 13.2
307(9) 0.01089 293.7 13.5
287(9) 0.01057 293.6 13.8
278(9) 0.01023 293.6 14.0
310(10) 0.00995 293.6 14.3
300(9) 0.01099 293.6 14.5
291(9) 0.01131 293.6 14.7
316(10) 0.00974 293.6 15.0
311(10) 0.00969 293.5 15.2
308(9) 0.01034 293.5 15.4
303(9) 0.01102 293.5 15.6
302(9) 0.01112 293.5 15.9
308(9) 0.01025 293.5 16.1
289(9) 0.01061 293.5 16.4
301(9) 0.01080 293.5 16.6
328(9) 0.01023 293.4 16.9
301(9) 0.01096 293.4 17.2
305(9) 0.01020 293.4 17.5
286(9) 0.01044 293.4 17.8
316(10) 0.01005 293.4 18.2
338(10) 0.00997 293.4 18.5
317(9) 0.01053 293.3 18.8
312(10) 0.01000 293.3 19.2
320(10) 0.00907 293.3 19.6
328(10) 0.00929 293.3 20.0
303(9) 0.01122 293.3 20.3
323(9) 0.01011 293.3 20.7
332(10) 0.00939 293.2 21.1
284(9) 0.01134 293.2 21.5
316(10) 0.00992 293.2 21.9
349(10) 0.00966 293.2 22.3
345(10) 0.00941 293.2 22.7
324(10) 0.00971 293.2 23.1
314(9) 0.01012 293.1 23.4
313(9) 0.01051 293.1 23.8
336(10) 0.01001 293.1 24.1
319(10) 0.00980 293.1 24.5
300(9) 0.01010 293.1 24.8
333(10) 0.00926 293.1 25.1
328(10) 0.01002 293.0 25.3
339(10) 0.00999 293.0 25.6
313(10) 0.00984 293.0 25.8
301(10) 0.00986 293.0 26.0
301(9) 0.01038 293.0 26.2
321(9) 0.01017 293.0 26.3
305(9) 0.01099 292.9 26.4
316(9) 0.01016 292.9 26.5
323(10) 0.00944 292.9 26.6
328(10) 0.00942 292.9 26.6
314(9) 0.01043 292.9 26.6
314(9) 0.01063 292.9 26.6
323(10) 0.00971 292.8 26.6
305(10) 0.00979 292.8 26.6
306(9) 0.01020 292.8 26.5
314(9) 0.01059 292.8 26.5
302(9) 0.01108 292.8 26.4
323(10) 0.00966 292.8 26.3
323(10) 0.00928 292.7 26.2
322(10) 0.00963 292.7 26.1
326(9) 0.01020 292.7 26.0
324(9) 0.01031 292.7 26.0
306(9) 0.01055 292.7 25.9
300(10) 0.00982 292.7 25.8
307(9) 0.01036 292.6 25.7
304(9) 0.01097 292.6 25.5
311(9) 0.01081 292.6 25.4
298(9) 0.01042 292.6 25.3
315(10) 0.00941 292.6 25.1
330(10) 0.00972 292.6 24.9
292(9) 0.01143 292.6 24.6
316(9) 0.01054 292.5 24.4
304(9) 0.01024 292.5 24.0
300(10) 0.00996 292.5 23.6
286(9) 0.01089 292.5 23.2
292(9) 0.01144 292.5 22.7
323(9) 0.01016 292.5 22.3
306(9) 0.01052 292.4 21.7
296(9) 0.01050 292.4 21.2
306(10) 0.01007 292.4 20.7
295(9) 0.01120 292.4 20.2
281(9) 0.01183 292.4 19.8
347(10) 0.00872 292.4 19.3
320(10) 0.00953 292.3 18.9
318(10) 0.01000 292.3 18.5
339(10) 0.00994 292.3 18.1
322(9) 0.01030 292.3 17.8
312(10) 0.01001 292.3 17.5
287(9) 0.01095 292.3 17.3
290(9) 0.01096 292.2 17.1
304(9) 0.01108 292.2 16.9
292(9) 0.01081 292.2 16.8
311(10) 0.01007 292.2 16.8
322(9) 0.01008 292.2 16.8
316(9) 0.01039 292.2 17.0
302(9) 0.01104 292.1 17.1
324(10) 0.00935 292.1 17.4
300(9) 0.01013 292.1 17.7
303(9) 0.01022 292.1 18.0
313(9) 0.01024 292.1 18.4
311(9) 0.01081 292.1 18.9
278(9) 0.01127 292.0 19.3
317(10) 0.00913 292.0 19.6
311(10) 0.01007 292.0 19.8
330(10) 0.00970 292.0 19.8
309(9) 0.01087 292.0 19.7
305(9) 0.01037 292.0 19.3
283(9) 0.01060 291.9 18.8
314(10) 0.00988 291.9 18.2
300(9) 0.01109 291.9 17.4
306(9) 0.01095 291.9 16.7
282(9) 0.01142 291.9 16.0
297(10) 0.00955 291.9 15.2
283(9) 0.01068 291.8 14.6
292(9) 0.01154 291.8 14.0
287(9) 0.01154 291.8 13.5
301(9) 0.01066 291.8 13.0
320(10) 0.00914 291.8 12.6
275(9) 0.01155 291.8 12.2
298(9) 0.01123 291.7 12.0
318(9) 0.01044 291.7 11.7
307(9) 0.01056 291.7 11.5
314(10) 0.00942 291.7 11.3
304(9) 0.01031 291.7 11.2
282(9) 0.01182 291.7 11.1
313(9) 0.01050 291.7 11.0
310(9) 0.01031 291.6 10.9
336(10) 0.00899 291.6 10.8
321(10) 0.00979 291.6 10.8
288(9) 0.01159 291.6 10.7
296(9) 0.01074 291.6 10.7
317(10) 0.00988 291.6 10.7
300(9) 0.01028 291.5 10.7
285(9) 0.01082 291.5 10.7
314(9) 0.01066 291.5 10.7
280(9) 0.01150 291.5 10.8
311(10) 0.00959 291.5 10.8
289(9) 0.01065 291.5 10.9
301(9) 0.01065 291.4 11.0
296(9) 0.01129 291.4 11.2
287(9) 0.01119 291.4 11.4
286(9) 0.01055 291.4 11.6
298(9) 0.01028 291.4 11.8
314(9) 0.01024 291.4 12.1
314(9) 0.01063 291.3 12.4
303(9) 0.01021 291.3 12.7
293(9) 0.01016 291.3 13.1
301(10) 0.01002 291.3 13.5
317(9) 0.01022 291.3 13.9
317(9) 0.01042 291.3 14.4
319(10) 0.00955 291.2 14.8
295(9) 0.01029 291.2 15.3
296(9) 0.01060 291.2 15.8
297(9) 0.01107 291.2 16.3
308(9) 0.01080 291.2 16.8
295(9) 0.01060 291.2 17.3
305(10) 0.00980 291.1 17.8
318(10) 0.00982 291.1 18.2
326(9) 0.01017 291.1 18.6
290(9) 0.01150 291.1 19.0
308(10) 0.01004 291.1 19.3
298(9) 0.01031 291.1 19.7
294(9) 0.01055 291.0 20.0
301(9) 0.01118 291.0 20.3
289(9) 0.01134 291.0 20.7
314(10) 0.00994 291.0 21.0
302(10) 0.00988 291.0 21.3
317(10) 0.00973 291.0 21.6
335(9) 0.01009 290.9 21.9
325(9) 0.01012 290.9 22.0
349(10) 0.00911 290.9 22.1
303(9) 0.01015 290.9 22.0
332(10) 0.00965 290.9 21.7
332(9) 0.01022 290.9 21.4
304(9) 0.01095 290.8 21.0
282(9) 0.01141 290.8 20.5
294(9) 0.01020 290.8 20.1
293(9) 0.01099 290.8 19.6
345(10) 0.00977 290.8 19.2
329(10) 0.01006 290.8 18.9
302(9) 0.01071 290.8 18.6
319(10) 0.00994 290.7 18.3
310(9) 0.01017 290.7 18.1
335(10) 0.01003 290.7 17.9
329(10) 0.00990 290.7 17.8
299(9) 0.01034 290.7 17.7
318(10) 0.00941 290.7 17.6
301(9) 0.01080 290.6 17.5
325(9) 0.01025 290.6 17.4
314(9) 0.01009 290.6 17.3
348(10) 0.00877 290.6 17.2
319(10) 0.00945 290.6 17.1
294(9) 0.01051 290.6 16.9
298(9) 0.01127 290.5 16.7
315(9) 0.01034 290.5 16.5
291(9) 0.01115 290.5 16.3
310(9) 0.01013 290.5 16.0
332(10) 0.00968 290.5 15.7
355(10) 0.00949 290.5 15.4
325(10) 0.00934 290.4 15.1
310(10) 0.00965 290.4 14.7
273(9) 0.01184 290.4 14.4
317(9) 0.01036 290.4 14.0
316(9) 0.01063 290.4 13.6
301(9) 0.01041 290.4 13.2
316(10) 0.00945 290.3 12.8
308(10) 0.00994 290.3 12.4
312(9) 0.01062 290.3 12.0
288(9) 0.01173 290.3 11.6
329(10) 0.00970 290.3 11.2
303(9) 0.01014 290.3 10.8
322(10) 0.01002 290.2 10.4
319(9) 0.01053 290.2 10.1
307(9) 0.01091 290.2 9.7
320(10) 0.00995 290.2 9.4
301(10) 0.00952 290.2 9.1
282(9) 0.01152 290.2 8.7
297(9) 0.01134 290.1 8.4
302(9) 0.01114 290.1 8.1
307(9) 0.01083 290.1 7.9
321(10) 0.00954 290.1 7.6
305(9) 0.01019 290.1 7.3
280(9) 0.01193 290.1 7.1
323(9) 0.01012 290.0 6.9
300(9) 0.01081 290.0 6.7
310(10) 0.00975 290.0 6.5
284(9) 0.01089 290.0 6.3
291(9) 0.01142 290.0 6.1
263(9) 0.01219 290.0 5.9
298(9) 0.01067 289.9 5.7
305(10) 0.00980 289.9 5.6
295(10) 0.01007 289.9 5.4
302(9) 0.01093 289.9 5.3
308(9) 0.01078 289.9 5.2
305(9) 0.01064 289.9 5.0
305(10) 0.00992 289.9 4.9
287(9) 0.01074 289.8 4.8
279(9) 0.01190 289.8 4.7
302(9) 0.01097 289.8 4.6
302(9) 0.01076 289.8 4.5
289(9) 0.01098 289.8 4.4
280(9) 0.01133 289.8 4.3
293(9) 0.01143 289.7 4.2
284(9) 0.01099 289.7 4.2
296(10) 0.00989 289.7 4.1
273(9) 0.01174 289.7 4.0
306(9) 0.01052 289.7 4.0
288(9) 0.01160 289.7 3.9
303(9) 0.01049 289.6 3.8
287(9) 0.01048 289.6 3.8
280(9) 0.01120 289.6 3.7
300(9) 0.01101 289.6 3.7
291(9) 0.01155 289.6 3.6
300(9) 0.01029 289.6 3.6
284(9) 0.01055 289.5 3.5
285(9) 0.01105 289.5 3.5
306(9) 0.01098 289.5 3.4
295(9) 0.01133 289.5 3.4
300(9) 0.01074 289.5 3.4
304(10) 0.01007 289.5 3.3
292(9) 0.01078 289.4 3.3
291(9) 0.01137 289.4 3.3
295(9) 0.01131 289.4 3.2
285(9) 0.01125 289.4 3.2
282(9) 0.01049 289.4 3.2
268(9) 0.01183 289.4 3.2
294(9) 0.01114 289.3 3.1
313(9) 0.01070 289.3 3.1
281(9) 0.01123 289.3 3.1
299(10) 0.00977 289.3 3.1
301(10) 0.00983 289.3 3.1
288(9) 0.01143 289.3 3.0
283(9) 0.01167 289.2 3.0
305(9) 0.01026 289.2 3.0
301(9) 0.01020 289.2 3.0
302(9) 0.01030 289.2 3.0
295(9) 0.01144 289.2 3.0
306(9) 0.01078 289.2 3.0
268(9) 0.01133 289.1 2.9
288(10) 0.00984 289.1 2.9
281(9) 0.01102 289.1 2.9
310(9) 0.01077 289.1 2.9
287(9) 0.01149 289.1 2.9
287(9) 0.01109 289.1 2.9
294(9) 0.01037 289.0 2.9
295(9) 0.01067 289.0 2.9
280(9) 0.01191 289.0 2.9
284(9) 0.01088 289.0 2.9
302(10) 0.00988 289.0 2.9
315(10) 0.00965 289.0 2.9
254(8) 0.01256 289.0 2.9
284(9) 0.01171 288.9 2.9
282(9) 0.01101 288.9 2.9
290(9) 0.01070 288.9 2.9
303(9) 0.01061 288.9 2.9
292(9) 0.01111 288.9 2.9
303(9) 0.01113 288.9 2.9
279(9) 0.01131 288.8 2.9
295(9) 0.01023 288.8 2.9
290(9) 0.01098 288.8 2.9
315(9) 0.01044 288.8 2.9
299(9) 0.01116 288.8 2.9
325(10) 0.00961 288.8 2.9
318(10) 0.00942 288.7 3.0
296(9) 0.01072 288.7 3.0
303(9) 0.01085 288.7 3.0
281(9) 0.01177 288.7 3.0
301(9) 0.01018 288.7 3.0
279(9) 0.01079 288.7 3.0
255(8) 0.01250 288.6 3.0
298(9) 0.01099 288.6 3.1
293(9) 0.01132 288.6 3.1
285(9) 0.01085 288.6 3.1
281(9) 0.01061 288.6 3.1
308(9) 0.01034 288.6 3.1
275(9) 0.01222 288.5 3.2
277(9) 0.01192 288.5 3.2
292(9) 0.01065 288.5 3.2
274(9) 0.01137 288.5 3.2
296(9) 0.01073 288.5 3.3
275(9) 0.01212 288.5 3.3
294(9) 0.01100 288.4 3.3
268(9) 0.01126 288.4 3.4
282(9) 0.01037 288.4 3.4
275(9) 0.01145 288.4 3.5
289(9) 0.01172 288.4 3.5
297(9) 0.01077 288.4 3.5
277(9) 0.01145 288.4 3.6
292(9) 0.01023 288.4 3.6
304(10) 0.01003 288.4 3.7
266(8) 0.01246 288.4 3.7
290(9) 0.01109 288.4 3.8
285(9) 0.01064 288.4 3.8
262(9) 0.01186 288.3 3.9
306(9) 0.01019 288.3 3.9
299(9) 0.01110 288.3 4.0
290(9) 0.01121 288.3 4.1
276(9) 0.01148 288.3 4.1
288(9) 0.01061 288.3 4.2
289(9) 0.01091 288.3 4.3
307(9) 0.01095 288.3 4.4
294(9) 0.01078 288.3 4.4
294(9) 0.01015 288.3 4.5
286(9) 0.01062 288.3 4.6
285(9) 0.01109 288.3 4.7
305(9) 0.01098 288.3 4.8
301(9) 0.01053 288.3 4.9
292(9) 0.01056 288.3 4.9
275(9) 0.01128 288.3 5.0
287(9) 0.01097 288.3 5.1
331(9) 0.01031 288.3 5.2
292(9) 0.01064 288.3 5.3
285(9) 0.01035 288.3 5.4
296(9) 0.01080 288.3 5.5
309(9) 0.01060 288.3 5.7
291(9) 0.01157 288.3 5.8
299(9) 0.01061 288.3 5.9
304(10) 0.00967 288.3 6.0
312(10) 0.00988 288.3 6.1
293(9) 0.01133 288.3 6.2
304(9) 0.01114 288.3 6.3
297(9) 0.01038 288.3 6.4
287(9) 0.01043 288.3 6.5
274(9) 0.01175 288.3 6.6
300(9) 0.01125 288.3 6.7
286(9) 0.01190 288.3 6.8
299(9) 0.01054 288.2 6.9
325(10) 0.00898 288.2 6.9
286(9) 0.01105 288.2 7.0
291(9) 0.01117 288.2 7.1
298(9) 0.01108 288.2 7.1
273(9) 0.01113 288.2 7.2
279(9) 0.01085 288.2 7.2
289(9) 0.01075 288.2 7.3
283(9) 0.01171 288.2 7.3
290(9) 0.01139 288.2 7.3
308(10) 0.00955 288.2 7.3
261(9) 0.01135 288.2 7.4
281(9) 0.01131 288.2 7.4
298(9) 0.01111 288.2 7.4
297(9) 0.01089 288.2 7.4
293(9) 0.01078 288.2 7.4
301(9) 0.01020 288.2 7.4
298(9) 0.01097 288.2 7.4
298(9) 0.01117 288.2 7.4
293(9) 0.01109 288.2 7.4
278(9) 0.01123 288.2 7.4
301(10) 0.01007 288.2 7.4
290(9) 0.01055 288.2 7.4
285(9) 0.01170 288.2 7.4
295(9) 0.01102 288.2 7.5
299(9) 0.01058 288.2 7.5
301(10) 0.00996 288.2 7.5
289(9) 0.01090 288.2 7.5
264(8) 0.01247 288.2 7.6
290(9) 0.01094 288.2 7.6
285(9) 0.01079 288.2 7.7
285(9) 0.01074 288.2 7.7
269(9) 0.01198 288.2 7.8
286(9) 0.01146 288.1 7.8
320(10) 0.00992 288.1 7.9
314(9) 0.01024 288.1 8.0
297(9) 0.01057 288.1 8.1
294(9) 0.01118 288.1 8.2
284(9) 0.01166 288.1 8.3
300(9) 0.01045 288.1 8.4
288(9) 0.01083 288.1 8.6
302(9) 0.01024 288.1 8.7
305(9) 0.01058 288.1 8.9
288(9) 0.01155 288.1 9.0
275(9) 0.01119 288.1 9.2
315(10) 0.00918 288.1 9.4
302(9) 0.01043 288.1 9.6
316(9) 0.01065 288.1 9.8
299(9) 0.01109 288.1 10.0
299(9) 0.01032 288.1 10.3
305(10) 0.00971 288.1 10.5
283(9) 0.01104 288.1 10.8
289(9) 0.01161 288.1 11.1
320(9) 0.01030 288.1 11.4
286(9) 0.01083 288.1 11.8
279(9) 0.01036 288.1 12.1
306(9) 0.01014 288.1 12.5
295(9) 0.01132 288.1 12.9
310(9) 0.01051 288.1 13.3
287(9) 0.01069 288.1 13.8
296(9) 0.01016 288.1 14.2
286(9) 0.01109 288.1 14.7
302(9) 0.01096 288.1 15.2
290(9) 0.01126 288.1 15.7
275(9) 0.01169 288.1 16.2
285(9) 0.01052 288.1 16.8
291(9) 0.01064 288.0 17.3
336(10) 0.01003 288.0 17.8
305(9) 0.01077 288.0 18.4
317(10) 0.00981 288.0 18.9
286(9) 0.01105 288.0 19.4
305(9) 0.01050 288.0 19.9
317(9) 0.01078 288.0 20.3
301(9) 0.01089 288.0 20.7
328(10) 0.00951 288.0 21.1
300(9) 0.01041 288.0 21.4
326(10) 0.00949 288.0 21.6
304(9) 0.01098 288.0 21.7
295(9) 0.01094 288.0 21.8
319(10) 0.00970 288.0 21.9
293(9) 0.01072 288.0 21.8
316(9) 0.01043 288.0 21.7
320(9) 0.01045 288.0 21.5
295(9) 0.01089 288.0 21.3
316(10) 0.00967 288.0 21.0
321(10) 0.00976 288.0 20.7
345(10) 0.00945 288.0 20.4
314(9) 0.01074 288.0 20.0
299(9) 0.01095 288.0 19.6
328(10) 0.00956 288.0 19.2
326(10) 0.01002 288.0 18.8
330(9) 0.01015 288.0 18.4
291(9) 0.01150 288.0 18.0
306(9) 0.01047 288.0 17.6
313(10) 0.00965 288.0 17.2
300(9) 0.01075 288.0 16.9
313(9) 0.01094 288.0 16.5
295(9) 0.01115 288.0 16.2
296(9) 0.01082 288.0 15.9
274(9) 0.01084 287.9 15.7
286(9) 0.01127 287.9 15.4
324(9) 0.01038 287.9 15.2
300(9) 0.01100 287.9 15.1
314(10) 0.01000 287.9 14.9
319(10) 0.00883 287.9 14.8
276(9) 0.01099 287.9 14.8
291(9) 0.01145 287.9 14.8
298(9) 0.01083 287.9 14.8
299(9) 0.01078 287.9 14.9
287(9) 0.01070 287.9 15.1
278(9) 0.01114 287.9 15.3
296(9) 0.01122 287.9 15.5
302(9) 0.01100 287.9 15.7
297(9) 0.01050 287.9 16.0
293(9) 0.01099 287.9 16.3
313(9) 0.01026 287.9 16.6
331(9) 0.01009 287.9 16.9
322(9) 0.01024 287.9 17.0
305(9) 0.01009 287.9 17.1
294(9) 0.01018 287.9 17.1
281(9) 0.01098 287.9 16.9
327(9) 0.01020 287.9 16.6
300(9) 0.01061 287.9 16.2
278(9) 0.01117 287.9 15.6
294(9) 0.01027 287.9 15.0
284(9) 0.01123 287.9 14.4
297(9) 0.01132 287.9 13.7
310(9) 0.01035 287.9 13.1
307(9) 0.01045 287.9 12.5
311(10) 0.00991 287.9 11.9
291(9) 0.01083 287.9 11.4
308(9) 0.01070 287.9 10.8
291(9) 0.01105 287.9 10.4
284(9) 0.01061 287.8 9.9
268(9) 0.01184 287.8 9.6
300(9) 0.01059 287.8 9.2
308(9) 0.01071 287.8 8.9
283(9) 0.01117 287.8 8.6
283(9) 0.01029 287.8 8.3
307(10) 0.00998 287.8 8.0
296(9) 0.01110 287.8 7.8
292(9) 0.01152 287.8 7.6
312(10) 0.01000 287.8 7.4
315(10) 0.00944 287.8 7.2
266(9) 0.01221 287.8 7.0
310(9) 0.01049 287.8 6.9
296(9) 0.01131 287.8 6.7
291(9) 0.01093 287.8 6.6
300(10) 0.01002 287.8 6.4
280(9) 0.01134 287.8 6.3
283(9) 0.01168 287.8 6.2
281(9) 0.01166 287.8 6.1
280(9) 0.01158 287.8 6.0
316(10) 0.00944 287.8 5.8
290(9) 0.01098 287.8 5.7
286(9) 0.01161 287.8 5.6
299(9) 0.01104 287.8 5.5
277(9) 0.01103 287.8 5.5
293(10) 0.00994 287.8 5.4
306(9) 0.01030 287.8 5.3
291(9) 0.01140 287.8 5.2
280(9) 0.01180 287.8 5.1
291(9) 0.01101 287.8 5.1
305(10) 0.00993 287.8 5.0
273(9) 0.01169 287.8 4.9
290(9) 0.01156 287.8 4.9
308(9) 0.01022 287.7 4.8
310(10) 0.00999 287.7 4.7
289(9) 0.01056 287.7 4.7
302(9) 0.01029 287.7 4.6
285(9) 0.01177 287.7 4.6
302(9) 0.01057 287.7 4.5
255(9) 0.01209 287.7 4.5
280(9) 0.01107 287.7 4.5
294(9) 0.01057 287.7 4.4
316(9) 0.01060 287.7 4.4
331(10) 0.00969 287.7 4.3
313(10) 0.01000 287.7 4.3
293(9) 0.01081 287.7 4.3
282(9) 0.01157 287.7 4.3
307(9) 0.01088 287.7 4.2
297(9) 0.01072 287.7 4.2
284(9) 0.01086 287.7 4.2
309(9) 0.01029 287.7 4.2
309(9) 0.01062 287.7 4.2
300(9) 0.01104 287.7 4.2
276(9) 0.01153 287.7 4.1
247(8) 0.01258 287.7 4.1
295(9) 0.01070 287.7 4.1
293(9) 0.01091 287.7 4.1
294(9) 0.01149 287.7 4.1
307(9) 0.01027 287.7 4.1
286(9) 0.01035 287.7 4.2
279(9) 0.01104 287.7 4.2
276(9) 0.01175 287.7 4.2
291(9) 0.01141 287.7 4.2
262(9) 0.01191 287.7 4.2
291(10) 0.01000 287.7 4.3
275(9) 0.01130 287.7 4.3
282(9) 0.01096 287.6 4.3
290(9) 0.01169 287.6 4.4
308(9) 0.01016 287.6 4.4
278(9) 0.01089 287.6 4.5
300(9) 0.01065 287.6 4.6
293(9) 0.01139 287.6 4.6
313(9) 0.01058 287.6 4.7
277(9) 0.01106 287.6 4.8
306(10) 0.00924 287.6 4.9
299(9) 0.01041 287.6 5.0
290(9) 0.01158 287.6 5.2
288(9) 0.01126 287.6 5.3
290(9) 0.01076 287.6 5.4
288(9) 0.01047 287.6 5.6
291(9) 0.01059 287.6 5.8
280(9) 0.01169 287.6 6.0
275(9) 0.01202 287.6 6.2
289(9) 0.01061 287.6 6.4
274(9) 0.01114 287.6 6.6
318(10) 0.00963 287.6 6.8
297(9) 0.01128 287.6 7.1
299(9) 0.01091 287.6 7.3
280(9) 0.01131 287.6 7.6
318(10) 0.00935 287.6 7.8
289(9) 0.01094 287.6 8.0
283(9) 0.01175 287.6 8.1
287(9) 0.01105 287.6 8.3
291(9) 0.01088 287.6 8.4
300(9) 0.01019 287.6 8.4
282(9) 0.01135 287.6 8.4
269(8) 0.01235 287.6 8.3
284(9) 0.01078 287.6 8.2
294(9) 0.01028 287.6 8.1
312(10) 0.00975 287.5 7.9
294(9) 0.01094 287.5 7.8
292(9) 0.01144 287.5 7.6
312(10) 0.00999 287.5 7.5
293(9) 0.01084 287.5 7.3
311(9) 0.01040 287.5 7.2
307(9) 0.01057 287.5 7.1
285(9) 0.01153 287.5 6.9
297(9) 0.01050 287.5 6.9
302(10) 0.01003 287.5 6.8
304(9) 0.01038 287.5 6.7
293(9) 0.01097 287.5 6.7
317(9) 0.01069 287.5 6.6
303(9) 0.01043 287.5 6.6
294(10) 0.00988 287.5 6.6
298(9) 0.01035 287.5 6.6
324(9) 0.01037 287.5 6.6
317(9) 0.01045 287.5 6.6
298(9) 0.01043 287.5 6.6
294(10) 0.00984 287.5 6.7
281(9) 0.01121 287.5 6.7
318(9) 0.01030 287.5 6.8
317(9) 0.01077 287.5 6.8
291(9) 0.01109 287.5 6.9
298(10) 0.00969 287.5 6.9
302(9) 0.01030 287.5 7.0
295(9) 0.01132 287.5 7.1
274(9) 0.01196 287.5 7.1
297(9) 0.01036 287.5 7.2
297(9) 0.01033 287.5 7.3
304(9) 0.01063 287.5 7.3
284(9) 0.01173 287.5 7.4
316(9) 0.01046 287.5 7.5
323(9) 0.01009 287.4 7.6
276(9) 0.01172 287.4 7.7
302(9) 0.01043 287.4 7.7
297(9) 0.01116 287.4 7.8
319(10) 0.00999 287.4 7.9
300(9) 0.01030 287.4 8.0
300(9) 0.01026 287.4 8.0
301(9) 0.01067 287.4 8.1
299(9) 0.01115 287.4 8.2
302(9) 0.01063 287.4 8.2
293(9) 0.01095 287.4 8.3
305(9) 0.01025 287.4 8.3
295(9) 0.01097 287.4 8.4
303(9) 0.01107 287.4 8.4
308(9) 0.01035 287.4 8.5
286(9) 0.01085 287.4 8.5
334(10) 0.00906 287.4 8.6
302(9) 0.01045 287.4 8.6
260(8) 0.01249 287.4 8.6
312(10) 0.00999 287.4 8.6
321(10) 0.00955 287.4 8.7
301(10) 0.01006 287.4 8.7
287(9) 0.01153 287.4 8.7
305(9) 0.01079 287.4 8.7
287(9) 0.01071 287.4 8.7
302(9) 0.01026 287.4 8.7
313(10) 0.01005 287.4 8.7
311(9) 0.01070 287.4 8.7
310(9) 0.01087 287.4 8.6
307(9) 0.01028 287.4 8.6
294(9) 0.01024 287.4 8.6
283(9) 0.01096 287.4 8.6
307(9) 0.01083 287.4 8.5
297(9) 0.01125 287.4 8.5
328(10) 0.00907 287.3 8.4
279(9) 0.01072 287.3 8.4
302(9) 0.01066 287.3 8.4
312(9) 0.01070 287.3 8.3
292(9) 0.01109 287.3 8.3
291(9) 0.01093 287.3 8.2
314(10) 0.00935 287.3 8.1
297(9) 0.01015 287.3 8.1
308(9) 0.01091 287.3 8.0
292(9) 0.01130 287.3 8.0
290(9) 0.01114 287.3 7.9
320(10) 0.00916 287.3 7.9
294(9) 0.01081 287.3 7.8
314(9) 0.01033 287.3 7.7
285(9) 0.01171 287.3 7.7
303(9) 0.01042 287.3 7.6
315(10) 0.00972 287.3 7.5
305(9) 0.01035 287.3 7.5
303(9) 0.01106 287.3 7.4
303(9) 0.01054 287.3 7.4
296(9) 0.01028 287.3 7.3
305(10) 0.00997 287.3 7.2
279(9) 0.01115 287.3 7.2
284(9) 0.01165 287.3 7.1
308(9) 0.01044 287.3 7.1
286(9) 0.01086 287.3 7.0
305(10) 0.01007 287.3 7.0
321(10) 0.00995 287.3 6.9
302(9) 0.01106 287.3 6.8
300(9) 0.01066 287.3 6.8
306(10) 0.01001 287.3 6.7
297(9) 0.01011 287.3 6.7
283(9) 0.01121 287.3 6.6
295(9) 0.01132 287.2 6.6
274(9) 0.01149 287.2 6.5
289(9) 0.01015 287.2 6.4
275(9) 0.01139 287.2 6.4
281(9) 0.01189 287.2 6.3
300(9) 0.01112 287.2 6.3
291(9) 0.01039 287.2 6.2
289(9) 0.01042 287.2 6.2
279(9) 0.01158 287.2 6.1
305(9) 0.01079 287.2 6.0
302(9) 0.01089 287.2 6.0
288(9) 0.01091 287.2 5.9
283(9) 0.01054 287.2 5.9
274(9) 0.01149 287.2 5.8
284(9) 0.01143 287.2 5.7
274(9) 0.01214 287.2 5.7
320(10) 0.00959 287.2 5.6
318(10) 0.00945 287.2 5.6
313(9) 0.01013 287.2 5.5
299(9) 0.01122 287.2 5.4
326(9) 0.01015 287.2 5.4
284(9) 0.01126 287.2 5.3
285(9) 0.01030 287.2 5.3
297(9) 0.01065 287.2 5.2
293(9) 0.01112 287.2 5.1
279(9) 0.01182 287.2 5.1
285(9) 0.01086 287.2 5.0
284(9) 0.01070 287.2 5.0
288(9) 0.01099 287.2 4.9
307(9) 0.01089 287.2 4.9
294(9) 0.01120 287.2 4.8
273(9) 0.01181 287.2 4.8
289(10) 0.00990 287.2 4.7
293(9) 0.01051 287.1 4.7
277(9) 0.01193 287.1 4.6
290(9) 0.01118 287.1 4.6
284(9) 0.01114 287.1 4.6
276(9) 0.01037 287.1 4.5
300(10) 0.00999 287.1 4.5
310(9) 0.01079 287.1 4.5
293(9) 0.01065 287.1 4.4
279(9) 0.01139 287.1 4.4
307(10) 0.00992 287.1 4.4
294(9) 0.01082 287.1 4.3
296(9) 0.01138 287.1 4.3
316(9) 0.01020 287.1 4.3
295(9) 0.01048 287.1 4.2
289(9) 0.01064 287.1 4.2
303(9) 0.01036 287.1 4.2
302(9) 0.01109 287.1 4.2
313(9) 0.01011 287.1 4.2
295(9) 0.01048 287.1 4.2
303(9) 0.01048 287.1 4.1
299(9) 0.01111 287.1 4.1
284(9) 0.01168 287.1 4.1
304(9) 0.01025 287.1 4.1
277(9) 0.01078 287.1 4.1
298(9) 0.01009 287.1 4.1
267(9) 0.01200 287.1 4.1
287(9) 0.01169 287.1 4.1
282(9) 0.01124 287.1 4.1
280(9) 0.01113 287.1 4.1
293(9) 0.01115 287.1 4.1
290(9) 0.01155 287.1 4.1
293(9) 0.01137 287.1 4.1
279(9) 0.01137 287.1 4.1
286(9) 0.01018 287.0 4.1
293(9) 0.01051 287.0 4.1
275(9) 0.01192 287.0 4.1
313(9) 0.01077 287.0 4.1
285(9) 0.01113 287.0 4.1
263(9) 0.01091 287.0 4.2
294(9) 0.01034 287.0 4.2
282(9) 0.01173 287.0 4.2
277(9) 0.01181 287.0 4.2
311(10) 0.01004 287.0 4.2
301(10) 0.01001 287.0 4.2
300(9) 0.01067 287.0 4.3
271(9) 0.01219 287.0 4.3
286(9) 0.01138 287.0 4.3
288(9) 0.01117 287.0 4.3
300(9) 0.01021 287.1 4.4
308(9) 0.01009 287.1 4.4
294(9) 0.01132 287.1 4.4
306(9) 0.01056 287.2 4.4
302(9) 0.01071 287.2 4.5
313(10) 0.00957 287.2 4.5
265(9) 0.01177 287.3 4.5
286(9) 0.01162 287.3 4.6
281(9) 0.01122 287.3 4.6
282(9) 0.01110 287.4 4.7
322(10) 0.00922 287.4 4.7
294(9) 0.01078 287.4 4.7
275(9) 0.01209 287.5 4.8
286(9) 0.01097 287.5 4.8
276(9) 0.01118 287.5 4.9
293(9) 0.01031 287.6 4.9
284(9) 0.01064 287.6 5.0
280(9) 0.01172 287.6 5.0
265(9) 0.01227 287.7 5.1
286(9) 0.01088 287.7 5.1
309(10) 0.00979 287.7 5.2
290(9) 0.01122 287.8 5.2
292(9) 0.01139 287.8 5.3
300(9) 0.01026 287.8 5.3
312(10) 0.00957 287.8 5.4
300(9) 0.01019 287.9 5.5
264(8) 0.01244 287.9 5.5
269(8) 0.01241 287.9 5.6
286(9) 0.01103 288.0 5.7
308(10) 0.00990 288.0 5.7
299(9) 0.01027 288.0 5.8
279(9) 0.01143 288.1 5.9
293(9) 0.01147 288.1 5.9
283(9) 0.01099 288.1 6.0
289(9) 0.01019 288.2 6.1
294(9) 0.01064 288.2 6.1
284(9) 0.01129 288.2 6.2
272(8) 0.01232 288.3 6.3
288(9) 0.01095 288.3 6.4
297(10) 0.00992 288.3 6.4
274(9) 0.01180 288.4 6.5
299(9) 0.01110 288.4 6.6
296(9) 0.01112 288.4 6.7
273(9) 0.01137 288.5 6.8
284(9) 0.01013 288.5 6.8
293(9) 0.01056 288.5 6.9
282(9) 0.01181 288.6 7.0
286(9) 0.01141 288.6 7.1
289(9) 0.01115 288.6 7.2
272(9) 0.01136 288.7 7.2
293(9) 0.01055 288.7 7.3
300(9) 0.01095 288.7 7.4
277(9) 0.01203 288.7 7.5
277(9) 0.01108 288.8 7.6
294(9) 0.01029 288.8 7.7
293(9) 0.01043 288.8 7.8
314(9) 0.01066 288.9 7.9
276(9) 0.01152 288.9 8.0
286(9) 0.01082 288.9 8.0
280(9) 0.01122 289.0 8.1
288(9) 0.01095 289.0 8.3
304(9) 0.01104 289.0 8.4
308(9) 0.01040 289.1 8.5
290(9) 0.01097 289.1 8.6
284(9) 0.01103 289.1 8.7
308(9) 0.01050 289.2 8.8
289(9) 0.01152 289.2 9.0
321(10) 0.00975 289.2 9.1
279(9) 0.01079 289.3 9.3
293(9) 0.01033 289.3 9.5
299(9) 0.01055 289.3 9.6
299(9) 0.01131 289.4 9.8
292(9) 0.01086 289.4 10.0
301(9) 0.01011 289.4 10.2
291(9) 0.01052 289.5 10.4
308(9) 0.01056 289.5 10.7
291(9) 0.01149 289.5 10.9
287(9) 0.01068 289.5 11.1
293(9) 0.01026 289.6 11.3
291(9) 0.01092 289.6 11.5
318(9) 0.01033 289.6 11.6
327(9) 0.01021 289.7 11.7
302(9) 0.01057 289.7 11.8
301(10) 0.00993 289.7 11.8
304(10) 0.00998 289.8 11.7
276(9) 0.01190 289.8 11.6
270(8) 0.01232 289.8 11.5
279(9) 0.01083 289.9 11.4
284(10) 0.01001 289.9 11.2
254(8) 0.01247 289.9 11.0
300(9) 0.01115 290.0 10.9
311(9) 0.01082 290.0 10.7
295(9) 0.01087 290.0 10.5
307(10) 0.00953 290.1 10.4
286(9) 0.01123 290.1 10.3
318(9) 0.01060 290.1 10.2
301(9) 0.01103 290.2 10.1
305(9) 0.01028 290.2 10.0
304(10) 0.00947 290.2 10.0
322(10) 0.00960 290.3 9.9
302(9) 0.01117 290.3 9.9
297(9) 0.01110 290.3 9.9
262(8) 0.01238 290.4 9.9
281(9) 0.01076 290.4 9.9
279(9) 0.01104 290.4 10.0
305(9) 0.01093 290.4 10.0
277(9) 0.01172 290.5 10.1
279(9) 0.01100 290.5 10.2
301(10) 0.00970 290.5 10.3
309(10) 0.00983 290.6 10.4
315(9) 0.01063 290.6 10.5
297(9) 0.01058 290.6 10.7
283(9) 0.01017 290.7 10.8
253(9) 0.01164 290.7 11.0
274(9) 0.01125 290.7 11.1
290(9) 0.01153 290.8 11.3
284(9) 0.01146 290.8 11.5
307(9) 0.01022 290.8 11.7
300(9) 0.01046 290.9 12.0
296(9) 0.01100 290.9 12.2
274(9) 0.01213 290.9 12.4
294(9) 0.01065 291.0 12.7
289(9) 0.01066 291.0 13.0
285(9) 0.01118 291.0 13.3
282(9) 0.01165 291.1 13.6
292(9) 0.01145 291.1 13.9
284(9) 0.01095 291.1 14.2
304(10) 0.00980 291.2 14.5
328(10) 0.00969 291.2 14.8
313(9) 0.01039 291.2 15.2
318(9) 0.01054 291.2 15.5
333(10) 0.00966 291.3 15.8
314(10) 0.00959 291.3 16.1
319(10) 0.00986 291.3 16.4
306(9) 0.01090 291.4 16.7
317(9) 0.01062 291.4 16.9
306(9) 0.01046 291.4 17.1
315(10) 0.00949 291.5 17.2
297(9) 0.01093 291.5 17.2
294(9) 0.01125 291.5 17.2
304(9) 0.01095 291.6 17.1
305(9) 0.01038 291.6 17.0
287(9) 0.01016 291.6 16.8
295(9) 0.01065 291.7 16.5
321(9) 0.01033 291.7 16.3
299(9) 0.01088 291.7 16.0
281(9) 0.01113 291.8 15.7
288(9) 0.01073 291.8 15.4
328(10) 0.00968 291.8 15.1
312(9) 0.01065 291.9 14.8
325(9) 0.01031 291.9 14.5
298(9) 0.01077 291.9 14.3
308(10) 0.00998 292.0 14.0
301(9) 0.01071 292.0 13.8
318(9) 0.01058 292.0 13.6
313(9) 0.01049 292.1 13.4
286(9) 0.01100 292.1 13.2
285(9) 0.01049 292.1 13.0
291(9) 0.01094 292.1 12.8
312(9) 0.01079 292.2 12.7
309(9) 0.01061 292.2 12.5
302(9) 0.01051 292.2 12.4
321(10) 0.00945 292.3 12.3
316(10) 0.00985 292.3 12.2
327(9) 0.01045 292.3 12.1
298(9) 0.01074 292.4 12.0
301(10) 0.01000 292.4 11.9
277(9) 0.01109 292.4 11.8
295(9) 0.01106 292.5 11.7
300(9) 0.01127 292.5 11.6
300(9) 0.01069 292.5 11.5
283(9) 0.01104 292.6 11.3
281(9) 0.01062 292.6 11.2
286(9) 0.01140 292.6 11.1
286(9) 0.01147 292.7 10.9
284(9) 0.01107 292.7 10.7
286(9) 0.01060 292.7 10.6
296(9) 0.01051 292.8 10.4
311(9) 0.01050 292.8 10.3
306(9) 0.01101 292.8 10.1
281(9) 0.01116 292.9 10.0
285(9) 0.01064 292.9 9.8
287(9) 0.01106 292.9 9.7
292(9) 0.01089 292.9 9.5
293(9) 0.01139 293.0 9.4
270(9) 0.01188 293.0 9.3
287(9) 0.01049 293.0 9.2
288(9) 0.01087 293.1 9.0
288(9) 0.01137 293.1 8.9
301(9) 0.01113 293.1 8.8
295(9) 0.01029 293.2 8.7
295(10) 0.00948 293.2 8.6
302(9) 0.01023 293.2 8.6
284(9) 0.01177 293.3 8.5
304(9) 0.01113 293.3 8.4
281(9) 0.01152 293.3 8.3
297(10) 0.00978 293.4 8.3
305(9) 0.01033 293.4 8.2
306(9) 0.01090 293.4 8.1
284(9) 0.01182 293.5 8.1
297(9) 0.01043 293.5 8.0
290(9) 0.01040 293.5 8.0
298(9) 0.01054 293.6 8.0
289(9) 0.01156 293.6 7.9
281(9) 0.01166 293.6 7.9
287(9) 0.01057 293.7 7.9
309(10) 0.00992 293.7 7.9
274(9) 0.01190 293.7 7.9
274(9) 0.01217 293.8 7.8
301(9) 0.01073 293.8 7.8
292(9) 0.01070 293.8 7.8
303(10) 0.00987 293.8 7.8
315(10) 0.00992 293.8 7.9
292(9) 0.01138 293.8 7.9
284(9) 0.01135 293.8 7.9
302(10) 0.00996 293.8 7.9
276(9) 0.01102 293.8 7.9
274(9) 0.01171 293.8 8.0
284(9) 0.01180 293.8 8.0
268(9) 0.01201 293.8 8.0
283(9) 0.01059 293.8 8.1
306(9) 0.01010 293.8 8.1
296(9) . . .
311(9) . . .
286(9) . . .
257(9) . . .
296(9) . . .
296(9) . . .
284(9) . . .
275(9) . . .
302(10) . . .
287(9) . . .
286(9) . . .
284(9) . . .
267(9) . . .
304(10) . . .
305(9) . . .
308(9) . . .
285(9) . . .
288(9) . . .
287(9) . . .
302(9) . . .
285(9) . . .
298(9) . . .
286(9) . . .
285(9) . . .
281(9) . . .
311(9) . . .
294(9) . . .
288(9) . . .
291(9) . . .
276(9) . . .
277(9) . . .
277(9) . . .
279(9) . . .
301(10) . . .
307(10) . . .
299(9) . . .
312(9) . . .
286(9) . . .
286(9) . . .
294(9) . . .
294(9) . . .
291(9) . . .
277(9) . . .
273(9) . . .
291(9) . . .
291(9) . . .
292(9) . . .
320(10) . . .
285(9) . . .
292(9) . . .
298(9) . . .
303(9) . . .
318(10) . . .
298(9) . . .
294(9) . . .
296(9) . . .
303(10) . . .
271(9) . . .
289(9) . . .
303(9) . . .
282(9) . . .
276(9) . . .
275(9) . . .
304(9) . . .
287(9) . . .
301(9) . . .
314(9) . . .
310(10) . . .
304(9) . . .
272(9) . . .
303(9) . . .
312(10) . . .
272(9) . . .
299(9) . . .
283(9) . . .
277(9) . . .
303(9) . . .
289(9) . . .
278(9) . . .
294(9) . . .
281(9) . . .
277(9) . . .
289(9) . . .
277(9) . . .
302(9) . . .
280(9) . . .
288(9) . . .
307(10) . . .
304(9) . . .
282(9) . . .
301(9) . . .
304(10) . . .
273(9) . . .
286(9) . . .
278(9) . . .
269(9) . . .
308(10) . . .
276(9) . . .
290(9) . . .
277(9) . . .
303(9) . . .
284(9) . . .
305(9) . . .
307(9) . . .
274(9) . . .
290(9) . . .
276(9) . . .
307(9) . . .
295(9) . . .
289(9) . . .
266(9) . . .
257(9) . . .
275(9) . . .
300(9) . . .
302(9) . . .
280(9) . . .
270(9) . . .
277(9) . . .
272(8) . . .
262(8) . . .
262(9) . . .
262(9) . . .
280(9) . . .
299(9) . . .
271(8) . . .
282(9) . . .
268(9) . . .
262(9) . . .
258(8) . . .
290(9) . . .
279(9) . . .
300(10) . . .
287(9) . . .
304(9) . . .
289(9) . . .
276(9) . . .
274(9) . . .
277(9) . . .
274(9) . . .
283(9) . . .
285(9) . . .
268(9) . . .
266(9) . . .
258(8) . . .
279(9) . . .
286(9) . . .
273(9) . . .
290(9) . . .
288(9) . . .
270(9) . . .
274(9) . . .
285(9) . . .
275(9) . . .
248(8) . . .
272(9) . . .
283(9) . . .
275(9) . . .
275(9) . . .
261(8) . . .
285(9) . . .
282(9) . . .
266(9) . . .
256(8) . . .
262(8) . . .
273(9) . . .
278(9) . . .
279(9) . . .
284(9) . . .
273(9) . . .
286(9) . . .
271(9) . . .
302(9) . . .
281(9) . . .
291(9) . . .
287(9) . . .
268(9) . . .
270(9) . . .
262(8) . . .
269(9) . . .
269(9) . . .
267(9) . . .
265(9) . . .
257(8) . . .
298(9) . . .
278(9) . . .
276(9) . . .
289(9) . . .
265(8) . . .
260(9) . . .
298(9) . . .
292(9) . . .
266(9) . . .
266(8) . . .
277(9) . . .
270(9) . . .
279(9) . . .
263(9) . . .
259(8) . . .
289(9) . . .
273(9) . . .
278(9) . . .
283(9) . . .
276(9) . . .
266(9) . . .
268(9) . . .
291(9) . . .
289(9) . . .
261(8) . . .
270(9) . . .
282(9) . . .
271(9) . . .
287(9) . . .
247(8) . . .
252(9) . . .
299(10) . . .
286(9) . . .
286(9) . . .
263(8) . . .
273(9) . . .
297(10) . . .
240(8) . . .
266(9) . . .
299(9) . . .
284(9) . . .
257(9) . . .
272(9) . . .
272(9) . . .
272(9) . . .
276(9) . . .
274(9) . . .
264(9) . . .
267(8) . . .
289(9) . . .
276(9) . . .
270(9) . . .
273(9) . . .
276(9) . . .
275(9) . . .
277(9) . . .
284(9) . . .
287(9) . . .
292(9) . . .
273(9) . . .
267(9) . . .
271(9) . . .
262(9) . . .
248(8) . . .
272(9) . . .
258(9) . . .
291(9) . . .
284(9) . . .
277(9) . . .
279(9) . . .
282(9) . . .
265(9) . . .
263(9) . . .
279(9) . . .
277(9) . . .
293(9) . . .
294(9) . . .
297(9) . . .
277(9) . . .
282(9) . . .
280(9) . . .
259(9) . . .
274(9) . . .
270(8) . . .
283(9) . . .
276(9) . . .
269(9) . . .
273(9) . . .
282(9) . . .
283(9) . . .
273(9) . . .
270(9) . . .
307(9) . . .
292(9) . . .
291(9) . . .
272(9) . . .
266(9) . . .
278(9) . . .
290(9) . . .
291(9) . . .
259(9) . . .
287(9) . . .
251(8) . . .
263(9) . . .
289(9) . . .
290(9) . . .
272(9) . . .
263(8) . . .
263(9) . . .
260(9) . . .
285(9) . . .
269(9) . . .
255(8) . . .
274(9) . . .
250(9) . . .
290(9) . . .
274(9) . . .
271(9) . . .
269(9) . . .
294(10) . . .
249(8) . . .
268(9) . . .
279(9) . . .
291(9) . . .
264(9) . . .
275(9) . . .
296(9) . . .
311(9) . . .
290(9) . . .
308(10) . . .
295(9) . . .
278(9) . . .
271(9) . . .
310(10) . . .
285(9) . . .
318(10) . . .
305(9) . . .
296(9) . . .
307(10) . . .
274(9) . . .
248(8) . . .
282(9) . . .
278(9) . . .
287(9) . . .
278(9) . . .
285(9) . . .
291(9) . . .
290(9) . . .
272(9) . . .
301(10) . . .
254(8) . . .
255(8) . . .
273(9) . . .
299(9) . . .
281(9) . . .
276(9) . . .
270(9) . . .
262(9) . . .
289(9) . . .
266(9) . . .
266(9) . . .
263(8) . . .
270(9) . . .
278(9) . . .
263(9) . . .
246(8) . . .
295(9) . . .
276(9) . . .
255(9) . . .
289(9) . . .
270(9) . . .
278(9) . . .
287(9) . . .
279(9) . . .
274(9) . . .
280(9) . . .
271(9) . . .
285(9) . . .
272(9) . . .
274(9) . . .
256(8) . . .
285(9) . . .
274(9) . . .
286(10) . . .
261(9) . . .
300(9) . . .
280(9) . . .
278(9) . . .
277(9) . . .
275(9) . . .
252(8) . . .
276(9) . . .
282(9) . . .
284(9) . . .
273(9) . . .
274(9) . . .
280(9) . . .
288(9) . . .
266(9) . . .
288(9) . . .
288(9) . . .
277(9) . . .
320(10) . . .
293(9) . . .
266(9) . . .
272(9) . . .
307(9) . . .
270(9) . . .
301(10) . . .
263(9) . . .
289(9) . . .
288(9) . . .
288(9) . . .
284(9) . . .
274(9) . . .
274(9) . . .
274(9) . . .
277(9) . . .
273(9) . . .
274(9) . . .
287(9) . . .
284(9) . . .
256(9) . . .
285(9) . . .
278(9) . . .
270(9) . . .
285(9) . . .
273(9) . . .
249(8) . . .
276(9) . . .
260(9) . . .
271(9) . . .
268(9) . . .
301(9) . . .
281(9) . . .
271(9) . . .
275(9) . . .
288(10) . . .
274(9) . . .
292(9) . . .
288(9) . . .
277(9) . . .
274(9) . . .
291(9) . . .
300(9) . . .
289(9) . . .
272(9) . . .
278(9) . . .
259(9) . . .
276(9) . . .
289(9) . . .
281(9) . . .
283(9) . . .
275(9) . . .
282(9) . . .
271(9) . . .
288(9) . . .
264(9) . . .
276(9) . . .
302(9) . . .
296(9) . . .
270(9) . . .
267(9) . . .
273(9) . . .
282(9) . . .
261(9) . . .
270(9) . . .
260(9) . . .
282(9) . . .
285(9) . . .
249(8) . . .
252(9) . . .
261(9) . . .
246(8) . . .
286(9) . . .
241(8) . . .
261(9) . . .
289(9) . . .
260(9) . . .
249(8) . . .
274(9) . . .
255(9) . . .
266(9) . . .
281(9) . . .
265(9) . . .
271(9) . . .
254(9) . . .
266(9) . . .
273(9) . . .
281(9) . . .
277(9) . . .
257(9) . . .
259(9) . . .
248(8) . . .
246(8) . . .
283(9) . . .
239(8) . . .
242(8) . . .
263(8) . . .
252(8) . . .
271(9) . . .
271(9) . . .
244(8) . . .
279(9) . . .
277(9) . . .
240(8) . . .
264(9) . . .
246(9) . . .
253(8) . . .
242(8) . . .
243(8) . . .
255(9) . . .
250(8) . . .
263(8) . . .
258(8) . . .
233(8) . . .
240(8) . . .
248(8) . . .
254(8) . . .
273(9) . . .
257(9) . . .
250(8) . . .
237(8) . . .
240(8) . . .
263(9) . . .
255(9) . . .
281(9) . . .
265(9) . . .
264(8) . . .
261(9) . . .
252(9) . . .
257(9) . . .
263(9) . . .
277(9) . . .
246(8) . . .
259(9) . . .
266(9) . . .
251(8) . . .
248(8) . . .
253(9) . . .
256(9) . . .
224(8) . . .
259(8) . . .
265(8) . . .
244(8) . . .
265(9) . . .
266(9) . . .
256(8) . . .
244(8) . . .
257(9) . . .
263(9) . . .
245(8) . . .
273(9) . . .
276(9) . . .
257(9) . . .
219(8) . . .
272(9) . . .
268(9) . . .
248(8) . . .
240(8) . . .
231(8) . . .
246(8) . . .
265(8) . . .
256(8) . . .
277(9) . . .
255(9) . . .
256(9) . . .
267(9) . . .
224(8) . . .
261(9) . . .
253(8) . . .
244(8) . . .
239(8) . . .
251(8) . . .
247(8) . . .
260(9) . . .
239(8) . . .
254(8) . . .
256(9) . . .
267(9) . . .
257(9) . . .
255(8) . . .
260(8) . . .
242(8) . . .
251(9) . . .
247(8) . . .
263(8) . . .
260(8) . . .
274(9) . . .
251(9) . . .
267(9) . . .
244(8) . . .
275(9) . . .
264(9) . . .
260(9) . . .
280(9) . . .
278(9) . . .
259(8) . . .
259(9) . . .
253(9) . . .
258(9) . . .
242(8) . . .
238(8) . . .
230(8) . . .
259(9) . . .
250(9) . . .
248(8) . . .
244(8) . . .
263(9) . . .
264(9) . . .
254(9) . . .
246(8) . . .
233(8) . . .
247(9) . . .
251(9) . . .
250(8) . . .
247(8) . . .
252(8) . . .
239(9) . . .
240(8) . . .
265(9) . . .
249(8) . . .
259(9) . . .
261(9) . . .
264(9) . . .
267(9) . . .
253(8) . . .
251(8) . . .
250(9) . . .
252(9) . . .
260(8) . . .
249(8) . . .
261(9) . . .
250(9) . . .
256(9) . . .
220(8) . . .
251(8) . . .
249(9) . . .
240(9) . . .
249(8) . . .
273(9) . . .
268(8) . . .
263(9) . . .
253(9) . . .
251(9) . . .
250(8) . . .
259(8) . . .
269(9) . . .
271(9) . . .
246(8) . . .
243(8) . . .
254(8) . . .
234(8) . . .
253(9) . . .
240(8) . . .
263(8) . . .
248(8) . . .
268(9) . . .
282(9) . . .
260(9) . . .
252(8) . . .
239(8) . . .
238(8) . . .
235(8) . . .
241(8) . . .
266(8) . . .
263(8) . . .
247(8) . . .
267(9) . . .
253(8) . . .
238(8) . . .
240(8) . . .
258(9) . . .
264(9) . . .
267(9) . . .
246(8) . . .
242(8) . . .
252(9) . . .
257(9) . . .
264(9) . . .
237(8) . . .
253(9) . . .
249(9) . . .
256(9) . . .
250(8) . . .
232(8) . . .
248(9) . . .
251(9) . . .
240(8) . . .
247(8) . . .
254(8) . . .
239(8) . . .
239(9) . . .
262(9) . . .
248(8) . . .
245(8) . . .
243(8) . . .
249(9) . . .
243(8) . . .
263(9) . . .
243(8) . . .
225(8) . . .
241(9) . . .
238(8) . . .
251(8) . . .
251(8) . . .
239(9) . . .
231(8) . . .
221(8) . . .
263(8) . . .
274(9) . . .
244(8) . . .
260(9) . . .
229(8) . . .
231(8) . . .
227(8) . . .
228(8) . . .
242(8) . . .
243(8) . . .
223(8) . . .
241(8) . . .
249(9) . . .
264(9) . . .
232(8) . . .
253(8) . . .
276(9) . . .
258(9) . . .
233(8) . . .
235(8) . . .
256(8) . . .
234(8) . . .
247(9) . . .
256(9) . . .
241(8) . . .
241(8) . . .
242(8) . . .
254(9) . . .
240(8) . . .
244(8) . . .
246(8) . . .
247(8) . . .
239(9) . . .
235(8) . . .
263(9) . . .
251(8) . . .
244(8) . . .
222(8) . . .
250(8) . . .
241(8) . . .
236(8) . . .
235(8) . . .
238(9) . . .
222(8) . . .
216(8) . . .
240(8) . . .
266(9) . . .
239(9) . . .
226(8) . . .
250(8) . . .
225(8) . . .
249(9) . . .
221(8) . . .
254(9) . . .
236(8) . . .
235(8) . . .
250(9) . . .
276(9) . . .
239(8) . . .
246(8) . . .
258(9) . . .
247(8) . . .
241(8) . . .
251(8) . . .
244(8) . . .
243(8) . . .
253(9) . . .
260(9) . . .
248(8) . . .
227(8) . . .
270(9) . . .
256(9) . . .
244(8) . . .
271(9) . . .
232(8) . . .
245(8) . . .
266(9) . . .
270(9) . . .
248(8) . . .
247(8) . . .
248(9) . . .
252(9) . . .
267(9) . . .
281(9) . . .
240(8) . . .
240(8) . . .
238(8) . . .
260(9) . . .
242(8) . . .
247(8) . . .
272(9) . . .
257(9) . . .
259(9) . . .
257(8) . . .
249(8) . . .
258(8) . . .
263(9) . . .
260(9) . . .
269(9) . . .
249(8) . . .
240(8) . . .
263(9) . . .
240(8) . . .
212(8) . . .
237(8) . . .
239(8) . . .
242(8) . . .
233(8) . . .
232(8) . . .
249(8) . . .
253(9) . . .
246(9) . . .
240(8) . . .
222(8) . . .
213(8) . . .
254(9) . . .
237(8) . . .
237(8) . . .
214(8) . . .
235(8) . . .
254(9) . . .
244(8) . . .
237(8) . . .
247(8) . . .
238(8) . . .
228(8) . . .
233(8) . . .
247(8) . . .
214(8) . . .
218(8) . . .
219(8) . . .
208(8) . . .
221(8) . . .
232(8) . . .
213(8) . . .
223(8) . . .
234(8) . . .
228(8) . . .
243(8) . . .
209(8) . . .
219(8) . . .
225(8) . . .
240(8) . . .
248(8) . . .
230(8) . . .
220(8) . . .
242(8) . . .
227(8) . . .
237(8) . . .
214(8) . . .
210(8) . . .
213(8) . . .
238(8) . . .
223(8) . . .
223(8) . . .
243(8) . . .
239(8) . . .
217(8) . . .
238(8) . . .
268(9) . . .
219(8) . . .
210(8) . . .
204(7) . . .
214(8) . . .
224(8) . . .
233(8) . . .
231(8) . . .
230(8) . . .
221(8) . . .
197(8) . . .
216(8) . . .
221(8) . . .
241(8) . . .
201(8) . . .
225(8) . . .
249(9) . . .
221(8) . . .
213(8) . . .
219(8) . . .
228(8) . . .
220(8) . . .
219(8) . . .
212(7) . . .
231(8) . . .
203(8) . . .
195(8) . . .
183(7) . . .
213(8) . . .
225(8) . . .
223(8) . . .
239(8) . . .
212(8) . . .
237(8) . . .
224(8) . . .
229(8) . . .
218(8) . . .
207(7) . . .
230(8) . . .
215(8) . . .
217(8) . . .
223(8) . . .
228(8) . . .
240(8) . . .
215(8) . . .
215(8) . . .
223(8) . . .
204(7) . . .
214(8) . . .
216(8) . . .
206(8) . . .
235(8) . . .
226(8) . . .
234(8) . . .
229(8) . . .
220(8) . . .
211(8) . . .
198(7) . . .
214(8) . . .
220(8) . . .
224(8) . . .
208(8) . . .
193(7) . . .
209(8) . . .
213(8) . . .
209(8) . . .
217(8) . . .
196(7) . . .
203(7) . . .
220(8) . . .
226(8) . . .
223(8) . . .
200(7) . . .
209(8) . . .
213(8) . . .
218(8) . . .
220(8) . . .
213(8) . . .
199(8) . . .
204(8) . . .
203(8) . . .
212(8) . . .
203(7) . . .
211(8) . . .
205(8) . . .
222(8) . . .
208(7) . . .
210(8) . . .
204(8) . . .
222(8) . . .
204(8) . . .
233(8) . . .
211(8) . . .
225(8) . . .
232(8) . . .
228(8) . . .
231(8) . . .
251(8) . . .
219(8) . . .
221(8) . . .
240(8) . . .
220(8) . . .
204(8) . . .
219(8) . . .
206(8) . . .
216(8) . . .
226(8) . . .
218(8) . . .
215(8) . . .
232(8) . . .
207(8) . . .
221(8) . . .
202(8) . . .
238(8) . . .
236(8) . . .
200(8) . . .
215(8) . . .
220(8) . . .
235(9) . . .
223(8) . . .
216(8) . . .
226(8) . . .
221(8) . . .
219(8) . . .
222(8) . . .
205(7) . . .
215(8) . . .
229(8) . . .
222(8) . . .
231(8) . . .
215(8) . . .
222(8) . . .
202(8) . . .
229(8) . . .
214(8) . . .
218(8) . . .
251(8) . . .
193(7) . . .
203(8) . . .
215(8) . . .
196(7) . . .
206(7) . . .
218(8) . . .
210(8) . . .
216(8) . . .
237(8) . . .
228(8) . . .
220(8) . . .
221(8) . . .
233(8) . . .
212(8) . . .
217(8) . . .
221(8) . . .
213(8) . . .
212(8) . . .
218(8) . . .
221(8) . . .
222(8) . . .
216(8) . . .
218(8) . . .
218(8) . . .
222(8) . . .
188(7) . . .
215(8) . . .
233(8) . . .
228(8) . . .
223(8) . . .
202(8) . . .
214(8) . . .
202(8) . . .
199(7) . . .
204(8) . . .
219(8) . . .
233(8) . . .
229(8) . . .
231(8) . . .
214(8) . . .
223(8) . . .
235(9) . . .
205(7) . . .
215(8) . . .
243(8) . . .
216(8) . . .
215(8) . . .
220(8) . . .
225(8) . . .
211(8) . . .
207(8) . . .
198(8) . . .
225(8) . . .
190(7) . . .
196(8) . . .
208(8) . . .
215(8) . . .
234(8) . . .
221(8) . . .
239(8) . . .
221(8) . . .
226(8) . . .
234(8) . . .
207(8) . . .
215(8) . . .
219(8) . . .
211(8) . . .
232(8) . . .
208(8) . . .
212(8) . . .
216(8) . . .
234(8) . . .
221(8) . . .
221(8) . . .
223(8) . . .
198(8) . . .
203(7) . . .
219(8) . . .
228(8) . . .
202(8) . . .
206(8) . . .
216(8) . . .
244(8) . . .
231(8) . . .
223(8) . . .
227(8) . . .
221(8) . . .
230(8) . . .
224(8) . . .
231(9) . . .
214(8) . . .
200(7) . . .
219(8) . . .
234(8) . . .
210(8) . . .
207(8) . . .
232(8) . . .
218(8) . . .
202(7) . . .
205(8) . . .
220(8) . . .
224(8) . . .
224(8) . . .
197(7) . . .
221(8) . . .
204(8) . . .
245(8) . . .
219(8) . . .
235(8) . . .
212(8) . . .
211(8) . . .
200(7) . . .
203(8) . . .
200(8) . . .
215(8) . . .
215(8) . . .
223(8) . . .
207(8) . . .
200(8) . . .
205(8) . . .
200(8) . . .
200(7) . . .
217(8) . . .
214(8) . . .
220(8) . . .
224(8) . . .
210(8) . . .
235(8) . . .
222(8) . . .
221(8) . . .
203(7) . . .
211(8) . . .
202(8) . . .
214(8) . . .
225(8) . . .
187(7) . . .
204(7) . . .
201(8) . . .
189(7) . . .
191(7) . . .
194(7) . . .
215(8) . . .
212(8) . . .
220(8) . . .
200(8) . . .
173(7) . . .
220(8) . . .
215(8) . . .
209(8) . . .
191(7) . . .
207(7) . . .
210(8) . . .
208(8) . . .
196(8) . . .
216(8) . . .
197(7) . . .
217(8) . . .
195(8) . . .
203(8) . . .
212(8) . . .
206(7) . . .
225(8) . . .
195(7) . . .
204(8) . . .
186(7) . . .
204(7) . . .
219(8) . . .
194(7) . . .
206(8) . . .
197(7) . . .
185(7) . . .
208(8) . . .
183(7) . . .
208(8) . . .
217(8) . . .
219(8) . . .
195(7) . . .
225(8) . . .
199(8) . . .
197(7) . . .
188(7) . . .
205(8) . . .
193(8) . . .
195(7) . . .
216(8) . . .
205(7) . . .
204(8) . . .
203(8) . . .
197(8) . . .
196(7) . . .
215(8) . . .
188(7) . . .
207(8) . . .
185(7) . . .
225(8) . . .
194(7) . . .
205(8) . . .
175(7) . . .
205(8) . . .
224(8) . . .
192(7) . . .
194(7) . . .
195(8) . . .
203(8) . . .
212(8) . . .
201(7) . . .
220(8) . . .
193(7) . . .
203(8) . . .
210(8) . . .
209(8) . . .
221(8) . . .
181(7) . . .
201(7) . . .
175(7) . . .
196(7) . . .
179(7) . . .
205(8) . . .
204(8) . . .
189(7) . . .
226(8) . . .
206(8) . . .
213(8) . . .
202(7) . . .
194(7) . . .
204(8) . . .
182(7) . . .
209(8) . . .
208(8) . . .
212(8) . . .
197(8) . . .
182(7) . . .
191(7) . . .
205(7) . . .
215(8) . . .
199(8) . . .
193(8) . . .
204(8) . . .
203(7) . . .
205(7) . . .
185(7) . . .
201(8) . . .
185(7) . . .
179(7) . . .
209(8) . . .
201(8) . . .
199(8) . . .
204(8) . . .
218(8) . . .
213(8) . . .
193(7) . . .
200(8) . . .
200(8) . . .
199(7) . . .
200(8) . . .
192(7) . . .
197(8) . . .
189(7) . . .
199(7) . . .
197(7) . . .
206(8) . . .
196(8) . . .
180(7) . . .
195(7) . . .
191(7) . . .
192(8) . . .
196(8) . . .
220(8) . . .
232(8) . . .
181(7) . . .
191(8) . . .
192(8) . . .
205(8) . . .
224(8) . . .
207(8) . . .
202(8) . . .
181(7) . . .
196(7) . . .
191(7) . . .
204(8) . . .
191(8) . . .
187(7) . . .
196(7) . . .
203(7) . . .
189(7) . . .
192(7) . . .
211(8) . . .
184(7) . . .
183(7) . . .
218(8) . . .
205(8) . . .
211(8) . . .
189(7) . . .
209(8) . . .
182(7) . . .
165(7) . . .
189(8) . . .
172(7) . . .
194(7) . . .
184(7) . . .
205(8) . . .
190(7) . . .
210(7) . . .
227(8) . . .
207(8) . . .
202(8) . . .
204(8) . . .
170(7) . . .
186(7) . . .
201(8) . . .
188(7) . . .
195(7) . . .
211(8) . . .
217(8) . . .
211(8) . . .
217(8) . . .
177(7) . . .
192(7) . . .
197(7) . . .
210(8) . . .
202(8) . . .
178(7) . . .
212(8) . . .
216(8) . . .
187(7) . . .
203(8) . . .
208(8) . . .
200(7) . . .
202(8) . . .
198(8) . . .
209(8) . . .
195(7) . . .
187(7) . . .
179(7) . . .
199(8) . . .
206(8) . . .
203(7) . . .
195(7) . . .
218(8) . . .
205(8) . . .
194(7) . . .
206(8) . . .
211(7) . . .
204(8) . . .
193(8) . . .
181(7) . . .
222(8) . . .
222(8) . . .
208(8) . . .
210(8) . . .
187(7) . . .
201(7) . . .
214(8) . . .
198(8) . . .
206(8) . . .
187(7) . . .
201(7) . . .
208(8) . . .
209(8) . . .
212(8) . . .
209(8) . . .
207(7) . . .
205(8) . . .
211(8) . . .
196(8) . . .
195(7) . . .
211(8) . . .
200(8) . . .
197(8) . . .
202(8) . . .
196(7) . . .
223(8) . . .
229(8) . . .
202(8) . . .
203(8) . . .
193(7) . . .
171(7) . . .
196(7) . . .
211(8) . . .
197(8) . . .
200(7) . . .
176(7) . . .
190(8) . . .
180(7) . . .
223(8) . . .
189(7) . . .
195(7) . . .
181(7) . . .
204(8) . . .
202(8) . . .
188(7) . . .
175(7) . . .
193(7) . . .
203(8) . . .
202(8) . . .
201(7) . . .
213(8) . . .
200(8) . . .
188(8) . . .
199(8) . . .
186(7) . . .
223(8) . . .
196(7) . . .
177(7) . . .
193(7) . . .
176(7) . . .
207(8) . . .
209(8) . . .
213(8) . . .
203(8) . . .
196(7) . . .
210(8) . . .
192(7) . . .
196(8) . . .
199(8) . . .
183(7) . . .
206(8) . . .
190(7) . . .
183(7) . . .
195(7) . . .
188(7) . . .
182(7) . . .
203(8) . . .
183(7) . . .
203(8) . . .
182(7) . . .
188(7) . . .
194(8) . . .
191(7) . . .
174(7) . . .
188(7) . . .
192(8) . . .
199(8) . . .
209(8) . . .
198(7) . . .
182(7) . . .
192(8) . . .
197(8) . . .
196(8) . . .
204(7) . . .
170(7) . . .
174(7) . . .
192(8) . . .
203(8) . . .
187(7) . . .
171(7) . . .
205(8) . . .
194(7) . . .
193(7) . . .
205(7) . . .
210(8) . . .
223(8) . . .
195(8) . . .
200(8) . . .
187(7) . . .
205(8) . . .
205(8) . . .
194(7) . . .
191(7) . . .
193(7) . . .
196(7) . . .
189(7) . . .
189(8) . . .
203(8) . . .
189(7) . . .
189(7) . . .
187(7) . . .
188(7) . . .
193(7) . . .
182(7) . . .
177(7) . . .
188(7) . . .
195(8) . . .
210(8) . . .
195(7) . . .
192(8) . . .
177(7) . . .
180(7) . . .
193(7) . . .
186(7) . . .
195(8) . . .
175(7) . . .
192(8) . . .
174(7) . . .
178(7) . . .
198(8) . . .
169(7) . . .
199(7) . . .
208(7) . . .
200(7) . . .
178(7) . . .
171(7) . . .
167(7) . . .
209(8) . . .
190(7) . . .
183(7) . . .
198(8) . . .
196(7) . . .
202(7) . . .
203(8) . . .
180(7) . . .
181(7) . . .
202(8) . . .
190(7) . . .
193(7) . . .
176(7) . . .
179(7) . . .
167(7) . . .
187(7) . . .
183(7) . . .
159(7) . . .
194(8) . . .
181(7) . . .
194(7) . . .
187(7) . . .
202(8) . . .
181(7) . . .
189(8) . . .
196(7) . . .
211(8) . . .
181(7) . . .
190(8) . . .
167(7) . . .
209(8) . . .
185(7) . . .
195(7) . . .
177(7) . . .
176(7) . . .
182(7) . . .
198(8) . . .
208(8) . . .
207(8) . . .
182(7) . . .
183(7) . . .
195(8) . . .
185(7) . . .
209(8) . . .
199(7) . . .
200(7) . . .
172(7) . . .
191(8) . . .
179(7) . . .
165(7) . . .
186(7) . . .
176(7) . . .
194(8) . . .
175(7) . . .
200(7) . . .
183(7) . . .
192(7) . . .
182(7) . . .
187(7) . . .
181(7) . . .
184(7) . . .
181(7) . . .
185(7) . . .
186(7) . . .
170(7) . . .
186(7) . . .
184(7) . . .
196(8) . . .
175(7) . . .
191(7) . . .
213(8) . . .
193(7) . . .
187(7) . . .
185(7) . . .
179(7) . . .
175(7) . . .
187(8) . . .
175(7) . . .
173(7) . . .
176(7) . . .
175(7) . . .
184(8) . . .
165(7) . . .
164(7) . . .
172(7) . . .
191(8) . . .
198(8) . . .
183(7) . . .
186(7) . . .
169(7) . . .
172(7) . . .
182(7) . . .
173(7) . . .
183(7) . . .
177(7) . . .
186(7) . . .
184(7) . . .
197(7) . . .
206(8) . . .
170(7) . . .
173(7) . . .
181(8) . . .
209(8) . . .
194(7) . . .
212(8) . . .
185(7) . . .
175(7) . . .
178(7) . . .
178(7) . . .
177(7) . . .
169(7) . . .
183(7) . . .
173(7) . . .
166(7) . . .
193(7) . . .
194(8) . . .
176(7) . . .
171(7) . . .
181(7) . . .
172(7) . . .
176(7) . . .
165(7) . . .
178(7) . . .
201(7) . . .
169(7) . . .
188(8) . . .
190(7) . . .
181(7) . . .
187(7) . . .
194(8) . . .
185(7) . . .
194(7) . . .
191(7) . . .
171(7) . . .
170(7) . . .
176(7) . . .
179(7) . . .
185(7) . . .
190(7) . . .
197(8) . . .
190(8) . . .
174(7) . . .
199(7) . . .
190(7) . . .
194(7) . . .
188(7) . . .
183(7) . . .
184(7) . . .
191(7) . . .
181(7) . . .
183(8) . . .
175(7) . . .
179(7) . . .
175(7) . . .
180(7) . . .
200(8) . . .
172(7) . . .
182(7) . . .
179(7) . . .
193(8) . . .
198(8) . . .
173(7) . . .
180(7) . . .
188(7) . . .
193(7) . . .
178(7) . . .
195(8) . . .
190(7) . . .
188(7) . . .
190(7) . . .
205(8) . . .
201(8) . . .
198(7) . . .
189(7) . . .
186(7) . . .
189(8) . . .
181(7) . . .
187(7) . . .
184(7) . . .
166(7) . . .
188(7) . . .
186(7) . . .
182(7) . . .
182(7) . . .
187(8) . . .
186(7) . . .
194(7) . . .
190(7) . . .
181(7) . . .
175(7) . . .
169(7) . . .
187(7) . . .
191(7) . . .
197(8) . . .
181(8) . . .
204(8) . . .
185(7) . . .
195(7) . . .
194(7) . . .
185(7) . . .
201(8) . . .
189(7) . . .
178(7) . . .
174(7) . . .
186(7) . . .
183(7) . . .
193(7) . . .
199(7) . . .
177(7) . . .
189(8) . . .
169(7) . . .
182(7) . . .
198(7) . . .
188(7) . . .
207(8) . . .
172(7) . . .
193(7) . . .
172(7) . . .
181(8) . . .
164(7) . . .
180(7) . . .
166(7) . . .
192(7) . . .
176(7) . . .
189(8) . . .
191(7) . . .
191(7) . . .
177(7) . . .
174(7) . . .
163(7) . . .
170(7) . . .
211(8) . . .
185(7) . . .
181(7) . . .
183(7) . . .
186(7) . . .
165(7) . . .
192(7) . . .
182(8) . . .
177(7) . . .
199(7) . . .
205(7) . . .
186(7) . . .
176(7) . . .
195(8) . . .
190(7) . . .
173(7) . . .
179(7) . . .
185(8) . . .
174(7) . . .
178(7) . . .
171(7) . . .
181(7) . . .
173(7) . . .
199(8) . . .
201(7) . . .
186(7) . . .
178(7) . . .
178(7) . . .
181(7) . . .
193(7) . . .
193(7) . . .
174(7) . . .
180(8) . . .
186(7) . . .
181(7) . . .
170(7) . . .
194(8) . . .
198(8) . . .
198(7) . . .
189(7) . . .
194(7) . . .
191(8) . . .
156(7) . . .
170(7) . . .
168(7) . . .
184(7) . . .
173(7) . . .
186(7) . . .
180(7) . . .
180(7) . . .
167(7) . . .
205(8) . . .
187(7) . . .
189(7) . . .
174(7) . . .
174(7) . . .
185(7) . . .
177(7) . . .
187(7) . . .
193(7) . . .
175(7) . . .
160(7) . . .
170(7) . . .
180(7) . . .
183(7) . . .
170(7) . . .
171(7) . . .
175(7) . . .
158(7) . . .
173(7) . . .
184(7) . . .
195(8) . . .
178(7) . . .
194(7) . . .
197(7) . . .
164(7) . . .
181(8) . . .
160(7) . . .
168(7) . . .
167(7) . . .
159(7) . . .
178(7) . . .
194(7) . . .
187(7) . . .
184(7) . . .
199(8) . . .
169(7) . . .
171(7) . . .
185(7) . . .
173(7) . . .
185(7) . . .
180(7) . . .
186(7) . . .
188(7) . . .
193(7) . . .
162(7) . . .
171(7) . . .
166(7) . . .
173(7) . . .
183(7) . . .
177(7) . . .
183(7) . . .
188(7) . . .
185(7) . . .
198(8) . . .
185(7) . . .
181(7) . . .
167(7) . . .
178(7) . . .
180(7) . . .
185(8) . . .
179(7) . . .
166(7) . . .
180(7) . . .
188(7) . . .
172(7) . . .
168(7) . . .
173(7) . . .
175(7) . . .
173(7) . . .
163(7) . . .
174(7) . . .
182(7) . . .
190(7) . . .
191(8) . . .
171(7) . . .
173(7) . . .
172(7) . . .
178(7) . . .
190(7) . . .
198(8) . . .
168(7) . . .
174(7) . . .
175(7) . . .
185(7) . . .
177(7) . . .
177(7) . . .
173(7) . . .
183(7) . . .
166(7) . . .
188(8) . . .
180(7) . . .
174(7) . . .
183(7) . . .
186(7) . . .
171(7) . . .
180(7) . . .
192(7) . . .
180(7) . . .
173(7) . . .
175(7) . . .
165(7) . . .
187(7) . . .
188(7) . . .
173(7) . . .
189(8) . . .
170(7) . . .
187(7) . . .
181(7) . . .
161(7) . . .
176(7) . . .
179(7) . . .
187(7) . . .
164(7) . . .
154(7) . . .
189(8) . . .
170(7) . . .
167(7) . . .
167(7) . . .
179(7) . . .
168(7) . . .
158(7) . . .
173(7) . . .
160(7) . . .
180(7) . . .
174(7) . . .
192(7) . . .
187(7) . . .
181(7) . . .
164(7) . . .
170(7) . . .
170(7) . . .
179(7) . . .
165(7) . . .
149(7) . . .
181(7) . . .
198(7) . . .
176(7) . . .
172(7) . . .
183(8) . . .
158(7) . . .
180(7) . . .
164(7) . . .
172(7) . . .
171(7) . . .
169(7) . . .
168(7) . . .
165(7) . . .
186(8) . . .
186(7) . . .
166(7) . . .
176(7) . . .
171(7) . . .
205(8) . . .
192(7) . . .
187(7) . . .
176(7) . . .
166(7) . . .
160(7) . . .
168(7) . . .
187(7) . . .
187(7) . . .
169(7) . . .
171(7) . . .
189(7) . . .
188(7) . . .
174(7) . . .
183(7) . . .
181(7) . . .
178(7) . . .
181(7) . . .
185(7) . . .
162(7) . . .
162(7) . . .
182(7) . . .
186(7) . . .
170(7) . . .
172(7) . . .
173(7) . . .
188(7) . . .
168(7) . . .
161(7) . . .
192(7) . . .
186(7) . . .
174(7) . . .
184(7) . . .
187(7) . . .
182(7) . . .
179(7) . . .
169(7) . . .
153(6) . . .
190(7) . . .
179(7) . . .
187(8) . . .
173(7) . . .
195(7) . . .
169(7) . . .
188(8) . . .
167(7) . . .
168(7) . . .
180(7) . . .
174(7) . . .
181(7) . . .
169(7) . . .
175(7) . . .
189(7) . . .
178(7) . . .
182(7) . . .
188(7) . . .
160(7) . . .
193(7) . . .
167(7) . . .
183(8) . . .
174(7) . . .
165(7) . . .
180(7) . . .
185(7) . . .
178(7) . . .
177(7) . . .
194(7) . . .
163(7) . . .
167(7) . . .
167(7) . . .
189(7) . . .
189(7) . . .
172(7) . . .
166(7) . . .
195(8) . . .
187(7) . . .
194(7) . . .
198(7) . . .
190(7) . . .
164(7) . . .
176(7) . . .
174(7) . . .
175(7) . . .
156(7) . . .
184(7) . . .
162(7) . . .
180(7) . . .
181(7) . . .
168(7) . . .
172(7) . . .
160(7) . . .
175(7) . . .
165(7) . . .
176(7) . . .
175(7) . . .
177(7) . . .
187(7) . . .
168(7) . . .
174(7) . . .
169(7) . . .
165(7) . . .
171(7) . . .
178(7) . . .
177(7) . . .
190(8) . . .
184(7) . . .
157(7) . . .
171(7) . . .
171(7) . . .
159(7) . . .
183(7) . . .
178(7) . . .
163(7) . . .
174(7) . . .
175(7) . . .
157(7) . . .
157(6) . . .
183(7) . . .
160(7) . . .
167(7) . . .
154(6) . . .
164(7) . . .
187(7) . . .
172(7) . . .
169(7) . . .
182(7) . . .
181(7) . . .
164(7) . . .
165(7) . . .
151(7) . . .
168(7) . . .
174(7) . . .
154(7) . . .
163(7) . . .
179(7) . . .
173(7) . . .
175(7) . . .
162(7) . . .
177(7) . . .
170(7) . . .
175(7) . . .
168(7) . . .
151(7) . . .
171(7) . . .
174(7) . . .
175(7) . . .
153(7) . . .
153(7) . . .
174(7) . . .
176(7) . . .
159(7) . . .
163(7) . . .
178(7) . . .
165(7) . . .
165(7) . . .
172(7) . . .
178(7) . . .
173(7) . . .
171(7) . . .
158(7) . . .
161(7) . . .
165(7) . . .
179(7) . . .
165(7) . . .
151(6) . . .
164(7) . . .
172(7) . . .
163(7) . . .
170(7) . . .
176(7) . . .
182(7) . . .
181(7) . . .
173(7) . . .
181(8) . . .
164(7) . . .
170(7) . . .
178(7) . . .
173(7) . . .
185(7) . . .
165(7) . . .
178(7) . . .
182(7) . . .
171(8) . . .
165(7) . . .
180(7) . . .
171(7) . . .
181(7) . . .
180(7) . . .
156(7) . . .
173(7) . . .
150(6) . . .
152(7) . . .
165(7) . . .
164(7) . . .
180(7) . . .
166(7) . . .
172(7) . . .
177(7) . . .
161(7) . . .
169(7) . . .
175(7) . . .
174(7) . . .
179(7) . . .
160(7) . . .
172(7) . . .
181(7) . . .
161(7) . . .
161(7) . . .
168(7) . . .
170(7) . . .
191(7) . . .
189(8) . . .
182(7) . . .
180(7) . . .
165(7) . . .
160(7) . . .
156(7) . . .
162(7) . . .
146(6) . . .
165(7) . . .
175(7) . . .
184(8) . . .
161(7) . . .
154(6) . . .
151(6) . . .
169(7) . . .
160(7) . . .
169(7) . . .
190(7) . . .
170(7) . . .
167(7) . . .
178(7) . . .
179(7) . . .
187(7) . . .
178(7) . . .
181(7) . . .
169(7) . . .
156(7) . . .
159(7) . . .
185(7) . . .
165(7) . . .
160(7) . . .
167(7) . . .
178(7) . . .
185(7) . . .
174(7) . . .
184(8) . . .
165(7) . . .
170(7) . . .
170(7) . . .
171(7) . . .
178(7) . . .
176(7) . . .
168(7) . . .
172(7) . . .
172(7) . . .
179(7) . . .
167(7) . . .
185(7) . . .
188(7) . . .
168(7) . . .
156(7) . . .
187(7) . . .
185(7) . . .
187(7) . . .
184(7) . . .
187(7) . . .
179(7) . . .
168(7) . . .
171(7) . . .
183(8) . . .
160(7) . . .
158(6) . . .
177(7) . . .
196(8) . . .
193(8) . . .
181(7) . . .
182(7) . . .
196(7) . . .
181(7) . . .
181(7) . . .
173(7) . . .
184(7) . . .
183(7) . . .
192(7) . . .
166(7) . . .
172(7) . . .
166(7) . . .
167(7) . . .
177(7) . . .
163(7) . . .
156(7) . . .
178(7) . . .
169(7) . . .
180(7) . . .
172(7) . . .
166(7) . . .
184(7) . . .
153(6) . . .
180(7) . . .
176(7) . . .
189(7) . . .
166(7) . . .
165(7) . . .
182(7) . . .
165(7) . . .
173(7) . . .
172(7) . . .
164(7) . . .
158(7) . . .
175(7) . . .
150(6) . . .
168(7) . . .
177(7) . . .
184(8) . . .
166(7) . . .
151(6) . . .
142(6) . . .
165(7) . . .
154(7) . . .
181(7) . . .
193(7) . . .
176(7) . . .
170(7) . . .
160(7) . . .
170(7) . . .
176(7) . . .
182(7) . . .
171(7) . . .
158(7) . . .
152(7) . . .
172(7) . . .
173(7) . . .
176(7) . . .
160(7) . . .
153(7) . . .
164(7) . . .
181(7) . . .
170(7) . . .
184(8) . . .
164(7) . . .
167(7) . . .
160(7) . . .
157(7) . . .
179(7) . . .
166(7) . . .
179(7) . . .
167(7) . . .
195(8) . . .
171(7) . . .
164(7) . . .
171(7) . . .
162(7) . . .
156(7) . . .
181(7) . . .
175(7) . . .
196(7) . . .
164(7) . . .
194(8) . . .
179(7) . . .
172(7) . . .
195(7) . . .
176(7) . . .
186(8) . . .
192(7) . . .
176(7) . . .
182(7) . . .
167(7) . . .
171(7) . . .
189(7) . . .
176(7) . . .
164(7) . . .
160(7) . . .
160(7) . . .
189(7) . . .
186(7) . . .
147(6) . . .
171(7) . . .
196(8) . . .
188(7) . . .
179(7) . . .
187(7) . . .
168(7) . . .
182(7) . . .
179(7) . . .
166(7) . . .
170(7) . . .
167(7) . . .
157(7) . . .
177(7) . . .
179(7) . . .
169(7) . . .
172(7) . . .
166(7) . . .
180(7) . . .
189(7) . . .
179(7) . . .
187(7) . . .
183(7) . . .
187(7) . . .
206(7) . . .
199(8) . . .
173(7) . . .
184(7) . . .
165(7) . . .
179(7) . . .
183(7) . . .
168(7) . . .
181(7) . . .
195(7) . . .
184(7) . . .
163(7) . . .
177(7) . . .
186(7) . . .
192(7) . . .
181(7) . . .
193(8) . . .
179(8) . . .
176(7) . . .
171(7) . . .
183(7) . . .
163(7) . . .
178(8) . . .
181(7) . . .
194(7) . . .
169(7) . . .
168(7) . . .
180(8) . . .
173(7) . . .
176(7) . . .
177(7) . . .
165(7) . . .
179(7) . . .
193(7) . . .
178(7) . . .
177(7) . . .
168(7) . . .
170(7) . . .
194(8) . . .
173(7) . . .
154(6) . . .
174(7) . . .
160(7) . . .
159(7) . . .
173(7) . . .
166(7) . . .
154(7) . . .
183(7) . . .
176(7) . . .
168(7) . . .
179(7) . . .
164(7) . . .
183(7) . . .
175(7) . . .
189(7) . . .
179(7) . . .
165(7) . . .
169(7) . . .
189(7) . . .
189(7) . . .
172(7) . . .
177(7) . . .
176(7) . . .
172(7) . . .
153(6) . . .
184(7) . . .
170(7) . . .
164(7) . . .
174(7) . . .
193(7) . . .
166(7) . . .
175(7) . . .
153(7) . . .
172(7) . . .
151(7) . . .
172(7) . . .
167(7) . . .
172(7) . . .
161(7) . . .
167(7) . . .
165(7) . . .
168(7) . . .
175(7) . . .
165(7) . . .
174(7) . . .
185(7) . . .
172(7) . . .
170(7) . . .
201(7) . . .
182(7) . . .
181(7) . . .
191(8) . . .
181(7) . . .
188(7) . . .
169(7) . . .
180(7) . . .
199(8) . . .
183(7) . . .
188(7) . . .
184(7) . . .
172(7) . . .
178(7) . . .
174(7) . . .
168(7) . . .
161(7) . . .
173(7) . . .
175(7) . . .
191(7) . . .
183(7) . . .
199(8) . . .
177(7) . . .
180(7) . . .
162(7) . . .
172(7) . . .
171(7) . . .
177(7) . . .
169(7) . . .
182(7) . . .
184(7) . . .
174(7) . . .
181(8) . . .
175(7) . . .
174(7) . . .
186(7) . . .
159(7) . . .
187(8) . . .
154(6) . . .
174(7) . . .
175(7) . . .
147(6) . . .
160(7) . . .
159(7) . . .
173(7) . . .
152(6) . . .
158(7) . . .
185(7) . . .
171(7) . . .
169(7) . . .
179(7) . . .
173(7) . . .
168(7) . . .
170(7) . . .
166(7) . . .
162(7) . . .
181(7) . . .
173(7) . . .
164(7) . . .
163(7) . . .
189(7) . . .
169(7) . . .
186(7) . . .
180(7) . . .
169(7) . . .
169(7) . . .
154(7) . . .
162(7) . . .
166(7) . . .
161(7) . . .
170(7) . . .
185(8) . . .
176(7) . . .
167(7) . . .
181(7) . . .
170(7) . . .
173(7) . . .
156(7) . . .
149(7) . . .
153(6) . . .
138(6) . . .
170(7) . . .
180(7) . . .
173(7) . . .
173(7) . . .
185(7) . . .
173(7) . . .
172(7) . . .
165(7) . . .
170(7) . . .
168(7) . . .
182(7) . . .
180(7) . . .
182(7) . . .
170(7) . . .
179(7) . . .
177(7) . . .
151(7) . . .
179(7) . . .
172(7) . . .
176(7) . . .
174(7) . . .
177(7) . . .
187(7) . . .
186(7) . . .
165(7) . . .
165(7) . . .
168(7) . . .
179(7) . . .
186(7) . . .
166(7) . . .
163(7) . . .
159(7) . . .
156(6) . . .
176(7) . . .
183(7) . . .
155(7) . . .
167(7) . . .
165(7) . . .
163(7) . . .
171(7) . . .
160(7) . . .
169(7) . . .
157(7) . . .
164(7) . . .
188(8) . . .
177(7) . . .
184(7) . . .
174(7) . . .
154(7) . . .
167(7) . . .
172(7) . . .
172(7) . . .
194(7) . . .
178(7) . . .
180(7) . . .
173(7) . . .
174(7) . . .
172(7) . . .
178(7) . . .
172(7) . . .
170(7) . . .
169(7) . . .
184(7) . . .
173(7) . . .
174(7) . . .
158(7) . . .
166(7) . . .
180(7) . . .
163(7) . . .
163(7) . . .
174(7) . . .
176(7) . . .
166(7) . . .
169(7) . . .
148(7) . . .
143(6) . . .
168(7) . . .
171(7) . . .
170(7) . . .
183(8) . . .
168(7) . . .
192(7) . . .
173(7) . . .
171(7) . . .
176(7) . . .
155(7) . . .
160(7) . . .
154(7) . . .
181(7) . . .
181(7) . . .
162(7) . . .
174(7) . . .
170(7) . . .
154(7) . . .
154(7) . . .
161(7) . . .
166(7) . . .
166(7) . . .
176(7) . . .
179(7) . . .
182(7) . . .
162(7) . . .
174(7) . . .
159(7) . . .
181(8) . . .
171(7) . . .
186(7) . . .
183(7) . . .
168(7) . . .
155(7) . . .
170(7) . . .
164(7) . . .
177(7) . . .
168(7) . . .
182(7) . . .
175(7) . . .
186(7) . . .
166(7) . . .
156(6) . . .
179(7) . . .
172(7) . . .
172(7) . . .
173(7) . . .
154(7) . . .
153(7) . . .
157(6) . . .
187(7) . . .
176(7) . . .
186(7) . . .
179(7) . . .
177(7) . . .
168(7) . . .
172(7) . . .
173(7) . . .
185(7) . . .
164(7) . . .
182(7) . . .
183(7) . . .
173(7) . . .
173(7) . . .
190(7) . . .
177(7) . . .
197(8) . . .
180(7) . . .
175(7) . . .
176(7) . . .
185(7) . . .
179(7) . . .
176(7) . . .
188(7) . . .
163(7) . . .
183(7) . . .
157(7) . . .
175(7) . . .
184(7) . . .
176(7) . . .
182(7) . . .
217(8) . . .
200(8) . . .
156(6) . . .
191(7) . . .
184(7) . . .
179(7) . . .
169(7) . . .
177(7) . . .
167(7) . . .
176(7) . . .
178(7) . . .
163(7) . . .
172(7) . . .
172(7) . . .
175(7) . . .
178(7) . . .
173(7) . . .
162(7) . . .
170(7) . . .
173(7) . . .
174(7) . . .
167(7) . . .
159(7) . . .
167(7) . . .
168(7) . . .
164(7) . . .
181(7) . . .
163(7) . . .
166(7) . . .
151(7) . . .
158(7) . . .
183(7) . . .
162(7) . . .
160(7) . . .
179(7) . . .
173(7) . . .
154(6) . . .
166(7) . . .
180(7) . . .
170(7) . . .
169(7) . . .
163(7) . . .
170(7) . . .
182(7) . . .
195(8) . . .
176(7) . . .
161(7) . . .
169(7) . . .
159(7) . . .
170(7) . . .
173(7) . . .
173(7) . . .
173(7) . . .
166(7) . . .
179(8) . . .
176(7) . . .
172(7) . . .
167(7) . . .
158(7) . . .
166(7) . . .
180(7) . . .
167(7) . . .
178(7) . . .
166(7) . . .
172(7) . . .
161(7) . . .
158(7) . . .
166(7) . . .
162(7) . . .
165(7) . . .
171(7) . . .
165(7) . . .
188(7) . . .
163(7) . . .
177(7) . . .
165(7) . . .
174(7) . . .
161(7) . . .
172(7) . . .
174(7) . . .
189(7) . . .
168(7) . . .
190(7) . . .
174(7) . . .
187(7) . . .
169(7) . . .
175(7) . . .
164(7) . . .
169(7) . . .
175(7) . . .
174(7) . . .
179(7) . . .
179(7) . . .
174(7) . . .
164(7) . . .
189(7) . . .
165(7) . . .
171(7) . . .
163(7) . . .
173(7) . . .
161(7) . . .
180(7) . . .
164(7) . . .
177(7) . . .
182(7) . . .
175(7) . . .
170(7) . . .
179(7) . . .
188(8) . . .
197(8) . . .
177(7) . . .
169(7) . . .
181(7) . . .
182(7) . . .
171(7) . . .
178(7) . . .
174(7) . . .
179(7) . . .
183(8) . . .
161(7) . . .
167(7) . . .
170(7) . . .
168(7) . . .
177(7) . . .
197(8) . . .
166(7) . . .
174(7) . . .
190(8) . . .
181(7) . . .
186(7) . . .
165(7) . . .
166(7) . . .
168(7) . . .
170(7) . . .
179(7) . . .
180(7) . . .
160(7) . . .
170(7) . . .
177(7) . . .
175(7) . . .
176(7) . . .
178(7) . . .
193(8) . . .
168(7) . . .
184(7) . . .
164(7) . . .
173(7) . . .
177(8) . . .
189(8) . . .
165(7) . . .
165(7) . . .
185(7) . . .
177(7) . . .
160(7) . . .
176(7) . . .
167(7) . . .
168(7) . . .
167(7) . . .
185(8) . . .
176(7) . . .
174(7) . . .
173(7) . . .
169(7) . . .
175(7) . . .
188(7) . . .
179(7) . . .
176(7) . . .
171(7) . . .
175(7) . . .
178(7) . . .
175(7) . . .
168(7) . . .
171(7) . . .
166(7) . . .
166(7) . . .
187(7) . . .
165(7) . . .
171(7) . . .
156(7) . . .
168(7) . . .
164(7) . . .
158(7) . . .
165(7) . . .
181(7) . . .
164(7) . . .
176(7) . . .
171(7) . . .
180(7) . . .
166(7) . . .
158(7) . . .
164(7) . . .
170(7) . . .
155(7) . . .
165(7) . . .
170(7) . . .
177(7) . . .
188(8) . . .
151(7) . . .
154(6) . . .
156(7) . . .
171(7) . . .
157(7) . . .
163(7) . . .
179(7) . . .
172(7) . . .
194(8) . . .
188(7) . . .
179(7) . . .
154(6) . . .
176(7) . . .
158(7) . . .
175(7) . . .
156(7) . . .
166(7) . . .
182(7) . . .
176(7) . . .
178(7) . . .
193(8) . . .
158(7) . . .
148(6) . . .
162(7) . . .
168(7) . . .
168(7) . . .
184(7) . . .
192(7) . . .
161(7) . . .
150(7) . . .
161(7) . . .
162(7) . . .
170(7) . . .
167(7) . . .
173(7) . . .
170(7) . . .
171(7) . . .
178(7) . . .
171(7) . . .
166(7) . . .
166(7) . . .
169(7) . . .
160(7) . . .
171(7) . . .
162(7) . . .
177(7) . . .
173(7) . . .
167(7) . . .
185(8) . . .
180(7) . . .
160(7) . . .
162(7) . . .
181(7) . . .
183(8) . . .
164(7) . . .
186(7) . . .
188(7) . . .
182(7) . . .
166(7) . . .
162(7) . . .
155(6) . . .
188(7) . . .
187(7) . . .
191(8) . . .
168(7) . . .
171(7) . . .
171(7) . . .
172(7) . . .
175(7) . . .
164(7) . . .
171(7) . . .
176(7) . . .
190(7) . . .
170(7) . . .
179(7) . . .
186(7) . . .
171(7) . . .
166(7) . . .
175(7) . . .
168(7) . . .
176(7) . . .
178(7) . . .
166(7) . . .
184(7) . . .
175(7) . . .
166(7) . . .
169(7) . . .
158(7) . . .
164(7) . . .
167(7) . . .
171(7) . . .
174(7) . . .
169(7) . . .
178(7) . . .
156(7) . . .
159(7) . . .
172(7) . . .
166(7) . . .
157(7) . . .
157(6) . . .
165(7) . . .
174(7) . . .
172(7) . . .
153(7) . . .
174(7) . . .
169(7) . . .
172(7) . . .
180(7) . . .
187(7) . . .
163(7) . . .
173(7) . . .
146(6) . . .
173(7) . . .
185(7) . . .
174(7) . . .
175(7) . . .
178(7) . . .
181(7) . . .
175(7) . . .
159(7) . . .
157(7) . . .
176(7) . . .
175(7) . . .
165(7) . . .
156(7) . . .
144(6) . . .
150(7) . . .
146(7) . . .
173(7) . . .
171(7) . . .
175(7) . . .
173(7) . . .
163(7) . . .
163(7) . . .
175(7) . . .
157(7) . . .
175(7) . . .
163(7) . . .
170(7) . . .
175(7) . . .
155(7) . . .
170(7) . . .
173(7) . . .
186(7) . . .
154(6) . . .
173(7) . . .
174(7) . . .
160(7) . . .
169(7) . . .
156(7) . . .
168(7) . . .
186(8) . . .
190(7) . . .
178(7) . . .
169(7) . . .
172(7) . . .
174(7) . . .
183(7) . . .
181(7) . . .
180(7) . . .
176(7) . . .
180(7) . . .
165(7) . . .
176(7) . . .
176(7) . . .
180(7) . . .
180(7) . . .
162(7) . . .
150(6) . . .
158(7) . . .
168(7) . . .
172(7) . . .
185(7) . . .
162(7) . . .
184(7) . . .
171(7) . . .
168(7) . . .
187(7) . . .
164(7) . . .
184(7) . . .
174(7) . . .
148(7) . . .
144(6) . . .
172(7) . . .
173(7) . . .
161(7) . . .
159(7) . . .
159(7) . . .
152(6) . . .
173(7) . . .
161(7) . . .
153(7) . . .
146(6) . . .
163(7) . . .
171(7) . . .
175(7) . . .
168(7) . . .
169(7) . . .
155(6) . . .
189(8) . . .
163(7) . . .
178(7) . . .
154(6) . . .
177(7) . . .
148(6) . . .
153(7) . . .
173(7) . . .
166(7) . . .
156(7) . . .
162(7) . . .
164(7) . . .
150(7) . . .
163(7) . . .
154(6) . . .
175(7) . . .
183(7) . . .
165(7) . . .
162(7) . . .
170(7) . . .
157(7) . . .
159(7) . . .
159(7) . . .
158(7) . . .
179(7) . . .
158(7) . . .
166(7) . . .
163(7) . . .
162(7) . . .
169(7) . . .
153(7) . . .
158(7) . . .
161(7) . . .
156(7) . . .
165(7) . . .
173(7) . . .
166(7) . . .
168(7) . . .
154(6) . . .
169(7) . . .
176(7) . . .
166(7) . . .
174(7) . . .
168(7) . . .
167(7) . . .
153(7) . . .
182(7) . . .
174(7) . . .
169(7) . . .
161(7) . . .
171(7) . . .
171(7) . . .
195(7) . . .
148(6) . . .
145(6) . . .
172(7) . . .
172(7) . . .
159(7) . . .
157(6) . . .
162(7) . . .
178(8) . . .
175(7) . . .
176(7) . . .
167(7) . . .
176(7) . . .
176(7) . . .
164(7) . . .
174(7) . . .
179(7) . . .
178(7) . . .
158(7) . . .
170(7) . . .
157(6) . . .
151(7) . . .
171(7) . . .
155(7) . . .
176(7) . . .
184(7) . . .
182(7) . . .
176(7) . . .
162(7) . . .
156(7) . . .
165(7) . . .
158(7) . . .
183(7) . . .
200(8) . . .
173(7) . . .
168(7) . . .
169(7) . . .
162(7) . . .
170(7) . . .
164(7) . . .
177(7) . . .
163(7) . . .
148(7) . . .
162(7) . . .
163(7) . . .
178(7) . . .
168(7) . . .
163(7) . . .
170(7) . . .
180(7) . . .
179(7) . . .
164(7) . . .
155(7) . . .
174(7) . . .
171(7) . . .
178(7) . . .
158(7) . . .
162(7) . . .
165(7) . . .
159(7) . . .
169(7) . . .
151(6) . . .
159(7) . . .
157(7) . . .
149(6) . . .
158(7) . . .
174(7) . . .
160(7) . . .
180(7) . . .
153(6) . . .
160(7) . . .
190(8) . . .
156(7) . . .
149(6) . . .
179(7) . . .
161(7) . . .
156(7) . . .
161(7) . . .
161(7) . . .
146(6) . . .
180(7) . . .
175(7) . . .
166(7) . . .
170(7) . . .
191(7) . . .
150(7) . . .
161(7) . . .
150(7) . . .
165(7) . . .
163(7) . . .
156(7) . . .
169(7) . . .
172(7) . . .
176(7) . . .
166(7) . . .
162(7) . . .
161(7) . . .
157(7) . . .
173(7) . . .
174(7) . . .
167(7) . . .
166(7) . . .
169(7) . . .
160(7) . . .
168(7) . . .
142(6) . . .
164(7) . . .
173(7) . . .
165(7) . . .
167(7) . . .
160(7) . . .
159(7) . . .
165(7) . . .
193(7) . . .
152(6) . . .
166(7) . . .
160(7) . . .
163(7) . . .
171(7) . . .
167(7) . . .
176(7) . . .
177(7) . . .
180(7) . . .
164(7) . . .
163(7) . . .
148(6) . . .
154(7) . . .
159(7) . . .
153(6) . . .
179(7) . . .
155(7) . . .
171(7) . . .
182(7) . . .
167(7) . . .
169(7) . . .
156(7) . . .
159(7) . . .
176(7) . . .
161(7) . . .
159(7) . . .
164(7) . . .
175(7) . . .
176(7) . . .
158(7) . . .
166(7) . . .
156(7) . . .
160(7) . . .
149(7) . . .
151(6) . . .
167(7) . . .
159(7) . . .
162(7) . . .
164(7) . . .
173(7) . . .
161(7) . . .
163(7) . . .
178(7) . . .
156(7) . . .
151(6) . . .
156(7) . . .
155(7) . . .
155(7) . . .
159(7) . . .
182(7) . . .
138(6) . . .
164(7) . . .
143(6) . . .
156(6) . . .
153(7) . . .
168(7) . . .
183(8) . . .
155(7) . . .
157(6) . . .
153(7) . . .
154(7) . . .
164(7) . . .
181(7) . . .
189(7) . . .
178(7) . . .
152(7) . . .
166(7) . . .
179(7) . . .
160(7) . . .
162(7) . . .
172(7) . . .
179(7) . . .
143(6) . . .
158(7) . . .
173(7) . . .
160(7) . . .
152(7) . . .
173(7) . . .
165(7) . . .
172(7) . . .
163(7) . . .
151(6) . . .
166(7) . . .
162(7) . . .
175(7) . . .
161(7) . . .
153(7) . . .
150(6) . . .
158(7) . . .
163(7) . . .
147(7) . . .
155(7) . . .
166(7) . . .
147(6) . . .
157(7) . . .
175(7) . . .
173(7) . . .
164(7) . . .
152(6) . . .
166(7) . . .
185(8) . . .
166(7) . . .
176(7) . . .
167(7) . . .
175(7) . . .
173(7) . . .
165(7) . . .
180(7) . . .
166(7) . . .
156(7) . . .
159(7) . . .
154(7) . . .
167(7) . . .
163(7) . . .
164(7) . . .
182(7) . . .
158(7) . . .
174(7) . . .
161(7) . . .
159(7) . . .
169(7) . . .
171(7) . . .
191(7) . . .
161(7) . . .
177(7) . . .
160(7) . . .
158(7) . . .
153(7) . . .
155(7) . . .
152(7) . . .
176(7) . . .
149(6) . . .
168(7) . . .
167(7) . . .
160(7) . . .
155(7) . . .
176(7) . . .
176(7) . . .
155(7) . . .
155(7) . . .
157(7) . . .
165(7) . . .
170(7) . . .
152(7) . . .
177(8) . . .
160(7) . . .
165(7) . . .
151(6) . . .
173(7) . . .
151(7) . . .
158(7) . . .
169(7) . . .
153(6) . . .
169(7) . . .
177(7) . . .
169(7) . . .
176(7) . . .
178(7) . . .
155(7) . . .
172(7) . . .
171(7) . . .
144(6) . . .
157(7) . . .
169(7) . . .
164(7) . . .
157(7) . . .
171(7) . . .
174(7) . . .
160(7) . . .
172(7) . . .
150(6) . . .
151(6) . . .
171(7) . . .
170(7) . . .
143(6) . . .
160(7) . . .
152(6) . . .
152(6) . . .
167(7) . . .
151(7) . . .
147(6) . . .
154(6) . . .
179(7) . . .
145(7) . . .
173(7) . . .
187(7) . . .
153(6) . . .
156(7) . . .
169(7) . . .
175(7) . . .
174(7) . . .
171(7) . . .
148(6) . . .
175(7) . . .
167(7) . . .
159(7) . . .
165(7) . . .
161(7) . . .
170(8) . . .
171(7) . . .
156(6) . . .
169(7) . . .
168(7) . . .
171(7) . . .
148(6) . . .
174(7) . . .
155(7) . . .
163(7) . . .
173(7) . . .
180(7) . . .
152(6) . . .
160(7) . . .
167(7) . . .
167(7) . . .
165(7) . . .
181(7) . . .
160(7) . . .
161(7) . . .
154(7) . . .
154(7) . . .
150(6) . . .
167(7) . . .
162(7) . . .
159(7) . . .
155(7) . . .
160(7) . . .
168(7) . . .
159(7) . . .
162(7) . . .
178(7) . . .
167(7) . . .
163(7) . . .
167(7) . . .
147(6) . . .
169(7) . . .
145(6) . . .
178(7) . . .
151(7) . . .
179(7) . . .
159(7) . . .
161(7) . . .
169(7) . . .
176(7) . . .
138(6) . . .
146(6) . . .
156(6) . . .
176(7) . . .
146(6) . . .
173(7) . . .
174(7) . . .
150(6) . . .
145(6) . . .
157(7) . . .
162(7) . . .
152(6) . . .
153(7) . . .
166(7) . . .
172(7) . . .
169(7) . . .
163(7) . . .
145(6) . . .
169(7) . . .
141(6) . . .
159(7) . . .
169(7) . . .
166(7) . . .
167(7) . . .
148(6) . . .
142(6) . . .
182(7) . . .
159(7) . . .
148(6) . . .
163(7) . . .
160(7) . . .
160(7) . . .
158(7) . . .
166(7) . . .
171(7) . . .
150(6) . . .
168(7) . . .
146(7) . . .
163(7) . . .
159(7) . . .
175(7) . . .
187(7) . . .
166(7) . . .
168(7) . . .
157(7) . . .
169(7) . . .
168(7) . . .
143(6) . . .
148(7) . . .
159(7) . . .
190(7) . . .
180(7) . . .
169(7) . . .
158(7) . . .
169(7) . . .
154(6) . . .
161(7) . . .
161(7) . . .
157(7) . . .
150(7) . . .
163(7) . . .
141(6) . . .
153(7) . . .
162(7) . . .
154(7) . . .
164(7) . . .
180(7) . . .
165(7) . . .
147(7) . . .
156(7) . . .
170(7) . . .
161(7) . . .
158(7) . . .
171(7) . . .
169(7) . . .
175(7) . . .
176(7) . . .
158(7) . . .
171(7) . . .
165(7) . . .
157(7) . . .
156(7) . . .
153(7) . . .
149(7) . . .
155(7) . . .
149(6) . . .
164(7) . . .
161(7) . . .
154(7) . . .
157(7) . . .
152(6) . . .
162(7) . . .
163(7) . . .
160(7) . . .
159(7) . . .
161(7) . . .
157(7) . . .
164(7) . . .
169(7) . . .
173(7) . . .
159(7) . . .
153(7) . . .
151(7) . . .
162(7) . . .
170(7) . . .
172(7) . . .
189(7) . . .
167(7) . . .
162(7) . . .
162(7) . . .
165(7) . . .
173(7) . . .
149(7) . . .
146(6) . . .
173(7) . . .
153(6) . . .
158(7) . . .
150(7) . . .
154(7) . . .
150(6) . . .
163(7) . . .
167(7) . . .
144(6) . . .
140(6) . . .
157(7) . . .
165(7) . . .
160(7) . . .
151(7) . . .
151(6) . . .
148(6) . . .
161(7) . . .
181(8) . . .
156(7) . . .
141(6) . . .
157(6) . . .
168(7) . . .
161(7) . . .
161(7) . . .
144(6) . . .
162(7) . . .
151(6) . . .
165(7) . . .
147(6) . . .
155(6) . . .
160(7) . . .
154(6) . . .
172(7) . . .
168(7) . . .
160(7) . . .
152(6) . . .
154(7) . . .
173(8) . . .
161(7) . . .
161(7) . . .
163(7) . . .
188(7) . . .
163(7) . . .
147(6) . . .
156(7) . . .
154(7) . . .
142(6) . . .
172(7) . . .
173(7) . . .
162(7) . . .
160(7) . . .
157(7) . . .
162(7) . . .
161(7) . . .
151(6) . . .
133(6) . . .
144(7) . . .
156(7) . . .
151(7) . . .
137(6) . . .
154(7) . . .
159(7) . . .
153(7) . . .
144(6) . . .
143(6) . . .
157(7) . . .
149(7) . . .
149(7) . . .
153(7) . . .
151(6) . . .
161(7) . . .
151(7) . . .
145(7) . . .
158(7) . . .
147(6) . . .
153(7) . . .
149(7) . . .
150(6) . . .
157(7) . . .
155(6) . . .
167(7) . . .
163(7) . . .
176(7) . . .
155(7) . . .
182(7) . . .
155(7) . . .
168(7) . . .
164(7) . . .
159(7) . . .
171(7) . . .
174(7) . . .
157(7) . . .
172(7) . . .
158(7) . . .
165(7) . . .
168(7) . . .
155(7) . . .
161(7) . . .
136(6) . . .
147(6) . . .
158(7) . . .
159(7) . . .
156(7) . . .
161(7) . . .
166(7) . . .
172(7) . . .
159(7) . . .
157(7) . . .
169(7) . . .
152(6) . . .
154(7) . . .
160(7) . . .
161(7) . . .
147(6) . . .
162(7) . . .
156(7) . . .
152(7) . . .
158(7) . . .
162(7) . . .
165(7) . . .
154(7) . . .
159(7) . . .
171(7) . . .
148(6) . . .
156(7) . . .
156(7) . . .
148(7) . . .
149(6) . . .
144(6) . . .
150(7) . . .
165(7) . . .
135(6) . . .
156(7) . . .
136(6) . . .
148(7) . . .
158(7) . . .
165(7) . . .
151(6) . . .
158(7) . . .
173(7) . . .
179(7) . . .
151(7) . . .
163(7) . . .
158(7) . . .
164(7) . . .
143(7) . . .
162(7) . . .
164(7) . . .
161(7) . . .
150(7) . . .
155(7) . . .
164(7) . . .
143(6) . . .
158(7) . . .
150(7) . . .
154(7) . . .
176(7) . . .
162(7) . . .
172(7) . . .
168(7) . . .
169(7) . . .
159(7) . . .
168(7) . . .
165(7) . . .
153(7) . . .
179(7) . . .
166(7) . . .
174(7) . . .
150(7) . . .
156(7) . . .
158(7) . . .
177(7) . . .
154(7) . . .
159(7) . . .
158(7) . . .
162(7) . . .
160(7) . . .
146(6) . . .
146(6) . . .
146(7) . . .
149(7) . . .
162(7) . . .
160(7) . . .
145(7) . . .
144(7) . . .
150(7) . . .
157(7) . . .
164(7) . . .
172(7) . . .
171(7) . . .
165(7) . . .
171(7) . . .
160(7) . . .
169(7) . . .
155(7) . . .
165(7) . . .
158(6) . . .
164(7) . . .
143(6) . . .
164(7) . . .
179(7) . . .
178(7) . . .
168(7) . . .
143(6) . . .
164(7) . . .
145(7) . . .
155(7) . . .
150(6) . . .
131(6) . . .
156(7) . . .
147(6) . . .
153(6) . . .
145(6) . . .
159(7) . . .
147(6) . . .
163(7) . . .
159(7) . . .
141(6) . . .
150(7) . . .
150(7) . . .
175(7) . . .
169(7) . . .
152(7) . . .
155(7) . . .
135(6) . . .
151(6) . . .
158(7) . . .
172(7) . . .
141(6) . . .
150(7) . . .
134(6) . . .
166(7) . . .
148(7) . . .
141(7) . . .
161(7) . . .
167(7) . . .
154(6) . . .
160(7) . . .
147(7) . . .
154(7) . . .
154(6) . . .
159(7) . . .
172(7) . . .
150(7) . . .
141(6) . . .
146(6) . . .
165(7) . . .
147(6) . . .
163(7) . . .
160(7) . . .
154(7) . . .
154(6) . . .
172(7) . . .
151(7) . . .
168(7) . . .
147(6) . . .
129(6) . . .
150(7) . . .
163(7) . . .
139(6) . . .
159(7) . . .
157(7) . . .
150(7) . . .
142(6) . . .
163(7) . . .
167(7) . . .
152(7) . . .
155(7) . . .
131(6) . . .
137(6) . . .
149(6) . . .
157(7) . . .
166(7) . . .
166(7) . . .
159(7) . . .
172(7) . . .
156(7) . . .
165(7) . . .
155(7) . . .
159(7) . . .
177(7) . . .
170(7) . . .
152(7) . . .
166(7) . . .
149(6) . . .
145(6) . . .
153(7) . . .
152(7) . . .
154(7) . . .
159(7) . . .
152(6) . . .
144(6) . . .
163(7) . . .
169(7) . . .
150(6) . . .
151(6) . . .
145(6) . . .
167(7) . . .
173(7) . . .
155(6) . . .
163(7) . . .
152(7) . . .
156(7) . . .
182(7) . . .
155(6) . . .
149(7) . . .
163(7) . . .
169(7) . . .
172(7) . . .
162(7) . . .
154(7) . . .
138(6) . . .
160(7) . . .
149(7) . . .
156(6) . . .
170(7) . . .
159(7) . . .
152(7) . . .
156(7) . . .
160(7) . . .
148(7) . . .
156(7) . . .
160(7) . . .
177(7) . . .
159(7) . . .
161(7) . . .
166(7) . . .
186(7) . . .
159(7) . . .
148(6) . . .
155(7) . . .
172(7) . . .
160(7) . . .
158(7) . . .
164(7) . . .
160(7) . . .
167(7) . . .
165(7) . . .
139(6) . . .
144(6) . . .
155(7) . . .
148(7) . . .
153(7) . . .
168(7) . . .
168(7) . . .
152(7) . . .
138(6) . . .
162(7) . . .
146(6) . . .
128(6) . . .
149(7) . . .
153(7) . . .
164(7) . . .
177(7) . . .
161(7) . . .
149(7) . . .
135(6) . . .
156(7) . . .
143(6) . . .
168(7) . . .
160(7) . . .
159(7) . . .
156(7) . . .
158(7) . . .
160(7) . . .
158(7) . . .
171(7) . . .
163(7) . . .
158(7) . . .
149(7) . . .
163(7) . . .
145(6) . . .
153(7) . . .
147(6) . . .
158(7) . . .
155(7) . . .
175(7) . . .
150(6) . . .
162(7) . . .
147(6) . . .
162(7) . . .
168(7) . . .
169(7) . . .
175(7) . . .
157(7) . . .
160(7) . . .
160(7) . . .
183(7) . . .
168(7) . . .
159(7) . . .
153(7) . . .
158(7) . . .
157(6) . . .
163(7) . . .
148(7) . . .
143(7) . . .
169(7) . . .
157(6) . . .
157(7) . . .
158(7) . . .
158(7) . . .
138(6) . . .
165(7) . . .
168(7) . . .
143(7) . . .
151(7) . . .
144(6) . . .
162(7) . . .
137(6) . . .
148(7) . . .
152(7) . . .
144(6) . . .
165(7) . . .
160(7) . . .
147(7) . . .
146(6) . . .
165(7) . . .
164(7) . . .
152(7) . . .
151(7) . . .
155(7) . . .
148(6) . . .
164(7) . . .
141(6) . . .
154(7) . . .
153(7) . . .
159(7) . . .
160(7) . . .
149(6) . . .
151(7) . . .
133(6) . . .
143(6) . . .
154(6) . . .
156(7) . . .
152(7) . . .
154(7) . . .
157(7) . . .
161(7) . . .
140(6) . . .
146(7) . . .
151(7) . . .
144(6) . . .
157(7) . . .
172(7) . . .
154(7) . . .
144(7) . . .
143(6) . . .
169(7) . . .
154(7) . . .
158(7) . . .
145(6) . . .
158(7) . . .
153(6) . . .
159(7) . . .
157(7) . . .
179(7) . . .
174(7) . . .
153(7) . . .
163(7) . . .
153(7) . . .
184(7) . . .
174(7) . . .
151(7) . . .
159(7) . . .
139(6) . . .
148(7) . . .
148(6) . . .
176(7) . . .
158(7) . . .
156(7) . . .
163(7) . . .
148(6) . . .
150(7) . . .
153(7) . . .
150(7) . . .
131(6) . . .
132(6) . . .
150(7) . . .
157(7) . . .
146(6) . . .
172(7) . . .
158(6) . . .
155(7) . . .
152(7) . . .
165(7) . . .
164(7) . . .
164(7) . . .
168(7) . . .
160(7) . . .
164(7) . . .
160(7) . . .
155(6) . . .
145(6) . . .
139(6) . . .
145(6) . . .
151(6) . . .
170(7) . . .
157(7) . . .
149(7) . . .
168(7) . . .
143(6) . . .
139(6) . . .
154(7) . . .
155(7) . . .
149(7) . . .
137(6) . . .
139(6) . . .
160(7) . . .
155(7) . . .
142(6) . . .
154(6) . . .
159(7) . . .
161(7) . . .
167(7) . . .
159(7) . . .
141(6) . . .
141(6) . . .
152(7) . . .
149(7) . . .
152(6) . . .
142(6) . . .
151(6) . . .
171(7) . . .
151(7) . . .
153(6) . . .
145(6) . . .
151(7) . . .
160(7) . . .
162(7) . . .
163(7) . . .
151(6) . . .
143(6) . . .
140(7) . . .
136(6) . . .
155(6) . . .
135(6) . . .
152(7) . . .
151(7) . . .
163(7) . . .
161(7) . . .
152(6) . . .
160(7) . . .
147(7) . . .
154(7) . . .
159(7) . . .
161(7) . . .
145(6) . . .
164(7) . . .
140(6) . . .
151(6) . . .
139(6) . . .
166(7) . . .
145(6) . . .
150(7) . . .
131(6) . . .
141(6) . . .
152(7) . . .
157(7) . . .
148(7) . . .
135(6) . . .
157(7) . . .
152(7) . . .
139(6) . . .
141(6) . . .
145(6) . . .
132(6) . . .
155(7) . . .
144(7) . . .
162(7) . . .
162(7) . . .
161(7) . . .
145(7) . . .
163(7) . . .
147(6) . . .
143(6) . . .
150(7) . . .
166(7) . . .
160(7) . . .
156(7) . . .
153(6) . . .
155(7) . . .
156(7) . . .
144(6) . . .
148(6) . . .
145(6) . . .
153(6) . . .
173(7) . . .
162(7) . . .
145(6) . . .
146(6) . . .
138(6) . . .
148(7) . . .
152(7) . . .
149(6) . . .
163(7) . . .
155(7) . . .
153(7) . . .
149(6) . . .
145(6) . . .
150(6) . . .
147(6) . . .
149(7) . . .
149(7) . . .
159(7) . . .
144(6) . . .
140(6) . . .
166(7) . . .
153(7) . . .
142(6) . . .
158(7) . . .
152(7) . . .
158(7) . . .
162(7) . . .
163(7) . . .
149(7) . . .
169(7) . . .
176(7) . . .
154(7) . . .
163(7) . . .
159(7) . . .
165(7) . . .
171(7) . . .
142(6) . . .
161(7) . . .
151(7) . . .
162(7) . . .
146(6) . . .
148(6) . . .
136(6) . . .
143(6) . . .
148(7) . . .
149(7) . . .
152(6) . . .
150(6) . . .
153(7) . . .
153(7) . . .
150(6) . . .
169(7) . . .
162(7) . . .
160(7) . . .
135(6) . . .
141(6) . . .
149(6) . . .
155(6) . . .
148(6) . . .
155(7) . . .
151(7) . . .
153(6) . . .
144(6) . . .
164(7) . . .
153(7) . . .
157(7) . . .
139(6) . . .
168(7) . . .
180(7) . . .
178(7) . . .
155(7) . . .
151(6) . . .
162(7) . . .
149(7) . . .
168(7) . . .
139(6) . . .
162(7) . . .
167(7) . . .
152(7) . . .
153(7) . . .
152(7) . . .
158(7) . . .
146(6) . . .
150(7) . . .
165(7) . . .
153(6) . . .
156(7) . . .
161(7) . . .
146(7) . . .
151(7) . . .
166(7) . . .
129(6) . . .
151(7) . . .
153(7) . . .
142(6) . . .
175(7) . . .
155(7) . . .
155(7) . . .
142(6) . . .
143(6) . . .
147(6) . . .
155(6) . . .
139(6) . . .
150(7) . . .
150(7) . . .
152(6) . . .
154(6) . . .
151(7) . . .
154(7) . . .
133(6) . . .
152(7) . . .
151(6) . . .
131(6) . . .
139(7) . . .
155(7) . . .
160(7) . . .
158(6) . . .
144(6) . . .
153(7) . . .
148(7) . . .
143(6) . . .
137(6) . . .
154(7) . . .
152(7) . . .
158(7) . . .
160(7) . . .
152(6) . . .
157(7) . . .
145(6) . . .
168(7) . . .
145(6) . . .
156(7) . . .
145(7) . . .
144(7) . . .
143(6) . . .
152(6) . . .
169(7) . . .
154(7) . . .
138(6) . . .
143(6) . . .
153(6) . . .
165(7) . . .
147(7) . . .
162(7) . . .
145(6) . . .
149(6) . . .
155(7) . . .
164(7) . . .
141(6) . . .
162(7) . . .
163(7) . . .
157(7) . . .
139(6) . . .
139(6) . . .
153(6) . . .
166(7) . . .
162(7) . . .
167(7) . . .
176(7) . . .
149(6) . . .
155(6) . . .
155(7) . . .
173(7) . . .
156(7) . . .
148(6) . . .
157(7) . . .
136(6) . . .
153(7) . . .
154(7) . . .
138(6) . . .
146(6) . . .
140(6) . . .
152(7) . . .
160(7) . . .
150(6) . . .
158(7) . . .
141(6) . . .
136(6) . . .
135(6) . . .
147(6) . . .
136(6) . . .
156(7) . . .
151(7) . . .
144(6) . . .
148(6) . . .
152(6) . . .
162(7) . . .
134(6) . . .
154(6) . . .
140(6) . . .
135(6) . . .
157(7) . . .
145(6) . . .
144(6) . . .
148(6) . . .
154(7) . . .
127(6) . . .
137(6) . . .
144(6) . . .
140(6) . . .
153(7) . . .
146(7) . . .
149(7) . . .
137(6) . . .
145(6) . . .
147(6) . . .
152(7) . . .
141(6) . . .
157(7) . . .
159(7) . . .
150(7) . . .
134(6) . . .
155(7) . . .
144(6) . . .
139(6) . . .
128(6) . . .
133(6) . . .
151(7) . . .
169(7) . . .
146(7) . . .
146(7) . . .
131(6) . . .
159(7) . . .
148(6) . . .
153(6) . . .
144(6) . . .
159(7) . . .
141(6) . . .
159(7) . . .
159(7) . . .
146(7) . . .
136(6) . . .
147(6) . . .
162(7) . . .
149(7) . . .
163(7) . . .
134(6) . . .
132(6) . . .
130(6) . . .
140(6) . . .
147(7) . . .
152(6) . . .
164(7) . . .
148(6) . . .
163(7) . . .
147(7) . . .
133(6) . . .
128(6) . . .
142(6) . . .
140(6) . . .
148(7) . . .
116(6) . . .
153(6) . . .
171(7) . . .
153(7) . . .
137(7) . . .
133(6) . . .
138(6) . . .
136(6) . . .
148(7) . . .
132(6) . . .
146(7) . . .
143(6) . . .
150(6) . . .
149(7) . . .
139(6) . . .
134(7) . . .
143(6) . . .
143(6) . . .
128(6) . . .
144(7) . . .
158(7) . . .
139(6) . . .
141(6) . . .
128(6) . . .
140(6) . . .
140(6) . . .
145(6) . . .
155(7) . . .
129(6) . . .
144(7) . . .
149(7) . . .
151(6) . . .
149(7) . . .
165(7) . . .
135(6) . . .
149(6) . . .
145(6) . . .
141(6) . . .
142(7) . . .
143(6) . . .
151(7) . . .
142(6) . . .
148(6) . . .
157(7) . . .
160(7) . . .
144(6) . . .
143(6) . . .
143(6) . . .
140(7) . . .
155(7) . . .
145(6) . . .
148(6) . . .
147(7) . . .
143(7) . . .
153(7) . . .
133(6) . . .
147(6) . . .
142(6) . . .
143(7) . . .
133(6) . . .
151(6) . . .
140(6) . . .
156(7) . . .
168(7) . . .
147(7) . . .
142(6) . . .
153(6) . . .
153(7) . . .
141(7) . . .
149(7) . . .
139(6) . . .
136(6) . . .
149(7) . . .
140(6) . . .
140(6) . . .
155(6) . . .
153(7) . . .
153(7) . . .
154(7) . . .
141(6) . . .
149(6) . . .
134(6) . . .
159(7) . . .
133(6) . . .
164(7) . . .
147(6) . . .
154(7) . . .
160(7) . . .
143(6) . . .
147(6) . . .
145(6) . . .
158(7) . . .
152(7) . . .
149(7) . . .
140(6) . . .
151(6) . . .
151(6) . . .
153(7) . . .
130(6) . . .
146(6) . . .
166(7) . . .
166(7) . . .
143(7) . . .
141(6) . . .
145(6) . . .
158(7) . . .
155(7) . . .
151(7) . . .
158(7) . . .
157(6) . . .
141(6) . . .
154(7) . . .
154(7) . . .
151(7) . . .
148(6) . . .
161(7) . . .
152(6) . . .
163(7) . . .
153(7) . . .
142(6) . . .
138(6) . . .
132(6) . . .
160(7) . . .
154(6) . . .
150(6) . . .
146(7) . . .
147(7) . . .
151(7) . . .
143(6) . . .
133(6) . . .
151(6) . . .
147(6) . . .
147(7) . . .
157(7) . . .
157(7) . . .
168(7) . . .
152(7) . . .
144(6) . . .
160(7) . . .
169(7) . . .
150(7) . . .
148(7) . . .
149(7) . . .
148(6) . . .
145(6) . . .
152(7) . . .
138(6) . . .
164(7) . . .
142(6) . . .
145(6) . . .
151(7) . . .
142(7) . . .
153(7) . . .
142(6) . . .
146(6) . . .
166(7) . . .
163(7) . . .
144(6) . . .
140(6) . . .
158(7) . . .
153(7) . . .
140(6) . . .
146(6) . . .
143(6) . . .
144(6) . . .
146(7) . . .
149(7) . . .
135(6) . . .
151(6) . . .
156(7) . . .
151(7) . . .
147(6) . . .
142(6) . . .
145(6) . . .
153(6) . . .
144(6) . . .
142(6) . . .
141(6) . . .
163(7) . . .
136(6) . . .
156(7) . . .
133(6) . . .
150(6) . . .
137(6) . . .
161(7) . . .
137(6) . . .
147(6) . . .
172(7) . . .
136(6) . . .
140(6) . . .
150(7) . . .
160(7) . . .
142(6) . . .
149(6) . . .
153(7) . . .
147(7) . . .
151(7) . . .
154(7) . . .
139(6) . . .
132(6) . . .
161(7) . . .
150(6) . . .
141(6) . . .
140(6) . . .
135(6) . . .
146(7) . . .
149(7) . . .
142(6) . . .
146(6) . . .
150(7) . . .
150(7) . . .
142(6) . . .
140(6) . . .
138(6) . . .
147(6) . . .
148(7) . . .
143(6) . . .
156(6) . . .
138(6) . . .
136(6) . . .
164(7) . . .
159(7) . . .
172(7) . . .
150(7) . . .
147(6) . . .
144(7) . . .
147(7) . . .
173(7) . . .
148(6) . . .
164(7) . . .
150(6) . . .
151(6) . . .
156(6) . . .
149(6) . . .
151(7) . . .
146(6) . . .
160(7) . . .
145(6) . . .
152(7) . . .
153(7) . . .
147(6) . . .
141(6) . . .
169(7) . . .
154(7) . . .
151(7) . . .
150(7) . . .
169(7) . . .
144(6) . . .
148(7) . . .
156(7) . . .
157(7) . . .
172(7) . . .
143(6) . . .
148(6) . . .
139(6) . . .
132(6) . . .
133(6) . . .
137(6) . . .
147(7) . . .
160(7) . . .
147(6) . . .
137(6) . . .
151(6) . . .
166(7) . . .
150(7) . . .
149(7) . . .
124(6) . . .
141(6) . . .
135(6) . . .
141(6) . . .
154(6) . . .
147(6) . . .
152(6) . . .
154(7) . . .
141(6) . . .
139(6) . . .
141(6) . . .
143(6) . . .
135(6) . . .
134(6) . . .
144(6) . . .
131(6) . . .
133(6) . . .
148(7) . . .
150(7) . . .
145(6) . . .
136(6) . . .
139(7) . . .
167(7) . . .
148(7) . . .
140(6) . . .
139(6) . . .
152(7) . . .
139(6) . . .
141(6) . . .
160(7) . . .
154(6) . . .
127(6) . . .
144(7) . . .
154(7) . . .
144(6) . . .
148(6) . . .
130(6) . . .
144(7) . . .
142(6) . . .
170(7) . . .
157(7) . . .
135(6) . . .
140(7) . . .
133(6) . . .
143(6) . . .
152(6) . . .
133(6) . . .
149(7) . . .
135(6) . . .
149(6) . . .
159(7) . . .
146(6) . . .
156(7) . . .
158(7) . . .
138(6) . . .
135(6) . . .
149(7) . . .
153(7) . . .
136(6) . . .
126(6) . . .
151(7) . . .
147(7) . . .
141(6) . . .
136(6) . . .
135(6) . . .
141(6) . . .
145(7) . . .
145(7) . . .
145(7) . . .
153(6) . . .
151(7) . . .
138(6) . . .
127(6) . . .
124(6) . . .
134(6) . . .
155(7) . . .
139(6) . . .
147(7) . . .
140(6) . . .
130(6) . . .
135(6) . . .
154(7) . . .
134(6) . . .
133(6) . . .
146(6) . . .
143(6) . . .
140(6) . . .
148(6) . . .
150(6) . . .
149(6) . . .
155(7) . . .
145(7) . . .
152(6) . . .
131(6) . . .
139(6) . . .
137(6) . . .
167(7) . . .
150(7) . . .
127(6) . . .
163(7) . . .
143(6) . . .
137(6) . . .
145(7) . . .
147(6) . . .
146(6) . . .
161(7) . . .
150(7) . . .
126(6) . . .
152(6) . . .
147(6) . . .
135(6) . . .
146(7) . . .
140(6) . . .
152(6) . . .
138(6) . . .
156(7) . . .
146(6) . . .
163(7) . . .
154(6) . . .
136(6) . . .
142(6) . . .
150(7) . . .
135(6) . . .
154(6) . . .
140(6) . . .
149(7) . . .
158(7) . . .
136(6) . . .
137(6) . . .
139(6) . . .
148(7) . . .
137(6) . . .
141(6) . . .
142(6) . . .
148(6) . . .
137(6) . . .
154(7) . . .
142(6) . . .
138(6) . . .
165(7) . . .
126(6) . . .
140(6) . . .
141(6) . . .
152(6) . . .
133(6) . . .
144(7) . . .
144(6) . . .
146(6) . . .
144(6) . . .
129(6) . . .
138(6) . . .
141(7) . . .
150(6) . . .
133(6) . . .
140(6) . . .
135(6) . . .
147(7) . . .
145(6) . . .
146(6) . . .
151(7) . . .
143(6) . . .
129(6) . . .
139(6) . . .
141(6) . . .
136(6) . . .
145(7) . . .
131(6) . . .
139(6) . . .
127(6) . . .
163(7) . . .
133(6) . . .
130(6) . . .
133(6) . . .
142(6) . . .
126(6) . . .
132(6) . . .
153(7) . . .
147(6) . . .
154(7) . . .
119(6) . . .
129(6) . . .
131(6) . . .
135(6) . . .
121(6) . . .
147(7) . . .
143(6) . . .
134(6) . . .
152(6) . . .
133(6) . . .
129(6) . . .
134(6) . . .
142(6) . . .
147(6) . . .
133(6) . . .
124(6) . . .
144(6) . . .
133(6) . . .
139(6) . . .
125(6) . . .
129(6) . . .
135(6) . . .
137(6) . . .
149(6) . . .
140(6) . . .
140(6) . . .
150(7) . . .
147(6) . . .
139(6) . . .
146(6) . . .
123(6) . . .
138(6) . . .
129(6) . . .
141(6) . . .
136(6) . . .
134(6) . . .
142(6) . . .
127(6) . . .
143(6) . . .
144(6) . . .
157(7) . . .
140(6) . . .
141(6) . . .
144(6) . . .
143(7) . . .
143(7) . . .
160(7) . . .
134(6) . . .
154(7) . . .
133(6) . . .
137(7) . . .
138(6) . . .
131(6) . . .
137(6) . . .
145(7) . . .
146(7) . . .
127(6) . . .
139(6) . . .
145(7) . . .
134(6) . . .
156(7) . . .
134(6) . . .
129(6) . . .
138(6) . . .
130(6) . . .
128(6) . . .
147(6) . . .
152(6) . . .
140(6) . . .
142(7) . . .
123(6) . . .
119(6) . . .
154(6) . . .
132(6) . . .
140(7) . . .
122(6) . . .
158(7) . . .
144(6) . . .
133(6) . . .
138(6) . . .
137(6) . . .
135(6) . . .
138(6) . . .
136(6) . . .
149(7) . . .
151(7) . . .
134(6) . . .
148(6) . . .
149(7) . . .
148(7) . . .
146(7) . . .
124(6) . . .
127(6) . . .
139(7) . . .
132(6) . . .
149(7) . . .
144(6) . . .
132(6) . . .
127(6) . . .
149(7) . . .
149(6) . . .
148(6) . . .
131(6) . . .
133(6) . . .
125(6) . . .
125(6) . . .
137(6) . . .
138(6) . . .
136(7) . . .
122(6) . . .
134(6) . . .
135(6) . . .
122(6) . . .
145(7) . . .
146(6) . . .
140(6) . . .
140(6) . . .
131(6) . . .
148(7) . . .
132(6) . . .
150(6) . . .
130(6) . . .
122(6) . . .
131(6) . . .
143(6) . . .
134(6) . . .
131(6) . . .
141(7) . . .
126(6) . . .
140(6) . . .
129(6) . . .
150(7) . . .
141(6) . . .
120(6) . . .
146(6) . . .
155(6) . . .
123(6) . . .
155(7) . . .
137(6) . . .
137(6) . . .
120(6) . . .
134(6) . . .
134(6) . . .
131(6) . . .
128(6) . . .
127(6) . . .
125(6) . . .
152(7) . . .
136(7) . . .
125(6) . . .
140(6) . . .
140(6) . . .
148(7) . . .
151(7) . . .
150(6) . . .
139(6) . . .
135(6) . . .
142(7) . . .
130(6) . . .
138(6) . . .
128(6) . . .
142(6) . . .
138(7) . . .
131(6) . . .
137(6) . . .
150(6) . . .
140(6) . . .
149(7) . . .
138(6) . . .
135(6) . . .
126(6) . . .
145(7) . . .
131(6) . . .
131(6) . . .
146(6) . . .
155(6) . . .
142(6) . . .
139(6) . . .
142(7) . . .
145(6) . . .
155(6) . . .
140(6) . . .
141(7) . . .
127(6) . . .
146(6) . . .
153(7) . . .
148(7) . . .
136(6) . . .
144(6) . . .
142(6) . . .
149(7) . . .
133(6) . . .
139(6) . . .
150(6) . . .
127(6) . . .
141(6) . . .
135(6) . . .
144(6) . . .
133(6) . . .
151(6) . . .
140(6) . . .
146(7) . . .
130(6) . . .
137(6) . . .
140(6) . . .
146(6) . . .
154(7) . . .
162(7) . . .
145(6) . . .
138(6) . . .
122(6) . . .
141(7) . . .
141(6) . . .
140(6) . . .
123(6) . . .
127(6) . . .
129(6) . . .
140(6) . . .
152(6) . . .
129(6) . . .
139(6) . . .
137(6) . . .
146(7) . . .
130(6) . . .
136(6) . . .
134(6) . . .
130(6) . . .
146(7) . . .
138(6) . . .
136(6) . . .
153(7) . . .
153(7) . . .
158(7) . . .
128(6) . . .
136(6) . . .
135(6) . . .
143(7) . . .
140(6) . . .
129(6) . . .
136(6) . . .
154(7) . . .
141(6) . . .
136(6) . . .
137(6) . . .
147(7) . . .
143(7) . . .
146(7) . . .
139(6) . . .
126(6) . . .
148(7) . . .
136(6) . . .
137(6) . . .
130(6) . . .
145(6) . . .
142(7) . . .
145(7) . . .
147(6) . . .
133(6) . . .
119(6) . . .
137(7) . . .
139(7) . . .
138(6) . . .
134(6) . . .
144(6) . . .
129(6) . . .
137(7) . . .
159(7) . . .
144(6) . . .
145(6) . . .
138(6) . . .
136(7) . . .
132(6) . . .
136(6) . . .
154(7) . . .
151(7) . . .
132(6) . . .
126(6) . . .
124(6) . . .
142(6) . . .
138(6) . . .
140(6) . . .
155(7) . . .
139(6) . . .
138(6) . . .
124(6) . . .
122(6) . . .
119(6) . . .
134(6) . . .
117(6) . . .
127(6) . . .
136(6) . . .
125(6) . . .
132(6) . . .
130(6) . . .
135(6) . . .
126(6) . . .
125(6) . . .
129(6) . . .
138(6) . . .
134(6) . . .
134(6) . . .
134(6) . . .
144(6) . . .
128(6) . . .
129(6) . . .
138(6) . . .
131(6) . . .
139(6) . . .
116(6) . . .
132(6) . . .
140(6) . . .
144(6) . . .
143(6) . . .
126(6) . . .
133(7) . . .
141(6) . . .
150(6) . . .
141(6) . . .
144(7) . . .
121(6) . . .
129(6) . . .
138(6) . . .
127(6) . . .
126(6) . . .
129(6) . . .
141(6) . . .
130(6) . . .
126(6) . . .
137(6) . . .
140(7) . . .
127(6) . . .
149(6) . . .
124(6) . . .
130(6) . . .
127(6) . . .
126(6) . . .
130(6) . . .
127(6) . . .
140(7) . . .
136(6) . . .
131(6) . . .
146(6) . . .
132(6) . . .
122(6) . . .
131(6) . . .
148(6) . . .
149(6) . . .
129(6) . . .
147(7) . . .
137(7) . . .
130(6) . . .
147(6) . . .
143(6) . . .
134(6) . . .
140(6) . . .
127(6) . . .
137(6) . . .
135(6) . . .
137(7) . . .
132(6) . . .
139(6) . . .
131(6) . . .
146(7) . . .
127(6) . . .
147(7) . . .
129(6) . . .
139(6) . . .
132(6) . . .
124(6) . . .
124(6) . . .
128(6) . . .
140(6) . . .
145(7) . . .
147(7) . . .
136(6) . . .
148(6) . . .
117(6) . . .
126(6) . . .
134(6) . . .
130(6) . . .
139(6) . . .
127(6) . . .
143(6) . . .
141(6) . . .
134(6) . . .
131(6) . . .
117(6) . . .
131(6) . . .
138(6) . . .
136(6) . . .
127(6) . . .
141(7) . . .
137(6) . . .
132(6) . . .
153(7) . . .
141(6) . . .
134(6) . . .
149(7) . . .
126(6) . . .
131(6) . . .
138(6) . . .
136(6) . . .
143(7) . . .
124(6) . . .
136(6) . . .
118(6) . . .
132(6) . . .
131(6) . . .
132(6) . . .
146(6) . . .
134(6) . . .
139(6) . . .
121(6) . . .
152(7) . . .
132(6) . . .
139(6) . . .
141(6) . . .
134(6) . . .
162(7) . . .
140(6) . . .
139(6) . . .
135(6) . . .
125(6) . . .
119(6) . . .
129(6) . . .
139(6) . . .
133(6) . . .
150(7) . . .
137(6) . . .
135(6) . . .
131(6) . . .
139(6) . . .
134(6) . . .
131(6) . . .
134(6) . . .
143(6) . . .
125(6) . . .
146(6) . . .
141(6) . . .
134(6) . . .
136(6) . . .
147(7) . . .
141(6) . . .
135(6) . . .
124(6) . . .
137(6) . . .
126(6) . . .
128(6) . . .
138(6) . . .
132(6) . . .
139(6) . . .
121(6) . . .
139(6) . . .
125(6) . . .
133(6) . . .
138(6) . . .
145(7) . . .
138(6) . . .
146(6) . . .
136(6) . . .
126(6) . . .
148(7) . . .
136(6) . . .
119(6) . . .
124(6) . . .
134(6) . . .
133(6) . . .
132(6) . . .
138(6) . . .
138(6) . . .
129(6) . . .
137(6) . . .
131(6) . . .
127(6) . . .
141(6) . . .
116(6) . . .
127(6) . . .
136(6) . . .
126(6) . . .
132(6) . . .
146(7) . . .
137(6) . . .
141(6) . . .
126(6) . . .
130(6) . . .
113(6) . . .
119(6) . . .
137(7) . . .
148(6) . . .
136(6) . . .
133(6) . . .
143(7) . . .
127(6) . . .
119(6) . . .
119(6) . . .
128(6) . . .
122(6) . . .
136(6) . . .
148(6) . . .
122(6) . . .
129(6) . . .
134(6) . . .
131(6) . . .
118(6) . . .
147(7) . . .
134(6) . . .
142(7) . . .
128(6) . . .
136(6) . . .
137(6) . . .
123(6) . . .
154(7) . . .
123(6) . . .
137(6) . . .
126(6) . . .
123(6) . . .
128(6) . . .
132(6) . . .
127(6) . . .
128(6) . . .
134(6) . . .
127(6) . . .
123(6) . . .
131(6) . . .
130(6) . . .
124(6) . . .
150(7) . . .
143(6) . . .
150(6) . . .
162(7) . . .
134(6) . . .
140(6) . . .
135(6) . . .
131(6) . . .
118(6) . . .
141(7) . . .
135(6) . . .
144(6) . . .
130(6) . . .
134(6) . . .
129(6) . . .
129(6) . . .
138(6) . . .
133(6) . . .
122(6) . . .
113(6) . . .
112(6) . . .
121(6) . . .
147(6) . . .
131(6) . . .
120(6) . . .
116(6) . . .
122(6) . . .
139(6) . . .
134(6) . . .
116(6) . . .
135(6) . . .
130(6) . . .
130(6) . . .
124(6) . . .
121(6) . . .
126(6) . . .
136(6) . . .
125(6) . . .
153(7) . . .
130(6) . . .
136(6) . . .
143(6) . . .
126(6) . . .
136(6) . . .
134(6) . . .
144(6) . . .
132(6) . . .
120(6) . . .
129(6) . . .
126(6) . . .
132(6) . . .
142(6) . . .
125(6) . . .
133(6) . . .
154(7) . . .
133(6) . . .
117(6) . . .
122(6) . . .
132(6) . . .
141(6) . . .
133(6) . . .
127(6) . . .
133(6) . . .
120(6) . . .
139(6) . . .
124(6) . . .
128(6) . . .
142(6) . . .
131(6) . . .
122(6) . . .
132(6) . . .
129(6) . . .
138(7) . . .
132(6) . . .
123(6) . . .
122(6) . . .
127(6) . . .
131(6) . . .
138(6) . . .
150(6) . . .
136(6) . . .
126(6) . . .
134(6) . . .
137(6) . . .
143(6) . . .
138(6) . . .
122(6) . . .
132(6) . . .
134(6) . . .
147(6) . . .
164(7) . . .
133(6) . . .
128(6) . . .
115(6) . . .
130(6) . . .
137(6) . . .
153(7) . . .
144(7) . . .
126(6) . . .
130(6) . . .
123(6) . . .
123(6) . . .
136(6) . . .
127(6) . . .
142(6) . . .
143(6) . . .
135(6) . . .
112(6) . . .
122(6) . . .
120(6) . . .
140(6) . . .
146(7) . . .
120(6) . . .
134(6) . . .
119(6) . . .
135(6) . . .
142(7) . . .
119(6) . . .
115(6) . . .
107(5) . . .
130(6) . . .
125(6) . . .
138(6) . . .
126(6) . . .
136(6) . . .
124(6) . . .
113(6) . . .
136(6) . . .
136(6) . . .
151(6) . . .
139(6) . . .
136(6) . . .
123(6) . . .
110(6) . . .
133(6) . . .
135(6) . . .
132(7) . . .
143(7) . . .
145(6) . . .
117(6) . . .
133(6) . . .
135(6) . . .
143(6) . . .
144(6) . . .
131(6) . . .
119(6) . . .
127(6) . . .
129(6) . . .
129(6) . . .
140(6) . . .
142(6) . . .
138(6) . . .
149(7) . . .
131(6) . . .
132(6) . . .
125(6) . . .
145(7) . . .
142(6) . . .
131(6) . . .
138(6) . . .
139(6) . . .
129(6) . . .
135(6) . . .
133(6) . . .
136(6) . . .
133(6) . . .
157(7) . . .
139(6) . . .
130(6) . . .
133(6) . . .
124(6) . . .
127(6) . . .
134(6) . . .
131(6) . . .
129(6) . . .
135(6) . . .
135(6) . . .
131(6) . . .
138(6) . . .
136(6) . . .
149(7) . . .
137(6) . . .
128(6) . . .
118(6) . . .
124(6) . . .
128(6) . . .
146(7) . . .
136(6) . . .
122(6) . . .
127(6) . . .
123(6) . . .
125(6) . . .
119(6) . . .
125(6) . . .
131(6) . . .
127(6) . . .
142(6) . . .
133(6) . . .
116(6) . . .
121(6) . . .
129(6) . . .
145(7) . . .
134(6) . . .
127(6) . . .
139(6) . . .
142(7) . . .
135(6) . . .
134(6) . . .
134(6) . . .
125(6) . . .
136(7) . . .
137(6) . . .
127(6) . . .
131(6) . . .
119(6) . . .
134(6) . . .
132(6) . . .
115(6) . . .
128(6) . . .
135(6) . . .
132(6) . . .
132(6) . . .
118(6) . . .
124(6) . . .
134(7) . . .
130(6) . . .
138(6) . . .
141(6) . . .
135(6) . . .
130(6) . . .
119(6) . . .
133(6) . . .
121(6) . . .
141(6) . . .
125(6) . . .
137(6) . . .
147(6) . . .
107(5) . . .
117(6) . . .
132(6) . . .
123(6) . . .
144(6) . . .
135(6) . . .
121(6) . . .
130(6) . . .
129(6) . . .
125(6) . . .
135(6) . . .
123(6) . . .
126(6) . . .
122(6) . . .
128(6) . . .
134(6) . . .
135(6) . . .
134(6) . . .
126(6) . . .
153(6) . . .
131(6) . . .
133(6) . . .
116(6) . . .
130(6) . . .
116(6) . . .
129(6) . . .
121(6) . . .
128(6) . . .
134(6) . . .
131(6) . . .
114(6) . . .
129(6) . . .
142(7) . . .
126(6) . . .
128(6) . . .
144(6) . . .
129(6) . . .
138(6) . . .
122(6) . . .
111(5) . . .
132(6) . . .
142(6) . . .
150(7) . . .
116(6) . . .
115(6) . . .
119(6) . . .
139(7) . . .
135(6) . . .
135(6) . . .
129(6) . . .
118(6) . . .
118(6) . . .
129(6) . . .
145(6) . . .
140(6) . . .
127(6) . . .
137(6) . . .
161(7) . . .
133(6) . . .
144(6) . . .
139(6) . . .
130(6) . . .
147(7) . . .
114(5) . . .
146(6) . . .
130(6) . . .
128(6) . . .
147(7) . . .
137(6) . . .
145(6) . . .
125(6) . . .
132(6) . . .
124(6) . . .
134(6) . . .
148(6) . . .
134(6) . . .
128(6) . . .
115(6) . . .
133(6) . . .
115(6) . . .
126(6) . . .
115(6) . . .
133(6) . . .
126(6) . . .
129(6) . . .
131(6) . . .
112(6) . . .
125(6) . . .
133(6) . . .
136(6) . . .
133(6) . . .
134(6) . . .
141(6) . . .
129(6) . . .
143(7) . . .
124(6) . . .
130(6) . . .
123(6) . . .
132(6) . . .
122(6) . . .
129(6) . . .
142(6) . . .
138(6) . . .
124(6) . . .
129(6) . . .
120(6) . . .
118(6) . . .
123(6) . . .
109(5) . . .
139(6) . . .
129(6) . . .
126(6) . . .
109(5) . . .
131(6) . . .
118(6) . . .
135(6) . . .
124(6) . . .
127(6) . . .
123(6) . . .
151(6) . . .
146(6) . . .
115(6) . . .
120(6) . . .
126(6) . . .
128(6) . . .
133(6) . . .
125(6) . . .
127(6) . . .
145(7) . . .
124(6) . . .
125(6) . . .
127(6) . . .
140(6) . . .
131(6) . . .
138(6) . . .
122(6) . . .
134(6) . . .
138(6) . . .
110(6) . . .
131(6) . . .
139(6) . . .
122(6) . . .
142(6) . . .
129(6) . . .
121(6) . . .
123(6) . . .
126(6) . . .
128(6) . . .
143(6) . . .
131(6) . . .
126(6) . . .
114(6) . . .
118(6) . . .
133(6) . . .
132(7) . . .
115(6) . . .
131(6) . . .
114(6) . . .
137(6) . . .
122(6) . . .
123(6) . . .
125(6) . . .
145(6) . . .
133(6) . . .
144(7) . . .
147(7) . . .
119(6) . . .
146(6) . . .
132(6) . . .
148(7) . . .
124(6) . . .
121(6) . . .
129(6) . . .
138(6) . . .
113(6) . . .
129(6) . . .
118(6) . . .
115(6) . . .
122(6) . . .
124(6) . . .
130(6) . . .
108(5) . . .
136(6) . . .
135(6) . . .
129(6) . . .
137(6) . . .
119(6) . . .
115(6) . . .
133(6) . . .
139(6) . . .
130(6) . . .
140(6) . . .
146(6) . . .
138(6) . . .
135(6) . . .
120(6) . . .
131(6) . . .
144(7) . . .
122(6) . . .
133(6) . . .
124(6) . . .
133(6) . . .
128(6) . . .
126(6) . . .
111(6) . . .
118(6) . . .
124(6) . . .
133(6) . . .
126(6) . . .
123(6) . . .
131(6) . . .
125(6) . . .
135(6) . . .
136(7) . . .
120(6) . . .
118(6) . . .
145(6) . . .
124(6) . . .
118(6) . . .
125(6) . . .
110(5) . . .
131(6) . . .
123(6) . . .
131(6) . . .
114(6) . . .
132(6) . . .
140(6) . . .
121(6) . . .
124(6) . . .
129(6) . . .
113(6) . . .
120(6) . . .
131(6) . . .
141(7) . . .
132(6) . . .
114(6) . . .
114(6) . . .
122(6) . . .
109(6) . . .
113(6) . . .
126(6) . . .
133(6) . . .
137(6) . . .
126(6) . . .
126(6) . . .
139(6) . . .
130(6) . . .
125(6) . . .
138(6) . . .
137(6) . . .
115(6) . . .
109(5) . . .
133(6) . . .
106(5) . . .
118(6) . . .
107(5) . . .
122(6) . . .
140(6) . . .
130(6) . . .
122(6) . . .
118(6) . . .
119(6) . . .
124(6) . . .
129(6) . . .
108(5) . . .
136(6) . . .
126(6) . . .
124(6) . . .
127(6) . . .
132(6) . . .
130(6) . . .
122(6) . . .
128(6) . . .
122(6) . . .
129(6) . . .
114(6) . . .
132(6) . . .
137(6) . . .
115(6) . . .
129(6) . . .
128(6) . . .
141(7) . . .
120(6) . . .
118(6) . . .
142(6) . . .
139(6) . . .
138(6) . . .
128(6) . . .
124(6) . . .
139(6) . . .
123(6) . . .
122(6) . . .
123(6) . . .
120(6) . . .
140(6) . . .
129(6) . . .
124(6) . . .
123(6) . . .
133(6) . . .
131(6) . . .
130(6) . . .
139(7) . . .
148(7) . . .
125(6) . . .
134(6) . . .
113(6) . . .
138(7) . . .
128(6) . . .
133(6) . . .
125(6) . . .
132(6) . . .
122(6) . . .
128(6) . . .
118(6) . . .
129(6) . . .
144(6) . . .
133(6) . . .
122(6) . . .
118(6) . . .
118(6) . . .
118(6) . . .
126(6) . . .
133(6) . . .
123(6) . . .
134(6) . . .
133(6) . . .
126(6) . . .
128(6) . . .
124(6) . . .
130(6) . . .
126(6) . . .
124(6) . . .
138(6) . . .
121(6) . . .
128(6) . . .
122(6) . . .
112(6) . . .
131(6) . . .
137(6) . . .
131(6) . . .
139(6) . . .
122(6) . . .
116(6) . . .
122(6) . . .
118(6) . . .
143(6) . . .
137(6) . . .
124(6) . . .
115(6) . . .
104(5) . . .
122(6) . . .
119(6) . . .
122(6) . . .
125(6) . . .
127(6) . . .
124(6) . . .
130(6) . . .
125(6) . . .
131(6) . . .
131(6) . . .
138(6) . . .
114(6) . . .
128(6) . . .
140(6) . . .
134(6) . . .
122(6) . . .
125(6) . . .
128(6) . . .
135(6) . . .
119(6) . . .
115(6) . . .
129(6) . . .
124(6) . . .
122(6) . . .
121(6) . . .
127(6) . . .
132(6) . . .
130(6) . . .
133(6) . . .
126(6) . . .
127(6) . . .
122(6) . . .
116(6) . . .
115(6) . . .
129(6) . . .
127(6) . . .
111(5) . . .
111(5) . . .
125(6) . . .
116(6) . . .
130(6) . . .
119(6) . . .
137(6) . . .
135(6) . . .
133(6) . . .
128(6) . . .
134(6) . . .
117(6) . . .
136(6) . . .
116(6) . . .
130(6) . . .
129(6) . . .
146(6) . . .
117(6) . . .
128(6) . . .
132(6) . . .
149(6) . . .
134(6) . . .
143(6) . . .
120(6) . . .
119(6) . . .
126(6) . . .
119(6) . . .
124(6) . . .
145(7) . . .
122(6) . . .
124(6) . . .
120(6) . . .
134(6) . . .
116(6) . . .
128(6) . . .
135(6) . . .
126(6) . . .
127(6) . . .
124(6) . . .
129(6) . . .
132(6) . . .
129(6) . . .
131(6) . . .
123(6) . . .
113(6) . . .
132(6) . . .
118(6) . . .
138(6) . . .
125(6) . . .
138(7) . . .
139(6) . . .
117(6) . . .
116(6) . . .
125(6) . . .
131(6) . . .
122(6) . . .
122(6) . . .
132(7) . . .
128(6) . . .
115(6) . . .
119(6) . . .
113(6) . . .
133(6) . . .
121(6) . . .
143(6) . . .
122(6) . . .
127(6) . . .
138(7) . . .
129(6) . . .
147(6) . . .
122(6) . . .
133(6) . . .
137(7) . . .
138(6) . . .
138(6) . . .
131(6) . . .
119(6) . . .
125(6) . . .
123(6) . . .
121(6) . . .
131(6) . . .
136(6) . . .
136(7) . . .
119(6) . . .
132(6) . . .
129(6) . . .
126(6) . . .
139(7) . . .
117(6) . . .
116(6) . . .
125(6) . . .
144(7) . . .
127(6) . . .
128(6) . . .
147(6) . . .
118(6) . . .
130(6) . . .
118(6) . . .
122(6) . . .
128(6) . . .
130(6) . . .
123(6) . . .
127(6) . . .
130(6) . . .
116(6) . . .
135(6) . . .
121(6) . . .
134(6) . . .
128(6) . . .
146(6) . . .
124(6) . . .
128(6) . . .
137(6) . . .
134(6) . . .
130(6) . . .
132(6) . . .
113(6) . . .
136(6) . . .
123(6) . . .
121(6) . . .
147(7) . . .
141(7) . . .
126(6) . . .
119(6) . . .
125(6) . . .
136(6) . . .
124(6) . . .
118(6) . . .
132(6) . . .
129(6) . . .
131(6) . . .
129(6) . . .
136(6) . . .
133(6) . . .
148(7) . . .
119(6) . . .
128(6) . . .
122(6) . . .
135(6) . . .
131(6) . . .
125(6) . . .
145(7) . . .
128(6) . . .
148(6) . . .
143(6) . . .
134(6) . . .
118(6) . . .
134(6) . . .
129(6) . . .
117(6) . . .
123(6) . . .
116(6) . . .
128(6) . . .
126(6) . . .
129(6) . . .
126(6) . . .
132(6) . . .
136(6) . . .
152(6) . . .
140(6) . . .
139(6) . . .
123(6) . . .
133(6) . . .
127(6) . . .
134(6) . . .
139(6) . . .
155(7) . . .
127(6) . . .
123(6) . . .
115(6) . . .
127(6) . . .
152(7) . . .
137(6) . . .
131(6) . . .
130(6) . . .
130(6) . . .
119(6) . . .
144(6) . . .
137(6) . . .
123(6) . . .
125(6) . . .
127(6) . . .
118(6) . . .
146(6) . . .
149(7) . . .
137(6) . . .
138(6) . . .
132(6) . . .
122(6) . . .
131(6) . . .
133(6) . . .
135(6) . . .
123(6) . . .
122(6) . . .
110(6) . . .
132(6) . . .
128(6) . . .
124(6) . . .
134(6) . . .
125(6) . . .
130(6) . . .
130(6) . . .
131(6) . . .
135(6) . . .
122(6) . . .
117(6) . . .
135(6) . . .
124(6) . . .
126(6) . . .
124(6) . . .
130(6) . . .
118(6) . . .
137(6) . . .
114(6) . . .
118(6) . . .
122(6) . . .
143(6) . . .
140(6) . . .
113(6) . . .
139(7) . . .
146(7) . . .
119(6) . . .
128(6) . . .
138(6) . . .
125(6) . . .
127(6) . . .
116(6) . . .
122(6) . . .
129(6) . . .
131(6) . . .
127(6) . . .
127(6) . . .
112(6) . . .
126(6) . . .
128(6) . . .
116(6) . . .
127(6) . . .
123(6) . . .
118(6) . . .
120(6) . . .
124(6) . . .
135(6) . . .
116(6) . . .
130(6) . . .
135(6) . . .
145(6) . . .
120(6) . . .
128(6) . . .
136(6) . . .
144(6) . . .
128(6) . . .
138(6) . . .
135(6) . . .
144(7) . . .
124(6) . . .
150(6) . . .
118(6) . . .
137(6) . . .
124(6) . . .
128(6) . . .
126(6) . . .
128(6) . . .
128(6) . . .
140(6) . . .
135(6) . . .
129(6) . . .
127(6) . . .
136(6) . . .
113(6) . . .
128(6) . . .
136(6) . . .
131(6) . . .
118(6) . . .
126(6) . . .
130(6) . . .
128(6) . . .
137(6) . . .
148(6) . . .
131(6) . . .
130(6) . . .
144(6) . . .
150(6) . . .
152(7) . . .
143(6) . . .
130(6) . . .
122(6) . . .
130(6) . . .
134(6) . . .
126(6) . . .
134(6) . . .
141(6) . . .
134(6) . . .
147(7) . . .
128(6) . . .
128(6) . . .
134(6) . . .
122(6) . . .
148(7) . . .
146(7) . . .
124(6) . . .
126(6) . . .
112(6) . . .
126(6) . . .
142(6) . . .
148(6) . . .
121(6) . . .
126(6) . . .
120(6) . . .
131(6) . . .
143(6) . . .
137(6) . . .
137(6) . . .
120(6) . . .
133(6) . . .
117(6) . . .
126(6) . . .
124(6) . . .
124(6) . . .
115(6) . . .
124(6) . . .
131(6) . . .
133(6) . . .
118(6) . . .
119(6) . . .
127(6) . . .
144(6) . . .
151(6) . . .
127(6) . . .
122(6) . . .
121(6) . . .
124(6) . . .
132(6) . . .
133(6) . . .
128(6) . . .
117(6) . . .
131(6) . . .
126(6) . . .
121(6) . . .
135(6) . . .
122(6) . . .
141(6) . . .
150(7) . . .
113(6) . . .
135(6) . . .
130(6) . . .
129(6) . . .
128(6) . . .
120(6) . . .
125(6) . . .
126(6) . . .
135(6) . . .
123(6) . . .
140(6) . . .
140(6) . . .
125(6) . . .
130(6) . . .
133(6) . . .
132(6) . . .
125(6) . . .
115(6) . . .
130(6) . . .
130(6) . . .
120(6) . . .
132(6) . . .
135(6) . . .
128(6) . . .
139(6) . . .
137(6) . . .
114(6) . . .
131(6) . . .
124(6) . . .
125(6) . . .
129(6) . . .
130(6) . . .
118(6) . . .
134(6) . . .
140(7) . . .
124(6) . . .
130(6) . . .
118(6) . . .
130(6) . . .
128(6) . . .
131(6) . . .
132(6) . . .
144(6) . . .
132(6) . . .
134(6) . . .
118(6) . . .
123(6) . . .
132(6) . . .
116(6) . . .
132(6) . . .
141(6) . . .
138(6) . . .
136(6) . . .
129(6) . . .
126(6) . . .
128(6) . . .
136(6) . . .
105(5) . . .
117(6) . . .
116(6) . . .
114(6) . . .
126(6) . . .
120(6) . . .
139(6) . . .
148(6) . . .
132(6) . . .
118(6) . . .
126(6) . . .
128(6) . . .
126(6) . . .
130(6) . . .
131(6) . . .
126(6) . . .
119(6) . . .
121(6) . . .
118(6) . . .
125(6) . . .
124(6) . . .
129(6) . . .
139(6) . . .
123(6) . . .
137(6) . . .
140(7) . . .
135(7) . . .
116(6) . . .
140(6) . . .
133(6) . . .
136(6) . . .
128(6) . . .
123(6) . . .
120(6) . . .
129(6) . . .
120(6) . . .
130(6) . . .
138(7) . . .
131(6) . . .
113(6) . . .
122(6) . . .
141(6) . . .
113(6) . . .
122(6) . . .
133(6) . . .
124(6) . . .
120(6) . . .
118(6) . . .
121(6) . . .
128(6) . . .
121(6) . . .
132(6) . . .
129(6) . . .
115(6) . . .
131(6) . . .
140(7) . . .
131(6) . . .
114(6) . . .
115(6) . . .
127(6) . . .
124(6) . . .
120(6) . . .
118(6) . . .
121(6) . . .
126(6) . . .
126(6) . . .
127(6) . . .
129(6) . . .
135(6) . . .
136(6) . . .
124(6) . . .
129(6) . . .
121(6) . . .
120(6) . . .
129(6) . . .
118(6) . . .
94(5) . . .
122(6) . . .
117(6) . . .
113(6) . . .
133(6) . . .
125(6) . . .
126(6) . . .
122(6) . . .
131(6) . . .
120(6) . . .
128(6) . . .
135(6) . . .
124(6) . . .
126(6) . . .
120(6) . . .
126(6) . . .
123(6) . . .
122(6) . . .
120(6) . . .
127(6) . . .
110(6) . . .
127(6) . . .
136(6) . . .
118(6) . . .
129(6) . . .
126(6) . . .
112(6) . . .
114(6) . . .
114(6) . . .
115(6) . . .
137(6) . . .
134(6) . . .
135(6) . . .
123(6) . . .
133(6) . . .
121(6) . . .
134(6) . . .
129(6) . . .
131(6) . . .
136(6) . . .
114(6) . . .
136(6) . . .
128(6) . . .
116(6) . . .
132(6) . . .
140(6) . . .
135(6) . . .
111(6) . . .
128(6) . . .
125(6) . . .
116(6) . . .
138(6) . . .
131(6) . . .
126(6) . . .
129(6) . . .
140(6) . . .
133(6) . . .
121(6) . . .
120(6) . . .
116(6) . . .
131(6) . . .
116(6) . . .
123(6) . . .
126(6) . . .
126(6) . . .
124(6) . . .
137(6) . . .
110(6) . . .
120(6) . . .
124(6) . . .
140(6) . . .
125(6) . . .
122(6) . . .
126(6) . . .
118(6) . . .
121(6) . . .
114(6) . . .
109(6) . . .
134(6) . . .
140(6) . . .
141(6) . . .
120(6) . . .
130(6) . . .
130(6) . . .
128(6) . . .
149(6) . . .
120(6) . . .
129(6) . . .
131(6) . . .
113(6) . . .
128(6) . . .
119(6) . . .
134(7) . . .
124(6) . . .
131(6) . . .
118(6) . . .
115(6) . . .
122(6) . . .
116(6) . . .
103(5) . . .
115(6) . . .
127(6) . . .
134(6) . . .
131(6) . . .
130(6) . . .
133(6) . . .
133(6) . . .
127(6) . . .
136(6) . . .
116(6) . . .
138(6) . . .
112(6) . . .
126(6) . . .
117(6) . . .
131(6) . . .
120(6) . . .
128(6) . . .
118(6) . . .
131(7) . . .
136(6) . . .
129(6) . . .
123(6) . . .
136(7) . . .
120(6) . . .
131(6) . . .
133(6) . . .
114(6) . . .
119(6) . . .
127(6) . . .
119(6) . . .
119(6) . . .
133(6) . . .
142(7) . . .
143(6) . . .
123(6) . . .
133(6) . . .
131(6) . . .
115(6) . . .
125(6) . . .
125(6) . . .
130(6) . . .
128(6) . . .
138(6) . . .
121(6) . . .
130(6) . . .
123(6) . . .
115(6) . . .
127(6) . . .
129(6) . . .
140(6) . . .
130(6) . . .
137(6) . . .
135(6) . . .
135(6) . . .
135(6) . . .
118(6) . . .
138(7) . . .
125(6) . . .
121(6) . . .
105(5) . . .
135(6) . . .
133(6) . . .
133(6) . . .
129(6) . . .
132(6) . . .
116(6) . . .
133(6) . . .
124(6) . . .
140(6) . . .
124(6) . . .
114(6) . . .
139(7) . . .
138(6) . . .
124(6) . . .
134(6) . . .
125(6) . . .
125(6) . . .
138(6) . . .
145(6) . . .
139(6) . . .
127(6) . . .
126(6) . . .
133(6) . . .
134(6) . . .
132(6) . . .
134(6) . . .
134(6) . . .
132(6) . . .
140(6) . . .
130(6) . . .
136(7) . . .
128(6) . . .
119(6) . . .
131(6) . . .
122(6) . . .
117(6) . . .
128(6) . . .
130(6) . . .
117(6) . . .
124(6) . . .
126(6) . . .
100(5) . . .
120(6) . . .
121(6) . . .
118(6) . . .
123(6) . . .
134(6) . . .
117(6) . . .
115(6) . . .
114(6) . . .
110(5) . . .
135(6) . . .
118(6) . . .
125(6) . . .
116(6) . . .
116(6) . . .
117(6) . . .
113(6) . . .
105(5) . . .
116(6) . . .
113(6) . . .
115(6) . . .
111(6) . . .
121(6) . . .
113(5) . . .
111(6) . . .
115(6) . . .
117(6) . . .
121(6) . . .
106(5) . . .
111(6) . . .
124(6) . . .
116(6) . . .
118(6) . . .
122(6) . . .
114(6) . . .
131(6) . . .
119(6) . . .
117(6) . . .
113(6) . . .
127(6) . . .
112(6) . . .
122(6) . . .
118(6) . . .
116(6) . . .
138(6) . . .
120(6) . . .
112(6) . . .
141(6) . . .
129(6) . . .
121(6) . . .
131(7) . . .
117(6) . . .
110(5) . . .
128(6) . . .
112(6) . . .
106(6) . . .
114(6) . . .
125(6) . . .
118(6) . . .
119(6) . . .
112(6) . . .
130(6) . . .
113(6) . . .
114(6) . . .
121(6) . . .
112(6) . . .
140(6) . . .
131(6) . . .
122(6) . . .
116(6) . . .
126(6) . . .
122(6) . . .
128(6) . . .
124(6) . . .
124(6) . . .
118(6) . . .
123(6) . . .
115(6) . . .
114(6) . . .
134(6) . . .
117(6) . . .
138(6) . . .
122(6) . . .
114(6) . . .
119(6) . . .
113(6) . . .
114(6) . . .
108(5) . . .
127(6) . . .
123(6) . . .
120(6) . . .
95(5) . . .
109(5) . . .
129(6) . . .
111(6) . . .
126(6) . . .
119(6) . . .
125(6) . . .
122(6) . . .
115(6) . . .
121(6) . . .
112(5) . . .
103(5) . . .
113(6) . . .
103(5) . . .
117(6) . . .
113(6) . . .
108(5) . . .
128(6) . . .
133(6) . . .
107(5) . . .
120(6) . . .
135(6) . . .
121(6) . . .
126(6) . . .
128(6) . . .
117(6) . . .
123(6) . . .
124(6) . . .
117(6) . . .
110(6) . . .
118(6) . . .
125(6) . . .
118(6) . . .
115(6) . . .
135(6) . . .
114(6) . . .
119(6) . . .
125(6) . . .
111(6) . . .
111(6) . . .
118(6) . . .
124(6) . . .
129(6) . . .
124(6) . . .
121(6) . . .
109(5) . . .
128(6) . . .
123(6) . . .
110(6) . . .
119(6) . . .
124(6) . . .
110(5) . . .
127(6) . . .
119(6) . . .
122(6) . . .
114(6) . . .
117(6) . . .
114(6) . . .
125(6) . . .
115(6) . . .
126(6) . . .
112(6) . . .
134(7) . . .
119(6) . . .
128(6) . . .
112(6) . . .
117(6) . . .
122(6) . . .
114(6) . . .
107(5) . . .
132(6) . . .
113(6) . . .
117(6) . . .
123(6) . . .
120(6) . . .
130(6) . . .
127(6) . . .
133(6) . . .
120(6) . . .
129(6) . . .
125(6) . . .
123(6) . . .
119(6) . . .
116(6) . . .
118(6) . . .
120(6) . . .
133(6) . . .
121(6) . . .
121(6) . . .
121(6) . . .
117(6) . . .
126(6) . . .
114(6) . . .
118(6) . . .
126(6) . . .
137(6) . . .
129(6) . . .
127(6) . . .
126(6) . . .
129(6) . . .
107(5) . . .
112(6) . . .
131(6) . . .
111(5) . . .
121(6) . . .
123(6) . . .
129(6) . . .
129(6) . . .
115(6) . . .
121(6) . . .
120(6) . . .
106(6) . . .
114(6) . . .
119(6) . . .
131(6) . . .
127(6) . . .
132(7) . . .
137(7) . . .
123(6) . . .
128(6) . . .
146(7) . . .
121(6) . . .
104(6) . . .
97(5) . . .
113(6) . . .
113(6) . . .
118(6) . . .
128(6) . . .
129(6) . . .
142(6) . . .
113(6) . . .
122(6) . . .
137(6) . . .
129(6) . . .
114(6) . . .
119(6) . . .
135(6) . . .
125(6) . . .
121(6) . . .
120(6) . . .
129(6) . . .
133(6) . . .
118(6) . . .
113(5) . . .
131(6) . . .
130(6) . . .
116(6) . . .
132(6) . . .
111(5) . . .
115(6) . . .
120(6) . . .
100(5) . . .
132(6) . . .
119(6) . . .
114(6) . . .
120(6) . . .
135(6) . . .
129(6) . . .
132(6) . . .
125(6) . . .
111(6) . . .
120(6) . . .
110(5) . . .
119(6) . . .
114(6) . . .
126(6) . . .
112(6) . . .
126(6) . . .
112(5) . . .
114(6) . . .
133(7) . . .
128(6) . . .
132(6) . . .
127(6) . . .
129(6) . . .
138(6) . . .
112(6) . . .
125(6) . . .
113(6) . . .
117(6) . . .
123(6) . . .
114(6) . . .
118(6) . . .
121(6) . . .
130(6) . . .
130(6) . . .
105(5) . . .
118(6) . . .
123(6) . . .
118(6) . . .
126(6) . . .
127(6) . . .
116(6) . . .
118(6) . . .
122(6) . . .
127(6) . . .
135(6) . . .
110(6) . . .
118(6) . . .
123(6) . . .
131(6) . . .
123(6) . . .
117(6) . . .
134(6) . . .
116(6) . . .
119(6) . . .
134(6) . . .
128(6) . . .
128(6) . . .
118(6) . . .
115(6) . . .
120(6) . . .
111(5) . . .
116(6) . . .
126(6) . . .
110(6) . . .
114(6) . . .
108(6) . . .
113(6) . . .
124(6) . . .
122(6) . . .
122(6) . . .
113(6) . . .
114(6) . . .
128(6) . . .
129(6) . . .
109(5) . . .
127(6) . . .
119(6) . . .
124(6) . . .
112(6) . . .
107(5) . . .
119(6) . . .
104(5) . . .
112(6) . . .
127(6) . . .
113(6) . . .
112(6) . . .
111(6) . . .
119(6) . . .
112(6) . . .
99(5) . . .
102(5) . . .
135(7) . . .
120(6) . . .
124(6) . . .
136(6) . . .
128(6) . . .
121(6) . . .
126(6) . . .
127(6) . . .
102(5) . . .
111(6) . . .
112(6) . . .
119(6) . . .
126(6) . . .
147(6) . . .
117(6) . . .
124(6) . . .
133(6) . . .
136(6) . . .
112(5) . . .
130(6) . . .
107(5) . . .
117(6) . . .
121(6) . . .
120(6) . . .
116(6) . . .
114(6) . . .
122(6) . . .
117(6) . . .
112(6) . . .
123(6) . . .
121(6) . . .
112(6) . . .
119(6) . . .
114(6) . . .
117(6) . . .
115(6) . . .
131(6) . . .
125(6) . . .
127(6) . . .
120(6) . . .
117(6) . . .
119(6) . . .
113(6) . . .
123(6) . . .
115(6) . . .
113(6) . . .
124(6) . . .
123(6) . . .
113(6) . . .
120(6) . . .
120(6) . . .
121(6) . . .
120(6) . . .
117(6) . . .
125(6) . . .
126(6) . . .
121(6) . . .
118(6) . . .
121(6) . . .
125(6) . . .
105(5) . . .
118(6) . . .
101(5) . . .
119(6) . . .
119(6) . . .
114(6) . . .
125(6) . . .
134(6) . . .
132(6) . . .
123(6) . . .
115(6) . . .
117(6) . . .
138(6) . . .
106(5) . . .
131(7) . . .
123(6) . . .
124(6) . . .
126(6) . . .
133(6) . . .
122(6) . . .
120(6) . . .
124(6) . . .
129(6) . . .
137(6) . . .
124(6) . . .
109(5) . . .
122(6) . . .
137(6) . . .
125(6) . . .
111(6) . . .
133(6) . . .
115(6) . . .
106(5) . . .
113(6) . . .
119(6) . . .
114(6) . . .
133(6) . . .
120(6) . . .
135(6) . . .
122(6) . . .
121(6) . . .
119(6) . . .
116(6) . . .
132(6) . . .
109(5) . . .
121(6) . . .
114(6) . . .
115(6) . . .
112(6) . . .
115(6) . . .
113(6) . . .
114(6) . . .
112(6) . . .
123(6) . . .
110(6) . . .
114(6) . . .
108(5) . . .
130(6) . . .
128(6) . . .
125(6) . . .
118(6) . . .
117(6) . . .
123(6) . . .
129(6) . . .
129(6) . . .
122(6) . . .
118(6) . . .
113(6) . . .
113(6) . . .
105(6) . . .
120(6) . . .
119(6) . . .
122(6) . . .
129(6) . . .
130(6) . . .
135(6) . . .
124(6) . . .
138(6) . . .
124(6) . . .
107(6) . . .
113(5) . . .
116(6) . . .
105(5) . . .
130(6) . . .
122(6) . . .
133(6) . . .
128(6) . . .
124(6) . . .
125(6) . . .
120(6) . . .
132(6) . . .
121(6) . . .
118(6) . . .
113(6) . . .
115(6) . . .
122(6) . . .
121(6) . . .
122(6) . . .
116(6) . . .
131(6) . . .
128(6) . . .
110(5) . . .
107(6) . . .
129(6) . . .
121(6) . . .
116(6) . . .
129(6) . . .
117(6) . . .
123(6) . . .
126(6) . . .
120(6) . . .
127(6) . . .
119(6) . . .
117(6) . . .
108(5) . . .
120(6) . . .
150(7) . . .
124(6) . . .
136(6) . . .
112(6) . . .
128(6) . . .
126(6) . . .
123(6) . . .
123(6) . . .
126(6) . . .
124(6) . . .
104(5) . . .
121(6) . . .
115(6) . . .
121(6) . . .
117(6) . . .
110(6) . . .
118(6) . . .
118(6) . . .
115(6) . . .
115(6) . . .
113(6) . . .
109(6) . . .
131(6) . . .
110(5) . . .
128(6) . . .
120(6) . . .
119(6) . . .
123(6) . . .
116(6) . . .
124(6) . . .
115(6) . . .
122(6) . . .
126(6) . . .
116(6) . . .
121(6) . . .
133(7) . . .
122(6) . . .
110(6) . . .
114(6) . . .
126(6) . . .
133(6) . . .
111(6) . . .
107(5) . . .
118(6) . . .
116(6) . . .
128(6) . . .
123(6) . . .
132(6) . . .
131(6) . . .
121(6) . . .
129(6) . . .
117(6) . . .
102(5) . . .
111(5) . . .
127(6) . . .
124(6) . . .
114(6) . . .
126(6) . . .
119(6) . . .
105(5) . . .
113(6) . . .
116(6) . . .
113(6) . . .
112(6) . . .
117(6) . . .
115(6) . . .
132(6) . . .
124(6) . . .
135(6) . . .
121(6) . . .
125(6) . . .
126(6) . . .
126(6) . . .
132(6) . . .
124(6) . . .
128(6) . . .
117(6) . . .
111(5) . . .
113(6) . . .
126(6) . . .
119(6) . . .
122(6) . . .
128(6) . . .
125(6) . . .
114(6) . . .
117(6) . . .
118(6) . . .
101(5) . . .
114(6) . . .
110(6) . . .
121(6) . . .
135(6) . . .
117(6) . . .
120(6) . . .
131(6) . . .
126(6) . . .
120(6) . . .
113(6) . . .
120(6) . . .
117(6) . . .
112(6) . . .
116(6) . . .
117(6) . . .
122(6) . . .
124(6) . . .
133(6) . . .
136(6) . . .
132(6) . . .
135(6) . . .
128(6) . . .
118(6) . . .
119(6) . . .
133(6) . . .
136(6) . . .
121(6) . . .
122(6) . . .
109(5) . . .
109(6) . . .
117(6) . . .
117(6) . . .
103(5) . . .
125(6) . . .
138(7) . . .
114(6) . . .
121(6) . . .
128(6) . . .
114(6) . . .
117(6) . . .
120(6) . . .
131(6) . . .
125(6) . . .
102(5) . . .
129(6) . . .
121(6) . . .
122(6) . . .
122(6) . . .
126(6) . . .
115(6) . . .
129(6) . . .
131(6) . . .
111(6) . . .
119(6) . . .
125(6) . . .
121(6) . . .
112(6) . . .
113(5) . . .
116(6) . . .
127(6) . . .
120(6) . . .
138(6) . . .
134(6) . . .
108(5) . . .
119(6) . . .
124(6) . . .
113(6) . . .
119(6) . . .
104(5) . . .
118(6) . . .
119(6) . . .
117(6) . . .
122(6) . . .
119(6) . . .
114(6) . . .
113(6) . . .
114(6) . . .
120(6) . . .
112(6) . . .
122(6) . . .
118(6) . . .
126(6) . . .
128(6) . . .
118(6) . . .
129(6) . . .
124(6) . . .
129(6) . . .
118(6) . . .
130(6) . . .
125(6) . . .
127(6) . . .
124(6) . . .
107(5) . . .
128(6) . . .
118(6) . . .
113(6) . . .
116(6) . . .
125(6) . . .
115(6) . . .
134(6) . . .
122(6) . . .
135(6) . . .
122(6) . . .
127(6) . . .
121(6) . . .
117(6) . . .
134(6) . . .
134(6) . . .
120(6) . . .
123(6) . . .
133(6) . . .
134(6) . . .
125(6) . . .
135(6) . . .
126(6) . . .
122(6) . . .
128(6) . . .
131(6) . . .
122(6) . . .
120(6) . . .
125(6) . . .
110(5) . . .
123(6) . . .
126(6) . . .
119(6) . . .
126(6) . . .
130(6) . . .
115(6) . . .
123(6) . . .
127(6) . . .
123(6) . . .
137(6) . . .
116(6) . . .
121(6) . . .
130(6) . . .
126(6) . . .
115(6) . . .
121(6) . . .
132(6) . . .
121(6) . . .
127(6) . . .
115(6) . . .
125(6) . . .
135(6) . . .
137(6) . . .
131(6) . . .
126(6) . . .
128(6) . . .
124(6) . . .
126(6) . . .
151(6) . . .
151(6) . . .
135(6) . . .
118(6) . . .
101(5) . . .
123(6) . . .
130(6) . . .
137(6) . . .
133(7) . . .
117(6) . . .
128(6) . . .
136(6) . . .
111(6) . . .
112(6) . . .
116(6) . . .
122(6) . . .
123(6) . . .
127(6) . . .
139(6) . . .
120(6) . . .
132(6) . . .
124(6) . . .
130(6) . . .
119(6) . . .
124(6) . . .
125(6) . . .
114(6) . . .
103(5) . . .
125(6) . . .
130(6) . . .
116(6) . . .
114(6) . . .
112(6) . . .
121(6) . . .
111(5) . . .
126(6) . . .
131(6) . . .
128(6) . . .
128(6) . . .
127(6) . . .
118(6) . . .
127(6) . . .
144(7) . . .
114(6) . . .
111(5) . . .
127(6) . . .
125(6) . . .
122(6) . . .
133(6) . . .
127(6) . . .
126(6) . . .
118(6) . . .
127(6) . . .
113(6) . . .
120(6) . . .
122(6) . . .
134(6) . . .
126(6) . . .
125(6) . . .
129(6) . . .
116(6) . . .
133(6) . . .
123(6) . . .
127(6) . . .
134(6) . . .
129(6) . . .
128(6) . . .
109(6) . . .
121(6) . . .
116(6) . . .
126(6) . . .
133(6) . . .
121(6) . . .
134(6) . . .
135(6) . . .
121(6) . . .
124(6) . . .
118(6) . . .
129(6) . . .
118(6) . . .
116(6) . . .
116(6) . . .
129(6) . . .
112(6) . . .
123(6) . . .
123(6) . . .
115(6) . . .
124(6) . . .
127(6) . . .
119(6) . . .
137(6) . . .
127(6) . . .
112(6) . . .
120(6) . . .
139(6) . . .
125(6) . . .
116(6) . . .
125(6) . . .
125(6) . . .
126(6) . . .
130(6) . . .
121(6) . . .
112(6) . . .
123(6) . . .
115(6) . . .
138(6) . . .
130(6) . . .
125(6) . . .
130(6) . . .
130(6) . . .
120(6) . . .
136(7) . . .
122(6) . . .
117(6) . . .
131(6) . . .
129(6) . . .
122(6) . . .
119(6) . . .
129(6) . . .
126(6) . . .
123(6) . . .
134(6) . . .
112(6) . . .
135(6) . . .
116(6) . . .
125(6) . . .
129(6) . . .
139(6) . . .
130(6) . . .
116(6) . . .
118(6) . . .
129(6) . . .
129(6) . . .
141(6) . . .
128(6) . . .
118(6) . . .
125(6) . . .
124(6) . . .
124(6) . . .
135(6) . . .
120(6) . . .
122(6) . . .
122(6) . . .
126(6) . . .
125(6) . . .
107(5) . . .
134(6) . . .
117(6) . . .
124(6) . . .
133(6) . . .
130(6) . . .
123(6) . . .
109(5) . . .
111(6) . . .
113(6) . . .
136(7) . . .
123(6) . . .
114(6) . . .
119(6) . . .
123(6) . . .
118(6) . . .
141(7) . . .
114(6) . . .
135(6) . . .
125(6) . . .
116(6) . . .
132(6) . . .
114(6) . . .
118(6) . . .
122(6) . . .
120(6) . . .
138(6) . . .
122(6) . . .
108(6) . . .
120(6) . . .
120(6) . . .
140(6) . . .
115(6) . . .
112(5) . . .
119(6) . . .
120(6) . . .
105(6) . . .
117(6) . . .
124(6) . . .
121(6) . . .
128(6) . . .
114(6) . . .
106(5) . . .
115(6) . . .
121(6) . . .
123(6) . . .
123(6) . . .
131(6) . . .
125(6) . . .
139(6) . . .
128(6) . . .
127(6) . . .
128(6) . . .
119(6) . . .
121(6) . . .
119(6) . . .
124(6) . . .
118(6) . . .
124(6) . . .
119(6) . . .
128(6) . . .
120(6) . . .
128(6) . . .
135(6) . . .
120(6) . . .
118(6) . . .
116(6) . . .
132(6) . . .
127(6) . . .
116(6) . . .
128(6) . . .
129(6) . . .
127(6) . . .
110(6) . . .
132(7) . . .
126(6) . . .
124(6) . . .
121(6) . . .
102(5) . . .
122(6) . . .
136(6) . . .
133(6) . . .
141(6) . . .
118(6) . . .
122(6) . . .
127(6) . . .
129(6) . . .
127(6) . . .
126(6) . . .
124(6) . . .
119(6) . . .
110(5) . . .
111(6) . . .
118(6) . . .
119(6) . . .
134(6) . . .
128(6) . . .
122(6) . . .
131(6) . . .
110(5) . . .
130(6) . . .
116(6) . . .
131(6) . . .
126(6) . . .
118(6) . . .
120(6) . . .
120(6) . . .
133(6) . . .
123(6) . . .
126(6) . . .
114(6) . . .
115(6) . . .
122(6) . . .
113(6) . . .
127(6) . . .
123(6) . . .
123(6) . . .
117(6) . . .
134(6) . . .
117(6) . . .
127(6) . . .
123(6) . . .
139(6) . . .
143(6) . . .
118(6) . . .
119(6) . . .
113(6) . . .
123(6) . . .
123(6) . . .
121(6) . . .
115(6) . . .
122(6) . . .
141(7) . . .
119(6) . . .
120(6) . . .
122(6) . . .
129(6) . . .
118(6) . . .
116(6) . . .
113(6) . . .
119(6) . . .
128(6) . . .
135(6) . . .
119(6) . . .
129(6) . . .
120(6) . . .
115(6) . . .
118(6) . . .
128(6) . . .
135(6) . . .
130(6) . . .
125(6) . . .
124(6) . . .
133(6) . . .
128(6) . . .
133(6) . . .
124(6) . . .
120(6) . . .
122(6) . . .
120(6) . . .
129(6) . . .
122(6) . . .
123(6) . . .
117(6) . . .
127(6) . . .
131(6) . . .
121(6) . . .
129(6) . . .
117(6) . . .
121(6) . . .
143(6) . . .
134(6) . . .
124(6) . . .
122(6) . . .
124(6) . . .
125(6) . . .
118(6) . . .
136(6) . . .
124(6) . . .
121(6) . . .
131(6) . . .
137(6) . . .
125(6) . . .
112(6) . . .
130(6) . . .
116(6) . . .
118(6) . . .
122(6) . . .
119(6) . . .
137(6) . . .
127(6) . . .
117(6) . . .
132(6) . . .
112(6) . . .
121(6) . . .
129(6) . . .
110(6) . . .
114(6) . . .
120(6) . . .
114(6) . . .
117(6) . . .
120(6) . . .
124(6) . . .
122(6) . . .
120(6) . . .
131(6) . . .
122(6) . . .
117(6) . . .
122(6) . . .
125(6) . . .
126(6) . . .
113(6) . . .
120(6) . . .
122(6) . . .
128(6) . . .
128(6) . . .
120(6) . . .
119(6) . . .
119(6) . . .
133(6) . . .
115(6) . . .
134(6) . . .
151(7) . . .
122(6) . . .
116(6) . . .
106(5) . . .
120(6) . . .
140(6) . . .
119(6) . . .
122(6) . . .
113(6) . . .
128(6) . . .
127(6) . . .
117(6) . . .
119(6) . . .
125(6) . . .
121(6) . . .
132(6) . . .
120(6) . . .
133(6) . . .
120(6) . . .
130(6) . . .
118(6) . . .
112(6) . . .
109(6) . . .
120(6) . . .
116(6) . . .
118(6) . . .
129(6) . . .
132(6) . . .
120(6) . . .
136(6) . . .
119(6) . . .
117(6) . . .
124(6) . . .
126(7) . . .
112(6) . . .
140(6) . . .
106(5) . . .
118(6) . . .
120(6) . . .
115(6) . . .
124(6) . . .
108(5) . . .
125(6) . . .
114(6) . . .
132(6) . . .
113(5) . . .
119(6) . . .
113(6) . . .
114(6) . . .
133(6) . . .
129(6) . . .
113(5) . . .
118(6) . . .
117(6) . . .
121(6) . . .
143(6) . . .
119(6) . . .
120(6) . . .
124(6) . . .
120(6) . . .
118(6) . . .
134(6) . . .
136(6) . . .
113(6) . . .
117(6) . . .
110(5) . . .
132(6) . . .
120(6) . . .
158(7) . . .
116(6) . . .
121(6) . . .
115(6) . . .
113(6) . . .
120(6) . . .
122(6) . . .
122(6) . . .
126(6) . . .
130(6) . . .
123(6) . . .
126(6) . . .
130(6) . . .
123(6) . . .
114(6) . . .
119(6) . . .
122(6) . . .
117(6) . . .
118(6) . . .
127(6) . . .
120(6) . . .
132(6) . . .
140(6) . . .
129(6) . . .
139(7) . . .
127(6) . . .
138(6) . . .
135(6) . . .
110(6) . . .
119(6) . . .
126(6) . . .
118(6) . . .
128(6) . . .
117(6) . . .
133(6) . . .
124(6) . . .
140(6) . . .
129(6) . . .
116(6) . . .
131(6) . . .
123(6) . . .
122(6) . . .
120(6) . . .
122(6) . . .
130(6) . . .
129(6) . . .
129(6) . . .
129(6) . . .
130(6) . . .
131(6) . . .
140(6) . . .
112(6) . . .
112(6) . . .
105(5) . . .
126(6) . . .
117(6) . . .
109(5) . . .
126(6) . . .
137(6) . . .
117(6) . . .
122(6) . . .
125(6) . . .
130(6) . . .
119(6) . . .
129(6) . . .
122(6) . . .
119(6) . . .
118(6) . . .
114(6) . . .
118(6) . . .
116(6) . . .
116(6) . . .
123(6) . . .
133(6) . . .
106(6) . . .
128(6) . . .
128(6) . . .
124(6) . . .
112(6) . . .
107(6) . . .
120(6) . . .
114(6) . . .
110(6) . . .
130(6) . . .
131(6) . . .
130(6) . . .
114(6) . . .
106(5) . . .
117(6) . . .
135(6) . . .
129(6) . . .
115(6) . . .
120(6) . . .
133(7) . . .
125(6) . . .
114(6) . . .
124(6) . . .
123(6) . . .
136(6) . . .
136(6) . . .
108(5) . . .
116(6) . . .
126(6) . . .
126(6) . . .
120(6) . . .
121(6) . . .
120(6) . . .
108(6) . . .
122(6) . . .
130(6) . . .
134(6) . . .
115(6) . . .
122(6) . . .
134(6) . . .
145(6) . . .
110(5) . . .
117(6) . . .
116(6) . . .
129(6) . . .
126(6) . . .
121(6) . . .
117(6) . . .
128(6) . . .
112(6) . . .
127(6) . . .
120(6) . . .
116(6) . . .
133(7) . . .
112(6) . . .
121(6) . . .
118(6) . . .
128(6) . . .
123(6) . . .
118(6) . . .
112(6) . . .
112(6) . . .
117(6) . . .
124(6) . . .
103(5) . . .
113(5) . . .
120(6) . . .
110(6) . . .
123(6) . . .
115(6) . . .
110(5) . . .
114(6) . . .
115(6) . . .
124(6) . . .
117(6) . . .
126(6) . . .
114(6) . . .
106(6) . . .
119(6) . . .
124(6) . . .
123(6) . . .
124(6) . . .
119(6) . . .
134(6) . . .
132(6) . . .
119(6) . . .
133(6) . . .
129(6) . . .
127(6) . . .
105(5) . . .
119(6) . . .
111(6) . . .
119(6) . . .
117(6) . . .
128(6) . . .
129(6) . . .
112(6) . . .
127(6) . . .
120(6) . . .
130(6) . . .
120(6) . . .
122(6) . . .
123(6) . . .
102(5) . . .
116(6) . . .
105(5) . . .
108(6) . . .
114(6) . . .
127(6) . . .
110(5) . . .
128(6) . . .
119(6) . . .
117(6) . . .
121(6) . . .
128(6) . . .
138(6) . . .
130(6) . . .
121(6) . . .
124(6) . . .
116(6) . . .
134(6) . . .
120(6) . . .
122(6) . . .
122(6) . . .
120(6) . . .
113(6) . . .
111(6) . . .
121(6) . . .
114(6) . . .
112(6) . . .
118(6) . . .
126(6) . . .
111(5) . . .
117(6) . . .
114(6) . . .
129(6) . . .
127(6) . . .
118(6) . . .
125(6) . . .
116(6) . . .
116(6) . . .
116(6) . . .
125(6) . . .
126(6) . . .
114(6) . . .
130(6) . . .
126(6) . . .
109(6) . . .
108(5) . . .
115(6) . . .
116(6) . . .
118(6) . . .
118(6) . . .
109(5) . . .
136(6) . . .
130(6) . . .
134(7) . . .
107(6) . . .
135(6) . . .
118(6) . . .
120(6) . . .
109(5) . . .
135(6) . . .
130(6) . . .
120(6) . . .
112(6) . . .
114(6) . . .
111(6) . . .
112(6) . . .
126(6) . . .
120(6) . . .
121(6) . . .
119(6) . . .
132(6) . . .
129(6) . . .
132(6) . . .
119(6) . . .
133(6) . . .
111(5) . . .
133(6) . . .
124(6) . . .
106(5) . . .
106(5) . . .
129(6) . . .
112(6) . . .
130(6) . . .
119(6) . . .
126(6) . . .
118(6) . . .
122(6) . . .
125(6) . . .
121(6) . . .
121(6) . . .
110(5) . . .
110(6) . . .
136(6) . . .
115(6) . . .
115(6) . . .
126(6) . . .
136(6) . . .
106(6) . . .
116(6) . . .
113(6) . . .
121(6) . . .
125(6) . . .
136(7) . . .
117(6) . . .
123(6) . . .
119(6) . . .
131(6) . . .
123(6) . . .
135(6) . . .
112(6) . . .
112(6) . . .
121(6) . . .
121(6) . . .
120(6) . . .
118(6) . . .
123(6) . . .
121(6) . . .
123(6) . . .
126(6) . . .
127(6) . . .
124(6) . . .
114(6) . . .
130(6) . . .
131(6) . . .
122(6) . . .
124(6) . . .
121(6) . . .
125(6) . . .
122(6) . . .
122(6) . . .
113(6) . . .
120(6) . . .
123(6) . . .
125(6) . . .
113(6) . . .
121(6) . . .
128(6) . . .
110(6) . . .
121(6) . . .
129(6) . . .
127(6) . . .
135(6) . . .
128(6) . . .
124(6) . . .
123(6) . . .
122(6) . . .
135(6) . . .
124(6) . . .
121(6) . . .
123(6) . . .
132(6) . . .
121(6) . . .
111(6) . . .
134(6) . . .
118(6) . . .
145(6) . . .
132(6) . . .
127(6) . . .
132(6) . . .
123(6) . . .
116(6) . . .
128(6) . . .
121(6) . . .
119(6) . . .
134(6) . . .
115(6) . . .
115(6) . . .
116(6) . . .
132(6) . . .
133(6) . . .
136(7) . . .
116(6) . . .
123(6) . . .
125(6) . . .
122(6) . . .
118(6) . . .
124(6) . . .
123(6) . . .
113(6) . . .
128(6) . . .
127(6) . . .
126(6) . . .
136(6) . . .
135(6) . . .
120(6) . . .
108(6) . . .
129(6) . . .
112(5) . . .
113(6) . . .
109(6) . . .
135(6) . . .
118(6) . . .
119(6) . . .
114(6) . . .
98(5) . . .
118(6) . . .
119(6) . . .
128(6) . . .
138(6) . . .
132(6) . . .
134(7) . . .
124(6) . . .
128(6) . . .
134(6) . . .
133(6) . . .
124(6) . . .
121(6) . . .
116(6) . . .
122(6) . . .
105(5) . . .
115(6) . . .
116(6) . . .
128(6) . . .
121(6) . . .
124(6) . . .
126(6) . . .
116(6) . . .
126(6) . . .
124(6) . . .
116(6) . . .
120(6) . . .
124(6) . . .
118(6) . . .
118(6) . . .
115(6) . . .
122(6) . . .
126(6) . . .
118(6) . . .
130(6) . . .
121(6) . . .
122(6) . . .
121(6) . . .
115(6) . . .
120(6) . . .
126(6) . . .
119(6) . . .
122(6) . . .
112(5) . . .
127(6) . . .
119(6) . . .
123(6) . . .
116(6) . . .
119(6) . . .
133(6) . . .
135(7) . . .
98(5) . . .
115(6) . . .
119(6) . . .
131(6) . . .
124(6) . . .
108(6) . . .
118(6) . . .
118(6) . . .
107(6) . . .
132(7) . . .
118(6) . . .
114(6) . . .
128(6) . . .
136(6) . . .
117(6) . . .
110(6) . . .
132(6) . . .
130(6) . . .
125(6) . . .
111(6) . . .
126(6) . . .
114(6) . . .
107(5) . . .
106(5) . . .
108(6) . . .
110(6) . . .
123(6) . . .
106(5) . . .
100(5) . . .
115(6) . . .
128(6) . . .
124(6) . . .
126(6) . . .
104(6) . . .
119(6) . . .
133(6) . . .
118(6) . . .
116(6) . . .
124(6) . . .
123(6) . . .
118(6) . . .
121(6) . . .
132(6) . . .
127(6) . . .
111(6) . . .
115(6) . . .
121(6) . . .
124(6) . . .
121(6) . . .
135(6) . . .
121(6) . . .
108(5) . . .
135(6) . . .
130(6) . . .
123(6) . . .
123(6) . . .
128(6) . . .
128(6) . . .
136(7) . . .
114(6) . . .
113(6) . . .
115(6) . . .
101(5) . . .
114(6) . . .
119(6) . . .
119(6) . . .
108(5) . . .
113(6) . . .
125(6) . . .
126(6) . . .
136(6) . . .
117(6) . . .
123(6) . . .
123(6) . . .
106(5) . . .
119(6) . . .
115(6) . . .
123(6) . . .
131(6) . . .
114(6) . . .
102(5) . . .
140(6) . . .
116(6) . . .
119(6) . . .
121(6) . . .
127(6) . . .
124(6) . . .
131(6) . . .
127(6) . . .
119(6) . . .
115(6) . . .
102(5) . . .
113(6) . . .
115(6) . . .
123(6) . . .
123(6) . . .
121(6) . . .
122(6) . . .
116(6) . . .
117(6) . . .
126(6) . . .
131(6) . . .
127(6) . . .
121(6) . . .
105(5) . . .
128(6) . . .
123(6) . . .
127(6) . . .
119(6) . . .
125(6) . . .
120(6) . . .
109(6) . . .
111(6) . . .
105(5) . . .
129(6) . . .
111(5) . . .
118(6) . . .
121(6) . . .
126(6) . . .
124(6) . . .
112(6) . . .
115(6) . . .
130(6) . . .
135(6) . . .
126(6) . . .
113(6) . . .
112(6) . . .
115(6) . . .
117(6) . . .
126(6) . . .
112(6) . . .
122(6) . . .
133(6) . . .
112(6) . . .
115(6) . . .
107(5) . . .
122(6) . . .
128(6) . . .
128(6) . . .
111(5) . . .
110(6) . . .
108(6) . . .
115(6) . . .
105(5) . . .
107(5) . . .
130(6) . . .
123(6) . . .
115(6) . . .
121(6) . . .
115(6) . . .
109(6) . . .
111(6) . . .
117(6) . . .
110(5) . . .
117(6) . . .
126(6) . . .
118(6) . . .
115(6) . . .
111(6) . . .
108(5) . . .
120(6) . . .
110(6) . . .
116(6) . . .
122(6) . . .
117(6) . . .
126(6) . . .
121(6) . . .
118(6) . . .
112(6) . . .
112(6) . . .
121(6) . . .
129(6) . . .
114(6) . . .
128(6) . . .
115(6) . . .
116(6) . . .
104(6) . . .
123(6) . . .
135(6) . . .
119(6) . . .
116(6) . . .
112(6) . . .
127(6) . . .
113(6) . . .
102(5) . . .
113(6) . . .
114(6) . . .
109(6) . . .
112(6) . . .
122(6) . . .
110(6) . . .
119(6) . . .
107(5) . . .
115(6) . . .
132(6) . . .
127(6) . . .
130(6) . . .
123(6) . . .
121(6) . . .
120(6) . . .
121(6) . . .
119(6) . . .
118(6) . . .
119(6) . . .
126(6) . . .
114(6) . . .
119(6) . . .
112(5) . . .
114(6) . . .
112(6) . . .
123(6) . . .
120(6) . . .
121(6) . . .
109(5) . . .
103(5) . . .
111(6) . . .
120(6) . . .
138(6) . . .
125(6) . . .
127(6) . . .
128(6) . . .
116(6) . . .
121(6) . . .
136(6) . . .
132(6) . . .
120(6) . . .
116(6) . . .
118(6) . . .
104(6) . . .
110(6) . . .
115(6) . . .
129(6) . . .
128(6) . . .
117(6) . . .
111(6) . . .
113(6) . . .
115(6) . . .
124(6) . . .
113(6) . . .
117(6) . . .
120(6) . . .
114(6) . . .
104(5) . . .
118(6) . . .
125(6) . . .
120(6) . . .
123(6) . . .
109(5) . . .
116(6) . . .
122(6) . . .
133(6) . . .
120(6) . . .
104(5) . . .
121(6) . . .
119(6) . . .
123(6) . . .
132(6) . . .
128(6) . . .
122(6) . . .
127(6) . . .
115(6) . . .
116(6) . . .
110(6) . . .
118(6) . . .
113(6) . . .
106(6) . . .
126(6) . . .
115(6) . . .
122(6) . . .
114(6) . . .
107(5) . . .
115(6) . . .
112(6) . . .
117(6) . . .
126(6) . . .
123(6) . . .
114(6) . . .
119(6) . . .
109(6) . . .
122(6) . . .
108(6) . . .
112(5) . . .
127(6) . . .
129(6) . . .
122(6) . . .
105(5) . . .
132(6) . . .
108(6) . . .
116(6) . . .
103(5) . . .
118(6) . . .
124(6) . . .
101(6) . . .
126(6) . . .
116(6) . . .
111(5) . . .
118(6) . . .
103(5) . . .
107(6) . . .
118(6) . . .
110(5) . . .
118(6) . . .
124(6) . . .
115(6) . . .
121(6) . . .
125(6) . . .
115(6) . . .
115(6) . . .
111(6) . . .
115(6) . . .
116(6) . . .
110(5) . . .
99(5) . . .
109(6) . . .
118(6) . . .
114(6) . . .
126(6) . . .
118(6) . . .
117(6) . . .
124(6) . . .
126(6) . . .
119(6) . . .
124(6) . . .
132(6) . . .
108(6) . . .
132(6) . . .
121(6) . . .
133(6) . . .
115(6) . . .
113(6) . . .
144(6) . . .
124(6) . . .
120(6) . . .
103(5) . . .
124(6) . . .
116(6) . . .
105(5) . . .
110(6) . . .
114(6) . . .
122(6) . . .
125(6) . . .
121(6) . . .
116(6) . . .
116(6) . . .
109(5) . . .
110(5) . . .
112(6) . . .
112(6) . . .
110(6) . . .
110(6) . . .
119(6) . . .
119(6) . . .
117(6) . . .
113(6) . . .
124(6) . . .
121(6) . . .
113(6) . . .
124(6) . . .
127(6) . . .
119(6) . . .
104(5) . . .
131(6) . . .
121(6) . . .
125(6) . . .
111(6) . . .
114(6) . . .
115(6) . . .
113(6) . . .
118(6) . . .
122(6) . . .
117(6) . . .
128(6) . . .
120(6) . . .
114(6) . . .
126(6) . . .
125(6) . . .
123(6) . . .
116(6) . . .
113(6) . . .
123(6) . . .
125(6) . . .
125(6) . . .
126(6) . . .
132(6) . . .
122(6) . . .
112(6) . . .
113(6) . . .
123(6) . . .
130(6) . . .
128(6) . . .
119(6) . . .
112(6) . . .
109(6) . . .
126(6) . . .
122(6) . . .
119(6) . . .
119(6) . . .
111(6) . . .
116(6) . . .
115(6) . . .
122(6) . . .
112(6) . . .
104(5) . . .
110(5) . . .
118(6) . . .
117(6) . . .
122(6) . . .
129(6) . . .
121(6) . . .
130(6) . . .
124(6) . . .
110(6) . . .
130(6) . . .
122(6) . . .
117(6) . . .
119(6) . . .
134(7) . . .
119(6) . . .
113(6) . . .
116(6) . . .
124(6) . . .
129(6) . . .
120(6) . . .
119(6) . . .
123(6) . . .
116(6) . . .
112(6) . . .
132(6) . . .
125(6) . . .
111(6) . . .
129(6) . . .
115(6) . . .
130(6) . . .
123(6) . . .
122(6) . . .
125(6) . . .
127(6) . . .
124(6) . . .
131(6) . . .
119(6) . . .
117(6) . . .
113(6) . . .
109(5) . . .
120(6) . . .
117(6) . . .
130(6) . . .
106(6) . . .
115(6) . . .
115(6) . . .
100(5) . . .
116(6) . . .
125(6) . . .
117(6) . . .
119(6) . . .
120(6) . . .
123(6) . . .
134(6) . . .
121(6) . . .
117(6) . . .
110(6) . . .
108(6) . . .
122(6) . . .
121(6) . . .
116(6) . . .
110(6) . . .
125(6) . . .
118(6) . . .
116(6) . . .
120(6) . . .
110(5) . . .
126(6) . . .
123(6) . . .
122(6) . . .
123(6) . . .
110(6) . . .
127(6) . . .
129(6) . . .
119(6) . . .
126(6) . . .
122(6) . . .
124(6) . . .
109(6) . . .
129(6) . . .
129(6) . . .
115(6) . . .
110(5) . . .
136(6) . . .
122(6) . . .
113(5) . . .
114(6) . . .
107(6) . . .
105(6) . . .
93(5) . . .
114(6) . . .
115(6) . . .
102(5) . . .
124(6) . . .
114(6) . . .
111(6) . . .
108(6) . . .
110(6) . . .
118(6) . . .
116(6) . . .
125(6) . . .
118(6) . . .
121(6) . . .
103(5) . . .
110(6) . . .
115(6) . . .
120(6) . . .
119(6) . . .
103(5) . . .
107(5) . . .
108(6) . . .
124(6) . . .
109(5) . . .
121(6) . . .
118(6) . . .
117(6) . . .
136(7) . . .
111(6) . . .
104(5) . . .
108(5) . . .
117(6) . . .
118(6) . . .
120(6) . . .
113(5) . . .
103(5) . . .
111(6) . . .
125(6) . . .
120(6) . . .
126(6) . . .
109(6) . . .
106(6) . . .
113(6) . . .
124(6) . . .
114(6) . . .
107(5) . . .
115(6) . . .
105(5) . . .
118(6) . . .
118(6) . . .
115(6) . . .
114(6) . . .
115(6) . . .
122(6) . . .
109(5) . . .
107(5) . . .
121(6) . . .
113(6) . . .
137(6) . . .
112(6) . . .
115(6) . . .
130(6) . . .
115(6) . . .
116(6) . . .
128(6) . . .
119(6) . . .
114(6) . . .
119(6) . . .
119(6) . . .
117(6) . . .
120(6) . . .
114(6) . . .
116(6) . . .
114(5) . . .
107(5) . . .
108(6) . . .
108(6) . . .
128(6) . . .
116(6) . . .
110(6) . . .
117(6) . . .
111(6) . . .
110(6) . . .
123(6) . . .
109(5) . . .
124(6) . . .
125(6) . . .
118(6) . . .
112(6) . . .
101(5) . . .
120(6) . . .
108(6) . . .
106(5) . . .
125(6) . . .
112(6) . . .
114(6) . . .
134(6) . . .
127(6) . . .
116(6) . . .
136(6) . . .
108(6) . . .
117(6) . . .
122(6) . . .
118(6) . . .
124(6) . . .
115(6) . . .
115(6) . . .
120(6) . . .
123(6) . . .
110(6) . . .
109(6) . . .
112(6) . . .
121(6) . . .
126(6) . . .
114(6) . . .
109(6) . . .
95(5) . . .
113(6) . . .
121(6) . . .
121(6) . . .
117(6) . . .
113(6) . . .
109(5) . . .
114(5) . . .
113(6) . . .
121(6) . . .
116(6) . . .
110(5) . . .
113(6) . . .
103(5) . . .
114(6) . . .
112(6) . . .
114(6) . . .
114(5) . . .
117(6) . . .
112(6) . . .
106(5) . . .
107(5) . . .
112(6) . . .
112(6) . . .
110(6) . . .
133(6) . . .
112(5) . . .
111(6) . . .
115(6) . . .
112(6) . . .
112(6) . . .
119(6) . . .
127(6) . . .
109(6) . . .
124(6) . . .
103(5) . . .
120(6) . . .
124(6) . . .
120(6) . . .
128(6) . . .
129(6) . . .
117(6) . . .
109(6) . . .
112(6) . . .
114(6) . . .
119(6) . . .
111(6) . . .
118(6) . . .
130(7) . . .
124(6) . . .
118(6) . . .
105(5) . . .
123(6) . . .
115(6) . . .
107(6) . . .
107(5) . . .
99(5) . . .
110(6) . . .
109(6) . . .
109(6) . . .
120(6) . . .
113(5) . . .
130(6) . . .
110(6) . . .
108(6) . . .
129(6) . . .
108(5) . . .
113(6) . . .
108(6) . . .
120(6) . . .
126(6) . . .
126(6) . . .
123(6) . . .
112(6) . . .
126(6) . . .
120(6) . . .
117(6) . . .
112(6) . . .
100(5) . . .
113(6) . . .
98(5) . . .
88(5) . . .
98(5) . . .
134(6) . . .
110(6) . . .
120(6) . . .
120(6) . . .
107(6) . . .
113(6) . . .
122(6) . . .
119(6) . . .
107(6) . . .
111(6) . . .
119(6) . . .
117(6) . . .
114(6) . . .
114(6) . . .
113(6) . . .
119(6) . . .
135(6) . . .
128(6) . . .
113(6) . . .
115(6) . . .
115(6) . . .
110(5) . . .
118(6) . . .
115(6) . . .
125(6) . . .
100(6) . . .
109(5) . . .
128(6) . . .
114(6) . . .
129(6) . . .
130(6) . . .
124(6) . . .
109(5) . . .
122(6) . . .
122(6) . . .
116(6) . . .
113(5) . . .
100(5) . . .
115(6) . . .
117(6) . . .
121(6) . . .
125(6) . . .
119(6) . . .
108(6) . . .
122(6) . . .
123(6) . . .
114(6) . . .
114(6) . . .
125(6) . . .
112(6) . . .
107(6) . . .
105(5) . . .
105(6) . . .
119(6) . . .
125(6) . . .
121(6) . . .
111(5) . . .
109(6) . . .
116(6) . . .
126(6) . . .
119(6) . . .
117(6) . . .
120(6) . . .
122(6) . . .
125(6) . . .
125(6) . . .
112(5) . . .
115(6) . . .
121(6) . . .
119(6) . . .
125(6) . . .
116(6) . . .
110(6) . . .
118(6) . . .
117(6) . . .
126(6) . . .
123(6) . . .
117(6) . . .
119(6) . . .
124(6) . . .
120(6) . . .
115(6) . . .
125(6) . . .
131(6) . . .
114(6) . . .
113(6) . . .
124(6) . . .
119(6) . . .
121(6) . . .
125(6) . . .
112(6) . . .
120(6) . . .
117(6) . . .
111(6) . . .
114(6) . . .
112(6) . . .
118(6) . . .
96(5) . . .
110(6) . . .
109(6) . . .
126(6) . . .
122(6) . . .
121(6) . . .
115(6) . . .
126(6) . . .
109(5) . . .
118(6) . . .
114(6) . . .
122(6) . . .
120(6) . . .
116(6) . . .
115(6) . . .
113(6) . . .
126(6) . . .
120(6) . . .
113(6) . . .
122(6) . . .
106(5) . . .
132(6) . . .
120(6) . . .
116(6) . . .
116(6) . . .
104(6) . . .
103(5) . . .
108(5) . . .
120(6) . . .
116(6) . . .
110(6) . . .
105(6) . . .
121(6) . . .
136(6) . . .
110(6) . . .
97(5) . . .
95(5) . . .
126(6) . . .
109(5) . . .
115(6) . . .
109(6) . . .
105(5) . . .
107(5) . . .
109(5) . . .
106(5) . . .
126(6) . . .
109(5) . . .
113(6) . . .
114(6) . . .
114(6) . . .
105(6) . . .
109(5) . . .
107(5) . . .
131(6) . . .
111(6) . . .
119(6) . . .
123(6) . . .
105(5) . . .
104(5) . . .
116(6) . . .
117(6) . . .
122(6) . . .
108(5) . . .
120(6) . . .
110(6) . . .
112(6) . . .
130(6) . . .
110(5) . . .
108(5) . . .
127(6) . . .
113(6) . . .
111(6) . . .
120(6) . . .
115(6) . . .
118(6) . . .
123(6) . . .
98(5) . . .
121(6) . . .
117(6) . . .
123(6) . . .
97(5) . . .
112(5) . . .
109(5) . . .
119(6) . . .
115(6) . . .
103(5) . . .
116(6) . . .
129(6) . . .
113(6) . . .
109(6) . . .
103(5) . . .
127(6) . . .
105(5) . . .
112(6) . . .
117(6) . . .
115(6) . . .
110(5) . . .
108(6) . . .
102(5) . . .
119(6) . . .
115(6) . . .
116(6) . . .
115(6) . . .
109(6) . . .
113(6) . . .
130(6) . . .
111(6) . . .
130(6) . . .
117(6) . . .
115(6) . . .
105(5) . . .
104(5) . . .
115(6) . . .
116(6) . . .
123(6) . . .
119(6) . . .
103(5) . . .
110(6) . . .
116(6) . . .
109(6) . . .
120(6) . . .
108(5) . . .
98(5) . . .
102(6) . . .
102(5) . . .
110(5) . . .
134(6) . . .
103(5) . . .
99(5) . . .
104(5) . . .
118(6) . . .
122(6) . . .
128(6) . . .
126(6) . . .
106(6) . . .
95(5) . . .
122(6) . . .
118(6) . . .
103(6) . . .
103(5) . . .
110(5) . . .
106(5) . . .
118(6) . . .
112(6) . . .
107(6) . . .
107(5) . . .
128(6) . . .
119(6) . . .
114(6) . . .
100(5) . . .
103(5) . . .
105(5) . . .
119(6) . . .
106(6) . . .
106(5) . . .
121(6) . . .
123(6) . . .
118(6) . . .
108(6) . . .
109(5) . . .
108(5) . . .
104(6) . . .
106(6) . . .
119(6) . . .
114(6) . . .
123(6) . . .
117(6) . . .
109(6) . . .
104(5) . . .
122(6) . . .
106(5) . . .
113(6) . . .
109(6) . . .
121(6) . . .
109(5) . . .
97(5) . . .
119(6) . . .
111(6) . . .
121(6) . . .
116(6) . . .
110(6) . . .
108(6) . . .
122(6) . . .
119(6) . . .
101(5) . . .
101(5) . . .
108(6) . . .
108(6) . . .
105(5) . . .
115(6) . . .
98(5) . . .
115(6) . . .
112(6) . . .
116(6) . . .
105(5) . . .
122(6) . . .
116(6) . . .
111(6) . . .
113(6) . . .
104(5) . . .
111(6) . . .
117(6) . . .
104(5) . . .
107(5) . . .
112(6) . . .
113(6) . . .
109(6) . . .
112(6) . . .
128(6) . . .
113(6) . . .
110(6) . . .
99(5) . . .
91(5) . . .
116(6) . . .
109(5) . . .
103(5) . . .
119(6) . . .
111(6) . . .
98(5) . . .
106(5) . . .
108(6) . . .
107(6) . . .
116(6) . . .
108(5) . . .
108(5) . . .
103(5) . . .
120(6) . . .
116(6) . . .
114(6) . . .
116(6) . . .
113(6) . . .
117(6) . . .
109(6) . . .
106(5) . . .
115(6) . . .
111(6) . . .
105(6) . . .
118(6) . . .
112(5) . . .
126(6) . . .
122(6) . . .
112(6) . . .
125(6) . . .
109(5) . . .
103(5) . . .
115(6) . . .
122(6) . . .
109(6) . . .
114(6) . . .
111(6) . . .
124(6) . . .
115(6) . . .
119(6) . . .
119(6) . . .
128(6) . . .
107(6) . . .
120(6) . . .
107(5) . . .
110(5) . . .
118(6) . . .
99(5) . . .
117(6) . . .
116(6) . . .
123(6) . . .
98(5) . . .
107(6) . . .
106(6) . . .
94(5) . . .
104(5) . . .
120(6) . . .
120(6) . . .
106(5) . . .
117(6) . . .
117(6) . . .
110(6) . . .
103(6) . . .
107(6) . . .
111(6) . . .
111(6) . . .
105(6) . . .
107(6) . . .
106(6) . . .
106(5) . . .
108(5) . . .
126(6) . . .
116(6) . . .
132(6) . . .
113(6) . . .
107(6) . . .
127(6) . . .
109(6) . . .
102(5) . . .
108(5) . . .
105(5) . . .
124(6) . . .
112(6) . . .
120(6) . . .
112(6) . . .
100(5) . . .
120(6) . . .
128(6) . . .
117(6) . . .
102(5) . . .
107(6) . . .
110(6) . . .
109(6) . . .
121(6) . . .
131(6) . . .
117(6) . . .
108(6) . . .
114(6) . . .
116(6) . . .
116(6) . . .
115(6) . . .
94(5) . . .
99(5) . . .
106(5) . . .
105(5) . . .
112(6) . . .
118(6) . . .
123(6) . . .
117(6) . . .
105(5) . . .
111(6) . . .
105(6) . . .
105(5) . . .
117(6) . . .
108(5) . . .
129(6) . . .
104(6) . . .
99(5) . . .
100(5) . . .
97(5) . . .
100(5) . . .
113(6) . . .
114(6) . . .
102(5) . . .
106(5) . . .
110(6) . . .
119(6) . . .
105(6) . . .
100(5) . . .
112(6) . . .
116(6) . . .
111(6) . . .
99(5) . . .
93(5) . . .
102(6) . . .
110(6) . . .
101(5) . . .
102(5) . . .
105(5) . . .
119(6) . . .
105(5) . . .
124(6) . . .
113(6) . . .
108(5) . . .
109(6) . . .
117(6) . . .
113(6) . . .
117(6) . . .
118(6) . . .
118(6) . . .
117(6) . . .
114(6) . . .
115(6) . . .
111(5) . . .
112(6) . . .
113(6) . . .
99(5) . . .
113(6) . . .
110(5) . . .
125(6) . . .
109(6) . . .
105(6) . . .
98(5) . . .
91(5) . . .
105(5) . . .
114(6) . . .
112(6) . . .
110(5) . . .
116(6) . . .
90(5) . . .
96(5) . . .
93(5) . . .
106(5) . . .
101(5) . . .
100(6) . . .
97(5) . . .
104(6) . . .
101(5) . . .
123(6) . . .
105(6) . . .
105(6) . . .
102(5) . . .
99(5) . . .
113(6) . . .
116(6) . . .
101(5) . . .
113(6) . . .
122(6) . . .
112(6) . . .
118(6) . . .
116(6) . . .
113(6) . . .
109(5) . . .
113(6) . . .
96(5) . . .
116(6) . . .
105(5) . . .
106(5) . . .
106(5) . . .
109(6) . . .
116(6) . . .
122(6) . . .
118(6) . . .
125(6) . . .
109(6) . . .
98(5) . . .
117(6) . . .
111(5) . . .
111(6) . . .
93(5) . . .
105(6) . . .
110(5) . . .
120(6) . . .
112(6) . . .
115(6) . . .
94(5) . . .
118(6) . . .
113(6) . . .
114(6) . . .
103(5) . . .
118(6) . . .
122(6) . . .
97(5) . . .
116(6) . . .
120(6) . . .
120(6) . . .
101(5) . . .
92(5) . . .
121(6) . . .
115(6) . . .
102(5) . . .
108(5) . . .
104(5) . . .
107(6) . . .
101(5) . . .
111(6) . . .
133(6) . . .
131(6) . . .
111(6) . . .
102(6) . . .
98(5) . . .
115(6) . . .
119(6) . . .
96(5) . . .
117(6) . . .
103(5) . . .
105(5) . . .
100(5) . . .
104(6) . . .
103(6) . . .
112(6) . . .
102(5) . . .
102(6) . . .
124(6) . . .
105(5) . . .
104(5) . . .
105(5) . . .
114(6) . . .
112(6) . . .
113(6) . . .
103(5) . . .
97(5) . . .
102(5) . . .
114(6) . . .
130(6) . . .
105(5) . . .
108(5) . . .
100(5) . . .
108(6) . . .
117(6) . . .
115(6) . . .
108(5) . . .
111(6) . . .
102(6) . . .
111(6) . . .
105(5) . . .
120(6) . . .
112(6) . . .
113(6) . . .
112(6) . . .
106(5) . . .
98(5) . . .
104(6) . . .
111(6) . . .
101(5) . . .
112(6) . . .
110(5) . . .
97(5) . . .
97(5) . . .
101(5) . . .
102(5) . . .
117(6) . . .
114(6) . . .
110(6) . . .
113(6) . . .
105(5) . . .
104(6) . . .
108(6) . . .
101(5) . . .
100(5) . . .
109(5) . . .
100(5) . . .
107(6) . . .
117(6) . . .
114(6) . . .
119(6) . . .
115(6) . . .
131(7) . . .
114(6) . . .
116(6) . . .
111(6) . . .
113(6) . . .
98(5) . . .
110(6) . . .
99(5) . . .
110(5) . . .
125(6) . . .
111(6) . . .
105(5) . . .
114(6) . . .
106(5) . . .
115(6) . . .
110(6) . . .
118(6) . . .
124(6) . . .
105(5) . . .
113(6) . . .
121(6) . . .
115(6) . . .
108(5) . . .
120(6) . . .
105(6) . . .
101(5) . . .
114(6) . . .
108(5) . . .
113(6) . . .
119(6) . . .
105(5) . . .
110(6) . . .
104(5) . . .
112(6) . . .
113(6) . . .
118(6) . . .
98(5) . . .
116(6) . . .
109(6) . . .
123(6) . . .
100(5) . . .
107(6) . . .
104(5) . . .
109(6) . . .
99(6) . . .
110(6) . . .
102(5) . . .
96(5) . . .
100(6) . . .
113(6) . . .
107(5) . . .
107(5) . . .
110(5) . . .
99(5) . . .
108(6) . . .
111(6) . . .
110(5) . . .
106(5) . . .
123(6) . . .
114(6) . . .
114(6) . . .
112(5) . . .
98(5) . . .
107(5) . . .
124(6) . . .
109(6) . . .
113(5) . . .
106(5) . . .
102(5) . . .
113(6) . . .
119(6) . . .
104(5) . . .
97(5) . . .
106(6) . . .
112(6) . . .
113(6) . . .
113(6) . . .
104(5) . . .
118(6) . . .
109(6) . . .
111(6) . . .
107(5) . . .
112(6) . . .
101(5) . . .
114(6) . . .
98(5) . . .
95(5) . . .
114(6) . . .
128(6) . . .
120(6) . . .
116(6) . . .
111(5) . . .
98(5) . . .
117(6) . . .
100(5) . . .
107(5) . . .
109(5) . . .
102(5) . . .
94(5) . . .
112(6) . . .
105(5) . . .
113(6) . . .
113(6) . . .
94(5) . . .
107(6) . . .
93(5) . . .
101(5) . . .
92(5) . . .
118(6) . . .
99(5) . . .
100(5) . . .
110(5) . . .
106(6) . . .
108(6) . . .
104(5) . . .
117(6) . . .
124(6) . . .
102(5) . . .
101(6) . . .
102(6) . . .
124(6) . . .
108(5) . . .
101(6) . . .
91(5) . . .
98(6) . . .
109(5) . . .
108(6) . . .
108(6) . . .
96(5) . . .
106(5) . . .
103(5) . . .
108(6) . . .
112(6) . . .
109(6) . . .
114(6) . . .
109(5) . . .
125(6) . . .
113(6) . . .
103(6) . . .
93(5) . . .
108(5) . . .
113(6) . . .
122(6) . . .
111(6) . . .
105(5) . . .
111(5) . . .
127(6) . . .
108(6) . . .
105(6) . . .
109(5) . . .
105(5) . . .
96(5) . . .
98(6) . . .
113(6) . . .
108(5) . . .
92(5) . . .
121(6) . . .
107(6) . . .
104(5) . . .
117(6) . . .
104(5) . . .
116(6) . . .
115(6) . . .
91(5) . . .
106(5) . . .
91(5) . . .
98(5) . . .
102(6) . . .
94(5) . . .
105(5) . . .
96(5) . . .
107(6) . . .
111(6) . . .
118(6) . . .
114(6) . . .
107(5) . . .
109(6) . . .
107(6) . . .
114(6) . . .
106(5) . . .
103(5) . . .
109(6) . . .
111(6) . . .
111(5) . . .
104(5) . . .
98(5) . . .
106(6) . . .
111(6) . . .
108(5) . . .
107(5) . . .
94(5) . . .
105(6) . . .
111(6) . . .
111(6) . . .
111(6) . . .
104(5) . . .
105(6) . . .
100(5) . . .
106(6) . . .
100(5) . . .
104(6) . . .
95(5) . . .
115(6) . . .
110(5) . . .
121(6) . . .
100(5) . . .
106(6) . . .
114(6) . . .
109(5) . . .
100(5) . . .
110(6) . . .
102(6) . . .
112(6) . . .
99(5) . . .
109(5) . . .
115(6) . . .
97(5) . . .
99(5) . . .
117(6) . . .
106(5) . . .
95(5) . . .
116(6) . . .
117(6) . . .
106(5) . . .
104(5) . . .
111(6) . . .
103(5) . . .
111(6) . . .
115(6) . . .
111(6) . . .
114(6) . . .
101(5) . . .
104(5) . . .
96(5) . . .
94(5) . . .
97(5) . . .
103(5) . . .
119(6) . . .
112(6) . . .
114(6) . . .
108(6) . . .
102(5) . . .
106(5) . . .
122(6) . . .
110(6) . . .
110(6) . . .
110(6) . . .
109(5) . . .
109(5) . . .
113(6) . . .
98(6) . . .
102(6) . . .
105(5) . . .
117(6) . . .
124(6) . . .
113(6) . . .
109(6) . . .
109(5) . . .
104(5) . . .
102(6) . . .
112(6) . . .
109(6) . . .
96(5) . . .
102(5) . . .
107(6) . . .
108(6) . . .
108(6) . . .
103(5) . . .
108(6) . . .
109(6) . . .
102(5) . . .
88(5) . . .
93(5) . . .
126(6) . . .
111(6) . . .
101(5) . . .
107(6) . . .
100(5) . . .
105(5) . . .
102(5) . . .
112(6) . . .
113(6) . . .
111(5) . . .
107(5) . . .
122(6) . . .
102(6) . . .
107(5) . . .
110(5) . . .
94(5) . . .
106(6) . . .
116(6) . . .
116(6) . . .
116(6) . . .
108(6) . . .
103(5) . . .
105(5) . . .
107(5) . . .
103(5) . . .
113(6) . . .
100(6) . . .
98(5) . . .
90(5) . . .
110(5) . . .
100(5) . . .
98(6) . . .
98(5) . . .
100(5) . . .
109(5) . . .
111(6) . . .
121(6) . . .
105(5) . . .
104(5) . . .
107(5) . . .
114(6) . . .
130(6) . . .
112(6) . . .
114(6) . . .
108(5) . . .
105(6) . . .
101(6) . . .
107(6) . . .
109(5) . . .
102(5) . . .
93(5) . . .
102(6) . . .
107(6) . . .
104(5) . . .
97(5) . . .
103(6) . . .
103(6) . . .
106(6) . . .
112(5) . . .
95(5) . . .
107(6) . . .
115(6) . . .
101(5) . . .
111(5) . . .
117(6) . . .
106(6) . . .
109(6) . . .
97(5) . . .
102(5) . . .
110(6) . . .
99(5) . . .
109(6) . . .
107(5) . . .
101(5) . . .
114(6) . . .
101(5) . . .
116(6) . . .
112(6) . . .
107(5) . . .
109(5) . . .
111(6) . . .
108(6) . . .
113(6) . . .
109(5) . . .
114(6) . . .
105(6) . . .
120(6) . . .
106(5) . . .
113(6) . . .
122(6) . . .
109(5) . . .
113(6) . . .
101(5) . . .
107(6) . . .
98(5) . . .
99(5) . . .
107(5) . . .
102(5) . . .
117(6) . . .
102(6) . . .
107(6) . . .
98(5) . . .
115(6) . . .
107(5) . . .
91(5) . . .
104(6) . . .
104(6) . . .
106(5) . . .
108(5) . . .
111(6) . . .
111(6) . . .
107(5) . . .
92(5) . . .
108(5) . . .
111(6) . . .
106(6) . . .
97(5) . . .
120(6) . . .
93(5) . . .
101(5) . . .
98(5) . . .
96(5) . . .
102(5) . . .
115(6) . . .
101(5) . . .
92(5) . . .
99(5) . . .
111(5) . . .
122(6) . . .
98(6) . . .
94(5) . . .
118(6) . . .
117(6) . . .
94(5) . . .
112(6) . . .
120(6) . . .
87(5) . . .
107(5) . . .
110(5) . . .
107(6) . . .
104(5) . . .
109(5) . . .
105(6) . . .
102(5) . . .
118(6) . . .
105(5) . . .
105(5) . . .
105(5) . . .
108(5) . . .
114(6) . . .
98(5) . . .
106(5) . . .
107(5) . . .
108(5) . . .
108(6) . . .
93(5) . . .
96(5) . . .
104(6) . . .
99(5) . . .
112(6) . . .
98(5) . . .
110(5) . . .
111(6) . . .
120(6) . . .
105(6) . . .
112(6) . . .
102(5) . . .
117(6) . . .
118(6) . . .
106(6) . . .
107(5) . . .
109(5) . . .
113(6) . . .
106(6) . . .
99(6) . . .
91(5) . . .
108(5) . . .
115(6) . . .
94(5) . . .
106(5) . . .
92(5) . . .
98(5) . . .
115(6) . . .
98(5) . . .
101(5) . . .
104(5) . . .
119(6) . . .
113(6) . . .
98(5) . . .
111(6) . . .
112(5) . . .
110(5) . . .
107(6) . . .
101(5) . . .
117(6) . . .
106(5) . . .
96(5) . . .
103(5) . . .
106(6) . . .
103(5) . . .
103(5) . . .
111(6) . . .
96(5) . . .
94(5) . . .
108(6) . . .
123(6) . . .
103(5) . . .
99(5) . . .
91(5) . . .
105(5) . . .
107(5) . . .
109(6) . . .
94(5) . . .
107(6) . . .
97(5) . . .
90(5) . . .
99(5) . . .
116(6) . . .
109(6) . . .
96(5) . . .
120(6) . . .
97(5) . . .
118(6) . . .
116(6) . . .
100(5) . . .
106(5) . . .
118(6) . . .
110(6) . . .
108(6) . . .
111(6) . . .
95(5) . . .
99(5) . . .
96(5) . . .
98(5) . . .
114(6) . . .
99(5) . . .
114(6) . . .
121(6) . . .
109(6) . . .
103(5) . . .
121(6) . . .
92(5) . . .
101(6) . . .
106(6) . . .
110(5) . . .
98(5) . . .
100(5) . . .
96(5) . . .
101(6) . . .
101(5) . . .
115(6) . . .
108(6) . . .
123(6) . . .
102(6) . . .
102(5) . . .
105(5) . . .
94(5) . . .
107(6) . . .
98(5) . . .
102(5) . . .
104(5) . . .
111(6) . . .
98(5) . . .
108(6) . . .
99(5) . . .
101(5) . . .
103(6) . . .
102(6) . . .
99(5) . . .
99(5) . . .
99(5) . . .
107(6) . . .
93(5) . . .
105(5) . . .
111(5) . . .
107(6) . . .
98(5) . . .
111(6) . . .
104(5) . . .
92(5) . . .
118(6) . . .
91(5) . . .
102(5) . . .
102(5) . . .
114(6) . . .
105(6) . . .
98(6) . . .
98(5) . . .
101(5) . . .
106(5) . . .
105(6) . . .
112(6) . . .
114(6) . . .
100(5) . . .
95(5) . . .
97(5) . . .
117(6) . . .
101(5) . . .
103(5) . . .
95(5) . . .
89(5) . . .
118(6) . . .
90(5) . . .
105(5) . . .
93(5) . . .
96(5) . . .
105(6) . . .
97(5) . . .
107(5) . . .
110(6) . . .
111(6) . . .
95(5) . . .
102(5) . . .
103(5) . . .
103(5) . . .
98(5) . . .
105(6) . . .
94(5) . . .
95(5) . . .
109(6) . . .
117(6) . . .
105(6) . . .
98(5) . . .
113(6) . . .
96(5) . . .
107(6) . . .
108(6) . . .
97(5) . . .
108(5) . . .
92(5) . . .
110(6) . . .
114(6) . . .
90(5) . . .
105(5) . . .
100(5) . . .
102(6) . . .
94(5) . . .
103(5) . . .
94(5) . . .
102(5) . . .
109(6) . . .
107(6) . . .
104(5) . . .
98(5) . . .
94(5) . . .
94(5) . . .
110(6) . . .
122(6) . . .
110(5) . . .
103(5) . . .
104(6) . . .
109(6) . . .
99(5) . . .
108(6) . . .
118(6) . . .
99(5) . . .
98(5) . . .
91(5) . . .
88(5) . . .
102(6) . . .
94(5) . . .
99(5) . . .
105(5) . . .
99(5) . . .
104(6) . . .
115(6) . . .
107(6) . . .
110(5) . . .
118(6) . . .
95(5) . . .
106(6) . . .
99(5) . . .
109(5) . . .
104(5) . . .
95(5) . . .
107(6) . . .
104(5) . . .
99(5) . . .
107(6) . . .
95(5) . . .
104(5) . . .
99(5) . . .
98(5) . . .
106(5) . . .
96(6) . . .
98(5) . . .
98(5) . . .
108(5) . . .
97(5) . . .
94(5) . . .
108(6) . . .
111(6) . . .
99(5) . . .
101(5) . . .
111(6) . . .
106(5) . . .
110(5) . . .
105(5) . . .
101(5) . . .
110(6) . . .
118(6) . . .
103(5) . . .
95(5) . . .
97(5) . . .
105(5) . . .
95(5) . . .
99(5) . . .
105(5) . . .
97(5) . . .
92(5) . . .
88(5) . . .
107(5) . . .
94(5) . . .
114(6) . . .
104(6) . . .
106(5) . . .
99(5) . . .
107(5) . . .
103(5) . . .
113(6) . . .
113(6) . . .
103(5) . . .
109(6) . . .
91(5) . . .
108(6) . . .
96(5) . . .
124(6) . . .
105(5) . . .
96(5) . . .
118(6) . . .
105(5) . . .
101(5) . . .
95(5) . . .
93(5) . . .
100(5) . . .
101(5) . . .
108(5) . . .
101(6) . . .
105(6) . . .
110(6) . . .
100(5) . . .
115(6) . . .
100(5) . . .
101(5) . . .
106(5) . . .
91(5) . . .
84(5) . . .
117(6) . . .
104(6) . . .
112(6) . . .
94(5) . . .
107(5) . . .
97(5) . . .
86(5) . . .
81(5) . . .
101(5) . . .
107(6) . . .
103(5) . . .
103(5) . . .
104(6) . . .
100(5) . . .
111(6) . . .
94(5) . . .
101(5) . . .
105(5) . . .
119(6) . . .
97(5) . . .
96(5) . . .
113(6) . . .
107(6) . . .
118(6) . . .
94(5) . . .
112(6) . . .
96(5) . . .
95(5) . . .
119(6) . . .
112(6) . . .
99(5) . . .
113(6) . . .
100(5) . . .
103(5) . . .
105(5) . . .
88(5) . . .
92(5) . . .
105(5) . . .
98(5) . . .
94(5) . . .
108(6) . . .
125(6) . . .
85(5) . . .
115(6) . . .
101(5) . . .
94(5) . . .
103(6) . . .
111(5) . . .
103(5) . . .
118(6) . . .
106(6) . . .
99(5) . . .
97(5) . . .
107(6) . . .
86(5) . . .
106(6) . . .
109(6) . . .
100(5) . . .
103(5) . . .
108(5) . . .
96(5) . . .
88(5) . . .
102(5) . . .
108(5) . . .
111(6) . . .
114(6) . . .
102(5) . . .
112(5) . . .
108(6) . . .
107(6) . . .
114(6) . . .
98(5) . . .
97(5) . . .
96(5) . . .
111(6) . . .
98(5) . . .
117(6) . . .
100(5) . . .
105(6) . . .
98(5) . . .
92(5) . . .
105(5) . . .
124(6) . . .
109(6) . . .
98(5) . . .
86(5) . . .
95(5) . . .
96(5) . . .
96(5) . . .
96(5) . . .
101(5) . . .
105(5) . . .
101(5) . . .
101(5) . . .
95(5) . . .
98(5) . . .
89(5) . . .
90(5) . . .
84(5) . . .
95(5) . . .
101(5) . . .
106(5) . . .
105(5) . . .
97(5) . . .
96(5) . . .
96(5) . . .
108(5) . . .
102(5) . . .
104(6) . . .
97(5) . . .
103(5) . . .
83(5) . . .
111(6) . . .
112(6) . . .
85(5) . . .
89(5) . . .
97(5) . . .
98(5) . . .
100(5) . . .
107(6) . . .
99(5) . . .
111(6) . . .
108(6) . . .
110(6) . . .
99(5) . . .
92(5) . . .
97(5) . . .
90(5) . . .
101(6) . . .
111(6) . . .
96(5) . . .
98(5) . . .
105(6) . . .
99(5) . . .
99(5) . . .
125(6) . . .
107(5) . . .
98(5) . . .
103(6) . . .
98(5) . . .
96(5) . . .
98(5) . . .
88(5) . . .
98(5) . . .
93(5) . . .
91(5) . . .
106(5) . . .
113(6) . . .
97(5) . . .
106(6) . . .
103(5) . . .
99(5) . . .
97(5) . . .
100(5) . . .
98(5) . . .
88(5) . . .
84(5) . . .
109(6) . . .
117(6) . . .
96(5) . . .
91(5) . . .
105(5) . . .
110(6) . . .
87(5) . . .
87(5) . . .
102(5) . . .
87(5) . . .
83(5) . . .
105(6) . . .
94(5) . . .
96(5) . . .
103(6) . . .
118(6) . . .
117(6) . . .
99(5) . . .
96(5) . . .
105(6) . . .
104(6) . . .
105(6) . . .
103(6) . . .
83(5) . . .
78(5) . . .
92(5) . . .
104(6) . . .
97(5) . . .
94(5) . . .
90(5) . . .
91(5) . . .
92(5) . . .
105(5) . . .
94(5) . . .
95(5) . . .
92(6) . . .
97(6) . . .
95(5) . . .
100(5) . . .
85(5) . . .
105(6) . . .
98(5) . . .
108(5) . . .
100(5) . . .
100(5) . . .
89(5) . . .
94(5) . . .
87(5) . . .
88(5) . . .
111(6) . . .
103(6) . . .
94(5) . . .
96(5) . . .
100(5) . . .
98(5) . . .
105(5) . . .
103(5) . . .
99(5) . . .
108(6) . . .
93(5) . . .
84(5) . . .
78(5) . . .
99(5) . . .
76(5) . . .
88(5) . . .
106(6) . . .
83(5) . . .
104(5) . . .
97(5) . . .
105(6) . . .
104(6) . . .
93(5) . . .
99(5) . . .
99(5) . . .
97(6) . . .
82(5) . . .
101(5) . . .
90(5) . . .
112(6) . . .
94(5) . . .
102(5) . . .
102(5) . . .
110(6) . . .
94(5) . . .
103(6) . . .
100(5) . . .
94(5) . . .
115(6) . . .
99(5) . . .
88(5) . . .
103(5) . . .
88(5) . . .
93(5) . . .
85(5) . . .
109(6) . . .
101(5) . . .
100(5) . . .
94(5) . . .
93(5) . . .
97(5) . . .
83(5) . . .
96(5) . . .
108(6) . . .
96(5) . . .
92(5) . . .
115(6) . . .
96(5) . . .
91(5) . . .
102(6) . . .
99(5) . . .
106(5) . . .
101(5) . . .
108(6) . . .
114(6) . . .
97(5) . . .
93(5) . . .
95(5) . . .
103(5) . . .
103(5) . . .
94(5) . . .
101(5) . . .
85(5) . . .
86(5) . . .
95(5) . . .
92(5) . . .
115(6) . . .
98(5) . . .
108(6) . . .
98(6) . . .
109(6) . . .
96(5) . . .
106(5) . . .
94(5) . . .
98(5) . . .
88(5) . . .
96(5) . . .
99(5) . . .
113(6) . . .
104(6) . . .
94(5) . . .
106(5) . . .
97(5) . . .
97(5) . . .
97(6) . . .
92(5) . . .
87(5) . . .
91(5) . . .
92(5) . . .
94(6) . . .
110(6) . . .
96(5) . . .
87(5) . . .
87(5) . . .
95(5) . . .
94(5) . . .
96(5) . . .
83(5) . . .
95(5) . . .
100(5) . . .
102(5) . . .
96(5) . . .
94(5) . . .
99(5) . . .
92(5) . . .
100(5) . . .
107(5) . . .
104(5) . . .
89(5) . . .
108(6) . . .
106(5) . . .
100(5) . . .
94(5) . . .
89(5) . . .
91(5) . . .
86(5) . . .
84(5) . . .
105(6) . . .
100(6) . . .
89(5) . . .
89(5) . . .
87(5) . . .
106(5) . . .
99(5) . . .
97(5) . . .
89(5) . . .
106(5) . . .
91(5) . . .
117(6) . . .
98(5) . . .
84(5) . . .
100(5) . . .
104(6) . . .
93(5) . . .
93(5) . . .
101(5) . . .
93(5) . . .
89(5) . . .
104(6) . . .
97(5) . . .
88(5) . . .
115(6) . . .
89(5) . . .
87(5) . . .
91(5) . . .
98(5) . . .
98(5) . . .
97(5) . . .
98(5) . . .
93(5) . . .
105(5) . . .
91(5) . . .
95(5) . . .
99(6) . . .
94(5) . . .
104(5) . . .
96(5) . . .
98(5) . . .
97(5) . . .
98(5) . . .
86(5) . . .
93(5) . . .
96(5) . . .
101(5) . . .
100(5) . . .
86(5) . . .
87(5) . . .
98(5) . . .
97(5) . . .
107(5) . . .
82(5) . . .
103(5) . . .
92(5) . . .
76(5) . . .
91(5) . . .
86(5) . . .
93(5) . . .
86(5) . . .
102(5) . . .
112(6) . . .
112(6) . . .
91(5) . . .
82(5) . . .
90(5) . . .
93(5) . . .
103(5) . . .
107(6) . . .
80(5) . . .
93(5) . . .
81(5) . . .
89(5) . . .
87(5) . . .
101(6) . . .
96(5) . . .
101(5) . . .
102(5) . . .
95(5) . . .
101(5) . . .
103(5) . . .
101(5) . . .
97(5) . . .
90(5) . . .
117(6) . . .
101(5) . . .
91(5) . . .
88(5) . . .
94(5) . . .
89(5) . . .
82(5) . . .
95(5) . . .
100(5) . . .
92(5) . . .
101(6) . . .
92(5) . . .
99(5) . . .
83(5) . . .
97(5) . . .
99(5) . . .
101(5) . . .
106(5) . . .
98(5) . . .
94(5) . . .
99(5) . . .
106(5) . . .
88(5) . . .
92(5) . . .
91(5) . . .
94(5) . . .
108(5) . . .
93(5) . . .
87(5) . . .
91(5) . . .
102(5) . . .
102(5) . . .
100(5) . . .
99(5) . . .
100(5) . . .
99(5) . . .
90(5) . . .
83(5) . . .
95(5) . . .
96(5) . . .
101(5) . . .
98(5) . . .
101(5) . . .
102(5) . . .
97(5) . . .
109(6) . . .
106(5) . . .
102(5) . . .
92(5) . . .
100(5) . . .
99(5) . . .
93(5) . . .
96(5) . . .
105(6) . . .
90(5) . . .
97(5) . . .
93(5) . . .
91(5) . . .
108(6) . . .
97(5) . . .
92(5) . . .
98(5) . . .
101(5) . . .
96(5) . . .
96(5) . . .
89(5) . . .
97(5) . . .
93(5) . . .
94(5) . . .
105(5) . . .
93(5) . . .
85(5) . . .
104(5) . . .
107(6) . . .
75(4) . . .
88(5) . . .
99(5) . . .
98(5) . . .
99(6) . . .
95(5) . . .
88(5) . . .
105(5) . . .
109(6) . . .
100(5) . . .
90(5) . . .
105(5) . . .
99(5) . . .
90(5) . . .
103(6) . . .
96(5) . . .
94(5) . . .
91(5) . . .
98(5) . . .
86(5) . . .
94(5) . . .
95(5) . . .
90(5) . . .
94(5) . . .
96(5) . . .
90(5) . . .
107(5) . . .
92(5) . . .
96(5) . . .
100(5) . . .
105(6) . . .
92(5) . . .
86(5) . . .
93(5) . . .
101(6) . . .
98(5) . . .
100(5) . . .
111(6) . . .
95(5) . . .
103(5) . . .
106(5) . . .
97(5) . . .
98(5) . . .
96(5) . . .
102(5) . . .
101(5) . . .
105(5) . . .
94(5) . . .
90(5) . . .
93(5) . . .
113(6) . . .
96(5) . . .
91(5) . . .
89(5) . . .
93(5) . . .
87(5) . . .
93(5) . . .
93(5) . . .
97(5) . . .
97(5) . . .
95(5) . . .
95(5) . . .
84(5) . . .
85(5) . . .
97(5) . . .
84(5) . . .
93(5) . . .
88(5) . . .
91(5) . . .
83(5) . . .
81(5) . . .
98(5) . . .
96(5) . . .
99(5) . . .
96(5) . . .
104(5) . . .
104(5) . . .
98(5) . . .
108(6) . . .
88(5) . . .
78(5) . . .
93(5) . . .
86(5) . . .
99(6) . . .
95(5) . . .
90(5) . . .
109(6) . . .
95(5) . . .
97(5) . . .
96(5) . . .
85(5) . . .
97(5) . . .
94(5) . . .
95(5) . . .
97(5) . . .
91(5) . . .
99(5) . . .
101(6) . . .
87(5) . . .
99(5) . . .
97(5) . . .
99(5) . . .
85(5) . . .
97(5) . . .
91(5) . . .
83(5) . . .
101(5) . . .
98(6) . . .
96(5) . . .
94(5) . . .
91(5) . . .
85(5) . . .
97(5) . . .
88(5) . . .
97(5) . . .
103(5) . . .
91(5) . . .
86(5) . . .
88(5) . . .
100(5) . . .
105(5) . . .
99(5) . . .
96(5) . . .
104(5) . . .
92(5) . . .
99(5) . . .
105(5) . . .
111(6) . . .
102(5) . . .
101(5) . . .
91(5) . . .
97(5) . . .
97(5) . . .
97(5) . . .
93(5) . . .
91(5) . . .
107(6) . . .
101(5) . . .
102(5) . . .
93(5) . . .
92(5) . . .
97(5) . . .
100(5) . . .
98(5) . . .
88(5) . . .
86(5) . . .
95(5) . . .
100(5) . . .
101(5) . . .
96(5) . . .
96(5) . . .
101(6) . . .
104(5) . . .
101(5) . . .
82(5) . . .
96(5) . . .
88(5) . . .
75(5) . . .
91(5) . . .
99(5) . . .
91(5) . . .
102(6) . . .
92(5) . . .
93(5) . . .
93(5) . . .
85(5) . . .
106(6) . . .
92(5) . . .
97(5) . . .
91(5) . . .
102(5) . . .
94(5) . . .
94(5) . . .
86(5) . . .
86(5) . . .
87(5) . . .
91(5) . . .
94(5) . . .
97(5) . . .
100(5) . . .
103(6) . . .
103(6) . . .
104(6) . . .
96(5) . . .
91(5) . . .
97(5) . . .
100(6) . . .
85(5) . . .
98(5) . . .
91(5) . . .
90(5) . . .
111(6) . . .
103(5) . . .
99(5) . . .
97(5) . . .
100(5) . . .
91(5) . . .
99(5) . . .
95(5) . . .
93(5) . . .
91(5) . . .
87(5) . . .
93(5) . . .
99(5) . . .
96(5) . . .
100(6) . . .
84(5) . . .
88(5) . . .
83(5) . . .
88(5) . . .
96(5) . . .
97(5) . . .
94(5) . . .
94(5) . . .
94(5) . . .
100(6) . . .
89(5) . . .
98(5) . . .
85(5) . . .
88(5) . . .
91(5) . . .
94(5) . . .
105(5) . . .
90(5) . . .
87(5) . . .
93(5) . . .
84(5) . . .
106(5) . . .
116(6) . . .
93(5) . . .
104(6) . . .
116(6) . . .
113(6) . . .
90(5) . . .
92(5) . . .
88(5) . . .
87(5) . . .
84(5) . . .
77(5) . . .
98(5) . . .
100(6) . . .
82(5) . . .
85(5) . . .
100(5) . . .
104(6) . . .
89(5) . . .
96(5) . . .
100(5) . . .
100(6) . . .
88(5) . . .
88(5) . . .
81(5) . . .
90(5) . . .
96(5) . . .
104(6) . . .
90(5) . . .
95(5) . . .
97(5) . . .
101(5) . . .
95(5) . . .
88(5) . . .
80(5) . . .
101(5) . . .
92(5) . . .
92(5) . . .
83(5) . . .
94(5) . . .
93(5) . . .
95(5) . . .
102(6) . . .
97(5) . . .
110(5) . . .
84(5) . . .
83(5) . . .
85(5) . . .
96(5) . . .
91(5) . . .
99(5) . . .
86(5) . . .
84(5) . . .
93(5) . . .
84(5) . . .
103(5) . . .
104(5) . . .
105(6) . . .
90(5) . . .
91(5) . . .
109(6) . . .
98(5) . . .
105(6) . . .
94(5) . . .
91(5) . . .
102(5) . . .
96(5) . . .
100(6) . . .
95(5) . . .
91(5) . . .
90(5) . . .
89(5) . . .
86(5) . . .
98(5) . . .
96(5) . . .
97(5) . . .
89(5) . . .
101(5) . . .
89(5) . . .
104(5) . . .
95(6) . . .
86(5) . . .
95(5) . . .
93(5) . . .
97(5) . . .
86(5) . . .
91(5) . . .
94(5) . . .
93(5) . . .
93(5) . . .
93(5) . . .
86(5) . . .
93(5) . . .
84(5) . . .
96(5) . . .
96(5) . . .
94(5) . . .
90(5) . . .
92(5) . . .
92(5) . . .
96(5) . . .
93(5) . . .
87(5) . . .
98(5) . . .
108(6) . . .
95(5) . . .
107(6) . . .
93(5) . . .
95(5) . . .
91(5) . . .
86(5) . . .
88(5) . . .
98(5) . . .
85(5) . . .
95(5) . . .
86(5) . . .
87(5) . . .
96(5) . . .
99(5) . . .
97(5) . . .
87(5) . . .
85(5) . . .
89(5) . . .
85(5) . . .
95(5) . . .
118(6) . . .
108(6) . . .
84(5) . . .
86(5) . . .
100(6) . . .
93(5) . . .
87(5) . . .
85(5) . . .
87(5) . . .
88(5) . . .
92(5) . . .
83(5) . . .
95(5) . . .
88(5) . . .
91(5) . . .
93(5) . . .
100(6) . . .
100(5) . . .
96(5) . . .
91(5) . . .
96(5) . . .
92(5) . . .
82(5) . . .
102(6) . . .
97(5) . . .
91(5) . . .
99(5) . . .
79(5) . . .
98(5) . . .
92(5) . . .
100(5) . . .
100(5) . . .
86(5) . . .
82(5) . . .
86(5) . . .
92(5) . . .
91(5) . . .
90(5) . . .
87(5) . . .
99(6) . . .
89(5) . . .
94(5) . . .
85(5) . . .
102(5) . . .
91(5) . . .
90(5) . . .
102(5) . . .
102(5) . . .
90(5) . . .
94(5) . . .
95(5) . . .
88(5) . . .
95(5) . . .
94(5) . . .
90(5) . . .
96(5) . . .
83(5) . . .
107(5) . . .
92(5) . . .
98(5) . . .
99(6) . . .
84(5) . . .
96(5) . . .
87(5) . . .
102(6) . . .
96(5) . . .
94(5) . . .
85(5) . . .
109(6) . . .
97(5) . . .
94(5) . . .
86(5) . . .
95(5) . . .
97(5) . . .
106(6) . . .
102(5) . . .
95(5) . . .
88(5) . . .
79(5) . . .
94(5) . . .
94(5) . . .
86(5) . . .
95(5) . . .
97(5) . . .
88(5) . . .
94(5) . . .
88(5) . . .
82(5) . . .
88(5) . . .
88(5) . . .
85(5) . . .
89(5) . . .
98(5) . . .
87(5) . . .
99(6) . . .
91(5) . . .
102(5) . . .
96(5) . . .
84(5) . . .
92(5) . . .
81(5) . . .
89(5) . . .
87(5) . . .
86(5) . . .
92(5) . . .
86(5) . . .
103(5) . . .
98(5) . . .
88(5) . . .
88(5) . . .
91(5) . . .
96(5) . . .
83(5) . . .
82(5) . . .
86(5) . . .
110(5) . . .
84(5) . . .
87(5) . . .
91(5) . . .
87(5) . . .
92(5) . . .
98(5) . . .
102(6) . . .
81(5) . . .
88(5) . . .
93(5) . . .
91(5) . . .
88(5) . . .
89(5) . . .
86(5) . . .
89(5) . . .
97(5) . . .
107(6) . . .
81(5) . . .
89(5) . . .
98(5) . . .
89(5) . . .
85(5) . . .
86(5) . . .
92(5) . . .
93(5) . . .
85(5) . . .
89(5) . . .
83(5) . . .
93(5) . . .
97(5) . . .
99(5) . . .
97(6) . . .
92(5) . . .
95(5) . . .
98(5) . . .
86(5) . . .
101(6) . . .
94(5) . . .
93(5) . . .
97(5) . . .
86(5) . . .
83(5) . . .
74(5) . . .
92(5) . . .
77(5) . . .
89(5) . . .
93(5) . . .
87(5) . . .
87(5) . . .
93(5) . . .
89(5) . . .
96(6) . . .
81(5) . . .
90(5) . . .
87(5) . . .
93(5) . . .
79(5) . . .
96(5) . . .
109(5) . . .
94(5) . . .
101(6) . . .
85(5) . . .
100(5) . . .
96(5) . . .
94(5) . . .
101(5) . . .
83(5) . . .
95(5) . . .
107(5) . . .
92(5) . . .
87(5) . . .
110(6) . . .
92(5) . . .
91(5) . . .
85(5) . . .
91(5) . . .
89(5) . . .
92(5) . . .
83(5) . . .
89(5) . . .
90(5) . . .
98(5) . . .
89(5) . . .
95(5) . . .
96(5) . . .
97(5) . . .
98(5) . . .
77(5) . . .
87(5) . . .
93(5) . . .
87(5) . . .
87(5) . . .
88(5) . . .
75(5) . . .
83(5) . . .
81(5) . . .
96(5) . . .
92(5) . . .
85(5) . . .
84(5) . . .
87(5) . . .
91(5) . . .
79(5) . . .
93(5) . . .
100(5) . . .
80(5) . . .
78(5) . . .
100(5) . . .
88(5) . . .
83(5) . . .
87(5) . . .
96(5) . . .
86(5) . . .
93(5) . . .
86(5) . . .
88(5) . . .
88(5) . . .
79(5) . . .
81(5) . . .
88(5) . . .
105(6) . . .
92(5) . . .
99(5) . . .
93(5) . . .
75(5) . . .
82(5) . . .
105(5) . . .
109(5) . . .
89(5) . . .
99(6) . . .
84(5) . . .
90(5) . . .
86(5) . . .
87(5) . . .
96(6) . . .
81(5) . . .
105(5) . . .
85(5) . . .
94(5) . . .
96(5) . . .
100(5) . . .
92(5) . . .
98(5) . . .
92(5) . . .
88(5) . . .
92(5) . . .
84(5) . . .
83(5) . . .
85(5) . . .
82(5) . . .
85(5) . . .
87(5) . . .
82(5) . . .
99(6) . . .
96(5) . . .
90(5) . . .
89(5) . . .
81(5) . . .
82(5) . . .
84(5) . . .
90(5) . . .
87(5) . . .
83(5) . . .
85(5) . . .
81(5) . . .
83(5) . . .
99(5) . . .
89(5) . . .
86(5) . . .
85(5) . . .
94(5) . . .
80(5) . . .
79(5) . . .
94(5) . . .
86(5) . . .
94(5) . . .
91(5) . . .
77(5) . . .
90(5) . . .
98(5) . . .
99(5) . . .
79(5) . . .
92(5) . . .
96(5) . . .
107(6) . . .
80(5) . . .
101(5) . . .
86(5) . . .
88(5) . . .
85(5) . . .
81(5) . . .
77(5) . . .
81(5) . . .
88(5) . . .
84(5) . . .
86(5) . . .
92(5) . . .
99(5) . . .
93(5) . . .
93(5) . . .
102(5) . . .
87(5) . . .
84(5) . . .
78(5) . . .
79(5) . . .
98(5) . . .
82(5) . . .
90(5) . . .
94(5) . . .
95(5) . . .
89(5) . . .
85(5) . . .
86(5) . . .
90(5) . . .
85(5) . . .
73(4) . . .
79(5) . . .
88(5) . . .
84(5) . . .
89(5) . . .
105(5) . . .
90(5) . . .
93(5) . . .
92(5) . . .
95(5) . . .
103(5) . . .
89(5) . . .
87(5) . . .
87(5) . . .
78(5) . . .
91(5) . . .
90(5) . . .
82(5) . . .
83(5) . . .
80(5) . . .
89(5) . . .
75(4) . . .
75(5) . . .
81(5) . . .
101(5) . . .
95(5) . . .
92(5) . . .
90(5) . . .
96(5) . . .
79(5) . . .
94(5) . . .
97(5) . . .
84(5) . . .
90(5) . . .
93(5) . . .
86(5) . . .
88(5) . . .
100(6) . . .
90(5) . . .
89(5) . . .
101(5) . . .
84(5) . . .
93(5) . . .
89(5) . . .
80(5) . . .
86(5) . . .
90(5) . . .
89(5) . . .
85(5) . . .
91(5) . . .
91(5) . . .
88(5) . . .
83(5) . . .
92(5) . . .
83(5) . . .
99(5) . . .
84(5) . . .
83(5) . . .
85(5) . . .
79(5) . . .
84(5) . . .
90(5) . . .
83(5) . . .
90(5) . . .
85(5) . . .
76(5) . . .
86(5) . . .
76(5) . . .
89(5) . . .
72(4) . . .
79(5) . . .
95(5) . . .
95(5) . . .
92(5) . . .
109(5) . . .
89(5) . . .
99(6) . . .
86(5) . . .
82(5) . . .
89(5) . . .
96(5) . . .
81(5) . . .
94(5) . . .
88(5) . . .
80(5) . . .
96(5) . . .
92(5) . . .
81(5) . . .
81(5) . . .
84(5) . . .
77(5) . . .
99(6) . . .
84(5) . . .
88(5) . . .
108(6) . . .
88(5) . . .
92(5) . . .
86(5) . . .
98(5) . . .
95(5) . . .
91(5) . . .
85(5) . . .
83(5) . . .
75(4) . . .
85(5) . . .
94(5) . . .
93(5) . . .
86(5) . . .
84(5) . . .
77(5) . . .
85(5) . . .
80(5) . . .
97(5) . . .
94(5) . . .
86(5) . . .
86(5) . . .
89(5) . . .
75(4) . . .
84(5) . . .
71(4) . . .
87(5) . . .
88(5) . . .
95(5) . . .
88(5) . . .
80(5) . . .
79(5) . . .
75(5) . . .
89(5) . . .
79(5) . . .
103(5) . . .
98(5) . . .
101(6) . . .
90(5) . . .
77(5) . . .
91(5) . . .
95(5) . . .
92(5) . . .
94(5) . . .
87(5) . . .
94(5) . . .
97(5) . . .
78(5) . . .
94(5) . . .
81(5) . . .
94(5) . . .
85(5) . . .
84(5) . . .
77(5) . . .
91(5) . . .
88(5) . . .
85(5) . . .
88(5) . . .
85(5) . . .
73(4) . . .
81(5) . . .
77(5) . . .
93(5) . . .
94(5) . . .
89(5) . . .
84(5) . . .
80(5) . . .
85(5) . . .
93(5) . . .
87(5) . . .
91(5) . . .
97(6) . . .
70(4) . . .
107(5) . . .
92(5) . . .
78(5) . . .
92(5) . . .
87(5) . . .
95(5) . . .
80(5) . . .
88(5) . . .
91(5) . . .
81(5) . . .
71(4) . . .
89(5) . . .
106(6) . . .
90(5) . . .
83(5) . . .
94(5) . . .
94(5) . . .
84(5) . . .
85(5) . . .
87(5) . . .
96(5) . . .
76(5) . . .
86(5) . . .
95(5) . . .
87(5) . . .
72(5) . . .
99(5) . . .
91(5) . . .
94(5) . . .
97(5) . . .
82(5) . . .
90(5) . . .
86(5) . . .
86(5) . . .
82(5) . . .
84(5) . . .
89(5) . . .
89(5) . . .
96(5) . . .
93(5) . . .
85(5) . . .
101(6) . . .
77(5) . . .
98(5) . . .
88(5) . . .
90(5) . . .
90(5) . . .
87(5) . . .
86(5) . . .
91(5) . . .
78(5) . . .
73(5) . . .
88(5) . . .
90(5) . . .
72(4) . . .
91(5) . . .
77(5) . . .
81(5) . . .
86(5) . . .
85(5) . . .
87(5) . . .
82(5) . . .
99(5) . . .
98(5) . . .
72(4) . . .
105(6) . . .
87(5) . . .
84(5) . . .
77(5) . . .
83(5) . . .
92(5) . . .
91(5) . . .
80(5) . . .
86(5) . . .
74(4) . . .
85(5) . . .
75(5) . . .
85(5) . . .
88(5) . . .
81(5) . . .
73(5) . . .
90(5) . . .
79(5) . . .
97(5) . . .
93(5) . . .
97(5) . . .
96(5) . . .
96(5) . . .
86(5) . . .
89(5) . . .
82(5) . . .
79(5) . . .
81(5) . . .
85(5) . . .
85(5) . . .
91(5) . . .
97(5) . . .
92(5) . . .
80(5) . . .
75(5) . . .
80(5) . . .
85(5) . . .
87(5) . . .
87(5) . . .
82(5) . . .
89(5) . . .
74(4) . . .
94(5) . . .
81(5) . . .
90(5) . . .
92(5) . . .
78(5) . . .
88(5) . . .
77(5) . . .
88(5) . . .
99(6) . . .
78(5) . . .
91(5) . . .
89(5) . . .
86(5) . . .
74(5) . . .
93(5) . . .
79(5) . . .
76(5) . . .
73(5) . . .
86(5) . . .
93(5) . . .
87(5) . . .
81(5) . . .
95(5) . . .
78(5) . . .
87(5) . . .
89(5) . . .
95(5) . . .
85(5) . . .
95(5) . . .
81(5) . . .
85(5) . . .
76(5) . . .
76(5) . . .
83(5) . . .
91(5) . . .
92(5) . . .
87(5) . . .
85(5) . . .
92(5) . . .
85(5) . . .
82(5) . . .
77(5) . . .
82(5) . . .
86(5) . . .
89(5) . . .
81(5) . . .
77(5) . . .
75(5) . . .
94(5) . . .
99(5) . . .
75(4) . . .
82(5) . . .
85(5) . . .
79(5) . . .
98(5) . . .
76(5) . . .
88(5) . . .
85(5) . . .
79(5) . . .
90(5) . . .
79(5) . . .
85(5) . . .
95(5) . . .
94(5) . . .
96(5) . . .
79(5) . . .
76(5) . . .
90(5) . . .
81(5) . . .
83(5) . . .
102(5) . . .
88(5) . . .
92(5) . . .
100(5) . . .
87(5) . . .
89(5) . . .
87(5) . . .
94(5) . . .
92(5) . . .
83(5) . . .
78(5) . . .
89(5) . . .
91(5) . . .
88(5) . . .
79(5) . . .
81(5) . . .
72(5) . . .
94(5) . . .
83(5) . . .
85(5) . . .
75(5) . . .
88(5) . . .
86(5) . . .
84(5) . . .
82(5) . . .
82(5) . . .
76(5) . . .
94(5) . . .
73(5) . . .
79(5) . . .
87(5) . . .
77(5) . . .
85(5) . . .
72(4) . . .
79(5) . . .
93(5) . . .
90(5) . . .
86(5) . . .
81(5) . . .
81(5) . . .
85(5) . . .
90(5) . . .
81(5) . . .
76(5) . . .
70(4) . . .
82(5) . . .
86(5) . . .
95(5) . . .
89(5) . . .
83(5) . . .
84(5) . . .
78(5) . . .
79(5) . . .
86(5) . . .
90(5) . . .
93(5) . . .
90(5) . . .
81(5) . . .
94(5) . . .
78(5) . . .
95(5) . . .
87(5) . . .
85(5) . . .
74(4) . . .
99(5) . . .
89(5) . . .
89(5) . . .
79(5) . . .
81(5) . . .
89(5) . . .
80(5) . . .
72(5) . . .
75(5) . . .
93(5) . . .
86(5) . . .
79(5) . . .
86(5) . . .
76(4) . . .
86(5) . . .
84(5) . . .
86(5) . . .
82(5) . . .
80(5) . . .
86(5) . . .
90(5) . . .
96(6) . . .
86(5) . . .
87(5) . . .
82(5) . . .
84(5) . . .
89(5) . . .
93(5) . . .
100(5) . . .
72(4) . . .
75(5) . . .
90(5) . . .
79(5) . . .
79(5) . . .
86(5) . . .
89(5) . . .
85(5) . . .
91(5) . . .
81(5) . . .
91(5) . . .
75(5) . . .
87(5) . . .
83(5) . . .
81(5) . . .
86(5) . . .
77(5) . . .
91(5) . . .
81(5) . . .
87(5) . . .
73(5) . . .
76(5) . . .
77(5) . . .
88(5) . . .
82(5) . . .
78(5) . . .
80(5) . . .
79(5) . . .
98(5) . . .
83(5) . . .
80(5) . . .
90(5) . . .
88(5) . . .
79(5) . . .
68(4) . . .
84(5) . . .
83(5) . . .
83(5) . . .
93(5) . . .
76(5) . . .
66(4) . . .
88(5) . . .
100(5) . . .
83(5) . . .
94(5) . . .
70(4) . . .
72(5) . . .
85(5) . . .
90(5) . . .
99(5) . . .
78(5) . . .
82(5) . . .
86(5) . . .
82(5) . . .
81(5) . . .
86(5) . . .
77(5) . . .
83(5) . . .
79(5) . . .
81(5) . . .
78(5) . . .
95(5) . . .
88(5) . . .
88(5) . . .
70(4) . . .
80(5) . . .
82(5) . . .
77(5) . . .
82(5) . . .
79(5) . . .
87(5) . . .
80(5) . . .
84(5) . . .
75(5) . . .
83(5) . . .
85(5) . . .
92(5) . . .
91(5) . . .
99(5) . . .
88(5) . . .
80(5) . . .
87(5) . . .
84(5) . . .
68(4) . . .
82(5) . . .
87(5) . . .
83(5) . . .
82(5) . . .
79(5) . . .
84(5) . . .
83(5) . . .
66(4) . . .
95(5) . . .
78(5) . . .
82(5) . . .
89(5) . . .
88(5) . . .
89(5) . . .
79(5) . . .
82(5) . . .
102(6) . . .
87(5) . . .
95(5) . . .
80(5) . . .
89(5) . . .
83(5) . . .
70(4) . . .
68(4) . . .
79(5) . . .
71(4) . . .
79(5) . . .
81(5) . . .
91(5) . . .
90(5) . . .
85(5) . . .
73(5) . . .
80(5) . . .
85(5) . . .
102(5) . . .
87(5) . . .
101(5) . . .
86(5) . . .
97(5) . . .
75(5) . . .
101(5) . . .
88(5) . . .
85(5) . . .
79(5) . . .
71(5) . . .
78(5) . . .
91(5) . . .
84(5) . . .
83(5) . . .
86(5) . . .
82(5) . . .
71(4) . . .
89(5) . . .
78(5) . . .
84(5) . . .
87(5) . . .
77(5) . . .
90(5) . . .
87(5) . . .
98(5) . . .
90(5) . . .
70(4) . . .
79(5) . . .
84(5) . . .
98(5) . . .
86(5) . . .
79(5) . . .
88(5) . . .
81(5) . . .
88(5) . . .
81(5) . . .
85(5) . . .
80(5) . . .
76(5) . . .
77(5) . . .
96(5) . . .
98(5) . . .
85(5) . . .
90(5) . . .
78(5) . . .
84(5) . . .
85(5) . . .
80(5) . . .
72(5) . . .
77(5) . . .
80(5) . . .
89(5) . . .
99(5) . . .
88(5) . . .
85(5) . . .
79(5) . . .
81(5) . . .
85(5) . . .
83(5) . . .
82(5) . . .
74(5) . . .
83(5) . . .
85(5) . . .
85(5) . . .
72(5) . . .
79(5) . . .
86(5) . . .
90(5) . . .
86(5) . . .
73(5) . . .
81(5) . . .
82(5) . . .
79(5) . . .
82(5) . . .
80(5) . . .
69(4) . . .
77(5) . . .
81(5) . . .
87(5) . . .
76(5) . . .
83(5) . . .
86(5) . . .
86(5) . . .
75(5) . . .
83(5) . . .
82(5) . . .
75(5) . . .
79(5) . . .
69(4) . . .
85(5) . . .
80(5) . . .
81(5) . . .
86(5) . . .
85(5) . . .
81(5) . . .
90(5) . . .
69(4) . . .
86(5) . . .
91(5) . . .
94(5) . . .
85(5) . . .
83(5) . . .
96(5) . . .
79(5) . . .
81(5) . . .
79(5) . . .
84(5) . . .
77(5) . . .
90(5) . . .
97(5) . . .
77(5) . . .
76(5) . . .
72(5) . . .
72(5) . . .
86(5) . . .
85(5) . . .
78(5) . . .
71(5) . . .
89(5) . . .
94(5) . . .
93(5) . . .
92(5) . . .
80(5) . . .
89(5) . . .
74(5) . . .
69(4) . . .
92(5) . . .
80(5) . . .
87(5) . . .
76(5) . . .
70(4) . . .
82(5) . . .
80(5) . . .
79(5) . . .
77(5) . . .
84(5) . . .
78(5) . . .
95(5) . . .
93(5) . . .
70(5) . . .
85(5) . . .
72(4) . . .
79(5) . . .
83(5) . . .
86(5) . . .
73(4) . . .
72(5) . . .
79(5) . . .
96(5) . . .
75(5) . . .
77(5) . . .
73(5) . . .
83(5) . . .
80(5) . . .
83(5) . . .
72(4) . . .
85(5) . . .
84(5) . . .
71(4) . . .
75(4) . . .
84(5) . . .
77(5) . . .
82(5) . . .
77(5) . . .
90(5) . . .
68(4) . . .
84(5) . . .
91(5) . . .
84(5) . . .
79(5) . . .
79(5) . . .
82(5) . . .
86(5) . . .
83(5) . . .
73(4) . . .
81(5) . . .
81(5) . . .
77(5) . . .
80(5) . . .
79(5) . . .
82(5) . . .
83(5) . . .
105(6) . . .
89(5) . . .
82(5) . . .
85(5) . . .
84(5) . . .
70(4) . . .
93(5) . . .
89(5) . . .
78(5) . . .
70(5) . . .
73(5) . . .
85(5) . . .
85(5) . . .
85(5) . . .
81(5) . . .
76(5) . . .
81(5) . . .
82(5) . . .
78(5) . . .
79(5) . . .
79(5) . . .
93(5) . . .
80(5) . . .
97(5) . . .
83(5) . . .
84(5) . . .
82(5) . . .
89(5) . . .
80(5) . . .
85(5) . . .
79(5) . . .
67(4) . . .
79(5) . . .
81(5) . . .
82(5) . . .
88(5) . . .
90(5) . . .
90(5) . . .
82(5) . . .
77(5) . . .
89(5) . . .
88(5) . . .
81(5) . . .
88(5) . . .
78(5) . . .
77(5) . . .
74(4) . . .
88(5) . . .
76(5) . . .
75(5) . . .
89(5) . . .
82(5) . . .
78(5) . . .
91(5) . . .
87(5) . . .
66(4) . . .
74(4) . . .
75(4) . . .
84(5) . . .
88(5) . . .
83(5) . . .
79(5) . . .
84(5) . . .
84(5) . . .
78(5) . . .
75(5) . . .
106(5) . . .
78(5) . . .
84(5) . . .
85(5) . . .
77(5) . . .
74(4) . . .
80(5) . . .
85(5) . . .
79(5) . . .
79(5) . . .
81(5) . . .
75(5) . . .
82(5) . . .
76(5) . . .
76(5) . . .
88(5) . . .
89(5) . . .
87(5) . . .
81(5) . . .
90(5) . . .
93(5) . . .
83(5) . . .
75(5) . . .
83(5) . . .
78(5) . . .
85(5) . . .
81(5) . . .
76(5) . . .
79(5) . . .
79(5) . . .
73(4) . . .
71(4) . . .
86(5) . . .
74(5) . . .
75(4) . . .
84(5) . . .
89(5) . . .
77(5) . . .
84(5) . . .
80(5) . . .
81(5) . . .
90(5) . . .
79(5) . . .
87(5) . . .
84(5) . . .
78(5) . . .
76(5) . . .
89(5) . . .
80(5) . . .
83(5) . . .
81(5) . . .
82(5) . . .
73(4) . . .
83(5) . . .
76(5) . . .
93(5) . . .
84(5) . . .
83(5) . . .
80(5) . . .
83(5) . . .
80(5) . . .
83(5) . . .
76(5) . . .
77(5) . . .
72(4) . . .
79(5) . . .
77(5) . . .
79(5) . . .
73(4) . . .
81(5) . . .
75(5) . . .
86(5) . . .
76(5) . . .
71(4) . . .
84(5) . . .
84(5) . . .
75(5) . . .
80(5) . . .
79(5) . . .
80(5) . . .
92(5) . . .
77(5) . . .
78(5) . . .
80(5) . . .
83(5) . . .
72(4) . . .
80(5) . . .
70(5) . . .
75(5) . . .
85(5) . . .
68(4) . . .
75(5) . . .
73(4) . . .
81(5) . . .
81(5) . . .
72(5) . . .
85(5) . . .
66(4) . . .
72(4) . . .
72(4) . . .
89(5) . . .
83(5) . . .
82(5) . . .
84(5) . . .
84(5) . . .
91(5) . . .
81(5) . . .
72(4) . . .
70(4) . . .
83(5) . . .
80(5) . . .
77(5) . . .
73(5) . . .
77(5) . . .
72(5) . . .
67(4) . . .
95(5) . . .
89(5) . . .
73(4) . . .
89(5) . . .
71(5) . . .
73(5) . . .
77(5) . . .
77(4) . . .
77(5) . . .
77(5) . . .
74(5) . . .
67(4) . . .
71(4) . . .
62(4) . . .
67(4) . . .
72(5) . . .
102(5) . . .
83(5) . . .
79(5) . . .
77(5) . . .
68(5) . . .
73(4) . . .
72(4) . . .
76(5) . . .
84(5) . . .
81(5) . . .
80(5) . . .
77(5) . . .
90(5) . . .
75(5) . . .
82(5) . . .
82(5) . . .
71(4) . . .
82(5) . . .
74(5) . . .
70(4) . . .
76(5) . . .
73(4) . . .
72(5) . . .
80(5) . . .
85(5) . . .
76(5) . . .
81(5) . . .
83(5) . . .
73(5) . . .
85(5) . . .
75(4) . . .
82(5) . . .
85(5) . . .
69(4) . . .
68(4) . . .
78(5) . . .
72(5) . . .
89(6) . . .
74(5) . . .
80(5) . . .
78(5) . . .
83(5) . . .
83(5) . . .
85(5) . . .
72(4) . . .
83(5) . . .
65(4) . . .
84(5) . . .
79(5) . . .
81(5) . . .
79(5) . . .
83(5) . . .
73(5) . . .
81(5) . . .
76(5) . . .
68(4) . . .
64(4) . . .
76(5) . . .
80(5) . . .
85(5) . . .
74(5) . . .
68(4) . . .
82(5) . . .
81(5) . . .
76(4) . . .
78(5) . . .
84(5) . . .
84(5) . . .
67(4) . . .
75(4) . . .
68(4) . . .
88(5) . . .
83(5) . . .
79(5) . . .
67(4) . . .
77(5) . . .
78(5) . . .
86(5) . . .
80(5) . . .
81(5) . . .
84(5) . . .
88(5) . . .
72(4) . . .
81(5) . . .
73(4) . . .
84(5) . . .
76(5) . . .
92(5) . . .
74(4) . . .
78(5) . . .
77(5) . . .
89(5) . . .
69(4) . . .
70(4) . . .
59(4) . . .
72(5) . . .
81(5) . . .
83(5) . . .
86(5) . . .
81(5) . . .
82(5) . . .
85(5) . . .
83(5) . . .
79(5) . . .
63(4) . . .
75(5) . . .
93(5) . . .
86(5) . . .
67(4) . . .
72(4) . . .
66(4) . . .
75(5) . . .
71(4) . . .
86(5) . . .
85(5) . . .
75(5) . . .
69(5) . . .
76(5) . . .
76(5) . . .
77(5) . . .
90(5) . . .
82(5) . . .
72(4) . . .
76(5) . . .
74(5) . . .
85(5) . . .
78(5) . . .
73(5) . . .
77(5) . . .
93(5) . . .
77(5) . . .
73(5) . . .
67(4) . . .
74(5) . . .
93(5) . . .
81(5) . . .
83(5) . . .
85(5) . . .
78(5) . . .
81(5) . . .
77(5) . . .
83(5) . . .
83(5) . . .
80(5) . . .
75(5) . . .
87(5) . . .
84(5) . . .
86(5) . . .
68(4) . . .
75(5) . . .
82(5) . . .
80(5) . . .
75(4) . . .
72(4) . . .
74(5) . . .
84(5) . . .
90(5) . . .
85(5) . . .
81(5) . . .
80(5) . . .
72(5) . . .
78(5) . . .
75(5) . . .
72(4) . . .
83(5) . . .
79(5) . . .
70(4) . . .
75(5) . . .
81(5) . . .
70(5) . . .
80(5) . . .
83(5) . . .
89(5) . . .
76(5) . . .
70(4) . . .
75(5) . . .
81(5) . . .
82(5) . . .
67(5) . . .
74(5) . . .
70(5) . . .
78(5) . . .
77(5) . . .
78(5) . . .
76(5) . . .
73(5) . . .
77(5) . . .
80(5) . . .
84(5) . . .
76(5) . . .
78(5) . . .
85(5) . . .
83(5) . . .
68(4) . . .
70(5) . . .
77(5) . . .
79(5) . . .
87(5) . . .
93(5) . . .
71(4) . . .
73(5) . . .
75(4) . . .
71(5) . . .
75(5) . . .
86(5) . . .
88(5) . . .
69(4) . . .
71(4) . . .
80(5) . . .
77(5) . . .
74(5) . . .
79(5) . . .
100(5) . . .
82(5) . . .
67(4) . . .
75(5) . . .
68(4) . . .
81(5) . . .
89(5) . . .
74(5) . . .
75(5) . . .
74(4) . . .
73(4) . . .
79(5) . . .
80(5) . . .
88(5) . . .
74(4) . . .
83(5) . . .
95(5) . . .
80(5) . . .
75(5) . . .
83(5) . . .
86(5) . . .
91(5) . . .
75(5) . . .
84(5) . . .
71(4) . . .
89(5) . . .
78(5) . . .
79(5) . . .
73(4) . . .
72(4) . . .
77(5) . . .
71(5) . . .
75(5) . . .
86(5) . . .
79(5) . . .
81(5) . . .
65(4) . . .
77(5) . . .
80(5) . . .
79(5) . . .
73(5) . . .
66(4) . . .
79(5) . . .
81(5) . . .
86(5) . . .
64(4) . . .
67(4) . . .
71(4) . . .
78(5) . . .
99(5) . . .
83(5) . . .
88(5) . . .
89(5) . . .
87(5) . . .
78(5) . . .
76(5) . . .
73(5) . . .
76(5) . . .
75(5) . . .
75(5) . . .
75(5) . . .
70(5) . . .
72(4) . . .
77(5) . . .
59(4) . . .
73(5) . . .
83(5) . . .
88(5) . . .
68(4) . . .
73(5) . . .
63(4) . . .
77(5) . . .
84(5) . . .
78(5) . . .
86(5) . . .
87(5) . . .
69(5) . . .
82(5) . . .
77(5) . . .
80(5) . . .
80(5) . . .
68(4) . . .
58(4) . . .
80(5) . . .
86(5) . . .
83(5) . . .
78(5) . . .
77(5) . . .
74(4) . . .
74(5) . . .
87(5) . . .
78(5) . . .
85(5) . . .
82(5) . . .
76(5) . . .
88(5) . . .
78(5) . . .
75(5) . . .
93(5) . . .
73(5) . . .
74(5) . . .
85(5) . . .
65(4) . . .
80(5) . . .
80(5) . . .
84(5) . . .
74(5) . . .
67(4) . . .
74(4) . . .
81(5) . . .
94(5) . . .
76(4) . . .
70(4) . . .
88(5) . . .
81(5) . . .
84(5) . . .
79(5) . . .
80(5) . . .
70(4) . . .
81(5) . . .
66(4) . . .
70(4) . . .
72(4) . . .
76(5) . . .
86(5) . . .
83(5) . . .
70(4) . . .
86(5) . . .
82(5) . . .
74(5) . . .
78(5) . . .
75(5) . . .
68(4) . . .
74(5) . . .
77(5) . . .
79(5) . . .
67(4) . . .
75(5) . . .
72(5) . . .
78(5) . . .
81(5) . . .
83(5) . . .
83(5) . . .
63(4) . . .
72(5) . . .
90(5) . . .
79(5) . . .
87(5) . . .
79(5) . . .
75(5) . . .
68(4) . . .
68(4) . . .
84(5) . . .
86(5) . . .
78(5) . . .
74(4) . . .
84(5) . . .
83(5) . . .
75(5) . . .
72(5) . . .
69(5) . . .
76(5) . . .
77(5) . . .
77(5) . . .
76(5) . . .
79(5) . . .
73(5) . . .
81(5) . . .
81(5) . . .
81(5) . . .
73(5) . . .
74(4) . . .
101(6) . . .
68(5) . . .
64(4) . . .
74(5) . . .
74(4) . . .
81(5) . . .
92(6) . . .
80(5) . . .
73(4) . . .
84(5) . . .
72(4) . . .
78(5) . . .
85(5) . . .
78(5) . . .
84(5) . . .
74(5) . . .
67(4) . . .
79(5) . . .
75(5) . . .
79(5) . . .
67(4) . . .
75(5) . . .
80(5) . . .
83(5) . . .
93(5) . . .
82(5) . . .
70(4) . . .
69(4) . . .
78(5) . . .
78(5) . . .
76(5) . . .
74(5) . . .
70(5) . . .
75(5) . . .
74(5) . . .
78(5) . . .
97(6) . . .
77(5) . . .
72(4) . . .
73(5) . . .
82(5) . . .
78(5) . . .
76(5) . . .
72(4) . . .
74(5) . . .
80(5) . . .
90(5) . . .
79(5) . . .
77(5) . . .
72(5) . . .
81(5) . . .
77(5) . . .
85(5) . . .
88(5) . . .
86(5) . . .
65(4) . . .
77(5) . . .
80(5) . . .
79(5) . . .
70(5) . . .
78(5) . . .
77(5) . . .
71(4) . . .
67(4) . . .
71(4) . . .
79(5) . . .
90(5) . . .
87(5) . . .
79(5) . . .
76(5) . . .
70(5) . . .
79(5) . . .
82(5) . . .
79(5) . . .
81(5) . . .
85(5) . . .
75(5) . . .
79(5) . . .
80(5) . . .
76(5) . . .
78(5) . . .
80(5) . . .
70(4) . . .
76(5) . . .
76(5) . . .
75(5) . . .
83(5) . . .
83(5) . . .
81(5) . . .
80(5) . . .
60(4) . . .
67(4) . . .
79(5) . . .
65(4) . . .
86(5) . . .
79(5) . . .
72(4) . . .
79(5) . . .
74(5) . . .
70(5) . . .
76(5) . . .
71(4) . . .
64(4) . . .
79(5) . . .
76(5) . . .
72(4) . . .
74(4) . . .
84(5) . . .
71(4) . . .
58(4) . . .
74(5) . . .
89(5) . . .
69(4) . . .
70(4) . . .
67(4) . . .
74(5) . . .
88(5) . . .
85(5) . . .
68(4) . . .
70(5) . . .
77(5) . . .
68(4) . . .
76(5) . . .
76(5) . . .
72(5) . . .
70(5) . . .
65(4) . . .
68(4) . . .
77(5) . . .
83(5) . . .
90(5) . . .
80(5) . . .
74(5) . . .
73(5) . . .
65(4) . . .
66(4) . . .
69(4) . . .
83(5) . . .
66(4) . . .
82(5) . . .
67(4) . . .
74(4) . . .
72(5) . . .
75(5) . . .
77(5) . . .
66(4) . . .
83(5) . . .
82(5) . . .
80(5) . . .
68(4) . . .
77(5) . . .
74(5) . . .
76(5) . . .
86(5) . . .
58(4) . . .
78(5) . . .
82(5) . . .
69(4) . . .
78(5) . . .
71(4) . . .
89(5) . . .
80(5) . . .
70(4) . . .
70(5) . . .
79(5) . . .
74(4) . . .
67(4) . . .
78(5) . . .
78(5) . . .
82(5) . . .
73(4) . . .
77(5) . . .
77(5) . . .
62(4) . . .
64(4) . . .
82(5) . . .
70(4) . . .
80(5) . . .
83(5) . . .
76(5) . . .
76(4) . . .
88(5) . . .
72(5) . . .
67(4) . . .
79(5) . . .
70(4) . . .
82(5) . . .
80(5) . . .
83(5) . . .
94(5) . . .
80(5) . . .
83(5) . . .
66(4) . . .
69(5) . . .
79(5) . . .
74(4) . . .
81(5) . . .
74(5) . . .
80(5) . . .
77(5) . . .
71(4) . . .
77(5) . . .
93(5) . . .
81(5) . . .
80(5) . . .
82(5) . . .
71(5) . . .
72(5) . . .
74(5) . . .
82(5) . . .
75(4) . . .
75(5) . . .
74(5) . . .
83(5) . . .
88(5) . . .
72(4) . . .
77(5) . . .
60(4) . . .
78(5) . . .
87(5) . . .
79(5) . . .
81(5) . . .
68(4) . . .
71(5) . . .
78(5) . . .
82(5) . . .
81(5) . . .
73(5) . . .
77(5) . . .
63(4) . . .
76(5) . . .
73(5) . . .
74(5) . . .
81(5) . . .
83(5) . . .
67(4) . . .
78(5) . . .
69(4) . . .
64(4) . . .
77(5) . . .
68(4) . . .
77(5) . . .
73(5) . . .
82(5) . . .
74(4) . . .
78(5) . . .
85(5) . . .
65(4) . . .
87(5) . . .
81(5) . . .
71(5) . . .
79(5) . . .
76(5) . . .
74(5) . . .
62(4) . . .
78(5) . . .
77(5) . . .
67(4) . . .
77(5) . . .
78(5) . . .
64(4) . . .
73(5) . . .
71(4) . . .
70(4) . . .
69(4) . . .
81(5) . . .
82(5) . . .
74(4) . . .
68(4) . . .
73(5) . . .
75(5) . . .
75(5) . . .
73(5) . . .
70(4) . . .
81(5) . . .
69(4) . . .
79(5) . . .
69(5) . . .
74(4) . . .
71(4) . . .
75(5) . . .
79(5) . . .
51(4) . . .
68(4) . . .
81(5) . . .
71(5) . . .
73(5) . . .
70(5) . . .
74(4) . . .
76(5) . . .
67(4) . . .
73(5) . . .
78(5) . . .
85(5) . . .
78(5) . . .
79(5) . . .
78(5) . . .
70(4) . . .
81(5) . . .
77(5) . . .
63(4) . . .
73(5) . . .
81(5) . . .
90(5) . . .
81(5) . . .
80(5) . . .
72(5) . . .
69(4) . . .
73(4) . . .
72(5) . . .
76(5) . . .
69(4) . . .
68(4) . . .
78(5) . . .
74(5) . . .
83(5) . . .
74(4) . . .
71(4) . . .
78(5) . . .
60(4) . . .
69(5) . . .
72(4) . . .
77(5) . . .
86(5) . . .
76(5) . . .
61(4) . . .
79(5) . . .
88(5) . . .
84(5) . . .
82(5) . . .
83(5) . . .
89(5) . . .
78(5) . . .
77(5) . . .
74(5) . . .
72(5) . . .
74(5) . . .
83(5) . . .
71(4) . . .
70(5) . . .
80(5) . . .
63(4) . . .
74(4) . . .
76(5) . . .
73(5) . . .
93(5) . . .
84(5) . . .
75(5) . . .
78(5) . . .
82(5) . . .
78(5) . . .
80(5) . . .
75(5) . . .
57(4) . . .
60(4) . . .
74(5) . . .
83(5) . . .
73(4) . . .
74(5) . . .
66(4) . . .
68(4) . . .
76(5) . . .
82(5) . . .
77(5) . . .
85(5) . . .
82(5) . . .
74(5) . . .
71(4) . . .
77(5) . . .
70(5) . . .
72(4) . . .
68(4) . . .
70(4) . . .
81(5) . . .
76(5) . . .
67(5) . . .
77(5) . . .
74(5) . . .
62(4) . . .
69(5) . . .
79(5) . . .
72(4) . . .
65(4) . . .
60(4) . . .
79(5) . . .
78(5) . . .
74(5) . . .
84(5) . . .
77(5) . . .
73(4) . . .
81(5) . . .
69(4) . . .
76(5) . . .
87(5) . . .
69(5) . . .
68(4) . . .
76(5) . . .
72(5) . . .
71(5) . . .
75(5) . . .
68(4) . . .
66(4) . . .
72(5) . . .
65(5) . . .
69(4) . . .
70(4) . . .
88(5) . . .
82(5) . . .
66(4) . . .
67(4) . . .
78(5) . . .
80(5) . . .
77(5) . . .
77(5) . . .
68(5) . . .
62(4) . . .
69(4) . . .
67(5) . . .
75(5) . . .
81(5) . . .
72(4) . . .
60(4) . . .
79(5) . . .
71(4) . . .
83(5) . . .
83(5) . . .
87(5) . . .
89(5) . . .
71(4) . . .
74(5) . . .
65(4) . . .
72(5) . . .
79(5) . . .
84(5) . . .
79(5) . . .
65(4) . . .
80(5) . . .
81(5) . . .
76(5) . . .
74(5) . . .
70(4) . . .
83(5) . . .
66(4) . . .
72(5) . . .
70(5) . . .
77(5) . . .
74(4) . . .
64(4) . . .
69(5) . . .
68(4) . . .
70(4) . . .
78(5) . . .
86(5) . . .
73(5) . . .
73(5) . . .
67(4) . . .
76(5) . . .
72(5) . . .
70(4) . . .
66(4) . . .
83(5) . . .
75(5) . . .
79(5) . . .
73(5) . . .
79(5) . . .
75(5) . . .
70(4) . . .
75(5) . . .
81(5) . . .
86(5) . . .
69(4) . . .
72(5) . . .
80(5) . . .
73(4) . . .
78(5) . . .
74(5) . . .
76(5) . . .
73(5) . . .
80(5) . . .
66(4) . . .
74(5) . . .
87(5) . . .
64(4) . . .
71(5) . . .
75(4) . . .
68(4) . . .
74(5) . . .
78(5) . . .
76(5) . . .
73(4) . . .
74(5) . . .
79(5) . . .
75(5) . . .
67(4) . . .
78(5) . . .
63(4) . . .
70(5) . . .
65(4) . . .
84(5) . . .
81(5) . . .
75(5) . . .
65(5) . . .
61(4) . . .
69(4) . . .
56(4) . . .
81(5) . . .
77(5) . . .
68(4) . . .
77(5) . . .
79(5) . . .
66(4) . . .
75(5) . . .
84(5) . . .
74(4) . . .
70(4) . . .
78(5) . . .
76(5) . . .
80(5) . . .
74(4) . . .
73(4) . . .
65(4) . . .
77(5) . . .
74(5) . . .
73(4) . . .
74(4) . . .
74(4) . . .
73(5) . . .
68(4) . . .
68(4) . . .
75(5) . . .
69(4) . . .
76(5) . . .
66(4) . . .
61(4) . . .
65(4) . . .
72(5) . . .
78(5) . . .
65(4) . . .
68(4) . . .
67(4) . . .
71(5) . . .
70(5) . . .
75(5) . . .
69(4) . . .
76(5) . . .
77(5) . . .
69(5) . . .
80(5) . . .
75(5) . . .
78(5) . . .
82(5) . . .
80(5) . . .
77(5) . . .
78(5) . . .
66(5) . . .
74(5) . . .
70(4) . . .
72(4) . . .
73(4) . . .
78(5) . . .
66(4) . . .
71(5) . . .
80(5) . . .
70(4) . . .
75(5) . . .
76(5) . . .
77(5) . . .
70(4) . . .
76(5) . . .
70(5) . . .
74(5) . . .
65(4) . . .
64(4) . . .
76(5) . . .
75(5) . . .
77(5) . . .
60(4) . . .
68(4) . . .
64(4) . . .
64(4) . . .
83(5) . . .
80(5) . . .
67(4) . . .
79(5) . . .
77(5) . . .
71(5) . . .
75(5) . . .
88(5) . . .
84(5) . . .
74(5) . . .
64(4) . . .
74(5) . . .
66(4) . . .
78(5) . . .
72(5) . . .
76(5) . . .
78(5) . . .
77(5) . . .
89(5) . . .
65(4) . . .
84(5) . . .
75(5) . . .
71(4) . . .
67(4) . . .
61(4) . . .
79(5) . . .
74(4) . . .
80(5) . . .
78(5) . . .
73(5) . . .
78(5) . . .
87(5) . . .
79(5) . . .
80(5) . . .
81(5) . . .
54(4) . . .
58(4) . . .
69(4) . . .
79(5) . . .
69(4) . . .
74(5) . . .
61(4) . . .
68(5) . . .
68(4) . . .
72(5) . . .
66(4) . . .
66(4) . . .
80(5) . . .
80(5) . . .
81(5) . . .
79(5) . . .
64(4) . . .
59(4) . . .
76(5) . . .
69(4) . . .
71(5) . . .
72(4) . . .
81(5) . . .
77(5) . . .
68(4) . . .
65(4) . . .
63(4) . . .
68(4) . . .
57(4) . . .
62(4) . . .
67(4) . . .
75(4) . . .
60(4) . . .
69(4) . . .
75(5) . . .
64(4) . . .
63(4) . . .
74(5) . . .
71(5) . . .
75(5) . . .
83(5) . . .
75(5) . . .
63(4) . . .
70(5) . . .
72(5) . . .
74(4) . . .
62(4) . . .
66(4) . . .
71(5) . . .
80(5) . . .
71(4) . . .
75(5) . . .
79(5) . . .
75(5) . . .
79(5) . . .
87(5) . . .
68(4) . . .
66(4) . . .
69(4) . . .
84(5) . . .
72(5) . . .
68(4) . . .
63(4) . . .
77(5) . . .
73(5) . . .
80(5) . . .
64(4) . . .
69(4) . . .
76(5) . . .
70(4) . . .
76(5) . . .
66(4) . . .
65(4) . . .
66(4) . . .
78(5) . . .
61(4) . . .
71(4) . . .
66(4) . . .
68(4) . . .
87(5) . . .
73(4) . . .
73(5) . . .
74(5) . . .
74(5) . . .
66(4) . . .
69(4) . . .
83(5) . . .
72(4) . . .
73(5) . . .
58(4) . . .
79(5) . . .
65(4) . . .
67(4) . . .
72(5) . . .
72(5) . . .
69(4) . . .
76(5) . . .
67(4) . . .
71(4) . . .
69(4) . . .
70(4) . . .
76(5) . . .
71(5) . . .
83(5) . . .
78(5) . . .
70(4) . . .
63(4) . . .
56(4) . . .
68(4) . . .
65(4) . . .
54(4) . . .
66(4) . . .
69(5) . . .
78(5) . . .
75(5) . . .
77(5) . . .
73(5) . . .
75(5) . . .
80(5) . . .
68(4) . . .
67(4) . . .
65(4) . . .
66(4) . . .
71(5) . . .
72(4) . . .
75(5) . . .
72(5) . . .
64(4) . . .
77(5) . . .
77(5) . . .
65(4) . . .
66(5) . . .
67(4) . . .
72(4) . . .
71(4) . . .
69(4) . . .
73(5) . . .
84(5) . . .
73(4) . . .
78(5) . . .
64(4) . . .
69(5) . . .
69(4) . . .
75(4) . . .
72(4) . . .
62(4) . . .
60(4) . . .
71(5) . . .
72(4) . . .
58(4) . . .
78(5) . . .
76(5) . . .
66(4) . . .
77(5) . . .
72(4) . . .
76(5) . . .
64(4) . . .
69(4) . . .
69(4) . . .
83(5) . . .
75(5) . . .
85(5) . . .
70(4) . . .
59(4) . . .
66(4) . . .
73(5) . . .
69(5) . . .
73(5) . . .
85(5) . . .
87(5) . . .
85(5) . . .
68(5) . . .
77(5) . . .
79(5) . . .
76(5) . . .
66(4) . . .
72(5) . . .
83(5) . . .
80(5) . . .
72(5) . . .
89(5) . . .
64(4) . . .
62(4) . . .
77(5) . . .
68(4) . . .
65(4) . . .
77(5) . . .
66(4) . . .
67(4) . . .
57(4) . . .
70(5) . . .
76(5) . . .
65(4) . . .
76(5) . . .
68(4) . . .
74(5) . . .
74(5) . . .
86(5) . . .
67(4) . . .
63(4) . . .
72(5) . . .
77(5) . . .
67(4) . . .
81(5) . . .
74(5) . . .
68(5) . . .
77(5) . . .
69(4) . . .
70(4) . . .
72(4) . . .
72(5) . . .
69(4) . . .
69(4) . . .
71(4) . . .
68(4) . . .
74(5) . . .
88(5) . . .
77(5) . . .
75(5) . . .
72(4) . . .
66(4) . . .
66(4) . . .
67(4) . . .
73(5) . . .
75(5) . . .
73(5) . . .
73(5) . . .
60(4) . . .
70(4) . . .
70(5) . . .
74(5) . . .
61(4) . . .
55(4) . . .
76(5) . . .
68(4) . . .
75(5) . . .
69(4) . . .
68(4) . . .
75(5) . . .
63(4) . . .
72(5) . . .
69(4) . . .
75(4) . . .
64(4) . . .
68(5) . . .
60(4) . . .
61(4) . . .
67(4) . . .
55(4) . . .
65(4) . . .
68(4) . . .
73(4) . . .
78(5) . . .
75(5) . . .
70(5) . . .
62(4) . . .
69(4) . . .
65(4) . . .
74(5) . . .
76(5) . . .
79(5) . . .
68(4) . . .
67(4) . . .
61(4) . . .
68(5) . . .
73(5) . . .
73(4) . . .
75(5) . . .
65(4) . . .
60(4) . . .
70(4) . . .
68(4) . . .
64(4) . . .
67(4) . . .
64(4) . . .
69(4) . . .
63(4) . . .
64(4) . . .
55(4) . . .
79(5) . . .
66(4) . . .
62(4) . . .
71(5) . . .
75(5) . . .
77(5) . . .
79(5) . . .
77(5) . . .
64(4) . . .
59(4) . . .
48(4) . . .
70(5) . . .
66(4) . . .
74(5) . . .
73(5) . . .
73(5) . . .
76(5) . . .
74(4) . . .
72(5) . . .
73(5) . . .
77(5) . . .
62(4) . . .
68(4) . . .
72(5) . . .
63(4) . . .
72(4) . . .
70(4) . . .
73(5) . . .
71(5) . . .
61(4) . . .
70(4) . . .
66(4) . . .
69(4) . . .
69(5) . . .
78(5) . . .
74(5) . . .
72(4) . . .
69(4) . . .
67(4) . . .
73(5) . . .
68(5) . . .
66(4) . . .
80(5) . . .
73(4) . . .
76(5) . . .
81(5) . . .
76(5) . . .
73(5) . . .
85(5) . . .
80(5) . . .
72(4) . . .
65(4) . . .
65(4) . . .
64(4) . . .
67(4) . . .
73(5) . . .
67(4) . . .
72(5) . . .
70(5) . . .
71(5) . . .
75(5) . . .
71(4) . . .
68(4) . . .
65(4) . . .
68(4) . . .
76(5) . . .
64(4) . . .
61(4) . . .
72(5) . . .
73(5) . . .
67(4) . . .
76(5) . . .
77(5) . . .
56(4) . . .
59(4) . . .
76(5) . . .
73(4) . . .
63(4) . . .
65(5) . . .
61(4) . . .
73(4) . . .
65(4) . . .
74(5) . . .
72(5) . . .
69(4) . . .
76(5) . . .
81(5) . . .
69(4) . . .
69(5) . . .
72(5) . . .
68(4) . . .
67(4) . . .
63(4) . . .
70(5) . . .
75(5) . . .
79(5) . . .
71(4) . . .
77(5) . . .
68(4) . . .
70(4) . . .
67(4) . . .
67(5) . . .
63(4) . . .
74(5) . . .
62(4) . . .
73(4) . . .
69(5) . . .
68(5) . . .
66(4) . . .
73(5) . . .
72(4) . . .
71(4) . . .
73(5) . . .
71(4) . . .
72(4) . . .
77(5) . . .
64(4) . . .
65(4) . . .
75(5) . . .
76(5) . . .
64(4) . . .
69(4) . . .
73(5) . . .
66(5) . . .
64(4) . . .
73(4) . . .
81(5) . . .
78(5) . . .
69(4) . . .
73(4) . . .
70(4) . . .
61(4) . . .
72(5) . . .
56(4) . . .
66(4) . . .
67(4) . . .
81(5) . . .
78(5) . . .
60(4) . . .
63(4) . . .
62(4) . . .
61(4) . . .
69(5) . . .
73(5) . . .
70(4) . . .
72(4) . . .
78(5) . . .
64(4) . . .
77(5) . . .
79(5) . . .
71(5) . . .
76(5) . . .
62(4) . . .
53(4) . . .
57(4) . . .
74(5) . . .
65(4) . . .
82(5) . . .
74(5) . . .
61(4) . . .
73(5) . . .
64(4) . . .
72(5) . . .
65(4) . . .
71(4) . . .
74(5) . . .
76(5) . . .
64(4) . . .
68(4) . . .
74(4) . . .
68(4) . . .
64(4) . . .
71(5) . . .
62(4) . . .
56(4) . . .
64(4) . . .
68(5) . . .
74(5) . . .
83(5) . . .
77(5) . . .
57(4) . . .
67(5) . . .
62(4) . . .
63(4) . . .
71(4) . . .
72(5) . . .
55(4) . . .
53(4) . . .
77(5) . . .
72(5) . . .
76(5) . . .
72(5) . . .
58(4) . . .
71(4) . . .
66(4) . . .
68(4) . . .
72(4) . . .
80(5) . . .
58(4) . . .
66(4) . . .
62(4) . . .
61(4) . . .
60(4) . . .
65(4) . . .
72(5) . . .
67(4) . . .
63(4) . . .
67(4) . . .
59(4) . . .
60(4) . . .
56(4) . . .
65(4) . . .
69(4) . . .
67(4) . . .
67(4) . . .
79(5) . . .
62(4) . . .
56(4) . . .
64(4) . . .
68(4) . . .
70(5) . . .
62(4) . . .
65(4) . . .
79(5) . . .
80(5) . . .
84(5) . . .
79(5) . . .
65(4) . . .
70(4) . . .
77(5) . . .
69(5) . . .
64(4) . . .
59(4) . . .
65(4) . . .
59(4) . . .
68(5) . . .
67(4) . . .
76(5) . . .
55(4) . . .
71(5) . . .
79(5) . . .
70(5) . . .
66(4) . . .
68(4) . . .
81(5) . . .
81(5) . . .
74(5) . . .
63(4) . . .
61(4) . . .
70(4) . . .
68(4) . . .
73(5) . . .
65(4) . . .
73(5) . . .
81(5) . . .
60(4) . . .
82(5) . . .
63(4) . . .
67(5) . . .
67(5) . . .
61(4) . . .
63(4) . . .
65(4) . . .
68(4) . . .
74(5) . . .
71(5) . . .
71(4) . . .
71(4) . . .
67(4) . . .
70(5) . . .
71(5) . . .
69(4) . . .
68(4) . . .
74(5) . . .
67(4) . . .
76(5) . . .
70(4) . . .
74(5) . . .
66(4) . . .
58(4) . . .
59(4) . . .
60(4) . . .
64(4) . . .
64(4) . . .
63(4) . . .
67(4) . . .
71(4) . . .
72(4) . . .
58(4) . . .
63(4) . . .
66(4) . . .
67(4) . . .
67(4) . . .
64(4) . . .
63(4) . . .
65(4) . . .
76(5) . . .
63(4) . . .
71(5) . . .
78(5) . . .
68(4) . . .
65(4) . . .
61(4) . . .
57(4) . . .
73(5) . . .
67(4) . . .
63(4) . . .
70(4) . . .
76(5) . . .
67(4) . . .
72(4) . . .
76(4) . . .
67(4) . . .
64(4) . . .
55(4) . . .
78(5) . . .
74(4) . . .
66(4) . . .
56(4) . . .
65(4) . . .
66(4) . . .
56(4) . . .
72(5) . . .
53(4) . . .
61(4) . . .
61(4) . . .
70(4) . . .
70(4) . . .
63(4) . . .
75(5) . . .
85(5) . . .
74(5) . . .
62(4) . . .
68(5) . . .
65(4) . . .
61(4) . . .
64(4) . . .
64(4) . . .
63(4) . . .
78(5) . . .
73(4) . . .
63(4) . . .
68(4) . . .
62(4) . . .
58(4) . . .
64(4) . . .
68(4) . . .
68(4) . . .
71(5) . . .
69(4) . . .
61(4) . . .
74(5) . . .
77(5) . . .
62(4) . . .
63(4) . . .
54(4) . . .
70(5) . . .
60(4) . . .
64(4) . . .
63(4) . . .
58(4) . . .
67(5) . . .
68(5) . . .
75(5) . . .
80(5) . . .
76(5) . . .
71(5) . . .
67(5) . . .
53(4) . . .
53(4) . . .
65(4) . . .
65(4) . . .
72(5) . . .
60(4) . . .
71(4) . . .
71(5) . . .
66(4) . . .
73(5) . . .
69(4) . . .
84(5) . . .
58(4) . . .
66(4) . . .
73(5) . . .
70(5) . . .
68(4) . . .
74(4) . . .
60(4) . . .
64(4) . . .
66(4) . . .
66(4) . . .
54(4) . . .
64(4) . . .
74(5) . . .
80(5) . . .
62(4) . . .
62(4) . . .
56(4) . . .
64(4) . . .
57(4) . . .
63(4) . . .
75(5) . . .
69(4) . . .
70(4) . . .
75(5) . . .
64(4) . . .
61(4) . . .
74(5) . . .
64(4) . . .
65(4) . . .
66(4) . . .
64(4) . . .
60(4) . . .
85(5) . . .
70(4) . . .
67(4) . . .
76(5) . . .
66(5) . . .
73(5) . . .
74(4) . . .
64(4) . . .
67(4) . . .
57(4) . . .
66(4) . . .
74(5) . . .
65(4) . . .
72(5) . . .
67(5) . . .
69(5) . . .
64(4) . . .
57(4) . . .
68(5) . . .
64(4) . . .
62(4) . . .
58(4) . . .
72(4) . . .
74(5) . . .
59(4) . . .
69(4) . . .
76(5) . . .
73(4) . . .
67(4) . . .
49(4) . . .
59(4) . . .
59(4) . . .
63(4) . . .
59(4) . . .
68(5) . . .
62(4) . . .
69(4) . . .
61(4) . . .
73(5) . . .
85(5) . . .
68(4) . . .
65(4) . . .
70(5) . . .
77(5) . . .
55(4) . . .
59(4) . . .
58(4) . . .
68(4) . . .
76(5) . . .
67(4) . . .
65(4) . . .
70(4) . . .
65(4) . . .
53(4) . . .
63(4) . . .
60(4) . . .
64(4) . . .
72(4) . . .
74(5) . . .
60(4) . . .
59(4) . . .
65(4) . . .
62(4) . . .
71(5) . . .
64(4) . . .
62(4) . . .
57(4) . . .
60(4) . . .
70(5) . . .
70(4) . . .
72(4) . . .
68(4) . . .
70(5) . . .
67(5) . . .
68(5) . . .
68(4) . . .
79(5) . . .
77(5) . . .
64(4) . . .
71(5) . . .
80(5) . . .
69(4) . . .
62(4) . . .
61(4) . . .
62(4) . . .
58(4) . . .
58(4) . . .
58(4) . . .
55(4) . . .
63(4) . . .
68(4) . . .
65(4) . . .
65(5) . . .
65(4) . . .
58(4) . . .
68(4) . . .
66(4) . . .
54(4) . . .
56(4) . . .
61(4) . . .
58(4) . . .
68(4) . . .
70(5) . . .
65(4) . . .
75(5) . . .
64(4) . . .
71(5) . . .
65(4) . . .
75(5) . . .
66(4) . . .
63(4) . . .
67(4) . . .
76(5) . . .
56(4) . . .
66(4) . . .
61(4) . . .
62(4) . . .
80(5) . . .
62(4) . . .
66(4) . . .
70(4) . . .
68(5) . . .
56(4) . . .
62(4) . . .
68(4) . . .
69(4) . . .
72(5) . . .
63(4) . . .
62(4) . . .
71(4) . . .
62(4) . . .
70(5) . . .
73(5) . . .
62(4) . . .
65(4) . . .
77(5) . . .
64(4) . . .
75(5) . . .
66(4) . . .
65(4) . . .
57(4) . . .
62(4) . . .
74(5) . . .
60(4) . . .
62(4) . . .
60(4) . . .
67(5) . . .
66(4) . . .
62(4) . . .
71(4) . . .
59(4) . . .
68(4) . . .
70(5) . . .
64(4) . . .
65(4) . . .
64(4) . . .
68(5) . . .
67(4) . . .
67(4) . . .
68(4) . . .
66(4) . . .
71(5) . . .
63(4) . . .
68(4) . . .
74(4) . . .
67(4) . . .
75(5) . . .
66(4) . . .
60(4) . . .
60(4) . . .
61(4) . . .
72(5) . . .
61(4) . . .
72(4) . . .
60(4) . . .
70(5) . . .
65(4) . . .
57(4) . . .
72(4) . . .
65(4) . . .
72(5) . . .
52(4) . . .
58(4) . . .
55(4) . . .
59(4) . . .
60(4) . . .
79(5) . . .
68(4) . . .
59(4) . . .
51(4) . . .
60(4) . . .
66(4) . . .
63(4) . . .
68(4) . . .
55(4) . . .
77(5) . . .
81(5) . . .
70(4) . . .
58(4) . . .
69(5) . . .
75(5) . . .
62(4) . . .
61(4) . . .
65(4) . . .
70(5) . . .
58(4) . . .
60(4) . . .
54(4) . . .
76(4) . . .
77(5) . . .
61(4) . . .
66(4) . . .
68(4) . . .
59(4) . . .
63(4) . . .
68(5) . . .
64(4) . . .
74(5) . . .
78(5) . . .
69(4) . . .
71(5) . . .
70(5) . . .
53(4) . . .
61(4) . . .
63(4) . . .
66(5) . . .
72(5) . . .
69(4) . . .
52(4) . . .
69(5) . . .
67(5) . . .
80(5) . . .
53(4) . . .
72(5) . . .
73(5) . . .
61(4) . . .
67(4) . . .
70(4) . . .
71(5) . . .
67(4) . . .
72(5) . . .
70(4) . . .
70(4) . . .
72(4) . . .
63(4) . . .
71(5) . . .
56(4) . . .
59(4) . . .
64(4) . . .
77(5) . . .
74(5) . . .
69(5) . . .
67(4) . . .
61(4) . . .
69(5) . . .
77(5) . . .
53(4) . . .
53(4) . . .
68(5) . . .
71(5) . . .
72(5) . . .
60(4) . . .
77(5) . . .
61(4) . . .
54(4) . . .
70(4) . . .
63(4) . . .
64(4) . . .
55(4) . . .
61(4) . . .
60(4) . . .
61(4) . . .
64(4) . . .
69(4) . . .
72(5) . . .
60(4) . . .
62(4) . . .
67(4) . . .
75(5) . . .
57(4) . . .
70(4) . . .
77(5) . . .
63(4) . . .
62(4) . . .
60(4) . . .
55(4) . . .
64(4) . . .
78(5) . . .
70(4) . . .
74(5) . . .
61(4) . . .
57(4) . . .
63(4) . . .
57(4) . . .
58(4) . . .
64(4) . . .
70(4) . . .
66(4) . . .
68(4) . . .
63(4) . . .
61(4) . . .
64(4) . . .
61(4) . . .
60(5) . . .
62(5) . . .
58(4) . . .
69(4) . . .
57(4) . . .
67(4) . . .
69(4) . . .
62(4) . . .
68(4) . . .
69(4) . . .
67(4) . . .
62(4) . . .
59(4) . . .
56(4) . . .
74(5) . . .
69(5) . . .
63(4) . . .
54(4) . . .
65(4) . . .
58(4) . . .
69(5) . . .
63(4) . . .
67(4) . . .
61(4) . . .
78(5) . . .
74(5) . . .
68(5) . . .
73(4) . . .
69(4) . . .
64(4) . . .
54(4) . . .
67(4) . . .
62(4) . . .
77(5) . . .
67(4) . . .
63(4) . . .
69(4) . . .
72(4) . . .
62(4) . . .
70(4) . . .
78(5) . . .
73(5) . . .
70(4) . . .
65(4) . . .
67(5) . . .
57(4) . . .
68(4) . . .
57(4) . . .
68(5) . . .
72(5) . . .
76(5) . . .
70(4) . . .
68(4) . . .
55(4) . . .
54(4) . . .
68(4) . . .
62(4) . . .
62(4) . . .
71(4) . . .
70(5) . . .
66(4) . . .
70(4) . . .
64(4) . . .
64(5) . . .
52(4) . . .
72(5) . . .
59(4) . . .
69(4) . . .
61(4) . . .
62(4) . . .
51(4) . . .
64(4) . . .
63(4) . . .
59(4) . . .
59(4) . . .
67(4) . . .
71(4) . . .
67(4) . . .
71(5) . . .
70(4) . . .
69(4) . . .
55(4) . . .
61(4) . . .
63(4) . . .
65(4) . . .
73(5) . . .
70(4) . . .
79(5) . . .
71(4) . . .
75(5) . . .
66(4) . . .
69(4) . . .
83(5) . . .
60(4) . . .
64(4) . . .
53(4) . . .
60(4) . . .
66(4) . . .
73(5) . . .
73(5) . . .
62(4) . . .
67(4) . . .
63(4) . . .
62(4) . . .
64(4) . . .
58(4) . . .
64(4) . . .
61(4) . . .
62(4) . . .
60(4) . . .
65(4) . . .
58(4) . . .
59(4) . . .
64(4) . . .
66(4) . . .
73(4) . . .
58(4) . . .
71(4) . . .
73(5) . . .
62(4) . . .
65(4) . . .
66(4) . . .
68(5) . . .
60(4) . . .
66(4) . . .
66(4) . . .
49(4) . . .
68(5) . . .
61(4) . . .
67(4) . . .
70(4) . . .
63(4) . . .
62(5) . . .
67(5) . . .
57(4) . . .
67(4) . . .
67(4) . . .
69(4) . . .
64(4) . . .
69(4) . . .
63(4) . . .
65(4) . . .
68(5) . . .
66(5) . . .
57(4) . . .
61(4) . . .
58(4) . . .
58(4) . . .
62(4) . . .
56(4) . . .
58(4) . . .
60(4) . . .
62(4) . . .
60(4) . . .
66(4) . . .
70(4) . . .
60(4) . . .
56(4) . . .
56(4) . . .
60(4) . . .
67(4) . . .
57(4) . . .
60(4) . . .
63(4) . . .
62(4) . . .
55(4) . . .
70(5) . . .
67(5) . . .
74(5) . . .
73(4) . . .
64(4) . . .
65(4) . . .
66(5) . . .
56(4) . . .
67(4) . . .
59(4) . . .
62(4) . . .
62(4) . . .
59(4) . . .
66(4) . . .
65(4) . . .
59(4) . . .
57(4) . . .
68(5) . . .
58(4) . . .
59(4) . . .
56(4) . . .
58(4) . . .
64(4) . . .
59(4) . . .
69(4) . . .
56(4) . . .
51(4) . . .
69(5) . . .
67(4) . . .
74(5) . . .
75(5) . . .
64(5) . . .
55(4) . . .
63(4) . . .
64(4) . . .
72(5) . . .
68(4) . . .
62(4) . . .
66(4) . . .
49(4) . . .
54(4) . . .
59(4) . . .
68(4) . . .
65(4) . . .
76(5) . . .
68(4) . . .
68(4) . . .
66(4) . . .
63(4) . . .
53(4) . . .
71(5) . . .
65(4) . . .
68(4) . . .
74(4) . . .
62(4) . . .
61(4) . . .
68(4) . . .
66(4) . . .
61(4) . . .
70(5) . . .
69(4) . . .
76(5) . . .
67(4) . . .
72(4) . . .
64(4) . . .
65(4) . . .
67(5) . . .
64(4) . . .
59(4) . . .
66(4) . . .
65(4) . . .
74(5) . . .
75(4) . . .
62(4) . . .
61(4) . . .
56(4) . . .
67(4) . . .
57(4) . . .
63(4) . . .
72(5) . . .
61(4) . . .
78(5) . . .
55(4) . . .
63(4) . . .
60(4) . . .
66(4) . . .
67(4) . . .
58(4) . . .
58(4) . . .
74(5) . . .
75(5) . . .
72(4) . . .
64(4) . . .
60(4) . . .
74(5) . . .
66(4) . . .
62(4) . . .
54(4) . . .
68(4) . . .
70(5) . . .
60(4) . . .
64(4) . . .
64(4) . . .
66(4) . . .
76(5) . . .
65(4) . . .
58(4) . . .
62(4) . . .
51(4) . . .
59(4) . . .
59(4) . . .
59(4) . . .
55(4) . . .
53(4) . . .
69(4) . . .
75(5) . . .
63(4) . . .
62(4) . . .
71(5) . . .
71(5) . . .
75(5) . . .
58(4) . . .
60(4) . . .
52(4) . . .
59(4) . . .
60(4) . . .
63(4) . . .
65(4) . . .
51(4) . . .
73(5) . . .
60(4) . . .
56(4) . . .
54(4) . . .
66(4) . . .
62(4) . . .
64(4) . . .
57(4) . . .
58(4) . . .
54(4) . . .
60(4) . . .
77(5) . . .
64(4) . . .
48(4) . . .
71(5) . . .
62(4) . . .
59(4) . . .
64(4) . . .
68(4) . . .
69(5) . . .
58(4) . . .
61(4) . . .
72(4) . . .
58(4) . . .
65(4) . . .
74(5) . . .
64(4) . . .
58(4) . . .
67(4) . . .
62(4) . . .
64(4) . . .
44.6(35) . . .
51(4) . . .
61(4) . . .
63(4) . . .
50(4) . . .
51(4) . . .
59(4) . . .
71(5) . . .
61(4) . . .
70(5) . . .
63(4) . . .
53(4) . . .
65(4) . . .
62(4) . . .
64(4) . . .
61(4) . . .
71(5) . . .
70(4) . . .
82(5) . . .
70(4) . . .
71(4) . . .
72(5) . . .
63(4) . . .
67(4) . . .
62(4) . . .
62(4) . . .
65(4) . . .
70(5) . . .
70(5) . . .
77(5) . . .
68(4) . . .
65(5) . . .
58(4) . . .
57(4) . . .
62(4) . . .
70(4) . . .
65(4) . . .
69(5) . . .
67(4) . . .
66(4) . . .
56(4) . . .
67(4) . . .
69(5) . . .
57(4) . . .
77(5) . . .
65(4) . . .
76(5) . . .
57(4) . . .
51(4) . . .
55(4) . . .
67(4) . . .
71(5) . . .
55(4) . . .
61(4) . . .
57(4) . . .
55(4) . . .
61(4) . . .
56(4) . . .
59(4) . . .
65(4) . . .
69(4) . . .
53(4) . . .
59(4) . . .
72(5) . . .
64(4) . . .
64(4) . . .
64(4) . . .
59(4) . . .
58(4) . . .
73(4) . . .
66(5) . . .
69(5) . . .
55(4) . . .
62(4) . . .
68(4) . . .
64(4) . . .
63(4) . . .
65(4) . . .
67(4) . . .
54(4) . . .
62(4) . . .
62(4) . . .
64(4) . . .
58(4) . . .
55(4) . . .
63(4) . . .
64(5) . . .
66(4) . . .
72(4) . . .
70(4) . . .
63(4) . . .
61(4) . . .
64(4) . . .
60(4) . . .
53(4) . . .
54(4) . . .
65(5) . . .
64(4) . . .
59(4) . . .
66(4) . . .
56(4) . . .
56(4) . . .
59(4) . . .
61(4) . . .
64(4) . . .
73(4) . . .
60(4) . . .
60(4) . . .
50(4) . . .
62(4) . . .
78(5) . . .
67(4) . . .
65(4) . . .
59(4) . . .
61(4) . . .
57(4) . . .
66(5) . . .
63(4) . . .
53(4) . . .
69(4) . . .
60(4) . . .
64(4) . . .
63(4) . . .
76(5) . . .
58(4) . . .
59(4) . . .
62(4) . . .
61(4) . . .
61(4) . . .
58(4) . . .
50(4) . . .
58(4) . . .
68(4) . . .
61(4) . . .
60(4) . . .
53(4) . . .
56(4) . . .
55(4) . . .
60(4) . . .
69(5) . . .
72(5) . . .
62(4) . . .
58(4) . . .
67(4) . . .
59(4) . . .
64(4) . . .
62(4) . . .
62(4) . . .
63(4) . . .
54(4) . . .
69(5) . . .
67(4) . . .
51(4) . . .
56(4) . . .
56(4) . . .
55(4) . . .
60(4) . . .
51(4) . . .
55(4) . . .
63(4) . . .
63(4) . . .
56(4) . . .
68(4) . . .
60(4) . . .
68(4) . . .
64(4) . . .
64(4) . . .
58(4) . . .
62(4) . . .
55(4) . . .
56(4) . . .
65(5) . . .
72(4) . . .
55(4) . . .
58(4) . . .
55(4) . . .
66(4) . . .
59(4) . . .
73(5) . . .
69(5) . . .
68(4) . . .
61(4) . . .
67(4) . . .
63(4) . . .
81(5) . . .
57(4) . . .
64(4) . . .
73(4) . . .
65(4) . . .
71(5) . . .
63(4) . . .
59(4) . . .
56(4) . . .
51(4) . . .
58(4) . . .
50(4) . . .
64(4) . . .
50(4) . . .
64(4) . . .
65(4) . . .
54(4) . . .
67(4) . . .
64(4) . . .
63(4) . . .
55(4) . . .
52(4) . . .
65(4) . . .
60(4) . . .
73(5) . . .
69(5) . . .
51(4) . . .
65(4) . . .
70(5) . . .
67(5) . . .
55(4) . . .
55(4) . . .
77(5) . . .
74(5) . . .
67(4) . . .
59(4) . . .
55(4) . . .
63(4) . . .
49(4) . . .
66(5) . . .
66(4) . . .
64(4) . . .
61(4) . . .
66(5) . . .
58(4) . . .
71(4) . . .
65(4) . . .
59(4) . . .
67(4) . . .
63(4) . . .
52(4) . . .
60(4) . . .
68(4) . . .
57(4) . . .
56(4) . . .
63(4) . . .
78(5) . . .
66(4) . . .
72(5) . . .
72(5) . . .
63(4) . . .
53(4) . . .
47(4) . . .
51(4) . . .
63(4) . . .
63(4) . . .
60(4) . . .
56(4) . . .
61(4) . . .
72(5) . . .
60(4) . . .
64(4) . . .
60(4) . . .
53(4) . . .
54(4) . . .
61(4) . . .
57(4) . . .
61(4) . . .
61(4) . . .
70(5) . . .
55(4) . . .
69(4) . . .
65(4) . . .
60(4) . . .
63(4) . . .
70(4) . . .
62(4) . . .
72(5) . . .
63(4) . . .
67(4) . . .
59(4) . . .
69(4) . . .
51(4) . . .
56(4) . . .
67(4) . . .
60(4) . . .
60(4) . . .
54(4) . . .
60(5) . . .
56(4) . . .
50(4) . . .
68(4) . . .
49(4) . . .
63(5) . . .
49(4) . . .
57(4) . . .
71(4) . . .
58(4) . . .
66(5) . . .
57(4) . . .
57(4) . . .
62(4) . . .
57(4) . . .
61(4) . . .
51(4) . . .
78(5) . . .
57(4) . . .
54(4) . . .
65(5) . . .
68(4) . . .
60(4) . . .
67(4) . . .
67(5) . . .
59(4) . . .
55(4) . . .
56(4) . . .
57(4) . . .
60(4) . . .
62(4) . . .
63(4) . . .
59(4) . . .
67(4) . . .
58(4) . . .
60(4) . . .
71(5) . . .
56(4) . . .
67(4) . . .
71(5) . . .
63(4) . . .
53(4) . . .
64(4) . . .
65(4) . . .
60(4) . . .
63(4) . . .
62(4) . . .
70(4) . . .
60(4) . . .
57(4) . . .
63(4) . . .
65(4) . . .
63(4) . . .
67(5) . . .
56(4) . . .
59(4) . . .
62(4) . . .
62(4) . . .
68(4) . . .
76(5) . . .
46.7(34) . . .
62(4) . . .
53(4) . . .
49(4) . . .
68(5) . . .
60(4) . . .
55(4) . . .
70(4) . . .
72(4) . . .
65(4) . . .
63(4) . . .
65(4) . . .
67(4) . . .
59(4) . . .
62(4) . . .
63(4) . . .
71(4) . . .
72(4) . . .
67(4) . . .
57(4) . . .
60(4) . . .
64(4) . . .
59(4) . . .
67(4) . . .
52(4) . . .
57(4) . . .
66(4) . . .
64(4) . . .
59(4) . . .
58(4) . . .
54(4) . . .
61(4) . . .
72(5) . . .
57(4) . . .
65(5) . . .
61(4) . . .
57(4) . . .
63(4) . . .
66(5) . . .
63(4) . . .
60(4) . . .
69(4) . . .
67(4) . . .
70(5) . . .
55(4) . . .
53(4) . . .
63(4) . . .
59(4) . . .
71(5) . . .
61(4) . . .
68(4) . . .
68(4) . . .
63(4) . . .
73(5) . . .
56(4) . . .
53(4) . . .
60(4) . . .
55(4) . . .
65(4) . . .
67(5) . . .
54(4) . . .
45(4) . . .
54(4) . . .
73(5) . . .
67(4) . . .
69(4) . . .
61(4) . . .
51(4) . . .
55(4) . . .
58(4) . . .
58(4) . . .
62(4) . . .
78(5) . . .
58(4) . . .
69(5) . . .
64(4) . . .
60(4) . . .
65(4) . . .
65(4) . . .
72(4) . . .
65(4) . . .
64(4) . . .
63(4) . . .
63(4) . . .
61(4) . . .
64(4) . . .
59(4) . . .
69(5) . . .
58(4) . . .
70(5) . . .
67(4) . . .
67(5) . . .
69(5) . . .
70(4) . . .
72(4) . . .
58(4) . . .
69(4) . . .
69(5) . . .
71(4) . . .
66(4) . . .
60(4) . . .
55(4) . . .
65(5) . . .
67(4) . . .
61(4) . . .
64(4) . . .
54(4) . . .
56(4) . . .
62(4) . . .
50(4) . . .
69(4) . . .
60(4) . . .
64(4) . . .
69(4) . . .
72(4) . . .
65(4) . . .
62(4) . . .
55(4) . . .
60(4) . . .
60(4) . . .
57(4) . . .
61(4) . . .
68(5) . . .
70(5) . . .
63(4) . . .
68(4) . . .
64(4) . . .
52(4) . . .
59(4) . . .
71(4) . . .
70(5) . . .
56(4) . . .
64(4) . . .
56(4) . . .
58(4) . . .
59(4) . . .
74(5) . . .
65(4) . . .
49(4) . . .
64(4) . . .
66(4) . . .
75(5) . . .
65(4) . . .
61(4) . . .
53(4) . . .
68(5) . . .
68(4) . . .
74(5) . . .
58(4) . . .
57(4) . . .
72(5) . . .
50(4) . . .
63(4) . . .
60(4) . . .
57(4) . . .
58(4) . . .
61(4) . . .
74(5) . . .
65(4) . . .
62(4) . . .
68(4) . . .
68(5) . . .
62(4) . . .
67(4) . . .
64(4) . . .
67(5) . . .
66(5) . . .
60(4) . . .
55(4) . . .
65(4) . . .
58(4) . . .
60(4) . . .
48(4) . . .
74(4) . . .
59(4) . . .
57(4) . . .
58(4) . . .
61(4) . . .
51(4) . . .
54(4) . . .
59(4) . . .
55(4) . . .
59(4) . . .
60(4) . . .
65(5) . . .
61(4) . . .
59(4) . . .
53(4) . . .
57(4) . . .
55(4) . . .
57(4) . . .
58(4) . . .
58(4) . . .
59(4) . . .
71(5) . . .
60(4) . . .
71(5) . . .
60(4) . . .
58(4) . . .
58(4) . . .
57(4) . . .
65(5) . . .
62(4) . . .
67(4) . . .
66(4) . . .
60(4) . . .
60(4) . . .
61(4) . . .
60(4) . . .
60(4) . . .
58(4) . . .
55(4) . . .
64(4) . . .
56(4) . . .
62(4) . . .
63(4) . . .
54(4) . . .
66(4) . . .
63(4) . . .
72(5) . . .
57(4) . . .
60(4) . . .
60(4) . . .
48(4) . . .
74(5) . . .
61(4) . . .
52(4) . . .
62(4) . . .
64(4) . . .
58(4) . . .
48(4) . . .
63(4) . . .
61(4) . . .
65(4) . . .
62(4) . . .
63(4) . . .
54(4) . . .
63(4) . . .
60(4) . . .
60(4) . . .
64(4) . . .
63(4) . . .
57(4) . . .
62(4) . . .
54(4) . . .
60(4) . . .
58(4) . . .
69(4) . . .
64(4) . . .
68(5) . . .
54(4) . . .
65(4) . . .
73(4) . . .
57(4) . . .
62(4) . . .
63(4) . . .
65(4) . . .
53(4) . . .
59(4) . . .
65(5) . . .
55(4) . . .
70(4) . . .
60(4) . . .
70(4) . . .
69(4) . . .
59(4) . . .
63(4) . . .
57(4) . . .
60(4) . . .
69(4) . . .
65(4) . . .
53(4) . . .
55(4) . . .
63(4) . . .
68(5) . . .
52(4) . . .
57(4) . . .
59(4) . . .
54(4) . . .
59(4) . . .
60(4) . . .
64(4) . . .
68(4) . . .
58(4) . . .
64(4) . . .
51(4) . . .
67(4) . . .
63(4) . . .
56(4) . . .
57(4) . . .
60(4) . . .
70(4) . . .
65(4) . . .
57(4) . . .
50(4) . . .
64(4) . . .
57(4) . . .
60(4) . . .
60(4) . . .
62(4) . . .
69(4) . . .
68(4) . . .
73(5) . . .
67(5) . . .
59(4) . . .
57(4) . . .
66(4) . . .
58(4) . . .
57(4) . . .
62(4) . . .
53(4) . . .
68(4) . . .
62(4) . . .
57(4) . . .
61(4) . . .
65(4) . . .
61(4) . . .
62(4) . . .
69(5) . . .
57(4) . . .
62(4) . . .
62(4) . . .
57(4) . . .
63(4) . . .
73(5) . . .
56(4) . . .
62(4) . . .
59(4) . . .
57(4) . . .
53(4) . . .
50(4) . . .
62(4) . . .
57(4) . . .
56(4) . . .
64(4) . . .
62(4) . . .
64(4) . . .
56(4) . . .
67(4) . . .
62(4) . . .
57(4) . . .
59(4) . . .
62(5) . . .
54(4) . . .
69(4) . . .
60(4) . . .
55(4) . . .
52(4) . . .
53(4) . . .
67(4) . . .
65(4) . . .
62(4) . . .
62(4) . . .
59(4) . . .
55(4) . . .
63(4) . . .
67(4) . . .
61(4) . . .
56(4) . . .
56(4) . . .
56(4) . . .
52(4) . . .
62(4) . . .
62(4) . . .
55(4) . . .
58(4) . . .
50(4) . . .
60(4) . . .
60(4) . . .
71(4) . . .
66(4) . . .
65(4) . . .
74(5) . . .
58(4) . . .
60(4) . . .
61(4) . . .
69(5) . . .
62(4) . . .
60(4) . . .
63(4) . . .
55(4) . . .
54(4) . . .
61(4) . . .
53(4) . . .
61(4) . . .
55(4) . . .
64(5) . . .
53(4) . . .
47(4) . . .
60(4) . . .
68(5) . . .
65(5) . . .
57(4) . . .
71(4) . . .
63(4) . . .
57(4) . . .
63(5) . . .
52(4) . . .
59(4) . . .
54(4) . . .
68(4) . . .
62(5) . . .
47(4) . . .
64(4) . . .
54(4) . . .
53(4) . . .
65(5) . . .
63(4) . . .
60(4) . . .
56(4) . . .
53(4) . . .
51(4) . . .
52(4) . . .
61(4) . . .
64(4) . . .
57(4) . . .
56(4) . . .
57(4) . . .
65(4) . . .
63(4) . . .
58(4) . . .
52(4) . . .
56(4) . . .
61(4) . . .
72(4) . . .
66(4) . . .
67(4) . . .
63(4) . . .
61(4) . . .
62(4) . . .
51(4) . . .
55(4) . . .
51(4) . . .
61(4) . . .
67(4) . . .
61(4) . . .
61(4) . . .
61(4) . . .
55(4) . . .
56(4) . . .
59(4) . . .
61(4) . . .
56(4) . . .
57(4) . . .
60(4) . . .
68(5) . . .
63(4) . . .
58(4) . . .
67(4) . . .
50(4) . . .
70(5) . . .
50(4) . . .
55(4) . . .
58(4) . . .
59(4) . . .
70(5) . . .
50(4) . . .
47(4) . . .
56(4) . . .
56(4) . . .
60(4) . . .
59(4) . . .
64(4) . . .
64(4) . . .
66(5) . . .
53(4) . . .
59(4) . . .
58(4) . . .
69(5) . . .
61(4) . . .
63(4) . . .
61(4) . . .
66(4) . . .
60(4) . . .
61(4) . . .
68(4) . . .
60(4) . . .
57(4) . . .
58(4) . . .
62(4) . . .
58(4) . . .
84(5) . . .
54(4) . . .
73(5) . . .
63(4) . . .
57(4) . . .
74(4) . . .
62(4) . . .
56(4) . . .
53(4) . . .
65(4) . . .
62(4) . . .
70(4) . . .
68(4) . . .
60(4) . . .
60(4) . . .
55(4) . . .
74(4) . . .
72(5) . . .
58(4) . . .
64(4) . . .
66(4) . . .
64(4) . . .
59(4) . . .
63(4) . . .
69(4) . . .
58(4) . . .
64(4) . . .
65(4) . . .
53(4) . . .
58(4) . . .
54(4) . . .
50(4) . . .
54(4) . . .
66(5) . . .
63(4) . . .
60(4) . . .
58(4) . . .
59(4) . . .
59(4) . . .
64(4) . . .
56(4) . . .
60(4) . . .
56(4) . . .
59(4) . . .
60(4) . . .
60(4) . . .
58(4) . . .
58(4) . . .
57(4) . . .
62(4) . . .
55(4) . . .
53(4) . . .
61(4) . . .
56(4) . . .
51(4) . . .
61(4) . . .
66(5) . . .
60(4) . . .
62(4) . . .
46(4) . . .
58(4) . . .
54(4) . . .
57(4) . . .
56(4) . . .
60(4) . . .
60(4) . . .
52(4) . . .
62(5) . . .
61(4) . . .
52(4) . . .
58(4) . . .
53(4) . . .
54(4) . . .
54(4) . . .
61(4) . . .
55(4) . . .
61(4) . . .
65(5) . . .
53(4) . . .
64(4) . . .
59(4) . . .
55(4) . . .
67(5) . . .
47(4) . . .
58(4) . . .
61(4) . . .
55(4) . . .
61(4) . . .
57(4) . . .
54(4) . . .
59(4) . . .
62(4) . . .
58(4) . . .
54(4) . . .
62(4) . . .
57(4) . . .
68(4) . . .
57(4) . . .
63(4) . . .
55(4) . . .
59(4) . . .
58(4) . . .
56(4) . . .
71(5) . . .
63(4) . . .
48(4) . . .
52(4) . . .
56(4) . . .
52(4) . . .
53(4) . . .
56(4) . . .
62(4) . . .
55(4) . . .
51(4) . . .
60(4) . . .
57(4) . . .
56(4) . . .
59(4) . . .
59(4) . . .
62(4) . . .
67(4) . . .
56(4) . . .
62(4) . . .
60(4) . . .
54(4) . . .
54(4) . . .
61(4) . . .
72(5) . . .
63(4) . . .
56(4) . . .
54(4) . . .
54(4) . . .
50(4) . . .
58(4) . . .
72(5) . . .
62(4) . . .
57(4) . . .
59(4) . . .
59(4) . . .
52(4) . . .
50(4) . . .
53(4) . . .
59(4) . . .
71(4) . . .
56(4) . . .
46(4) . . .
57(4) . . .
54(4) . . .
63(4) . . .
63(4) . . .
55(4) . . .
59(4) . . .
60(4) . . .
65(4) . . .
63(4) . . .
67(5) . . .
55(4) . . .
63(4) . . .
63(4) . . .
68(5) . . .
53(4) . . .
66(5) . . .
60(4) . . .
57(4) . . .
67(4) . . .
67(5) . . .
51(4) . . .
60(4) . . .
64(4) . . .
57(4) . . .
51(4) . . .
64(4) . . .
57(4) . . .
62(4) . . .
61(4) . . .
62(4) . . .
68(4) . . .
66(4) . . .
46(4) . . .
57(4) . . .
47(4) . . .
52(4) . . .
60(4) . . .
60(4) . . .
56(4) . . .
60(4) . . .
55(4) . . .
56(4) . . .
60(4) . . .
57(4) . . .
51(4) . . .
54(4) . . .
53(4) . . .
51(4) . . .
42(4) . . .
58(4) . . .
57(4) . . .
59(4) . . .
63(4) . . .
67(4) . . .
62(4) . . .
67(4) . . .
67(4) . . .
67(4) . . .
56(4) . . .
47(4) . . .
51(4) . . .
64(4) . . .
64(4) . . .
61(4) . . .
53(4) . . .
51(4) . . .
58(4) . . .
70(4) . . .
60(4) . . .
63(4) . . .
58(4) . . .
67(4) . . .
52(4) . . .
56(4) . . .
49(4) . . .
67(4) . . .
54(4) . . .
57(4) . . .
63(4) . . .
60(4) . . .
58(4) . . .
68(4) . . .
60(4) . . .
56(4) . . .
53(4) . . .
60(4) . . .
60(4) . . .
47(4) . . .
51(4) . . .
56(4) . . .
66(4) . . .
63(4) . . .
67(5) . . .
61(4) . . .
57(4) . . .
55(4) . . .
51(4) . . .
48(4) . . .
55(4) . . .
58(4) . . .
53(4) . . .
48(4) . . .
57(4) . . .
65(4) . . .
65(4) . . .
45(4) . . .
70(4) . . .
50(4) . . .
53(4) . . .
64(4) . . .
66(4) . . .
56(4) . . .
53(4) . . .
56(4) . . .
63(4) . . .
57(4) . . .
66(4) . . .
60(4) . . .
64(4) . . .
57(4) . . .
60(4) . . .
50(4) . . .
63(5) . . .
52(4) . . .
68(4) . . .
55(4) . . .
64(5) . . .
55(4) . . .
58(4) . . .
59(4) . . .
51(4) . . .
49(4) . . .
66(4) . . .
59(4) . . .
58(4) . . .
54(4) . . .
60(4) . . .
58(4) . . .
57(4) . . .
43.6(34) . . .
58(4) . . .
54(4) . . .
46(4) . . .
58(4) . . .
62(4) . . .
57(4) . . .
59(4) . . .
63(4) . . .
59(4) . . .
51(4) . . .
54(4) . . .
57(4) . . .
54(4) . . .
55(4) . . .
63(4) . . .
62(4) . . .
70(5) . . .
57(4) . . .
64(4) . . .
64(4) . . .
63(4) . . .
67(5) . . .
52(4) . . .
54(4) . . .
55(4) . . .
55(4) . . .
61(4) . . .
68(4) . . .
60(4) . . .
60(4) . . .
62(4) . . .
68(5) . . .
61(4) . . .
58(4) . . .
59(4) . . .
57(4) . . .
68(5) . . .
58(4) . . .
55(4) . . .
59(4) . . .
58(4) . . .
62(4) . . .
69(4) . . .
60(4) . . .
46(4) . . .
71(5) . . .
59(4) . . .
51(4) . . .
64(4) . . .
62(4) . . .
58(4) . . .
52(4) . . .
54(4) . . .
58(4) . . .
61(4) . . .
49(4) . . .
56(4) . . .
54(4) . . .
56(4) . . .
71(5) . . .
53(4) . . .
51(4) . . .
55(4) . . .
61(4) . . .
61(4) . . .
65(4) . . .
65(4) . . .
50(4) . . .
58(4) . . .
68(5) . . .
55(4) . . .
56(4) . . .
49(4) . . .
60(4) . . .
61(4) . . .
56(4) . . .
65(4) . . .
60(4) . . .
54(4) . . .
58(4) . . .
64(5) . . .
60(4) . . .
62(4) . . .
62(4) . . .
46(4) . . .
58(4) . . .
58(4) . . .
63(4) . . .
61(4) . . .
60(4) . . .
56(4) . . .
64(4) . . .
61(4) . . .
55(4) . . .
61(4) . . .
58(4) . . .
69(4) . . .
64(4) . . .
53(4) . . .
51(4) . . .
64(4) . . .
66(5) . . .
48(4) . . .
50(4) . . .
57(4) . . .
55(4) . . .
64(4) . . .
49(4) . . .
59(4) . . .
64(4) . . .
54(4) . . .
54(4) . . .
67(4) . . .
61(4) . . .
61(4) . . .
61(4) . . .
60(4) . . .
49(4) . . .
58(4) . . .
73(5) . . .
63(4) . . .
62(4) . . .
58(4) . . .
54(4) . . .
60(4) . . .
71(5) . . .
50(4) . . .
49(4) . . .
53(4) . . .
64(4) . . .
68(5) . . .
56(4) . . .
62(4) . . .
55(4) . . .
56(4) . . .
74(5) . . .
52(4) . . .
55(4) . . .
53(4) . . .
61(5) . . .
63(4) . . .
57(4) . . .
55(4) . . .
63(4) . . .
64(5) . . .
57(4) . . .
52(4) . . .
55(4) . . .
64(4) . . .
57(4) . . .
43.0(34) . . .
54(4) . . .
50(4) . . .
59(4) . . .
55(4) . . .
55(4) . . .
59(4) . . .
61(4) . . .
56(4) . . .
61(4) . . .
60(4) . . .
60(4) . . .
49(4) . . .
57(4) . . .
60(4) . . .
74(5) . . .
63(4) . . .
69(5) . . .
60(4) . . .
60(4) . . .
58(4) . . .
67(4) . . .
65(4) . . .
57(4) . . .
51(4) . . .
51(4) . . .
51(4) . . .
58(4) . . .
58(4) . . .
57(4) . . .
60(4) . . .
62(4) . . .
59(4) . . .
54(4) . . .
46(4) . . .
55(4) . . .
62(4) . . .
60(4) . . .
71(5) . . .
60(4) . . .
60(4) . . .
54(4) . . .
55(4) . . .
58(4) . . .
51(4) . . .
60(4) . . .
54(4) . . .
47(4) . . .
57(4) . . .
54(4) . . .
55(4) . . .
48(4) . . .
61(4) . . .
65(4) . . .
55(4) . . .
54(4) . . .
57(4) . . .
54(4) . . .
53(4) . . .
60(4) . . .
50(4) . . .
48(4) . . .
43.0(33) . . .
54(4) . . .
56(4) . . .
65(4) . . .
55(4) . . .
54(4) . . .
61(4) . . .
51(4) . . .
49(4) . . .
58(4) . . .
58(4) . . .
51(4) . . .
53(4) . . .
65(4) . . .
64(4) . . .
48(4) . . .
60(4) . . .
68(4) . . .
71(4) . . .
63(4) . . .
72(5) . . .
53(4) . . .
64(4) . . .
58(4) . . .
56(4) . . .
57(4) . . .
62(4) . . .
67(4) . . .
55(4) . . .
59(4) . . .
52(4) . . .
59(4) . . .
65(4) . . .
59(4) . . .
54(4) . . .
56(4) . . .
57(4) . . .
49(4) . . .
59(4) . . .
53(4) . . .
60(4) . . .
53(4) . . .
58(4) . . .
60(4) . . .
59(4) . . .
59(4) . . .
55(4) . . .
61(4) . . .
71(5) . . .
60(4) . . .
61(4) . . .
59(4) . . .
54(4) . . .
62(5) . . .
46(4) . . .
53(4) . . .
58(4) . . .
52(4) . . .
61(5) . . .
52(4) . . .
56(4) . . .
61(4) . . .
66(4) . . .
59(4) . . .
54(4) . . .
63(4) . . .
65(4) . . .
63(4) . . .
51(4) . . .
56(4) . . .
63(4) . . .
51(4) . . .
54(4) . . .
58(4) . . .
59(4) . . .
69(5) . . .
63(4) . . .
59(4) . . .
51(4) . . .
58(4) . . .
61(4) . . .
59(4) . . .
63(4) . . .
52(4) . . .
57(4) . . .
67(4) . . .
56(4) . . .
54(4) . . .
54(4) . . .
57(4) . . .
59(4) . . .
59(4) . . .
56(4) . . .
53(4) . . .
62(4) . . .
51(4) . . .
65(4) . . .
62(4) . . .
55(4) . . .
58(4) . . .
56(4) . . .
60(4) . . .
77(5) . . .
52(4) . . .
55(4) . . .
62(4) . . .
57(4) . . .
65(4) . . .
48(4) . . .
57(4) . . .
61(4) . . .
53(4) . . .
52(4) . . .
51(4) . . .
52(4) . . .
68(4) . . .
62(4) . . .
62(4) . . .
62(4) . . .
47(4) . . .
49(4) . . .
70(4) . . .
62(4) . . .
64(5) . . .
55(4) . . .
60(4) . . .
61(4) . . .
56(4) . . .
44(4) . . .
55(4) . . .
55(4) . . .
56(4) . . .
59(4) . . .
55(4) . . .
50(4) . . .
60(4) . . .
55(4) . . .
50(4) . . .
61(4) . . .
58(4) . . .
58(4) . . .
63(4) . . .
53(4) . . .
67(4) . . .
60(4) . . .
52(4) . . .
53(4) . . .
55(4) . . .
59(4) . . .
63(4) . . .
59(4) . . .
49(4) . . .
53(4) . . .
53(4) . . .
52(4) . . .
58(4) . . .
59(4) . . .
54(4) . . .
46(4) . . .
56(4) . . .
61(4) . . .
56(4) . . .
54(4) . . .
64(4) . . .
64(4) . . .
53(4) . . .
64(4) . . .
66(5) . . .
47(4) . . .
55(4) . . .
60(4) . . .
55(4) . . .
49(4) . . .
55(4) . . .
52(4) . . .
59(4) . . .
56(4) . . .
61(4) . . .
61(4) . . .
54(4) . . .
60(4) . . .
57(4) . . .
53(4) . . .
58(4) . . .
67(4) . . .
54(4) . . .
60(4) . . .
58(4) . . .
61(4) . . .
55(4) . . .
59(4) . . .
59(4) . . .
60(4) . . .
51(4) . . .
59(4) . . .
63(4) . . .
51(4) . . .
55(4) . . .
49(4) . . .
59(4) . . .
57(4) . . .
57(4) . . .
57(4) . . .
57(4) . . .
67(4) . . .
55(4) . . .
53(4) . . .
53(4) . . .
55(4) . . .
56(4) . . .
59(4) . . .
56(4) . . .
57(4) . . .
59(4) . . .
64(4) . . .
53(4) . . .
49(4) . . .
54(4) . . .
69(4) . . .
60(4) . . .
61(4) . . .
49(4) . . .
58(4) . . .
55(4) . . .
52(4) . . .
48(4) . . .
58(4) . . .
67(4) . . .
64(4) . . .
60(4) . . .
55(4) . . .
54(4) . . .
53(4) . . .
66(4) . . .
50(4) . . .
58(4) . . .
55(4) . . .
57(4) . . .
63(4) . . .
58(4) . . .
50(4) . . .
52(4) . . .
55(4) . . .
47(4) . . .
59(4) . . .
53(4) . . .
58(4) . . .
54(4) . . .
55(4) . . .
67(4) . . .
67(4) . . .
57(4) . . .
62(4) . . .
62(4) . . .
49(4) . . .
54(4) . . .
58(4) . . .
59(4) . . .
53(4) . . .
58(4) . . .
65(4) . . .
53(4) . . .
53(4) . . .
65(4) . . .
61(4) . . .
58(4) . . .
64(4) . . .
61(4) . . .
50(4) . . .
62(4) . . .
64(5) . . .
57(4) . . .
67(4) . . .
66(4) . . .
52(4) . . .
54(4) . . .
61(4) . . .
60(4) . . .
60(4) . . .
59(4) . . .
56(4) . . .
48(4) . . .
56(4) . . .
74(5) . . .
64(4) . . .
62(4) . . .
57(4) . . .
53(4) . . .
55(4) . . .
48(4) . . .
60(4) . . .
53(4) . . .
62(4) . . .
47(4) . . .
59(4) . . .
59(4) . . .
51(4) . . .
61(4) . . .
52(4) . . .
52(4) . . .
51(4) . . .
47(4) . . .
57(4) . . .
62(4) . . .
59(4) . . .
63(4) . . .
59(4) . . .
64(4) . . .
58(4) . . .
60(4) . . .
62(4) . . .
51(4) . . .
56(4) . . .
59(4) . . .
57(4) . . .
63(4) . . .
57(4) . . .
59(4) . . .
64(4) . . .
58(4) . . .
64(4) . . .
56(4) . . .
58(4) . . .
73(5) . . .
54(4) . . .
59(4) . . .
50(4) . . .
57(4) . . .
59(4) . . .
70(5) . . .
53(4) . . .
56(4) . . .
63(4) . . .
67(4) . . .
54(4) . . .
53(4) . . .
59(4) . . .
50(4) . . .
60(4) . . .
53(4) . . .
62(4) . . .
58(4) . . .
52(4) . . .
60(4) . . .
61(4) . . .
68(4) . . .
63(4) . . .
58(4) . . .
57(4) . . .
59(4) . . .
60(4) . . .
59(4) . . .
68(4) . . .
58(4) . . .
54(4) . . .
63(4) . . .
48(4) . . .
57(4) . . .
54(4) . . .
48(4) . . .
58(4) . . .
59(4) . . .
60(4) . . .
67(4) . . .
64(4) . . .
53(4) . . .
49(4) . . .
55(4) . . .
57(4) . . .
65(4) . . .
53(4) . . .
53(4) . . .
60(4) . . .
53(4) . . .
55(4) . . .
46(4) . . .
63(4) . . .
65(4) . . .
58(4) . . .
49(4) . . .
52(4) . . .
51(4) . . .
50(4) . . .
66(5) . . .
46(4) . . .
43.6(34) . . .
59(4) . . .
55(4) . . .
45(4) . . .
62(4) . . .
59(4) . . .
56(4) . . .
61(4) . . .
57(4) . . .
62(4) . . .
53(4) . . .
65(4) . . .
60(4) . . .
67(5) . . .
58(4) . . .
51(4) . . .
58(4) . . .
53(4) . . .
49(4) . . .
71(5) . . .
56(4) . . .
48(4) . . .
45(4) . . .
65(5) . . .
58(4) . . .
56(4) . . .
60(4) . . .
55(4) . . .
49(4) . . .
65(4) . . .
59(4) . . .
54(4) . . .
60(4) . . .
56(4) . . .
66(4) . . .
58(4) . . .
58(4) . . .
57(4) . . .
61(4) . . .
61(4) . . .
61(4) . . .
59(4) . . .
57(4) . . .
56(4) . . .
69(4) . . .
66(4) . . .
57(4) . . .
57(4) . . .
52(4) . . .
47(4) . . .
47(4) . . .
53(4) . . .
48(4) . . .
61(4) . . .
65(4) . . .
51(4) . . .
60(4) . . .
67(5) . . .
49(4) . . .
58(4) . . .
53(4) . . .
59(4) . . .
63(4) . . .
54(4) . . .
62(4) . . .
59(4) . . .
56(4) . . .
54(4) . . .
64(4) . . .
60(4) . . .
49(4) . . .
53(4) . . .
63(4) . . .
56(4) . . .
48(4) . . .
56(4) . . .
51(4) . . .
53(4) . . .
60(4) . . .
54(4) . . .
57(4) . . .
52(4) . . .
49(4) . . .
57(4) . . .
63(4) . . .
48(4) . . .
60(4) . . .
61(4) . . .
48(4) . . .
64(4) . . .
57(4) . . .
55(4) . . .
61(4) . . .
42.0(33) . . .
72(4) . . .
59(4) . . .
53(4) . . .
57(4) . . .
54(4) . . .
58(4) . . .
63(5) . . .
60(5) . . .
55(4) . . .
69(4) . . .
52(4) . . .
54(4) . . .
58(4) . . .
56(4) . . .
56(4) . . .
61(4) . . .
63(4) . . .
50(4) . . .
59(4) . . .
58(4) . . .
52(4) . . .
57(4) . . .
50(4) . . .
57(4) . . .
47(4) . . .
67(4) . . .
55(4) . . .
51(4) . . .
51(4) . . .
60(4) . . .
66(4) . . .
67(4) . . .
59(4) . . .
56(4) . . .
65(4) . . .
62(4) . . .
53(4) . . .
46(4) . . .
48(4) . . .
57(4) . . .
52(4) . . .
43(4) . . .
64(4) . . .
61(4) . . .
61(4) . . .
60(4) . . .
51(4) . . .
62(4) . . .
70(4) . . .
59(4) . . .
57(4) . . .
54(4) . . .
64(4) . . .
55(4) . . .
53(4) . . .
61(4) . . .
63(5) . . .
55(4) . . .
59(4) . . .
50(4) . . .
53(4) . . .
64(5) . . .
56(4) . . .
53(4) . . .
50(4) . . .
46(4) . . .
57(4) . . .
58(4) . . .
58(4) . . .
58(4) . . .
62(4) . . .
45(4) . . .
65(4) . . .
56(4) . . .
62(4) . . .
53(4) . . .
57(4) . . .
57(4) . . .
54(4) . . .
54(4) . . .
55(4) . . .
57(4) . . .
57(4) . . .
56(4) . . .
51(4) . . .
55(4) . . .
48(4) . . .
55(4) . . .
54(4) . . .
69(5) . . .
53(4) . . .
57(4) . . .
59(4) . . .
55(4) . . .
57(4) . . .
60(4) . . .
54(4) . . .
55(4) . . .
52(4) . . .
66(5) . . .
53(4) . . .
54(4) . . .
51(4) . . .
52(4) . . .
59(4) . . .
54(4) . . .
60(4) . . .
57(4) . . .
60(4) . . .
58(4) . . .
55(4) . . .
47(4) . . .
53(4) . . .
54(4) . . .
64(4) . . .
59(4) . . .
54(4) . . .
67(4) . . .
53(4) . . .
63(4) . . .
57(4) . . .
48(4) . . .
59(4) . . .
56(4) . . .
52(4) . . .
55(4) . . .
52(4) . . .
44.2(34) . . .
60(4) . . .
53(4) . . .
58(4) . . .
57(4) . . .
53(4) . . .
45(4) . . .
42(4) . . .
53(4) . . .
61(4) . . .
53(4) . . .
58(4) . . .
55(4) . . .
52(4) . . .
49(4) . . .
58(4) . . .
50(4) . . .
59(4) . . .
54(4) . . .
56(4) . . .
63(4) . . .
58(4) . . .
56(4) . . .
61(4) . . .
53(4) . . .
61(4) . . .
67(4) . . .
57(4) . . .
48(4) . . .
63(4) . . .
60(4) . . .
56(4) . . .
49(4) . . .
53(4) . . .
52(4) . . .
64(4) . . .
59(4) . . .
58(4) . . .
42.2(35) . . .
52(4) . . .
65(5) . . .
47(4) . . .
56(4) . . .
57(4) . . .
61(4) . . .
57(4) . . .
54(4) . . .
60(4) . . .
67(4) . . .
57(4) . . .
49(4) . . .
54(4) . . .
57(4) . . .
59(4) . . .
52(4) . . .
51(4) . . .
42.2(34) . . .
53(4) . . .
59(4) . . .
59(4) . . .
55(4) . . .
60(4) . . .
58(4) . . .
62(4) . . .
50(4) . . .
49(4) . . .
54(4) . . .
51(4) . . .
54(4) . . .
60(4) . . .
56(4) . . .
55(4) . . .
57(4) . . .
56(4) . . .
55(4) . . .
53(4) . . .
54(4) . . .
49(4) . . .
66(4) . . .
52(4) . . .
54(4) . . .
53(4) . . .
60(4) . . .
51(4) . . .
53(4) . . .
52(4) . . .
64(4) . . .
54(4) . . .
59(4) . . .
52(4) . . .
56(4) . . .
70(4) . . .
52(4) . . .
54(4) . . .
58(4) . . .
54(4) . . .
46(4) . . .
53(4) . . .
53(4) . . .
57(4) . . .
53(4) . . .
58(4) . . .
52(4) . . .
62(4) . . .
60(4) . . .
58(4) . . .
48(4) . . .
35.8(31) . . .
54(4) . . .
57(4) . . .
57(4) . . .
56(4) . . .
43(4) . . .
54(4) . . .
49(4) . . .
52(4) . . .
53(4) . . .
61(4) . . .
56(4) . . .
50(4) . . .
48(4) . . .
59(4) . . .
56(4) . . .
60(4) . . .
62(4) . . .
51(4) . . .
44.8(34) . . .
56(4) . . .
67(5) . . .
53(4) . . .
63(4) . . .
54(4) . . .
50(4) . . .
66(5) . . .
52(4) . . .
58(4) . . .
57(4) . . .
48(4) . . .
51(4) . . .
56(4) . . .
59(4) . . .
55(4) . . .
62(4) . . .
45(4) . . .
56(4) . . .
55(4) . . .
62(4) . . .
47(4) . . .
61(4) . . .
60(4) . . .
53(4) . . .
56(4) . . .
64(4) . . .
64(4) . . .
68(4) . . .
55(4) . . .
62(4) . . .
52(4) . . .
56(4) . . .
64(4) . . .
49(4) . . .
48(4) . . .
51(4) . . .
54(4) . . .
49(4) . . .
53(4) . . .
65(4) . . .
60(4) . . .
52(4) . . .
54(4) . . .
56(4) . . .
62(5) . . .
48(4) . . .
55(4) . . .
64(4) . . .
60(4) . . .
63(4) . . .
52(4) . . .
53(4) . . .
57(4) . . .
52(4) . . .
63(4) . . .
49(4) . . .
59(4) . . .
51(4) . . .
60(4) . . .
69(5) . . .
47(4) . . .
53(4) . . .
54(4) . . .
54(4) . . .
55(4) . . .
48(4) . . .
55(4) . . .
48(4) . . .
58(4) . . .
54(4) . . .
61(4) . . .
67(4) . . .
60(4) . . .
58(4) . . .
58(4) . . .
61(4) . . .
60(4) . . .
58(4) . . .
62(4) . . .
52(4) . . .
69(5) . . .
53(4) . . .
65(4) . . .
56(4) . . .
64(4) . . .
51(4) . . .
52(4) . . .
51(4) . . .
52(4) . . .
57(4) . . .
66(4) . . .
63(4) . . .
52(4) . . .
64(4) . . .
58(4) . . .
49(4) . . .
61(4) . . .
49(4) . . .
53(4) . . .
60(4) . . .
50(4) . . .
64(4) . . .
44.4(34) . . .
63(4) . . .
56(4) . . .
53(4) . . .
56(4) . . .
52(4) . . .
58(4) . . .
55(4) . . .
61(4) . . .
53(4) . . .
48(4) . . .
53(4) . . .
49(4) . . .
53(4) . . .
54(4) . . .
50(4) . . .
47(4) . . .
65(4) . . .
53(4) . . .
59(4) . . .
48(4) . . .
50(4) . . .
55(4) . . .
51(4) . . .
69(4) . . .
55(4) . . .
56(4) . . .
55(4) . . .
62(4) . . .
62(4) . . .
51(4) . . .
50(4) . . .
58(4) . . .
54(4) . . .
59(4) . . .
48(4) . . .
62(4) . . .
68(4) . . .
70(4) . . .
55(4) . . .
58(4) . . .
63(5) . . .
58(4) . . .
54(4) . . .
54(4) . . .
52(4) . . .
54(4) . . .
47(4) . . .
71(4) . . .
48(4) . . .
62(4) . . .
60(4) . . .
55(4) . . .
59(4) . . .
49(4) . . .
57(4) . . .
55(4) . . .
62(4) . . .
62(4) . . .
60(4) . . .
59(4) . . .
53(4) . . .
57(4) . . .
55(4) . . .
59(4) . . .
65(4) . . .
51(4) . . .
54(4) . . .
54(4) . . .
51(4) . . .
53(4) . . .
53(4) . . .
54(4) . . .
54(4) . . .
53(4) . . .
49(4) . . .
57(4) . . .
52(4) . . .
57(4) . . .
56(4) . . .
54(4) . . .
55(4) . . .
62(4) . . .
53(4) . . .
52(4) . . .
57(4) . . .
52(4) . . .
40.2(33) . . .
46(4) . . .
49(4) . . .
43.3(34) . . .
57(4) . . .
45.0(35) . . .
52(4) . . .
53(4) . . .
49(4) . . .
52(4) . . .
47(4) . . .
53(4) . . .
48(4) . . .
55(4) . . .
59(4) . . .
56(4) . . .
59(4) . . .
61(4) . . .
57(4) . . .
68(4) . . .
54(4) . . .
56(4) . . .
55(4) . . .
58(4) . . .
59(4) . . .
48(4) . . .
53(4) . . .
53(4) . . .
57(4) . . .
63(4) . . .
50(4) . . .
52(4) . . .
52(4) . . .
53(4) . . .
46(4) . . .
53(4) . . .
53(4) . . .
55(4) . . .
58(4) . . .
58(4) . . .
51(4) . . .
62(4) . . .
63(4) . . .
53(4) . . .
58(4) . . .
49(4) . . .
61(4) . . .
63(4) . . .
51(4) . . .
56(4) . . .
50(4) . . .
54(4) . . .
68(5) . . .
63(4) . . .
51(4) . . .
56(4) . . .
45(4) . . .
58(4) . . .
48(4) . . .
54(4) . . .
56(4) . . .
53(4) . . .
61(5) . . .
52(4) . . .
64(4) . . .
60(4) . . .
44.0(35) . . .
50(4) . . .
55(4) . . .
53(4) . . .
53(4) . . .
49(4) . . .
57(4) . . .
47(4) . . .
59(4) . . .
61(4) . . .
55(4) . . .
56(4) . . .
52(4) . . .
46(4) . . .
50(4) . . .
51(4) . . .
55(4) . . .
57(4) . . .
48(4) . . .
56(4) . . .
42.2(34) . . .
52(4) . . .
66(4) . . .
55(4) . . .
53(4) . . .
52(4) . . .
63(4) . . .
54(4) . . .
57(4) . . .
54(4) . . .
56(4) . . .
69(4) . . .
49(4) . . .
47(4) . . .
46(4) . . .
58(4) . . .
66(4) . . .
61(4) . . .
56(4) . . .
57(4) . . .
52(4) . . .
62(4) . . .
49(4) . . .
51(4) . . .
51(4) . . .
58(5) . . .
54(4) . . .
61(4) . . .
56(4) . . .
48(4) . . .
60(4) . . .
49(4) . . .
57(4) . . .
51(4) . . .
54(4) . . .
61(4) . . .
48(4) . . .
48(4) . . .
56(4) . . .
54(4) . . .
53(4) . . .
53(4) . . .
54(4) . . .
42.7(34) . . .
61(4) . . .
55(4) . . .
61(4) . . .
56(4) . . .
60(4) . . .
62(4) . . .
51(4) . . .
47(4) . . .
48(4) . . .
53(4) . . .
57(4) . . .
58(4) . . .
62(4) . . .
52(4) . . .
58(4) . . .
59(4) . . .
52(4) . . .
60(4) . . .
44(4) . . .
56(4) . . .
60(4) . . .
52(4) . . .
47(4) . . .
45.3(35) . . .
55(4) . . .
55(4) . . .
41.8(33) . . .
50(4) . . .
52(4) . . .
48(4) . . .
62(4) . . .
56(4) . . .
56(4) . . .
51(4) . . .
46(4) . . .
40(4) . . .
57(4) . . .
48(4) . . .
58(4) . . .
53(4) . . .
60(4) . . .
67(4) . . .
52(4) . . .
56(4) . . .
63(4) . . .
59(4) . . .
50(4) . . .
51(4) . . .
57(4) . . .
50(4) . . .
55(4) . . .
58(4) . . .
56(4) . . .
59(4) . . .
50(4) . . .
67(5) . . .
58(4) . . .
57(4) . . .
46(4) . . .
57(4) . . .
55(4) . . .
52(4) . . .
49(4) . . .
68(4) . . .
49(4) . . .
54(4) . . .
48(4) . . .
48(4) . . .
56(4) . . .
55(4) . . .
52(4) . . .
50(4) . . .
49(4) . . .
59(4) . . .
55(4) . . .
58(4) . . .
50(4) . . .
60(4) . . .
54(4) . . .
56(4) . . .
57(4) . . .
63(4) . . .
61(4) . . .
59(4) . . .
57(4) . . .
61(4) . . .
55(4) . . .
50(4) . . .
62(4) . . .
52(4) . . .
52(4) . . .
52(4) . . .
60(4) . . .
53(4) . . .
53(4) . . .
55(4) . . .
56(4) . . .
50(4) . . .
58(4) . . .
63(4) . . .
58(4) . . .
55(4) . . .
55(4) . . .
59(4) . . .
63(5) . . .
57(4) . . .
56(4) . . .
49(4) . . .
55(4) . . .
51(4) . . .
50(4) . . .
57(4) . . .
47(4) . . .
60(4) . . .
40.3(33) . . .
51(4) . . .
50(4) . . .
45(4) . . .
45(4) . . .
49(4) . . .
56(4) . . .
56(4) . . .
46(4) . . .
57(4) . . .
51(4) . . .
49(4) . . .
65(4) . . .
50(4) . . .
54(4) . . .
54(4) . . .
56(4) . . .
50(4) . . .
47(4) . . .
55(4) . . .
59(4) . . .
57(4) . . .
53(4) . . .
66(4) . . .
54(4) . . .
55(4) . . .
59(4) . . .
56(4) . . .
48(4) . . .
54(4) . . .
53(4) . . .
50(4) . . .
51(4) . . .
56(4) . . .
53(4) . . .
66(4) . . .
60(4) . . .
51(4) . . .
53(4) . . .
54(4) . . .
57(4) . . .
58(4) . . .
48(4) . . .
52(4) . . .
55(4) . . .
49(4) . . .
49(4) . . .
49(4) . . .
42(4) . . .
54(4) . . .
52(4) . . .
53(4) . . .
53(4) . . .
53(4) . . .
56(4) . . .
57(4) . . .
54(4) . . .
54(4) . . .
51(4) . . .
57(4) . . .
59(4) . . .
60(4) . . .
57(4) . . .
53(4) . . .
60(4) . . .
48(4) . . .
46(4) . . .
54(4) . . .
48(4) . . .
55(4) . . .
53(4) . . .
56(4) . . .
60(4) . . .
50(4) . . .
49(4) . . .
57(4) . . .
42.9(34) . . .
59(4) . . .
53(4) . . .
49(4) . . .
55(4) . . .
50(4) . . .
52(4) . . .
55(4) . . .
54(4) . . .
63(4) . . .
50(4) . . .
50(4) . . .
48(4) . . .
56(4) . . .
56(4) . . .
49(4) . . .
46(4) . . .
46(4) . . .
59(4) . . .
51(4) . . .
59(4) . . .
66(4) . . .
53(4) . . .
51(4) . . .
50(4) . . .
56(4) . . .
48(4) . . .
51(4) . . .
48(4) . . .
54(4) . . .
58(4) . . .
53(4) . . .
52(4) . . .
42.3(34) . . .
51(4) . . .
52(4) . . .
55(4) . . .
64(5) . . .
53(4) . . .
54(4) . . .
55(4) . . .
52(4) . . .
56(4) . . .
59(4) . . .
44.2(35) . . .
52(4) . . .
50(4) . . .
55(4) . . .
64(4) . . .
54(4) . . .
58(4) . . .
54(4) . . .
43(4) . . .
48(4) . . .
60(4) . . .
59(4) . . .
59(4) . . .
52(4) . . .
48(4) . . .
45(4) . . .
49(4) . . .
52(4) . . .
57(4) . . .
48(4) . . .
45(4) . . .
54(4) . . .
51(4) . . .
49(4) . . .
52(4) . . .
58(4) . . .
56(4) . . .
53(4) . . .
61(4) . . .
61(4) . . .
63(4) . . .
55(4) . . .
50(4) . . .
59(4) . . .
60(4) . . .
64(4) . . .
56(4) . . .
63(4) . . .
61(4) . . .
56(4) . . .
49(4) . . .
54(4) . . .
53(4) . . .
60(4) . . .
56(4) . . .
55(4) . . .
55(4) . . .
50(4) . . .
57(4) . . .
54(4) . . .
47(4) . . .
60(4) . . .
60(4) . . .
55(4) . . .
51(4) . . .
53(4) . . .
55(4) . . .
63(5) . . .
48(4) . . .
57(4) . . .
51(4) . . .
54(4) . . .
51(4) . . .
55(4) . . .
70(4) . . .
51(4) . . .
53(4) . . .
56(4) . . .
64(4) . . .
56(4) . . .
54(4) . . .
61(5) . . .
58(4) . . .
54(4) . . .
63(4) . . .
56(4) . . .
50(4) . . .
51(4) . . .
52(4) . . .
56(4) . . .
59(4) . . .
62(4) . . .
44.0(34) . . .
53(4) . . .
44(4) . . .
58(4) . . .
60(4) . . .
51(4) . . .
51(4) . . .
52(4) . . .
53(4) . . .
48(4) . . .
50(4) . . .
58(4) . . .
51(4) . . .
55(4) . . .
56(4) . . .
55(4) . . .
57(4) . . .
55(4) . . .
52(4) . . .
54(4) . . .
59(4) . . .
61(4) . . .
49(4) . . .
47(4) . . .
55(4) . . .
58(4) . . .
60(4) . . .
63(4) . . .
54(4) . . .
57(4) . . .
66(4) . . .
51(4) . . .
57(4) . . .
49(4) . . .
54(4) . . .
40.4(33) . . .
50(4) . . .
46(4) . . .
51(4) . . .
61(4) . . .
45(4) . . .
58(4) . . .
49(4) . . .
53(4) . . .
58(4) . . .
38.6(32) . . .
52(4) . . .
46.0(35) . . .
60(4) . . .
60(4) . . .
50(4) . . .
57(4) . . .
60(4) . . .
54(4) . . .
52(4) . . .
50(4) . . .
58(4) . . .
45(4) . . .
55(4) . . .
55(4) . . .
56(4) . . .
59(4) . . .
54(4) . . .
57(4) . . .
61(4) . . .
51(4) . . .
53(4) . . .
55(4) . . .
53(4) . . .
48(4) . . .
47(4) . . .
54(4) . . .
47(4) . . .
54(4) . . .
53(4) . . .
56(4) . . .
48(4) . . .
50(4) . . .
50(4) . . .
55(4) . . .
52(4) . . .
52(4) . . .
57(4) . . .
46(4) . . .
51(4) . . .
59(4) . . .
49(4) . . .
51(4) . . .
54(4) . . .
49(4) . . .
56(4) . . .
52(4) . . .
61(4) . . .
55(4) . . .
48(4) . . .
45.3(35) . . .
48(4) . . .
50(4) . . .
54(4) . . .
49(4) . . .
55(4) . . .
45(4) . . .
60(4) . . .
49(4) . . .
51(4) . . .
59(4) . . .
53(4) . . .
48(4) . . .
53(4) . . .
60(4) . . .
63(4) . . .
51(4) . . .
53(4) . . .
56(4) . . .
57(4) . . .
55(4) . . .
57(4) . . .
56(4) . . .
44(4) . . .
59(4) . . .
51(4) . . .
49(4) . . .
53(4) . . .
50(4) . . .
56(4) . . .
58(4) . . .
64(4) . . .
58(4) . . .
55(4) . . .
55(4) . . .
54(4) . . .
53(4) . . .
52(4) . . .
55(4) . . .
59(4) . . .
60(4) . . .
52(4) . . .
52(4) . . .
45.8(35) . . .
43(4) . . .
54(4) . . .
57(4) . . .
53(4) . . .
51(4) . . .
59(4) . . .
53(4) . . .
57(4) . . .
57(4) . . .
52(4) . . .
52(4) . . .
58(4) . . .
51(4) . . .
59(4) . . .
58(4) . . .
42(4) . . .
48(4) . . .
55(4) . . .
50(4) . . .
50(4) . . .
51(4) . . .
47(4) . . .
52(4) . . .
55(4) . . .
57(4) . . .
57(4) . . .
63(4) . . .
58(4) . . .
48(4) . . .
60(4) . . .
52(4) . . .
56(4) . . .
55(4) . . .
58(4) . . .
45(4) . . .
47(4) . . .
45(4) . . .
57(4) . . .
57(4) . . .
57(4) . . .
47(4) . . .
49(4) . . .
54(4) . . .
45.8(35) . . .
47(4) . . .
57(4) . . .
58(4) . . .
48(4) . . .
51(4) . . .
53(4) . . .
59(4) . . .
50(4) . . .
45(4) . . .
57(4) . . .
49(4) . . .
41.1(35) . . .
38.6(33) . . .
42.3(34) . . .
52(4) . . .
48(4) . . .
58(4) . . .
59(4) . . .
59(4) . . .
52(4) . . .
50(4) . . .
49(4) . . .
54(4) . . .
52(4) . . .
50(4) . . .
49(4) . . .
46(4) . . .
40.8(35) . . .
41.6(33) . . .
61(4) . . .
54(4) . . .
61(4) . . .
62(4) . . .
41.5(34) . . .
48(4) . . .
55(4) . . .
49(4) . . .
45(4) . . .
55(4) . . .
56(4) . . .
64(4) . . .
65(4) . . .
55(4) . . .
38.6(33) . . .
47(4) . . .
56(4) . . .
57(4) . . .
65(4) . . .
52(4) . . .
49(4) . . .
50(4) . . .
56(4) . . .
61(4) . . .
50(4) . . .
57(4) . . .
57(4) . . .
54(4) . . .
52(4) . . .
62(4) . . .
53(4) . . .
42.3(34) . . .
55(4) . . .
56(4) . . .
53(4) . . .
42.1(34) . . .
48(4) . . .
46(4) . . .
56(4) . . .
55(4) . . .
56(4) . . .
57(4) . . .
56(4) . . .
55(4) . . .
50(4) . . .
40.1(34) . . .
45(4) . . .
42.8(34) . . .
49(4) . . .
57(4) . . .
63(4) . . .
47(4) . . .
43(4) . . .
58(4) . . .
51(4) . . .
59(4) . . .
49(4) . . .
53(4) . . .
63(4) . . .
50(4) . . .
48(4) . . .
54(4) . . .
50(4) . . .
53(4) . . .
57(4) . . .
55(4) . . .
48(4) . . .
49(4) . . .
48(4) . . .
54(4) . . .
50(4) . . .
45(4) . . .
51(4) . . .
50(4) . . .
61(4) . . .
45(4) . . .
57(4) . . .
64(4) . . .
56(4) . . .
61(4) . . .
49(4) . . .
49(4) . . .
56(4) . . .
49(4) . . .
54(4) . . .
54(4) . . .
53(4) . . .
54(4) . . .
47(4) . . .
53(4) . . .
53(4) . . .
51(4) . . .
48(4) . . .
59(4) . . .
56(4) . . .
54(4) . . .
48(4) . . .
49(4) . . .
53(4) . . .
48(4) . . .
47(4) . . .
48(4) . . .
49(4) . . .
48(4) . . .
63(4) . . .
51(4) . . .
58(4) . . .
47(4) . . .
57(4) . . .
52(4) . . .
57(4) . . .
55(4) . . .
55(4) . . .
48(4) . . .
52(4) . . .
47(4) . . .
49(4) . . .
50(4) . . .
56(4) . . .
44(4) . . .
53(4) . . .
50(4) . . .
47(4) . . .
52(4) . . .
54(4) . . .
59(4) . . .
51(4) . . .
54(4) . . .
42.9(35) . . .
59(4) . . .
58(4) . . .
49(4) . . .
47(4) . . .
48(4) . . .
46(4) . . .
46(4) . . .
49(4) . . .
51(4) . . .
42.9(34) . . .
42.3(35) . . .
50(4) . . .
54(4) . . .
54(4) . . .
62(4) . . .
55(4) . . .
55(4) . . .
51(4) . . .
49(4) . . .
56(4) . . .
49(4) . . .
50(4) . . .
58(4) . . .
47(4) . . .
55(4) . . .
49(4) . . .
49(4) . . .
52(4) . . .
57(4) . . .
53(4) . . .
47(4) . . .
51(4) . . .
47(4) . . .
54(4) . . .
52(4) . . .
59(4) . . .
51(4) . . .
41.6(34) . . .
46(4) . . .
47(4) . . .
61(4) . . .
52(4) . . .
57(4) . . .
56(4) . . .
53(4) . . .
58(4) . . .
62(4) . . .
60(4) . . .
54(4) . . .
58(4) . . .
55(4) . . .
59(4) . . .
61(4) . . .
56(4) . . .
50(4) . . .
56(4) . . .
51(4) . . .
57(4) . . .
49(4) . . .
48(4) . . .
41.3(34) . . .
50(4) . . .
55(4) . . .
62(4) . . .
56(4) . . .
53(4) . . .
44.0(34) . . .
54(4) . . .
53(4) . . .
52(4) . . .
53(4) . . .
52(4) . . .
55(4) . . .
48(4) . . .
51(4) . . .
59(4) . . .
47(4) . . .
47(4) . . .
36.8(31) . . .
49(4) . . .
51(4) . . .
49(4) . . .
54(4) . . .
51(4) . . .
61(4) . . .
53(4) . . .
53(4) . . .
51(4) . . .
41.0(35) . . .
57(4) . . .
54(4) . . .
54(4) . . .
56(4) . . .
44(4) . . .
52(4) . . .
45(4) . . .
33.3(31) . . .
48(4) . . .
47(4) . . .
51(4) . . .
50(4) . . .
53(4) . . .
56(4) . . .
52(4) . . .
58(4) . . .
50(4) . . .
59(4) . . .
58(4) . . .
45(4) . . .
45(4) . . .
55(4) . . .
51(4) . . .
57(4) . . .
55(4) . . .
59(4) . . .
45(4) . . .
55(4) . . .
50(4) . . .
48(4) . . .
49(4) . . .
45(4) . . .
49(4) . . .
54(4) . . .
50(4) . . .
63(4) . . .
43.3(34) . . .
45(4) . . .
50(4) . . .
45(4) . . .
43(4) . . .
49(4) . . .
51(4) . . .
47(4) . . .
55(4) . . .
58(4) . . .
53(4) . . .
47(4) . . .
56(4) . . .
49(4) . . .
48(4) . . .
47(4) . . .
55(4) . . .
54(4) . . .
51(4) . . .
45(4) . . .
41.6(34) . . .
54(4) . . .
54(4) . . .
48(4) . . .
61(4) . . .
52(4) . . .
56(4) . . .
54(4) . . .
55(4) . . .
54(4) . . .
48(4) . . .
50(4) . . .
60(4) . . .
61(4) . . .
52(4) . . .
49(4) . . .
52(4) . . .
52(4) . . .
55(4) . . .
51(4) . . .
49(4) . . .
46(4) . . .
43(4) . . .
49(4) . . .
50(4) . . .
52(4) . . .
49(4) . . .
65(5) . . .
48(4) . . .
56(4) . . .
52(4) . . .
62(4) . . .
53(4) . . .
56(4) . . .
55(4) . . .
52(4) . . .
50(4) . . .
57(4) . . .
48(4) . . .
51(4) . . .
49(4) . . .
53(4) . . .
47(4) . . .
56(4) . . .
56(4) . . .
44.5(34) . . .
51(4) . . .
44.0(35) . . .
47(4) . . .
50(4) . . .
50(4) . . .
55(4) . . .
46(4) . . .
51(4) . . .
47(4) . . .
42.7(34) . . .
59(4) . . .
52(4) . . .
52(4) . . .
50(4) . . .
48(4) . . .
46(4) . . .
51(4) . . .
58(4) . . .
48(4) . . .
62(4) . . .
54(4) . . .
54(4) . . .
44.6(34) . . .
50(4) . . .
48(4) . . .
51(4) . . .
47(4) . . .
50(4) . . .
47(4) . . .
47(4) . . .
53(4) . . .
40.3(33) . . .
50(4) . . .
45.3(35) . . .
52(4) . . .
51(4) . . .
47(4) . . .
43.5(34) . . .
51(4) . . .
41.7(34) . . .
49(4) . . .
59(4) . . .
52(4) . . .
56(4) . . .
58(4) . . .
48(4) . . .
58(4) . . .
57(4) . . .
54(4) . . .
55(4) . . .
52(4) . . .
51(4) . . .
53(4) . . .
64(4) . . .
50(4) . . .
53(4) . . .
54(4) . . .
55(4) . . .
49(4) . . .
54(4) . . .
46(4) . . .
43(4) . . .
55(4) . . .
61(4) . . .
50(4) . . .
48(4) . . .
48(4) . . .
51(4) . . .
47(4) . . .
49(4) . . .
56(4) . . .
49(4) . . .
51(4) . . .
47(4) . . .
63(5) . . .
52(4) . . .
53(4) . . .
52(4) . . .
54(4) . . .
55(4) . . .
50(4) . . .
47(4) . . .
51(4) . . .
54(4) . . .
51(4) . . .
40.2(35) . . .
43.7(34) . . .
62(4) . . .
49(4) . . .
52(4) . . .
45(4) . . .
46(4) . . .
48(4) . . .
47(4) . . .
51(4) . . .
56(4) . . .
57(4) . . .
45.0(34) . . .
53(4) . . .
55(4) . . .
52(4) . . .
49(4) . . .
46(4) . . .
43(4) . . .
52(4) . . .
50(4) . . .
54(4) . . .
46(4) . . .
49(4) . . .
52(4) . . .
48(4) . . .
54(4) . . .
51(4) . . .
57(4) . . .
53(4) . . .
47(4) . . .
43.8(35) . . .
53(4) . . .
43(4) . . .
49(4) . . .
49(4) . . .
43.9(34) . . .
52(4) . . .
50(4) . . .
54(4) . . .
53(4) . . .
51(4) . . .
44(4) . . .
59(4) . . .
42.5(33) . . .
55(4) . . .
50(4) . . .
41(4) . . .
56(4) . . .
55(4) . . .
47(4) . . .
50(4) . . .
50(4) . . .
52(4) . . .
65(4) . . .
49(4) . . .
54(4) . . .
57(4) . . .
49(4) . . .
53(4) . . .
54(4) . . .
44.7(34) . . .
46(4) . . .
45(4) . . .
51(4) . . .
54(4) . . .
54(4) . . .
58(4) . . .
57(4) . . .
52(4) . . .
42.6(34) . . .
43.6(35) . . .
40.3(33) . . .
51(4) . . .
47(4) . . .
49(4) . . .
51(4) . . .
52(4) . . .
46(4) . . .
59(4) . . .
52(4) . . .
52(4) . . .
55(4) . . .
55(4) . . .
42.2(34) . . .
48(4) . . .
40.0(34) . . .
50(4) . . .
43.3(34) . . .
59(4) . . .
52(4) . . .
55(4) . . .
52(4) . . .
55(4) . . .
48(4) . . .
53(4) . . .
46(4) . . .
50(4) . . .
55(4) . . .
52(4) . . .
45(4) . . .
44(4) . . .
46(4) . . .
47(4) . . .
48(4) . . .
42.7(34) . . .
55(4) . . .
54(4) . . .
50(4) . . .
59(4) . . .
49(4) . . .
55(4) . . .
53(4) . . .
61(4) . . .
54(4) . . .
42.9(34) . . .
48(4) . . .
47(4) . . .
50(4) . . .
45.4(35) . . .
41.8(34) . . .
39.6(34) . . .
51(4) . . .
57(4) . . .
63(4) . . .
46(4) . . .
49(4) . . .
60(4) . . .
51(4) . . .
47(4) . . .
51(4) . . .
48(4) . . .
52(4) . . .
54(4) . . .
53(4) . . .
53(4) . . .
61(4) . . .
45(4) . . .
46(4) . . .
54(4) . . .
50(4) . . .
47(4) . . .
42(4) . . .
50(4) . . .
49(4) . . .
51(4) . . .
44(4) . . .
46(4) . . .
59(4) . . .
54(4) . . .
43.5(35) . . .
50(4) . . .
49(4) . . .
49(4) . . .
53(4) . . .
56(4) . . .
43(4) . . .
49(4) . . .
53(4) . . .
50(4) . . .
40.0(33) . . .
53(4) . . .
42.8(35) . . .
50(4) . . .
40.5(33) . . .
48(4) . . .
58(4) . . .
41.3(34) . . .
54(4) . . .
51(4) . . .
56(4) . . .
51(4) . . .
42(4) . . .
45(4) . . .
46(4) . . .
52(4) . . .
35.6(33) . . .
53(4) . . .
44.8(35) . . .
55(4) . . .
48(4) . . .
45(4) . . .
42.2(34) . . .
47(4) . . .
53(4) . . .
55(4) . . .
54(4) . . .
44(4) . . .
45(4) . . .
36.1(33) . . .
57(4) . . .
55(4) . . .
50(4) . . .
48(4) . . .
58(4) . . .
51(4) . . .
48(4) . . .
57(4) . . .
51(4) . . .
52(4) . . .
48(4) . . .
47(4) . . .
47(4) . . .
48(4) . . .
44(4) . . .
45(4) . . .
46(4) . . .
44.0(35) . . .
43.2(34) . . .
45.5(35) . . .
38.9(32) . . .
50(4) . . .
50(4) . . .
56(4) . . .
51(4) . . .
52(4) . . .
50(4) . . .
48(4) . . .
48(4) . . .
51(4) . . .
55(4) . . .
49(4) . . .
44.8(34) . . .
50(4) . . .
50(4) . . .
45.1(35) . . .
53(4) . . .
60(4) . . .
55(4) . . .
50(4) . . .
45(4) . . .
41.2(34) . . .
47(4) . . .
50(4) . . .
57(4) . . .
43.2(34) . . .
47(4) . . .
39.6(34) . . .
59(4) . . .
53(4) . . .
56(4) . . .
44.6(34) . . .
44.0(34) . . .
52(4) . . .
47(4) . . .
50(4) . . .
52(4) . . .
49(4) . . .
56(4) . . .
45(4) . . .
47(4) . . .
48(4) . . .
45(4) . . .
57(4) . . .
49(4) . . .
52(4) . . .
47(4) . . .
49(4) . . .
53(4) . . .
54(4) . . .
55(4) . . .
49(4) . . .
49(4) . . .
51(4) . . .
45(4) . . .
47(4) . . .
43(4) . . .
46(4) . . .
49(4) . . .
46(4) . . .
52(4) . . .
51(4) . . .
43(4) . . .
45(4) . . .
48(4) . . .
44(4) . . .
46(4) . . .
46(4) . . .
48(4) . . .
46(4) . . .
37.0(33) . . .
45(4) . . .
56(4) . . .
50(4) . . .
51(4) . . .
55(4) . . .
58(4) . . .
52(4) . . .
47(4) . . .
47(4) . . .
49(4) . . .
51(4) . . .
52(4) . . .
55(4) . . .
44(4) . . .
51(4) . . .
46.0(35) . . .
47(4) . . .
53(4) . . .
42.3(35) . . .
49(4) . . .
42.3(34) . . .
51(4) . . .
43.4(35) . . .
54(4) . . .
55(4) . . .
47(4) . . .
49(4) . . .
58(4) . . .
61(4) . . .
52(4) . . .
55(4) . . .
54(4) . . .
46(4) . . .
48(4) . . .
55(4) . . .
51(4) . . .
56(4) . . .
54(4) . . .
46(4) . . .
52(4) . . .
51(4) . . .
48(4) . . .
50(4) . . .
48(4) . . .
51(4) . . .
57(4) . . .
45(4) . . .
49(4) . . .
57(4) . . .
47(4) . . .
53(4) . . .
41.1(33) . . .
44.7(35) . . .
47(4) . . .
49(4) . . .
47(4) . . .
54(4) . . .
43(4) . . .
53(4) . . .
53(4) . . .
45(4) . . .
50(4) . . .
48(4) . . .
37.5(31) . . .
43.9(34) . . .
42(4) . . .
41.0(34) . . .
55(4) . . .
57(4) . . .
52(4) . . .
49(4) . . .
46(4) . . .
51(4) . . .
53(4) . . .
51(4) . . .
52(4) . . .
49(4) . . .
47(4) . . .
45.2(35) . . .
49(4) . . .
47(4) . . .
48(4) . . .
46(4) . . .
57(4) . . .
54(4) . . .
47(4) . . .
54(4) . . .
52(4) . . .
44.5(35) . . .
37.2(32) . . .
51(4) . . .
51(4) . . .
46(4) . . .
51(4) . . .
55(4) . . .
54(4) . . .
59(4) . . .
52(4) . . .
55(4) . . .
47(4) . . .
46(4) . . .
44.8(35) . . .
48(4) . . .
50(4) . . .
52(4) . . .
47(4) . . .
52(4) . . .
52(4) . . .
41.6(34) . . .
38.8(34) . . .
42(4) . . .
46(4) . . .
54(4) . . .
46(4) . . .
47(4) . . .
42(4) . . .
48(4) . . .
54(4) . . .
53(4) . . .
56(4) . . .
56(4) . . .
48(4) . . .
52(4) . . .
44.8(35) . . .
52(4) . . .
47(4) . . .
46(4) . . .
57(4) . . .
57(4) . . .
43.8(34) . . .
46(4) . . .
49(4) . . .
52(4) . . .
55(4) . . .
52(4) . . .
43(4) . . .
52(4) . . .
54(4) . . .
50(4) . . .
49(4) . . .
52(4) . . .
46(4) . . .
51(4) . . .
49(4) . . .
50(4) . . .
49(4) . . .
43.0(35) . . .
41.8(34) . . .
49(4) . . .
51(4) . . .
55(4) . . .
39(4) . . .
46(4) . . .
45(4) . . .
49(4) . . .
53(4) . . .
50(4) . . .
52(4) . . .
50(4) . . .
44.2(35) . . .
50(4) . . .
39.7(34) . . .
36.7(32) . . .
46(4) . . .
51(4) . . .
38.5(32) . . .
45(4) . . .
49(4) . . .
50(4) . . .
55(4) . . .
54(4) . . .
49(4) . . .
57(4) . . .
50(4) . . .
54(4) . . .
56(4) . . .
62(4) . . .
50(4) . . .
39.6(32) . . .
59(4) . . .
38.8(32) . . .
50(4) . . .
37.8(33) . . .
48(4) . . .
49(4) . . .
39.4(34) . . .
52(4) . . .
37.4(32) . . .
41.8(35) . . .
49(4) . . .
47(4) . . .
50(4) . . .
42(4) . . .
39.9(34) . . .
43(4) . . .
40.3(34) . . .
47(4) . . .
43.9(34) . . .
50(4) . . .
45(4) . . .
39.2(34) . . .
51(4) . . .
44(4) . . .
42(4) . . .
53(4) . . .
51(4) . . .
43.4(34) . . .
52(4) . . .
42.4(34) . . .
51(4) . . .
51(4) . . .
55(4) . . .
44(4) . . .
53(4) . . .
52(4) . . .
47(4) . . .
50(4) . . .
51(4) . . .
57(4) . . .
50(4) . . .
52(4) . . .
43.2(34) . . .
47(4) . . .
58(4) . . .
55(4) . . .
47(4) . . .
56(4) . . .
58(4) . . .
42.4(35) . . .
48(4) . . .
44.1(34) . . .
47(4) . . .
42(4) . . .
50(4) . . .
53(4) . . .
42.6(34) . . .
54(4) . . .
43.5(35) . . .
46(4) . . .
56(4) . . .
56(4) . . .
49(4) . . .
46(4) . . .
48(4) . . .
57(4) . . .
46(4) . . .
41.3(34) . . .
53(4) . . .
48(4) . . .
48(4) . . .
38.9(33) . . .
39.4(33) . . .
45(4) . . .
51(4) . . .
54(4) . . .
56(4) . . .
47(4) . . .
43(4) . . .
57(4) . . .
42.0(34) . . .
45.1(35) . . .
46(4) . . .
51(4) . . .
44.8(35) . . .
48(4) . . .
44.2(34) . . .
56(4) . . .
57(4) . . .
48(4) . . .
47(4) . . .
53(4) . . .
46(4) . . .
60(4) . . .
46(4) . . .
42.2(34) . . .
52(4) . . .
49(4) . . .
46(4) . . .
50(4) . . .
52(4) . . .
45(4) . . .
50(4) . . .
49(4) . . .
51(4) . . .
45(4) . . .
47(4) . . .
38.7(32) . . .
40.2(33) . . .
54(4) . . .
46(4) . . .
47(4) . . .
44(4) . . .
42.9(35) . . .
50(4) . . .
56(4) . . .
51(4) . . .
44(4) . . .
48(4) . . .
49(4) . . .
45(4) . . .
47(4) . . .
58(4) . . .
56(4) . . .
44.4(35) . . .
50(4) . . .
45(4) . . .
48(4) . . .
59(4) . . .
50(4) . . .
51(4) . . .
41.9(35) . . .
46(4) . . .
48(4) . . .
52(4) . . .
55(4) . . .
46(4) . . .
45(4) . . .
50(4) . . .
54(4) . . .
43.3(34) . . .
50(4) . . .
48(4) . . .
59(4) . . .
48(4) . . .
41.3(34) . . .
44(4) . . .
48(4) . . .
53(4) . . .
48(4) . . .
40.3(33) . . .
50(4) . . .
48(4) . . .
47(4) . . .
48(4) . . .
46(4) . . .
49(4) . . .
46(4) . . .
53(4) . . .
51(4) . . .
43.6(35) . . .
49(4) . . .
42(4) . . .
55(4) . . .
51(4) . . .
52(4) . . .
43.3(34) . . .
56(4) . . .
55(4) . . .
48(4) . . .
42.4(34) . . .
45(4) . . .
35.3(30) . . .
38.2(34) . . .
44.6(35) . . .
50(4) . . .
55(4) . . .
43(4) . . .
45(4) . . .
42.5(34) . . .
40(4) . . .
46(4) . . .
54(4) . . .
47(4) . . .
56(4) . . .
51(4) . . .
52(4) . . .
48(4) . . .
46(4) . . .
44.3(35) . . .
52(4) . . .
46(4) . . .
43(4) . . .
50(4) . . .
42.9(34) . . .
46(4) . . .
48(4) . . .
48(4) . . .
41.5(33) . . .
36.0(31) . . .
43(4) . . .
44(4) . . .
44(4) . . .
46.0(35) . . .
47(4) . . .
45(4) . . .
45(4) . . .
46(4) . . .
40.7(33) . . .
50(4) . . .
52(4) . . .
55(4) . . .
48(4) . . .
52(4) . . .
52(4) . . .
62(4) . . .
48(4) . . .
46(4) . . .
61(4) . . .
50(4) . . .
53(4) . . .
44(4) . . .
47(4) . . .
41.5(34) . . .
53(4) . . .
45(4) . . .
40.3(34) . . .
43.6(34) . . .
51(4) . . .
59(4) . . .
49(4) . . .
52(4) . . .
43.0(34) . . .
39.6(33) . . .
45(4) . . .
38.2(33) . . .
44(4) . . .
44.5(35) . . .
55(4) . . .
53(4) . . .
47(4) . . .
54(4) . . .
54(4) . . .
44.4(35) . . .
37.2(33) . . .
36.7(35) . . .
53(4) . . .
45(4) . . .
45(4) . . .
47(4) . . .
52(4) . . .
51(4) . . .
50(4) . . .
43.8(35) . . .
35.4(31) . . .
47(4) . . .
48(4) . . .
57(4) . . .
43.9(35) . . .
58(4) . . .
67(4) . . .
54(4) . . .
55(4) . . .
58(4) . . .
49(4) . . .
50(4) . . .
51(4) . . .
47(4) . . .
47(4) . . .
43.0(35) . . .
49(4) . . .
48(4) . . .
48(4) . . .
53(4) . . .
40.6(34) . . .
53(4) . . .
50(4) . . .
59(4) . . .
51(4) . . .
49(4) . . .
53(4) . . .
51(4) . . .
43.3(35) . . .
46(4) . . .
49(4) . . .
52(4) . . .
43.7(34) . . .
40.9(34) . . .
47(4) . . .
47(4) . . .
39.1(33) . . .
42.4(34) . . .
38.1(32) . . .
44(4) . . .
55(4) . . .
58(4) . . .
43.3(34) . . .
51(4) . . .
35.2(32) . . .
55(5) . . .
44(4) . . .
47(4) . . .
46.0(35) . . .
48(4) . . .
44(4) . . .
50(4) . . .
57(4) . . .
42.2(35) . . .
46(4) . . .
52(4) . . .
54(4) . . .
51(4) . . .
46(4) . . .
48(4) . . .
54(4) . . .
48(4) . . .
39.7(32) . . .
43.2(35) . . .
43(4) . . .
45(4) . . .
57(4) . . .
51(4) . . .
45(4) . . .
54(4) . . .
48(4) . . .
49(4) . . .
50(4) . . .
54(4) . . .
54(4) . . .
45(4) . . .
47(4) . . .
48(4) . . .
45(4) . . .
42.1(35) . . .
61(4) . . .
43.5(34) . . .
46(4) . . .
53(4) . . .
52(4) . . .
44(4) . . .
49(4) . . .
51(4) . . .
47(4) . . .
54(4) . . .
37.8(33) . . .
41(4) . . .
48(4) . . .
43.5(34) . . .
36.3(31) . . .
46(4) . . .
50(4) . . .
49(4) . . .
49(4) . . .
50(4) . . .
56(4) . . .
47(4) . . .
52(4) . . .
64(4) . . .
54(4) . . .
61(4) . . .
49(4) . . .
44.8(34) . . .
53(4) . . .
52(4) . . .
49(4) . . .
46(4) . . .
59(4) . . .
41.4(33) . . .
49(4) . . .
47(4) . . .
41.9(34) . . .
47(4) . . .
55(4) . . .
56(4) . . .
60(4) . . .
47(4) . . .
48(4) . . .
53(4) . . .
54(4) . . .
51(4) . . .
51(4) . . .
43.2(35) . . .
37.9(33) . . .
44(4) . . .
40.1(34) . . .
41.3(34) . . .
48(4) . . .
51(4) . . .
49(4) . . .
55(4) . . .
48(4) . . .
47(4) . . .
49(4) . . .
48(4) . . .
48(4) . . .
48(4) . . .
45(4) . . .
49(4) . . .
58(4) . . .
40.3(33) . . .
46(4) . . .
50(4) . . .
43(4) . . .
50(4) . . .
48(4) . . .
45.6(35) . . .
49(4) . . .
51(4) . . .
58(4) . . .
52(4) . . .
49(4) . . .
54(4) . . .
55(4) . . .
49(4) . . .
33.8(30) . . .
44.8(35) . . .
53(4) . . .
47(4) . . .
46(4) . . .
48(4) . . .
47(4) . . .
54(4) . . .
46(4) . . .
42.9(35) . . .
43(4) . . .
52(4) . . .
52(4) . . .
53(4) . . .
52(4) . . .
50(4) . . .
55(4) . . .
49(4) . . .
51(4) . . .
54(4) . . .
48(4) . . .
41.4(35) . . .
50(4) . . .
58(4) . . .
51(4) . . .
42.3(34) . . .
47(4) . . .
51(4) . . .
45(4) . . .
45.1(35) . . .
49(4) . . .
45(4) . . .
43(4) . . .
58(4) . . .
48(4) . . .
44.7(35) . . .
51(4) . . .
45(4) . . .
42.7(34) . . .
50(4) . . .
60(4) . . .
44(4) . . .
36.2(33) . . .
51(4) . . .
52(4) . . .
39.6(33) . . .
43.6(35) . . .
55(4) . . .
50(4) . . .
48(4) . . .
44(4) . . .
48(4) . . .
45(4) . . .
40.8(34) . . .
55(4) . . .
45(4) . . .
41.4(35) . . .
49(4) . . .
44.4(35) . . .
43.4(34) . . .
42.9(34) . . .
55(4) . . .
53(4) . . .
43.1(34) . . .
57(4) . . .
45(4) . . .
37.5(33) . . .
40.0(34) . . .
54(4) . . .
50(4) . . .
40(4) . . .
44(4) . . .
49(4) . . .
43.6(34) . . .
49(4) . . .
47(4) . . .
52(4) . . .
46(4) . . .
56(4) . . .
47(4) . . .
50(4) . . .
46(4) . . .
42(4) . . .
40.4(34) . . .
40.6(33) . . .
50(4) . . .
46(4) . . .
46(4) . . .
51(4) . . .
49(4) . . .
51(4) . . .
50(4) . . .
45(4) . . .
48(4) . . .
48(4) . . .
49(4) . . .
54(4) . . .
60(4) . . .
46(4) . . .
46(4) . . .
52(4) . . .
51(4) . . .
50(4) . . .
54(4) . . .
46(4) . . .
48(4) . . .
50(4) . . .
45(4) . . .
45(4) . . .
45.2(35) . . .
45(4) . . .
52(4) . . .
47(4) . . .
60(4) . . .
53(4) . . .
41.5(34) . . .
51(4) . . .
53(4) . . .
49(4) . . .
49(4) . . .
47(4) . . .
49(4) . . .
47(4) . . .
44.5(35) . . .
45(4) . . .
51(4) . . .
48(4) . . .
49(4) . . .
53(4) . . .
50(4) . . .
45(4) . . .
53(4) . . .
49(4) . . .
55(4) . . .
51(4) . . .
47(4) . . .
43(4) . . .
52(4) . . .
42.8(33) . . .
54(4) . . .
50(4) . . .
56(4) . . .
42.2(34) . . .
40.3(35) . . .
44(4) . . .
50(4) . . .
49(4) . . .
50(4) . . .
51(4) . . .
40.7(34) . . .
41.3(34) . . .
51(4) . . .
65(4) . . .
55(4) . . .
57(4) . . .
48(4) . . .
45(4) . . .
53(4) . . .
54(4) . . .
49(4) . . .
59(4) . . .
46(4) . . .
47(4) . . .
56(4) . . .
64(4) . . .
45(4) . . .
35.4(32) . . .
42.9(34) . . .
56(4) . . .
53(4) . . .
44.0(35) . . .
45(4) . . .
37.0(31) . . .
45(4) . . .
42.1(35) . . .
60(4) . . .
50(4) . . .
49(4) . . .
46(4) . . .
48(4) . . .
57(4) . . .
42.3(34) . . .
34.0(30) . . .
48(4) . . .
38.8(33) . . .
37(4) . . .
52(4) . . .
54(4) . . .
49(4) . . .
46(4) . . .
47(4) . . .
48(4) . . .
49(4) . . .
56(4) . . .
53(4) . . .
51(4) . . .
34.3(31) . . .
50(4) . . .
52(4) . . .
46(4) . . .
58(4) . . .
46(4) . . .
44.3(34) . . .
52(4) . . .
55(4) . . .
43(4) . . .
51(4) . . .
44.5(35) . . .
47(4) . . .
46(4) . . .
46(4) . . .
45(4) . . .
42.3(34) . . .
48(4) . . .
35.8(32) . . .
48(4) . . .
43.5(34) . . .
48(4) . . .
58(4) . . .
52(4) . . .
47(4) . . .
51(4) . . .
56(4) . . .
52(4) . . .
42(4) . . .
47(4) . . .
50(4) . . .
56(4) . . .
47(4) . . .
50(4) . . .
45(4) . . .
39.2(32) . . .
44(4) . . .
42(4) . . .
46(4) . . .
53(4) . . .
47(4) . . .
46(4) . . .
54(4) . . .
45(4) . . .
46(4) . . .
40.9(33) . . .
47(4) . . .
61(4) . . .
51(4) . . .
53(4) . . .
47(4) . . .
44.2(35) . . .
46(4) . . .
49(4) . . .
40.7(33) . . .
49(4) . . .
53(4) . . .
41.1(33) . . .
50(4) . . .
48(4) . . .
53(4) . . .
47(4) . . .
50(4) . . .
48(4) . . .
53(4) . . .
45(4) . . .
51(4) . . .
45(4) . . .
52(4) . . .
50(4) . . .
47(4) . . .
45(4) . . .
56(4) . . .
53(4) . . .
46(4) . . .
48(4) . . .
43(4) . . .
38.1(33) . . .
42.7(35) . . .
57(4) . . .
52(4) . . .
53(4) . . .
47(4) . . .
44.4(35) . . .
35.8(31) . . .
53(4) . . .
47(4) . . .
42(4) . . .
38.5(33) . . .
47(4) . . .
48(4) . . .
39.1(34) . . .
43.2(35) . . .
55(4) . . .
50(4) . . .
53(4) . . .
39.0(33) . . .
49(4) . . .
49(4) . . .
45(4) . . .
42.8(35) . . .
53(4) . . .
50(4) . . .
45.1(34) . . .
47(4) . . .
49(4) . . .
49(4) . . .
48(4) . . .
43.8(34) . . .
47(4) . . .
50(4) . . .
48(4) . . .
50(4) . . .
45(4) . . .
54(4) . . .
43(4) . . .
46(4) . . .
50(4) . . .
45(4) . . .
49(4) . . .
48(4) . . .
51(4) . . .
39.5(33) . . .
47(4) . . .
48(4) . . .
40.5(34) . . .
52(4) . . .
52(4) . . .
46(4) . . .
47(4) . . .
42(4) . . .
36.5(32) . . .
49(4) . . .
50(4) . . .
45(4) . . .
56(4) . . .
41.8(33) . . .
44(4) . . .
42.0(34) . . .
50(4) . . .
48(4) . . .
54(4) . . .
42.0(33) . . .
43.8(34) . . .
47(4) . . .
49(4) . . .
48(4) . . .
51(4) . . .
57(4) . . .
51(4) . . .
50(4) . . .
50(4) . . .
44.4(34) . . .
44.2(35) . . .
46(4) . . .
49(4) . . .
55(4) . . .
39.1(32) . . .
48(4) . . .
57(4) . . .
49(4) . . .
48(4) . . .
51(4) . . .
53(4) . . .
42(4) . . .
43.4(35) . . .
63(4) . . .
43.5(35) . . .
50(4) . . .
43.0(34) . . .
39(4) . . .
40.4(34) . . .
42.5(34) . . .
42(4) . . .
44(4) . . .
43(4) . . .
52(4) . . .
54(4) . . .
51(4) . . .
43.6(34) . . .
45(4) . . .
46(4) . . .
61(4) . . .
51(4) . . .
52(4) . . .
42.3(35) . . .
50(4) . . .
54(4) . . .
52(4) . . .
46(4) . . .
45(4) . . .
44.8(34) . . .
50(4) . . .
42.3(34) . . .
43(4) . . .
38.5(32) . . .
50(4) . . .
56(4) . . .
53(4) . . .
42(4) . . .
46(4) . . .
48(4) . . .
49(4) . . .
37.5(33) . . .
44(4) . . .
63(5) . . .
44.1(35) . . .
50(4) . . .
46(4) . . .
48(4) . . .
44.4(35) . . .
47(4) . . .
53(4) . . .
49(4) . . .
43.3(34) . . .
46(4) . . .
36.9(32) . . .
47(4) . . .
46(4) . . .
46.0(35) . . .
40.0(33) . . .
43.0(34) . . .
47(4) . . .
50(4) . . .
52(4) . . .
53(4) . . .
47(4) . . .
46(4) . . .
49(4) . . .
50(4) . . .
50(4) . . .
40.7(33) . . .
47(4) . . .
52(4) . . .
44(4) . . .
42.9(34) . . .
46(4) . . .
48(4) . . .
53(4) . . .
43(4) . . .
42.9(35) . . .
48(4) . . .
47(4) . . .
63(5) . . .
51(4) . . .
46(4) . . .
51(4) . . .
48(4) . . .
50(4) . . .
48(4) . . .
53(4) . . .
48(4) . . .
48(4) . . .
45(4) . . .
40.4(35) . . .
45(4) . . .
53(4) . . .
40.9(33) . . .
47(4) . . .
53(4) . . .
51(4) . . .
53(4) . . .
55(4) . . .
48(4) . . .
42.5(34) . . .
42.8(34) . . .
41.6(34) . . .
46(4) . . .
44(4) . . .
50(4) . . .
43.7(34) . . .
43(4) . . .
40.2(34) . . .
50(4) . . .
58(4) . . .
40.5(33) . . .
40.1(34) . . .
39.9(32) . . .
50(4) . . .
51(4) . . .
49(4) . . .
37.5(32) . . .
51(4) . . .
47(4) . . .
39.9(33) . . .
51(4) . . .
46(4) . . .
44(4) . . .
50(4) . . .
36.0(31) . . .
43.1(34) . . .
38.0(33) . . .
53(4) . . .
40.6(33) . . .
54(4) . . .
49(4) . . .
42.0(34) . . .
50(4) . . .
46(4) . . .
41.5(33) . . .
37.5(32) . . .
38.3(34) . . .
46(4) . . .
49(4) . . .
40.4(33) . . .
48(4) . . .
55(4) . . .
52(4) . . .
38.4(33) . . .
43.5(34) . . .
52(4) . . .
45.2(34) . . .
49(4) . . .
45(4) . . .
52(4) . . .
43.1(34) . . .
54(4) . . .
41(4) . . .
45(4) . . .
60(4) . . .
44(4) . . .
45(4) . . .
56(4) . . .
48(4) . . .
48(4) . . .
39.6(35) . . .
46(4) . . .
48(4) . . .
58(4) . . .
50(4) . . .
47(4) . . .
47(4) . . .
56(4) . . .
50(4) . . .
49(4) . . .
46(4) . . .
53(4) . . .
47(4) . . .
38.8(32) . . .
48(4) . . .
43.6(35) . . .
38.1(33) . . .
47(4) . . .
38.7(32) . . .
46(4) . . .
52(4) . . .
46(4) . . .
50(4) . . .
46(4) . . .
44.3(35) . . .
43.8(35) . . .
49(4) . . .
44(4) . . .
52(4) . . .
51(4) . . .
55(4) . . .
51(4) . . .
47(4) . . .
63(4) . . .
40.4(33) . . .
41.7(34) . . .
42(4) . . .
48(4) . . .
43(4) . . .
40.5(35) . . .
49(4) . . .
50(4) . . .
46(4) . . .
41.2(33) . . .
38.0(33) . . .
40.7(35) . . .
44(4) . . .
59(4) . . .
50(4) . . .
46(4) . . .
46(4) . . .
40.0(33) . . .
56(4) . . .
41.8(34) . . .
47(4) . . .
49(4) . . .
47(4) . . .
47(4) . . .
52(4) . . .
51(4) . . .
47(4) . . .
50(4) . . .
49(4) . . .
43.9(34) . . .
54(4) . . .
53(4) . . .
47(4) . . .
46(4) . . .
53(4) . . .
46(4) . . .
48(4) . . .
43.1(34) . . .
42.9(34) . . .
44.1(34) . . .
58(4) . . .
43(4) . . .
46(4) . . .
41.3(34) . . .
48(4) . . .
57(4) . . .
52(4) . . .
51(4) . . .
54(4) . . .
50(4) . . .
49(4) . . .
46(4) . . .
47(4) . . .
43.7(34) . . .
46(4) . . .
51(4) . . .
50(4) . . .
45(4) . . .
31.9(30) . . .
43.7(35) . . .
48(4) . . .
47(4) . . .
39.5(34) . . .
44.3(35) . . .
40.0(33) . . .
43(4) . . .
46(4) . . .
46(4) . . .
47(4) . . .
58(4) . . .
39.8(32) . . .
51(4) . . .
45(4) . . .
47(4) . . .
56(4) . . .
47(4) . . .
47(4) . . .
38.2(32) . . .
44.4(35) . . .
51(4) . . .
42(4) . . .
49(4) . . .
48(4) . . .
38.7(33) . . .
48(4) . . .
43.1(35) . . .
43(4) . . .
44(4) . . .
39.6(33) . . .
39.4(34) . . .
45(4) . . .
45(4) . . .
52(4) . . .
58(4) . . .
49(4) . . .
45(4) . . .
39.7(34) . . .
45.5(35) . . .
38.6(32) . . .
44(4) . . .
43(4) . . .
44(4) . . .
54(4) . . .
51(4) . . .
46(4) . . .
47(4) . . .
43.0(34) . . .
46(4) . . .
47(4) . . .
42.5(35) . . .
48(4) . . .
46(4) . . .
38.8(32) . . .
34.2(31) . . .
40.3(34) . . .
56(4) . . .
38.3(32) . . .
51(4) . . .
48(4) . . .
45(4) . . .
50(4) . . .
47(4) . . .
52(4) . . .
52(4) . . .
43(4) . . .
53(4) . . .
40.8(33) . . .
44(4) . . .
47(4) . . .
51(4) . . .
51(4) . . .
48(4) . . .
51(4) . . .
46(4) . . .
50(4) . . .
50(4) . . .
48(4) . . .
47(4) . . .
51(4) . . .
40.5(34) . . .
43.3(35) . . .
44(4) . . .
51(4) . . .
37.1(35) . . .
42(4) . . .
53(4) . . .
48(4) . . .
54(4) . . .
43.6(35) . . .
44(4) . . .
39.7(33) . . .
46(4) . . .
52(4) . . .
43(4) . . .
40.1(34) . . .
48(4) . . .
44.8(34) . . .
41.8(33) . . .
51(4) . . .
54(4) . . .
53(4) . . .
46(4) . . .
51(4) . . .
52(4) . . .
45(4) . . .
51(4) . . .
49(4) . . .
60(4) . . .
44.5(34) . . .
56(4) . . .
51(4) . . .
49(4) . . .
49(4) . . .
40.3(34) . . .
45(4) . . .
52(4) . . .
56(4) . . .
57(4) . . .
46(4) . . .
42.1(34) . . .
44(4) . . .
43.9(35) . . .
43.6(34) . . .
53(4) . . .
46(4) . . .
49(4) . . .
44(4) . . .
54(4) . . .
52(4) . . .
51(4) . . .
48(4) . . .
38.1(32) . . .
34.9(30) . . .
50(4) . . .
41.5(33) . . .
47(4) . . .
46(4) . . .
49(4) . . .
51(4) . . .
48(4) . . .
43.0(34) . . .
48(4) . . .
53(4) . . .
56(4) . . .
36.2(31) . . .
37.7(32) . . .
40.3(34) . . .
42.5(35) . . .
55(4) . . .
41.0(33) . . .
53(4) . . .
54(4) . . .
54(4) . . .
49(4) . . .
49(4) . . .
48(4) . . .
47(4) . . .
56(4) . . .
54(4) . . .
49(4) . . .
38.5(32) . . .
54(4) . . .
50(4) . . .
48(4) . . .
39.1(32) . . .
54(4) . . .
51(4) . . .
42.6(34) . . .
50(4) . . .
40.9(33) . . .
42.5(34) . . .
44(4) . . .
49(4) . . .
46(4) . . .
48(4) . . .
46(4) . . .
45(4) . . .
39(4) . . .
41(4) . . .
50(4) . . .
44.5(35) . . .
49(4) . . .
48(4) . . .
46(4) . . .
43(4) . . .
41.7(34) . . .
45(4) . . .
43(4) . . .
51(4) . . .
52(4) . . .
53(4) . . .
47(4) . . .
50(4) . . .
49(4) . . .
47(4) . . .
41.1(34) . . .
50(4) . . .
47(4) . . .
45(4) . . .
46(4) . . .
51(4) . . .
48(4) . . .
56(4) . . .
55(4) . . .
52(4) . . .
49(4) . . .
50(4) . . .
50(4) . . .
44.5(34) . . .
48(4) . . .
49(4) . . .
49(4) . . .
46(4) . . .
45(4) . . .
44.0(34) . . .
48(4) . . .
51(4) . . .
43(4) . . .
39.4(33) . . .
38.4(32) . . .
50(4) . . .
51(4) . . .
53(4) . . .
54(4) . . .
44.0(35) . . .
52(4) . . .
51(4) . . .
38.2(32) . . .
41.9(33) . . .
49(4) . . .
61(4) . . .
52(4) . . .
45(4) . . .
43.3(34) . . .
53(4) . . .
46(4) . . .
48(4) . . .
46(4) . . .
48(4) . . .
44(4) . . .
50(4) . . .
49(4) . . .
42(4) . . .
43(4) . . .
46(4) . . .
44(4) . . .
48(4) . . .
46(4) . . .
44(4) . . .
52(4) . . .
41.5(34) . . .
51(4) . . .
47(4) . . .
41.3(34) . . .
43(4) . . .
46(4) . . .
48(4) . . .
53(4) . . .
49(4) . . .
40(4) . . .
44(4) . . .
48(4) . . .
49(4) . . .
42.8(34) . . .
52(4) . . .
47(4) . . .
45(4) . . .
49(4) . . .
52(4) . . .
42.3(35) . . .
44(4) . . .
39.1(33) . . .
45(4) . . .
47(4) . . .
48(4) . . .
43(4) . . .
50(4) . . .
41.8(33) . . .
52(4) . . .
45(4) . . .
40(4) . . .
48(4) . . .
48(4) . . .
52(4) . . .
45.0(34) . . .
47(4) . . .
44(4) . . .
55(4) . . .
49(4) . . .
37.4(32) . . .
39.1(33) . . .
50(4) . . .
45.6(35) . . .
54(4) . . .
53(4) . . .
46(4) . . .
42(4) . . .
54(4) . . .
41.5(33) . . .
50(4) . . .
43.8(34) . . .
44(4) . . .
44.4(34) . . .
37.8(33) . . .
50(4) . . .
39.1(34) . . .
40.1(34) . . .
44(4) . . .
39.9(35) . . .
45(4) . . .
48(4) . . .
37.9(32) . . .
39.1(32) . . .
39.9(33) . . .
43.7(34) . . .
49(4) . . .
48(4) . . .
45(4) . . .
50(4) . . .
54(4) . . .
52(4) . . .
43.7(34) . . .
50(4) . . .
57(4) . . .
53(4) . . .
53(4) . . .
50(4) . . .
40.5(33) . . .
58(4) . . .
50(4) . . .
41(4) . . .
44(4) . . .
48(4) . . .
43.0(33) . . .
51(4) . . .
50(4) . . .
52(4) . . .
37.7(32) . . .
49(4) . . .
45(4) . . .
52(4) . . .
43.9(35) . . .
47(4) . . .
40.1(34) . . .
47(4) . . .
42.0(33) . . .
44.5(35) . . .
48(4) . . .
50(4) . . .
43.8(35) . . .
42(4) . . .
40.8(33) . . .
58(4) . . .
43(4) . . .
41(4) . . .
49(4) . . .
43.8(34) . . .
42.5(35) . . .
52(4) . . .
44.3(34) . . .
43.7(35) . . .
34.8(31) . . .
31.5(30) . . .
44(4) . . .
48(4) . . .
47(4) . . .
33.8(30) . . .
48(4) . . .
50(4) . . .
41(4) . . .
42.7(35) . . .
40.4(33) . . .
50(4) . . .
54(4) . . .
43.2(35) . . .
52(4) . . .
46(4) . . .
42.5(35) . . .
47(4) . . .
45.6(35) . . .
49(4) . . .
43.6(34) . . .
41.7(33) . . .
44(4) . . .
44(4) . . .
47(4) . . .
38.4(33) . . .
47(4) . . .
41(4) . . .
42.4(35) . . .
43.7(34) . . .
46(4) . . .
37.3(35) . . .
50(4) . . .
47(4) . . .
45(4) . . .
41.2(34) . . .
50(4) . . .
49(4) . . .
52(4) . . .
53(4) . . .
46(4) . . .
44(4) . . .
49(4) . . .
45(4) . . .
52(4) . . .
42.1(34) . . .
44(4) . . .
43(4) . . .
44.0(34) . . .
33.3(31) . . .
53(4) . . .
44(4) . . .
45(4) . . .
50(4) . . .
49(4) . . .
45(4) . . .
38.2(33) . . .
50(4) . . .
49(4) . . .
56(4) . . .
51(4) . . .
52(4) . . .
53(4) . . .
46.5(35) . . .
52(4) . . .
43.9(35) . . .
44(4) . . .
46(4) . . .
46(4) . . .
41.0(33) . . .
43(4) . . .
43(4) . . .
38.5(32) . . .
57(4) . . .
42.5(34) . . .
42.8(35) . . .
45(4) . . .
48(4) . . .
49(4) . . .
50(4) . . .
41.9(35) . . .
50(4) . . .
56(4) . . .
58(4) . . .
39.1(33) . . .
47(4) . . .
50(4) . . .
45(4) . . .
50(4) . . .
44.8(35) . . .
42(4) . . .
43(4) . . .
55(4) . . .
59(4) . . .
48(4) . . .
44(4) . . .
50(4) . . .
51(4) . . .
44.2(35) . . .
43(4) . . .
47(4) . . .
53(4) . . .
52(4) . . .
44.7(35) . . .
53(4) . . .
46(4) . . .
45(4) . . .
41.5(33) . . .
41.9(34) . . .
49(4) . . .
58(4) . . .
47(4) . . .
45.5(35) . . .
47(4) . . .
44(4) . . .
48(4) . . .
39.8(34) . . .
37.9(32) . . .
40.3(33) . . .
47(4) . . .
43(4) . . .
54(4) . . .
42.9(34) . . .
57(4) . . .
47(4) . . .
38.7(32) . . .
50(4) . . .
47(4) . . .
40.9(35) . . .
44(4) . . .
40.0(34) . . .
38.7(34) . . .
49(4) . . .
50(4) . . .
46(4) . . .
44(4) . . .
46(4) . . .
49(4) . . .
52(4) . . .
55(4) . . .
41.0(34) . . .
49(4) . . .
47(4) . . .
50(4) . . .
40.2(33) . . .
55(4) . . .
39.0(34) . . .
49(4) . . .
49(4) . . .
41.0(35) . . .
50(4) . . .
48(4) . . .
50(4) . . .
45(4) . . .
50(4) . . .
43(4) . . .
46(4) . . .
47(4) . . .
47(4) . . .
54(4) . . .
48(4) . . .
42.2(35) . . .
48(4) . . .
46(4) . . .
47(4) . . .
54(4) . . .
54(4) . . .
51(4) . . .
44(4) . . .
39.8(35) . . .
47(4) . . .
50(4) . . .
44.9(34) . . .
46(4) . . .
46(4) . . .
36.3(32) . . .
44.1(34) . . .
44(4) . . .
46(4) . . .
45(4) . . .
48(4) . . .
36.9(32) . . .
40.8(33) . . .
45(4) . . .
52(4) . . .
47(4) . . .
40.8(33) . . .
47(4) . . .
47(4) . . .
46(4) . . .
56(4) . . .
58(4) . . .
50(4) . . .
49(4) . . .
44(4) . . .
49(4) . . .
52(4) . . .
41.3(34) . . .
47(4) . . .
41.7(34) . . .
36.9(33) . . .
45(4) . . .
50(4) . . .
47(4) . . .
45(4) . . .
44.7(35) . . .
49(4) . . .
59(4) . . .
45(4) . . .
46(4) . . .
47(4) . . .
42.5(34) . . .
50(4) . . .
51(4) . . .
43(4) . . .
40.7(34) . . .
52(4) . . .
47(4) . . .
48(4) . . .
43.5(34) . . .
49(4) . . .
48(4) . . .
51(4) . . .
45(4) . . .
42.9(34) . . .
50(4) . . .
47(4) . . .
51(4) . . .
46(4) . . .
41.5(34) . . .
46(4) . . .
51(4) . . .
46(4) . . .
50(4) . . .
53(4) . . .
40.8(34) . . .
46(4) . . .
45.8(35) . . .
44.1(35) . . .
47(4) . . .
41.2(33) . . .
39.6(35) . . .
42(4) . . .
44(4) . . .
39.9(34) . . .
54(4) . . .
43(4) . . .
45(4) . . .
45(4) . . .
48(4) . . .
56(4) . . .
47(4) . . .
47(4) . . .
43(4) . . .
45.7(35) . . .
47(4) . . .
47(4) . . .
54(4) . . .
51(4) . . .
41.2(33) . . .
39.6(33) . . .
51(4) . . .
52(4) . . .
45(4) . . .
32.7(30) . . .
43.5(34) . . .
46(4) . . .
37.1(33) . . .
35.9(31) . . .
47(4) . . .
48(4) . . .
44.6(35) . . .
47(4) . . .
29.9(30) . . .
41.9(34) . . .
42.9(34) . . .
52(4) . . .
43(4) . . .
51(4) . . .
52(4) . . .
59(4) . . .
43(4) . . .
48(4) . . .
41.5(35) . . .
47(4) . . .
44(4) . . .
50(4) . . .
49(4) . . .
54(4) . . .
43.0(34) . . .
49(4) . . .
48(4) . . .
52(4) . . .
51(4) . . .
45(4) . . .
47(4) . . .
50(4) . . .
53(4) . . .
51(4) . . .
31.9(29) . . .
44(4) . . .
52(4) . . .
47(4) . . .
47(4) . . .
37.9(32) . . .
52(4) . . .
47(4) . . .
42.0(33) . . .
48(4) . . .
43.6(34) . . .
38(4) . . .
43(4) . . .
50(4) . . .
46(4) . . .
44.6(35) . . .
46(4) . . .
40(4) . . .
43(4) . . .
47(4) . . .
45.7(35) . . .
52(4) . . .
42.1(34) . . .
40.2(34) . . .
43.9(34) . . .
42.2(34) . . .
42.0(33) . . .
46(4) . . .
41.5(34) . . .
48(4) . . .
45(4) . . .
48(4) . . .
52(4) . . .
47(4) . . .
50(4) . . .
45(4) . . .
50(4) . . .
55(4) . . .
39.5(33) . . .
40.8(33) . . .
46(4) . . .
52(4) . . .
37.8(33) . . .
53(4) . . .
50(4) . . .
40.8(34) . . .
57(4) . . .
44(4) . . .
45.7(35) . . .
41.4(34) . . .
49(4) . . .
51(4) . . .
45(4) . . .
38.0(33) . . .
43.5(34) . . .
45(4) . . .
46(4) . . .
39.9(35) . . .
43(4) . . .
50(4) . . .
53(4) . . .
47(4) . . .
45(4) . . .
39.2(33) . . .
44(4) . . .
46(4) . . .
54(4) . . .
50(4) . . .
39.4(33) . . .
39.9(33) . . .
45(4) . . .
42(4) . . .
44.9(35) . . .
54(4) . . .
52(4) . . .
44.0(34) . . .
41(4) . . .
44(4) . . .
41.8(33) . . .
41.7(34) . . .
48(4) . . .
48(4) . . .
43.2(35) . . .
41.6(34) . . .
48(4) . . .
42.8(35) . . .
46(4) . . .
47(4) . . .
41.5(34) . . .
49(4) . . .
44(4) . . .
38.3(33) . . .
55(4) . . .
41.6(34) . . .
41.5(35) . . .
38.3(34) . . .
49(4) . . .
52(4) . . .
53(4) . . .
44(4) . . .
41.6(35) . . .
50(4) . . .
49(4) . . .
45.1(35) . . .
41.5(34) . . .
46(4) . . .
48(4) . . .
45(4) . . .
39.9(33) . . .
44(4) . . .
45(4) . . .
43(4) . . .
39.9(33) . . .
48(4) . . .
45(4) . . .
33.5(31) . . .
51(4) . . .
42.8(34) . . .
40.5(33) . . .
50(4) . . .
54(4) . . .
39.5(35) . . .
38.8(33) . . .
42.8(34) . . .
48(4) . . .
43(4) . . .
47(4) . . .
44.5(35) . . .
50(4) . . .
44(4) . . .
48(4) . . .
45(4) . . .
43.1(34) . . .
49(4) . . .
45(4) . . .
40(4) . . .
38.4(33) . . .
48(4) . . .
52(4) . . .
41.5(34) . . .
43(4) . . .
43(4) . . .
48(4) . . .
39.7(34) . . .
37.3(33) . . .
46(4) . . .
49(4) . . .
51(4) . . .
46(4) . . .
52(4) . . .
51(4) . . .
41.2(33) . . .
47(4) . . .
37.1(32) . . .
45(4) . . .
48(4) . . .
49(4) . . .
51(4) . . .
50(4) . . .
39(4) . . .
43.3(35) . . .
42.0(34) . . .
39.8(33) . . .
37.7(33) . . .
54(4) . . .
40.5(34) . . .
47(4) . . .
48(4) . . .
38.7(33) . . .
43(4) . . .
43(4) . . .
46(4) . . .
50(4) . . .
52(4) . . .
46(4) . . .
46(4) . . .
50(4) . . .
46(4) . . .
41.7(34) . . .
44(4) . . .
55(4) . . .
51(4) . . .
47(4) . . .
43.8(35) . . .
42.0(34) . . .
49(4) . . .
46(4) . . .
50(4) . . .
45(4) . . .
40.8(35) . . .
36.5(32) . . .
45(4) . . .
37.7(31) . . .
53(4) . . .
46(4) . . .
40.9(34) . . .
46(4) . . .
46(4) . . .
50(4) . . .
46(4) . . .
39.0(33) . . .
44.4(34) . . .
36.3(32) . . .
50(4) . . .
47(4) . . .
54(4) . . .
51(4) . . .
52(4) . . .
38.4(34) . . .
41.2(35) . . .
43(4) . . .
46(4) . . .
52(4) . . .
48(4) . . .
47(4) . . .
49(4) . . .
41.4(33) . . .
44(4) . . .
41(4) . . .
45(4) . . .
42.8(34) . . .
47(4) . . .
45(4) . . .
46(4) . . .
50(4) . . .
42.2(34) . . .
48(4) . . .
50(4) . . .
46(4) . . .
48(4) . . .
38.8(33) . . .
37.2(32) . . .
38.5(33) . . .
50(4) . . .
42(4) . . .
39.9(33) . . .
49(4) . . .
52(4) . . .
45(4) . . .
43(4) . . .
46(4) . . .
46(4) . . .
45(4) . . .
46(4) . . .
47(4) . . .
47(4) . . .
44(4) . . .
40(4) . . .
49(4) . . .
64(4) . . .
49(4) . . .
50(4) . . .
44(4) . . .
43(4) . . .
49(4) . . .
48(4) . . .
45(4) . . .
48(4) . . .
37.3(32) . . .
43.6(34) . . .
49(4) . . .
50(4) . . .
53(4) . . .
53(4) . . .
47(4) . . .
50(4) . . .
44(4) . . .
42(4) . . .
44(4) . . .
45(4) . . .
45.2(35) . . .
44(4) . . .
46(4) . . .
40.6(34) . . .
49(4) . . .
38.6(32) . . .
47(4) . . .
50(4) . . .
58(4) . . .
44.1(35) . . .
42.1(34) . . .
47(4) . . .
53(4) . . .
39.5(34) . . .
54(4) . . .
44(4) . . .
42.5(35) . . .
35.3(31) . . .
48(4) . . .
44.0(34) . . .
51(4) . . .
46(4) . . .
42(4) . . .
40.1(34) . . .
59(4) . . .
55(4) . . .
44(4) . . .
44(4) . . .
53(4) . . .
48(4) . . .
42(4) . . .
42.1(34) . . .
49(4) . . .
39.4(34) . . .
39.6(33) . . .
42.7(35) . . .
57(4) . . .
49(4) . . .
54(4) . . .
41.5(33) . . .
45(4) . . .
37.3(34) . . .
44(4) . . .
43.1(35) . . .
49(4) . . .
37.8(35) . . .
43(4) . . .
42.3(35) . . .
49(4) . . .
56(4) . . .
36.2(32) . . .
37.3(34) . . .
43(4) . . .
39.7(33) . . .
51(4) . . .
49(4) . . .
55(4) . . .
45(4) . . .
34.9(31) . . .
35.4(31) . . .
37.1(32) . . .
39(4) . . .
51(4) . . .
54(4) . . .
48(4) . . .
53(4) . . .
48(4) . . .
49(4) . . .
45(4) . . .
48(4) . . .
47(4) . . .
50(4) . . .
44.1(35) . . .
48(4) . . .
38.9(33) . . .
53(4) . . .
48(4) . . .
49(4) . . .
46(4) . . .
44.3(34) . . .
44(4) . . .
48(4) . . .
39.8(35) . . .
41.2(34) . . .
45(4) . . .
49(4) . . .
39.3(33) . . .
46(4) . . .
40.8(34) . . .
42(4) . . .
54(4) . . .
49(4) . . .
48(4) . . .
43.0(34) . . .
40.3(34) . . .
53(4) . . .
43(4) . . .
43.7(34) . . .
39.7(33) . . .
54(4) . . .
54(4) . . .
39.1(32) . . .
49(4) . . .
44(4) . . .
34.5(31) . . .
35.5(34) . . .
49(4) . . .
41.1(33) . . .
36.9(32) . . .
44(4) . . .
39.2(33) . . .
44(4) . . .
42.2(33) . . .
42.4(34) . . .
48(4) . . .
58(4) . . .
44.1(35) . . .
42.2(34) . . .
38.6(32) . . .
45(4) . . .
39.6(34) . . .
44.5(35) . . .
43.5(34) . . .
39.9(34) . . .
39(4) . . .
45(4) . . .
42.8(35) . . .
38.1(33) . . .
43.6(35) . . .
54(4) . . .
44(4) . . .
43(4) . . .
59(4) . . .
31.9(30) . . .
43(4) . . .
51(4) . . .
48(4) . . .
42.5(35) . . .
48(4) . . .
44(4) . . .
42(4) . . .
39.5(35) . . .
42.8(34) . . .
45(4) . . .
45(4) . . .
54(4) . . .
45(4) . . .
37.3(33) . . .
36(4) . . .
37.8(35) . . .
39.7(34) . . .
42.1(34) . . .
48(4) . . .
51(4) . . .
47(4) . . .
44.3(34) . . .
41.8(34) . . .
47(4) . . .
48(4) . . .
52(4) . . .
48(4) . . .
54(4) . . .
44.7(34) . . .
40.2(32) . . .
50(4) . . .
42.1(33) . . .
48(4) . . .
39.8(33) . . .
44(4) . . .
48(4) . . .
56(4) . . .
42.2(34) . . .
42.8(35) . . .
48(4) . . .
48(4) . . .
41.4(34) . . .
39.6(33) . . .
50(4) . . .
43.4(34) . . .
47(4) . . .
34.0(32) . . .
41.8(34) . . .
46(4) . . .
43(4) . . .
45(4) . . .
38.5(32) . . .
37.7(32) . . .
40(4) . . .
43(4) . . .
55(4) . . .
54(4) . . .
42.8(35) . . .
37.2(34) . . .
49(4) . . .
51(4) . . .
43.5(35) . . .
46(4) . . .
48(4) . . .
40.4(35) . . .
40.5(34) . . .
45(4) . . .
50(4) . . .
45(4) . . .
41(4) . . .
53(4) . . .
48(4) . . .
49(4) . . .
48(4) . . .
42(4) . . .
43(4) . . .
45.3(35) . . .
55(4) . . .
43(4) . . .
41(4) . . .
42(4) . . .
56(4) . . .
42(4) . . .
47(4) . . .
43(4) . . .
36.2(33) . . .
40.8(33) . . .
40.6(34) . . .
44(4) . . .
41.2(34) . . .
41.3(33) . . .
45(4) . . .
44(4) . . .
38.0(33) . . .
50(4) . . .
39.4(33) . . .
48(4) . . .
46(4) . . .
42.0(35) . . .
37.5(33) . . .
44(4) . . .
44.2(35) . . .
48(4) . . .
52(4) . . .
42.1(34) . . .
58(4) . . .
39.2(32) . . .
38.7(35) . . .
46(4) . . .
43.0(35) . . .
48(4) . . .
51(4) . . .
55(4) . . .
47(4) . . .
43(4) . . .
49(4) . . .
36.5(32) . . .
48(4) . . .
48(4) . . .
47(4) . . .
48(4) . . .
45(4) . . .
44(4) . . .
42(4) . . .
41.3(35) . . .
41.8(33) . . .
45(4) . . .
43(4) . . .
36(4) . . .
43(4) . . .
49(4) . . .
43.5(35) . . .
46(4) . . .
50(4) . . .
40.4(33) . . .
38.1(32) . . .
42(4) . . .
40.0(34) . . .
45(4) . . .
44(4) . . .
57(4) . . .
39.6(33) . . .
38.4(33) . . .
56(4) . . .
56(4) . . .
47(4) . . .
36.8(33) . . .
47(4) . . .
54(4) . . .
37.9(32) . . .
50(4) . . .
56(4) . . .
54(4) . . .
50(4) . . .
48(4) . . .
37.5(33) . . .
40(4) . . .
41.5(35) . . .
44.0(35) . . .
43.9(35) . . .
39.6(33) . . .
50(4) . . .
49(4) . . .
48(4) . . .
43.2(35) . . .
44.6(35) . . .
39.5(33) . . .
46(4) . . .
52(4) . . .
42.8(34) . . .
48(4) . . .
48(4) . . .
45(4) . . .
42.1(34) . . .
45(4) . . .
50(4) . . .
50(4) . . .
42(4) . . .
57(4) . . .
52(4) . . .
52(4) . . .
39.5(34) . . .
51(4) . . .
56(4) . . .
49(4) . . .
52(4) . . .
47(4) . . .
48(4) . . .
54(4) . . .
42.7(34) . . .
43.1(35) . . .
44(4) . . .
39(4) . . .
44(4) . . .
42.9(35) . . .
44(4) . . .
42(4) . . .
45(4) . . .
48(4) . . .
34.1(30) . . .
49(4) . . .
36.8(32) . . .
43(4) . . .
40.4(34) . . .
37.4(33) . . .
38.9(33) . . .
45(4) . . .
44(4) . . .
39.7(32) . . .
41.6(33) . . .
37.9(34) . . .
38.7(33) . . .
42.5(34) . . .
47(4) . . .
36.7(32) . . .
39.9(34) . . .
45(4) . . .
57(4) . . .
47(4) . . .
54(4) . . .
47(4) . . .
41(4) . . .
40.9(35) . . .
42.6(34) . . .
41.0(34) . . .
46(4) . . .
47(4) . . .
41.4(35) . . .
45(4) . . .
42.1(34) . . .
40.7(34) . . .
55(4) . . .
49(4) . . .
50(4) . . .
43(4) . . .
46(4) . . .
48(4) . . .
53(4) . . .
48(4) . . .
47(4) . . .
39.9(32) . . .
44(4) . . .
43.3(34) . . .
44.5(35) . . .
41.5(35) . . .
43.6(35) . . .
41(4) . . .
46(4) . . .
45.1(35) . . .
39.9(34) . . .
49(4) . . .
38.8(32) . . .
45(4) . . .
44(4) . . .
50(4) . . .
42(4) . . .
43(4) . . .
48(4) . . .
50(4) . . .
46(4) . . .
44(4) . . .
48(4) . . .
49(4) . . .
51(4) . . .
47(4) . . .
51(4) . . .
44(4) . . .
50(4) . . .
40.3(33) . . .
38.9(33) . . .
40.0(33) . . .
55(4) . . .
56(4) . . .
44.3(35) . . .
36.3(32) . . .
46(4) . . .
54(4) . . .
40.1(34) . . .
41.7(34) . . .
38.9(34) . . .
47(4) . . .
58(4) . . .
48(4) . . .
38.4(33) . . .
46(4) . . .
49(4) . . .
39.4(33) . . .
43.8(35) . . .
52(4) . . .
40.5(35) . . .
38.2(34) . . .
41(4) . . .
39.0(33) . . .
39.8(33) . . .
38.8(35) . . .
37.9(32) . . .
44(4) . . .
51(4) . . .
49(4) . . .
52(4) . . .
42.3(35) . . .
45(4) . . .
48(4) . . .
51(4) . . .
52(4) . . .
46(4) . . .
43.9(35) . . .
40.9(34) . . .
52(4) . . .
48(4) . . .
45(4) . . .
44.6(34) . . .
48(4) . . .
36.9(32) . . .
46(4) . . .
53(4) . . .
47(4) . . .
48(4) . . .
45(4) . . .
42(4) . . .
41(4) . . .
44.0(35) . . .
41.3(34) . . .
50(4) . . .
48(4) . . .
45(4) . . .
47(4) . . .
47(4) . . .
49(4) . . .
55(4) . . .
49(4) . . .
41.3(34) . . .
47(4) . . .
38.1(33) . . .
46(4) . . .
44(4) . . .
40.2(33) . . .
43.7(35) . . .
38.2(32) . . .
57(4) . . .
40.5(33) . . .
48(4) . . .
46(4) . . .
45(4) . . .
46(4) . . .
51(4) . . .
53(4) . . .
54(4) . . .
37.2(31) . . .
44(4) . . .
51(4) . . .
48(4) . . .
47(4) . . .
42(4) . . .
43(4) . . .
39.6(33) . . .
45(4) . . .
52(4) . . .
58(4) . . .
42(4) . . .
35.7(32) . . .
34.0(30) . . .
47(4) . . .
54(4) . . .
54(4) . . .
49(4) . . .
43.9(34) . . .
36.1(33) . . .
45(4) . . .
53(4) . . .
47(4) . . .
44.9(35) . . .
50(4) . . .
48(4) . . .
51(4) . . .
45.4(35) . . .
42.8(35) . . .
39.7(34) . . .
45(4) . . .
48(4) . . .
38.8(33) . . .
42.6(34) . . .
37.5(33) . . .
39.3(35) . . .
46(4) . . .
54(4) . . .
48(4) . . .
37.0(33) . . .
42(4) . . .
40(4) . . .
42.2(34) . . .
45(4) . . .
42(4) . . .
48(4) . . .
34.9(31) . . .
43.2(34) . . .
54(4) . . .
38.3(33) . . .
53(4) . . .
49(4) . . .
56(4) . . .
54(4) . . .
48(4) . . .
52(4) . . .
44.2(35) . . .
53(4) . . .
49(4) . . .
49(4) . . .
43(4) . . .
38.5(32) . . .
44.2(35) . . .
47(4) . . .
44(4) . . .
48(4) . . .
49(4) . . .
37.4(32) . . .
39(4) . . .
46(4) . . .
49(4) . . .
41.4(34) . . .
50(4) . . .
50(4) . . .
61(4) . . .
45(4) . . .
48(4) . . .
49(4) . . .
54(4) . . .
43(4) . . .
46(4) . . .
51(4) . . .
53(4) . . .
43(4) . . .
46(4) . . .
50(4) . . .
38.8(33) . . .
41.5(34) . . .
46(4) . . .
44(4) . . .
45(4) . . .
43.8(34) . . .
36.6(31) . . .
45(4) . . .
40.5(35) . . .
55(4) . . .
49(4) . . .
48(4) . . .
46(4) . . .
46(4) . . .
50(4) . . .
52(4) . . .
53(4) . . .
46(4) . . .
48(4) . . .
43(4) . . .
47(4) . . .
46(4) . . .
49(4) . . .
47(4) . . .
38.4(33) . . .
41.2(33) . . .
40(4) . . .
43(4) . . .
39.2(33) . . .
53(4) . . .
53(4) . . .
44(4) . . .
47(4) . . .
48(4) . . .
45.0(35) . . .
47(4) . . .
48(4) . . .
48(4) . . .
50(4) . . .
40.9(33) . . .
44.1(35) . . .
36.3(33) . . .
50(4) . . .
41(4) . . .
42.7(34) . . .
41.3(34) . . .
46(4) . . .
48(4) . . .
50(4) . . .
44.0(35) . . .
39.8(33) . . .
49(4) . . .
44(4) . . .
49(4) . . .
49(4) . . .
42.8(34) . . .
40.0(33) . . .
48(4) . . .
49(4) . . .
45.0(35) . . .
41.0(35) . . .
38.6(34) . . .
45(4) . . .
53(4) . . .
47(4) . . .
49(4) . . .
40(4) . . .
40(4) . . .
40.5(34) . . .
56(4) . . .
50(4) . . .
48(4) . . .
52(4) . . .
48(4) . . .
44(4) . . .
55(4) . . .
42(4) . . .
51(4) . . .
36.8(31) . . .
45.1(35) . . .
49(4) . . .
48(4) . . .
35.2(30) . . .
53(4) . . .
54(4) . . .
50(4) . . .
42(4) . . .
42.1(35) . . .
39.2(32) . . .
42.7(34) . . .
46(4) . . .
42(4) . . .
41(4) . . .
42.4(34) . . .
38.1(32) . . .
51(4) . . .
50(4) . . .
46(4) . . .
43.6(34) . . .
37.9(33) . . .
46(4) . . .
46(4) . . .
46(4) . . .
44.3(35) . . .
46(4) . . .
48(4) . . .
49(4) . . .
43.2(35) . . .
41.5(33) . . .
44.3(35) . . .
45(4) . . .
45(4) . . .
47(4) . . .
44.4(35) . . .
44(4) . . .
38(4) . . .
44(4) . . .
44(4) . . .
44(4) . . .
49(4) . . .
49(4) . . .
46(4) . . .
38.1(32) . . .
54(4) . . .
47(4) . . .
49(4) . . .
43(4) . . .
44(4) . . .
49(4) . . .
43.7(35) . . .
48(4) . . .
45(4) . . .
49(4) . . .
56(4) . . .
43.7(35) . . .
49(4) . . .
41.3(34) . . .
38.3(34) . . .
55(4) . . .
46(4) . . .
51(4) . . .
49(4) . . .
55(4) . . .
47(4) . . .
38.4(32) . . .
42(4) . . .
37.3(33) . . .
47(4) . . .
41.0(33) . . .
50(4) . . .
42.2(34) . . .
49(4) . . .
48(4) . . .
52(4) . . .
53(4) . . .
46(4) . . .
41.2(35) . . .
48(4) . . .
44.5(34) . . .
51(4) . . .
59(4) . . .
48(4) . . .
53(4) . . .
53(4) . . .
48(4) . . .
60(4) . . .
52(4) . . .
51(4) . . .
48(4) . . .
43(4) . . .
45(4) . . .
47(4) . . .
39.8(34) . . .
49(4) . . .
45(4) . . .
48(4) . . .
45(4) . . .
42.5(34) . . .
42.3(35) . . .
39.0(32) . . .
48(4) . . .
54(4) . . .
50(4) . . .
36.3(32) . . .
41(4) . . .
48(4) . . .
52(4) . . .
50(4) . . .
50(4) . . .
55(4) . . .
47(4) . . .
46(4) . . .
49(4) . . .
44(4) . . .
49(4) . . .
54(4) . . .
42.0(34) . . .
42.8(34) . . .
54(4) . . .
53(4) . . .
46(4) . . .
38.1(32) . . .
38.5(32) . . .
64(5) . . .
49(4) . . .
46(4) . . .
44.5(35) . . .
54(4) . . .
55(4) . . .
54(4) . . .
37.7(32) . . .
47(4) . . .
46(4) . . .
41.1(35) . . .
48(4) . . .
46(4) . . .
38.0(32) . . .
41.3(35) . . .
43(4) . . .
38.3(35) . . .
40.2(33) . . .
45.4(35) . . .
38.8(33) . . .
41(4) . . .
36.8(33) . . .
39.7(33) . . .
42.4(34) . . .
41.7(35) . . .
56(4) . . .
46(4) . . .
45(4) . . .
47(4) . . .
49(4) . . .
50(4) . . .
44(4) . . .
48(4) . . .
51(4) . . .
49(4) . . .
45(4) . . .
45(4) . . .
48(4) . . .
36.9(31) . . .
42(4) . . .
48(4) . . .
39.6(32) . . .
42.0(34) . . .
51(4) . . .
42(4) . . .
44(4) . . .
48(4) . . .
38.8(32) . . .
44.0(35) . . .
51(4) . . .
45(4) . . .
48(4) . . .
58(4) . . .
45.2(35) . . .
41.5(34) . . .
41.7(35) . . .
43(4) . . .
42.4(34) . . .
43(4) . . .
40.0(35) . . .
39(4) . . .
43.7(35) . . .
51(4) . . .
46(4) . . .
48(4) . . .
58(4) . . .
46(4) . . .
42.7(34) . . .
44(4) . . .
40.3(34) . . .
52(4) . . .
48(4) . . .
47(4) . . .
39.9(33) . . .
42(4) . . .
48(4) . . .
53(4) . . .
46(4) . . .
44(4) . . .
45.2(35) . . .
51(4) . . .
47(4) . . .
40.9(33) . . .
46(4) . . .
57(4) . . .
48(4) . . .
52(4) . . .
45(4) . . .
54(4) . . .
31.1(29) . . .
43(4) . . .
49(4) . . .
44.4(35) . . .
52(4) . . .
49(4) . . .
38.9(34) . . .
42.7(35) . . .
52(4) . . .
51(4) . . .
52(4) . . .
48(4) . . .
40.9(33) . . .
40.7(33) . . .
49(4) . . .
42(4) . . .
45(4) . . .
51(4) . . .
50(4) . . .
63(4) . . .
57(4) . . .
52(4) . . .
44.3(34) . . .
47(4) . . .
48(4) . . .
55(4) . . .
50(4) . . .
42.2(34) . . .
42.1(34) . . .
50(4) . . .
56(4) . . .
48(4) . . .
52(4) . . .
46(4) . . .
45(4) . . .
47(4) . . .
52(4) . . .
44.5(35) . . .
38.4(33) . . .
48(4) . . .
44(4) . . .
44.3(34) . . .
48(4) . . .
51(4) . . .
42(4) . . .
50(4) . . .
52(4) . . .
48(4) . . .
32.6(30) . . .
48(4) . . .
52(4) . . .
47(4) . . .
43.3(34) . . .
45(4) . . .
43(4) . . .
50(4) . . .
48(4) . . .
43.8(34) . . .
48(4) . . .
39.8(34) . . .
42.6(35) . . .
43.5(34) . . .
44(4) . . .
44(4) . . .
41.5(34) . . .
48(4) . . .
52(4) . . .
54(4) . . .
54(4) . . .
56(4) . . .
47(4) . . .
51(4) . . .
52(4) . . .
41.0(35) . . .
49(4) . . .
45(4) . . .
44(4) . . .
55(4) . . .
45(4) . . .
46(4) . . .
37.4(32) . . .
47(4) . . .
40.1(35) . . .
42(4) . . .
47(4) . . .
52(4) . . .
53(4) . . .
46(4) . . .
37.8(34) . . .
44(4) . . .
42.0(34) . . .
44.8(35) . . .
50(4) . . .
55(4) . . .
44(4) . . .
37.4(32) . . .
46(4) . . .
45(4) . . .
40.7(34) . . .
45(4) . . .
44.6(35) . . .
45.7(35) . . .
50(4) . . .
46(4) . . .
51(4) . . .
44.5(35) . . .
51(4) . . .
34.6(31) . . .
37.8(33) . . .
57(4) . . .
37.3(32) . . .
42.9(34) . . .
53(4) . . .
50(4) . . .
39.5(33) . . .
39.0(32) . . .
48(4) . . .
52(4) . . .
47(4) . . .
42.0(34) . . .
51(4) . . .
45(4) . . .
50(4) . . .
47(4) . . .
41.7(34) . . .
40.5(33) . . .
44(4) . . .
39.4(34) . . .
35.5(31) . . .
45(4) . . .
48(4) . . .
54(4) . . .
44.0(35) . . .
40.7(34) . . .
38.4(32) . . .
45(4) . . .
35.8(32) . . .
40.6(35) . . .
48(4) . . .
47(4) . . .
48(4) . . .
41.9(35) . . .
51(4) . . .
48(4) . . .
38.2(33) . . .
44(4) . . .
43.0(35) . . .
43(4) . . .
52(4) . . .
56(4) . . .
47(4) . . .
51(4) . . .
47(4) . . .
46(4) . . .
44.0(34) . . .
56(4) . . .
34.2(30) . . .
38.7(35) . . .
41.4(34) . . .
54(4) . . .
49(4) . . .
50(4) . . .
56(4) . . .
48(4) . . .
46(4) . . .
50(4) . . .
49(4) . . .
46.1(35) . . .
45(4) . . .
45.3(34) . . .
43.8(35) . . .
50(4) . . .
48(4) . . .
36.8(32) . . .
56(4) . . .
53(4) . . .
44(4) . . .
49(4) . . .
52(4) . . .
46(4) . . .
40.3(33) . . .
48(4) . . .
49(4) . . .
48(4) . . .
46(4) . . .
39.7(33) . . .
42.1(34) . . .
47(4) . . .
44.2(34) . . .
48(4) . . .
42.0(35) . . .
42(4) . . .
47(4) . . .
48(4) . . .
42.2(35) . . .
38.4(33) . . .
43(4) . . .
43(4) . . .
39.2(33) . . .
36.3(31) . . .
46(4) . . .
43(4) . . .
47(4) . . .
51(4) . . .
45(4) . . .
50(4) . . .
46(4) . . .
31.2(31) . . .
35.8(31) . . .
39.2(34) . . .
46(4) . . .
53(4) . . .
50(4) . . .
58(4) . . .
38.9(34) . . .
47(4) . . .
44(4) . . .
50(4) . . .
46(4) . . .
40.8(33) . . .
44.1(35) . . .
46(4) . . .
47(4) . . .
40.9(33) . . .
45(4) . . .
43.0(35) . . .
41(4) . . .
44.3(35) . . .
47(4) . . .
42.0(34) . . .
45(4) . . .
36.1(34) . . .
42.1(35) . . .
42.7(34) . . .
34.2(31) . . .
47(4) . . .
36.6(32) . . .
44(4) . . .
53(4) . . .
46(4) . . .
51(4) . . .
46(4) . . .
44(4) . . .
40.4(33) . . .
50(4) . . .
43(4) . . .
48(4) . . .
38.7(33) . . .
43.7(34) . . .
38.0(32) . . .
55(4) . . .
53(4) . . .
48(4) . . .
45.1(35) . . .
51(4) . . .
46(4) . . .
40.7(35) . . .
39.8(33) . . .
38.8(32) . . .
48(4) . . .
43(4) . . .
39.0(34) . . .
45(4) . . .
43.0(34) . . .
41.7(34) . . .
52(4) . . .
56(4) . . .
49(4) . . .
39.5(34) . . .
37.9(34) . . .
43(4) . . .
55(4) . . .
53(4) . . .
49(4) . . .
54(4) . . .
48(4) . . .
47(4) . . .
56(4) . . .
49(4) . . .
41.4(35) . . .
42.3(35) . . .
51(4) . . .
36.9(32) . . .
40(4) . . .
44(4) . . .
43(4) . . .
39.6(32) . . .
37.6(32) . . .
40.9(35) . . .
41.3(35) . . .
39.9(33) . . .
49(4) . . .
48(4) . . .
45(4) . . .
45(4) . . .
36.4(33) . . .
48(4) . . .
51(4) . . .
50(4) . . .
42(4) . . .
43(4) . . .
39.4(33) . . .
44.5(35) . . .
49(4) . . .
55(4) . . .
50(4) . . .
53(4) . . .
54(4) . . .
42.2(35) . . .
56(4) . . .
49(4) . . .
41.4(34) . . .
47(4) . . .
47(4) . . .
45(4) . . .
43(4) . . .
43.8(34) . . .
41.1(33) . . .
49(4) . . .
47(4) . . .
47(4) . . .
48(4) . . .
54(4) . . .
48(4) . . .
40.8(35) . . .
46(4) . . .
54(4) . . .
41.7(34) . . .
40.7(34) . . .
52(4) . . .
42.8(34) . . .
44.8(35) . . .
44(4) . . .
42(4) . . .
50(4) . . .
55(4) . . .
38.3(33) . . .
41(4) . . .
48(4) . . .
46(4) . . .
44.5(35) . . .
40.5(34) . . .
41.4(33) . . .
56(4) . . .
51(4) . . .
49(4) . . .
48(4) . . .
45(4) . . .
40(4) . . .
46(4) . . .
39.5(33) . . .
45.5(34) . . .
53(4) . . .
41(4) . . .
42(4) . . .
49(4) . . .
47(4) . . .
55(4) . . .
40(4) . . .
40(4) . . .
43.9(34) . . .
52(4) . . .
44(4) . . .
43(4) . . .
32.4(30) . . .
43.5(34) . . .
41.1(33) . . .
43(4) . . .
50(4) . . .
46(4) . . .
47(4) . . .
50(4) . . .
41.0(35) . . .
44(4) . . .
43(4) . . .
36.9(32) . . .
46(4) . . .
52(4) . . .
45(4) . . .
48(4) . . .
45.1(35) . . .
48(4) . . .
50(4) . . .
55(4) . . .
38.1(34) . . .
40.2(33) . . .
49(4) . . .
42(4) . . .
41(4) . . .
37.2(32) . . .
39.3(32) . . .
41.4(34) . . .
40(4) . . .
44(4) . . .
50(4) . . .
39.9(33) . . .
36.1(35) . . .
42(4) . . .
43.2(35) . . .
35.3(32) . . .
43.0(34) . . .
56(4) . . .
54(4) . . .
54(4) . . .
46(4) . . .
42.4(34) . . .
39.1(34) . . .
45(4) . . .
48(4) . . .
51(4) . . .
58(4) . . .
55(4) . . .
39.9(34) . . .
54(4) . . .
50(4) . . .
48(4) . . .
49(4) . . .
40(4) . . .
34.8(32) . . .
53(4) . . .
47(4) . . .
46(4) . . .
47(4) . . .
40.9(35) . . .
40.0(33) . . .
44(4) . . .
44(4) . . .
47(4) . . .
50(4) . . .
50(4) . . .
41(4) . . .
50(4) . . .
50(4) . . .
39.3(33) . . .
42.7(34) . . .
47(4) . . .
48(4) . . .
54(4) . . .
40.1(33) . . .
40.3(34) . . .
44(4) . . .
46(4) . . .
45.1(35) . . .
44(4) . . .
43.7(35) . . .
51(4) . . .
52(4) . . .
45(4) . . .
52(4) . . .
46(4) . . .
42(4) . . .
45(4) . . .
46(4) . . .
43.8(34) . . .
45.2(35) . . .
43.4(34) . . .
48(4) . . .
54(4) . . .
44.1(34) . . .
42.3(34) . . .
43(4) . . .
53(4) . . .
47(4) . . .
58(4) . . .
43(4) . . .
41(4) . . .
49(4) . . .
51(4) . . .
50(4) . . .
48(4) . . .
49(4) . . .
38(4) . . .
45(4) . . .
48(4) . . .
52(4) . . .
51(4) . . .
38.2(32) . . .
36.8(32) . . .
43.8(34) . . .
49(4) . . .
47(4) . . .
44(4) . . .
44(4) . . .
41.3(34) . . .
49(4) . . .
52(4) . . .
47(4) . . .
33.4(31) . . .
40.7(34) . . .
44(4) . . .
43.8(35) . . .
49(4) . . .
42.4(34) . . .
38.0(32) . . .
42.0(34) . . .
39.5(35) . . .
42(4) . . .
38.7(32) . . .
42.5(34) . . .
49(4) . . .
47(4) . . .
52(4) . . .
49(4) . . .
40.3(33) . . .
46(4) . . .
41.8(35) . . .
48(4) . . .
51(4) . . .
42.8(35) . . .
35.0(32) . . .
37.0(34) . . .
40.4(35) . . .
35.1(31) . . .
47(4) . . .
36.5(32) . . .
46(4) . . .
40.9(34) . . .
42.2(34) . . .
47(4) . . .
50(4) . . .
41.1(34) . . .
46(4) . . .
45.3(35) . . .
55(4) . . .
52(4) . . .
48(4) . . .
46(4) . . .
47(4) . . .
46(4) . . .
46(4) . . .
33.0(31) . . .
38.6(34) . . .
41.5(33) . . .
49(4) . . .
46(4) . . .
48(4) . . .
51(4) . . .
55(4) . . .
48(4) . . .
47(4) . . .
43(4) . . .
51(4) . . .
51(4) . . .
54(4) . . .
59(4) . . .
52(4) . . .
36.1(32) . . .
40.1(34) . . .
38.1(31) . . .
53(4) . . .
48(4) . . .
42.8(34) . . .
48(4) . . .
44.7(35) . . .
48(4) . . .
45(4) . . .
37.6(31) . . .
38.0(32) . . .
46(4) . . .
43(4) . . .
43(4) . . .
43.1(34) . . .
52(4) . . .
56(4) . . .
51(4) . . .
40.1(33) . . .
47(4) . . .
47(4) . . .
42.1(34) . . .
52(4) . . .
52(4) . . .
54(4) . . .
53(4) . . .
49(4) . . .
48(4) . . .
55(4) . . .
44.0(35) . . .
47(4) . . .
41.3(34) . . .
42.6(34) . . .
38.0(32) . . .
39.2(33) . . .
48(4) . . .
50(4) . . .
44(4) . . .
46(4) . . .
49(4) . . .
51(4) . . .
45(4) . . .
46(4) . . .
48(4) . . .
53(4) . . .
57(4) . . .
51(4) . . .
46(4) . . .
38.5(33) . . .
41.0(33) . . .
42.1(34) . . .
53(4) . . .
42.7(34) . . .
41.1(33) . . .
43.1(34) . . .
40.9(34) . . .
42(4) . . .
50(4) . . .
45(4) . . .
47(4) . . .
51(4) . . .
41.3(35) . . .
55(4) . . .
44.8(35) . . .
45(4) . . .
40.7(33) . . .
43.1(34) . . .
49(4) . . .
44.1(35) . . .
50(4) . . .
41.9(35) . . .
46(4) . . .
47(4) . . .
50(4) . . .
45(4) . . .
39.7(35) . . .
36.7(34) . . .
41(4) . . .
51(4) . . .
41.2(33) . . .
48(4) . . .
48(4) . . .
49(4) . . .
50(4) . . .
55(4) . . .
48(4) . . .
43(4) . . .
38.2(33) . . .
47(4) . . .
41(4) . . .
53(4) . . .
42.3(34) . . .
34.5(30) . . .
40.5(33) . . .
39.9(33) . . .
37.6(33) . . .
38.6(33) . . .
47(4) . . .
42.7(33) . . .
46(4) . . .
45(4) . . .
45(4) . . .
48(4) . . .
49(4) . . .
46(4) . . .
49(4) . . .
46(4) . . .
47(4) . . .
42.1(33) . . .
44.8(35) . . .
40.8(34) . . .
38.3(33) . . .
39.5(33) . . .
55(4) . . .
51(4) . . .
36.4(32) . . .
42(4) . . .
40.3(32) . . .
45.9(35) . . .
52(4) . . .
41(4) . . .
41(4) . . .
48(4) . . .
51(4) . . .
42.0(34) . . .
44(4) . . .
45(4) . . .
47(4) . . .
43(4) . . .
54(4) . . .
43.6(34) . . .
48(4) . . .
42.2(34) . . .
48(4) . . .
42.0(34) . . .
44(4) . . .
47(4) . . .
41.3(34) . . .
48(4) . . .
47(4) . . .
47(4) . . .
50(4) . . .
47(4) . . .
41.4(34) . . .
35.7(32) . . .
45(4) . . .
46(4) . . .
50(4) . . .
45(4) . . .
37.8(33) . . .
45.5(35) . . .
45(4) . . .
36.0(31) . . .
49(4) . . .
46(4) . . .
53(4) . . .
53(4) . . .
40.1(34) . . .
45(4) . . .
45(4) . . .
49(4) . . .
61(4) . . .
56(4) . . .
48(4) . . .
54(4) . . .
48(4) . . .
53(4) . . .
48(4) . . .
47(4) . . .
64(5) . . .
46(4) . . .
44.2(34) . . .
36.6(31) . . .
45(4) . . .
36.1(32) . . .
47(4) . . .
48(4) . . .
44(4) . . .
47(4) . . .
52(4) . . .
47(4) . . .
45.2(35) . . .
49(4) . . .
48(4) . . .
42.0(34) . . .
53(4) . . .
46.1(35) . . .
44(4) . . .
40(4) . . .
42(4) . . .
43.1(35) . . .
43.7(35) . . .
48(4) . . .
47(4) . . .
39.8(32) . . .
43.5(34) . . .
38.9(32) . . .
33.2(31) . . .
48(4) . . .
41.5(34) . . .
45(4) . . .
47(4) . . .
44.8(35) . . .
46(4) . . .
41.2(35) . . .
43.0(34) . . .
56(4) . . .
44(4) . . .
44(4) . . .
55(4) . . .
53(4) . . .
46(4) . . .
43(4) . . .
49(4) . . .
42(4) . . .
52(4) . . .
40.0(35) . . .
42(4) . . .
37.0(33) . . .
40.8(32) . . .
53(4) . . .
35.0(34) . . .
47(4) . . .
39.7(33) . . .
41.3(34) . . .
48(4) . . .
41.5(34) . . .
38.8(32) . . .
50(4) . . .
42.8(33) . . .
34.1(31) . . .
41(4) . . .
54(4) . . .
48(4) . . .
53(4) . . .
50(4) . . .
52(4) . . .
51(4) . . .
59(4) . . .
44(4) . . .
40.4(33) . . .
36.6(31) . . .
44(4) . . .
42(4) . . .
37.3(31) . . .
43.9(35) . . .
43.5(35) . . .
49(4) . . .
44.4(34) . . .
43.2(34) . . .
41.8(34) . . .
42(4) . . .
50(4) . . .
38.5(32) . . .
41.7(34) . . .
47(4) . . .
43(4) . . .
49(4) . . .
44(4) . . .
52(4) . . .
39.7(34) . . .
50(4) . . .
42.7(34) . . .
49(4) . . .
47(4) . . .
48(4) . . .
39.7(35) . . .
39(4) . . .
53(4) . . .
35.8(31) . . .
46(4) . . .
49(4) . . .
44(4) . . .
49(4) . . .
51(4) . . .
39.4(33) . . .
39.1(33) . . .
40.9(34) . . .
40.2(35) . . .
45.1(35) . . .
40.9(34) . . .
49(4) . . .
47(4) . . .
51(4) . . .
51(4) . . .
54(4) . . .
46(4) . . .
32.9(29) . . .
50(4) . . .
39.0(33) . . .
46(4) . . .
50(4) . . .
50(4) . . .
48(4) . . .
43.5(34) . . .
41.9(34) . . .
46(4) . . .
46(4) . . .
34.4(30) . . .
42.2(35) . . .
38.1(33) . . .
48(4) . . .
46(4) . . .
45(4) . . .
47(4) . . .
41.3(34) . . .
49(4) . . .
47(4) . . .
44.8(34) . . .
58(4) . . .
50(4) . . .
48(4) . . .
52(4) . . .
49(4) . . .
46(4) . . .
50(4) . . .
40.5(34) . . .
47(4) . . .
47(4) . . .
46(4) . . .
47(4) . . .
37.8(34) . . .
35.6(32) . . .
43.3(34) . . .
42.2(34) . . .
44(4) . . .
31.5(29) . . .
44(4) . . .
41.7(34) . . .
46.4(35) . . .
52(4) . . .
48(4) . . .
41.5(34) . . .
46(4) . . .
46(4) . . .
48(4) . . .
43(4) . . .
44(4) . . .
41.5(33) . . .
46(4) . . .
41.6(35) . . .
39.3(35) . . .
47(4) . . .
54(4) . . .
47(4) . . .
48(4) . . .
48(4) . . .
52(4) . . .
51(4) . . .
52(4) . . .
36.7(33) . . .
42(4) . . .
44.7(35) . . .
44.3(34) . . .
39.2(32) . . .
52(4) . . .
43(4) . . .
46.4(35) . . .
55(4) . . .
42.2(35) . . .
46(4) . . .
43.7(34) . . .
47(4) . . .
53(4) . . .
38.4(32) . . .
39.3(34) . . .
48(4) . . .
43.5(34) . . .
46(4) . . .
41.7(34) . . .
42.2(35) . . .
46(4) . . .
45.7(35) . . .
45.6(35) . . .
49(4) . . .
47(4) . . .
39.7(34) . . .
42.1(35) . . .
42.6(34) . . .
50(4) . . .
36.6(30) . . .
54(4) . . .
28.7(28) . . .
48(4) . . .
43.0(35) . . .
49(4) . . .
42.6(34) . . .
48(4) . . .
48(4) . . .
42(4) . . .
45(4) . . .
39.5(32) . . .
43.5(34) . . .
48(4) . . .
41(4) . . .
50(4) . . .
50(4) . . .
45.2(35) . . .
48(4) . . .
36.4(34) . . .
47(4) . . .
55(4) . . .
49(4) . . .
40.1(33) . . .
44(4) . . .
42.0(34) . . .
40.0(33) . . .
47(4) . . .
45(4) . . .
39.0(34) . . .
42.6(35) . . .
51(4) . . .
38.9(33) . . .
52(4) . . .
37.8(33) . . .
45(4) . . .
37.4(32) . . .
37.8(32) . . .
45(4) . . .
47(4) . . .
44(4) . . .
40.9(33) . . .
39.6(33) . . .
41(4) . . .
37.9(35) . . .
43(4) . . .
34.1(30) . . .
33.5(31) . . .
39.5(34) . . .
52(4) . . .
47(4) . . .
39.5(33) . . .
45.3(35) . . .
55(4) . . .
45(4) . . .
45(4) . . .
37.4(32) . . .
43(4) . . .
42(4) . . .
41.3(34) . . .
48(4) . . .
47(4) . . .
44(4) . . .
58(4) . . .
53(4) . . .
51(4) . . .
54(4) . . .
49(4) . . .
50(4) . . .
41.3(34) . . .
40.3(34) . . .
42.0(33) . . .
52(4) . . .
42.0(35) . . .
44.4(35) . . .
49(4) . . .
46(4) . . .
44.8(35) . . .
70(5) . . .
46(4) . . .
50(4) . . .
47(4) . . .
46(4) . . .
45(4) . . .
43(4) . . .
50(4) . . .
42.9(34) . . .
51(4) . . .
39.0(33) . . .
45(4) . . .
54(4) . . .
47(4) . . .
48(4) . . .
39.5(35) . . .
45(4) . . .
43.1(34) . . .
37.5(32) . . .
39.2(33) . . .
52(4) . . .
45(4) . . .
38.3(32) . . .
51(4) . . .
37.9(34) . . .
46(4) . . .
52(4) . . .
38.7(32) . . .
39.8(34) . . .
42.8(35) . . .
47(4) . . .
36.0(32) . . .
41.4(35) . . .
45(4) . . .
47(4) . . .
43.4(34) . . .
53(4) . . .
49(4) . . .
40.4(35) . . .
38.9(35) . . .
42(4) . . .
45(4) . . .
42.3(33) . . .
38.3(35) . . .
44(4) . . .
52(4) . . .
56(4) . . .
49(4) . . .
49(4) . . .
43(4) . . .
42(4) . . .
49(4) . . .
52(4) . . .
54(4) . . .
57(4) . . .
53(4) . . .
45(4) . . .
38.4(32) . . .
46(4) . . .
39.0(33) . . .
55(4) . . .
49(4) . . .
45(4) . . .
40.8(33) . . .
49(4) . . .
49(4) . . .
40.3(33) . . .
46(4) . . .
44(4) . . .
42(4) . . .
44(4) . . .
46.5(35) . . .
35.4(32) . . .
46(4) . . .
40.6(35) . . .
41.9(34) . . .
49(4) . . .
47(4) . . .
42.7(35) . . .
42(4) . . .
46(4) . . .
48(4) . . .
40.4(35) . . .
49(4) . . .
31.9(29) . . .
41.0(35) . . .
36.3(31) . . .
45(4) . . .
50(4) . . .
43(4) . . .
47(4) . . .
52(4) . . .
45(4) . . .
39.5(33) . . .
41.2(34) . . .
53(4) . . .
43.0(34) . . .
43(4) . . .
51(4) . . .
44.5(34) . . .
48(4) . . .
47(4) . . .
50(4) . . .
50(4) . . .
54(4) . . .
48(4) . . .
41.0(33) . . .
43.1(35) . . .
41(4) . . .
40(4) . . .
37.6(32) . . .
46(4) . . .
41.6(34) . . .
46(4) . . .
47(4) . . .
47(4) . . .
45(4) . . .
41.5(34) . . .
39.9(34) . . .
34.1(31) . . .
32.7(30) . . .
42(4) . . .
46(4) . . .
44(4) . . .
44.4(35) . . .
48(4) . . .
46(4) . . .
41.0(35) . . .
43(4) . . .
41.6(33) . . .
39.9(33) . . .
44(4) . . .
41(4) . . .
33.8(30) . . .
41.9(34) . . .
37.2(31) . . .
40.3(35) . . .
39.1(34) . . .
50(4) . . .
48(4) . . .
44.7(35) . . .
48(4) . . .
45(4) . . .
43(4) . . .
48(4) . . .
42(4) . . .
49(4) . . .
50(4) . . .
47(4) . . .
44(4) . . .
52(4) . . .
38.8(32) . . .
42(4) . . .
41(4) . . .
44.7(35) . . .
51(4) . . .
42.1(35) . . .
41(4) . . .
46(4) . . .
44.1(34) . . .
40.9(34) . . .
42(4) . . .
43(4) . . .
43(4) . . .
49(4) . . .
49(4) . . .
46(4) . . .
46(4) . . .
40.7(34) . . .
48(4) . . .
52(4) . . .
44(4) . . .
44(4) . . .
38.6(34) . . .
37.9(32) . . .
39.7(32) . . .
42.2(34) . . .
44(4) . . .
44.0(35) . . .
38.7(32) . . .
39.6(34) . . .
55(4) . . .
47(4) . . .
46(4) . . .
44.8(34) . . .
40.6(34) . . .
44.3(35) . . .
48(4) . . .
44.8(35) . . .
46(4) . . .
47(4) . . .
43(4) . . .
46(4) . . .
55(4) . . .
47(4) . . .
40.0(33) . . .
49(4) . . .
47(4) . . .
43.4(34) . . .
48(4) . . .
38.8(35) . . .
47(4) . . .
52(4) . . .
48(4) . . .
43.4(35) . . .
48(4) . . .
43(4) . . .
44(4) . . .
42.7(35) . . .
42.4(34) . . .
40.4(34) . . .
45(4) . . .
51(4) . . .
43.3(34) . . .
48(4) . . .
44.6(35) . . .
41.1(34) . . .
44(4) . . .
43.3(35) . . .
48(4) . . .
46(4) . . .
55(4) . . .
43(4) . . .
37.0(32) . . .
50(4) . . .
44(4) . . .
47(4) . . .
45(4) . . .
43.7(35) . . .
48(4) . . .
48(4) . . .
35.5(32) . . .
45(4) . . .
45.9(34) . . .
50(4) . . .
46(4) . . .
40.5(34) . . .
42.2(35) . . .
49(4) . . .
49(4) . . .
41.6(35) . . .
48(4) . . .
48(4) . . .
39.6(33) . . .
43(4) . . .
55(4) . . .
52(4) . . .
59(4) . . .
44.3(35) . . .
35.3(32) . . .
43(4) . . .
45.1(35) . . .
47(4) . . .
50(4) . . .
51(4) . . .
50(4) . . .
52(4) . . .
52(4) . . .
41.9(35) . . .
45(4) . . .
44(4) . . .
38.8(33) . . .
46(4) . . .
54(4) . . .
53(4) . . .
51(4) . . .
49(4) . . .
47(4) . . .
35.1(31) . . .
43(4) . . .
34.4(31) . . .
36.7(33) . . .
33.7(30) . . .
48(4) . . .
46(4) . . .
39.6(33) . . .
41.1(34) . . .
45.9(35) . . .
36.9(33) . . .
40(4) . . .
47(4) . . .
49(4) . . .
39.2(33) . . .
45(4) . . .
45(4) . . .
35.5(33) . . .
49(4) . . .
49(4) . . .
37.8(33) . . .
48(4) . . .
43(4) . . .
33.3(30) . . .
48(4) . . .
48(4) . . .
42(4) . . .
44.0(35) . . .
44.1(34) . . .
49(4) . . .
42(4) . . .
41(4) . . .
45(4) . . .
48(4) . . .
43.0(35) . . .
46(4) . . .
39.2(33) . . .
44(4) . . .
34.2(30) . . .
36.3(32) . . .
52(4) . . .
44(4) . . .
48(4) . . .
45.0(34) . . .
54(4) . . .
47(4) . . .
38.6(34) . . .
46(4) . . .
45.1(35) . . .
47(4) . . .
47(4) . . .
38.9(34) . . .
45(4) . . .
44.5(35) . . .
50(4) . . .
35.2(30) . . .
46(4) . . .
44(4) . . .
49(4) . . .
45(4) . . .
44(4) . . .
40.8(35) . . .
48(4) . . .
43.3(35) . . .
35.9(31) . . .
45.0(35) . . .
44(4) . . .
45(4) . . .
43.4(34) . . .
41.1(34) . . .
44(4) . . .
34.3(31) . . .
45(4) . . .
40.9(33) . . .
40.8(34) . . .
55(4) . . .
51(4) . . .
47(4) . . .
42.0(33) . . .
46(4) . . .
48(4) . . .
46(4) . . .
39.5(33) . . .
53(4) . . .
40.6(34) . . .
43(4) . . .
45(4) . . .
33.9(30) . . .
42.6(34) . . .
45(4) . . .
41(4) . . .
44(4) . . .
48(4) . . .
41.5(34) . . .
41.9(34) . . .
43.7(35) . . .
44(4) . . .
36.4(31) . . .
45(4) . . .
48(4) . . .
48(4) . . .
38.0(32) . . .
48(4) . . .
49(4) . . .
45(4) . . .
42(4) . . .
34.4(34) . . .
48(4) . . .
43(4) . . .
43(4) . . .
53(4) . . .
44(4) . . .
47(4) . . .
40.5(34) . . .
53(4) . . .
48(4) . . .
52(4) . . .
49(4) . . .
44(4) . . .
46(4) . . .
50(4) . . .
41.2(35) . . .
44.8(34) . . .
39.5(33) . . .
48(4) . . .
49(4) . . .
45(4) . . .
48(4) . . .
44(4) . . .
48(4) . . .
36.0(31) . . .
47(4) . . .
53(4) . . .
34.5(31) . . .
43(4) . . .
44(4) . . .
44.7(34) . . .
43.1(34) . . .
47(4) . . .
42(4) . . .
44(4) . . .
49(4) . . .
39.0(32) . . .
46(4) . . .
46(4) . . .
44(4) . . .
41.5(34) . . .
45(4) . . .
43.8(35) . . .
55(4) . . .
46(4) . . .
48(4) . . .
45(4) . . .
46(4) . . .
40(4) . . .
49(4) . . .
38.4(32) . . .
38.5(32) . . .
45(4) . . .
48(4) . . .
48(4) . . .
48(4) . . .
56(4) . . .
44(4) . . .
45(4) . . .
42.7(34) . . .
48(4) . . .
47(4) . . .
42(4) . . .
38.7(34) . . .
46(4) . . .
42.0(34) . . .
45(4) . . .
37.7(33) . . .
45(4) . . .
32.4(29) . . .
44(4) . . .
41(4) . . .
45(4) . . .
51(4) . . .
55(4) . . .
45(4) . . .
54(4) . . .
47(4) . . .
48(4) . . .
49(4) . . .
49(4) . . .
31.4(29) . . .
42(4) . . .
49(4) . . .
41.8(34) . . .
52(4) . . .
49(4) . . .
52(4) . . .
42.9(34) . . .
46(4) . . .
47(4) . . .
44.4(35) . . .
45(4) . . .
38.4(33) . . .
32.9(30) . . .
44(4) . . .
49(4) . . .
47(4) . . .
43(4) . . .
46(4) . . .
44.3(35) . . .
51(4) . . .
45.6(34) . . .
43.0(34) . . .
45(4) . . .
48(4) . . .
51(4) . . .
41.5(35) . . .
42.4(34) . . .
42.3(34) . . .
42.1(34) . . .
45(4) . . .
38.4(33) . . .
46(4) . . .
45.0(35) . . .
51(4) . . .
41.7(35) . . .
35.2(32) . . .
47(4) . . .
33.7(30) . . .
44(4) . . .
39.8(34) . . .
44(4) . . .
44(4) . . .
46(4) . . .
51(4) . . .
43(4) . . .
34.3(30) . . .
41.8(34) . . .
43.8(35) . . .
40.8(35) . . .
41(4) . . .
51(4) . . .
41.4(33) . . .
49(4) . . .
44(4) . . .
46(4) . . .
44(4) . . .
48(4) . . .
46(4) . . .
48(4) . . .
53(4) . . .
44(4) . . .
47(4) . . .
49(4) . . .
46(4) . . .
48(4) . . .
46(4) . . .
43.2(34) . . .
38.0(34) . . .
39.4(34) . . .
45(4) . . .
47(4) . . .
36.7(32) . . .
46(4) . . .
50(4) . . .
43(4) . . .
45(4) . . .
50(4) . . .
51(4) . . .
45(4) . . .
49(4) . . .
37.9(31) . . .
38.3(33) . . .
53(4) . . .
49(4) . . .
41.6(34) . . .
57(4) . . .
47(4) . . .
49(4) . . .
46(4) . . .
49(4) . . .
55(4) . . .
46(4) . . .
55(4) . . .
47(4) . . .
52(4) . . .
48(4) . . .
46(4) . . .
42.4(34) . . .
43(4) . . .
49(4) . . .
50(4) . . .
48(4) . . .
34.2(30) . . .
34.6(33) . . .
42(4) . . .
38.5(32) . . .
37.1(32) . . .
44(4) . . .
44(4) . . .
49(4) . . .
49(4) . . .
48(4) . . .
48(4) . . .
53(4) . . .
36.2(33) . . .
36.5(31) . . .
39.7(33) . . .
37.6(33) . . .
41(4) . . .
43(4) . . .
45(4) . . .
45(4) . . .
41.4(34) . . .
48(4) . . .
40(4) . . .
49(4) . . .
43.2(34) . . .
44.7(35) . . .
58(4) . . .
37.2(32) . . .
47(4) . . .
50(4) . . .
47(4) . . .
39.2(34) . . .
43.1(35) . . .
41.5(34) . . .
47(4) . . .
38.9(34) . . .
37.3(33) . . .
41.9(34) . . .
41.0(34) . . .
50(4) . . .
44(4) . . .
39.6(33) . . .
35.5(31) . . .
48(4) . . .
51(4) . . .
52(4) . . .
52(4) . . .
46(4) . . .
50(4) . . .
39.0(33) . . .
52(4) . . .
39(4) . . .
47(4) . . .
34.4(30) . . .
48(4) . . .
48(4) . . .
47(4) . . .
56(4) . . .
52(4) . . .
48(4) . . .
44(4) . . .
47(4) . . .
50(4) . . .
36.4(32) . . .
53(4) . . .
51(4) . . .
44(4) . . .
40.8(33) . . .
41.9(34) . . .
60(4) . . .
36.9(34) . . .
38.4(33) . . .
50(4) . . .
46(4) . . .
39.1(34) . . .
42.0(35) . . .
44(4) . . .
38.9(33) . . .
50(4) . . .
50(4) . . .
49(4) . . .
46(4) . . .
48(4) . . .
43(4) . . .
31.0(30) . . .
47(4) . . .
35.4(32) . . .
36.7(31) . . .
45(4) . . .
39(4) . . .
37.4(34) . . .
37.2(31) . . .
45(4) . . .
45(4) . . .
50(4) . . .
54(4) . . .
40.0(33) . . .
46(4) . . .
47(4) . . .
45(4) . . .
50(4) . . .
52(4) . . .
50(4) . . .
40.1(33) . . .
40(4) . . .
42(4) . . .
43.6(34) . . .
36.1(31) . . .
47(4) . . .
50(4) . . .
49(4) . . .
39.5(34) . . .
44(4) . . .
41.3(34) . . .
44(4) . . .
43(4) . . .
48(4) . . .
47(4) . . .
37.1(32) . . .
35.3(34) . . .
49(4) . . .
46(4) . . .
42.8(35) . . .
41.2(33) . . .
47(4) . . .
49(4) . . .
49(4) . . .
43(4) . . .
34.2(33) . . .
41(4) . . .
43(4) . . .
44.0(34) . . .
43.2(34) . . .
49(4) . . .
43(4) . . .
46(4) . . .
43.0(34) . . .
40.2(34) . . .
43(4) . . .
51(4) . . .
51(4) . . .
49(4) . . .
47(4) . . .
43(4) . . .
37.0(33) . . .
41.5(33) . . .
45.0(35) . . .
53(4) . . .
47(4) . . .
46(4) . . .
43.8(34) . . .
44(4) . . .
47(4) . . .
42(4) . . .
46(4) . . .
43.4(34) . . .
48(4) . . .
42.3(34) . . .
38.4(33) . . .
45(4) . . .
42.7(34) . . .
47(4) . . .
48(4) . . .
48(4) . . .
41.3(34) . . .
48(4) . . .
46(4) . . .
41(4) . . .
41.8(35) . . .
42.5(34) . . .
48(4) . . .
45(4) . . .
50(4) . . .
40(4) . . .
45(4) . . .
49(4) . . .
49(4) . . .
50(4) . . .
40.5(34) . . .
49(4) . . .
33.8(31) . . .
39.4(34) . . .
38.0(33) . . .
45(4) . . .
46(4) . . .
51(4) . . .
42(4) . . .
36.8(33) . . .
46(4) . . .
42.0(34) . . .
48(4) . . .
43(4) . . .
53(4) . . .
49(4) . . .
33.6(30) . . .
53(4) . . .
38.0(32) . . .
50(4) . . .
48(4) . . .
47(4) . . .
42(4) . . .
34.0(31) . . .
33.9(32) . . .
56(4) . . .
49(4) . . .
42.9(34) . . .
49(4) . . .
42(4) . . .
47(4) . . .
45(4) . . .
37.9(32) . . .
50(4) . . .
54(4) . . .
42(4) . . .
47(4) . . .
51(4) . . .
54(4) . . .
46(4) . . .
45(4) . . .
37.6(32) . . .
46(4) . . .
38.4(33) . . .
42.3(34) . . .
44(4) . . .
49(4) . . .
43(4) . . .
49(4) . . .
42.5(35) . . .
37.5(33) . . .
43.1(34) . . .
49(4) . . .
42(4) . . .
38.4(32) . . .
41.0(33) . . .
43.9(35) . . .
49(4) . . .
41.8(35) . . .
43(4) . . .
42.2(34) . . .
53(4) . . .
44(4) . . .
49(4) . . .
48(4) . . .
53(4) . . .
45.2(34) . . .
51(4) . . .
45(4) . . .
44(4) . . .
41.3(33) . . .
38.6(32) . . .
44(4) . . .
37.6(32) . . .
46(4) . . .
38.1(32) . . .
41.3(34) . . .
44(4) . . .
36.3(33) . . .
35.6(31) . . .
42.3(34) . . .
42.1(34) . . .
44(4) . . .
47(4) . . .
43(4) . . .
41.6(33) . . .
35.3(31) . . .
42(4) . . .
42(4) . . .
48(4) . . .
38.6(32) . . .
49(4) . . .
54(4) . . .
49(4) . . .
53(4) . . .
51(4) . . .
48(4) . . .
47(4) . . .
43(4) . . .
39.6(33) . . .
44.2(34) . . .
46(4) . . .
38.3(33) . . .
39.9(34) . . .
49(4) . . .
49(4) . . .
49(4) . . .
45(4) . . .
47(4) . . .
40.3(33) . . .
40.7(34) . . .
46(4) . . .
50(4) . . .
48(4) . . .
51(4) . . .
46(4) . . .
43(4) . . .
45(4) . . .
42(4) . . .
51(4) . . .
49(4) . . .
39.7(34) . . .
36.0(33) . . .
48(4) . . .
35.4(32) . . .
37.1(31) . . .
44(4) . . .
46(4) . . .
37.0(34) . . .
52(4) . . .
34.5(31) . . .
40.8(35) . . .
46(4) . . .
38.9(34) . . .
47(4) . . .
46(4) . . .
44(4) . . .
47(4) . . .
39.0(33) . . .
49(4) . . .
45(4) . . .
39.1(34) . . .
46(4) . . .
49(4) . . .
46(4) . . .
44(4) . . .
39.6(35) . . .
46(4) . . .
38.1(33) . . .
47(4) . . .
40.3(34) . . .
41(4) . . .
42(4) . . .
37.7(32) . . .
49(4) . . .
52(4) . . .
48(4) . . .
40.0(34) . . .
37.8(33) . . .
35.6(31) . . .
52(4) . . .
43(4) . . .
47(4) . . .
55(4) . . .
43.8(35) . . .
33.6(31) . . .
45(4) . . .
52(4) . . .
43.7(35) . . .
38.4(32) . . .
53(4) . . .
49(4) . . .
55(4) . . .
40.5(33) . . .
47(4) . . .
41.8(33) . . .
51(4) . . .
42.5(34) . . .
48(4) . . .
41.3(35) . . .
41(4) . . .
42.7(35) . . .
42.7(34) . . .
45(4) . . .
37.2(32) . . .
46(4) . . .
41(4) . . .
47(4) . . .
47(4) . . .
57(4) . . .
29.3(28) . . .
41(4) . . .
47(4) . . .
42.0(34) . . .
41.5(34) . . .
29.7(29) . . .
44(4) . . .
45(4) . . .
45.0(35) . . .
51(4) . . .
39.7(34) . . .
33.9(30) . . .
54(4) . . .
48(4) . . .
51(4) . . .
43(4) . . .
34.9(31) . . .
41.2(34) . . .
37.5(32) . . .
49(4) . . .
47(4) . . .
43(4) . . .
40.5(33) . . .
39.1(32) . . .
47(4) . . .
43(4) . . .
35.3(31) . . .
44.3(35) . . .
41.0(35) . . .
35.6(32) . . .
41(4) . . .
44(4) . . .
40.3(33) . . .
46(4) . . .
41.5(35) . . .
44(4) . . .
44(4) . . .
40.9(34) . . .
39.1(33) . . .
38(4) . . .
40.4(35) . . .
50(4) . . .
43.3(34) . . .
44(4) . . .
50(4) . . .
37.8(33) . . .
37.2(32) . . .
32.9(30) . . .
43(4) . . .
43(4) . . .
44.2(34) . . .
46(4) . . .
49(4) . . .
41.0(33) . . .
41.8(33) . . .
47(4) . . .
46(4) . . .
42.4(34) . . .
43.9(35) . . .
46(4) . . .
40.6(35) . . .
55(4) . . .
50(4) . . .
45(4) . . .
45(4) . . .
52(4) . . .
43.0(34) . . .
48(4) . . .
41.3(35) . . .
45(4) . . .
53(4) . . .
41.1(33) . . .
43.9(35) . . .
43(4) . . .
32.4(30) . . .
47(4) . . .
45(4) . . .
54(4) . . .
48(4) . . .
42(4) . . .
33.8(32) . . .
38.6(34) . . .
44.1(34) . . .
35.1(32) . . .
41(4) . . .
43.5(35) . . .
41.3(33) . . .
46(4) . . .
45(4) . . .
50(4) . . .
48(4) . . .
42.2(34) . . .
42.6(34) . . .
41.9(35) . . .
47(4) . . .
41.5(34) . . .
45(4) . . .
36.8(33) . . .
48(4) . . .
50(4) . . .
46.0(35) . . .
47(4) . . .
39.2(34) . . .
51(4) . . .
48(4) . . .
43.4(34) . . .
59(4) . . .
49(4) . . .
42.7(33) . . .
43.1(35) . . .
42(4) . . .
35.8(31) . . .
46(4) . . .
45(4) . . .
37.1(33) . . .
43.3(34) . . .
44.7(34) . . .
47(4) . . .
57(4) . . .
50(4) . . .
37.5(32) . . .
34.4(31) . . .
38.2(34) . . .
47(4) . . .
43.2(35) . . .
42.8(34) . . .
41.9(34) . . .
50(4) . . .
47(4) . . .
45(4) . . .
53(4) . . .
43.2(34) . . .
36.9(32) . . .
46(4) . . .
54(4) . . .
43.1(34) . . .
34.6(32) . . .
43(4) . . .
46(4) . . .
46(4) . . .
41.3(34) . . .
39.5(32) . . .
46(4) . . .
37.2(32) . . .
46(4) . . .
55(4) . . .
46.1(35) . . .
44(4) . . .
35.9(32) . . .
38.1(34) . . .
40.2(34) . . .
32.9(30) . . .
39.7(34) . . .
39.2(34) . . .
51(4) . . .
35.9(31) . . .
54(4) . . .
41.9(34) . . .
45(4) . . .
41.0(34) . . .
46(4) . . .
45(4) . . .
39.8(33) . . .
43(4) . . .
44(4) . . .
41.2(33) . . .
47(4) . . .
37.2(34) . . .
45(4) . . .
44(4) . . .
34.3(30) . . .
42.0(34) . . .
46(4) . . .
47(4) . . .
58(4) . . .
52(4) . . .
52(4) . . .
47(4) . . .
45(4) . . .
46(4) . . .
45.0(35) . . .
49(4) . . .
50(4) . . .
47(4) . . .
39.0(32) . . .
44.3(35) . . .
39(4) . . .
50(4) . . .
46(4) . . .
38.7(32) . . .
35.8(31) . . .
46(4) . . .
53(4) . . .
41.8(34) . . .
44.4(35) . . .
45(4) . . .
42(4) . . .
43(4) . . .
44(4) . . .
45.8(35) . . .
38.3(34) . . .
42.3(35) . . .
40.2(35) . . .
39(4) . . .
37.2(32) . . .
44(4) . . .
43(4) . . .
47(4) . . .
47(4) . . .
35.9(32) . . .
36.0(32) . . .
44(4) . . .
33.5(31) . . .
42.0(34) . . .
43.6(34) . . .
46(4) . . .
40.7(35) . . .
42.5(35) . . .
48(4) . . .
51(4) . . .
38.4(33) . . .
42(4) . . .
45(4) . . .
45.8(35) . . .
37.2(32) . . .
49(4) . . .
49(4) . . .
47(4) . . .
45(4) . . .
43.7(34) . . .
46(4) . . .
38.0(35) . . .
46(4) . . .
45.3(35) . . .
50(4) . . .
50(4) . . .
34.0(32) . . .
50(4) . . .
40.7(33) . . .
41.0(34) . . .
40.8(34) . . .
41(4) . . .
46(4) . . .
39.3(33) . . .
50(4) . . .
50(4) . . .
39(4) . . .
41(4) . . .
48(4) . . .
36.8(31) . . .
42(4) . . .
42(4) . . .
32.0(30) . . .
41.8(34) . . .
45(4) . . .
46(4) . . .
48(4) . . .
45(4) . . .
40.6(33) . . .
54(4) . . .
59(4) . . .
38.5(34) . . .
36.4(32) . . .
40.6(33) . . .
45(4) . . .
38.5(34) . . .
35.6(32) . . .
36.6(33) . . .
45.4(35) . . .
55(4) . . .
45(4) . . .
42.2(34) . . .
44.0(34) . . .
40.4(33) . . .
46(4) . . .
39(4) . . .
38.8(32) . . .
44(4) . . .
36.0(31) . . .
41(4) . . .
44(4) . . .
51(4) . . .
42.3(34) . . .
39.6(33) . . .
52(4) . . .
41.1(34) . . .
51(4) . . .
50(4) . . .
47(4) . . .
41.9(35) . . .
39(4) . . .
53(4) . . .
40.5(34) . . .
43.0(34) . . .
47(4) . . .
48(4) . . .
51(4) . . .
43.5(34) . . .
44(4) . . .
41(4) . . .
48(4) . . .
53(4) . . .
41.8(34) . . .
41.0(34) . . .
39(4) . . .
39.9(33) . . .
43(4) . . .
46(4) . . .
35.7(32) . . .
44(4) . . .
37.5(33) . . .
50(4) . . .
43.6(34) . . .
48(4) . . .
42(4) . . .
52(4) . . .
40.5(33) . . .
42.7(34) . . .
42(4) . . .
43(4) . . .
47(4) . . .
51(4) . . .
55(4) . . .
44.0(35) . . .
40.3(34) . . .
40.2(35) . . .
45(4) . . .
40.6(33) . . .
49(4) . . .
45(4) . . .
42.4(35) . . .
45(4) . . .
38.0(32) . . .
47(4) . . .
39.1(34) . . .
46(4) . . .
44.1(34) . . .
53(4) . . .
37.4(32) . . .
40(4) . . .
42(4) . . .
36.8(32) . . .
44.0(34) . . .
45(4) . . .
47(4) . . .
50(4) . . .
47(4) . . .
39.5(33) . . .
42(4) . . .
40.1(35) . . .
44(4) . . .
44.2(34) . . .
40.0(33) . . .
50(4) . . .
43(4) . . .
45(4) . . .
34.6(31) . . .
37.1(32) . . .
49(4) . . .
40.2(33) . . .
38.4(34) . . .
49(4) . . .
46(4) . . .
43(4) . . .
44.2(34) . . .
35.3(31) . . .
38.6(32) . . .
34.5(30) . . .
48(4) . . .
45(4) . . .
50(4) . . .
46(4) . . .
42.0(35) . . .
52(4) . . .
49(4) . . .
45(4) . . .
41.5(33) . . .
45(4) . . .
39.1(33) . . .
42(4) . . .
49(4) . . .
45(4) . . .
42.8(34) . . .
44(4) . . .
49(4) . . .
26.0(26) . . .
44.9(35) . . .
38.0(34) . . .
40(4) . . .
46(4) . . .
39.5(34) . . .
43.8(35) . . .
44(4) . . .
39.4(34) . . .
42(4) . . .
44(4) . . .
43.3(34) . . .
47(4) . . .
38.2(33) . . .
52(4) . . .
42.4(34) . . .
41.3(33) . . .
46(4) . . .
47(4) . . .
43(4) . . .
46(4) . . .
41.6(34) . . .
35.3(31) . . .
38.2(31) . . .
45(4) . . .
39.2(32) . . .
43(4) . . .
45(4) . . .
47(4) . . .
46(4) . . .
56(4) . . .
47(4) . . .
42.2(34) . . .
39.5(33) . . .
43.5(34) . . .
51(4) . . .
55(4) . . .
39.4(34) . . .
43.7(35) . . .
37.3(31) . . .
42.1(35) . . .
43.1(35) . . .
44(4) . . .
39.5(34) . . .
42.5(35) . . .
50(4) . . .
45(4) . . .
50(4) . . .
50(4) . . .
44.8(35) . . .
44.7(34) . . .
40.7(34) . . .
40(4) . . .
44(4) . . .
40.5(33) . . .
49(4) . . .
46(4) . . .
52(4) . . .
45(4) . . .
33.1(30) . . .
46(4) . . .
51(4) . . .
47(4) . . .
30.8(30) . . .
42.2(34) . . .
37.3(33) . . .
44(4) . . .
50(4) . . .
49(4) . . .
43.4(34) . . .
43.5(35) . . .
39.7(35) . . .
45(4) . . .
46(4) . . .
47(4) . . .
49(4) . . .
40.5(34) . . .
46(4) . . .
50(4) . . .
43.3(34) . . .
51(4) . . .
45(4) . . .
41.4(34) . . .
36.4(32) . . .
45(4) . . .
45(4) . . .
42(4) . . .
43(4) . . .
36.0(32) . . .
41.0(33) . . .
34.6(33) . . .
40(4) . . .
52(4) . . .
39.9(33) . . .
41.9(34) . . .
45(4) . . .
42(4) . . .
46(4) . . .
41.9(35) . . .
53(4) . . .
51(4) . . .
48(4) . . .
45(4) . . .
41.5(33) . . .
50(4) . . .
44(4) . . .
51(4) . . .
48(4) . . .
40.0(33) . . .
37.6(34) . . .
35.3(32) . . .
47(4) . . .
42(4) . . .
50(4) . . .
43(4) . . .
46(4) . . .
45(4) . . .
48(4) . . .
40.5(34) . . .
43.7(35) . . .
45(4) . . .
39.8(34) . . .
47(4) . . .
42.7(34) . . .
38.9(33) . . .
47(4) . . .
44.0(35) . . .
44.0(35) . . .
48(4) . . .
45.2(35) . . .
42.2(33) . . .
42.5(33) . . .
48(4) . . .
41.0(33) . . .
38.6(34) . . .
47(4) . . .
39.9(35) . . .
37.6(34) . . .
40.5(33) . . .
36.1(34) . . .
36.9(33) . . .
41.9(35) . . .
48(4) . . .
49(4) . . .
39.9(33) . . .
49(4) . . .
46(4) . . .
45.0(35) . . .
41.1(33) . . .
37.3(33) . . .
37.7(33) . . .
47(4) . . .
42.6(34) . . .
43(4) . . .
42(4) . . .
45(4) . . .
51(4) . . .
38.3(32) . . .
47(4) . . .
39.9(35) . . .
38.4(35) . . .
46(4) . . .
38.0(32) . . .
44(4) . . .
37.6(33) . . .
43(4) . . .
48(4) . . .
42.5(34) . . .
39.3(33) . . .
48(4) . . .
48(4) . . .
39.5(35) . . .
47(4) . . .
54(4) . . .
47(4) . . .
45.2(35) . . .
50(4) . . .
47(4) . . .
46(4) . . .
43(4) . . .
45(4) . . .
42.8(34) . . .
49(4) . . .
41(4) . . .
40.5(35) . . .
49(4) . . .
50(4) . . .
39.0(33) . . .
50(4) . . .
38.5(33) . . .
48(4) . . .
54(4) . . .
45.2(34) . . .
49(4) . . .
37.8(35) . . .
43(4) . . .
46(4) . . .
30.7(29) . . .
44(4) . . .
35.9(35) . . .
41.2(33) . . .
42.4(34) . . .
43.2(34) . . .
54(4) . . .
40.0(35) . . .
47(4) . . .
52(4) . . .
37.5(33) . . .
41(4) . . .
47(4) . . .
42.5(34) . . .
40.1(33) . . .
39.3(35) . . .
41(4) . . .
34.1(30) . . .
46(4) . . .
45.5(35) . . .
41.5(35) . . .
46(4) . . .
40.5(33) . . .
40.3(33) . . .
42.9(34) . . .
43(4) . . .
46(4) . . .
40.5(34) . . .
37.3(34) . . .
46(4) . . .
41.2(34) . . .
41(4) . . .
43(4) . . .
38.6(34) . . .
46(4) . . .
39.4(33) . . .
47(4) . . .
50(4) . . .
56(4) . . .
40.3(34) . . .
49(4) . . .
40.0(34) . . .
40.5(34) . . .
46(4) . . .
48(4) . . .
41.6(35) . . .
44(4) . . .
43(4) . . .
40.2(34) . . .
51(4) . . .
48(4) . . .
45(4) . . .
41.5(34) . . .
51(4) . . .
52(4) . . .
43(4) . . .
45(4) . . .
39.3(33) . . .
48(4) . . .
39.6(33) . . .
43(4) . . .
44(4) . . .
46(4) . . .
49(4) . . .
36.8(32) . . .
41.8(34) . . .
47(4) . . .
52(4) . . .
45(4) . . .
45(4) . . .
44.0(35) . . .
47(4) . . .
36.7(32) . . .
48(4) . . .
42.6(34) . . .
43(4) . . .
40.4(33) . . .
40.0(34) . . .
52(4) . . .
34.6(31) . . .
43.8(35) . . .
47(4) . . .
43.1(34) . . .
34.0(30) . . .
47(4) . . .
46(4) . . .
46(4) . . .
55(4) . . .
47(4) . . .
41(4) . . .
38.7(34) . . .
45(4) . . .
42.3(34) . . .
41.5(33) . . .
38.1(33) . . .
38(4) . . .
34.1(31) . . .
37.8(33) . . .
42.7(34) . . .
41.2(34) . . .
45(4) . . .
49(4) . . .
47(4) . . .
54(4) . . .
43(4) . . .
49(4) . . .
42.1(34) . . .
36.0(31) . . .
38.5(32) . . .
48(4) . . .
49(4) . . .
45(4) . . .
49(4) . . .
47(4) . . .
47(4) . . .
49(4) . . .
41.9(34) . . .
43.5(35) . . .
47(4) . . .
47(4) . . .
43(4) . . .
47(4) . . .
49(4) . . .
50(4) . . .
46(4) . . .
37.6(34) . . .
39.3(32) . . .
38.5(32) . . .
39.1(34) . . .
36.4(34) . . .
46(4) . . .
43(4) . . .
49(4) . . .
53(4) . . .
41.4(33) . . .
48(4) . . .
52(4) . . .
46(4) . . .
35.5(31) . . .
36.5(33) . . .
44(4) . . .
35.3(31) . . .
43.2(34) . . .
38.8(35) . . .
51(4) . . .
41.3(33) . . .
45.0(34) . . .
49(4) . . .
38.2(33) . . .
42(4) . . .
40.2(33) . . .
40.2(34) . . .
43.6(34) . . .
40.3(33) . . .
37.0(34) . . .
43(4) . . .
39.6(35) . . .
44.6(34) . . .
45.3(35) . . .
39.7(33) . . .
48(4) . . .
41.3(33) . . .
38.2(33) . . .
49(4) . . .
36.1(33) . . .
53(4) . . .
49(4) . . .
33.7(32) . . .
45(4) . . .
40.4(33) . . .
49(4) . . .
50(4) . . .
49(4) . . .
39.9(33) . . .
42.0(35) . . .
38.6(32) . . .
36.2(31) . . .
50(4) . . .
47.1(35) . . .
47(4) . . .
52(4) . . .
45.4(35) . . .
37.9(33) . . .
42(4) . . .
43(4) . . .
38.8(34) . . .
43.9(35) . . .
53(4) . . .
52(4) . . .
36.9(32) . . .
47(4) . . .
42.7(34) . . .
45(4) . . .
43(4) . . .
46(4) . . .
41.0(33) . . .
39.7(32) . . .
43.3(35) . . .
41.7(35) . . .
47(4) . . .
39.6(33) . . .
42.3(34) . . .
55(4) . . .
50(4) . . .
43.4(35) . . .
43.4(35) . . .
41.0(33) . . .
44(4) . . .
44(4) . . .
46(4) . . .
42.0(33) . . .
48(4) . . .
47(4) . . .
41.6(33) . . .
42.0(33) . . .
34.5(31) . . .
40.3(34) . . .
47(4) . . .
50(4) . . .
51(4) . . .
43.3(34) . . .
51(4) . . .
37.1(32) . . .
35.7(31) . . .
44(4) . . .
45.1(35) . . .
42.3(34) . . .
42.4(34) . . .
47(4) . . .
54(4) . . .
35.4(31) . . .
38.9(34) . . .
34.6(31) . . .
48(4) . . .
35.2(31) . . .
42.6(34) . . .
42.3(34) . . .
42.9(35) . . .
39.1(35) . . .
44(4) . . .
40.3(33) . . .
43(4) . . .
41.4(35) . . .
38.8(32) . . .
45(4) . . .
37.3(32) . . .
45(4) . . .
38.4(34) . . .
36.7(33) . . .
41.4(34) . . .
39.9(32) . . .
45(4) . . .
49(4) . . .
42.4(35) . . .
39.5(32) . . .
39.0(32) . . .
42(4) . . .
47(4) . . .
39.2(32) . . .
36.8(31) . . .
42(4) . . .
46(4) . . .
37.8(33) . . .
43(4) . . .
45(4) . . .
48(4) . . .
46(4) . . .
47(4) . . .
47(4) . . .
46(4) . . .
37.7(31) . . .
33.7(31) . . .
41(4) . . .
31.0(31) . . .
39.9(33) . . .
39.6(33) . . .
39.0(33) . . .
32.6(31) . . .
38.2(33) . . .
45.3(35) . . .
43.0(35) . . .
42.2(35) . . .
46(4) . . .
45(4) . . .
40.2(33) . . .
48(4) . . .
42(4) . . .
41.3(34) . . .
47(4) . . .
44.4(35) . . .
36.0(32) . . .
37.2(33) . . .
38.3(34) . . .
47(4) . . .
47(4) . . .
44(4) . . .
43(4) . . .
47(4) . . .
46(4) . . .
46(4) . . .
34.8(31) . . .
40(4) . . .
44(4) . . .
40.4(33) . . .
39.8(33) . . .
43(4) . . .
50(4) . . .
46(4) . . .
42.1(33) . . .
42.2(35) . . .
35.3(33) . . .
45(4) . . .
42(4) . . .
42.7(34) . . .
35.7(31) . . .
42(4) . . .
42.6(35) . . .
54(4) . . .
44.4(35) . . .
50(4) . . .
36.0(31) . . .
41(4) . . .
39.0(35) . . .
45(4) . . .
39.7(33) . . .
45(4) . . .
40(4) . . .
43(4) . . .
53(4) . . .
38.0(33) . . .
39(4) . . .
37.1(32) . . .
56(4) . . .
48(4) . . .
37(4) . . .
37.6(33) . . .
37.3(33) . . .
37.4(32) . . .
48(4) . . .
41.9(34) . . .
49(4) . . .
39(4) . . .
37.2(32) . . .
35.3(31) . . .
42(4) . . .
44(4) . . .
35.6(31) . . .
40.3(33) . . .
34.8(31) . . .
44(4) . . .
42.5(35) . . .
39.3(33) . . .
45.5(35) . . .
37.0(31) . . .
34.7(31) . . .
37.4(34) . . .
47(4) . . .
47(4) . . .
48(4) . . .
41(4) . . .
52(4) . . .
40.5(34) . . .
41.7(34) . . .
44(4) . . .
45(4) . . .
39.4(34) . . .
38.3(33) . . .
44.6(34) . . .
49(4) . . .
45(4) . . .
41(4) . . .
40.0(34) . . .
40.4(33) . . .
43.4(34) . . .
42(4) . . .
47(4) . . .
47(4) . . .
51(4) . . .
41.4(33) . . .
46(4) . . .
40.7(35) . . .
50(4) . . .
43.9(34) . . .
35.3(32) . . .
41(4) . . .
45(4) . . .
48(4) . . .
53(4) . . .
54(4) . . .
43(4) . . .
42(4) . . .
49(4) . . .
37.7(33) . . .
46(4) . . .
40.0(34) . . .
42(4) . . .
37.1(32) . . .
49(4) . . .
40.5(34) . . .
44(4) . . .
46(4) . . .
40.3(33) . . .
41.9(35) . . .
44(4) . . .
42(4) . . .
42.1(35) . . .
41.0(34) . . .
32.1(30) . . .
41.8(35) . . .
50(4) . . .
44.5(34) . . .
46(4) . . .
35.8(31) . . .
48(4) . . .
46(4) . . .
52(4) . . .
48(4) . . .
42.0(34) . . .
49(4) . . .
50(4) . . .
50(4) . . .
36.3(31) . . .
47(4) . . .
53(4) . . .
33.5(33) . . .
31.4(30) . . .
41.0(33) . . .
47(4) . . .
41.2(35) . . .
34.1(31) . . .
46(4) . . .
44.5(34) . . .
46(4) . . .
38.1(32) . . .
47(4) . . .
48(4) . . .
44(4) . . .
37.9(33) . . .
42(4) . . .
42.0(35) . . .
46(4) . . .
43.9(35) . . .
43(4) . . .
43(4) . . .
44(4) . . .
37.7(32) . . .
43.4(35) . . .
42(4) . . .
36.2(34) . . .
42(4) . . .
42.5(34) . . .
40.4(33) . . .
35.0(32) . . .
43(4) . . .
50(4) . . .
44.0(34) . . .
42.3(35) . . .
45(4) . . .
47(4) . . .
37.3(33) . . .
39.1(32) . . .
37.8(33) . . .
47(4) . . .
42(4) . . .
44(4) . . .
30.3(28) . . .
44.5(35) . . .
56(4) . . .
42(4) . . .
34.5(32) . . .
38.5(33) . . .
37.5(33) . . .
51(4) . . .
35.7(32) . . .
39.0(34) . . .
40.1(33) . . .
46(4) . . .
43(4) . . .
40.0(35) . . .
51(4) . . .
40.3(33) . . .
34.5(31) . . .
41(4) . . .
37.0(32) . . .
49(4) . . .
42.2(33) . . .
41.2(34) . . .
41(4) . . .
37.1(31) . . .
48(4) . . .
52(4) . . .
47(4) . . .
42(4) . . .
43(4) . . .
38.5(33) . . .
45.6(35) . . .
39.3(33) . . .
40.8(34) . . .
40.4(34) . . .
43.1(34) . . .
45(4) . . .
45(4) . . .
35.2(31) . . .
41.9(34) . . .
34.3(31) . . .
42.7(34) . . .
45(4) . . .
39.4(33) . . .
45(4) . . .
41.7(34) . . .
36.8(32) . . .
36.8(34) . . .
40.2(35) . . .
35.3(33) . . .
45.1(35) . . .
46(4) . . .
54(4) . . .
42(4) . . .
37.5(33) . . .
41.7(34) . . .
45(4) . . .
38.5(33) . . .
46(4) . . .
40.8(34) . . .
42.5(34) . . .
57(4) . . .
47(4) . . .
46(4) . . .
47(4) . . .
43.3(34) . . .
44.7(35) . . .
51(4) . . .
44(4) . . .
45(4) . . .
54(4) . . .
42.6(35) . . .
51(4) . . .
42.6(35) . . .
42.7(35) . . .
40.1(33) . . .
44(4) . . .
31.4(29) . . .
40.8(34) . . .
31.2(29) . . .
36.8(32) . . .
41.2(34) . . .
36.6(33) . . .
46(4) . . .
43.8(34) . . .
39.5(32) . . .
37.5(34) . . .
46(4) . . .
48(4) . . .
43.1(34) . . .
41.5(34) . . .
39.6(35) . . .
49(4) . . .
49(4) . . .
41.6(34) . . .
36.5(32) . . .
47(4) . . .
37.5(34) . . .
45(4) . . .
43.1(34) . . .
41.1(33) . . .
35.1(31) . . .
40.3(35) . . .
41.6(33) . . .
48(4) . . .
40.2(34) . . .
40.0(33) . . .
46(4) . . .
43.1(35) . . .
45(4) . . .
44.0(34) . . .
39.5(34) . . .
32.9(32) . . .
37.9(34) . . .
36.3(31) . . .
44(4) . . .
46(4) . . .
54(4) . . .
39.1(33) . . .
35.6(31) . . .
40.0(33) . . .
45(4) . . .
48(4) . . .
43.5(35) . . .
41.3(33) . . .
44(4) . . .
51(4) . . .
42.5(34) . . .
40.2(34) . . .
42(4) . . .
44(4) . . .
33.9(33) . . .
38.7(34) . . .
49(4) . . .
52(4) . . .
41.0(34) . . .
47(4) . . .
53(4) . . .
37.2(31) . . .
42.2(34) . . .
41.5(34) . . .
44(4) . . .
52(4) . . .
41.1(33) . . .
52(4) . . .
44(4) . . .
44(4) . . .
41.4(34) . . .
36.7(31) . . .
39.0(33) . . .
34.6(31) . . .
43(4) . . .
46(4) . . .
38.7(32) . . .
40.0(33) . . .
39.5(34) . . .
40.4(35) . . .
45(4) . . .
41.9(34) . . .
44(4) . . .
34.6(30) . . .
44(4) . . .
39.8(32) . . .
40.1(33) . . .
39.7(32) . . .
46(4) . . .
41(4) . . .
40.7(34) . . .
45.8(35) . . .
40.3(33) . . .
48(4) . . .
40.7(35) . . .
40.2(34) . . .
47(4) . . .
48(4) . . .
42.5(35) . . .
45(4) . . .
46(4) . . .
36.6(32) . . .
47(4) . . .
45(4) . . .
44(4) . . .
42.3(34) . . .
43.4(34) . . .
40.0(33) . . .
44(4) . . .
35.5(33) . . .
44(4) . . .
42.6(34) . . .
49(4) . . .
39.9(32) . . .
48(4) . . .
49(4) . . .
40.2(33) . . .
43(4) . . .
49(4) . . .
50(4) . . .
46(4) . . .
37.6(32) . . .
35.0(32) . . .
36.7(32) . . .
44(4) . . .
43.3(34) . . .
38.0(33) . . .
32.0(30) . . .
45(4) . . .
34.8(32) . . .
47(4) . . .
42.8(34) . . .
49(4) . . .
40.4(33) . . .
44(4) . . .
50(4) . . .
53(4) . . .
49(4) . . .
44(4) . . .
52(4) . . .
35.0(31) . . .
37.7(33) . . .
45(4) . . .
51(4) . . .
47(4) . . .
35.4(31) . . .
37.2(33) . . .
45(4) . . .
40.9(34) . . .
38.2(32) . . .
40.5(34) . . .
38.0(32) . . .
43(4) . . .
42(4) . . .
39.1(34) . . .
38.8(33) . . .
56(4) . . .
52(4) . . .
46(4) . . .
44.8(35) . . .
51(4) . . .
39.7(34) . . .
39.8(35) . . .
41.3(34) . . .
46.3(35) . . .
52(4) . . .
41.1(34) . . .
39(4) . . .
45(4) . . .
41.4(34) . . .
46(4) . . .
40.2(35) . . .
46(4) . . .
50(4) . . .
48(4) . . .
49(4) . . .
46(4) . . .
43(4) . . .
48(4) . . .
48(4) . . .
43.1(35) . . .
38(4) . . .
47(4) . . .
44.4(35) . . .
46(4) . . .
42.2(35) . . .
51(4) . . .
41.3(35) . . .
40.8(35) . . .
35.3(31) . . .
49(4) . . .
33.9(33) . . .
38.1(33) . . .
43(4) . . .
41.4(34) . . .
37.9(32) . . .
32.9(30) . . .
44(4) . . .
39.6(34) . . .
54(4) . . .
44(4) . . .
41(4) . . .
43.0(35) . . .
47(4) . . .
45.1(34) . . .
51(4) . . .
33.9(32) . . .
31.7(30) . . .
40.2(33) . . .
38.2(33) . . .
38.7(33) . . .
41.2(34) . . .
38.4(34) . . .
37.1(32) . . .
37.1(32) . . .
36.2(31) . . .
36.0(31) . . .
37.7(33) . . .
37.7(32) . . .
45.4(35) . . .
44.1(34) . . .
39(4) . . .
41.5(35) . . .
54(4) . . .
44(4) . . .
32.6(30) . . .
43(4) . . .
39.5(33) . . .
48(4) . . .
50(4) . . .
37.3(31) . . .
34.6(31) . . .
40(4) . . .
44.4(34) . . .
51(4) . . .
40.9(34) . . .
35.9(32) . . .
47(4) . . .
49(4) . . .
57(4) . . .
46(4) . . .
44(4) . . .
47(4) . . .
39.9(33) . . .
37.3(33) . . .
35.1(32) . . .
40(4) . . .
39.3(32) . . .
46(4) . . .
41.0(35) . . .
38(4) . . .
35.1(32) . . .
35.3(32) . . .
36.2(31) . . .
44(4) . . .
47(4) . . .
37.8(32) . . .
39.6(33) . . .
43.3(34) . . .
46(4) . . .
35.5(31) . . .
40.6(34) . . .
41.8(34) . . .
34.1(31) . . .
54(4) . . .
41(4) . . .
36.9(32) . . .
39.5(33) . . .
45.0(34) . . .
51(4) . . .
38.0(33) . . .
34.7(32) . . .
43.2(34) . . .
50(4) . . .
48(4) . . .
46(4) . . .
46(4) . . .
39.9(33) . . .
32.5(31) . . .
40(4) . . .
42(4) . . .
47(4) . . .
40.8(34) . . .
39.6(33) . . .
34.5(31) . . .
37.8(33) . . .
44(4) . . .
45(4) . . .
34.7(31) . . .
38.1(32) . . .
38.9(33) . . .
40.7(33) . . .
44(4) . . .
43.4(34) . . .
42(4) . . .
43(4) . . .
36.0(31) . . .
41.9(34) . . .
43(4) . . .
41(4) . . .
33.7(33) . . .
36.7(33) . . .
39.9(33) . . .
42.6(35) . . .
45(4) . . .
35.7(32) . . .
38.1(32) . . .
40.6(33) . . .
54(4) . . .
39.4(35) . . .
48(4) . . .
45.0(34) . . .
40.5(33) . . .
33.3(32) . . .
41.5(34) . . .
48(4) . . .
44.1(35) . . .
41.2(34) . . .
43(4) . . .
40(4) . . .
45(4) . . .
39.9(33) . . .
33.1(30) . . .
45(4) . . .
39.7(34) . . .
42.4(34) . . .
38.7(32) . . .
46(4) . . .
35.5(31) . . .
41(4) . . .
36.9(35) . . .
35.6(31) . . .
48(4) . . .
38.6(33) . . .
48(4) . . .
46(4) . . .
48(4) . . .
45(4) . . .
43(4) . . .
44(4) . . .
32.5(30) . . .
44.2(35) . . .
34.4(31) . . .
42(4) . . .
37.3(34) . . .
46(4) . . .
41.7(34) . . .
36.9(32) . . .
39.0(35) . . .
39.2(33) . . .
47(4) . . .
43.3(35) . . .
36.2(32) . . .
37.7(33) . . .
48(4) . . .
41.0(34) . . .
39.9(33) . . .
47(4) . . .
38.0(35) . . .
40(4) . . .
31.3(29) . . .
43.6(34) . . .
36.9(31) . . .
43(4) . . .
38.9(33) . . .
47(4) . . .
31.7(29) . . .
40(4) . . .
39(4) . . .
33.3(32) . . .
37.9(32) . . .
32.5(29) . . .
34.3(32) . . .
35.0(31) . . .
47(4) . . .
49(4) . . .
44.7(35) . . .
40.5(34) . . .
44(4) . . .
49(4) . . .
38.7(33) . . .
39.3(33) . . .
33.1(32) . . .
34.8(34) . . .
39.3(33) . . .
38.7(32) . . .
40.5(34) . . .
48(4) . . .
54(4) . . .
48(4) . . .
35.9(31) . . .
38.8(33) . . .
42.7(35) . . .
46(4) . . .
33.5(31) . . .
41.5(34) . . .
49(4) . . .
40.3(35) . . .
32.9(31) . . .
38.0(35) . . .
43.5(34) . . .
41.6(34) . . .
41.8(35) . . .
46(4) . . .
37.3(32) . . .
36.6(31) . . .
46(4) . . .
47(4) . . .
49(4) . . .
50(4) . . .
45(4) . . .
40.4(33) . . .
39.9(34) . . .
42.1(35) . . .
39.6(33) . . .
38.8(33) . . .
36.0(33) . . .
44(4) . . .
42(4) . . .
50(4) . . .
46(4) . . .
37.2(33) . . .
45(4) . . .
43.1(35) . . .
45.2(34) . . .
44.8(35) . . .
41.7(34) . . .
42(4) . . .
35.1(32) . . .
39.6(33) . . .
43.1(35) . . .
47(4) . . .
36.7(32) . . .
41.8(34) . . .
49(4) . . .
41.0(35) . . .
35.7(33) . . .
43(4) . . .
40.3(34) . . .
34.7(30) . . .
36.7(33) . . .
43(4) . . .
43(4) . . .
37.3(32) . . .
43.8(34) . . .
40.7(35) . . .
39.6(34) . . .
47(4) . . .
42.7(34) . . .
44(4) . . .
35.3(32) . . .
36.1(32) . . .
36.1(32) . . .
29.3(28) . . .
33.2(30) . . .
37.4(32) . . .
45(4) . . .
39(4) . . .
37.3(32) . . .
40.3(33) . . .
44(4) . . .
33.4(33) . . .
45(4) . . .
35.7(31) . . .
41.0(33) . . .
40.1(34) . . .
38(4) . . .
41.8(35) . . .
45.4(35) . . .
45(4) . . .
41.5(34) . . .
43(4) . . .
40.5(34) . . .
41.4(33) . . .
38.4(32) . . .
49(4) . . .
39.2(33) . . .
45(4) . . .
46(4) . . .
46(4) . . .
35.3(33) . . .
39(4) . . .
38.9(34) . . .
46(4) . . .
49(4) . . .
35.5(31) . . .
50(4) . . .
35.9(31) . . .
39.7(32) . . .
42(4) . . .
46(4) . . .
41(4) . . .
38.9(34) . . .
37.7(32) . . .
35.1(32) . . .
39.3(35) . . .
40.8(34) . . .
39.5(33) . . .
44.3(35) . . .
43.5(35) . . .
38.8(32) . . .
41.2(33) . . .
33.8(33) . . .
33.3(30) . . .
47(4) . . .
45(4) . . .
42.8(35) . . .
38.2(32) . . .
30.7(29) . . .
29.3(30) . . .
39.1(34) . . .
51(4) . . .
49(4) . . .
45(4) . . .
46(4) . . .
37.4(34) . . .
42(4) . . .
35.5(31) . . .
47(4) . . .
38.9(33) . . .
39.1(34) . . .
44(4) . . .
42.7(35) . . .
41.6(33) . . .
44(4) . . .
36.4(34) . . .
37.9(34) . . .
37.7(32) . . .
40.2(33) . . .
40(4) . . .
35.6(31) . . .
39.9(33) . . .
42.7(34) . . .
44.0(35) . . .
40.7(33) . . .
42.6(35) . . .
39.0(34) . . .
40.9(33) . . .
50(4) . . .
44(4) . . .
40.5(34) . . .
41.1(33) . . .
50(4) . . .
39.6(33) . . .
42(4) . . .
42.1(34) . . .
40.8(34) . . .
44.3(35) . . .
40.9(34) . . .
37.8(34) . . .
34.9(33) . . .
34.0(34) . . .
35.3(31) . . .
36.7(34) . . .
37.5(33) . . .
37.6(32) . . .
45.2(35) . . .
43.4(34) . . .
40.9(35) . . .
48(4) . . .
34.2(30) . . .
31.0(29) . . .
43.4(34) . . .
43(4) . . .
37.4(33) . . .
49(4) . . .
40.3(33) . . .
41.3(33) . . .
51(4) . . .
45(4) . . .
43(4) . . .
39.0(33) . . .
45.3(35) . . .
52(4) . . .
46(4) . . .
45(4) . . .
37.2(32) . . .
35.1(31) . . .
39.9(33) . . .
44(4) . . .
41.7(35) . . .
39.5(33) . . .
37.8(32) . . .
48(4) . . .
42.8(35) . . .
47(4) . . .
50(4) . . .
45.3(34) . . .
47(4) . . .
36.9(33) . . .
37.2(32) . . .
37.1(32) . . .
36.6(32) . . .
37.7(33) . . .
42(4) . . .
39.5(33) . . .
52(4) . . .
39.8(33) . . .
47(4) . . .
43.4(35) . . .
37.7(32) . . .
39.2(32) . . .
33.5(31) . . .
39.3(33) . . .
38.3(33) . . .
47(4) . . .
41.9(35) . . .
44.2(35) . . .
37.7(32) . . .
43(4) . . .
33.3(30) . . .
48(4) . . .
40.7(35) . . .
33.8(32) . . .
39.2(34) . . .
40.7(34) . . .
35.2(31) . . .
47(4) . . .
40.3(35) . . .
41.8(35) . . .
44.3(35) . . .
40.0(33) . . .
43(4) . . .
40(4) . . .
44(4) . . .
32.0(29) . . .
43.1(35) . . .
43(4) . . .
47(4) . . .
39.5(33) . . .
37.1(32) . . .
45.3(35) . . .
36.7(33) . . .
33.7(31) . . .
36.5(32) . . .
43.9(34) . . .
49(4) . . .
43(4) . . .
36.4(32) . . .
44(4) . . .
34.5(31) . . .
42.9(35) . . .
39(4) . . .
40(4) . . .
41.2(34) . . .
44(4) . . .
39.5(32) . . .
37.3(32) . . .
44(4) . . .
36.0(32) . . .
37.5(32) . . .
34.1(32) . . .
36.7(33) . . .
45(4) . . .
46.2(35) . . .
40.2(33) . . .
48(4) . . .
50(4) . . .
42(4) . . .
42.3(34) . . .
40.4(33) . . .
33.8(29) . . .
40(4) . . .
34.7(33) . . .
32.0(29) . . .
36.5(32) . . .
43(4) . . .
45.0(35) . . .
54(4) . . .
50(4) . . .
43(4) . . .
51(4) . . .
45(4) . . .
37.8(33) . . .
41.6(33) . . .
37.2(32) . . .
39.1(34) . . .
46(4) . . .
43.4(35) . . .
42.6(34) . . .
30.9(30) . . .
49(4) . . .
47(4) . . .
38.3(34) . . .
44.0(35) . . .
47(4) . . .
38.1(33) . . .
42(4) . . .
39.4(34) . . .
48(4) . . .
39.8(34) . . .
28.7(28) . . .
54(4) . . .
45(4) . . .
38.0(33) . . .
43(4) . . .
44(4) . . .
47(4) . . .
41.9(33) . . .
37.2(32) . . .
48(4) . . .
48(4) . . .
44(4) . . .
35.6(31) . . .
48(4) . . .
36.0(31) . . .
41(4) . . .
35.2(32) . . .
33.0(30) . . .
50(4) . . .
39.6(33) . . .
36.3(33) . . .
31.9(30) . . .
41.2(34) . . .
47(4) . . .
34.3(31) . . .
35.1(32) . . .
47(4) . . .
47(4) . . .
41.6(34) . . .
41(4) . . .
34.2(32) . . .
46(4) . . .
46(4) . . .
46(4) . . .
43.3(35) . . .
49(4) . . .
51(4) . . .
37.1(32) . . .
34.3(31) . . .
38.2(34) . . .
43(4) . . .
35.0(33) . . .
41.3(34) . . .
39.9(33) . . .
42.0(34) . . .
37.6(31) . . .
44(4) . . .
45.8(35) . . .
36.5(32) . . .
38.1(32) . . .
42(4) . . .
33.1(31) . . .
42.6(33) . . .
35.9(31) . . .
50(4) . . .
37.0(32) . . .
47(4) . . .
48(4) . . .
38.4(35) . . .
37(4) . . .
38.6(34) . . .
41.2(35) . . .
37.7(32) . . .
43(4) . . .
39(4) . . .
37.7(34) . . .
37.4(33) . . .
39.0(33) . . .
43(4) . . .
44(4) . . .
42(4) . . .
49(4) . . .
44(4) . . .
40.4(33) . . .
38.8(35) . . .
43(4) . . .
46(4) . . .
44(4) . . .
44(4) . . .
45(4) . . .
37.9(34) . . .
44(4) . . .
44.6(35) . . .
48(4) . . .
38.0(33) . . .
44.1(35) . . .
35.4(31) . . .
37.4(32) . . .
52(4) . . .
38.7(34) . . .
35.5(32) . . .
35.7(31) . . .
36.7(32) . . .
34.8(33) . . .
46(4) . . .
41.0(33) . . .
32.4(30) . . .
38.9(32) . . .
45(4) . . .
45(4) . . .
36.9(33) . . .
42.0(33) . . .
40.0(34) . . .
42.6(35) . . .
35.7(32) . . .
40.0(34) . . .
43.7(35) . . .
37.8(32) . . .
39.3(34) . . .
43(4) . . .
38.0(34) . . .
35.2(31) . . .
46(4) . . .
42(4) . . .
33.2(30) . . .
37.7(33) . . .
50(4) . . .
45(4) . . .
43(4) . . .
37.7(34) . . .
40.7(34) . . .
39.9(33) . . .
43(4) . . .
42(4) . . .
46(4) . . .
41.6(34) . . .
42.9(34) . . .
49(4) . . .
41(4) . . .
45(4) . . .
43(4) . . .
37.6(33) . . .
37.2(33) . . .
37.0(33) . . .
38.2(33) . . .
40.9(33) . . .
39.2(32) . . .
43.7(35) . . .
41.1(35) . . .
42(4) . . .
43.5(35) . . .
38.0(32) . . .
40.7(34) . . .
38.6(35) . . .
34.8(33) . . .
35.5(31) . . .
36.4(32) . . .
40.4(35) . . .
45(4) . . .
41(4) . . .
40.2(33) . . .
41.8(34) . . .
37.5(34) . . .
35.3(31) . . .
32.3(30) . . .
28.6(29) . . .
40.2(33) . . .
35.5(31) . . .
41.3(34) . . .
45(4) . . .
40.2(34) . . .
45(4) . . .
48(4) . . .
39.4(35) . . .
46(4) . . .
41.4(34) . . .
39.6(35) . . .
45(4) . . .
47(4) . . .
40.8(33) . . .
47(4) . . .
33.6(31) . . .
33.3(32) . . .
46(4) . . .
31.7(30) . . .
37.0(32) . . .
36.4(31) . . .
37.7(33) . . .
48(4) . . .
38.6(33) . . .
41.8(34) . . .
34.8(32) . . .
38.1(34) . . .
47(4) . . .
44.7(34) . . .
40.8(34) . . .
36.1(33) . . .
44(4) . . .
44(4) . . .
34.8(32) . . .
41.6(34) . . .
44.0(33) . . .
49(4) . . .
46(4) . . .
41.7(34) . . .
29.1(28) . . .
36.1(34) . . .
44(4) . . .
43.9(35) . . .
40.7(33) . . .
45(4) . . .
36.7(32) . . .
42.7(35) . . .
39.7(33) . . .
32.7(30) . . .
35.6(32) . . .
46(4) . . .
41(4) . . .
36.7(32) . . .
43.7(34) . . .
39.4(34) . . .
45(4) . . .
43(4) . . .
45(4) . . .
33.6(30) . . .
41(4) . . .
39.0(34) . . .
43(4) . . .
35.3(31) . . .
44.5(35) . . .
34(4) . . .
43(4) . . .
45(4) . . .
45(4) . . .
37.5(32) . . .
35.4(32) . . .
39(4) . . .
32.2(30) . . .
41.9(34) . . .
41.4(33) . . .
46(4) . . .
39.7(34) . . .
40.8(33) . . .
37.5(32) . . .
39.8(34) . . .
51(4) . . .
43(4) . . .
38.5(34) . . .
36.6(32) . . .
42.9(34) . . .
46(4) . . .
43(4) . . .
48(4) . . .
44.7(35) . . .
47(4) . . .
51(4) . . .
43(4) . . .
41.7(35) . . .
39.0(33) . . .
42.4(34) . . .
32.4(31) . . .
42(4) . . .
40.8(34) . . .
37.6(32) . . .
33.7(32) . . .
39.0(34) . . .
34.0(31) . . .
36.8(33) . . .
35.6(31) . . .
38.7(34) . . .
50(4) . . .
41(4) . . .
43(4) . . .
38.9(32) . . .
41.9(34) . . .
44(4) . . .
37.2(33) . . .
43.7(35) . . .
37.0(33) . . .
37.2(33) . . .
31.0(30) . . .
41(4) . . .
32.5(29) . . .
39.4(33) . . .
35.2(31) . . .
38.8(35) . . .
43(4) . . .
35.7(31) . . .
41.2(34) . . .
41(4) . . .
31.8(32) . . .
32.2(31) . . .
42.1(34) . . .
45.0(35) . . .
43.0(34) . . .
43(4) . . .
41(4) . . .
36.4(31) . . .
38.1(32) . . .
35.5(33) . . .
37(4) . . .
36.4(32) . . .
44.0(34) . . .
44(4) . . .
45.0(35) . . .
37.6(33) . . .
35.3(33) . . .
29.2(28) . . .
45(4) . . .
47(4) . . .
36.5(33) . . .
44(4) . . .
45.9(35) . . .
39.4(35) . . .
34.7(32) . . .
34.8(31) . . .
41.8(34) . . .
38.5(32) . . .
42(4) . . .
46(4) . . .
52(4) . . .
37.7(32) . . .
29.7(28) . . .
42(4) . . .
41(4) . . .
44(4) . . .
37.7(32) . . .
32.7(31) . . .
39.4(34) . . .
41(4) . . .
35.2(32) . . .
37.3(32) . . .
54(4) . . .
41.8(34) . . .
45(4) . . .
39.0(31) . . .
47(4) . . .
32.5(30) . . .
42(4) . . .
39(4) . . .
46(4) . . .
46(4) . . .
37.3(32) . . .
38.2(32) . . .
42(4) . . .
43(4) . . .
42.6(34) . . .
43.1(35) . . .
31.9(30) . . .
28.5(31) . . .
28.4(28) . . .
36.1(32) . . .
39.8(32) . . .
46(4) . . .
45(4) . . .
38.4(35) . . .
30.3(29) . . .
37.0(31) . . .
39.6(33) . . .
42(4) . . .
49(4) . . .
42.1(33) . . .
35.7(32) . . .
41(4) . . .
44(4) . . .
36.5(32) . . .
37.1(32) . . .
49(4) . . .
33.0(33) . . .
35.8(34) . . .
36.7(31) . . .
36.3(32) . . .
37.6(33) . . .
38.6(34) . . .
48(4) . . .
43(4) . . .
36.8(31) . . .
40.0(33) . . .
39.5(34) . . .
44(4) . . .
38.0(32) . . .
39.1(32) . . .
34.9(31) . . .
38.0(33) . . .
36.9(31) . . .
46(4) . . .
53(4) . . .
30.6(29) . . .
35.5(33) . . .
47(4) . . .
43.3(34) . . .
41.1(33) . . .
28.7(28) . . .
39(4) . . .
41.4(34) . . .
44.6(35) . . .
42.6(35) . . .
38.0(33) . . .
38(4) . . .
39.3(33) . . .
43.6(34) . . .
44.6(35) . . .
38.6(34) . . .
40.6(35) . . .
32.4(29) . . .
37.8(33) . . .
41.5(33) . . .
52(4) . . .
44(4) . . .
42.1(35) . . .
49(4) . . .
33.6(30) . . .
34.8(32) . . .
50(4) . . .
43.6(34) . . .
42.1(34) . . .
42.5(35) . . .
36.0(32) . . .
30.0(29) . . .
31.5(29) . . .
36.9(32) . . .
37.1(34) . . .
40(4) . . .
37.0(34) . . .
39.1(33) . . .
41.3(33) . . .
37.1(33) . . .
38.9(34) . . .
28.4(27) . . .
51(4) . . .
44.1(34) . . .
41.3(33) . . .
47(4) . . .
42.2(34) . . .
38.8(32) . . .
41.0(33) . . .
37.8(33) . . .
42(4) . . .
35.7(32) . . .
38.5(33) . . .
45(4) . . .
35.8(32) . . .
40(4) . . .
39.0(33) . . .
36.7(32) . . .
37.1(31) . . .
35.5(32) . . .
38.5(34) . . .
40.6(35) . . .
31.5(29) . . .
44(4) . . .
37.1(34) . . .
46(4) . . .
40.0(34) . . .
31.9(29) . . .
29.0(29) . . .
44(4) . . .
43(4) . . .
32.3(30) . . .
40.7(33) . . .
34.3(32) . . .
37.4(33) . . .
34.9(33) . . .
38.8(34) . . .
33.6(30) . . .
43.7(35) . . .
41.6(34) . . .
52(4) . . .
38.2(33) . . .
46(4) . . .
44(4) . . .
42.0(34) . . .
43.2(35) . . .
40.1(34) . . .
41.7(34) . . .
39.3(33) . . .
50(4) . . .
41.2(34) . . .
37.3(31) . . .
31.5(29) . . .
43(4) . . .
37.5(35) . . .
42(4) . . .
38.0(32) . . .
42.1(33) . . .
44(4) . . .
44.3(35) . . .
43(4) . . .
41.8(34) . . .
43.0(35) . . .
43(4) . . .
40.1(35) . . .
40.4(33) . . .
44(4) . . .
34.6(31) . . .
35.6(33) . . .
36.8(33) . . .
45(4) . . .
33.3(31) . . .
33.0(30) . . .
32.8(31) . . .
38.9(33) . . .
41.6(35) . . .
42.1(33) . . .
36.5(32) . . .
40.3(34) . . .
38.4(33) . . .
36.9(33) . . .
29.5(28) . . .
49(4) . . .
38.8(34) . . .
50(4) . . .
43(4) . . .
30.4(29) . . .
46(4) . . .
42.3(35) . . .
40.4(34) . . .
34.4(32) . . .
43.0(34) . . .
45(4) . . .
43(4) . . .
36.1(33) . . .
47(4) . . .
37.9(32) . . .
45(4) . . .
42(4) . . .
34.4(30) . . .
39.0(32) . . .
48(4) . . .
50(4) . . .
49(4) . . .
37.6(32) . . .
36.0(32) . . .
45(4) . . .
40.0(33) . . .
44(4) . . .
47(4) . . .
48(4) . . .
43(4) . . .
45(4) . . .
37.1(33) . . .
42.0(35) . . .
43.2(34) . . .
35.8(33) . . .
32.7(29) . . .
41(4) . . .
36.9(34) . . .
41.8(34) . . .
38.5(32) . . .
45(4) . . .
51(4) . . .
34.6(31) . . .
33.0(30) . . .
34.2(30) . . .
28.5(27) . . .
36.8(33) . . .
44(4) . . .
37.8(32) . . .
34.4(31) . . .
37.2(33) . . .
38.4(33) . . .
41.6(34) . . .
34.7(30) . . .
42.9(35) . . .
40.2(35) . . .
45(4) . . .
43.9(35) . . .
39.5(33) . . .
43.2(34) . . .
36.5(33) . . .
37.5(34) . . .
30.6(29) . . .
32.8(30) . . .
45(4) . . .
48(4) . . .
35.5(32) . . .
39.2(34) . . .
45.5(35) . . .
38.0(33) . . .
37.5(34) . . .
41.8(35) . . .
39.2(33) . . .
27.7(28) . . .
36.9(32) . . .
37.5(33) . . .
42(4) . . .
40.1(33) . . .
42.8(34) . . .
35.2(32) . . .
45(4) . . .
45(4) . . .
49(4) . . .
36.2(31) . . .
38.8(33) . . .
41(4) . . .
43(4) . . .
38.7(33) . . .
42.2(33) . . .
55(4) . . .
46(4) . . .
39.6(33) . . .
38.8(33) . . .
41.8(34) . . .
38.5(33) . . .
41(4) . . .
33.5(30) . . .
33.0(30) . . .
37.3(32) . . .
39.8(33) . . .
45(4) . . .
38.5(34) . . .
35.7(31) . . .
39.2(33) . . .
36.2(32) . . .
42.0(34) . . .
43.8(34) . . .
44.5(35) . . .
34.3(33) . . .
32.9(30) . . .
42.5(35) . . .
36.4(31) . . .
36.1(32) . . .
36.4(31) . . .
37.1(33) . . .
29.0(28) . . .
41.4(33) . . .
34.3(31) . . .
33.5(31) . . .
33.8(33) . . .
42(4) . . .
35.2(32) . . .
37.6(31) . . .
41.6(34) . . .
38.9(34) . . .
43(4) . . .
45(4) . . .
40.3(33) . . .
45(4) . . .
39.7(35) . . .
44(4) . . .
31.5(29) . . .
41.3(34) . . .
36.1(33) . . .
42(4) . . .
45(4) . . .
41.8(33) . . .
42.8(34) . . .
39.7(34) . . .
42(4) . . .
40.4(35) . . .
39.9(34) . . .
36.1(31) . . .
39.4(33) . . .
41.4(35) . . .
43(4) . . .
35.9(32) . . .
33.5(31) . . .
50(4) . . .
43.3(35) . . .
44.2(35) . . .
36.0(32) . . .
32.7(30) . . .
35.2(31) . . .
39.0(34) . . .
44(4) . . .
38.7(33) . . .
37.2(33) . . .
42.7(34) . . .
40.7(32) . . .
41.7(33) . . .
40.0(34) . . .
37.0(32) . . .
41(4) . . .
37.1(33) . . .
34.4(31) . . .
41.6(34) . . .
37.7(33) . . .
39.2(35) . . .
38.6(35) . . .
30.3(30) . . .
43.7(34) . . .
36.3(31) . . .
40.5(34) . . .
36.3(32) . . .
37.5(33) . . .
36.3(31) . . .
42.9(35) . . .
52(4) . . .
38(4) . . .
39.1(33) . . .
43.5(34) . . .
48(4) . . .
51(4) . . .
43(4) . . .
42.4(34) . . .
38.3(32) . . .
37.2(33) . . .
27.3(29) . . .
34.2(31) . . .
45(4) . . .
40.5(33) . . .
41.0(35) . . .
42(4) . . .
45(4) . . .
48(4) . . .
41.1(33) . . .
32.9(31) . . .
33.0(33) . . .
33.8(33) . . .
43.8(34) . . .
34.4(31) . . .
37.5(33) . . .
36.3(32) . . .
34.4(30) . . .
31.4(29) . . .
34.8(31) . . .
46(4) . . .
37.0(33) . . .
37.1(34) . . .
43.1(34) . . .
32.1(30) . . .
36.6(34) . . .
39.1(35) . . .
40.2(34) . . .
42.1(34) . . .
38.6(35) . . .
37.1(32) . . .
37.9(33) . . .
41.7(33) . . .
48(4) . . .
35.0(34) . . .
37.2(33) . . .
40.7(34) . . .
37.7(32) . . .
34.8(31) . . .
42(4) . . .
40.0(35) . . .
35.8(31) . . .
39.5(34) . . .
34.0(30) . . .
34.9(31) . . .
29.5(30) . . .
33.7(31) . . .
35.4(31) . . .
37.4(32) . . .
40(4) . . .
35.9(35) . . .
36.9(34) . . .
30.4(29) . . .
36.1(32) . . .
38.1(34) . . .
35.3(34) . . .
39.7(33) . . .
41.6(34) . . .
34.1(31) . . .
30.6(29) . . .
37.3(35) . . .
25.0(27) . . .
42.8(34) . . .
43.9(34) . . .
51(4) . . .
49(4) . . .
43.0(35) . . .
36.7(31) . . .
39.3(33) . . .
36.0(31) . . .
32.9(29) . . .
34.6(32) . . .
35.6(32) . . .
37.0(32) . . .
41(4) . . .
39.6(35) . . .
37.3(32) . . .
37.5(32) . . .
44(4) . . .
35.5(32) . . .
36.7(32) . . .
44(4) . . .
43.7(34) . . .
41.3(35) . . .
39.7(34) . . .
36.5(31) . . .
41.7(34) . . .
45.6(35) . . .
37.3(33) . . .
38(4) . . .
39.3(32) . . .
32.8(30) . . .
42.3(34) . . .
34.6(32) . . .
35(4) . . .
47(4) . . .
35.3(30) . . .
48(4) . . .
37.8(32) . . .
41(4) . . .
43(4) . . .
42.7(34) . . .
35.2(31) . . .
45(4) . . .
36.6(35) . . .
39(4) . . .
45(4) . . .
30.1(29) . . .
37.8(32) . . .
42(4) . . .
34.6(33) . . .
37.3(33) . . .
33.2(29) . . .
39.4(33) . . .
40.0(34) . . .
31.0(29) . . .
35.2(31) . . .
38.1(33) . . .
47(4) . . .
39.4(33) . . .
45(4) . . .
43.3(34) . . .
47(4) . . .
37.8(34) . . .
34.0(30) . . .
34.1(31) . . .
36.8(32) . . .
37.6(33) . . .
44(4) . . .
36.7(33) . . .
35.8(31) . . .
38.2(32) . . .
40.1(35) . . .
39.0(34) . . .
45(4) . . .
39.8(33) . . .
39.8(33) . . .
35.1(32) . . .
32.0(32) . . .
34.0(31) . . .
39.8(34) . . .
36.3(31) . . .
39.3(34) . . .
30.3(29) . . .
34.4(32) . . .
40.3(34) . . .
32.8(30) . . .
39.2(32) . . .
38.6(34) . . .
44(4) . . .
36.8(32) . . .
34.1(30) . . .
42(4) . . .
37.7(33) . . .
38.3(33) . . .
31.5(30) . . .
31.1(30) . . .
34.2(32) . . .
41.2(34) . . .
40.4(33) . . .
32.5(29) . . .
33.2(30) . . .
39.8(34) . . .
37.3(33) . . .
32.3(30) . . .
36.9(32) . . .
46(4) . . .
48(4) . . .
46(4) . . .
31.5(31) . . .
29.7(29) . . .
36.4(31) . . .
42(4) . . .
41(4) . . .
31.0(31) . . .
38.8(33) . . .
34.5(32) . . .
34.9(32) . . .
40.7(33) . . .
34.8(31) . . .
34.2(30) . . .
42.0(34) . . .
49(4) . . .
35.0(30) . . .
34.8(31) . . .
43.6(34) . . .
39.1(33) . . .
43(4) . . .
46(4) . . .
41.9(34) . . .
38.8(32) . . .
40.7(34) . . .
35.9(33) . . .
42(4) . . .
42.0(34) . . .
32.2(30) . . .
36.8(34) . . .
40.7(35) . . .
38.6(32) . . .
43.6(34) . . .
38.1(32) . . .
39(4) . . .
41(4) . . .
41.0(34) . . .
36.5(31) . . .
37.3(33) . . .
36.8(31) . . .
38.2(34) . . .
27.3(28) . . .
33.3(30) . . .
34.8(31) . . .
37.4(32) . . .
40.0(35) . . .
38.4(34) . . .
38.1(32) . . .
44(4) . . .
46(4) . . .
38.6(34) . . .
34.4(33) . . .
33.5(30) . . .
41.2(34) . . .
45(4) . . .
40(4) . . .
30.1(30) . . .
34.3(31) . . .
33.1(31) . . .
34.7(31) . . .
42(4) . . .
35.0(31) . . .
37.3(31) . . .
38.2(33) . . .
48(4) . . .
40.5(34) . . .
37.5(33) . . .
34.0(30) . . .
37.4(32) . . .
40.0(34) . . .
40.5(34) . . .
38.2(32) . . .
38.1(32) . . .
29.9(29) . . .
33.8(34) . . .
30.4(30) . . .
37.8(33) . . .
39.4(33) . . .
40.1(34) . . .
33.1(31) . . .
35.7(33) . . .
36.0(31) . . .
43.3(34) . . .
36.4(33) . . .
39(4) . . .
44(4) . . .
38.0(32) . . .
24.4(26) . . .
37.1(32) . . .
32.3(31) . . .
30.3(29) . . .
39.2(33) . . .
40.2(34) . . .
49(4) . . .
46(4) . . .
39.0(35) . . .
30.8(29) . . .
37.3(34) . . .
42(4) . . .
33.0(31) . . .
31.8(30) . . .
36.8(32) . . .
42.8(34) . . .
42.8(34) . . .
31.4(30) . . .
32.3(30) . . .
39.5(33) . . .
40(4) . . .
42(4) . . .
38.9(33) . . .
40.5(35) . . .
45(4) . . .
29.4(28) . . .
44(4) . . .
38.4(33) . . .
37.1(32) . . .
44.6(35) . . .
36.7(33) . . .
38.8(34) . . .
46(4) . . .
42(4) . . .
35.2(31) . . .
45(4) . . .
43(4) . . .
31.4(30) . . .
40.9(34) . . .
44.0(34) . . .
41(4) . . .
40.0(35) . . .
44(4) . . .
49(4) . . .
38.8(32) . . .
32.7(32) . . .
40(4) . . .
37.6(33) . . .
31.7(29) . . .
27.7(27) . . .
38.6(33) . . .
39(4) . . .
32.3(31) . . .
38.5(32) . . .
43.4(34) . . .
40(4) . . .
41(4) . . .
38.5(34) . . .
41.6(34) . . .
40.3(35) . . .
29.5(28) . . .
37.5(34) . . .
35.0(34) . . .
40.3(32) . . .
37.2(33) . . .
39.3(35) . . .
46(4) . . .
33.1(30) . . .
41.1(33) . . .
40.7(35) . . .
39.3(34) . . .
39.0(34) . . .
44(4) . . .
44.6(34) . . .
43.6(35) . . .
39.5(34) . . .
36.6(32) . . .
44(4) . . .
37.9(32) . . .
35.0(31) . . .
39.6(34) . . .
45(4) . . .
42.5(34) . . .
33.5(30) . . .
32.6(30) . . .
33.5(33) . . .
32.0(32) . . .
40.3(34) . . .
38.5(32) . . .
39.9(34) . . .
37.9(34) . . .
34.8(31) . . .
36.5(31) . . .
35.0(31) . . .
36.1(32) . . .
29.2(29) . . .
27.8(27) . . .
38.5(33) . . .
42.8(34) . . .
40.0(34) . . .
33.2(33) . . .
42(4) . . .
48(4) . . .
39.5(33) . . .
40.3(34) . . .
37.9(34) . . .
35.8(31) . . .
38.4(33) . . .
39.8(33) . . .
42.6(34) . . .
47(4) . . .
39.8(34) . . .
35.5(31) . . .
45.1(35) . . .
45(4) . . .
39.6(34) . . .
45(4) . . .
35.3(32) . . .
36.0(31) . . .
38.8(34) . . .
38.2(35) . . .
32.5(32) . . .
35.7(31) . . .
41.8(34) . . .
40(4) . . .
36.0(32) . . .
45(4) . . .
39.6(33) . . .
34.3(31) . . .
34.6(30) . . .
31.8(29) . . .
36.4(34) . . .
32.5(31) . . .
37.3(35) . . .
46(4) . . .
48(4) . . .
38.1(33) . . .
44.4(35) . . .
30.6(30) . . .
24.8(27) . . .
42(4) . . .
37.5(32) . . .
34.5(31) . . .
41.2(34) . . .
46(4) . . .
35.3(30) . . .
39.2(33) . . .
46(4) . . .
36.1(30) . . .
39.3(34) . . .
41(4) . . .
43.6(35) . . .
45(4) . . .
29.0(30) . . .
36.8(34) . . .
40.7(35) . . .
35.0(31) . . .
38.2(33) . . .
47(4) . . .
38.3(34) . . .
44(4) . . .
40.8(33) . . .
34.9(32) . . .
48(4) . . .
44(4) . . .
37.2(33) . . .
43.1(34) . . .
36.6(31) . . .
36.6(32) . . .
41(4) . . .
35.3(31) . . .
33.4(30) . . .
31.6(31) . . .
32.0(32) . . .
35.5(33) . . .
35.9(31) . . .
32.8(30) . . .
38.1(33) . . .
40.1(33) . . .
44(4) . . .
37.7(32) . . .
39.7(33) . . .
47(4) . . .
46(4) . . .
42(4) . . .
30.9(29) . . .
28.7(28) . . .
36.6(34) . . .
39(4) . . .
37.0(32) . . .
38.8(32) . . .
38.3(33) . . .
33.1(32) . . .
40(4) . . .
43(4) . . .
36.6(32) . . .
38.8(32) . . .
37.1(33) . . .
39.1(34) . . .
30.9(30) . . .
43.1(34) . . .
33.9(30) . . .
36.3(33) . . .
33.6(32) . . .
31.2(31) . . .
38.2(32) . . .
39.9(33) . . .
35.2(33) . . .
42(4) . . .
31.7(30) . . .
37.3(32) . . .
29.6(29) . . .
37.2(32) . . .
38.4(33) . . .
39(4) . . .
33.9(31) . . .
37.8(32) . . .
38.4(32) . . .
41.0(34) . . .
39.3(33) . . .
41.2(33) . . .
48(4) . . .
35.3(30) . . .
34.5(32) . . .
35.9(32) . . .
43.6(34) . . .
38(4) . . .
38(4) . . .
42(4) . . .
30.6(30) . . .
37.9(31) . . .
38.2(34) . . .
37(4) . . .
32.4(32) . . .
43.3(34) . . .
32.0(29) . . .
29.5(29) . . .
34.3(34) . . .
38.3(32) . . .
44(4) . . .
37.8(31) . . .
43(4) . . .
37(4) . . .
31.4(31) . . .
26.3(27) . . .
35.6(31) . . .
32.7(29) . . .
33.8(33) . . .
39(4) . . .
42.7(34) . . .
42.8(34) . . .
43.5(35) . . .
34.8(32) . . .
36.0(32) . . .
40.4(33) . . .
44(4) . . .
41.6(35) . . .
46(4) . . .
51(4) . . .
40.9(33) . . .
31.9(30) . . .
40.3(34) . . .
42(4) . . .
54(4) . . .
28.5(28) . . .
39.7(34) . . .
45(4) . . .
34.8(33) . . .
37.8(34) . . .
38.3(32) . . .
33.4(31) . . .
37.1(35) . . .
36.5(33) . . .
42(4) . . .
43.0(34) . . .
44(4) . . .
34.6(32) . . .
45(4) . . .
41.4(35) . . .
33.0(30) . . .
42(4) . . .
46(4) . . .
35.5(31) . . .
30.6(30) . . .
37.7(32) . . .
33.8(32) . . .
38.2(35) . . .
37.6(33) . . .
40.9(33) . . .
35.4(32) . . .
37.5(32) . . .
46(4) . . .
43(4) . . .
31.9(30) . . .
25.9(27) . . .
42.3(35) . . .
41(4) . . .
40(4) . . .
34.5(31) . . .
39.2(32) . . .
41.3(34) . . .
42(4) . . .
43(4) . . .
39.1(33) . . .
37.0(31) . . .
36.2(31) . . .
37.5(35) . . .
35.8(32) . . .
39.9(33) . . .
35.8(31) . . .
40(4) . . .
35.6(32) . . .
35.9(31) . . .
38.3(33) . . .
32.7(30) . . .
46(4) . . .
41.5(34) . . .
42(4) . . .
46(4) . . .
37.0(33) . . .
35.3(34) . . .
38.6(34) . . .
37.6(33) . . .
33.5(31) . . .
30.4(31) . . .
37(4) . . .
36.7(33) . . .
38.1(32) . . .
35.8(31) . . .
39.8(33) . . .
40.7(33) . . .
42.5(34) . . .
43.3(34) . . .
37.0(32) . . .
31.1(29) . . .
43(4) . . .
38.6(33) . . .
42(4) . . .
40.4(34) . . .
32.8(31) . . .
44(4) . . .
41.3(34) . . .
35.7(32) . . .
38.3(34) . . .
31.0(29) . . .
30.2(30) . . .
29.4(30) . . .
36.4(31) . . .
37.1(32) . . .
40.3(34) . . .
34.3(32) . . .
30.3(29) . . .
35.6(31) . . .
39.7(33) . . .
44(4) . . .
40.8(33) . . .
44(4) . . .
41.8(34) . . .
31.4(29) . . .
38.3(34) . . .
36.2(33) . . .
36.3(32) . . .
37.5(32) . . .
38.4(34) . . .
45(4) . . .
41(4) . . .
35.5(33) . . .
40.7(34) . . .
42.9(35) . . .
39.6(34) . . .
37.9(33) . . .
36.7(32) . . .
31.8(30) . . .
36.7(32) . . .
49(4) . . .
40.8(33) . . .
33.5(31) . . .
43.5(35) . . .
38.5(34) . . .
32.6(31) . . .
40(4) . . .
37.5(33) . . .
33.2(30) . . .
34.4(32) . . .
40(4) . . .
33.5(32) . . .
36.7(31) . . .
38.3(33) . . .
37.2(33) . . .
40(4) . . .
36.3(32) . . .
48(4) . . .
38.0(32) . . .
48(4) . . .
35.0(30) . . .
41.2(34) . . .
44.4(34) . . .
43.7(34) . . .
40.1(34) . . .
39(4) . . .
33.5(30) . . .
38.6(33) . . .
38.0(32) . . .
35.7(31) . . .
40(4) . . .
34.0(31) . . .
34.1(31) . . .
36.5(32) . . .
41.3(35) . . .
36.0(33) . . .
29.4(29) . . .
33.4(30) . . .
32.9(29) . . .
40.7(33) . . .
42.3(35) . . .
42.7(34) . . .
32.3(30) . . .
37.7(35) . . .
30.9(30) . . .
38.9(35) . . .
40.2(33) . . .
44.0(34) . . .
39.0(33) . . .
39.5(34) . . .
35.8(32) . . .
39.4(34) . . .
42.8(34) . . .
45(4) . . .
36.8(34) . . .
39.0(34) . . .
32.7(30) . . .
31.7(29) . . .
35.6(32) . . .
32.1(30) . . .
36.8(33) . . .
40.7(34) . . .
47(4) . . .
42.7(35) . . .
36.2(34) . . .
36.4(31) . . .
44.0(34) . . .
30.8(29) . . .
35.2(32) . . .
34.3(32) . . .
33.1(30) . . .
39.5(33) . . .
35.7(31) . . .
39.9(34) . . .
39.1(33) . . .
42.8(35) . . .
38.6(32) . . .
44.3(35) . . .
35.8(32) . . .
35.4(33) . . .
33.4(30) . . .
35.9(31) . . .
39.9(34) . . .
35.4(32) . . .
36.9(33) . . .
45(4) . . .
44.0(34) . . .
38.8(33) . . .
44(4) . . .
47(4) . . .
41.2(35) . . .
36.4(31) . . .
43(4) . . .
28.7(28) . . .
34.0(35) . . .
32.2(31) . . .
30.7(29) . . .
27.4(29) . . .
39(4) . . .
43(4) . . .
36.8(31) . . .
38.5(32) . . .
34.5(31) . . .
35.2(33) . . .
34.7(33) . . .
39.0(32) . . .
45.0(35) . . .
41.4(35) . . .
46(4) . . .
40.8(35) . . .
37.9(32) . . .
35.6(32) . . .
38.4(34) . . .
36.1(33) . . .
36.4(31) . . .
38.3(32) . . .
31.1(29) . . .
39.4(34) . . .
37.8(34) . . .
42(4) . . .
24.3(26) . . .
36.7(32) . . .
39.9(34) . . .
30.8(30) . . .
36.7(35) . . .
39.2(33) . . .
42.1(35) . . .
44(4) . . .
38.9(35) . . .
30.3(31) . . .
33.0(30) . . .
39.3(33) . . .
35.5(32) . . .
29.5(31) . . .
30.3(31) . . .
39.3(33) . . .
46(4) . . .
34.6(31) . . .
34.3(33) . . .
35.2(31) . . .
34.5(31) . . .
37.5(32) . . .
34.7(33) . . .
33.5(32) . . .
33.9(31) . . .
36.0(31) . . .
31.1(29) . . .
35.6(31) . . .
42(4) . . .
39.4(34) . . .
38.4(32) . . .
40(4) . . .
32.2(32) . . .
33.6(33) . . .
38.7(33) . . .
35.5(31) . . .
43(4) . . .
36.7(34) . . .
29.5(30) . . .
31.7(30) . . .
37.5(31) . . .
30.5(29) . . .
31.4(31) . . .
38(4) . . .
34.6(31) . . .
37.2(32) . . .
34.8(31) . . .
27.6(28) . . .
47(4) . . .
38.2(33) . . .
40.6(33) . . .
33.3(32) . . .
30.6(32) . . .
29.6(31) . . .
42.3(34) . . .
25.4(26) . . .
32.7(30) . . .
29.8(31) . . .
30.1(33) . . .
30.5(29) . . .
35.4(32) . . .
42(4) . . .
44(4) . . .
38.1(33) . . .
33.6(31) . . .
36.6(32) . . .
41.3(34) . . .
35.3(35) . . .
31.9(30) . . .
36.0(31) . . .
40.5(33) . . .
42.6(35) . . .
38.9(33) . . .
44(4) . . .
42.5(34) . . .
40.3(33) . . .
41.1(33) . . .
45(4) . . .
46(4) . . .
31.0(30) . . .
45(4) . . .
34.9(33) . . .
34.9(35) . . .
37.0(32) . . .
36.6(31) . . .
36.1(33) . . .
40(4) . . .
31.4(29) . . .
48(4) . . .
35.5(31) . . .
42.4(34) . . .
38.0(34) . . .
35.0(31) . . .
39.3(33) . . .
41.4(34) . . .
38.1(33) . . .
39.3(34) . . .
33.8(31) . . .
40.2(34) . . .
41.5(33) . . .
36.0(33) . . .
47(4) . . .
46(4) . . .
32.2(29) . . .
37.2(32) . . .
34.9(31) . . .
36(4) . . .
30.3(30) . . .
34.8(31) . . .
35.1(30) . . .
47(4) . . .
47(4) . . .
31.2(29) . . .
43.2(34) . . .
39.5(35) . . .
28.4(29) . . .
36.0(34) . . .
30.8(29) . . .
31.9(30) . . .
33.4(31) . . .
42(4) . . .
36.3(33) . . .
42(4) . . .
39.1(33) . . .
36.8(32) . . .
38.5(33) . . .
44(4) . . .
33.3(31) . . .
41.0(34) . . .
35.5(31) . . .
41(4) . . .
39.1(35) . . .
46(4) . . .
30.7(29) . . .
28.1(28) . . .
36.0(33) . . .
31.6(31) . . .
35.6(32) . . .
37.8(32) . . .
36.7(32) . . .
36.3(32) . . .
32.3(30) . . .
29.6(29) . . .
37.7(32) . . .
32.9(30) . . .
40.5(34) . . .
37.6(32) . . .
35.8(32) . . .
33.7(30) . . .
37.8(33) . . .
36.8(34) . . .
34.3(31) . . .
27.9(28) . . .
37.7(32) . . .
39.9(34) . . .
31.4(31) . . .
32.6(32) . . .
34.5(31) . . .
43(4) . . .
46(4) . . .
38.8(34) . . .
48(4) . . .
38.9(33) . . .
33.0(30) . . .
43(4) . . .
39(4) . . .
42(4) . . .
32.4(30) . . .
33.4(31) . . .
28.5(29) . . .
38(4) . . .
33.5(34) . . .
30.3(29) . . .
36.0(34) . . .
34.7(30) . . .
32.7(30) . . .
35.4(32) . . .
38.5(32) . . .
36.7(33) . . .
41.1(35) . . .
35.6(34) . . .
27.5(28) . . .
40.0(33) . . .
42(4) . . .
38.3(34) . . .
38.5(33) . . .
40.3(34) . . .
39.7(33) . . .
37.5(33) . . .
33.5(33) . . .
37.1(34) . . .
37.6(32) . . .
33.8(30) . . .
29.5(31) . . .
35.3(34) . . .
29.3(31) . . .
37.2(32) . . .
42.6(34) . . .
30.7(29) . . .
40(4) . . .
27.8(28) . . .
36.2(32) . . .
38.2(33) . . .
28.7(28) . . .
24.9(26) . . .
38.8(35) . . .
46(4) . . .
31.7(29) . . .
33.1(31) . . .
32.2(32) . . .
34.2(32) . . .
35.2(31) . . .
33.9(30) . . .
33.7(30) . . .
45(4) . . .
39.2(34) . . .
38.5(33) . . .
44(4) . . .
34.1(30) . . .
40(4) . . .
35.0(34) . . .
46(4) . . .
36.1(32) . . .
32.3(30) . . .
30.1(28) . . .
30.9(29) . . .
33.3(30) . . .
38.0(33) . . .
36.9(33) . . .
39.5(32) . . .
40.1(35) . . .
39.4(33) . . .
33.4(30) . . .
36.8(33) . . .
34.0(33) . . .
25.0(27) . . .
39.2(32) . . .
35.8(33) . . .
39.5(35) . . .
37.4(33) . . .
35.8(31) . . .
41.5(33) . . .
41.0(34) . . .
35.7(31) . . .
38.5(35) . . .
35.2(32) . . .
33.9(30) . . .
35.5(33) . . .
43(4) . . .
37.2(32) . . .
37.2(32) . . .
42.1(34) . . .
30.7(29) . . .
38.0(35) . . .
46(4) . . .
35.1(31) . . .
37.4(31) . . .
34.2(31) . . .
34.8(34) . . .
36.5(33) . . .
41.2(33) . . .
33.0(30) . . .
29.3(29) . . .
30.2(29) . . .
37.9(33) . . .
35.7(31) . . .
30.9(29) . . .
34.9(31) . . .
38.8(34) . . .
36.7(32) . . .
34.3(30) . . .
28.8(30) . . .
36.4(34) . . .
41(4) . . .
28.0(28) . . .
32.6(30) . . .
34.8(33) . . .
36.7(33) . . .
42(4) . . .
40.7(34) . . .
35.5(31) . . .
27.8(28) . . .
36.8(34) . . .
33.8(32) . . .
28.9(28) . . .
32.1(30) . . .
35.6(34) . . .
29.0(28) . . .
41.7(35) . . .
40.3(33) . . .
38.4(32) . . .
40.4(34) . . .
35.8(33) . . .
35.2(32) . . .
30.2(28) . . .
33.9(30) . . .
26.2(27) . . .
36.4(33) . . .
39.6(33) . . .
38.3(32) . . .
33.2(30) . . .
41(4) . . .
37.6(35) . . .
36.9(32) . . .
28.5(28) . . .
39.1(33) . . .
35.0(33) . . .
32.7(33) . . .
36.8(33) . . .
38.3(33) . . .
27.0(27) . . .
31.9(34) . . .
37.1(33) . . .
38.9(34) . . .
39.7(33) . . .
47(4) . . .
34.8(32) . . .
42(4) . . .
31.8(30) . . .
34.4(31) . . .
31.8(30) . . .
40(4) . . .
39(4) . . .
35.9(33) . . .
35.0(31) . . .
35.9(31) . . .
40.0(34) . . .
41(4) . . .
36.5(33) . . .
37.8(32) . . .
40.4(34) . . .
30.8(28) . . .
33.6(32) . . .
38.1(35) . . .
30.0(29) . . .
33.7(32) . . .
33.9(33) . . .
33.8(32) . . .
31.4(31) . . .
37.7(32) . . .
36.6(35) . . .
41(4) . . .
39(4) . . .
40.5(34) . . .
37.9(32) . . .
45(4) . . .
37.7(32) . . .
34.8(30) . . .
38.2(32) . . .
39.1(33) . . .
31.5(29) . . .
35(4) . . .
35.4(33) . . .
47(4) . . .
40.4(33) . . .
27.5(29) . . .
36.9(35) . . .
32.9(30) . . .
31.7(30) . . .
42.6(35) . . .
28.3(28) . . .
32.2(32) . . .
34.0(31) . . .
39.8(33) . . .
44(4) . . .
36.2(32) . . .
32.2(30) . . .
35.7(32) . . .
39.6(32) . . .
41.3(33) . . .
38.7(33) . . .
31.6(31) . . .
29.5(29) . . .
32.7(29) . . .
46(4) . . .
35.2(30) . . .
36.8(32) . . .
39.4(35) . . .
46(4) . . .
39.1(32) . . .
43(4) . . .
42(4) . . .
45(4) . . .
33.3(31) . . .
29.3(29) . . .
39(4) . . .
29.7(29) . . .
29.7(30) . . .
30.8(29) . . .
28.2(28) . . .
48(4) . . .
35.8(31) . . .
33.9(31) . . .
32.9(30) . . .
32.2(32) . . .
34.7(33) . . .
38.5(34) . . .
33.6(31) . . .
39.2(32) . . .
33.8(34) . . .
35.6(34) . . .
34.8(32) . . .
33.3(30) . . .
28.2(28) . . .
34.6(32) . . .
43(4) . . .
25.6(28) . . .
41.0(33) . . .
36.4(31) . . .
34.5(30) . . .
40(4) . . .
30.8(31) . . .
30.5(29) . . .
34.0(31) . . .
38.8(32) . . .
40.9(34) . . .
35.7(33) . . .
35.7(32) . . .
39.4(33) . . .
36.7(32) . . .
32.3(29) . . .
34.1(32) . . .
33.4(30) . . .
47(4) . . .
39.1(33) . . .
38.5(33) . . .
38.1(35) . . .
34.0(30) . . .
41.0(34) . . .
46(4) . . .
44(4) . . .
42.8(34) . . .
40.4(33) . . .
34.0(31) . . .
29.1(29) . . .
34.9(31) . . .
39.0(33) . . .
45.7(35) . . .
47(4) . . .
40(4) . . .
29.3(30) . . .
29.0(28) . . .
25.2(26) . . .
47(4) . . .
42.1(35) . . .
30.7(29) . . .
34.8(30) . . .
35.8(31) . . .
30.2(29) . . .
34.9(32) . . .
27.9(28) . . .
33.8(30) . . .
30.6(29) . . .
32.1(30) . . .
32.4(33) . . .
29.0(29) . . .
39.5(33) . . .
39.8(33) . . .
31.5(31) . . .
33.1(31) . . .
32.3(29) . . .
35.3(31) . . .
24.5(26) . . .
33.2(32) . . .
35.1(34) . . .
30.7(32) . . .
28.0(28) . . .
31.4(30) . . .
32.0(31) . . .
32.4(32) . . .
37.0(34) . . .
31.2(30) . . .
36.5(31) . . .
39.5(33) . . .
37.1(34) . . .
35.2(33) . . .
40.7(33) . . .
37.9(32) . . .
34.8(32) . . .
35.0(32) . . .
41.7(34) . . .
33.7(30) . . .
26.7(27) . . .
34.2(32) . . .
35.6(34) . . .
30.5(29) . . .
31.5(30) . . .
32.5(30) . . .
30.0(29) . . .
31.7(30) . . .
33.2(30) . . .
35.6(31) . . .
38.4(34) . . .
29.2(30) . . .
42(4) . . .
35.8(32) . . .
38.6(32) . . .
37.3(35) . . .
35.0(32) . . .
34.9(31) . . .
37.2(32) . . .
29.5(28) . . .
29.4(29) . . .
32.9(32) . . .
40.7(35) . . .
36.6(31) . . .
31.4(29) . . .
44(4) . . .
40(4) . . .
35.0(31) . . .
37.1(31) . . .
34.3(31) . . .
36.1(33) . . .
28.1(30) . . .
31.4(30) . . .
40.1(33) . . .
32.6(31) . . .
41(4) . . .
34.4(33) . . .
32.1(30) . . .
40.8(33) . . .
44(4) . . .
33.5(32) . . .
37.6(33) . . .
46(4) . . .
35.5(32) . . .
32.6(31) . . .
26.5(27) . . .
29.6(29) . . .
36.9(32) . . .
28.5(28) . . .
29.7(30) . . .
37.9(34) . . .
33.0(31) . . .
38.1(35) . . .
37.4(32) . . .
44(4) . . .
36.0(33) . . .
34.0(32) . . .
36.0(32) . . .
38.0(33) . . .
36.9(33) . . .
37.7(35) . . .
32.1(31) . . .
38.9(34) . . .
38.5(32) . . .
41(4) . . .
41(4) . . .
51(4) . . .
33.0(30) . . .
32.1(30) . . .
36.7(34) . . .
37.4(34) . . .
38.3(32) . . .
30.5(29) . . .
33.9(30) . . .
33.7(31) . . .
36(4) . . .
29.0(30) . . .
38.6(32) . . .
37.2(33) . . .
31.7(31) . . .
33.2(33) . . .
38.0(33) . . .
36.5(31) . . .
35.4(33) . . .
35.0(32) . . .
40(4) . . .
41(4) . . .
32.6(29) . . .
38.2(34) . . .
37.1(33) . . .
27.6(30) . . .
30.7(30) . . .
36.7(31) . . .
41.8(35) . . .
33.7(31) . . .
29.9(29) . . .
38.5(33) . . .
40.1(33) . . .
33.5(31) . . .
31.2(29) . . .
37.8(32) . . .
40.2(33) . . .
33.1(30) . . .
44(4) . . .
34.6(33) . . .
27.5(29) . . .
35.7(33) . . .
33.1(30) . . .
36.1(32) . . .
35.6(34) . . .
37(4) . . .
32.5(30) . . .
35.5(31) . . .
35.1(32) . . .
38(4) . . .
35.8(33) . . .
38.8(32) . . .
40.5(33) . . .
37.8(32) . . .
29.6(30) . . .
40(4) . . .
35.3(31) . . .
38.7(32) . . .
39.7(35) . . .
43(4) . . .
31.8(29) . . .
38.6(33) . . .
38.1(32) . . .
29.2(30) . . .
37(4) . . .
31.4(31) . . .
35.6(31) . . .
35.5(31) . . .
36.2(32) . . .
34.7(31) . . .
36.8(31) . . .
36.8(32) . . .
35.4(31) . . .
26.5(30) . . .
37(4) . . .
41(4) . . .
33.5(30) . . .
35.0(31) . . .
32.5(31) . . .
32.1(33) . . .
37.7(35) . . .
37.0(32) . . .
34.3(31) . . .
33.2(30) . . .
35.7(33) . . .
32.7(30) . . .
34.0(30) . . .
36.6(35) . . .
32.1(31) . . .
39.1(34) . . .
37.7(33) . . .
33.9(31) . . .
41.6(35) . . .
33.0(31) . . .
34.4(33) . . .
33.3(29) . . .
47(4) . . .
36.0(33) . . .
35.0(33) . . .
37.7(35) . . .
39.9(35) . . .
31.4(29) . . .
29.9(31) . . .
29.2(30) . . .
36.3(31) . . .
50(4) . . .
38.8(32) . . .
31.8(30) . . .
37.3(34) . . .
43(4) . . .
30.4(29) . . .
26.0(27) . . .
30.5(30) . . .
39(4) . . .
39(4) . . .
32.8(30) . . .
26.7(26) . . .
32.2(29) . . .
37.9(34) . . .
38.4(33) . . .
35.1(31) . . .
38.0(32) . . .
34.0(33) . . .
28.9(28) . . .
38(4) . . .
33.6(31) . . .
34.3(32) . . .
32.2(31) . . .
40(4) . . .
33.7(31) . . .
43.2(34) . . .
39.3(33) . . .
35.3(31) . . .
32.5(30) . . .
30.9(29) . . .
30.6(29) . . .
32.1(29) . . .
31.7(31) . . .
36(4) . . .
35.8(31) . . .
37.1(32) . . .
34.5(33) . . .
31.2(31) . . .
32.9(31) . . .
35.6(31) . . .
31.8(30) . . .
36.5(34) . . .
35.9(34) . . .
39.1(34) . . .
36.7(32) . . .
25.1(26) . . .
38.2(34) . . .
36.8(33) . . .
40.6(35) . . .
37.9(33) . . .
33.6(30) . . .
37.4(33) . . .
35.3(31) . . .
30.8(29) . . .
31.4(30) . . .
29.6(29) . . .
32.8(33) . . .
37.2(34) . . .
33.4(30) . . .
32.2(29) . . .
41.0(34) . . .
28.1(28) . . .
34.2(33) . . .
40(4) . . .
31.5(30) . . .
35.5(32) . . .
31.5(30) . . .
44(4) . . .
38.8(33) . . .
32.5(30) . . .
39.5(34) . . .
32.5(30) . . .
32.8(32) . . .
31.1(31) . . .
41.7(34) . . .
46(4) . . .
34.4(30) . . .
38(4) . . .
28.1(29) . . .
26.1(27) . . .
34.7(31) . . .
34.7(32) . . .
25.6(28) . . .
31.9(30) . . .
41.0(33) . . .
30.5(30) . . .
32.1(34) . . .
24.9(26) . . .
36.3(34) . . .
35.0(31) . . .
31.5(29) . . .
32.8(31) . . .
34.0(32) . . .
39.6(33) . . .
42.7(34) . . .
31.1(31) . . .
38.2(34) . . .
36.9(33) . . .
32.4(30) . . .
34.9(30) . . .
31.9(29) . . .
38(4) . . .
37.1(34) . . .
34.4(30) . . .
34.1(31) . . .
34.3(31) . . .
45(4) . . .
35.9(32) . . .
35.3(31) . . .
35.3(32) . . .
32.7(30) . . .
44(4) . . .
34.5(31) . . .
31.6(29) . . .
32.7(29) . . .
30.5(31) . . .
39(4) . . .
32.1(32) . . .
39.1(32) . . .
32.1(29) . . .
52(4) . . .
41(4) . . .
33.3(31) . . .
36.6(32) . . .
37.5(32) . . .
43(4) . . .
36.7(34) . . .
37.1(33) . . .
36.3(31) . . .
33.4(30) . . .
33.8(32) . . .
30.1(30) . . .
32.2(30) . . .
31.6(30) . . .
31.3(30) . . .
38.6(35) . . .
33.0(32) . . .
33.2(30) . . .
33.7(30) . . .
37.8(33) . . .
28.6(28) . . .
34.3(34) . . .
36.8(33) . . .
37.3(32) . . .
30.3(29) . . .
30.6(30) . . .
43(4) . . .
41.4(33) . . .
29.0(28) . . .
35.7(32) . . .
32.8(32) . . .
29.6(30) . . .
31.1(30) . . .
29.8(28) . . .
35.5(31) . . .
32.2(29) . . .
29.6(28) . . .
33.5(30) . . .
39.7(33) . . .
35.4(31) . . .
38(4) . . .
31.7(31) . . .
40.5(33) . . .
38.7(33) . . .
33.3(32) . . .
32.8(33) . . .
28.0(28) . . .
33.5(31) . . .
37.2(32) . . .
35.2(32) . . .
34.9(33) . . .
28.5(29) . . .
29.9(28) . . .
36.3(32) . . .
31.2(29) . . .
38.7(33) . . .
28.3(27) . . .
37.5(32) . . .
27.4(27) . . .
31.7(30) . . .
43(4) . . .
38.1(33) . . .
33.9(30) . . .
39(4) . . .
54(4) . . .
34.4(32) . . .
28.3(28) . . .
37.5(33) . . .
41.0(35) . . .
35.7(32) . . .
37.3(33) . . .
33.8(30) . . .
38.0(32) . . .
37.2(32) . . .
40(4) . . .
32.5(31) . . .
37.4(32) . . .
33.3(30) . . .
28.7(28) . . .
45(4) . . .
33.5(34) . . .
35.4(32) . . .
26.0(26) . . .
33.3(32) . . .
35.5(33) . . .
35.3(31) . . .
37.5(32) . . .
33.5(30) . . .
38.0(33) . . .
34.7(32) . . .
27.5(27) . . .
31.0(29) . . .
32.9(30) . . .
43(4) . . .
37.1(33) . . .
35.7(32) . . .
36.9(32) . . .
26.9(27) . . .
38.4(33) . . .
33.8(33) . . .
31.8(30) . . .
30.2(29) . . .
30.7(28) . . .
33.7(32) . . .
35.7(34) . . .
36.2(33) . . .
43.5(34) . . .
36.0(31) . . .
36.0(33) . . .
36.2(33) . . .
31.9(29) . . .
41.2(34) . . .
54(4) . . .
45(4) . . .
43(4) . . .
41.7(34) . . .
38.1(32) . . .
39.1(35) . . .
38.7(35) . . .
39.9(34) . . .
38.6(33) . . .
26.3(27) . . .
39.5(34) . . .
43(4) . . .
38.2(35) . . .
28.6(28) . . .
30.1(28) . . .
35.7(33) . . .
38(4) . . .
40.3(34) . . .
37.9(32) . . .
33.6(31) . . .
29.7(31) . . .
30.7(31) . . .
29.7(31) . . .
37.4(32) . . .
35.5(32) . . .
37.7(32) . . .
28.6(29) . . .
31.4(31) . . .
32.8(30) . . .
38.6(32) . . .
33.2(31) . . .
28.9(29) . . .
35.7(31) . . .
33.4(30) . . .
35.5(31) . . .
26.3(28) . . .
32.5(33) . . .
38.8(33) . . .
30.8(28) . . .
29.7(29) . . .
32.5(32) . . .
39(4) . . .
34.1(31) . . .
30.7(29) . . .
33.3(32) . . .
33.9(32) . . .
41(4) . . .
35.4(32) . . .
32.6(30) . . .
35.0(32) . . .
29.9(28) . . .
49(4) . . .
34.8(33) . . .
39.7(33) . . .
36.1(34) . . .
37.4(34) . . .
33.9(30) . . .
38.4(33) . . .
32.8(30) . . .
25.3(27) . . .
28.9(29) . . .
29.4(29) . . .
33.6(31) . . .
37.1(32) . . .
28.5(29) . . .
38(4) . . .
37.5(34) . . .
39.1(33) . . .
26.1(27) . . .
32.0(31) . . .
37.2(35) . . .
31.6(31) . . .
37.1(32) . . .
32.7(29) . . .
43(4) . . .
34.2(32) . . .
35.6(32) . . .
35.8(31) . . .
29.5(28) . . .
36.7(35) . . .
32.0(31) . . .
35.0(34) . . .
36.6(31) . . .
34.3(31) . . .
41(4) . . .
41(4) . . .
40.5(34) . . .
38.4(33) . . .
32.8(30) . . .
41(4) . . .
29.6(30) . . .
35.7(34) . . .
42.1(33) . . .
37.0(32) . . .
37.1(34) . . .
36.4(33) . . .
39.8(33) . . .
37.1(31) . . .
28.2(28) . . .
35.7(34) . . .
32.5(30) . . .
34.2(30) . . .
36.3(31) . . .
32.4(30) . . .
34.3(32) . . .
31.1(31) . . .
34.8(33) . . .
38.7(32) . . .
35.7(31) . . .
38.3(34) . . .
38.2(35) . . .
29.2(28) . . .
32.9(30) . . .
30.3(30) . . .
28.5(29) . . .
39.7(34) . . .
37.8(32) . . .
39.8(33) . . .
40.0(33) . . .
41(4) . . .
34.9(31) . . .
24.6(25) . . .
38.1(33) . . .
28.6(27) . . .
40(4) . . .
32.1(30) . . .
31.1(29) . . .
36.6(31) . . .
30.6(32) . . .
38(4) . . .
38.2(33) . . .
37.8(32) . . .
31.5(29) . . .
34.5(33) . . .
37.6(35) . . .
35.5(34) . . .
38.5(33) . . .
35.0(30) . . .
33.0(33) . . .
34.1(33) . . .
30.2(33) . . .
33.2(30) . . .
30.1(29) . . .
39.7(33) . . .
38.7(33) . . .
26.3(27) . . .
36.3(31) . . .
25.6(26) . . .
35.3(33) . . .
34.5(31) . . .
29.2(28) . . .
29.9(29) . . .
31.3(30) . . .
34.1(34) . . .
36.5(35) . . .
30.4(31) . . .
35.7(32) . . .
36.1(32) . . .
34.8(33) . . .
36.8(33) . . .
36.2(31) . . .
36.0(31) . . .
37.0(33) . . .
34.8(35) . . .
32.3(31) . . .
35.7(31) . . .
29.3(28) . . .
27.2(27) . . .
36.3(34) . . .
36.3(33) . . .
32.0(30) . . .
34.9(31) . . .
28.3(28) . . .
39(4) . . .
33.0(31) . . .
38.1(32) . . .
38.5(32) . . .
37.4(32) . . .
33.0(31) . . .
42.4(35) . . .
32.2(31) . . .
41.0(33) . . .
35.3(31) . . .
30.9(31) . . .
33.3(31) . . .
27.7(28) . . .
34.0(31) . . .
28.3(28) . . .
39(4) . . .
35.6(32) . . .
42.4(34) . . .
42(4) . . .
34.0(32) . . .
37.7(34) . . .
38.5(35) . . .
39.4(33) . . .
31.5(29) . . .
32.9(30) . . .
29.9(29) . . .
33.5(31) . . .
31.4(29) . . .
33.4(30) . . .
36.2(33) . . .
35.4(34) . . .
39.1(35) . . .
32.8(30) . . .
29.0(28) . . .
41(4) . . .
30.0(28) . . .
28.1(27) . . .
29.1(28) . . .
31.4(30) . . .
30.6(31) . . .
26.1(26) . . .
39.5(34) . . .
30.9(30) . . .
31.7(32) . . .
29.7(30) . . .
45(4) . . .
36.7(31) . . .
35.3(31) . . .
42(4) . . .
34.3(33) . . .
43(4) . . .
41.3(34) . . .
40.0(33) . . .
28.8(28) . . .
33.6(33) . . .
27.8(28) . . .
31.4(29) . . .
35.3(31) . . .
36.3(33) . . .
29.5(30) . . .
32.8(31) . . .
30.4(29) . . .
34.3(31) . . .
31.7(29) . . .
46(4) . . .
32.3(30) . . .
35.4(31) . . .
39.0(32) . . .
32.2(30) . . .
35.5(34) . . .
47(4) . . .
30.8(29) . . .
37.2(32) . . .
41.3(35) . . .
36.8(33) . . .
36.0(31) . . .
40.1(33) . . .
38.1(35) . . .
29.7(30) . . .
36.0(33) . . .
30.6(29) . . .
37.1(32) . . .
34.1(31) . . .
26.4(27) . . .
30.2(30) . . .
32.6(30) . . .
33.0(30) . . .
32.9(31) . . .
36.5(32) . . .
44(4) . . .
31.5(29) . . .
33.3(30) . . .
30.1(29) . . .
28.5(30) . . .
27.1(28) . . .
32.0(30) . . .
36.2(31) . . .
37.3(33) . . .
33.7(32) . . .
33.9(30) . . .
36.9(32) . . .
33.0(30) . . .
38.7(34) . . .
35.2(34) . . .
30.1(28) . . .
33.7(30) . . .
36.9(32) . . .
37.3(32) . . .
33.3(32) . . .
32.3(31) . . .
32.4(29) . . .
36.9(31) . . .
33.8(32) . . .
38(4) . . .
31.8(32) . . .
43.4(34) . . .
37.9(32) . . .
37.7(32) . . .
36.8(32) . . .
32.9(31) . . .
29.3(28) . . .
31.7(31) . . .
36.8(32) . . .
38.4(32) . . .
31.7(29) . . .
35.4(30) . . .
32.6(30) . . .
29.7(28) . . .
38.4(33) . . .
31.6(29) . . .
32.6(30) . . .
39(4) . . .
40.0(35) . . .
51(4) . . .
24.0(26) . . .
34.3(31) . . .
29.4(29) . . .
32.0(33) . . .
38.0(34) . . .
26.8(27) . . .
29.4(28) . . .
36.5(32) . . .
33.8(31) . . .
36.7(33) . . .
28.9(28) . . .
32.7(30) . . .
31.1(30) . . .
34.8(33) . . .
38.2(35) . . .
30.7(30) . . .
41.0(33) . . .
30.8(28) . . .
34.3(34) . . .
32.0(31) . . .
23.6(25) . . .
33.6(30) . . .
43(4) . . .
40(4) . . .
35.7(33) . . .
34.0(31) . . .
35.3(31) . . .
35.0(32) . . .
38.5(35) . . .
39.3(35) . . .
26.1(26) . . .
33.7(32) . . .
27.8(29) . . .
33.9(33) . . .
27.1(28) . . .
35.0(31) . . .
33.2(31) . . .
28.4(29) . . .
21.2(23) . . .
38(4) . . .
34.9(31) . . .
35.4(31) . . .
35.0(32) . . .
37.1(34) . . .
37.5(33) . . .
35.7(32) . . .
37.6(32) . . .
41.5(35) . . .
36.1(32) . . .
30.5(29) . . .
34.7(30) . . .
39.5(35) . . .
40.3(34) . . .
34.0(31) . . .
39.0(33) . . .
34.5(30) . . .
35.6(35) . . .
31.7(31) . . .
36.6(31) . . .
42.7(34) . . .
35.7(32) . . .
27.8(29) . . .
22.1(26) . . .
34.2(31) . . .
31.6(31) . . .
26.7(27) . . .
29.7(30) . . .
35(4) . . .
35.8(33) . . .
40.2(33) . . .
39.7(33) . . .
29.1(30) . . .
32.0(33) . . .
32.5(31) . . .
31.9(29) . . .
33.9(30) . . .
31.3(30) . . .
26.6(28) . . .
26.5(28) . . .
24.4(26) . . .
36.7(34) . . .
38(4) . . .
32.1(31) . . .
25.0(27) . . .
33.9(30) . . .
31.8(29) . . .
32.0(33) . . .
30.7(31) . . .
37.2(34) . . .
31.5(29) . . .
32.3(31) . . .
33.4(32) . . .
31.6(31) . . .
34.6(33) . . .
35.6(31) . . .
26.8(27) . . .
29.5(31) . . .
35.2(33) . . .
41.5(34) . . .
27.6(27) . . .
35.3(32) . . .
33.2(33) . . .
42(4) . . .
42.5(35) . . .
36.2(31) . . .
25.8(27) . . .
44(4) . . .
31.4(30) . . .
34.4(30) . . .
30.6(29) . . .
19.9(25) . . .
32.7(33) . . .
32.2(29) . . .
37.4(32) . . .
37.5(32) . . .
39.1(33) . . .
37.3(33) . . .
32.9(31) . . .
31.4(30) . . .
28.1(28) . . .
32.3(31) . . .
40(4) . . .
34.8(32) . . .
36.6(31) . . .
39.2(32) . . .
31.1(29) . . .
33.8(34) . . .
33.6(31) . . .
32.6(30) . . .
34.6(31) . . .
36.2(32) . . .
39.5(35) . . .
32.7(31) . . .
34.0(30) . . .
35.4(31) . . .
33.1(32) . . .
28.8(29) . . .
35.9(33) . . .
32.6(30) . . .
32.9(29) . . .
26.9(26) . . .
33.8(31) . . .
38.4(33) . . .
32.6(30) . . .
36.7(34) . . .
32.3(31) . . .
30.1(28) . . .
44(4) . . .
37.7(32) . . .
38.0(33) . . .
34.2(31) . . .
37.5(34) . . .
33.0(31) . . .
29.7(29) . . .
41.8(35) . . .
35.7(34) . . .
28.6(28) . . .
26.0(26) . . .
33.3(29) . . .
40.1(34) . . .
37.6(33) . . .
36.7(34) . . .
30.9(29) . . .
30.5(29) . . .
34.7(33) . . .
30.8(30) . . .
33.0(32) . . .
29.2(28) . . .
27.3(28) . . .
32.5(31) . . .
38(4) . . .
31.4(31) . . .
21.2(24) . . .
25.3(26) . . .
34.6(31) . . .
34.1(32) . . .
31.3(31) . . .
31.0(30) . . .
32.1(29) . . .
38.6(32) . . .
31.7(31) . . .
27.8(28) . . .
35.1(31) . . .
29.1(29) . . .
26.0(28) . . .
28.0(31) . . .
29.9(29) . . .
27.3(28) . . .
33.5(32) . . .
24.8(26) . . .
41(4) . . .
30.1(29) . . .
29.7(28) . . .
32.2(31) . . .
39(4) . . .
37.9(34) . . .
32.4(32) . . .
37.2(32) . . .
31.1(32) . . .
33.4(32) . . .
43.0(35) . . .
41.8(35) . . .
41.1(33) . . .
33.5(31) . . .
33.5(30) . . .
34.1(31) . . .
28.5(28) . . .
38.9(32) . . .
32.0(31) . . .
22.4(26) . . .
37.2(33) . . .
27.7(28) . . .
25.9(27) . . .
35.0(31) . . .
30.5(30) . . .
33.2(31) . . .
35.0(31) . . .
32.8(30) . . .
41.7(34) . . .
42(4) . . .
29.6(29) . . .
36.6(31) . . .
31.9(30) . . .
36.7(33) . . .
37.7(34) . . .
43.1(35) . . .
29.3(28) . . .
29.8(28) . . .
31.7(29) . . .
32.0(31) . . .
35.3(33) . . .
33.3(30) . . .
37.6(33) . . .
50(4) . . .
32.9(31) . . .
29.3(29) . . .
29.5(28) . . .
38.3(32) . . .
34.5(32) . . .
28.6(30) . . .
35.5(32) . . .
32.7(31) . . .
30.6(29) . . .
35.1(31) . . .
32.4(30) . . .
39.3(33) . . .
36.8(33) . . .
37.0(32) . . .
37.7(34) . . .
36.8(32) . . .
48(4) . . .
34.7(31) . . .
34.6(31) . . .
42.5(34) . . .
39.2(33) . . .
43(4) . . .
38.6(32) . . .
39.4(35) . . .
39.5(33) . . .
46(4) . . .
30.1(30) . . .
26.1(28) . . .
32.3(31) . . .
43(4) . . .
33.9(31) . . .
33.3(30) . . .
28.3(28) . . .
32.6(31) . . .
36.3(34) . . .
39.0(33) . . .
36.9(32) . . .
35.3(30) . . .
38.9(34) . . .
38.5(35) . . .
35.5(32) . . .
34.7(31) . . .
37.8(32) . . .
36.9(34) . . .
40.7(35) . . .
38.9(33) . . .
38.9(33) . . .
34.0(30) . . .
37.2(33) . . .
26.8(28) . . .
29.8(30) . . .
34.8(31) . . .
30.4(29) . . .
37.1(34) . . .
25.7(28) . . .
28.6(29) . . .
35.9(31) . . .
32.7(30) . . .
30.2(30) . . .
30.6(32) . . .
32.1(30) . . .
34.1(31) . . .
37.1(32) . . .
33.8(32) . . .
34.0(34) . . .
32.3(30) . . .
28.6(28) . . .
27.2(31) . . .
40.9(35) . . .
33.5(30) . . .
33.6(31) . . .
34.7(32) . . .
29.4(29) . . .
32.2(31) . . .
25.2(25) . . .
27.6(28) . . .
33.3(31) . . .
34.3(31) . . .
35.7(32) . . .
35.9(31) . . .
28.7(29) . . .
27.1(27) . . .
40(4) . . .
25.5(29) . . .
37.3(34) . . .
24.8(26) . . .
31.4(29) . . .
34.5(34) . . .
43(4) . . .
37.7(33) . . .
35.1(31) . . .
35.8(31) . . .
30.1(29) . . .
35(4) . . .
29.4(30) . . .
34.9(30) . . .
32.2(29) . . .
33.2(30) . . .
35.7(32) . . .
32.7(30) . . .
35.2(31) . . .
34.3(31) . . .
36.2(32) . . .
27.7(29) . . .
30.2(28) . . .
34.0(30) . . .
31.0(29) . . .
43(4) . . .
27.0(30) . . .
28.6(28) . . .
27.4(28) . . .
34.1(33) . . .
32.7(32) . . .
29.8(29) . . .
31.0(30) . . .
26.8(27) . . .
37.6(32) . . .
38.8(32) . . .
33.0(31) . . .
30.0(29) . . .
50(4) . . .
33.9(33) . . .
34.1(33) . . .
25.8(27) . . .
34.7(31) . . .
40.6(34) . . .
30.7(29) . . .
31.1(29) . . .
38.1(34) . . .
33.5(30) . . .
36.8(32) . . .
32.2(30) . . .
30.8(30) . . .
32.4(29) . . .
29.4(29) . . .
28.2(28) . . .
27.9(28) . . .
32.1(32) . . .
33.1(34) . . .
50(4) . . .
39.8(33) . . .
38.5(33) . . .
31.2(30) . . .
29.1(28) . . .
29.0(28) . . .
35.2(32) . . .
37.1(34) . . .
41.2(35) . . .
40.6(34) . . .
38.7(33) . . .
31.8(30) . . .
34.6(33) . . .
31.2(32) . . .
36.1(34) . . .
27.8(28) . . .
31.2(30) . . .
27.6(27) . . .
37.9(33) . . .
34.4(33) . . .
31.7(30) . . .
33.6(30) . . .
34.5(32) . . .
38.6(34) . . .
36.0(32) . . .
39.3(32) . . .
31.3(31) . . .
35.9(32) . . .
31.6(30) . . .
30.6(29) . . .
33.2(30) . . .
44.1(35) . . .
37.9(33) . . .
30.2(28) . . .
39.3(33) . . .
28.8(29) . . .
33.3(30) . . .
38.9(33) . . .
30.8(29) . . .
32.3(31) . . .
37.0(32) . . .
32.2(31) . . .
39(4) . . .
32.1(31) . . .
29.5(29) . . .
35.9(31) . . .
30.4(29) . . .
31.5(31) . . .
34.8(31) . . .
31.2(29) . . .
31.2(30) . . .
26.8(27) . . .
33.2(33) . . .
36.9(33) . . .
41.0(33) . . .
39.9(33) . . .
35.0(32) . . .
29.5(31) . . .
32.9(32) . . .
28.8(28) . . .
35.9(31) . . .
39(4) . . .
31.5(31) . . .
28.3(28) . . .
30.9(29) . . .
33.8(31) . . .
30.0(29) . . .
31.4(31) . . .
28.9(28) . . .
29.1(30) . . .
32.1(32) . . .
36.5(35) . . .
29.3(29) . . .
39.3(33) . . .
37.1(32) . . .
37.3(32) . . .
30.1(28) . . .
40(4) . . .
44(4) . . .
35.7(31) . . .
35.2(32) . . .
38.1(33) . . .
31.1(28) . . .
37.1(32) . . .
31.2(30) . . .
33.3(30) . . .
33.2(32) . . .
30.4(29) . . .
32.4(30) . . .
31.0(29) . . .
30.5(30) . . .
37.5(34) . . .
43(4) . . .
31.3(31) . . .
30.8(30) . . .
31.0(31) . . .
36.8(33) . . .
39.3(33) . . .
29.0(28) . . .
35.5(33) . . .
38.2(34) . . .
26.1(30) . . .
31.2(31) . . .
35.7(31) . . .
30.4(29) . . .
35.7(31) . . .
34.0(33) . . .
28.8(28) . . .
38.9(33) . . .
33.9(30) . . .
27.4(29) . . .
26.4(28) . . .
34.0(30) . . .
35.0(31) . . .
32.3(29) . . .
33.5(32) . . .
36.5(32) . . .
33.8(32) . . .
28.5(28) . . .
27.6(28) . . .
36(4) . . .
34.8(33) . . .
32.2(30) . . .
36.2(32) . . .
38.5(34) . . .
23.7(25) . . .
36.4(33) . . .
32.0(30) . . .
41.9(34) . . .
41.4(34) . . .
33.9(31) . . .
28.5(29) . . .
33.5(30) . . .
27.6(28) . . .
32.9(31) . . .
30.2(30) . . .
36.5(34) . . .
33.5(30) . . .
34.1(30) . . .
40.6(34) . . .
37.4(34) . . .
32.8(31) . . .
33.8(31) . . .
29.8(29) . . .
37.6(34) . . .
38.2(35) . . .
29.3(28) . . .
35.2(31) . . .
30.3(29) . . .
34.8(32) . . .
29.8(29) . . .
26.0(28) . . .
28.7(28) . . .
29.1(28) . . .
38.0(33) . . .
31.6(30) . . .
23.5(25) . . .
39.2(35) . . .
26.0(27) . . .
31.1(31) . . .
37(4) . . .
31.3(31) . . .
35.4(32) . . .
30.7(30) . . .
24.7(25) . . .
34.6(31) . . .
36.7(32) . . .
28.6(28) . . .
27.8(28) . . .
33.4(32) . . .
29.6(30) . . .
38.0(33) . . .
37.8(33) . . .
36.0(31) . . .
36.2(32) . . .
34.3(32) . . .
34.8(31) . . .
31.5(29) . . .
44(4) . . .
34.1(31) . . .
36.2(32) . . .
37.0(33) . . .
36.6(32) . . .
42(4) . . .
27.3(26) . . .
39.2(35) . . .
34.3(31) . . .
29.4(28) . . .
36.6(34) . . .
28.5(29) . . .
33.7(34) . . .
34.1(31) . . .
35.4(31) . . .
32.1(32) . . .
36.3(35) . . .
26.0(26) . . .
32.7(31) . . .
31.0(29) . . .
37.3(32) . . .
35.4(33) . . .
34.6(32) . . .
25.1(26) . . .
28.2(28) . . .
32.9(31) . . .
30.3(31) . . .
41(4) . . .
32.0(30) . . .
30.1(29) . . .
30.9(30) . . .
29.5(31) . . .
41.6(34) . . .
41.0(33) . . .
40.1(33) . . .
35.3(32) . . .
39(4) . . .
36.2(33) . . .
36.5(32) . . .
23.3(25) . . .
30.6(31) . . .
33.2(32) . . .
34.6(32) . . .
33.7(31) . . .
42.1(34) . . .
31.2(28) . . .
37.5(34) . . .
28.6(28) . . .
27.3(27) . . .
34.3(32) . . .
29.7(29) . . .
27.2(29) . . .
33.9(33) . . .
32.9(30) . . .
35.4(32) . . .
27.5(29) . . .
32.1(31) . . .
41(4) . . .
34.8(31) . . .
40(4) . . .
27.7(29) . . .
38.3(32) . . .
38.6(32) . . .
39.7(33) . . .
37.2(32) . . .
33.0(32) . . .
37.3(32) . . .
33.3(30) . . .
33.6(30) . . .
29.9(29) . . .
31.7(32) . . .
30.4(31) . . .
41.3(34) . . .
32.1(29) . . .
34.7(31) . . .
35.8(34) . . .
35.3(32) . . .
37.8(32) . . .
33.5(30) . . .
37.4(33) . . .
41(4) . . .
32.5(30) . . .
37.0(32) . . .
39.4(33) . . .
40(4) . . .
28.0(27) . . .
32.3(29) . . .
26.4(27) . . .
31.6(29) . . .
34.7(35) . . .
38(4) . . .
29.7(29) . . .
29.3(29) . . .
28.4(28) . . .
37.6(31) . . .
37.7(32) . . .
33.7(30) . . .
31.3(29) . . .
29.0(29) . . .
34.2(31) . . .
31.1(28) . . .
43(4) . . .
32.3(29) . . .
37.2(32) . . .
39.5(35) . . .
37.4(34) . . .
39.2(34) . . .
27.8(28) . . .
32.0(31) . . .
29.3(29) . . .
27.7(27) . . .
27.0(27) . . .
36.3(32) . . .
39(4) . . .
30.0(29) . . .
36.0(32) . . .
35.1(30) . . .
34.3(30) . . .
28.8(28) . . .
36.7(33) . . .
37.2(32) . . .
38.4(34) . . .
32.7(30) . . .
35.8(33) . . .
29.6(29) . . .
33.4(32) . . .
32.1(30) . . .
35.9(31) . . .
28.7(27) . . .
33.5(33) . . .
29.4(30) . . .
33.7(30) . . .
27.6(28) . . .
29.0(30) . . .
28.8(29) . . .
33.6(32) . . .
35.8(31) . . .
25.4(28) . . .
35.8(32) . . .
29.3(29) . . .
34.5(32) . . .
32.9(30) . . .
32.0(31) . . .
29.2(30) . . .
31.3(32) . . .
37.8(34) . . .
31.8(29) . . .
30.2(29) . . .
36.3(32) . . .
34.8(31) . . .
41.4(34) . . .
33.8(31) . . .
35.9(32) . . .
35.6(32) . . .
36.0(33) . . .
31.9(32) . . .
35.2(31) . . .
40.6(33) . . .
38.2(33) . . .
30.3(28) . . .
31.8(30) . . .
31.8(29) . . .
29.0(28) . . .
40(4) . . .
34.7(32) . . .
30.3(29) . . .
30.5(29) . . .
34.4(33) . . .
28.4(30) . . .
25.6(27) . . .
31.7(30) . . .
35.5(31) . . .
33.7(31) . . .
39(4) . . .
28.4(27) . . .
30.3(28) . . .
29.4(28) . . .
33.9(31) . . .
38.6(32) . . .
35.0(31) . . .
37.6(32) . . .
37.1(31) . . .
31.2(32) . . .
33.3(34) . . .
29.9(30) . . .
32.1(30) . . .
35.7(31) . . .
37.2(33) . . .
34.9(33) . . .
32.3(32) . . .
34.0(30) . . .
34.1(31) . . .
44(4) . . .
30.5(30) . . .
34.7(32) . . .
29.5(28) . . .
35.3(32) . . .
28.9(29) . . .
33.3(32) . . .
43(4) . . .
32.5(29) . . .
35.5(31) . . .
34.2(32) . . .
35.4(33) . . .
28.7(29) . . .
32.1(31) . . .
35.8(34) . . .
36.3(34) . . .
34.6(31) . . .
39.4(33) . . .
32.3(30) . . .
32.2(29) . . .
33.0(32) . . .
30.3(29) . . .
37.9(33) . . .
24.9(26) . . .
31.5(31) . . .
27.6(31) . . .
30.0(30) . . .
32.4(30) . . .
39.5(33) . . .
33.0(31) . . .
36.4(34) . . .
37.0(34) . . .
30.3(28) . . .
25.4(26) . . .
35.2(32) . . .
28.3(28) . . .
33.9(32) . . .
31.4(30) . . .
27.3(27) . . .
35.1(33) . . .
33.8(35) . . .
23.5(26) . . .
31.3(29) . . .
33.7(30) . . .
34.3(32) . . .
35.2(32) . . .
29.3(28) . . .
34.3(30) . . .
34.5(31) . . .
36.3(31) . . .
34.3(34) . . .
29.0(29) . . .
33.3(31) . . .
33.5(30) . . .
34.8(31) . . .
38.2(33) . . .
36.2(32) . . .
38.8(33) . . .
30.9(30) . . .
37.0(35) . . .
28.9(29) . . .
35.5(32) . . .
42.8(34) . . .
28.1(28) . . .
34.1(33) . . .
33.7(32) . . .
36.3(32) . . .
30.7(29) . . .
36.5(35) . . .
43(4) . . .
37.1(34) . . .
33.2(30) . . .
33.1(30) . . .
28.7(28) . . .
26.3(28) . . .
21.9(24) . . .
30.1(28) . . .
34.2(30) . . .
31.5(29) . . .
29.2(29) . . .
32.2(29) . . .
28.9(28) . . .
31.5(29) . . .
27.4(28) . . .
30.5(30) . . .
36.6(32) . . .
27.5(27) . . .
31.1(29) . . .
37.2(34) . . .
28.8(29) . . .
30.1(29) . . .
38.7(32) . . .
36.5(32) . . .
35(4) . . .
27.8(30) . . .
30.0(30) . . .
31.9(29) . . .
34.5(31) . . .
31.1(29) . . .
41(4) . . .
38(4) . . .
36.3(31) . . .
31.9(31) . . .
35.9(32) . . .
28.7(28) . . .
25.9(26) . . .
35.3(31) . . .
30.5(30) . . .
29.8(30) . . .
25.9(27) . . .
37.2(35) . . .
33.6(30) . . .
32.2(30) . . .
36.5(33) . . .
40(4) . . .
26.4(27) . . .
28.8(28) . . .
36.6(34) . . .
40(4) . . .
31.2(29) . . .
31.0(30) . . .
37.8(32) . . .
39.4(34) . . .
40.5(35) . . .
39.0(32) . . .
31.5(29) . . .
40.6(34) . . .
39.6(34) . . .
34.5(32) . . .
28.5(29) . . .
33.2(31) . . .
33.2(29) . . .
36.3(33) . . .
39(4) . . .
35.0(31) . . .
36.3(33) . . .
31.8(29) . . .
31.5(33) . . .
32.3(32) . . .
32.5(31) . . .
33.5(31) . . .
35.4(31) . . .
38.8(32) . . .
28.2(28) . . .
38.5(33) . . .
41.8(34) . . .
36.1(32) . . .
32.8(29) . . .
34.9(32) . . .
46(4) . . .
32.2(30) . . .
27.3(27) . . .
32.0(31) . . .
24.2(28) . . .
37.6(34) . . .
35.1(31) . . .
35.0(31) . . .
34.7(33) . . .
31.5(31) . . .
38.3(34) . . .
35.9(31) . . .
30.5(33) . . .
34.1(31) . . .
42.3(34) . . .
39.2(33) . . .
30.8(29) . . .
31.9(30) . . .
34.1(33) . . .
30.9(30) . . .
33.2(30) . . .
30.0(29) . . .
29.0(28) . . .
29.2(29) . . .
35.4(31) . . .
42.1(34) . . .
36.2(32) . . .
26.0(27) . . .
31.5(30) . . .
32.7(32) . . .
30.1(30) . . .
26.4(26) . . .
29.5(28) . . .
38(4) . . .
27.3(27) . . .
29.9(29) . . .
33.7(30) . . .
23.3(25) . . .
31.6(31) . . .
31.7(29) . . .
28.2(28) . . .
32.8(30) . . .
36.5(32) . . .
29.3(30) . . .
30.3(32) . . .
32.9(31) . . .
24.9(26) . . .
28.8(30) . . .
34.3(33) . . .
33.1(31) . . .
41.5(34) . . .
32.1(30) . . .
37.2(35) . . .
30.8(31) . . .
33.0(33) . . .
33.8(30) . . .
34.6(30) . . .
30.5(30) . . .
33.6(32) . . .
33.5(32) . . .
28.3(28) . . .
28.8(29) . . .
31.6(30) . . .
34.2(32) . . .
31.7(30) . . .
41.9(34) . . .
34.9(31) . . .
35.3(31) . . .
40.0(35) . . .
27.0(28) . . .
27.7(28) . . .
29.4(28) . . .
27.5(28) . . .
31.4(31) . . .
24.1(26) . . .
28.6(28) . . .
30.8(29) . . .
30.1(30) . . .
33.1(31) . . .
29.0(28) . . .
32.1(30) . . .
30.4(31) . . .
33.0(34) . . .
34.9(32) . . .
38.9(33) . . .
29.0(29) . . .
32.7(30) . . .
30.3(31) . . .
31.6(29) . . .
35.0(31) . . .
29.0(28) . . .
31.8(31) . . .
33.2(32) . . .
37.4(33) . . .
38.4(32) . . .
30.9(29) . . .
30.5(30) . . .
27.3(30) . . .
35.5(34) . . .
32.6(30) . . .
30.0(31) . . .
39.4(35) . . .
30.0(29) . . .
32.9(32) . . .
33.5(30) . . .
32.0(30) . . .
25.3(27) . . .
38.3(34) . . .
30.6(29) . . .
30.4(29) . . .
31.5(30) . . .
34.8(30) . . .
37.0(32) . . .
31.3(30) . . .
34.5(31) . . .
35.4(32) . . .
38.1(35) . . .
31.6(32) . . .
29.6(29) . . .
27.5(27) . . .
29.6(28) . . .
30.0(28) . . .
41.1(34) . . .
33.5(30) . . .
34.1(31) . . .
28.6(28) . . .
28.1(28) . . .
39.1(34) . . .
33.2(30) . . .
31.8(30) . . .
36.9(34) . . .
31.7(32) . . .
36.5(35) . . .
32.6(30) . . .
31.4(29) . . .
29.5(29) . . .
27.7(29) . . .
30.2(29) . . .
42.2(34) . . .
42.4(34) . . .
31.5(31) . . .
36(4) . . .
33.9(31) . . .
28.4(28) . . .
33.4(30) . . .
37.9(33) . . .
26.5(27) . . .
34.8(32) . . .
27.8(28) . . .
26.8(27) . . .
33.5(32) . . .
31.2(29) . . .
32.5(31) . . .
26.3(27) . . .
24.9(27) . . .
32.5(33) . . .
31.1(31) . . .
34.3(32) . . .
36.5(32) . . .
34.3(31) . . .
34.1(31) . . .
33.7(32) . . .
30.8(29) . . .
33.1(30) . . .
29.2(30) . . .
43(4) . . .
38.7(34) . . .
37.0(34) . . .
33.7(30) . . .
29.4(30) . . .
27.4(30) . . .
35.0(33) . . .
36.4(31) . . .
36.3(31) . . .
30.0(31) . . .
28.4(30) . . .
32.0(31) . . .
32.2(30) . . .
28.6(29) . . .
35.2(32) . . .
44(4) . . .
33.1(32) . . .
36.4(32) . . .
28.0(28) . . .
32.2(33) . . .
30.8(34) . . .
24.5(27) . . .
34.9(32) . . .
29.0(28) . . .
32.5(31) . . .
29.1(28) . . .
36.4(34) . . .
28.3(27) . . .
31.6(30) . . .
27.3(29) . . .
27.8(30) . . .
34.3(31) . . .
27.3(27) . . .
31.5(30) . . .
27.3(29) . . .
25.5(28) . . .
26.5(28) . . .
36.5(31) . . .
31.1(29) . . .
26.6(27) . . .
35.3(34) . . .
34.2(32) . . .
37.8(32) . . .
30.9(29) . . .
32.7(32) . . .
29.2(28) . . .
36.7(31) . . .
28.8(28) . . .
29.5(30) . . .
23.6(26) . . .
32.4(32) . . .
31.5(29) . . .
35.9(31) . . .
36.7(33) . . .
33.7(31) . . .
44(4) . . .
30.5(29) . . .
35.0(31) . . .
33.6(31) . . .
34.8(34) . . .
41(4) . . .
26.3(27) . . .
28.0(27) . . .
22.8(26) . . .
34.5(34) . . .
25.5(27) . . .
38.2(34) . . .
32.5(29) . . .
31.3(29) . . .
29.4(28) . . .
39.4(35) . . .
37.7(32) . . .
31.3(29) . . .
43(4) . . .
26.5(27) . . .
34.3(32) . . .
35.5(32) . . .
35.1(31) . . .
32.0(30) . . .
36.2(33) . . .
28.1(27) . . .
34.7(31) . . .
26.3(27) . . .
32.8(31) . . .
43(4) . . .
33.3(32) . . .
24.4(26) . . .
31.0(29) . . .
34.4(30) . . .
23.9(26) . . .
28.7(29) . . .
23.8(26) . . .
35.6(31) . . .
39.2(34) . . .
38.0(34) . . .
31.0(30) . . .
31.5(29) . . .
36.1(32) . . .
23.3(25) . . .
30.7(31) . . .
37.6(32) . . .
35.3(31) . . .
26.6(26) . . .
33.9(33) . . .
30.1(31) . . .
32.7(31) . . .
29.4(28) . . .
21.6(25) . . .
27.7(29) . . .
30.1(29) . . .
34.9(30) . . .
37.8(33) . . .
40.3(34) . . .
38.6(34) . . .
33.5(30) . . .
29.9(29) . . .
43.7(35) . . .
35.1(31) . . .
32.5(32) . . .
30.0(29) . . .
37.8(31) . . .
41.5(35) . . .
30.4(30) . . .
25.4(29) . . .
25.4(30) . . .
22.5(25) . . .
34.1(31) . . .
32.4(33) . . .
22.8(25) . . .
28.3(30) . . .
25.6(26) . . .
30.3(30) . . .
35.7(33) . . .
34.3(32) . . .
35.1(32) . . .
32.6(29) . . .
26.1(26) . . .
28.3(29) . . .
38.0(34) . . .
27.0(27) . . .
38.0(32) . . .
33.5(30) . . .
29.6(29) . . .
33.2(30) . . .
32.0(30) . . .
26.2(26) . . .
39.8(33) . . .
33.9(30) . . .
32.6(30) . . .
36.8(31) . . .
36.8(32) . . .
32.4(30) . . .
30.8(30) . . .
40(4) . . .
37.5(33) . . .
30.3(29) . . .
31.9(30) . . .
34.3(33) . . .
41(4) . . .
36.4(32) . . .
27.4(28) . . .
35.8(34) . . .
27.9(29) . . .
34.5(32) . . .
28.6(28) . . .
31.2(29) . . .
37.1(34) . . .
32.0(31) . . .
33.9(32) . . .
31.1(30) . . .
32.7(31) . . .
32.1(30) . . .
33.5(33) . . .
29.2(30) . . .
27.1(28) . . .
32.0(29) . . .
35.5(30) . . .
35.1(32) . . .
35.5(31) . . .
34.1(31) . . .
45(4) . . .
40.2(35) . . .
31.3(32) . . .
30.4(28) . . .
36.1(31) . . .
23.6(26) . . .
27.9(28) . . .
31.1(30) . . .
36.5(32) . . .
34.5(31) . . .
36.0(32) . . .
28.2(28) . . .
29.5(31) . . .
30.7(30) . . .
35.5(31) . . .
26.2(29) . . .
34.0(33) . . .
34.9(32) . . .
32.5(30) . . .
26.4(28) . . .
32.5(32) . . .
32.0(30) . . .
27.7(28) . . .
34.0(32) . . .
33.1(30) . . .
31.0(30) . . .
28.5(28) . . .
25.0(27) . . .
35.7(31) . . .
29.6(29) . . .
31.3(31) . . .
30.4(32) . . .
28.2(28) . . .
39.0(33) . . .
39.3(33) . . .
30.2(29) . . .
31.2(30) . . .
39.7(33) . . .
38.0(32) . . .
30.5(30) . . .
31.2(31) . . .
23.3(25) . . .
28.0(28) . . .
31.1(30) . . .
31.5(29) . . .
41(4) . . .
47(4) . . .
35.2(31) . . .
31.7(29) . . .
33.4(31) . . .
37.6(34) . . .
23.8(26) . . .
24.6(27) . . .
23.4(24) . . .
31.9(32) . . .
33.1(32) . . .
25.5(28) . . .
24.6(27) . . .
35.5(31) . . .
40.3(34) . . .
32.2(31) . . .
30.0(29) . . .
33.3(31) . . .
34.2(31) . . .
32.9(32) . . .
25.3(27) . . .
34.3(34) . . .
27.9(28) . . .
27.7(28) . . .
33.4(31) . . .
35.2(32) . . .
34.3(30) . . .
32.7(32) . . .
31.4(29) . . .
32.7(30) . . .
34.5(30) . . .
42(4) . . .
27.9(27) . . .
32.6(30) . . .
32.3(31) . . .
32.8(31) . . .
42.4(35) . . .
35.0(32) . . .
25.3(26) . . .
32.4(30) . . .
39.5(33) . . .
41.2(34) . . .
36.0(31) . . .
38.1(33) . . .
31.6(29) . . .
40(4) . . .
34.9(30) . . .
34.3(31) . . .
35.8(31) . . .
31.3(30) . . .
22.3(26) . . .
30.2(30) . . .
28.4(28) . . .
29.8(29) . . .
25.9(27) . . .
32.4(31) . . .
28.9(29) . . .
34.9(31) . . .
32.4(31) . . .
22.8(27) . . .
27.2(30) . . .
29.5(31) . . .
27.7(28) . . .
33.0(31) . . .
34.1(32) . . .
32.5(31) . . .
39.2(35) . . .
38.3(32) . . .
34.5(31) . . .
28.6(27) . . .
33.9(32) . . .
30.1(29) . . .
29.9(29) . . .
30.4(31) . . .
24.6(26) . . .
34.4(32) . . .
31.5(29) . . .
26.9(27) . . .
32.7(29) . . .
41.8(35) . . .
33.2(31) . . .
44(4) . . .
29.6(29) . . .
30.5(29) . . .
29.5(30) . . .
36(4) . . .
32.4(31) . . .
26.5(27) . . .
26.6(28) . . .
32.1(33) . . .
35.2(33) . . .
31.2(30) . . .
27.6(27) . . .
36.6(32) . . .
41(4) . . .
37.5(34) . . .
38.2(32) . . .
30.7(29) . . .
26.5(29) . . .
23.5(28) . . .
27.5(28) . . .
36.2(32) . . .
38.9(33) . . .
26.9(28) . . .
29.7(30) . . .
27.8(28) . . .
38.5(32) . . .
36.1(31) . . .
33.2(33) . . .
23.3(26) . . .
29.4(29) . . .
29.7(29) . . .
40.7(33) . . .
31.2(30) . . .
28.9(31) . . .
32.2(31) . . .
40.7(33) . . .
24.7(27) . . .
23.7(25) . . .
26.0(27) . . .
35.0(32) . . .
39.0(32) . . .
28.3(29) . . .
31.1(31) . . .
33.3(32) . . .
30.5(29) . . .
29.7(29) . . .
24.0(27) . . .
26.7(29) . . .
30.9(30) . . .
32.2(30) . . .
37.2(32) . . .
27.1(28) . . .
32.7(32) . . .
32.3(31) . . .
34.1(30) . . .
36.5(32) . . .
31.4(31) . . .
33.9(33) . . .
33.0(31) . . .
41.3(34) . . .
32.3(29) . . .
32.7(32) . . .
29.7(31) . . .
34.0(32) . . .
37.8(33) . . .
39.2(34) . . .
34.0(34) . . .
31.7(33) . . .
31.8(32) . . .
38.1(32) . . .
42.8(34) . . .
30.2(29) . . .
31.3(30) . . .
31.9(31) . . .
25.7(26) . . .
26.4(27) . . .
22.2(25) . . .
32.8(31) . . .
30.2(29) . . .
27.3(28) . . .
33.4(30) . . .
30.2(28) . . .
36.6(33) . . .
37.2(33) . . .
38.3(33) . . .
31.9(29) . . .
25.5(27) . . .
34.0(32) . . .
27.2(27) . . .
25.2(26) . . .
30.4(30) . . .
30.7(32) . . .
26.0(30) . . .
34.5(32) . . .
34.0(30) . . .
31.3(29) . . .
37.6(34) . . .
29.8(29) . . .
34.2(31) . . .
35.3(31) . . .
29.3(29) . . .
35.6(33) . . .
31.5(31) . . .
26.4(27) . . .
35.3(31) . . .
39.3(33) . . .
31.6(28) . . .
40.4(33) . . .
29.7(30) . . .
36.8(31) . . .
38.2(34) . . .
33.6(33) . . .
28.4(28) . . .
27.8(28) . . .
35.7(31) . . .
30.8(29) . . .
39(4) . . .
33.5(31) . . .
32.9(30) . . .
32.3(29) . . .
23.6(27) . . .
30.9(32) . . .
27.4(28) . . .
23.1(25) . . .
36.4(32) . . .
39.8(33) . . .
32.1(32) . . .
33.0(33) . . .
33.2(30) . . .
37.1(32) . . .
36.7(33) . . .
31.1(30) . . .
35.5(32) . . .
35.3(31) . . .
31.1(31) . . .
30.0(29) . . .
33.9(32) . . .
33.0(31) . . .
36.6(31) . . .
33.1(33) . . .
23.4(28) . . .
25.6(27) . . .
38.6(32) . . .
31.3(29) . . .
31.8(30) . . .
30.5(29) . . .
38.5(33) . . .
36.5(31) . . .
27.2(28) . . .
35.7(33) . . .
31.3(31) . . .
29.7(30) . . .
29.8(30) . . .
31.0(29) . . .
34.0(34) . . .
24.0(27) . . .
29.9(29) . . .
31.6(29) . . .
39.0(32) . . .
38.2(33) . . .
27.4(27) . . .
33.7(31) . . .
33.1(30) . . .
29.6(29) . . .
35.8(32) . . .
32.7(31) . . .
34.6(32) . . .
34.7(31) . . .
36.0(32) . . .
32.3(33) . . .
37.7(33) . . .
30.4(29) . . .
25.5(28) . . .
32.6(30) . . .
34.7(35) . . .
27.4(30) . . .
30.8(32) . . .
25.7(26) . . .
39.5(32) . . .
36.0(33) . . .
30.1(30) . . .
29.5(29) . . .
36.2(31) . . .
36.4(34) . . .
31.8(33) . . .
32.6(30) . . .
36.2(32) . . .
36.0(32) . . .
23.8(26) . . .
30.7(30) . . .
32.8(32) . . .
39.9(34) . . .
30.8(29) . . .
21.3(26) . . .
37.0(35) . . .
35.7(31) . . .
49(4) . . .
29.4(28) . . .
35.7(33) . . .
32.2(30) . . .
44(4) . . .
36.9(34) . . .
35.7(31) . . .
32.3(30) . . .
32.6(32) . . .
26.3(28) . . .
30.8(29) . . .
30.1(29) . . .
31.6(30) . . .
31.1(30) . . .
36.9(33) . . .
31.6(30) . . .
32.2(29) . . .
35.1(31) . . .
26.4(28) . . .
31.7(31) . . .
32.5(30) . . .
18.1(22) . . .
27.6(28) . . .
30.5(31) . . .
37.2(34) . . .
27.7(27) . . .
30.2(29) . . .
31.6(31) . . .
38(4) . . .
38.5(34) . . .
26.8(27) . . .
30.8(29) . . .
33.0(30) . . .
28.8(29) . . .
28.1(28) . . .
30.2(29) . . .
31.3(30) . . .
32.7(31) . . .
32.3(31) . . .
29.8(31) . . .
35.0(32) . . .
36.0(31) . . .
35.9(32) . . .
26.4(27) . . .
25.9(30) . . .
23.1(25) . . .
26.7(27) . . .
31.0(30) . . .
31.1(31) . . .
35.6(31) . . .
29.6(28) . . .
29.6(29) . . .
29.5(30) . . .
25.6(27) . . .
35.0(33) . . .
38.1(32) . . .
31.5(31) . . .
33.3(32) . . .
29.9(29) . . .
33.1(32) . . .
30.5(29) . . .
37(4) . . .
26.7(28) . . .
32.8(32) . . .
38.1(32) . . .
30.3(30) . . .
35.3(31) . . .
32.7(33) . . .
35.9(32) . . .
28.1(27) . . .
24.2(26) . . .
37.7(34) . . .
28.5(28) . . .
24.8(27) . . .
27.7(27) . . .
37.7(32) . . .
41(4) . . .
31.9(30) . . .
34.7(33) . . .
30.8(29) . . .
34.5(32) . . .
37.7(33) . . .
38.0(32) . . .
35.8(31) . . .
38.0(32) . . .
33.8(31) . . .
38.9(34) . . .
38.4(35) . . .
29.3(30) . . .
30.0(29) . . .
25.2(26) . . .
25.7(26) . . .
37.8(34) . . .
31.6(30) . . .
29.4(29) . . .
30.6(31) . . .
33.4(34) . . .
37(4) . . .
42(4) . . .
28.1(28) . . .
26.3(27) . . .
44(4) . . .
34.7(33) . . .
32.5(31) . . .
24.5(26) . . .
27.7(28) . . .
30.1(32) . . .
28.8(29) . . .
26.7(27) . . .
37.4(32) . . .
37.8(34) . . .
36.7(32) . . .
33.2(30) . . .
27.3(27) . . .
32.4(30) . . .
24.9(27) . . .
34.4(35) . . .
32.3(30) . . .
30.3(30) . . .
34.4(30) . . .
27.1(27) . . .
31.6(31) . . .
38.0(34) . . .
33.9(30) . . .
45(4) . . .
38.3(34) . . .
32.6(33) . . .
32.7(31) . . .
28.4(28) . . .
33.7(31) . . .
27.3(30) . . .
37.6(35) . . .
32.7(30) . . .
34.3(30) . . .
24.6(26) . . .
23.2(28) . . .
32.1(32) . . .
31.1(31) . . .
28.3(29) . . .
34.0(31) . . .
31.0(31) . . .
28.9(28) . . .
29.9(29) . . .
33.9(31) . . .
35.0(33) . . .
34.1(31) . . .
36.4(33) . . .
32.8(31) . . .
24.1(26) . . .
25.9(27) . . .
27.0(32) . . .
31.7(31) . . .
42.2(35) . . .
36.7(32) . . .
25.4(26) . . .
29.3(31) . . .
25.7(28) . . .
27.0(27) . . .
30.8(29) . . .
36.4(33) . . .
25.7(26) . . .
33.8(31) . . .
29.7(29) . . .
32.0(29) . . .
28.9(30) . . .
27.9(27) . . .
30.0(29) . . .
24.2(25) . . .
27.8(27) . . .
35.0(31) . . .
36.3(34) . . .
32.4(32) . . .
36.3(33) . . .
28.1(27) . . .
34.5(33) . . .
32.6(30) . . .
28.5(30) . . .
31.9(29) . . .
32.5(30) . . .
38.3(32) . . .
34.3(33) . . .
31.4(30) . . .
32.3(30) . . .
28.2(27) . . .
28.5(29) . . .
37.1(35) . . .
35.2(31) . . .
31.1(29) . . .
37.0(33) . . .
30.1(28) . . .
37.1(33) . . .
37.3(32) . . .
37.0(32) . . .
27.2(28) . . .
22.2(25) . . .
34.1(34) . . .
29.8(29) . . .
33.8(31) . . .
28.4(28) . . .
32.5(32) . . .
33.4(32) . . .
34.7(32) . . .
29.2(28) . . .
32.4(31) . . .
35.0(33) . . .
31.4(30) . . .
29.6(28) . . .
32.0(30) . . .
27.2(27) . . .
37.7(35) . . .
25.0(26) . . .
23.5(26) . . .
32.1(30) . . .
32.6(33) . . .
26.4(28) . . .
26.8(28) . . .
25.3(27) . . .
26.9(28) . . .
28.4(29) . . .
32.8(33) . . .
28.4(28) . . .
35.7(32) . . .
28.2(28) . . .
31.6(31) . . .
49(4) . . .
33.3(32) . . .
37.2(32) . . .
35.3(31) . . .
39.1(33) . . .
27.0(26) . . .
24.9(25) . . .
32.0(29) . . .
34.7(31) . . .
41.4(34) . . .
33.5(32) . . .
25.8(28) . . .
24.1(26) . . .
28.5(28) . . .
29.6(31) . . .
28.7(31) . . .
27.5(29) . . .
35.6(31) . . .
30.8(29) . . .
39.8(35) . . .
30.5(29) . . .
29.9(29) . . .
32.0(30) . . .
30.4(30) . . .
30.7(30) . . .
28.7(30) . . .
30.3(29) . . .
40.0(34) . . .
37.3(32) . . .
36.4(32) . . .
35.7(33) . . .
26.5(27) . . .
34.7(31) . . .
34.4(30) . . .
33.8(32) . . .
32.4(32) . . .
30.2(31) . . .
32.8(31) . . .
34.7(32) . . .
34.4(34) . . .
31.1(32) . . .
25.5(27) . . .
27.0(27) . . .
33.1(31) . . .
38(4) . . .
34.1(31) . . .
24.0(25) . . .
37.7(32) . . .
28.1(27) . . .
28.8(29) . . .
36.7(33) . . .
27.1(27) . . .
33.0(30) . . .
33.8(32) . . .
32.7(32) . . .
32.2(31) . . .
36.2(32) . . .
37.4(33) . . .
33.5(31) . . .
33.7(30) . . .
37.1(31) . . .
37.7(32) . . .
36.5(32) . . .
24.0(25) . . .
25.5(28) . . .
28.4(30) . . .
26.3(26) . . .
30.1(29) . . .
31.3(31) . . .
34.2(32) . . .
37.5(34) . . .
27.5(28) . . .
41.9(35) . . .
34.0(31) . . .
35.2(30) . . .
37.5(31) . . .
39.2(33) . . .
35.9(34) . . .
32.3(31) . . .
35.9(34) . . .
28.2(28) . . .
28.9(28) . . .
38.6(34) . . .
34.4(33) . . .
28.8(31) . . .
24.5(26) . . .
29.1(28) . . .
27.5(28) . . .
28.0(27) . . .
35.8(32) . . .
34.7(31) . . .
39.6(32) . . .
28.2(27) . . .
24.9(27) . . .
29.3(29) . . .
36.5(32) . . .
38.8(33) . . .
34.5(32) . . .
30.8(31) . . .
33.5(31) . . .
29.8(29) . . .
30.0(28) . . .
28.1(27) . . .
35.4(34) . . .
27.9(30) . . .
31.9(29) . . .
30.2(29) . . .
29.0(32) . . .
32.4(30) . . .
25.1(26) . . .
32.7(30) . . .
25.2(26) . . .
31.1(34) . . .
33.5(31) . . .
35.7(32) . . .
26.9(28) . . .
29.0(28) . . .
31.3(30) . . .
31.0(31) . . .
30.9(29) . . .
38.8(32) . . .
37.1(33) . . .
30.9(31) . . .
33.3(31) . . .
37.3(32) . . .
33.6(30) . . .
33.4(30) . . .
33.4(33) . . .
24.5(27) . . .
33.0(30) . . .
32.9(30) . . .
40.2(34) . . .
37.7(33) . . .
43(4) . . .
29.2(28) . . .
28.7(29) . . .
31.1(30) . . .
40.9(34) . . .
31.6(30) . . .
25.7(28) . . .
38.8(32) . . .
33.7(32) . . .
26.6(30) . . .
26.2(27) . . .
31.5(29) . . .
32.3(30) . . .
33.4(30) . . .
35.8(34) . . .
39(4) . . .
31.4(29) . . .
27.6(28) . . .
29.8(30) . . .
45(4) . . .
33.5(30) . . .
29.5(28) . . .
31.5(30) . . .
29.3(29) . . .
40(4) . . .
37.9(34) . . .
35.9(33) . . .
38.1(32) . . .
33.9(31) . . .
33.3(33) . . .
30.3(30) . . .
31.9(29) . . .
32.4(32) . . .
30.3(30) . . .
33.8(31) . . .
28.8(28) . . .
33.8(30) . . .
40.2(33) . . .
30.6(31) . . .
26.6(29) . . .
35.8(33) . . .
25.6(27) . . .
31.6(29) . . .
31.5(30) . . .
38(4) . . .
27.1(29) . . .
30.5(30) . . .
26.9(28) . . .
32.1(32) . . .
37.0(33) . . .
31.7(29) . . .
30.7(29) . . .
30.1(30) . . .
30.8(29) . . .
35.7(31) . . .
39.1(34) . . .
25.6(27) . . .
32.2(30) . . .
29.9(31) . . .
34.4(31) . . .
31.7(30) . . .
32.2(30) . . .
35.3(33) . . .
32.1(31) . . .
33.9(31) . . .
32.5(29) . . .
31.5(30) . . .
31.2(30) . . .
24.6(29) . . .
29.2(29) . . .
28.7(28) . . .
30.0(29) . . .
29.3(28) . . .
26.5(27) . . .
37.8(34) . . .
30.9(30) . . .
35.3(31) . . .
34.6(33) . . .
34.0(32) . . .
36.5(32) . . .
38.6(32) . . .
38.6(34) . . .
32.8(33) . . .
30.5(30) . . .
25.7(28) . . .
28.3(28) . . .
37.0(33) . . .
26.9(28) . . .
22.6(27) . . .
27.1(29) . . .
27.3(27) . . .
34.7(34) . . .
36.5(33) . . .
35.0(34) . . .
30.7(31) . . .
26.0(26) . . .
26.9(27) . . .
34.2(32) . . .
34.8(32) . . .
40.7(34) . . .
40.7(34) . . .
38.3(33) . . .
41(4) . . .
33.3(31) . . .
31.1(29) . . .
26.5(27) . . .
32.2(32) . . .
35.0(32) . . .
32.5(30) . . .
38.7(33) . . .
35.2(31) . . .
30.5(29) . . .
32.8(32) . . .
30.0(31) . . .
31.3(29) . . .
29.1(29) . . .
29.5(28) . . .
34.5(34) . . .
32.5(31) . . .
33.1(30) . . .
34.1(31) . . .
30.2(29) . . .
32.3(33) . . .
30.7(28) . . .
30.9(29) . . .
22.5(25) . . .
28.2(29) . . .
30.7(31) . . .
28.3(28) . . .
25.7(26) . . .
31.5(30) . . .
41(4) . . .
27.2(28) . . .
29.3(29) . . .
27.1(27) . . .
29.4(28) . . .
39.6(33) . . .
28.7(28) . . .
32.5(30) . . .
42.5(34) . . .
37.2(32) . . .
27.0(28) . . .
26.1(28) . . .
26.9(27) . . .
36.4(31) . . .
30.9(29) . . .
35.6(33) . . .
39.7(34) . . .
37.0(32) . . .
33.6(30) . . .
39(4) . . .
27.5(27) . . .
32.0(31) . . .
37.2(32) . . .
32.9(30) . . .
29.0(30) . . .
27.3(27) . . .
29.3(28) . . .
32.5(29) . . .
33.2(30) . . .
32.7(30) . . .
36.1(35) . . .
23.3(26) . . .
34.0(30) . . .
32.2(30) . . .
32.5(31) . . .
28.1(29) . . .
30.8(28) . . .
25.5(27) . . .
25.4(27) . . .
33.6(31) . . .
33.7(32) . . .
39.3(33) . . .
34.5(31) . . .
33.7(30) . . .
37.3(32) . . .
41(4) . . .
29.8(30) . . .
37.0(32) . . .
34.3(31) . . .
36.4(32) . . .
33.9(32) . . .
39(4) . . .
25.8(26) . . .
29.3(29) . . .
28.5(30) . . .
25.5(27) . . .
29.6(31) . . .
32.3(30) . . .
27.3(27) . . .
24.4(25) . . .
28.3(29) . . .
32.5(30) . . .
40.1(33) . . .
29.6(28) . . .
33.6(32) . . .
34.7(33) . . .
30.9(30) . . .
29.9(28) . . .
39(4) . . .
28.9(29) . . .
36.1(33) . . .
27.2(27) . . .
31.7(30) . . .
36.5(34) . . .
36.1(33) . . .
30.7(30) . . .
27.7(27) . . .
36.5(31) . . .
34.9(31) . . .
29.5(32) . . .
32.0(31) . . .
35.4(32) . . .
33.4(30) . . .
29.4(30) . . .
35.2(34) . . .
29.9(28) . . .
26.4(27) . . .
29.9(29) . . .
28.8(29) . . .
34.5(32) . . .
30.1(29) . . .
26.6(27) . . .
30.0(29) . . .
35.5(32) . . .
29.3(30) . . .
35.2(31) . . .
36.3(32) . . .
28.7(28) . . .
35.8(35) . . .
32.1(32) . . .
31.9(32) . . .
32.2(31) . . .
32.8(29) . . .
27.1(28) . . .
28.6(30) . . .
32.5(31) . . .
24.2(26) . . .
30.3(29) . . .
29.9(31) . . .
32.8(32) . . .
34.4(32) . . .
33.8(31) . . .
29.6(29) . . .
32.8(31) . . .
25.0(26) . . .
35.0(33) . . .
34.6(31) . . .
39.0(34) . . .
25.1(26) . . .
27.8(28) . . .
25.6(28) . . .
32.5(29) . . .
37.8(34) . . .
39.5(34) . . .
39.9(33) . . .
37.5(32) . . .
29.2(28) . . .
33.9(31) . . .
25.4(26) . . .
37.5(34) . . .
33.5(34) . . .
27.7(27) . . .
29.7(29) . . .
31.3(31) . . .
27.6(28) . . .
36.6(31) . . .
30.5(29) . . .
41(4) . . .
32.0(31) . . .
31.7(29) . . .
32.1(30) . . .
32.1(31) . . .
31.8(30) . . .
29.7(28) . . .
29.3(28) . . .
33.3(30) . . .
28.5(28) . . .
36.4(35) . . .
39(4) . . .
35.1(33) . . .
31.5(29) . . .
44(4) . . .
27.7(30) . . .
33.0(32) . . .
33.5(31) . . .
27.9(27) . . .
30.6(29) . . .
23.7(28) . . .
27.8(30) . . .
22.3(24) . . .
25.3(27) . . .
27.7(28) . . .
26.1(27) . . .
26.2(27) . . .
24.4(26) . . .
26.0(26) . . .
35.8(32) . . .
29.7(29) . . .
30.5(30) . . .
30.4(31) . . .
35.9(32) . . .
38.1(33) . . .
28.7(28) . . .
33.5(32) . . .
48(4) . . .
28.9(28) . . .
32.3(30) . . .
23.1(26) . . .
30.9(31) . . .
34.4(32) . . .
32.1(29) . . .
36.6(34) . . .
32.8(32) . . .
29.7(29) . . .
27.1(27) . . .
27.4(27) . . .
27.1(27) . . .
32.6(33) . . .
38.2(33) . . .
43.2(34) . . .
27.1(27) . . .
32.7(30) . . .
30.4(30) . . .
34.8(32) . . .
31.6(29) . . .
24.8(25) . . .
33.2(32) . . .
29.6(31) . . .
33.0(30) . . .
26.5(27) . . .
24.3(25) . . .
31.0(30) . . .
36.2(33) . . .
36.1(31) . . .
36.0(31) . . .
32.3(31) . . .
33.6(32) . . .
33.2(30) . . .
33.5(32) . . .
23.7(26) . . .
36.1(32) . . .
37.6(33) . . .
36.6(35) . . .
47(4) . . .
32.6(30) . . .
31.8(31) . . .
30.0(29) . . .
37.2(33) . . .
38.8(32) . . .
43.3(34) . . .
20.9(24) . . .
35.8(32) . . .
39.3(35) . . .
24.3(26) . . .
32.8(30) . . .
36.3(33) . . .
31.9(32) . . .
33.5(32) . . .
28.5(28) . . .
32.4(30) . . .
31.5(30) . . .
35.2(32) . . .
35.9(31) . . .
31.1(29) . . .
37.9(32) . . .
26.8(27) . . .
27.5(29) . . .
32.1(29) . . .
35.9(31) . . .
32.1(29) . . .
32.4(31) . . .
24.3(26) . . .
32.9(31) . . .
30.5(28) . . .
36.9(33) . . .
29.9(30) . . .
28.6(29) . . .
24.9(27) . . .
30.0(29) . . .
29.0(29) . . .
27.0(29) . . .
32.0(31) . . .
25.5(28) . . .
33.3(30) . . .
21.2(24) . . .
35.2(34) . . .
22.8(25) . . .
29.0(30) . . .
29.6(28) . . .
28.6(30) . . .
28.9(29) . . .
35.9(35) . . .
32.0(29) . . .
41.7(34) . . .
33.4(32) . . .
23.0(24) . . .
34.7(34) . . .
33.3(31) . . .
33.1(30) . . .
32.9(31) . . .
31.9(32) . . .
34.3(33) . . .
34.8(31) . . .
30.7(30) . . .
29.2(30) . . .
33.0(32) . . .
34.5(32) . . .
34.6(33) . . .
35.6(31) . . .
29.0(29) . . .
26.5(30) . . .
37.0(35) . . .
39.3(32) . . .
35.9(31) . . .
36.7(33) . . .
34.5(33) . . .
33.2(31) . . .
36.9(32) . . .
35.1(31) . . .
32.7(30) . . .
39(4) . . .
32.0(30) . . .
20.1(23) . . .
30.3(29) . . .
30.5(31) . . .
25.7(27) . . .
36.2(34) . . .
31.1(29) . . .
26.6(28) . . .
33.3(30) . . .
28.3(28) . . .
28.0(29) . . .
28.0(27) . . .
28.5(28) . . .
36.2(34) . . .
26.9(27) . . .
24.8(26) . . .
34.6(31) . . .
28.9(29) . . .
39(4) . . .
37.9(35) . . .
30.4(29) . . .
26.9(27) . . .
35.7(31) . . .
28.4(28) . . .
28.1(29) . . .
27.8(28) . . .
28.7(28) . . .
31.8(32) . . .
33.6(32) . . .
27.9(27) . . .
38.9(32) . . .
33.5(30) . . .
32.0(33) . . .
30.9(30) . . .
36.8(33) . . .
28.7(29) . . .
26.4(27) . . .
30.0(34) . . .
31.2(31) . . .
34.9(31) . . .
31.3(29) . . .
38.0(32) . . .
32.6(31) . . .
36.7(34) . . .
28.5(28) . . .
28.4(29) . . .
36.8(32) . . .
25.1(26) . . .
30.0(29) . . .
40.1(33) . . .
34.9(31) . . .
31.4(29) . . .
40(4) . . .
30.8(30) . . .
32.8(31) . . .
31.5(29) . . .
31.4(30) . . .
33.5(32) . . .
35.0(34) . . .
34.4(32) . . .
27.7(28) . . .
25.3(26) . . .
33.7(31) . . .
36.8(32) . . .
36.1(33) . . .
41.6(34) . . .
28.6(29) . . .
23.5(27) . . .
29.7(32) . . .
25.6(28) . . .
27.2(27) . . .
35.8(31) . . .
28.4(28) . . .
33.3(30) . . .
33.0(30) . . .
25.9(27) . . .
27.5(29) . . .
37.7(34) . . .
36.0(34) . . .
31.1(30) . . .
33.1(30) . . .
24.7(27) . . .
30.5(29) . . .
26.2(26) . . .
28.3(27) . . .
27.0(27) . . .
29.1(29) . . .
36.6(34) . . .
22.8(24) . . .
34.3(31) . . .
29.2(28) . . .
28.4(28) . . .
31.1(31) . . .
28.6(28) . . .
35.0(31) . . .
33.3(30) . . .
35.1(31) . . .
31.1(31) . . .
28.1(28) . . .
32.0(29) . . .
47(4) . . .
26.9(27) . . .
28.6(30) . . .
23.5(26) . . .
26.9(27) . . .
25.2(26) . . .
24.3(28) . . .
25.4(28) . . .
26.0(27) . . .
31.3(29) . . .
27.9(28) . . .
27.1(31) . . .
30.6(31) . . .
34.7(31) . . .
30.6(29) . . .
34.7(31) . . .
36.2(34) . . .
33.2(31) . . .
29.2(28) . . .
29.5(28) . . .
24.7(28) . . .
23.8(27) . . .
26.6(28) . . .
31.9(31) . . .
28.9(28) . . .
27.0(27) . . .
39.7(34) . . .
41.5(33) . . .
33.0(30) . . .
30.1(28) . . .
30.8(28) . . .
30.1(29) . . .
23.3(27) . . .
21.2(24) . . .
36.5(31) . . .
32.6(30) . . .
32.6(32) . . .
35.6(33) . . .
31.1(29) . . .
38.9(33) . . .
36.4(33) . . .
25.7(29) . . .
31.1(30) . . .
34.6(30) . . .
28.1(28) . . .
28.9(29) . . .
25.8(26) . . .
35.0(33) . . .
33.9(31) . . .
25.6(26) . . .
33.2(31) . . .
29.7(30) . . .
33.9(32) . . .
30.2(29) . . .
28.4(28) . . .
32.5(31) . . .
29.1(33) . . .
30.0(31) . . .
32.8(29) . . .
27.0(28) . . .
27.9(27) . . .
36.9(34) . . .
30.6(30) . . .
25.5(27) . . .
26.3(27) . . .
22.4(25) . . .
25.9(28) . . .
32.6(33) . . .
29.7(28) . . .
34.7(31) . . .
26.8(28) . . .
26.2(28) . . .
28.6(28) . . .
25.5(27) . . .
23.9(25) . . .
30.0(29) . . .
25.9(27) . . .
20.9(24) . . .
32.7(30) . . .
30.0(31) . . .
34.7(33) . . .
34.0(30) . . .
36.4(32) . . .
33.6(30) . . .
27.3(28) . . .
37.6(35) . . .
43(4) . . .
36.9(32) . . .
25.3(26) . . .
34.3(31) . . .
33.2(32) . . .
26.2(27) . . .
34.8(31) . . .
37.5(32) . . .
29.0(29) . . .
24.1(28) . . .
26.1(29) . . .
26.6(27) . . .
21.5(24) . . .
29.5(30) . . .
28.8(30) . . .
29.6(30) . . .
29.5(28) . . .
24.2(26) . . .
24.3(26) . . .
27.0(28) . . .
33.3(30) . . .
40.0(33) . . .
28.2(28) . . .
31.3(31) . . .
29.0(29) . . .
31.6(30) . . .
34.9(31) . . .
32.7(31) . . .
35.9(34) . . .
29.8(31) . . .
37(4) . . .
35.6(32) . . .
30.9(30) . . .
39.8(34) . . .
33.1(31) . . .
37.6(34) . . .
29.6(28) . . .
24.8(27) . . .
32.4(30) . . .
36.1(32) . . .
28.5(29) . . .
25.9(27) . . .
27.6(28) . . .
26.4(28) . . .
24.6(27) . . .
23.4(26) . . .
33.0(30) . . .
34.9(32) . . .
30.7(30) . . .
39.0(33) . . .
33.8(31) . . .
24.3(26) . . .
27.7(29) . . .
21.4(25) . . .
43(4) . . .
32.1(29) . . .
29.3(29) . . .
35.7(34) . . .
29.4(30) . . .
33.0(32) . . .
31.8(29) . . .
38.8(33) . . .
31.4(29) . . .
28.5(30) . . .
28.1(28) . . .
31.9(30) . . .
26.1(27) . . .
28.3(32) . . .
24.5(28) . . .
32.9(31) . . .
35.1(31) . . .
33.4(30) . . .
37.8(33) . . .
24.4(26) . . .
31.0(30) . . .
30.0(29) . . .
26.5(29) . . .
31.0(29) . . .
30.2(29) . . .
31.9(30) . . .
31.1(29) . . .
28.3(27) . . .
36.8(33) . . .
37(4) . . .
27.1(29) . . .
35.8(31) . . .
26.0(26) . . .
33.4(32) . . .
31.1(29) . . .
28.7(28) . . .
26.6(27) . . .
34.7(31) . . .
36.5(34) . . .
32.0(31) . . .
30.6(31) . . .
27.7(28) . . .
28.9(28) . . .
28.5(29) . . .
28.6(28) . . .
38.2(33) . . .
31.5(29) . . .
39.2(34) . . .
31.5(30) . . .
26.3(26) . . .
32.9(30) . . .
26.5(26) . . .
37.2(34) . . .
34.3(35) . . .
33.4(31) . . .
27.9(27) . . .
35.0(31) . . .
29.4(29) . . .
33.4(33) . . .
42(4) . . .
34.2(30) . . .
33.8(31) . . .
38.2(32) . . .
33.4(31) . . .
30.7(30) . . .
28.9(28) . . .
32.1(31) . . .
33.8(31) . . .
33.9(32) . . .
29.8(29) . . .
24.3(26) . . .
35.7(33) . . .
28.1(28) . . .
35.7(34) . . .
31.5(31) . . .
23.6(26) . . .
32.2(30) . . .
31.4(30) . . .
34.7(34) . . .
29.9(30) . . .
33.1(30) . . .
25.5(26) . . .
28.0(28) . . .
32.1(32) . . .
32.4(30) . . .
29.5(29) . . .
33.7(34) . . .
28.8(29) . . .
33.4(31) . . .
38.7(34) . . .
31.4(29) . . .
28.2(28) . . .
30.4(30) . . .
34.6(32) . . .
35.8(31) . . .
36.5(31) . . .
28.9(29) . . .
25.4(27) . . .
38.1(34) . . .
26.5(27) . . .
22.3(25) . . .
27.9(28) . . .
32.3(32) . . .
32.8(31) . . .
27.3(28) . . .
26.0(27) . . .
32.1(30) . . .
37.0(34) . . .
26.0(26) . . .
32.9(30) . . .
31.8(29) . . .
32.7(31) . . .
24.1(26) . . .
31.9(31) . . .
37.4(32) . . .
26.6(27) . . .
26.6(30) . . .
24.3(27) . . .
34.1(33) . . .
26.6(26) . . .
29.4(29) . . .
31.0(32) . . .
30.3(29) . . .
34.5(32) . . .
31.1(29) . . .
34.4(32) . . .
28.6(28) . . .
33.4(32) . . .
28.6(29) . . .
26.9(27) . . .
28.8(28) . . .
27.7(29) . . .
25.2(27) . . .
27.9(29) . . .
28.9(28) . . .
32.0(32) . . .
28.7(30) . . .
29.1(30) . . .
31.4(30) . . .
30.9(29) . . .
26.1(28) . . .
27.6(30) . . .
27.6(27) . . .
26.0(27) . . .
24.7(26) . . .
35.7(34) . . .
25.7(27) . . .
28.8(29) . . .
26.5(27) . . .
37.4(32) . . .
34.7(30) . . .
30.0(30) . . .
21.5(27) . . .
24.2(27) . . .
32.8(30) . . .
31.5(31) . . .
33.5(34) . . .
33.7(31) . . .
29.1(28) . . .
23.8(26) . . .
28.1(29) . . .
35.6(34) . . .
30.3(30) . . .
30.8(29) . . .
34.1(31) . . .
36.1(32) . . .
35.3(35) . . .
35.7(33) . . .
37.0(32) . . .
33.4(30) . . .
23.3(26) . . .
29.5(31) . . .
29.8(32) . . .
34.2(31) . . .
37.3(33) . . .
31.5(29) . . .
29.7(31) . . .
34.1(32) . . .
35.0(30) . . .
26.2(27) . . .
33.4(31) . . .
35.2(33) . . .
27.0(27) . . .
34.3(31) . . .
29.2(29) . . .
35.7(33) . . .
31.1(30) . . .
27.4(28) . . .
33.7(30) . . .
28.5(29) . . .
28.3(29) . . .
26.7(27) . . .
34.7(31) . . .
25.7(26) . . .
32.5(30) . . .
31.6(30) . . .
33.2(31) . . .
35.3(32) . . .
28.3(28) . . .
29.6(28) . . .
30.5(31) . . .
29.3(30) . . .
34.7(30) . . .
26.5(27) . . .
26.4(27) . . .
30.9(31) . . .
32.2(32) . . .
34.4(31) . . .
37.5(32) . . .
38.2(34) . . .
32.8(32) . . .
24.8(25) . . .
37.4(32) . . .
28.5(28) . . .
29.2(28) . . .
32.4(33) . . .
27.3(27) . . .
25.5(27) . . .
22.5(25) . . .
35.0(33) . . .
34.6(32) . . .
33.9(32) . . .
35.2(30) . . .
23.6(25) . . .
33.7(33) . . .
32.3(33) . . .
33.1(31) . . .
36.1(31) . . .
29.2(28) . . .
29.5(31) . . .
22.2(25) . . .
23.5(28) . . .
29.8(28) . . .
30.7(31) . . .
37.1(32) . . .
28.7(28) . . .
25.1(27) . . .
32.0(30) . . .
27.4(28) . . .
26.1(28) . . .
32.6(34) . . .
30.2(31) . . .
47(4) . . .
32.1(30) . . .
33.1(32) . . .
29.8(30) . . .
25.0(27) . . .
32.9(30) . . .
30.2(29) . . .
35.0(31) . . .
32.9(31) . . .
32.5(30) . . .
37.7(32) . . .
34.1(33) . . .
34.3(34) . . .
34.0(33) . . .
37.9(32) . . .
33.0(29) . . .
29.2(30) . . .
30.1(30) . . .
24.2(25) . . .
29.2(28) . . .
29.1(28) . . .
32.9(32) . . .
28.1(29) . . .
29.5(29) . . .
30.1(28) . . .
32.8(30) . . .
35.6(33) . . .
34.4(35) . . .
28.9(31) . . .
25.8(28) . . .
27.4(28) . . .
38(4) . . .
30.1(28) . . .
32.8(30) . . .
34.7(31) . . .
34.2(31) . . .
27.1(27) . . .
35.9(33) . . .
35.8(33) . . .
37.4(32) . . .
34.4(32) . . .
32.8(33) . . .
32.3(33) . . .
25.4(26) . . .
31.6(30) . . .
29.3(31) . . .
28.3(29) . . .
28.4(29) . . .
32.2(30) . . .
27.8(27) . . .
30.4(29) . . .
33.5(33) . . .
27.7(29) . . .
24.8(26) . . .
24.3(27) . . .
33.5(31) . . .
31.1(31) . . .
29.6(28) . . .
27.1(27) . . .
33.7(31) . . .
36.7(32) . . .
27.5(27) . . .
35.2(35) . . .
29.1(28) . . .
31.7(30) . . .
32.4(31) . . .
33.3(32) . . .
31.2(30) . . .
30.3(29) . . .
31.8(30) . . .
30.2(29) . . .
29.6(28) . . .
31.9(30) . . .
32.8(30) . . .
40.3(34) . . .
28.0(28) . . .
28.8(29) . . .
39(4) . . .
31.7(29) . . .
28.9(29) . . .
31.9(31) . . .
29.6(30) . . .
32.0(30) . . .
40.1(33) . . .
36.5(32) . . .
30.7(31) . . .
31.7(31) . . .
33.4(31) . . .
25.4(26) . . .
32.7(30) . . .
29.3(29) . . .
35.0(34) . . .
30.1(29) . . .
28.6(28) . . .
28.0(28) . . .
31.8(31) . . .
25.4(26) . . .
28.9(28) . . .
33.4(30) . . .
26.4(27) . . .
35.7(34) . . .
31.0(30) . . .
29.2(28) . . .
29.9(29) . . .
31.5(30) . . .
36.2(34) . . .
30.4(30) . . .
24.8(26) . . .
26.3(27) . . .
37.3(32) . . .
29.9(30) . . .
32.3(30) . . .
36.0(31) . . .
32.2(30) . . .
28.4(28) . . .
31.1(32) . . .
29.2(29) . . .
29.5(28) . . .
32.8(30) . . .
28.0(28) . . .
23.9(26) . . .
33.9(33) . . .
30.5(29) . . .
31.9(29) . . .
24.5(27) . . .
25.9(29) . . .
31.6(30) . . .
41.8(34) . . .
29.7(29) . . .
32.6(30) . . .
30.1(30) . . .
26.4(28) . . .
30.8(29) . . .
25.6(28) . . .
28.2(29) . . .
33.8(32) . . .
35.7(31) . . .
32.6(30) . . .
24.7(26) . . .
31.3(30) . . .
30.4(29) . . .
34.7(33) . . .
39.0(32) . . .
28.2(28) . . .
26.6(27) . . .
35.8(32) . . .
33.0(32) . . .
26.8(27) . . .
23.0(26) . . .
29.7(33) . . .
28.2(28) . . .
33.7(31) . . .
27.4(27) . . .
36.3(34) . . .
24.2(27) . . .
31.5(32) . . .
34.3(32) . . .
23.7(25) . . .
34.2(32) . . .
36.8(34) . . .
37.8(32) . . .
31.2(29) . . .
38.2(32) . . .
25.0(27) . . .
31.9(34) . . .
24.3(26) . . .
23.4(25) . . .
25.4(27) . . .
30.9(31) . . .
30.4(32) . . .
28.8(30) . . .
28.6(28) . . .
28.9(28) . . .
35.3(32) . . .
32.5(32) . . .
28.8(29) . . .
36.3(32) . . .
33.3(30) . . .
26.8(27) . . .
33.9(33) . . .
33(4) . . .
33.0(30) . . .
36.6(32) . . .
32.8(30) . . .
28.4(30) . . .
28.4(27) . . .
32.3(30) . . .
31.8(31) . . .
28.1(29) . . .
35.1(33) . . .
24.4(27) . . .
29.9(28) . . .
29.9(29) . . .
32.1(30) . . .
27.5(29) . . .
34.3(34) . . .
34.0(31) . . .
36.1(32) . . .
40(4) . . .
33.2(31) . . .
30.9(29) . . .
33.1(30) . . .
28.7(28) . . .
34.7(35) . . .
27.2(29) . . .
25.3(27) . . .
32.9(29) . . .
33.6(31) . . .
42(4) . . .
32.1(29) . . .
33.7(30) . . .
37.6(32) . . .
32.7(32) . . .
32.6(31) . . .
30.4(28) . . .
23.5(25) . . .
26.9(27) . . .
29.3(28) . . .
29.4(30) . . .
22.8(24) . . .
34.2(31) . . .
30.1(28) . . .
27.9(29) . . .
28.0(30) . . .
31.2(29) . . .
38.1(32) . . .
25.8(26) . . .
33.3(31) . . .
30.6(31) . . .
32.8(31) . . .
25.3(26) . . .
31.9(30) . . .
31.4(30) . . .
23.5(26) . . .
36.4(34) . . .
26.7(27) . . .
25.0(27) . . .
24.8(29) . . .
26.4(30) . . .
29.5(28) . . .
34.4(31) . . .
26.1(27) . . .
35.3(33) . . .
36.7(33) . . .
31.0(30) . . .
32.6(30) . . .
28.5(29) . . .
29.6(30) . . .
30.9(32) . . .
22.0(24) . . .
26.1(26) . . .
29.5(29) . . .
31.5(29) . . .
35.2(31) . . .
31.3(29) . . .
34.3(31) . . .
31.8(31) . . .
29.9(31) . . .
28.2(28) . . .
32.9(30) . . .
26.5(27) . . .
29.6(30) . . .
35.0(34) . . .
32.0(30) . . .
29.0(29) . . .
27.6(28) . . .
26.6(30) . . .
28.0(30) . . .
28.3(29) . . .
26.2(28) . . .
34.7(31) . . .
27.0(27) . . .
31.3(31) . . .
31.4(29) . . .
32.7(31) . . .
26.5(26) . . .
37.2(35) . . .
25.2(28) . . .
26.0(28) . . .
30.3(28) . . .
33.7(30) . . .
33.5(31) . . .
36(4) . . .
33.8(31) . . .
34.0(30) . . .
37.7(33) . . .
30.4(29) . . .
33.1(32) . . .
29.5(31) . . .
29.5(29) . . .
37.4(32) . . .
30.5(28) . . .
32.0(31) . . .
25.3(27) . . .
23.3(25) . . .
33.7(31) . . .
30.9(31) . . .
30.7(32) . . .
28.9(28) . . .
29.5(29) . . .
28.5(30) . . .
23.4(25) . . .
37.1(34) . . .
29.8(29) . . .
29.0(28) . . .
32.8(30) . . .
31.1(30) . . .
30.3(30) . . .
29.9(29) . . .
31.9(29) . . .
28.4(29) . . .
31.1(32) . . .
30.4(32) . . .
22.0(25) . . .
28.7(28) . . .
38.7(35) . . .
33.6(33) . . .
26.6(27) . . .
22.1(24) . . .
34.0(31) . . .
36.9(33) . . .
35(4) . . .
23.9(26) . . .
28.0(28) . . .
26.6(26) . . .
27.9(30) . . .
33.0(35) . . .
30.1(30) . . .
31.5(30) . . .
36.7(32) . . .
37.7(34) . . .
31.9(34) . . .
29.6(28) . . .
33.0(30) . . .
34.2(31) . . .
31.8(30) . . .
35.0(34) . . .
30.4(29) . . .
29.5(28) . . .
30.6(29) . . .
28.5(30) . . .
28.1(29) . . .
34.0(31) . . .
21.1(24) . . .
23.8(25) . . .
25.6(27) . . .
30.1(29) . . .
26.4(26) . . .
29.7(28) . . .
28.3(30) . . .
28.5(28) . . .
28.0(28) . . .
29.8(29) . . .
24.9(27) . . .
29.1(29) . . .
35.5(32) . . .
25.3(25) . . .
28.8(28) . . .
32.4(30) . . .
30.3(30) . . .
26.7(27) . . .
29.8(30) . . .
28.4(28) . . .
28.2(28) . . .
35.8(34) . . .
31.3(32) . . .
29.6(29) . . .
28.9(28) . . .
31.6(29) . . .
32.3(30) . . .
25.3(28) . . .
24.2(27) . . .
23.9(26) . . .
27.4(27) . . .
31.2(29) . . .
32.0(31) . . .
29.4(29) . . .
25.2(26) . . .
27.8(28) . . .
32.0(31) . . .
30.6(30) . . .
31.8(30) . . .
27.4(27) . . .
30.5(29) . . .
35.1(32) . . .
26.5(28) . . .
27.7(30) . . .
33.8(31) . . .
38.1(34) . . .
29.1(29) . . .
35.0(33) . . .
26.3(28) . . .
33.8(29) . . .
31.6(30) . . .
38.1(34) . . .
31.9(31) . . .
28.9(28) . . .
28.5(28) . . .
27.5(28) . . .
27.9(30) . . .
35.6(33) . . .
36.6(33) . . .
36.6(32) . . .
29.7(28) . . .
30.4(29) . . .
37.5(32) . . .
27.8(27) . . .
23.8(25) . . .
16.1(22) . . .
22.3(26) . . .
27.7(28) . . .
29.6(28) . . .
28.6(29) . . .
28.5(28) . . .
29.8(31) . . .
30.2(31) . . .
30.7(29) . . .
33.3(31) . . .
30.9(30) . . .
22.9(25) . . .
31.2(30) . . .
25.6(27) . . .
25.0(26) . . .
28.2(28) . . .
38(4) . . .
34.6(31) . . .
31.5(29) . . .
28.7(28) . . .
36.5(33) . . .
28.9(29) . . .
43(4) . . .
35.0(31) . . .
31.5(29) . . .
30.4(30) . . .
36.5(33) . . .
26.8(27) . . .
28.7(28) . . .
35.1(32) . . .
30.7(29) . . .
32.6(31) . . .
31.5(31) . . .
28.6(28) . . .
32.5(32) . . .
21.6(24) . . .
26.9(29) . . .
30.0(29) . . .
25.1(26) . . .
32.1(32) . . .
34.1(32) . . .
33.2(31) . . .
29.8(28) . . .
29.8(29) . . .
29.5(30) . . .
33.5(34) . . .
26.0(28) . . .
36.5(32) . . .
32.9(31) . . .
27.1(28) . . .
27.5(28) . . .
27.1(28) . . .
26.6(27) . . .
25.8(27) . . .
28.6(28) . . .
31.2(30) . . .
29.3(29) . . .
29.6(28) . . .
30.7(29) . . .
30.6(30) . . .
28.9(29) . . .
27.5(28) . . .
27.0(28) . . .
35.5(31) . . .
28.2(27) . . .
28.0(30) . . .
31.2(29) . . .
36.1(31) . . .
31.1(31) . . .
31.5(31) . . .
28.0(29) . . .
30.2(29) . . .
32.7(29) . . .
31.3(29) . . .
31.9(32) . . .
28.2(29) . . .
31.4(31) . . .
30.0(29) . . .
24.0(25) . . .
28.2(29) . . .
27.1(29) . . .
32.8(31) . . .
24.8(27) . . .
29.7(28) . . .
39.4(34) . . .
41(4) . . .
33.1(32) . . .
26.4(28) . . .
35.2(32) . . .
39.1(33) . . .
33.6(32) . . .
30.4(30) . . .
30.3(29) . . .
35.5(33) . . .
26.7(26) . . .
36.6(34) . . .
26.0(27) . . .
23.6(26) . . .
32.2(30) . . .
39(4) . . .
40(4) . . .
30.9(29) . . .
39.5(33) . . .
26.1(27) . . .
32.5(33) . . .
33.5(31) . . .
33.1(30) . . .
34.4(31) . . .
29.6(29) . . .
27.6(30) . . .
32.4(31) . . .
31.8(29) . . .
23.3(25) . . .
26.2(26) . . .
33.7(34) . . .
30.2(29) . . .
29.0(28) . . .
23.1(25) . . .
35.3(33) . . .
36.6(34) . . .
32.0(30) . . .
32.6(29) . . .
29.2(28) . . .
27.7(29) . . .
20.2(25) . . .
27.6(29) . . .
26.4(26) . . .
29.8(28) . . .
25.9(27) . . .
25.8(29) . . .
22.8(27) . . .
35.8(31) . . .
26.4(28) . . .
30.9(31) . . .
30.1(33) . . .
34.7(33) . . .
30.9(29) . . .
32.2(30) . . .
29.3(28) . . .
25.3(26) . . .
30.0(29) . . .
34.0(30) . . .
26.2(27) . . .
27.7(28) . . .
26.9(27) . . .
36.7(33) . . .
24.3(26) . . .
25.0(28) . . .
33.0(33) . . .
29.2(29) . . .
30.4(29) . . .
36.6(31) . . .
33.0(30) . . .
35.6(34) . . .
32.4(30) . . .
41.9(34) . . .
33.1(30) . . .
35.7(32) . . .
28.9(30) . . .
27.7(28) . . .
27.1(27) . . .
24.1(26) . . .
35.2(33) . . .
28.0(29) . . .
30.8(29) . . .
25.0(27) . . .
26.1(29) . . .
30.9(30) . . .
37.8(35) . . .
33.6(32) . . .
32.3(30) . . .
29.5(28) . . .
33.8(31) . . .
28.6(29) . . .
37.7(33) . . .
34.1(31) . . .
27.0(27) . . .
24.2(26) . . .
32.2(32) . . .
32.6(31) . . .
44.2(35) . . .
34.6(30) . . .
35.1(33) . . .
27.5(28) . . .
26.4(27) . . .
31.0(30) . . .
34.5(33) . . .
35.7(32) . . .
35.6(35) . . .
27.5(28) . . .
27.3(27) . . .
33.7(31) . . .
29.3(29) . . .
22.4(25) . . .
29.4(31) . . .
38.1(32) . . .
31.3(30) . . .
27.4(29) . . .
24.6(26) . . .
34.6(31) . . .
28.2(28) . . .
29.5(31) . . .
25.5(28) . . .
26.8(28) . . .
32.8(31) . . .
28.6(28) . . .
25.5(27) . . .
28.9(31) . . .
36.8(35) . . .
31.8(30) . . .
36.5(31) . . .
37.1(34) . . .
31.3(30) . . .
25.7(29) . . .
31.0(28) . . .
32.3(31) . . .
31.0(30) . . .
35.7(33) . . .
32.0(30) . . .
26.3(28) . . .
30.5(28) . . .
35.5(31) . . .
28.5(30) . . .
23.6(26) . . .
32.9(30) . . .
35.4(31) . . .
32.3(30) . . .
29.4(30) . . .
29.8(28) . . .
35.7(31) . . .
29.9(30) . . .
22.0(25) . . .
35(4) . . .
30.7(30) . . .
27.5(27) . . .
30.0(30) . . .
28.4(29) . . .
27.0(28) . . .
22.7(29) . . .
27.6(27) . . .
22.3(25) . . .
34.9(32) . . .
28.9(28) . . .
20.4(24) . . .
29.3(28) . . .
23.9(27) . . .
29.6(29) . . .
29.5(28) . . .
31.9(30) . . .
30.8(29) . . .
32.2(30) . . .
29.6(29) . . .
29.3(28) . . .
32.8(30) . . .
37.6(32) . . .
32.0(30) . . .
31.2(31) . . .
29.1(29) . . .
29.1(30) . . .
27.0(26) . . .
24.2(26) . . .
27.4(31) . . .
22.0(27) . . .
24.9(26) . . .
28.8(28) . . .
24.6(26) . . .
34.1(33) . . .
29.7(29) . . .
20.7(23) . . .
19.4(23) . . .
25.2(27) . . .
26.7(30) . . .
25.5(28) . . .
21.3(24) . . .
34.4(30) . . .
36.4(34) . . .
27.0(29) . . .
33.3(32) . . .
25.9(27) . . .
28.8(28) . . .
27.9(29) . . .
35.4(32) . . .
28.2(27) . . .
27.2(27) . . .
23.2(26) . . .
33.1(31) . . .
30.4(30) . . .
23.4(26) . . .
28.1(28) . . .
32.6(31) . . .
37(4) . . .
32.3(31) . . .
28.3(28) . . .
28.3(27) . . .
30.1(30) . . .
19.2(22) . . .
23.0(26) . . .
21.0(24) . . .
22.9(25) . . .
28.1(27) . . .
29.9(30) . . .
36.4(33) . . .
31.0(29) . . .
24.5(26) . . .
30.5(30) . . .
29.5(30) . . .
31.3(32) . . .
36.8(33) . . .
29.1(29) . . .
32.9(33) . . .
36(4) . . .
34.1(31) . . .
32.5(29) . . .
30.7(28) . . .
31.3(29) . . .
45(4) . . .
32.9(29) . . .
35.8(31) . . .
32.0(29) . . .
28.7(31) . . .
25.8(28) . . .
26.6(29) . . .
34.6(30) . . .
32.3(31) . . .
27.9(28) . . .
31.7(29) . . .
32.4(30) . . .
32.0(30) . . .
24.3(25) . . .
36.4(34) . . .
33.7(32) . . .
29.8(29) . . .
30.0(29) . . .
26.7(27) . . .
34.0(31) . . .
46(4) . . .
36.8(34) . . .
28.7(29) . . .
32.9(32) . . .
26.1(31) . . .
26.3(29) . . .
22.8(25) . . .
29.2(28) . . .
27.7(28) . . .
29.3(30) . . .
23.6(26) . . .
29.6(30) . . .
33.7(30) . . .
29.9(29) . . .
22.9(25) . . .
29.7(30) . . .
28.6(29) . . .
25.0(26) . . .
30.7(30) . . .
38.3(34) . . .
37.3(32) . . .
32.9(31) . . .
31.3(29) . . .
37.0(32) . . .
29.9(29) . . .
24.5(26) . . .
35.1(31) . . .
38.9(34) . . .
33.9(30) . . .
24.3(27) . . .
30.5(29) . . .
35.8(31) . . .
30.7(29) . . .
35.8(33) . . .
34.8(32) . . .
31.7(30) . . .
30.5(29) . . .
30.5(29) . . .
33.5(33) . . .
29.4(31) . . .
35.8(32) . . .
41.1(33) . . .
28.3(29) . . .
25.6(27) . . .
28.3(29) . . .
36.3(32) . . .
38.0(32) . . .
27.3(28) . . .
26.8(29) . . .
26.9(29) . . .
26.3(27) . . .
25.8(27) . . .
36.2(32) . . .
25.4(27) . . .
29.2(30) . . .
26.7(28) . . .
31.9(30) . . .
27.4(29) . . .
25.0(27) . . .
28.5(29) . . .
34.0(30) . . .
32.8(30) . . .
29.5(29) . . .
31.1(32) . . .
32.7(33) . . .
25.4(26) . . .
29.3(28) . . .
32.6(31) . . .
37.0(34) . . .
30.6(30) . . .
26.8(28) . . .
33.4(31) . . .
33.6(31) . . .
37.3(35) . . .
35.4(31) . . .
27.1(27) . . .
28.5(28) . . .
34.0(33) . . .
29.6(30) . . .
34.0(31) . . .
28.3(27) . . .
27.2(28) . . .
34.5(33) . . .
28.6(29) . . .
33.1(30) . . .
24.9(26) . . .
31.5(29) . . .
27.0(27) . . .
27.2(29) . . .
32.3(33) . . .
39.5(32) . . .
25.1(26) . . .
27.7(30) . . .
26.3(29) . . .
29.0(30) . . .
25.5(26) . . .
40(4) . . .
29.2(30) . . .
38.4(35) . . .
31.5(30) . . .
30.5(29) . . .
33.1(31) . . .
30.8(32) . . .
25.3(28) . . .
32.3(31) . . .
27.8(27) . . .
40.6(34) . . .
29.7(29) . . .
28.3(28) . . .
27.4(28) . . .
28.6(28) . . .
32.6(30) . . .
35.1(33) . . .
32.9(31) . . .
36.6(31) . . .
32.5(30) . . .
32.5(32) . . .
28.5(30) . . .
34.8(33) . . .
24.1(26) . . .
33.0(31) . . .
28.7(30) . . .
33.0(31) . . .
24.3(25) . . .
29.5(30) . . .
35.5(31) . . .
24.0(25) . . .
31.7(32) . . .
25.0(26) . . .
29.7(29) . . .
25.8(26) . . .
28.9(28) . . .
26.5(27) . . .
34.2(31) . . .
31.3(29) . . .
35.1(31) . . .
36.5(32) . . .
31.5(31) . . .
27.8(27) . . .
21.8(24) . . .
24.1(28) . . .
31.4(32) . . .
29.0(29) . . .
30.5(29) . . .
26.5(27) . . .
29.0(29) . . .
31.6(31) . . .
24.8(28) . . .
31.0(30) . . .
26.7(27) . . .
30.7(30) . . .
25.8(27) . . .
28.0(30) . . .
28.4(28) . . .
33.7(30) . . .
25.7(26) . . .
27.8(29) . . .
24.0(27) . . .
32.7(32) . . .
24.4(26) . . .
30.1(29) . . .
29.0(30) . . .
23.5(26) . . .
34.2(31) . . .
31.5(29) . . .
28.6(33) . . .
26.7(28) . . .
26.6(27) . . .
31.4(29) . . .
28.0(27) . . .
27.2(27) . . .
29.1(30) . . .
25.8(29) . . .
27.2(28) . . .
29.6(28) . . .
28.4(28) . . .
34.2(32) . . .
35.5(31) . . .
28.0(28) . . .
35.1(31) . . .
33.5(30) . . .
30.2(29) . . .
40(4) . . .
28.0(28) . . .
27.3(27) . . .
32.0(30) . . .
29.0(30) . . .
32.8(31) . . .
32.2(30) . . .
38.6(33) . . .
28.4(28) . . .
36.9(34) . . .
31.9(29) . . .
33.3(30) . . .
21.5(25) . . .
26.0(28) . . .
30.1(30) . . .
31.2(30) . . .
34.4(30) . . .
24.9(26) . . .
32.0(31) . . .
34.0(34) . . .
31.9(30) . . .
27.5(27) . . .
30.3(30) . . .
30.4(30) . . .
35.5(35) . . .
26.1(27) . . .
30.4(29) . . .
32.7(30) . . .
33.3(33) . . .
31.2(29) . . .
36.0(31) . . .
27.7(28) . . .
23.7(26) . . .
26.7(31) . . .
28.5(30) . . .
22.8(25) . . .
31.2(30) . . .
26.9(28) . . .
30.5(30) . . .
29.4(30) . . .
28.6(28) . . .
30.0(28) . . .
28.0(28) . . .
25.4(26) . . .
32.0(30) . . .
39.4(34) . . .
28.4(27) . . .
39.2(34) . . .
27.7(28) . . .
30.5(29) . . .
29.4(28) . . .
35.6(31) . . .
27.2(29) . . .
34.7(33) . . .
31.7(30) . . .
30.4(30) . . .
30.5(29) . . .
29.5(30) . . .
26.3(28) . . .
28.7(29) . . .
31.8(29) . . .
27.0(28) . . .
28.5(28) . . .
27.0(28) . . .
26.3(27) . . .
31.2(29) . . .
26.7(27) . . .
27.8(29) . . .
32.1(32) . . .
22.6(26) . . .
26.2(27) . . .
31.0(30) . . .
27.4(31) . . .
34.2(33) . . .
29.0(30) . . .
30.0(29) . . .
38.7(33) . . .
37.1(34) . . .
28.8(30) . . .
25.1(28) . . .
25.1(26) . . .
27.4(29) . . .
32.1(31) . . .
27.4(27) . . .
35.8(32) . . .
29.9(29) . . .
26.5(29) . . .
26.5(31) . . .
24.7(27) . . .
25.1(27) . . .
31.4(29) . . .
31.6(30) . . .
27.1(28) . . .
35.3(33) . . .
33.7(30) . . .
38.2(32) . . .
26.0(26) . . .
32.8(33) . . .
38(4) . . .
32.0(29) . . .
34.2(30) . . .
30.9(29) . . .
34.0(32) . . .
26.1(28) . . .
33.3(31) . . .
29.3(28) . . .
26.3(29) . . .
20.4(26) . . .
28.6(29) . . .
32.3(30) . . .
22.4(25) . . .
24.5(27) . . .
27.7(30) . . .
31.7(30) . . .
32.7(30) . . .
31.8(29) . . .
38.1(35) . . .
30.6(31) . . .
34.3(31) . . .
27.8(27) . . .
27.7(28) . . .
24.4(27) . . .
23.5(27) . . .
31.3(30) . . .
40.2(33) . . .
28.5(29) . . .
30.9(31) . . .
28.1(28) . . .
28.4(28) . . .
35.7(31) . . .
29.9(29) . . .
29.4(31) . . .
31.0(33) . . .
38.7(34) . . .
30.3(29) . . .
36.9(35) . . .
29.5(31) . . .
33.3(31) . . .
30.4(29) . . .
33.9(31) . . .
34.5(32) . . .
24.3(27) . . .
35.0(32) . . .
36.6(31) . . .
33.7(30) . . .
27.6(27) . . .
28.3(31) . . .
21.2(28) . . .
25.3(27) . . .
40.4(33) . . .
30.5(32) . . .
31.2(30) . . .
28.7(28) . . .
29.1(28) . . .
35.6(31) . . .
28.7(28) . . .
38.4(35) . . .
34.4(32) . . .
32.2(30) . . .
24.8(26) . . .
31.6(32) . . .
25.3(29) . . .
25.4(27) . . .
27.7(28) . . .
23.7(25) . . .
32.8(30) . . .
25.3(26) . . .
32.4(31) . . .
41.5(34) . . .
30.2(30) . . .
27.5(28) . . .
31.9(31) . . .
21.7(25) . . .
29.6(29) . . .
27.8(28) . . .
34.0(33) . . .
30.5(30) . . .
20.3(25) . . .
34.5(31) . . .
32.2(32) . . .
38(4) . . .
34.0(32) . . .
30.5(29) . . .
23.9(26) . . .
26.6(28) . . .
30.9(31) . . .
36.9(33) . . .
31.1(30) . . .
31.6(29) . . .
22.3(27) . . .
31.7(32) . . .
33.3(31) . . .
25.9(28) . . .
36.6(32) . . .
25.2(28) . . .
25.9(28) . . .
35.1(32) . . .
34.1(30) . . .
30.3(30) . . .
25.7(26) . . .
26.4(29) . . .
32.1(31) . . .
29.9(28) . . .
25.7(27) . . .
26.2(28) . . .
28.5(30) . . .
30.8(30) . . .
24.8(26) . . .
32.9(30) . . .
33.1(30) . . .
33.2(30) . . .
37.9(33) . . .
30.1(28) . . .
37.6(34) . . .
27.8(27) . . .
32.5(31) . . .
35.7(33) . . .
33.9(30) . . .
35.0(30) . . .
29.5(29) . . .
24.7(26) . . .
26.2(27) . . .
24.1(26) . . .
33.9(31) . . .
27.8(28) . . .
31.3(30) . . .
24.8(26) . . .
29.8(29) . . .
28.4(27) . . .
25.7(27) . . .
28.3(28) . . .
35.3(32) . . .
29.8(28) . . .
22.6(26) . . .
24.7(27) . . .
39(4) . . .
40(4) . . .
34.2(31) . . .
29.1(31) . . .
23.1(26) . . .
27.8(27) . . .
24.1(25) . . .
29.8(28) . . .
34.4(33) . . .
34.3(34) . . .
29.9(31) . . .
29.7(29) . . .
31.7(29) . . .
40(4) . . .
27.7(30) . . .
31.6(31) . . .
28.5(27) . . .
27.7(28) . . .
37.9(33) . . .
31.5(31) . . .
30.2(28) . . .
32.3(30) . . .
30.3(29) . . .
24.1(26) . . .
33.5(33) . . .
31.5(30) . . .
27.8(28) . . .
20.3(23) . . .
28.0(29) . . .
40(4) . . .
30.7(28) . . .
31.3(29) . . .
32.5(30) . . .
25.1(28) . . .
24.9(29) . . .
28.6(29) . . .
32.3(30) . . .
26.5(27) . . .
38.9(35) . . .
27.1(28) . . .
22.6(25) . . .
18.5(23) . . .
28.9(29) . . .
32.7(30) . . .
37.1(32) . . .
33.9(30) . . .
39.1(33) . . .
32.8(31) . . .
30.8(28) . . .
29.8(29) . . .
24.5(26) . . .
30.6(29) . . .
29.9(32) . . .
32.5(31) . . .
32.1(30) . . .
28.8(27) . . .
27.9(29) . . .
30.9(30) . . .
26.9(27) . . .
34.0(32) . . .
31.2(30) . . .
26.5(27) . . .
31.9(30) . . .
26.1(28) . . .
28.0(29) . . .
33.7(30) . . .
32.2(29) . . .
31.9(30) . . .
28.0(29) . . .
28.5(29) . . .
29.8(29) . . .
32.7(30) . . .
33.3(30) . . .
24.7(26) . . .
35.9(33) . . .
29.0(29) . . .
27.9(28) . . .
24.9(29) . . .
31.5(32) . . .
24.8(27) . . .
25.4(26) . . .
33.4(32) . . .
23.9(26) . . .
35.0(34) . . .
32.6(30) . . .
35.5(32) . . .
36.3(31) . . .
25.4(26) . . .
29.2(31) . . .
22.4(24) . . .
32.0(29) . . .
31.2(31) . . .
28.9(31) . . .
20.9(26) . . .
29.6(31) . . .
31.3(29) . . .
23.7(26) . . .
25.8(29) . . .
25.9(27) . . .
36.0(33) . . .
31.9(30) . . .
27.1(31) . . .
28.2(29) . . .
41(4) . . .
28.7(29) . . .
32.2(29) . . .
28.0(31) . . .
25.4(28) . . .
27.3(28) . . .
30.9(31) . . .
29.0(28) . . .
26.7(29) . . .
26.3(29) . . .
28.0(28) . . .
31.5(31) . . .
35.6(32) . . .
35.6(32) . . .
29.7(30) . . .
28.7(29) . . .
35.8(31) . . .
32.9(30) . . .
31.0(29) . . .
28.2(30) . . .
20.6(24) . . .
34.5(30) . . .
31.1(29) . . .
29.8(29) . . .
27.4(28) . . .
32.5(30) . . .
24.5(26) . . .
35.5(31) . . .
29.1(29) . . .
32.3(33) . . .
28.7(28) . . .
29.2(28) . . .
34.2(31) . . .
32.6(31) . . .
28.1(29) . . .
27.1(28) . . .
32.1(30) . . .
29.9(30) . . .
23.0(25) . . .
28.0(29) . . .
20.2(24) . . .
29.7(29) . . .
30.2(29) . . .
31.1(31) . . .
33.9(33) . . .
29.4(29) . . .
30.5(29) . . .
34.4(31) . . .
37.5(35) . . .
26.9(28) . . .
25.4(26) . . .
29.9(29) . . .
27.9(29) . . .
34.6(31) . . .
30.9(29) . . .
33.0(30) . . .
21.5(24) . . .
24.1(25) . . .
25.2(27) . . .
29.0(29) . . .
28.8(28) . . .
39.7(33) . . .
30.0(29) . . .
27.2(28) . . .
29.6(30) . . .
32.8(30) . . .
30.7(29) . . .
33.4(31) . . .
27.8(30) . . .
26.9(28) . . .
31.6(30) . . .
27.7(28) . . .
29.9(30) . . .
27.6(27) . . .
31.5(29) . . .
28.0(27) . . .
24.2(26) . . .
25.7(28) . . .
27.3(29) . . .
31.3(30) . . .
33.2(30) . . .
25.4(27) . . .
29.4(29) . . .
23.7(26) . . .
29.6(32) . . .
27.6(28) . . .
24.4(26) . . .
24.7(26) . . .
21.7(26) . . .
24.6(27) . . .
28.9(28) . . .
27.5(28) . . .
26.9(31) . . .
23.5(27) . . .
21.5(24) . . .
28.2(28) . . .
17.9(22) . . .
26.8(28) . . .
34.9(34) . . .
30.8(32) . . .
24.6(26) . . .
31.7(30) . . .
32.5(32) . . .
30.4(30) . . .
23.3(26) . . .
24.9(27) . . .
28.0(29) . . .
31.4(32) . . .
29.6(29) . . .
26.9(27) . . .
28.7(28) . . .
32.9(31) . . .
34.5(31) . . .
30.5(29) . . .
29.9(28) . . .
38.0(33) . . .
35.1(32) . . .
30.9(32) . . .
30.1(29) . . .
34.6(30) . . .
33.6(33) . . .
21.0(24) . . .
30.1(31) . . .
32.4(32) . . .
33.3(30) . . .
30.1(28) . . .
30.4(29) . . .
23.8(26) . . .
24.4(26) . . .
23.7(25) . . .
28.4(29) . . .
26.5(28) . . .
25.5(28) . . .
32.2(30) . . .
32.6(29) . . .
26.9(30) . . .
37.0(33) . . .
34.6(31) . . .
30.0(29) . . .
21.6(24) . . .
32.2(31) . . .
22.3(25) . . .
21.4(25) . . .
27.6(27) . . .
34.0(30) . . .
25.6(27) . . .
27.4(29) . . .
37.0(34) . . .
30.4(30) . . .
26.0(26) . . .
27.3(28) . . .
31.3(30) . . .
25.0(25) . . .
21.2(24) . . .
22.8(25) . . .
25.3(27) . . .
26.4(30) . . .
27.2(28) . . .
27.5(27) . . .
26.5(27) . . .
31.7(32) . . .
29.4(30) . . .
30.1(30) . . .
30.9(29) . . .
30.1(29) . . .
26.4(26) . . .
33.7(32) . . .
26.5(27) . . .
30.4(28) . . .
32.1(30) . . .
41.1(35) . . .
29.9(32) . . .
26.9(29) . . .
24.2(25) . . .
28.9(28) . . .
27.0(28) . . .
29.1(28) . . .
35.8(33) . . .
29.8(28) . . .
26.6(27) . . .
25.1(26) . . .
19.6(24) . . .
30.5(31) . . .
30.2(29) . . .
36.2(33) . . .
33.9(31) . . .
37.5(32) . . .
39.7(33) . . .
28.0(28) . . .
22.9(25) . . .
27.5(28) . . .
24.0(26) . . .
29.0(29) . . .
30.4(29) . . .
29.0(29) . . .
35.4(35) . . .
33.6(32) . . .
30.7(29) . . .
31.5(29) . . .
20.9(24) . . .
41(4) . . .
33.9(32) . . .
31.9(30) . . .
35.6(32) . . .
32.6(30) . . .
31.6(30) . . .
30.1(33) . . .
22.3(24) . . .
39.9(34) . . .
36.1(32) . . .
30.2(32) . . .
28.2(29) . . .
33.9(31) . . .
25.4(26) . . .
27.5(29) . . .
22.7(25) . . .
27.5(29) . . .
27.0(28) . . .
32.5(29) . . .
39.2(35) . . .
33.6(30) . . .
32.5(31) . . .
27.7(27) . . .
24.4(26) . . .
26.4(28) . . .
31.2(32) . . .
30.7(31) . . .
30.6(29) . . .
29.5(28) . . .
25.4(26) . . .
30.6(31) . . .
24.1(27) . . .
25.8(26) . . .
28.4(28) . . .
32(4) . . .
28.2(30) . . .
28.3(28) . . .
30.1(29) . . .
29.7(29) . . .
21.2(24) . . .
33.1(32) . . .
29.4(28) . . .
29.7(29) . . .
29.2(28) . . .
24.9(27) . . .
25.9(27) . . .
26.3(29) . . .
29.8(29) . . .
28.3(30) . . .
30.1(30) . . .
24.3(26) . . .
20.9(24) . . .
32.7(30) . . .
33.8(32) . . .
32.1(32) . . .
30.4(30) . . .
27.6(27) . . .
28.4(28) . . .
39.3(34) . . .
37(4) . . .
22.2(26) . . .
24.6(26) . . .
31.1(29) . . .
27.5(27) . . .
22.7(25) . . .
26.2(27) . . .
31.0(29) . . .
36.6(31) . . .
42(4) . . .
30.2(31) . . .
24.4(27) . . .
23.1(26) . . .
31.3(29) . . .
37.7(34) . . .
35.8(33) . . .
38.3(33) . . .
29.5(28) . . .
27.5(28) . . .
29.8(29) . . .
33.1(32) . . .
30.0(28) . . .
30.6(29) . . .
33.3(30) . . .
30.8(28) . . .
31.3(32) . . .
25.2(27) . . .
29.0(28) . . .
34.0(32) . . .
33.5(31) . . .
29.2(29) . . .
30.6(31) . . .
33.3(30) . . .
31.6(31) . . .
34.3(34) . . .
18.8(23) . . .
23.4(28) . . .
28.4(28) . . .
28.8(30) . . .
29.6(29) . . .
38.6(33) . . .
32.1(30) . . .
32.9(31) . . .
32.3(33) . . .
34.8(33) . . .
37.5(33) . . .
29.9(28) . . .
23.9(25) . . .
32.8(31) . . .
28.8(29) . . .
25.0(27) . . .
26.6(27) . . .
25.6(26) . . .
26.9(28) . . .
30.3(32) . . .
36.1(32) . . .
31.6(31) . . .
28.5(27) . . .
22.3(24) . . .
23.0(27) . . .
26.1(27) . . .
30.3(28) . . .
30.3(29) . . .
23.5(26) . . .
29.6(33) . . .
33.5(31) . . .
30.4(29) . . .
36.0(32) . . .
31.9(28) . . .
33.3(33) . . .
22.7(25) . . .
39.4(33) . . .
26.9(26) . . .
28.6(29) . . .
23.1(26) . . .
27.0(27) . . .
28.4(28) . . .
33.4(31) . . .
22.9(26) . . .
25.0(27) . . .
28.6(29) . . .
22.9(26) . . .
29.7(30) . . .
30.6(29) . . .
30.8(31) . . .
24.2(27) . . .
22.1(24) . . .
30.9(31) . . .
33.6(32) . . .
30.9(31) . . .
28.5(27) . . .
36.0(33) . . .
41(4) . . .
34.4(32) . . .
36.4(33) . . .
31.0(29) . . .
28.3(28) . . .
33.8(32) . . .
36.7(33) . . .
38.8(33) . . .
35.1(32) . . .
29.8(28) . . .
24.8(26) . . .
23.1(26) . . .
32.8(30) . . .
36.4(32) . . .
29.8(28) . . .
34.8(32) . . .
29.4(30) . . .
27.8(28) . . .
32.5(30) . . .
33.3(30) . . .
36.3(33) . . .
25.6(28) . . .
26.1(27) . . .
29.0(28) . . .
28.0(27) . . .
25.0(26) . . .
27.0(30) . . .
20.6(25) . . .
24.8(26) . . .
22.2(25) . . .
27.1(29) . . .
22.2(25) . . .
33.6(32) . . .
30.8(29) . . .
33.9(30) . . .
23.1(24) . . .
31.8(30) . . .
34.1(31) . . .
32.6(30) . . .
31.6(29) . . .
25.7(27) . . .
27.2(29) . . .
24.9(27) . . .
29.2(29) . . .
32.9(31) . . .
27.4(28) . . .
34.6(34) . . .
27.0(27) . . .
35.4(31) . . .
32.8(31) . . .
29.5(29) . . .
40.4(35) . . .
29.0(27) . . .
30.3(28) . . .
36.3(33) . . .
39(4) . . .
31.4(31) . . .
26.5(27) . . .
32.1(29) . . .
25.9(28) . . .
29.3(30) . . .
33.7(30) . . .
34.0(30) . . .
36.3(32) . . .
35.6(32) . . .
34.9(33) . . .
28.4(28) . . .
39.0(33) . . .
30.4(29) . . .
31.2(30) . . .
34.5(33) . . .
29.6(29) . . .
24.6(25) . . .
25.3(26) . . .
24.2(27) . . .
28.7(29) . . .
32.7(30) . . .
37.2(32) . . .
30.4(29) . . .
28.1(29) . . .
37(4) . . .
27.5(28) . . .
34.3(31) . . .
24.2(25) . . .
40(4) . . .
36.4(34) . . .
30.1(30) . . .
23.3(25) . . .
27.9(28) . . .
22.2(25) . . .
19.9(24) . . .
27.4(29) . . .
28.7(29) . . .
32.7(35) . . .
26.6(30) . . .
31.6(32) . . .
28.0(28) . . .
29.2(28) . . .
29.3(28) . . .
25.9(26) . . .
26.0(28) . . .
33.4(30) . . .
29.9(29) . . .
36.4(32) . . .
35.1(32) . . .
35.1(32) . . .
34.4(30) . . .
29.4(29) . . .
29.0(30) . . .
34.2(33) . . .
30.8(29) . . .
32.8(31) . . .
35.8(31) . . .
26.2(27) . . .
28.5(30) . . .
36.4(32) . . .
31.9(30) . . .
30.5(29) . . .
32.8(33) . . .
26.3(28) . . .
35.5(34) . . .
30.6(29) . . .
24.1(25) . . .
35.5(32) . . .
35.9(35) . . .
31.0(29) . . .
26.2(26) . . .
26.6(27) . . .
26.8(30) . . .
25.1(27) . . .
24.4(26) . . .
29.2(29) . . .
30.3(28) . . .
25.8(27) . . .
27.7(29) . . .
28.8(30) . . .
28.1(27) . . .
29.2(28) . . .
32.1(30) . . .
32.3(31) . . .
25.7(29) . . .
28.1(28) . . .
27.0(28) . . .
26.6(29) . . .
27.4(28) . . .
32.2(31) . . .
29.2(28) . . .
29.2(28) . . .
30.1(31) . . .
26.8(29) . . .
30.4(28) . . .
28.8(28) . . .
25.4(29) . . .
27.4(31) . . .
31.2(30) . . .
32.5(30) . . .
33.9(30) . . .
34.0(33) . . .
30.8(31) . . .
33.8(32) . . .
28.0(28) . . .
24.1(26) . . .
32.3(33) . . .
26.7(29) . . .
27.4(28) . . .
26.2(26) . . .
28.9(29) . . .
22.5(25) . . .
34.6(35) . . .
28.7(29) . . .
30.1(28) . . .
27.2(28) . . .
27.0(27) . . .
30.7(31) . . .
33.8(30) . . .
33.3(30) . . .
27.5(29) . . .
21.8(25) . . .
37(4) . . .
33.6(31) . . .
26.8(26) . . .
31.9(31) . . .
25.0(26) . . .
26.6(30) . . .
23.6(27) . . .
24.7(26) . . .
31.3(30) . . .
30.6(31) . . .
27.0(29) . . .
32.2(31) . . .
24.8(26) . . .
35.2(31) . . .
32.0(30) . . .
23.6(27) . . .
32.4(32) . . .
28.0(28) . . .
31.2(30) . . .
24.0(25) . . .
32.9(29) . . .
31.5(29) . . .
27.1(27) . . .
22.6(25) . . .
31.6(31) . . .
32.4(30) . . .
30.2(28) . . .
29.0(28) . . .
31.5(30) . . .
25.7(27) . . .
29.2(29) . . .
23.5(25) . . .
37.5(32) . . .
34.2(32) . . .
28.3(30) . . .
28.8(29) . . .
27.4(27) . . .
30.0(29) . . .
35.3(32) . . .
18.5(23) . . .
38(4) . . .
27.0(27) . . .
25.1(26) . . .
31.1(29) . . .
32.9(31) . . .
28.1(28) . . .
27.0(27) . . .
27.0(27) . . .
31.4(30) . . .
29.7(28) . . .
36.1(32) . . .
30.5(29) . . .
29.1(28) . . .
35.5(33) . . .
31.9(31) . . .
27.4(29) . . .
32.3(30) . . .
25.0(29) . . .
27.7(28) . . .
27.0(28) . . .
26.9(27) . . .
35.8(31) . . .
26.6(27) . . .
26.5(27) . . .
29.0(29) . . .
31.4(30) . . .
28.1(28) . . .
20.0(25) . . .
32.6(31) . . .
28.8(28) . . .
30.7(29) . . .
26.1(27) . . .
23.5(26) . . .
28.3(29) . . .
28.0(28) . . .
31.4(29) . . .
32.4(30) . . .
26.0(27) . . .
29.9(31) . . .
33.1(30) . . .
37.6(32) . . .
25.8(27) . . .
29.6(30) . . .
23.8(24) . . .
30.1(29) . . .
34.5(30) . . .
33.0(30) . . .
36.1(34) . . .
35.1(34) . . .
24.3(26) . . .
44.5(35) . . .
30.8(29) . . .
22.5(27) . . .
33.1(31) . . .
26.1(27) . . .
29.0(28) . . .
27.5(27) . . .
23.2(25) . . .
31.5(31) . . .
33.1(30) . . .
31.8(30) . . .
26.7(27) . . .
28.0(28) . . .
24.5(26) . . .
31.4(31) . . .
29.9(28) . . .
32.1(30) . . .
29.7(30) . . .
26.3(28) . . .
36.9(33) . . .
31.6(30) . . .
27.6(28) . . .
25.2(27) . . .
22.6(25) . . .
29.4(28) . . .
26.1(26) . . .
26.1(29) . . .
26.6(28) . . .
26.9(27) . . .
21.2(24) . . .
34.1(30) . . .
29.7(29) . . .
31.4(32) . . .
25.3(30) . . .
25.9(27) . . .
36.3(32) . . .
29.9(29) . . .
31.6(31) . . .
27.9(29) . . .
27.6(28) . . .
30.7(29) . . .
32.1(30) . . .
28.6(29) . . .
29.0(28) . . .
33.4(30) . . .
33.1(31) . . .
33.5(31) . . .
31.4(32) . . .
34.0(31) . . .
32.5(30) . . .
39.3(33) . . .
34.4(32) . . .
32.9(34) . . .
30.8(30) . . .
22.6(24) . . .
26.7(27) . . .
29.4(30) . . .
27.7(29) . . .
31.3(30) . . .
41.5(34) . . .
29.4(29) . . .
24.4(27) . . .
30.2(31) . . .
29.6(29) . . .
36.3(31) . . .
29.5(28) . . .
28.1(28) . . .
29.4(30) . . .
31.1(31) . . .
27.9(28) . . .
35.9(33) . . .
29.1(30) . . .
30.5(31) . . .
26.8(28) . . .
30.4(29) . . .
30.1(30) . . .
27.3(29) . . .
27.2(28) . . .
34.4(31) . . .
29.2(28) . . .
33.6(31) . . .
28.8(30) . . .
23.9(28) . . .
29.8(29) . . .
31.6(30) . . .
30.2(31) . . .
30.5(30) . . .
21.1(23) . . .
30.5(30) . . .
29.5(29) . . .
26.1(29) . . .
27.5(30) . . .
26.3(28) . . .
31.8(31) . . .
31.1(29) . . .
36.7(35) . . .
30.9(31) . . .
29.1(28) . . .
34.4(32) . . .
32.6(31) . . .
28.7(30) . . .
25.8(27) . . .
31.1(30) . . .
25.1(26) . . .
35.7(32) . . .
29.5(29) . . .
27.4(29) . . .
25.5(28) . . .
30.7(29) . . .
36.3(31) . . .
35.8(32) . . .
29.7(30) . . .
25.3(27) . . .
23.7(26) . . .
27.7(27) . . .
27.7(28) . . .
28.9(29) . . .
28.9(30) . . .
29.1(29) . . .
24.8(26) . . .
22.4(25) . . .
24.2(26) . . .
31.3(30) . . .
30.8(29) . . .
23.5(26) . . .
28.7(29) . . .
33.6(33) . . .
26.0(27) . . .
30.9(29) . . .
25.1(29) . . .
22.8(26) . . .
27.6(29) . . .
26.4(27) . . .
29.4(28) . . .
29.9(29) . . .
30.8(30) . . .
28.1(28) . . .
22.3(24) . . .
26.9(27) . . .
21.7(25) . . .
34.6(33) . . .
27.6(28) . . .
35.0(31) . . .
32.5(30) . . .
30.5(30) . . .
33.1(33) . . .
31.1(29) . . .
23.2(25) . . .
26.0(27) . . .
33.2(33) . . .
24.4(27) . . .
25.6(26) . . .
29.8(29) . . .
31.2(28) . . .
35.8(33) . . .
24.8(28) . . .
32.1(33) . . .
27.8(28) . . .
29.8(29) . . .
31.2(29) . . .
33.9(32) . . .
33.5(33) . . .
32.6(30) . . .
34.3(31) . . .
26.2(29) . . .
21.1(27) . . .
24.8(27) . . .
31.1(30) . . .
37.0(31) . . .
38.2(34) . . .
33.7(32) . . .
33.5(33) . . .
33.3(31) . . .
25.0(26) . . .
34.4(31) . . .
31.0(31) . . .
27.2(28) . . .
25.7(27) . . .
25.0(28) . . .
37.8(35) . . .
34.2(31) . . .
29.4(28) . . .
28.2(28) . . .
34.0(32) . . .
30.8(30) . . .
21.5(24) . . .
27.4(28) . . .
32.3(30) . . .
29.6(30) . . .
20.3(25) . . .
31.5(32) . . .
25.8(27) . . .
27.6(27) . . .
29.1(30) . . .
28.5(30) . . .
25.8(26) . . .
33.8(31) . . .
32.4(30) . . .
30.2(28) . . .
30.0(30) . . .
32.9(31) . . .
32.6(30) . . .
28.2(27) . . .
24.9(27) . . .
34.0(33) . . .
27.7(27) . . .
26.0(27) . . .
26.6(27) . . .
35.0(32) . . .
32.7(32) . . .
34.3(33) . . .
29.5(28) . . .
34.3(32) . . .
28.6(30) . . .
29.2(29) . . .
37(4) . . .
27.8(28) . . .
36.3(34) . . .
27.7(27) . . .
29.8(29) . . .
31.3(31) . . .
32.4(30) . . .
32.7(30) . . .
23.9(25) . . .
28.8(30) . . .
21.4(24) . . .
25.3(27) . . .
33.1(31) . . .
28.7(28) . . .
28.3(27) . . .
37.7(32) . . .
23.9(25) . . .
22.6(25) . . .
27.0(28) . . .
27.9(29) . . .
32.3(30) . . .
35.3(31) . . .
30.3(31) . . .
25.5(27) . . .
26.9(29) . . .
21.1(26) . . .
28.2(28) . . .
33.8(32) . . .
31.5(32) . . .
29.8(30) . . .
30.2(29) . . .
30.8(29) . . .
38.4(34) . . .
33.3(33) . . .
27.9(31) . . .
29.6(28) . . .
35.5(31) . . .
30.4(30) . . .
25.1(25) . . .
22.4(26) . . .
25.1(27) . . .
27.4(29) . . .
21.6(26) . . .
25.6(28) . . .
27.0(27) . . .
26.8(27) . . .
27.3(28) . . .
29.0(29) . . .
27.3(29) . . .
28.7(29) . . .
28.5(28) . . .
33.3(32) . . .
29.0(31) . . .
25.3(26) . . .
29.6(28) . . .
25.4(26) . . .
26.3(27) . . .
28.2(29) . . .
31.4(31) . . .
39(4) . . .
30.1(29) . . .
33.1(32) . . .
27.4(28) . . .
25.8(28) . . .
29.7(29) . . .
27.5(27) . . .
24.5(26) . . .
29.1(29) . . .
36.5(32) . . .
27.8(27) . . .
29.1(28) . . .
29.1(29) . . .
33.3(31) . . .
29.9(28) . . .
27.8(28) . . .
25.0(26) . . .
25.4(28) . . .
34.4(32) . . .
26.4(27) . . .
31.8(30) . . .
22.3(25) . . .
30.3(28) . . .
30.3(30) . . .
25.2(27) . . .
25.8(26) . . .
26.7(27) . . .
26.3(28) . . .
40(4) . . .
31.0(30) . . .
35.0(31) . . .
25.4(27) . . .
27.4(28) . . .
25.4(26) . . .
33.2(30) . . .
31.9(30) . . .
23.3(25) . . .
35.0(31) . . .
27.7(30) . . .
26.4(29) . . .
27.9(29) . . .
22.5(25) . . .
29.0(29) . . .
32.8(32) . . .
31.5(31) . . .
25.5(27) . . .
29.1(28) . . .
22.4(26) . . .
28.3(31) . . .
30.8(31) . . .
33.3(31) . . .
31.7(29) . . .
21.6(24) . . .
30.1(30) . . .
34.2(31) . . .
29.3(28) . . .
28.2(29) . . .
30.1(30) . . .
35.2(33) . . .
40.1(33) . . .
35.0(31) . . .
30.9(31) . . .
30.9(31) . . .
31.2(31) . . .
28.2(28) . . .
27.5(28) . . .
25.7(28) . . .
23.6(27) . . .
32.4(30) . . .
27.8(27) . . .
26.0(27) . . .
32.0(32) . . .
26.8(28) . . .
32.4(31) . . .
30.5(29) . . .
28.9(29) . . .
30.0(29) . . .
29.0(32) . . .
23.0(26) . . .
30.5(28) . . .
24.6(25) . . .
24.7(27) . . .
29.5(31) . . .
27.4(29) . . .
27.9(27) . . .
22.3(25) . . .
31.1(29) . . .
36.3(33) . . .
29.5(28) . . .
27.0(27) . . .
28.2(28) . . .
33.5(32) . . .
28.3(27) . . .
31.2(30) . . .
27.5(27) . . .
27.7(28) . . .
29.1(28) . . .
31.2(32) . . .
24.6(26) . . .
26.6(27) . . .
25.3(28) . . .
27.4(28) . . .
27.3(29) . . .
26.7(27) . . .
28.0(28) . . .
37.0(34) . . .
27.5(29) . . .
24.4(26) . . .
33.6(31) . . .
36.2(31) . . .
30.0(28) . . .
31.7(31) . . .
29.9(30) . . .
30.3(31) . . .
35.6(32) . . .
18.8(22) . . .
29.4(32) . . .
30.3(30) . . .
25.3(26) . . .
32.8(31) . . .
21.7(26) . . .
33.1(32) . . .
33.5(31) . . .
30.5(30) . . .
34.1(31) . . .
30.3(30) . . .
27.1(29) . . .
33.0(31) . . .
23.8(25) . . .
30.0(28) . . .
32.3(30) . . .
27.4(30) . . .
28.3(29) . . .
32.0(29) . . .
27.1(29) . . .
29.9(29) . . .
24.3(28) . . .
23.3(27) . . .
29.0(27) . . .
28.9(28) . . .
27.5(29) . . .
29.3(31) . . .
31.3(30) . . .
35.6(32) . . .
32.6(30) . . .
31.9(29) . . .
27.9(29) . . .
26.2(27) . . .
24.4(26) . . .
32.7(32) . . .
26.7(27) . . .
23.3(26) . . .
26.1(27) . . .
31.2(29) . . .
25.5(27) . . .
30.2(31) . . .
26.7(27) . . .
34.0(31) . . .
29.0(29) . . .
32.6(31) . . .
27.7(29) . . .
27.9(27) . . .
35.3(31) . . .
29.4(28) . . .
30.5(30) . . .
39(4) . . .
33.2(31) . . .
28.4(28) . . .
29.6(29) . . .
26.1(27) . . .
22.8(26) . . .
32.6(33) . . .
28.7(28) . . .
25.2(26) . . .
28.5(29) . . .
24.8(25) . . .
30.8(28) . . .
34.8(31) . . .
31.9(29) . . .
22.7(26) . . .
29.5(32) . . .
27.2(27) . . .
28.1(28) . . .
31.8(29) . . .
27.8(29) . . .
27.2(33) . . .
25.6(27) . . .
27.1(27) . . .
32.3(30) . . .
26.1(27) . . .
24.4(27) . . .
27.4(28) . . .
24.1(26) . . .
27.0(27) . . .
18.8(23) . . .
23.4(28) . . .
24.5(30) . . .
26.1(27) . . .
24.1(25) . . .
18.7(22) . . .
19.7(24) . . .
30.8(30) . . .
24.3(26) . . .
35.1(31) . . .
32.2(30) . . .
33.2(31) . . .
27.2(27) . . .
28.2(28) . . .
27.1(28) . . .
33.4(33) . . .
25.5(27) . . .
24.6(27) . . .
31.9(29) . . .
27.7(28) . . .
29.6(30) . . .
37.3(33) . . .
30.0(29) . . .
29.4(28) . . .
29.1(28) . . .
36.3(33) . . .
29.4(31) . . .
33.7(32) . . .
27.2(27) . . .
33.1(31) . . .
28.5(30) . . .
24.7(27) . . .
27.0(27) . . .
29.9(29) . . .
28.4(31) . . .
28.5(31) . . .
26.1(27) . . .
24.8(26) . . .
20.9(24) . . .
24.3(27) . . .
27.2(30) . . .
24.9(28) . . .
26.4(27) . . .
26.6(27) . . .
27.6(28) . . .
35.3(33) . . .
30.5(29) . . .
28.8(28) . . .
30.2(29) . . .
26.2(29) . . .
29.0(33) . . .
31.0(31) . . .
21.0(25) . . .
26.1(28) . . .
27.3(29) . . .
25.6(29) . . .
31.1(30) . . .
28.2(27) . . .
27.1(28) . . .
30.4(30) . . .
32.0(32) . . .
32.5(30) . . .
34.5(31) . . .
35.2(32) . . .
31.0(31) . . .
35.2(32) . . .
25.5(26) . . .
24.3(26) . . .
30.0(30) . . .
29.3(30) . . .
27.5(27) . . .
26.2(27) . . .
32.5(30) . . .
27.8(29) . . .
32.8(33) . . .
29.7(30) . . .
28.0(27) . . .
36.3(31) . . .
28.6(29) . . .
27.5(29) . . .
32.0(30) . . .
26.4(27) . . .
27.3(28) . . .
25.3(28) . . .
35.3(35) . . .
30.8(30) . . .
26.0(26) . . .
24.8(26) . . .
28.4(29) . . .
28.4(28) . . .
22.1(26) . . .
32.3(31) . . .
35.3(31) . . .
37.7(34) . . .
25.2(26) . . .
30.7(31) . . .
32.0(30) . . .
27.4(27) . . .
24.3(25) . . .
38.5(34) . . .
31.7(30) . . .
32.5(29) . . .
27.2(28) . . .
29.2(31) . . .
20.6(27) . . .
21.9(25) . . .
26.2(26) . . .
29.6(29) . . .
25.7(28) . . .
25.1(27) . . .
26.4(28) . . .
27.5(28) . . .
26.1(27) . . .
39.1(34) . . .
27.9(28) . . .
29.5(29) . . .
34.0(30) . . .
31.6(33) . . .
35.3(34) . . .
25.4(27) . . .
23.9(27) . . .
27.0(28) . . .
29.3(28) . . .
35.4(33) . . .
35.3(32) . . .
28.0(28) . . .
31.2(30) . . .
24.2(28) . . .
26.3(27) . . .
26.7(26) . . .
26.7(27) . . .
24.5(26) . . .
29.7(31) . . .
35.5(33) . . .
23.6(25) . . .
28.0(27) . . .
26.2(27) . . .
31.6(30) . . .
28.2(29) . . .
34.9(33) . . .
21.7(24) . . .
35.5(31) . . .
29.2(28) . . .
28.2(29) . . .
29.2(29) . . .
27.5(27) . . .
19.2(23) . . .
23.9(25) . . .
31.1(33) . . .
26.4(27) . . .
30.5(29) . . .
29.6(28) . . .
30.3(30) . . .
29.1(30) . . .
28.0(30) . . .
23.8(26) . . .
27.1(27) . . .
33.9(31) . . .
22.6(25) . . .
29.4(29) . . .
35.5(31) . . .
23.5(26) . . .
25.1(26) . . .
34.5(31) . . .
29.2(28) . . .
30.4(29) . . .
29.9(29) . . .
26.2(29) . . .
42(4) . . .
32.9(31) . . .
27.2(27) . . .
25.2(27) . . .
30.4(33) . . .
29.1(30) . . .
27.9(29) . . .
27.9(27) . . .
30.6(31) . . .
28.9(30) . . .
25.7(27) . . .
31.5(30) . . .
27.0(27) . . .
26.2(29) . . .
33.7(33) . . .
32.3(29) . . .
29.7(28) . . .
31.8(30) . . .
36.1(32) . . .
31.6(32) . . .
19.4(24) . . .
29.5(29) . . .
34.6(31) . . .
27.8(28) . . .
22.2(24) . . .
31.3(30) . . .
31.6(29) . . .
26.5(27) . . .
25.6(26) . . .
31.7(32) . . .
32.8(31) . . .
29.2(28) . . .
29.4(28) . . .
30.4(29) . . .
28.4(30) . . .
30.5(30) . . .
26.9(27) . . .
32.5(31) . . .
27.5(29) . . .
30.1(31) . . .
29.6(28) . . .
30.8(29) . . .
30.9(31) . . .
29.3(30) . . .
29.0(29) . . .
21.8(24) . . .
27.3(27) . . .
26.6(29) . . .
34.9(34) . . .
32.2(31) . . .
28.3(28) . . .
27.5(28) . . .
23.8(26) . . .
27.6(30) . . .
28.2(27) . . .
29.7(30) . . .
29.5(28) . . .
28.3(29) . . .
33.2(32) . . .
31.5(30) . . .
27.6(27) . . .
28.9(28) . . .
32.2(30) . . .
21.2(24) . . .
31.9(32) . . .
27.5(27) . . .
32.0(30) . . .
27.9(29) . . .
24.2(29) . . .
25.3(28) . . .
31.3(29) . . .
24.4(26) . . .
25.3(27) . . .
24.2(30) . . .
25.1(27) . . .
34.6(30) . . .
29.2(29) . . .
30.5(29) . . .
30.4(30) . . .
31.3(30) . . .
26.2(26) . . .
29.1(28) . . .
30.6(29) . . .
29.0(30) . . .
26.3(28) . . .
25.5(26) . . .
30.5(30) . . .
25.0(28) . . .
27.6(31) . . .
27.0(30) . . .
23.3(25) . . .
27.0(29) . . .
25.2(27) . . .
24.9(26) . . .
20.9(24) . . .
29.0(29) . . .
29.4(30) . . .
27.3(27) . . .
26.1(26) . . .
27.3(28) . . .
27.2(28) . . .
22.8(25) . . .
32.5(31) . . .
32.6(31) . . .
26.5(28) . . .
28.0(27) . . .
26.1(27) . . .
22.4(27) . . .
28.4(30) . . .
21.7(25) . . .
30.6(29) . . .
30.5(29) . . .
26.4(28) . . .
31.4(30) . . .
33.6(31) . . .
34.2(31) . . .
28.4(30) . . .
25.9(29) . . .
27.4(28) . . .
23.5(25) . . .
28.3(28) . . .
30.1(28) . . .
29.5(29) . . .
32.9(30) . . .
28.1(28) . . .
26.6(27) . . .
22.0(25) . . .
25.8(27) . . .
28.4(28) . . .
35.2(31) . . .
31.4(30) . . .
29.5(30) . . .
31.4(33) . . .
25.9(28) . . .
32.6(30) . . .
36.5(32) . . .
23.8(27) . . .
27.7(30) . . .
27.5(27) . . .
19.8(23) . . .
32.2(32) . . .
31.4(32) . . .
30.3(30) . . .
29.0(29) . . .
28.1(28) . . .
25.2(28) . . .
22.8(25) . . .
28.0(27) . . .
32.0(31) . . .
32.9(29) . . .
25.8(27) . . .
27.6(28) . . .
27.6(27) . . .
28.0(28) . . .
24.7(27) . . .
28.1(28) . . .
27.5(30) . . .
22.8(27) . . .
17.0(23) . . .
26.0(27) . . .
28.1(30) . . .
23.3(26) . . .
26.8(27) . . .
34.3(31) . . .
33.8(30) . . .
25.7(28) . . .
29.1(31) . . .
25.5(26) . . .
33.4(30) . . .
30.5(29) . . .
30.1(31) . . .
21.9(28) . . .
21.4(25) . . .
29.8(29) . . .
38.6(32) . . .
28.4(28) . . .
29.9(30) . . .
24.8(27) . . .
25.8(26) . . .
31.5(29) . . .
30.6(28) . . .
28.2(29) . . .
24.7(27) . . .
30.5(28) . . .
28.7(29) . . .
28.4(29) . . .
24.9(28) . . .
33.7(32) . . .
26.0(27) . . .
29.3(29) . . .
29.0(29) . . .
36.2(33) . . .
32.6(31) . . .
24.6(26) . . .
21.1(24) . . .
32.3(32) . . .
28.2(30) . . .
41(4) . . .
28.5(29) . . .
27.6(29) . . .
30.1(30) . . .
30.5(29) . . .
30.7(28) . . .
28.5(28) . . .
25.5(29) . . .
33.9(32) . . .
31.0(31) . . .
20.4(24) . . .
31.8(29) . . .
31.6(30) . . .
22.8(26) . . .
29.1(30) . . .
22.0(24) . . .
29.3(28) . . .
35.0(34) . . .
40(4) . . .
34.6(30) . . .
28.8(28) . . .
26.0(27) . . .
32.7(30) . . .
25.6(30) . . .
26.0(27) . . .
28.1(28) . . .
32.7(30) . . .
25.8(29) . . .
29.8(31) . . .
27.0(27) . . .
25.5(26) . . .
27.0(27) . . .
31.5(31) . . .
24.0(25) . . .
35.1(31) . . .
26.2(27) . . .
34.8(31) . . .
32.5(30) . . .
28.6(28) . . .
29.8(29) . . .
31.2(30) . . .
29.6(29) . . .
33.4(31) . . .
34.8(32) . . .
36.5(33) . . .
25.8(27) . . .
30.0(29) . . .
37.0(34) . . .
31.5(29) . . .
31.9(31) . . .
33.9(30) . . .
29.3(30) . . .
25.2(26) . . .
29.1(28) . . .
25.8(26) . . .
37.0(32) . . .
29.7(29) . . .
23.6(25) . . .
33.0(32) . . .
25.6(28) . . .
27.8(28) . . .
18.3(23) . . .
26.5(31) . . .
33.3(32) . . .
28.4(27) . . .
31.7(30) . . .
37.2(34) . . .
29.3(30) . . .
21.3(24) . . .
34.7(32) . . .
24.1(26) . . .
29.5(32) . . .
30.0(31) . . .
30.4(31) . . .
32.5(30) . . .
21.7(24) . . .
31.6(32) . . .
35.7(33) . . .
32.3(30) . . .
28.6(28) . . .
29.5(28) . . .
26.0(28) . . .
25.9(26) . . .
28.6(28) . . .
21.8(25) . . .
29.0(28) . . .
32.2(30) . . .
27.4(29) . . .
29.2(31) . . .
23.5(26) . . .
34.6(32) . . .
33.9(31) . . .
25.0(25) . . .
30.7(30) . . .
23.6(25) . . .
29.8(28) . . .
31.7(31) . . .
42(4) . . .
30.4(28) . . .
25.0(26) . . .
33.3(35) . . .
30.2(31) . . .
28.3(28) . . .
27.7(27) . . .
28.1(28) . . .
26.2(28) . . .
26.9(29) . . .
30.4(31) . . .
29.9(29) . . .
28.4(28) . . .
30.0(29) . . .
29.0(30) . . .
32.7(31) . . .
26.0(29) . . .
26.7(27) . . .
30.8(30) . . .
28.5(28) . . .
30.1(30) . . .
25.9(27) . . .
30.4(29) . . .
27.4(28) . . .
24.7(27) . . .
31.7(33) . . .
27.9(27) . . .
24.3(26) . . .
35.6(35) . . .
29.2(33) . . .
27.4(28) . . .
27.9(28) . . .
22.3(24) . . .
29.3(30) . . .
33.5(32) . . .
27.7(27) . . .
28.0(28) . . .
31.0(29) . . .
29.1(31) . . .
23.5(27) . . .
34.5(34) . . .
30.5(29) . . .
34.0(30) . . .
22.0(24) . . .
36.1(34) . . .
30.1(29) . . .
30.6(29) . . .
28.2(27) . . .
28.8(29) . . .
38.8(34) . . .
36.6(31) . . .
29.3(29) . . .
25.8(28) . . .
33.2(31) . . .
31.1(31) . . .
37.7(33) . . .
26.2(27) . . .
28.3(29) . . .
26.9(28) . . .
27.3(28) . . .
27.6(28) . . .
35.0(31) . . .
29.8(29) . . .
27.0(27) . . .
30.7(29) . . .
35.6(33) . . .
33.9(30) . . .
27.2(27) . . .
29.0(28) . . .
32.2(31) . . .
31.9(29) . . .
29.9(29) . . .
26.6(27) . . .
31.3(32) . . .
32.8(33) . . .
37.0(31) . . .
33.7(30) . . .
34.2(32) . . .
29.0(29) . . .
34.5(31) . . .
30.6(29) . . .
33.1(29) . . .
29.9(29) . . .
33.5(32) . . .
26.9(28) . . .
26.4(26) . . .
32.0(29) . . .
25.2(27) . . .
28.8(30) . . .
32.2(31) . . .
32.7(30) . . .
23.6(25) . . .
27.0(28) . . .
24.6(26) . . .
20.1(23) . . .
25.2(26) . . .
28.1(28) . . .
39.2(34) . . .
31.6(30) . . .
29.9(29) . . .
19.9(23) . . .
33.5(31) . . .
23.4(25) . . .
26.6(29) . . .
27.0(28) . . .
29.0(28) . . .
29.2(29) . . .
25.5(26) . . .
29.8(30) . . .
27.8(27) . . .
30.0(29) . . .
32.1(31) . . .
45(4) . . .
25.2(27) . . .
27.2(28) . . .
30.9(29) . . .
25.7(27) . . .
35.3(34) . . .
26.4(28) . . .
22.5(25) . . .
29.2(29) . . .
27.1(29) . . .
26.4(27) . . .
38(4) . . .
31.2(29) . . .
26.7(27) . . .
27.6(29) . . .
26.7(28) . . .
27.7(27) . . .
33.1(30) . . .
26.5(27) . . .
24.2(26) . . .
23.9(26) . . .
29.2(30) . . .
27.7(27) . . .
29.0(28) . . .
26.6(29) . . .
27.2(30) . . .
24.2(26) . . .
22.6(25) . . .
19.9(23) . . .
31.5(31) . . .
29.0(30) . . .
31.5(30) . . .
29.7(29) . . .
26.3(28) . . .
25.0(26) . . .
25.0(26) . . .
27.7(27) . . .
33.0(30) . . .
31.7(30) . . .
23.6(25) . . .
24.0(26) . . .
29.5(28) . . .
34.6(30) . . .
27.6(30) . . .
26.3(29) . . .
31.6(33) . . .
21.5(24) . . .
23.1(25) . . .
28.9(29) . . .
25.4(27) . . .
35.5(32) . . .
31.1(30) . . .
34.0(31) . . .
30.6(29) . . .
26.7(28) . . .
23.6(26) . . .
25.6(26) . . .
24.8(26) . . .
31.2(30) . . .
28.0(32) . . .
22.5(25) . . .
29.7(29) . . .
37.3(32) . . .
28.0(28) . . .
33.5(33) . . .
29.2(29) . . .
31.8(29) . . .
29.8(29) . . .
29.9(28) . . .
25.0(26) . . .
16.5(21) . . .
30.0(29) . . .
25.0(26) . . .
28.7(30) . . .
25.8(29) . . .
27.4(27) . . .
32.0(29) . . .
30.5(29) . . .
29.5(29) . . .
31.5(31) . . .
26.8(28) . . .
25.2(26) . . .
26.9(28) . . .
31.0(31) . . .
25.8(28) . . .
26.2(27) . . .
21.7(25) . . .
33.0(30) . . .
21.8(27) . . .
31.6(32) . . .
31.2(29) . . .
26.5(27) . . .
26.0(27) . . .
27.7(29) . . .
31.4(31) . . .
35.9(34) . . .
33.3(30) . . .
26.4(28) . . .
25.4(27) . . .
27.0(27) . . .
25.9(27) . . .
31.3(29) . . .
28.2(29) . . .
22.9(26) . . .
30.4(32) . . .
29.6(29) . . .
34.1(30) . . .
24.8(26) . . .
21.3(25) . . .
28.2(29) . . .
34.5(31) . . .
26.4(27) . . .
28.0(31) . . .
29.1(30) . . .
29.5(29) . . .
27.2(28) . . .
26.3(27) . . .
24.8(27) . . .
29.2(30) . . .
30.9(29) . . .
28.1(28) . . .
28.2(28) . . .
28.4(28) . . .
21.4(25) . . .
27.9(28) . . .
36.9(32) . . .
23.7(25) . . .
30.1(30) . . .
28.0(30) . . .
24.1(26) . . .
27.3(27) . . .
28.0(28) . . .
30.6(28) . . .
26.2(28) . . .
34.2(31) . . .
27.9(28) . . .
28.1(30) . . .
30.7(30) . . .
30.9(29) . . .
35.0(31) . . .
23.0(25) . . .
26.7(27) . . .
23.3(27) . . .
33.2(34) . . .
24.9(26) . . .
33.4(30) . . .
31.7(30) . . .
29.1(28) . . .
27.2(27) . . .
28.4(31) . . .
31.0(29) . . .
28.0(29) . . .
28.1(32) . . .
29.7(32) . . .
23.8(25) . . .
24.1(26) . . .
34.3(31) . . .
29.3(29) . . .
33.4(31) . . .
23.5(25) . . .
25.8(27) . . .
29.5(29) . . .
28.0(31) . . .
21.1(24) . . .
28.4(28) . . .
27.6(28) . . .
29.1(29) . . .
27.7(29) . . .
26.3(27) . . .
27.4(28) . . .
25.5(27) . . .
22.6(25) . . .
33.8(34) . . .
31.1(29) . . .
26.8(27) . . .
30.8(31) . . .
30.1(33) . . .
22.1(27) . . .
21.7(26) . . .
37.3(32) . . .
34.3(31) . . .
25.8(27) . . .
35.4(33) . . .
34.6(32) . . .
31.4(30) . . .
31.3(29) . . .
36.7(32) . . .
33.6(33) . . .
30.0(28) . . .
28.4(28) . . .
29.4(29) . . .
23.8(26) . . .
28.0(28) . . .
28.4(29) . . .
28.0(28) . . .
28.6(28) . . .
29.5(31) . . .
21.3(26) . . .
18.9(23) . . .
22.8(25) . . .
25.0(27) . . .
33.2(32) . . .
29.6(28) . . .
27.5(27) . . .
30.9(29) . . .
30.8(30) . . .
27.1(29) . . .
32.7(31) . . .
21.4(24) . . .
22.5(24) . . .
30.8(30) . . .
29.5(30) . . .
28.7(30) . . .
21.5(25) . . .
27.4(28) . . .
34.7(32) . . .
26.9(28) . . .
27.5(28) . . .
24.1(25) . . .
30.9(30) . . .
27.7(28) . . .
31.5(30) . . .
36.5(34) . . .
24.1(25) . . .
26.9(27) . . .
32.8(29) . . .
26.9(28) . . .
23.5(26) . . .
22.9(25) . . .
29.6(29) . . .
29.3(30) . . .
33.6(34) . . .
23.6(26) . . .
34.9(30) . . .
37.6(32) . . .
32.8(31) . . .
27.1(29) . . .
23.4(27) . . .
29.5(28) . . .
25.3(27) . . .
21.9(25) . . .
23.4(27) . . .
21.4(25) . . .
22.4(25) . . .
24.5(26) . . .
28.1(30) . . .
26.5(29) . . .
28.6(28) . . .
32.0(29) . . .
28.9(28) . . .
34.9(35) . . .
23.2(27) . . .
23.8(26) . . .
22.2(24) . . .
34.9(33) . . .
29.0(31) . . .
29.5(30) . . .
24.7(26) . . .
25.9(27) . . .
28.0(28) . . .
22.6(25) . . .
24.8(26) . . .
36.0(32) . . .
34.9(30) . . .
32.2(30) . . .
32.0(33) . . .
21.3(24) . . .
30.8(29) . . .
27.6(27) . . .
26.8(28) . . .
26.9(30) . . .
26.6(27) . . .
24.7(26) . . .
26.5(27) . . .
22.4(25) . . .
28.8(29) . . .
32.6(31) . . .
27.0(27) . . .
21.9(24) . . .
28.9(30) . . .
22.2(27) . . .
29.7(32) . . .
30.8(30) . . .
33.6(31) . . .
23.1(27) . . .
31.3(31) . . .
33.0(30) . . .
34.3(30) . . .
34.8(31) . . .
31.2(32) . . .
29.0(30) . . .
27.1(27) . . .
20.7(24) . . .
27.8(29) . . .
24.7(27) . . .
18.0(23) . . .
28.2(28) . . .
24.2(27) . . .
38.7(34) . . .
32.8(31) . . .
34.4(34) . . .
29.0(29) . . .
22.2(26) . . .
24.8(29) . . .
25.8(28) . . .
26.9(29) . . .
23.7(25) . . .
34.7(31) . . .
35.3(32) . . .
30.5(30) . . .
25.3(27) . . .
23.1(25) . . .
29.5(29) . . .
24.2(26) . . .
23.9(27) . . .
29.7(30) . . .
29.5(28) . . .
25.3(28) . . .
24.7(26) . . .
27.4(28) . . .
28.6(29) . . .
29.8(28) . . .
33.0(30) . . .
28.6(28) . . .
29.5(29) . . .
28.1(28) . . .
26.3(27) . . .
23.8(25) . . .
34.6(33) . . .
34.9(32) . . .
36(4) . . .
24.4(25) . . .
26.3(28) . . .
26.0(27) . . .
30.8(31) . . .
28.5(29) . . .
26.5(27) . . .
31.6(30) . . .
33.7(31) . . .
24.1(25) . . .
24.5(27) . . .
18.6(23) . . .
20.8(24) . . .
34.3(31) . . .
35.7(32) . . .
24.5(27) . . .
21.3(25) . . .
31.9(30) . . .
27.9(29) . . .
30.2(32) . . .
32.0(31) . . .
26.8(27) . . .
35.5(32) . . .
27.5(29) . . .
29.6(29) . . .
26.5(27) . . .
28.9(27) . . .
26.5(28) . . .
30.1(32) . . .
39(4) . . .
27.2(27) . . .
33.6(30) . . .
26.3(27) . . .
28.8(30) . . .
22.5(25) . . .
27.7(28) . . .
33.6(30) . . .
27.9(27) . . .
27.2(29) . . .
21.4(24) . . .
28.0(28) . . .
25.2(26) . . .
32.1(31) . . .
35.5(34) . . .
28.1(29) . . .
30.2(29) . . .
25.8(27) . . .
20.1(23) . . .
20.2(25) . . .
23.5(26) . . .
25.1(26) . . .
31.0(29) . . .
23.5(25) . . .
29.8(30) . . .
27.7(29) . . .
28.8(28) . . .
23.3(27) . . .
26.9(27) . . .
41.3(35) . . .
30.8(29) . . .
31.6(29) . . .
25.6(26) . . .
24.6(26) . . .
26.2(26) . . .
32.5(30) . . .
31.8(29) . . .
22.9(25) . . .
27.9(29) . . .
29.7(29) . . .
26.0(26) . . .
27.6(28) . . .
34.2(32) . . .
30.2(31) . . .
27.0(28) . . .
33.5(31) . . .
29.5(28) . . .
31.2(30) . . .
26.9(31) . . .
25.0(26) . . .
25.3(26) . . .
30.0(29) . . .
33.7(31) . . .
32.8(31) . . .
28.8(28) . . .
26.6(26) . . .
28.4(27) . . .
30.8(32) . . .
23.4(28) . . .
35.2(35) . . .
27.6(28) . . .
26.1(27) . . .
32.6(33) . . .
31.0(31) . . .
30.9(29) . . .
28.0(28) . . .
26.6(27) . . .
27.6(27) . . .
28.5(30) . . .
28.1(30) . . .
30.7(29) . . .
29.0(28) . . .
32.0(32) . . .
31.8(33) . . .
20.1(23) . . .
31.1(30) . . .
26.2(27) . . .
24.7(26) . . .
28.8(30) . . .
20.4(23) . . .
29.1(29) . . .
27.1(27) . . .
27.0(28) . . .
27.6(29) . . .
24.3(26) . . .
25.2(26) . . .
24.5(27) . . .
31.4(33) . . .
24.2(27) . . .
27.0(28) . . .
26.2(27) . . .
32.1(31) . . .
33.4(35) . . .
27.4(29) . . .
28.6(29) . . .
24.4(25) . . .
28.1(29) . . .
27.9(29) . . .
27.8(30) . . .
32.3(30) . . .
29.0(28) . . .
24.9(26) . . .
33.5(32) . . .
28.4(28) . . .
28.8(28) . . .
28.3(28) . . .
24.7(27) . . .
23.8(27) . . .
27.0(29) . . .
24.3(25) . . .
29.5(29) . . .
33.1(29) . . .
27.9(28) . . .
23.8(26) . . .
28.0(28) . . .
33.9(30) . . .
37.4(34) . . .
29.4(32) . . .
19.5(25) . . .
26.5(27) . . .
27.5(29) . . .
37.7(33) . . .
28.1(28) . . .
28.7(30) . . .
28.4(28) . . .
37.6(32) . . .
28.7(28) . . .
30.9(29) . . .
26.4(28) . . .
24.5(26) . . .
21.6(24) . . .
28.8(30) . . .
21.0(25) . . .
26.1(29) . . .
23.0(26) . . .
32.1(31) . . .
28.3(28) . . .
31.8(30) . . .
31.3(32) . . .
22.1(24) . . .
30.2(29) . . .
29.2(30) . . .
28.7(29) . . .
33.1(31) . . .
35.0(31) . . .
28.4(28) . . .
27.0(32) . . .
27.3(29) . . .
33.7(32) . . .
28.7(28) . . .
37.7(32) . . .
36.9(34) . . .
29.6(29) . . .
30.9(29) . . .
28.1(28) . . .
28.5(28) . . .
29.7(30) . . .
32.2(31) . . .
26.1(27) . . .
31.5(31) . . .
19.9(24) . . .
24.0(26) . . .
27.3(28) . . .
26.5(28) . . .
30.5(29) . . .
26.6(28) . . .
30.0(32) . . .
26.0(27) . . .
25.6(26) . . .
30.9(30) . . .
30.9(32) . . .
29.6(30) . . .
25.1(26) . . .
36.1(32) . . .
28.0(29) . . .
27.9(28) . . .
32.3(30) . . .
24.5(26) . . .
24.9(26) . . .
28.0(29) . . .
24.8(27) . . .
25.4(26) . . .
30.0(29) . . .
27.7(27) . . .
29.5(29) . . .
22.7(25) . . .
26.6(29) . . .
22.1(25) . . .
31.9(30) . . .
28.6(28) . . .
35.0(32) . . .
39.0(33) . . .
32.5(30) . . .
27.0(27) . . .
30.9(31) . . .
32.7(32) . . .
29.7(30) . . .
29.3(28) . . .
19.3(23) . . .
31.8(31) . . .
36.5(32) . . .
31.0(29) . . .
20.9(24) . . .
33.7(30) . . .
33.1(31) . . .
31.2(32) . . .
36.9(34) . . .
33.6(31) . . .
27.3(28) . . .
29.6(30) . . .
25.6(27) . . .
27.6(27) . . .
37.4(32) . . .
27.3(29) . . .
31.9(32) . . .
26.1(26) . . .
32.5(31) . . .
27.8(28) . . .
27.1(27) . . .
25.0(28) . . .
21.9(24) . . .
26.2(27) . . .
32.3(30) . . .
23.9(27) . . .
21.7(27) . . .
29.8(31) . . .
28.6(30) . . .
20.8(24) . . .
18.1(22) . . .
32.8(31) . . .
30.3(30) . . .
33.0(33) . . .
33.2(30) . . .
23.2(25) . . .
25.6(29) . . .
18.0(23) . . .
26.8(28) . . .
26.7(27) . . .
19.7(25) . . .
21.0(26) . . .
27.8(29) . . .
35.9(32) . . .
36.0(31) . . .
31.5(30) . . .
31.1(31) . . .
29.7(29) . . .
31.2(30) . . .
23.3(25) . . .
28.8(29) . . .
30.3(29) . . .
34.1(31) . . .
25.6(27) . . .
17.9(22) . . .
34.3(33) . . .
34.5(35) . . .
23.1(25) . . .
26.9(27) . . .
31.4(29) . . .
31.9(30) . . .
30.4(30) . . .
28.9(30) . . .
24.4(26) . . .
24.9(26) . . .
28.8(29) . . .
26.4(28) . . .
26.6(28) . . .
32.5(30) . . .
25.0(26) . . .
30.4(31) . . .
32.1(32) . . .
33.1(35) . . .
36.3(32) . . .
34.2(30) . . .
28.8(28) . . .
25.5(27) . . .
22.0(27) . . .
22.3(25) . . .
34.0(31) . . .
33.3(31) . . .
28.2(29) . . .
34.2(31) . . .
32.2(29) . . .
30.3(29) . . .
33.2(31) . . .
29.3(30) . . .
19.1(23) . . .
23.2(25) . . .
27.2(29) . . .
22.4(24) . . .
31.5(31) . . .
30.8(29) . . .
38.4(32) . . .
31.2(30) . . .
28.4(29) . . .
28.5(29) . . .
26.4(26) . . .
36.1(31) . . .
23.6(26) . . .
25.9(29) . . .
25.3(26) . . .
28.1(28) . . .
25.0(26) . . .
23.7(26) . . .
28.6(28) . . .
30.9(31) . . .
29.0(30) . . .
25.8(27) . . .
34.2(30) . . .
33.0(33) . . .
20.2(25) . . .
21.4(25) . . .
24.7(26) . . .
26.3(27) . . .
32.1(30) . . .
28.8(28) . . .
29.3(29) . . .
32.0(29) . . .
32.8(31) . . .
23.5(24) . . .
33.1(31) . . .
16.9(22) . . .
29.3(28) . . .
30.7(29) . . .
31.1(33) . . .
32.7(30) . . .
25.0(27) . . .
27.6(27) . . .
29.7(31) . . .
31.7(32) . . .
34.3(32) . . .
22.0(25) . . .
24.1(25) . . .
32.4(31) . . .
28.6(30) . . .
26.7(29) . . .
30.5(28) . . .
27.5(28) . . .
28.0(31) . . .
24.8(26) . . .
34.4(31) . . .
28.3(28) . . .
26.7(28) . . .
29.4(30) . . .
33.3(32) . . .
31.3(30) . . .
23.6(26) . . .
27.1(27) . . .
27.4(29) . . .
29.6(30) . . .
27.3(29) . . .
22.1(24) . . .
28.6(29) . . .
28.9(29) . . .
28.0(29) . . .
29.3(28) . . .
30.3(29) . . .
27.3(28) . . .
26.4(30) . . .
27.5(29) . . .
32.7(29) . . .
30.4(29) . . .
20.3(23) . . .
38.1(33) . . .
30.7(29) . . .
21.0(24) . . .
28.1(28) . . .
27.0(27) . . .
28.3(29) . . .
28.6(28) . . .
28.1(28) . . .
32.4(30) . . .
38.3(34) . . .
33.5(32) . . .
33.4(32) . . .
28.9(28) . . .
19.5(23) . . .
23.0(25) . . .
32.1(31) . . .
35.2(34) . . .
32.7(30) . . .
33.0(31) . . .
28.0(29) . . .
28.1(29) . . .
30.4(30) . . .
32.8(30) . . .
25.4(26) . . .
18.6(23) . . .
26.0(28) . . .
17.4(22) . . .
23.0(25) . . .
28.1(29) . . .
28.8(30) . . .
32.8(33) . . .
28.3(28) . . .
30.7(29) . . .
29.2(28) . . .
25.1(27) . . .
30.9(30) . . .
32.8(30) . . .
24.9(26) . . .
24.5(28) . . .
27.9(30) . . .
30.8(30) . . .
36.0(33) . . .
32.9(30) . . .
24.1(25) . . .
25.6(28) . . .
22.3(25) . . .
30.1(29) . . .
31.6(30) . . .
25.0(27) . . .
26.9(30) . . .
27.3(29) . . .
33.1(29) . . .
31.0(30) . . .
28.9(27) . . .
30.4(30) . . .
30.5(30) . . .
29.6(28) . . .
26.0(27) . . .
25.8(26) . . .
33.0(32) . . .
32.7(30) . . .
30.8(29) . . .
27.2(27) . . .
25.4(27) . . .
26.3(29) . . .
25.2(27) . . .
31.0(29) . . .
28.6(29) . . .
25.5(27) . . .
22.0(25) . . .
29.1(29) . . .
29.4(29) . . .
30.9(29) . . .
27.4(29) . . .
27.6(31) . . .
23.3(26) . . .
27.7(27) . . .
26.3(26) . . .
30.8(30) . . .
33.3(32) . . .
25.0(26) . . .
24.0(26) . . .
25.5(28) . . .
25.0(27) . . .
27.2(31) . . .
26.2(28) . . .
34.2(31) . . .
26.8(28) . . .
30.5(29) . . .
31.1(29) . . .
28.1(27) . . .
24.9(27) . . .
30.1(31) . . .
29.0(31) . . .
33.9(33) . . .
32.2(29) . . .
31.8(30) . . .
32.1(31) . . .
31.0(31) . . .
33.2(31) . . .
23.0(25) . . .
26.1(27) . . .
28.1(31) . . .
29.6(31) . . .
27.1(27) . . .
28.9(28) . . .
32.2(31) . . .
36.9(34) . . .
28.2(29) . . .
35.3(35) . . .
39.0(33) . . .
29.9(29) . . .
29.2(31) . . .
25.9(30) . . .
32.5(32) . . .
25.8(26) . . .
30.8(29) . . .
35.4(32) . . .
30.3(31) . . .
31.4(32) . . .
26.9(28) . . .
24.5(27) . . .
24.2(25) . . .
30.6(30) . . .
26.9(28) . . .
24.1(26) . . .
16.8(22) . . .
29.1(29) . . .
37.4(34) . . .
33.6(30) . . .
26.2(27) . . .
26.4(29) . . .
31.3(34) . . .
24.2(26) . . .
24.2(26) . . .
23.0(25) . . .
30.7(32) . . .
31.9(33) . . .
27.5(27) . . .
34.9(30) . . .
30.4(29) . . .
35.3(34) . . .
24.2(27) . . .
29.5(31) . . .
29.7(28) . . .
25.9(27) . . .
27.6(28) . . .
25.3(27) . . .
26.5(27) . . .
28.9(29) . . .
31.2(29) . . .
28.8(31) . . .
20.6(26) . . .
28.7(30) . . .
32.2(29) . . .
30.9(30) . . .
26.5(27) . . .
29.0(30) . . .
30.7(32) . . .
31.5(29) . . .
32.4(31) . . .
29.9(30) . . .
28.9(29) . . .
28.6(29) . . .
25.3(26) . . .
28.4(28) . . .
21.4(24) . . .
24.8(27) . . .
32.3(31) . . .
23.7(26) . . .
24.9(27) . . .
24.0(27) . . .
24.0(26) . . .
25.9(27) . . .
18.1(23) . . .
25.4(26) . . .
26.1(28) . . .
23.3(27) . . .
22.7(25) . . .
30.8(29) . . .
22.8(25) . . .
28.4(28) . . .
35.6(34) . . .
24.6(26) . . .
29.6(29) . . .
34.3(33) . . .
20.1(24) . . .
25.7(29) . . .
30.4(29) . . .
27.5(28) . . .
27.5(29) . . .
30.1(29) . . .
28.9(29) . . .
21.1(23) . . .
26.9(27) . . .
26.9(28) . . .
30.0(31) . . .
34.5(32) . . .
27.1(27) . . .
26.1(27) . . .
35.1(33) . . .
35.7(34) . . .
31.1(30) . . .
30.6(29) . . .
15.9(22) . . .
25.3(29) . . .
20.6(26) . . .
27.4(29) . . .
24.4(25) . . .
35.0(31) . . .
37.8(33) . . .
25.1(26) . . .
24.3(26) . . .
29.3(28) . . .
33.6(30) . . .
24.1(25) . . .
35.8(34) . . .
33.0(32) . . .
26.1(27) . . .
27.4(27) . . .
24.6(27) . . .
27.7(29) . . .
21.4(25) . . .
23.3(25) . . .
29.7(30) . . .
24.4(26) . . .
24.9(28) . . .
26.0(28) . . .
23.5(26) . . .
27.4(28) . . .
24.4(26) . . .
27.5(28) . . .
29.1(28) . . .
32.8(31) . . .
28.1(28) . . .
30.2(31) . . .
29.2(29) . . .
28.7(28) . . .
23.2(26) . . .
30.4(29) . . .
34.2(32) . . .
28.5(29) . . .
29.8(29) . . .
30.9(29) . . .
27.6(28) . . .
34.3(33) . . .
29.9(28) . . .
29.4(28) . . .
31.8(30) . . .
26.3(28) . . .
36(4) . . .
23.9(28) . . .
20.2(23) . . .
31.4(29) . . .
25.7(27) . . .
29.5(30) . . .
29.0(29) . . .
22.5(25) . . .
27.3(27) . . .
32.8(34) . . .
26.8(30) . . .
26.8(28) . . .
21.7(25) . . .
26.4(27) . . .
28.0(27) . . .
32.3(30) . . .
27.5(28) . . .
32.1(30) . . .
23.4(25) . . .
25.7(26) . . .
22.9(25) . . .
26.2(27) . . .
21.5(25) . . .
27.4(28) . . .
30.2(30) . . .
35.4(34) . . .
37.6(33) . . .
24.3(26) . . .
22.9(25) . . .
33.9(33) . . .
28.1(28) . . .
27.1(28) . . .
34.5(31) . . .
28.7(29) . . .
34.3(31) . . .
41.5(35) . . .
34.9(32) . . .
25.3(26) . . .
25.1(26) . . .
27.2(30) . . .
24.9(26) . . .
31.2(30) . . .
27.7(27) . . .
29.1(29) . . .
23.7(26) . . .
28.1(29) . . .
19.9(23) . . .
21.4(24) . . .
29.1(30) . . .
36.5(34) . . .
29.1(27) . . .
29.8(29) . . .
35.9(31) . . .
28.8(30) . . .
22.3(26) . . .
26.9(28) . . .
26.0(27) . . .
23.9(26) . . .
26.2(28) . . .
33.2(32) . . .
26.4(27) . . .
31.9(29) . . .
26.2(26) . . .
23.0(26) . . .
28.8(30) . . .
25.1(27) . . .
30.0(28) . . .
33.9(30) . . .
30.4(30) . . .
26.2(28) . . .
30.8(29) . . .
30.3(29) . . .
24.6(26) . . .
29.5(28) . . .
36.6(34) . . .
31.9(30) . . .
24.1(26) . . .
31.1(30) . . .
32.5(31) . . .
31.9(30) . . .
32.1(30) . . .
25.5(26) . . .
29.6(30) . . .
35.3(34) . . .
27.5(28) . . .
28.8(30) . . .
24.6(27) . . .
32.0(33) . . .
36.4(35) . . .
21.2(25) . . .
25.8(27) . . .
33.6(31) . . .
27.2(27) . . .
38(4) . . .
26.8(27) . . .
39.7(33) . . .
26.0(26) . . .
29.3(29) . . .
34.3(34) . . .
27.7(29) . . .
29.5(29) . . .
27.2(27) . . .
25.7(27) . . .
33.1(33) . . .
27.0(31) . . .
24.6(27) . . .
30.0(29) . . .
30.6(30) . . .
32.9(33) . . .
32.1(31) . . .
34.3(31) . . .
29.0(28) . . .
21.2(23) . . .
26.8(28) . . .
26.2(27) . . .
38.9(32) . . .
29.1(29) . . .
29.9(31) . . .
27.1(30) . . .
32.2(33) . . .
26.3(27) . . .
18.5(23) . . .
35.1(32) . . .
30.1(28) . . .
29.8(29) . . .
29.7(29) . . .
29.0(29) . . .
26.8(28) . . .
28.0(29) . . .
29.2(29) . . .
21.7(24) . . .
25.7(26) . . .
24.1(26) . . .
21.3(25) . . .
27.0(28) . . .
30.5(29) . . .
31.8(30) . . .
32.9(31) . . .
28.4(29) . . .
32.8(31) . . .
29.0(28) . . .
27.1(28) . . .
31.5(32) . . .
21.2(24) . . .
37.6(34) . . .
30.4(29) . . .
25.3(27) . . .
27.6(30) . . .
22.1(25) . . .
30.8(30) . . .
23.9(27) . . .
23.1(26) . . .
28.1(30) . . .
30.7(29) . . .
27.9(27) . . .
24.2(25) . . .
26.9(29) . . .
24.2(28) . . .
27.4(29) . . .
23.7(26) . . .
24.0(26) . . .
21.2(23) . . .
27.1(28) . . .
27.5(28) . . .
35.9(31) . . .
26.4(26) . . .
40(4) . . .
30.5(32) . . .
31.8(31) . . .
31.9(30) . . .
28.9(29) . . .
26.7(28) . . .
30.2(32) . . .
31.5(29) . . .
29.5(28) . . .
27.9(28) . . .
31.4(32) . . .
27.9(28) . . .
24.4(26) . . .
30.5(29) . . .
27.4(29) . . .
29.2(30) . . .
27.7(29) . . .
31.3(31) . . .
29.7(28) . . .
19.3(23) . . .
26.5(28) . . .
29.1(29) . . .
21.1(24) . . .
28.8(27) . . .
24.6(27) . . .
26.5(29) . . .
23.9(26) . . .
31.6(30) . . .
35.2(31) . . .
28.1(29) . . .
25.6(28) . . .
36.8(33) . . .
35.8(31) . . .
27.2(27) . . .
27.6(28) . . .
32.7(32) . . .
34.4(32) . . .
33.0(29) . . .
31.2(29) . . .
28.6(29) . . .
24.9(26) . . .
33.5(31) . . .
25.9(27) . . .
29.5(32) . . .
21.3(24) . . .
22.8(26) . . .
31.7(30) . . .
24.1(26) . . .
32.8(31) . . .
18.2(22) . . .
26.4(28) . . .
32.3(30) . . .
25.7(27) . . .
22.7(25) . . .
29.2(29) . . .
26.6(27) . . .
38.9(33) . . .
29.2(28) . . .
26.0(28) . . .
28.3(31) . . .
31.7(31) . . .
33.8(30) . . .
30.1(29) . . .
19.5(23) . . .
24.3(27) . . .
27.9(30) . . .
28.4(28) . . .
26.7(27) . . .
32.9(30) . . .
28.4(28) . . .
26.4(28) . . .
26.8(28) . . .
31.5(29) . . .
27.6(33) . . .
31.2(32) . . .
28.3(28) . . .
29.5(28) . . .
31.0(29) . . .
30.0(30) . . .
28.2(30) . . .
20.7(23) . . .
32.4(30) . . .
34.2(30) . . .
22.1(26) . . .
31.1(32) . . .
33(4) . . .
27.5(27) . . .
26.0(27) . . .
28.0(29) . . .
29.5(33) . . .
26.1(30) . . .
31.7(29) . . .
29.5(29) . . .
30.1(30) . . .
30.8(31) . . .
29.9(29) . . .
20.7(24) . . .
23.2(27) . . .
30.3(30) . . .
28.8(30) . . .
27.9(29) . . .
26.2(27) . . .
35.9(33) . . .
35.9(32) . . .
34.8(33) . . .
18.8(23) . . .
27.8(28) . . .
31.1(30) . . .
34.7(32) . . .
26.4(26) . . .
30.8(30) . . .
33.4(30) . . .
19.7(26) . . .
26.6(28) . . .
37.3(34) . . .
31.9(29) . . .
30.3(29) . . .
26.4(26) . . .
29.3(30) . . .
28.6(29) . . .
24.7(27) . . .
26.1(27) . . .
20.5(23) . . .
25.5(30) . . .
26.3(27) . . .
27.2(27) . . .
34.0(31) . . .
30.3(30) . . .
22.8(28) . . .
21.5(27) . . .
29.7(29) . . .
28.2(28) . . .
28.4(27) . . .
27.9(28) . . .
29.9(29) . . .
23.8(26) . . .
24.2(26) . . .
25.8(27) . . .
24.5(27) . . .
33.2(30) . . .
35.2(31) . . .
25.1(27) . . .
23.4(25) . . .
25.0(26) . . .
36.7(35) . . .
28.1(28) . . .
30.1(31) . . .
30.9(29) . . .
25.2(27) . . .
29.6(30) . . .
28.4(28) . . .
25.2(26) . . .
29.2(29) . . .
30.5(33) . . .
26.0(28) . . .
24.3(26) . . .
33.3(32) . . .
27.5(29) . . .
24.0(26) . . .
29.8(31) . . .
33.2(31) . . .
38.7(33) . . .
28.3(29) . . .
29.6(31) . . .
25.6(26) . . .
30.2(28) . . .
42(4) . . .
29.5(29) . . .
23.5(25) . . .
31.6(30) . . .
30.6(29) . . .
29.7(30) . . .
27.3(28) . . .
27.5(28) . . .
27.8(28) . . .
26.9(27) . . .
24.5(27) . . .
21.8(24) . . .
22.2(24) . . .
27.0(28) . . .
21.9(25) . . .
28.3(29) . . .
25.9(30) . . .
24.4(27) . . .
35.8(32) . . .
29.9(29) . . .
26.8(27) . . .
28.1(31) . . .
31.2(30) . . .
26.1(28) . . .
27.5(27) . . .
20.2(24) . . .
25.8(29) . . .
27.9(27) . . .
31.1(29) . . .
26.3(27) . . .
27.9(28) . . .
27.5(27) . . .
33.8(34) . . .
28.9(28) . . .
33.5(30) . . .
31.0(31) . . .
27.4(27) . . .
27.8(28) . . .
32.6(30) . . .
34.9(30) . . .
32.3(31) . . .
26.7(28) . . .
33.4(32) . . .
26.7(27) . . .
33.4(32) . . .
26.4(28) . . .
27.5(28) . . .
34.6(31) . . .
29.5(29) . . .
30.3(32) . . .
27.5(29) . . .
22.7(25) . . .
27.0(27) . . .
30.1(29) . . .
29.6(29) . . .
31.5(31) . . .
35.8(33) . . .
29.2(28) . . .
23.0(25) . . .
28.8(28) . . .
24.3(26) . . .
35.7(33) . . .
25.6(27) . . .
26.1(27) . . .
25.1(27) . . .
27.7(30) . . .
26.9(28) . . .
31.5(30) . . .
28.4(29) . . .
25.4(27) . . .
26.0(26) . . .
33.9(31) . . .
29.0(28) . . .
21.4(26) . . .
26.2(29) . . .
31.2(32) . . .
28.8(30) . . .
20.6(24) . . .
19.7(23) . . .
32.8(31) . . .
33.0(33) . . .
27.3(28) . . .
32.6(30) . . .
34.1(31) . . .
27.5(29) . . .
23.1(27) . . .
27.4(29) . . .
23.2(25) . . .
28.7(31) . . .
27.1(31) . . .
23.9(28) . . .
29.3(29) . . .
35.2(31) . . .
29.5(28) . . .
32.5(33) . . .
30.4(31) . . .
31.2(30) . . .
29.5(28) . . .
34.8(32) . . .
26.2(28) . . .
25.2(26) . . .
29.0(28) . . .
28.1(28) . . .
29.7(29) . . .
29.0(30) . . .
30.7(30) . . .
29.3(28) . . .
28.9(29) . . .
25.5(27) . . .
24.2(25) . . .
28.2(27) . . .
25.3(27) . . .
25.6(26) . . .
24.5(25) . . .
27.5(29) . . .
28.9(31) . . .
28.4(28) . . .
37.6(33) . . .
41.7(34) . . .
33.9(32) . . .
31.3(30) . . .
32.3(31) . . .
32.1(29) . . .
30.5(30) . . .
23.9(27) . . .
35.0(35) . . .
30.9(29) . . .
26.6(27) . . .
29.5(28) . . .
26.8(28) . . .
29.9(30) . . .
24.2(26) . . .
19.4(24) . . .
22.8(26) . . .
27.5(28) . . .
26.7(27) . . .
15.4(21) . . .
24.6(26) . . .
27.7(27) . . .
30.4(29) . . .
23.6(26) . . .
26.0(27) . . .
28.1(28) . . .
31.0(30) . . .
26.2(26) . . .
26.2(27) . . .
33.3(30) . . .
25.4(27) . . .
30.9(31) . . .
26.7(28) . . .
23.9(27) . . .
33.4(30) . . .
27.1(28) . . .
28.4(28) . . .
29.2(31) . . .
30.5(29) . . .
29.5(29) . . .
29.9(30) . . .
38(4) . . .
26.9(28) . . .
33.0(31) . . .
28.6(28) . . .
30.7(29) . . .
28.9(29) . . .
32.9(31) . . .
30.0(28) . . .
31.8(30) . . .
31.7(32) . . .
30.1(30) . . .
22.9(24) . . .
27.7(27) . . .
27.1(27) . . .
28.0(28) . . .
34.3(34) . . .
31.0(31) . . .
28.5(28) . . .
34.6(31) . . .
31.0(30) . . .
28.1(30) . . .
26.1(28) . . .
32.4(30) . . .
24.5(26) . . .
24.1(27) . . .
24.9(30) . . .
28.9(32) . . .
29.0(28) . . .
30.3(29) . . .
28.5(30) . . .
21.6(26) . . .
27.8(28) . . .
27.5(27) . . .
34.2(30) . . .
32.1(30) . . .
25.1(27) . . .
21.5(25) . . .
22.6(24) . . .
28.7(29) . . .
24.6(27) . . .
26.8(34) . . .
25.8(28) . . .
26.5(27) . . .
28.6(28) . . .
23.1(26) . . .
28.2(30) . . .
28.2(28) . . .
22.0(24) . . .
25.6(29) . . .
24.5(29) . . .
24.9(28) . . .
25.1(26) . . .
31.0(30) . . .
32.2(30) . . .
28.8(31) . . .
26.2(29) . . .
21.1(24) . . .
30.4(29) . . .
24.3(25) . . .
27.3(28) . . .
24.9(27) . . .
26.3(27) . . .
29.1(29) . . .
28.3(28) . . .
26.2(30) . . .
25.8(27) . . .
31.2(29) . . .
33.6(32) . . .
29.4(29) . . .
27.6(28) . . .
30.8(30) . . .
23.2(25) . . .
30.7(28) . . .
29.7(30) . . .
29.4(30) . . .
27.5(28) . . .
27.7(27) . . .
28.4(29) . . .
31.6(29) . . .
35.3(33) . . .
30.2(30) . . .
21.5(24) . . .
28.4(30) . . .
36.0(34) . . .
30.6(31) . . .
32.3(35) . . .
33.1(30) . . .
28.1(29) . . .
29.5(29) . . .
32.7(32) . . .
28.9(29) . . .
27.6(28) . . .
27.3(27) . . .
29.9(30) . . .
27.4(28) . . .
24.0(26) . . .
25.4(27) . . .
24.3(26) . . .
29.6(31) . . .
29.9(30) . . .
27.9(28) . . .
26.8(27) . . .
22.7(29) . . .
28.0(33) . . .
26.0(28) . . .
31.7(29) . . .
25.6(26) . . .
16.1(22) . . .
30.3(32) . . .
27.6(28) . . .
21.6(25) . . .
24.5(26) . . .
32.0(30) . . .
26.7(29) . . .
29.7(31) . . .
37.2(33) . . .
29.1(28) . . .
26.9(28) . . .
38(4) . . .
27.1(28) . . .
22.6(25) . . .
34.1(31) . . .
26.9(29) . . .
25.3(29) . . .
26.2(29) . . .
22.5(25) . . .
27.4(27) . . .
27.1(27) . . .
26.7(27) . . .
35.0(35) . . .
27.4(27) . . .
24.8(26) . . .
34.0(30) . . .
36.4(31) . . .
29.0(30) . . .
34.2(31) . . .
29.1(28) . . .
32.1(31) . . .
27.9(30) . . .
22.9(25) . . .
25.0(27) . . .
32.8(31) . . .
33.5(33) . . .
32.6(32) . . .
24.4(26) . . .
26.4(27) . . .
20.0(23) . . .
26.3(30) . . .
27.9(28) . . .
25.0(27) . . .
23.7(26) . . .
38(4) . . .
28.6(30) . . .
32.4(31) . . .
29.5(29) . . .
28.4(28) . . .
27.0(28) . . .
28.3(30) . . .
29.0(31) . . .
24.3(26) . . .
32.5(30) . . .
26.9(26) . . .
32.0(32) . . .
27.5(31) . . .
28.1(28) . . .
30.7(29) . . .
24.3(28) . . .
24.3(29) . . .
22.7(26) . . .
25.6(27) . . .
21.8(25) . . .
26.3(28) . . .
32.2(33) . . .
30.5(32) . . .
27.3(28) . . .
32.8(31) . . .
28.7(30) . . .
24.5(29) . . .
23.8(28) . . .
25.3(27) . . .
22.4(24) . . .
34.7(32) . . .
32.3(32) . . .
25.0(27) . . .
27.4(28) . . .
26.9(27) . . .
26.1(26) . . .
30.8(30) . . .
32.3(32) . . .
29.6(29) . . .
38.5(33) . . .
27.1(27) . . .
29.4(30) . . .
26.3(27) . . .
29.9(29) . . .
28.2(28) . . .
27.7(29) . . .
28.5(30) . . .
29.8(30) . . .
30.8(29) . . .
24.6(28) . . .
22.7(29) . . .
26.9(29) . . .
30.0(29) . . .
25.8(26) . . .
30.9(31) . . .
25.3(26) . . .
30.3(30) . . .
27.1(27) . . .
27.4(27) . . .
29.5(29) . . .
27.5(29) . . .
23.2(26) . . .
21.4(24) . . .
26.6(27) . . .
33.3(32) . . .
33.4(34) . . .
29.0(29) . . .
31.6(29) . . .
28.4(27) . . .
31.4(32) . . .
21.5(25) . . .
29.6(32) . . .
31.0(29) . . .
28.6(28) . . .
30.9(30) . . .
25.8(29) . . .
30.6(32) . . .
32.3(30) . . .
23.1(26) . . .
28.9(29) . . .
25.9(28) . . .
23.6(26) . . .
20.5(24) . . .
19.1(23) . . .
25.7(26) . . .
28.7(30) . . .
21.8(25) . . .
28.4(27) . . .
28.0(27) . . .
27.7(29) . . .
26.4(28) . . .
32.2(31) . . .
23.8(25) . . .
24.5(26) . . .
31.5(30) . . .
27.6(27) . . .
24.8(26) . . .
26.6(27) . . .
32.3(31) . . .
29.1(30) . . .
25.8(28) . . .
28.4(29) . . .
32.2(29) . . .
21.5(25) . . .
23.0(25) . . .
29.3(29) . . .
28.5(28) . . .
30.0(29) . . .
38.8(33) . . .
28.6(29) . . .
28.1(30) . . .
29.0(28) . . .
30.1(29) . . .
30.5(31) . . .
26.5(30) . . .
30.6(30) . . .
21.6(24) . . .
27.9(29) . . .
21.1(26) . . .
30.2(31) . . .
31.0(30) . . .
23.8(25) . . .
23.6(26) . . .
24.2(26) . . .
28.8(30) . . .
27.1(30) . . .
22.9(25) . . .
34.1(31) . . .
27.9(29) . . .
28.3(30) . . .
32.3(32) . . .
22.6(25) . . .
23.3(26) . . .
19.1(23) . . .
18.1(22) . . .
26.8(29) . . .
23.1(25) . . .
24.8(28) . . .
25.0(26) . . .
30.2(29) . . .
33.3(30) . . .
33.5(30) . . .
36.0(32) . . .
29.2(32) . . .
23.4(28) . . .
26.0(27) . . .
34.9(32) . . .
28.1(29) . . .
25.6(28) . . .
26.1(28) . . .
30.7(29) . . .
28.1(27) . . .
26.4(26) . . .
33.4(32) . . .
22.8(26) . . .
29.4(29) . . .
27.0(27) . . .
34.2(33) . . .
29.2(30) . . .
36.6(35) . . .
34.3(31) . . .
29.9(29) . . .
25.6(28) . . .
28.0(30) . . .
24.6(27) . . .
30.0(28) . . .
25.6(27) . . .
22.7(24) . . .
30.6(32) . . .
26.9(28) . . .
21.5(25) . . .
25.6(26) . . .
19.4(22) . . .
25.9(28) . . .
26.8(27) . . .
29.8(28) . . .
25.4(28) . . .
31.1(31) . . .
25.5(29) . . .
23.9(27) . . .
31.6(30) . . .
30.0(28) . . .
29.5(29) . . .
31.3(32) . . .
27.7(29) . . .
27.2(28) . . .
27.4(28) . . .
26.5(27) . . .
24.9(27) . . .
30.2(29) . . .
27.3(28) . . .
28.7(28) . . .
22.3(24) . . .
32.8(33) . . .
18.4(23) . . .
26.5(27) . . .
28.6(28) . . .
36(4) . . .
26.5(28) . . .
30.2(29) . . .
29.4(29) . . .
29.1(28) . . .
31.7(30) . . .
34.7(32) . . .
27.9(28) . . .
33.0(30) . . .
26.8(28) . . .
26.6(28) . . .
28.4(28) . . .
36.0(32) . . .
35.0(31) . . .
24.2(27) . . .
23.4(28) . . .
31.0(30) . . .
30.1(28) . . .
30.3(30) . . .
23.7(27) . . .
25.8(29) . . .
27.4(30) . . .
29.0(29) . . .
24.0(26) . . .
23.4(27) . . .
32.3(32) . . .
32.6(30) . . .
29.0(29) . . .
35.5(31) . . .
35.5(32) . . .
30.4(30) . . .
28.5(29) . . .
29.7(28) . . .
26.6(27) . . .
28.1(31) . . .
32.9(33) . . .
31.1(30) . . .
27.1(27) . . .
25.3(28) . . .
23.4(26) . . .
31.3(31) . . .
24.5(26) . . .
26.6(28) . . .
28.2(29) . . .
25.3(27) . . .
28.8(28) . . .
26.3(27) . . .
25.9(26) . . .
26.0(28) . . .
30.9(30) . . .
36.5(32) . . .
33.5(31) . . .
30.3(28) . . .
24.0(27) . . .
29.2(33) . . .
30.8(30) . . .
24.8(26) . . .
21.1(24) . . .
24.5(28) . . .
28.1(29) . . .
28.2(28) . . .
26.5(27) . . .
30.8(28) . . .
25.4(27) . . .
29.1(30) . . .
28.6(28) . . .
35.7(33) . . .
29.1(28) . . .
25.4(27) . . .
25.7(28) . . .
24.7(27) . . .
31.0(28) . . .
28.0(29) . . .
27.4(28) . . .
28.4(29) . . .
30.9(30) . . .
27.1(27) . . .
29.9(29) . . .
27.5(28) . . .
26.5(29) . . .
24.7(26) . . .
26.8(27) . . .
29.6(30) . . .
28.4(27) . . .
34.0(30) . . .
25.4(27) . . .
26.3(27) . . .
30.9(29) . . .
31.7(31) . . .
31.0(31) . . .
37.0(32) . . .
27.5(28) . . .
24.2(27) . . .
25.5(26) . . .
27.7(28) . . .
28.4(29) . . .
24.7(26) . . .
24.4(29) . . .
27.4(29) . . .
31.2(31) . . .
27.5(27) . . .
33.3(30) . . .
25.9(28) . . .
33.6(31) . . .
42(4) . . .
30.8(28) . . .
23.2(26) . . .
27.1(30) . . .
20.6(27) . . .
21.4(27) . . .
26.1(27) . . .
28.6(28) . . .
27.2(27) . . .
28.2(27) . . .
28.5(28) . . .
21.9(24) . . .
25.5(27) . . .
30.3(30) . . .
28.6(31) . . .
31.4(30) . . .
34.1(31) . . .
24.9(26) . . .
26.2(27) . . .
28.2(29) . . .
25.9(29) . . .
26.8(27) . . .
27.4(27) . . .
32.0(31) . . .
21.9(24) . . .
29.0(28) . . .
32.5(30) . . .
36.3(33) . . .
39.1(34) . . .
33.7(33) . . .
21.1(25) . . .
31.1(29) . . .
31.3(30) . . .
31.9(30) . . .
37.2(33) . . .
32.4(31) . . .
23.3(26) . . .
25.0(28) . . .
28.7(31) . . .
27.3(29) . . .
24.6(27) . . .
25.0(26) . . .
31.6(29) . . .
27.7(27) . . .
35.2(34) . . .
25.1(26) . . .
35.9(31) . . .
34.2(31) . . .
22.7(26) . . .
27.1(27) . . .
30.4(29) . . .
24.1(26) . . .
31.5(31) . . .
26.9(29) . . .
19.2(23) . . .
32.2(30) . . .
33.6(30) . . .
33.4(34) . . .
33.7(33) . . .
27.3(29) . . .
26.4(28) . . .
25.7(26) . . .
27.9(30) . . .
28.8(31) . . .
28.5(28) . . .
26.6(27) . . .
28.1(28) . . .
25.2(26) . . .
40.1(35) . . .
27.4(27) . . .
31.3(30) . . .
28.9(29) . . .
26.4(26) . . .
43(4) . . .
33.2(32) . . .
25.9(27) . . .
20.9(25) . . .
27.6(29) . . .
30.0(31) . . .
32.0(31) . . .
39.9(33) . . .
27.3(27) . . .
25.0(26) . . .
30.4(32) . . .
24.1(26) . . .
27.3(28) . . .
30.6(29) . . .
28.9(29) . . .
34.8(33) . . .
35.7(32) . . .
27.8(28) . . .
24.1(26) . . .
24.2(27) . . .
23.6(27) . . .
25.8(27) . . .
28.6(28) . . .
34.7(32) . . .
34.7(34) . . .
26.7(29) . . .
26.9(27) . . .
27.5(27) . . .
32.2(30) . . .
29.7(29) . . .
29.7(29) . . .
32.8(30) . . .
36.3(32) . . .
28.7(27) . . .
22.3(24) . . .
30.1(30) . . .
38.4(33) . . .
27.7(27) . . .
26.5(26) . . .
32.1(31) . . .
23.9(26) . . .
26.8(29) . . .
30.1(30) . . .
25.9(27) . . .
25.6(27) . . .
27.0(29) . . .
22.8(25) . . .
27.1(27) . . .
28.6(28) . . .
31.0(30) . . .
27.4(28) . . .
23.5(25) . . .
32.8(31) . . .
25.2(26) . . .
29.6(31) . . .
26.9(28) . . .
31.1(29) . . .
22.2(24) . . .
26.9(28) . . .
22.1(25) . . .
32.0(32) . . .
40.3(33) . . .
28.3(27) . . .
24.4(27) . . .
30.9(32) . . .
26.9(28) . . .
26.1(26) . . .
26.4(27) . . .
30.6(31) . . .
24.7(26) . . .
20.4(24) . . .
30.7(29) . . .
27.9(27) . . .
24.0(26) . . .
24.2(30) . . .
26.5(27) . . .
28.7(28) . . .
26.6(28) . . .
34.5(33) . . .
24.9(26) . . .
29.7(29) . . .
29.7(29) . . .
33.2(32) . . .
31.5(31) . . .
31.3(30) . . .
26.4(27) . . .
36.5(32) . . .
24.1(27) . . .
26.1(28) . . .
32.2(29) . . .
32.6(30) . . .
20.4(24) . . .
28.8(28) . . .
37.8(35) . . .
33.1(30) . . .
24.5(26) . . .
31.3(29) . . .
29.7(29) . . .
31.9(33) . . .
27.5(30) . . .
20.2(24) . . .
24.0(27) . . .
34.8(30) . . .
36.5(34) . . .
27.9(28) . . .
31.4(29) . . .
35.3(34) . . .
28.2(30) . . .
30.5(31) . . .
29.3(29) . . .
28.7(28) . . .
29.5(29) . . .
24.4(27) . . .
29.8(31) . . .
32.7(31) . . .
25.2(27) . . .
23.8(27) . . .
29.6(31) . . .
25.4(28) . . .
29.8(30) . . .
26.7(27) . . .
30.5(30) . . .
28.0(29) . . .
30.5(29) . . .
30.2(29) . . .
24.5(27) . . .
22.3(25) . . .
26.5(29) . . .
23.2(26) . . .
28.9(28) . . .
25.2(28) . . .
29.6(29) . . .
30.6(32) . . .
18.7(23) . . .
27.4(28) . . .
30.8(30) . . .
34.5(32) . . .
26.7(28) . . .
28.9(30) . . .
28.5(28) . . .
23.8(25) . . .
28.1(28) . . .
27.4(28) . . .
26.9(27) . . .
18.9(23) . . .
27.7(28) . . .
22.6(26) . . .
22.4(28) . . .
24.8(26) . . .
23.7(26) . . .
29.7(29) . . .
26.9(27) . . .
30.1(29) . . .
26.9(27) . . .
27.5(28) . . .
38.3(32) . . .
31.0(30) . . .
31.6(32) . . .
23.8(27) . . .
25.2(26) . . .
28.7(28) . . .
30.8(29) . . .
29.0(28) . . .
25.8(27) . . .
30.3(30) . . .
32.2(31) . . .
33.5(32) . . .
28.0(31) . . .
33.9(31) . . .
31.8(30) . . .
24.3(26) . . .
17.8(22) . . .
21.3(25) . . .
27.0(27) . . .
30.7(30) . . .
31.8(30) . . .
31.0(31) . . .
25.1(28) . . .
25.2(27) . . .
31.3(29) . . .
22.0(25) . . .
29.5(32) . . .
22.1(25) . . .
24.4(26) . . .
26.5(26) . . .
30.3(29) . . .
27.6(28) . . .
29.2(28) . . .
39.3(32) . . .
31.6(32) . . .
25.6(28) . . .
25.2(28) . . .
28.1(30) . . .
25.3(26) . . .
27.1(27) . . .
29.6(30) . . .
24.6(27) . . .
31.4(32) . . .
31.2(29) . . .
27.2(27) . . .
27.2(27) . . .
31.7(31) . . .
31.9(32) . . .
32.2(30) . . .
23.0(25) . . .
28.5(30) . . .
27.8(30) . . .
18.1(23) . . .
21.5(24) . . .
24.8(28) . . .
24.4(26) . . .
35.2(33) . . .
33.8(31) . . .
22.7(26) . . .
22.8(25) . . .
32.9(31) . . .
32.8(33) . . .
19.9(25) . . .
25.0(26) . . .
27.9(28) . . .
27.7(29) . . .
31.0(32) . . .
26.9(28) . . .
24.1(26) . . .
24.0(26) . . .
29.2(29) . . .
22.9(25) . . .
27.4(27) . . .
26.9(27) . . .
31.5(29) . . .
28.2(29) . . .
26.8(28) . . .
29.3(30) . . .
30.1(29) . . .
25.7(27) . . .
28.6(31) . . .
26.2(28) . . .
24.7(26) . . .
28.3(29) . . .
30.2(31) . . .
35.1(32) . . .
30.3(30) . . .
30.0(28) . . .
19.4(23) . . .
27.1(28) . . .
24.8(27) . . .
21.8(26) . . .
28.7(28) . . .
35.1(31) . . .
31.5(31) . . .
24.5(28) . . .
28.4(29) . . .
23.9(25) . . .
24.1(25) . . .
31.5(32) . . .
29.2(27) . . .
29.9(29) . . .
39.6(33) . . .
26.4(27) . . .
20.2(24) . . .
27.6(30) . . .
25.4(26) . . .
29.0(28) . . .
23.2(26) . . .
20.6(25) . . .
25.4(28) . . .
30.0(31) . . .
31.6(29) . . .
28.5(28) . . .
32.7(33) . . .
25.7(29) . . .
26.7(28) . . .
24.1(26) . . .
24.8(28) . . .
21.3(27) . . .
28.0(29) . . .
35.2(32) . . .
21.9(25) . . .
17.9(23) . . .
29.2(29) . . .
26.1(27) . . .
33.3(29) . . .
28.6(29) . . .
31.5(32) . . .
29.4(33) . . .
17.4(22) . . .
31.4(30) . . .
24.7(26) . . .
28.3(27) . . .
29.5(28) . . .
28.3(29) . . .
36.9(32) . . .
20.3(24) . . .
28.5(29) . . .
26.5(29) . . .
25.3(29) . . .
23.2(25) . . .
23.0(25) . . .
30.5(29) . . .
23.4(25) . . .
32.5(31) . . .
29.6(29) . . .
24.0(27) . . .
21.9(26) . . .
25.6(30) . . .
25.8(28) . . .
27.5(27) . . .
25.9(28) . . .
23.3(27) . . .
26.5(29) . . .
28.6(29) . . .
24.7(26) . . .
22.9(25) . . .
22.8(24) . . .
28.7(28) . . .
36.2(31) . . .
32.6(30) . . .
32.3(30) . . .
26.3(27) . . .
28.3(29) . . .
29.7(29) . . .
26.5(27) . . .
28.5(30) . . .
29.8(31) . . .
31.4(31) . . .
36.6(31) . . .
42.8(35) . . .
24.3(26) . . .
27.8(28) . . .
28.9(28) . . .
30.8(29) . . .
27.7(27) . . .
26.0(29) . . .
14.8(20) . . .
19.8(25) . . .
30.0(29) . . .
20.5(23) . . .
26.4(28) . . .
27.5(30) . . .
30.0(29) . . .
32.0(29) . . .
34.9(31) . . .
28.6(28) . . .
30.7(33) . . .
30.1(30) . . .
26.7(28) . . .
25.7(27) . . .
26.0(26) . . .
26.8(29) . . .
24.6(26) . . .
26.2(26) . . .
28.9(28) . . .
31.8(31) . . .
26.4(29) . . .
25.7(27) . . .
32.0(30) . . .
26.5(27) . . .
36.5(33) . . .
29.1(30) . . .
35.7(33) . . .
24.4(27) . . .
28.4(27) . . .
26.4(27) . . .
28.9(29) . . .
25.1(26) . . .
28.5(28) . . .
26.5(29) . . .
27.7(28) . . .
29.9(31) . . .
29.1(28) . . .
28.6(28) . . .
32.1(31) . . .
37.7(34) . . .
27.7(30) . . .
23.1(26) . . .
29.0(28) . . .
28.2(31) . . .
26.8(28) . . .
30.4(33) . . .
26.6(27) . . .
24.3(27) . . .
30.3(30) . . .
31.2(29) . . .
25.1(26) . . .
24.2(26) . . .
25.8(27) . . .
30.0(29) . . .
33.6(33) . . .
28.1(29) . . .
32.5(31) . . .
26.3(26) . . .
25.7(28) . . .
20.8(25) . . .
23.1(26) . . .
25.4(27) . . .
34.8(31) . . .
37.3(33) . . .
32.5(32) . . .
24.7(27) . . .
30.2(29) . . .
24.0(25) . . .
25.0(26) . . .
24.1(27) . . .
24.7(27) . . .
23.2(26) . . .
29.1(28) . . .
34.6(32) . . .
33.1(33) . . .
34.2(34) . . .
31.4(29) . . .
26.2(27) . . .
33.9(33) . . .
24.0(26) . . .
25.3(27) . . .
25.1(26) . . .
25.9(28) . . .
18.9(22) . . .
30.3(29) . . .
32.5(31) . . .
25.9(27) . . .
26.2(27) . . .
23.2(27) . . .
26.7(30) . . .
22.1(25) . . .
31.1(29) . . .
31.3(32) . . .
29.4(31) . . .
33.0(30) . . .
24.8(26) . . .
29.5(29) . . .
24.7(28) . . .
26.9(29) . . .
26.1(27) . . .
29.7(29) . . .
28.6(28) . . .
30.2(30) . . .
38(4) . . .
27.2(28) . . .
24.1(26) . . .
28.6(28) . . .
30.2(29) . . .
27.5(29) . . .
27.9(29) . . .
31.6(30) . . .
29.1(28) . . .
26.8(28) . . .
27.3(29) . . .
30.8(30) . . .
33.7(30) . . .
26.7(27) . . .
28.4(29) . . .
26.1(28) . . .
28.8(30) . . .
33.4(30) . . .
24.1(27) . . .
25.9(27) . . .
26.6(27) . . .
29.6(30) . . .
39.2(33) . . .
37.6(33) . . .
35.0(32) . . .
27.9(30) . . .
29.9(29) . . .
34.4(31) . . .
24.3(26) . . .
26.9(29) . . .
24.5(26) . . .
21.2(25) . . .
30.4(29) . . .
22.8(25) . . .
26.0(30) . . .
29.7(32) . . .
25.4(27) . . .
30.8(29) . . .
28.7(29) . . .
31.7(33) . . .
28.6(30) . . .
22.5(26) . . .
21.1(25) . . .
18.8(23) . . .
28.2(30) . . .
32.0(30) . . .
27.8(28) . . .
22.3(25) . . .
24.3(27) . . .
22.1(27) . . .
26.0(27) . . .
30.6(29) . . .
27.6(29) . . .
30.2(32) . . .
36.7(34) . . .
33.2(31) . . .
27.4(27) . . .
31.7(29) . . .
29.0(30) . . .
26.4(29) . . .
32.2(30) . . .
26.2(26) . . .
28.2(28) . . .
27.3(28) . . .
26.0(28) . . .
26.1(28) . . .
30.2(29) . . .
25.5(26) . . .
27.2(28) . . .
24.9(28) . . .
19.6(23) . . .
21.4(24) . . .
30.1(30) . . .
24.1(25) . . .
24.2(27) . . .
29.0(30) . . .
26.7(27) . . .
38.2(33) . . .
28.6(28) . . .
28.4(29) . . .
32.5(33) . . .
29.5(28) . . .
25.7(28) . . .
28.7(29) . . .
28.6(30) . . .
25.6(27) . . .
23.8(25) . . .
27.4(29) . . .
27.8(28) . . .
34.6(34) . . .
27.5(30) . . .
33.5(30) . . .
25.8(27) . . .
33.5(32) . . .
28.4(27) . . .
28.8(28) . . .
24.6(26) . . .
26.5(27) . . .
38.4(34) . . .
30.5(29) . . .
28.9(28) . . .
21.1(24) . . .
28.5(28) . . .
25.3(26) . . .
31.4(30) . . .
22.6(25) . . .
25.1(26) . . .
35.3(33) . . .
28.5(28) . . .
25.3(27) . . .
24.8(26) . . .
27.8(27) . . .
24.4(29) . . .
21.5(26) . . .
22.7(27) . . .
30.9(29) . . .
30.2(28) . . .
27.5(28) . . .
29.9(31) . . .
29.1(29) . . .
22.4(24) . . .
24.7(27) . . .
29.0(30) . . .
20.8(23) . . .
22.8(25) . . .
28.9(28) . . .
28.7(28) . . .
27.1(28) . . .
29.2(28) . . .
28.7(28) . . .
24.8(26) . . .
26.2(26) . . .
23.7(26) . . .
24.3(27) . . .
24.4(27) . . .
20.1(23) . . .
27.0(28) . . .
29.4(30) . . .
26.0(26) . . .
25.7(27) . . .
24.5(26) . . .
24.6(27) . . .
26.4(27) . . .
23.3(26) . . .
31.1(30) . . .
25.4(26) . . .
35.1(32) . . .
31.7(33) . . .
30.0(30) . . .
33.8(30) . . .
29.9(28) . . .
25.9(28) . . .
24.7(28) . . .
28.5(30) . . .
27.5(28) . . .
27.8(27) . . .
37.1(33) . . .
30.9(30) . . .
31.9(31) . . .
31.1(29) . . .
30.8(29) . . .
27.5(27) . . .
26.3(29) . . .
22.5(25) . . .
32.9(30) . . .
23.8(25) . . .
25.7(28) . . .
29.6(30) . . .
24.9(26) . . .
28.3(29) . . .
26.3(27) . . .
25.7(27) . . .
31.5(30) . . .
23.3(25) . . .
24.2(26) . . .
24.1(25) . . .
25.4(29) . . .
24.3(28) . . .
26.0(29) . . .
20.1(24) . . .
29.8(29) . . .
34.6(31) . . .
28.0(29) . . .
27.2(28) . . .
27.8(27) . . .
29.4(29) . . .
20.3(24) . . .
29.0(30) . . .
29.8(28) . . .
33.2(30) . . .
31.1(30) . . .
27.9(28) . . .
30.2(30) . . .
31.4(31) . . .
31.0(29) . . .
33.2(31) . . .
23.6(27) . . .
29.6(32) . . .
31.6(32) . . .
23.3(26) . . .
20.1(26) . . .
23.1(26) . . .
29.2(31) . . .
30.1(30) . . .
27.8(28) . . .
31.9(31) . . .
23.9(25) . . .
32.2(31) . . .
37.5(31) . . .
34.4(31) . . .
38.4(33) . . .
26.5(27) . . .
29.5(30) . . .
23.1(25) . . .
26.4(26) . . .
30.9(29) . . .
24.0(27) . . .
23.4(27) . . .
26.3(27) . . .
29.7(28) . . .
27.5(28) . . .
26.2(28) . . .
31.4(30) . . .
27.2(28) . . .
16.1(21) . . .
30.5(31) . . .
24.6(26) . . .
33.9(32) . . .
29.7(29) . . .
25.4(27) . . .
28.7(30) . . .
26.8(28) . . .
28.3(28) . . .
27.7(28) . . .
32.4(29) . . .
36.0(32) . . .
25.3(26) . . .
29.4(28) . . .
26.7(28) . . .
28.4(29) . . .
33.1(31) . . .
31.9(32) . . .
23.4(25) . . .
29.2(29) . . .
23.0(25) . . .
24.3(25) . . .
27.0(26) . . .
26.5(27) . . .
30.5(29) . . .
24.4(26) . . .
27.4(30) . . .
30.3(30) . . .
34.8(31) . . .
35.6(31) . . .
35.1(33) . . .
25.3(28) . . .
22.9(27) . . .
16.9(22) . . .
24.7(26) . . .
28.4(29) . . .
28.7(30) . . .
30.6(30) . . .
29.2(29) . . .
35.4(32) . . .
27.3(27) . . .
29.1(31) . . .
30.6(30) . . .
30.3(28) . . .
18.8(24) . . .
24.2(28) . . .
27.5(28) . . .
29.9(28) . . .
31.9(30) . . .
34.2(30) . . .
35.5(34) . . .
35(4) . . .
18.7(23) . . .
32.5(29) . . .
32.9(30) . . .
30.6(29) . . .
30.4(31) . . .
26.6(28) . . .
30.5(28) . . .
27.1(28) . . .
27.5(29) . . .
29.8(29) . . .
34.2(32) . . .
25.2(26) . . .
27.2(28) . . .
28.7(31) . . .
25.2(28) . . .
31.3(30) . . .
33.1(30) . . .
32.9(31) . . .
29.5(30) . . .
31.3(31) . . .
34.0(31) . . .
25.6(26) . . .
24.7(27) . . .
27.0(30) . . .
25.4(27) . . .
26.5(27) . . .
18.9(24) . . .
24.6(27) . . .
29.0(30) . . .
30.5(30) . . .
29.8(29) . . .
26.1(26) . . .
25.0(26) . . .
25.8(29) . . .
19.3(22) . . .
33.0(31) . . .
35.5(31) . . .
29.8(29) . . .
28.4(30) . . .
22.7(26) . . .
29.9(28) . . .
34.1(31) . . .
30.6(31) . . .
25.0(28) . . .
27.7(28) . . .
26.7(27) . . .
33.4(31) . . .
32.8(32) . . .
34.1(34) . . .
33.8(33) . . .
29.8(29) . . .
30.9(29) . . .
28.9(31) . . .
38.9(35) . . .
26.0(28) . . .
30.4(29) . . .
29.9(28) . . .
23.7(25) . . .
31.6(31) . . .
35.3(33) . . .
25.9(27) . . .
26.7(28) . . .
31.5(33) . . .
25.8(27) . . .
33.6(32) . . .
29.3(29) . . .
36.4(33) . . .
21.6(25) . . .
21.5(25) . . .
30.8(30) . . .
29.6(28) . . .
24.9(27) . . .
25.1(27) . . .
27.1(28) . . .
22.0(25) . . .
30.3(29) . . .
24.0(27) . . .
34(4) . . .
26.3(26) . . .
38.6(32) . . .
25.9(26) . . .
26.7(28) . . .
22.4(27) . . .
31.8(31) . . .
26.1(27) . . .
21.5(24) . . .
21.7(24) . . .
26.8(27) . . .
28.0(28) . . .
24.0(27) . . .
26.8(28) . . .
20.5(27) . . .
25.5(28) . . .
33.0(31) . . .
24.7(26) . . .
28.5(29) . . .
31.3(30) . . .
31.9(31) . . .
29.6(28) . . .
20.2(23) . . .
28.9(29) . . .
21.1(24) . . .
33.1(33) . . .
22.0(26) . . .
28.8(28) . . .
28.0(27) . . .
26.4(28) . . .
25.3(28) . . .
28.7(28) . . .
30.7(29) . . .
23.0(26) . . .
29.9(30) . . .
23.5(28) . . .
23.7(26) . . .
32.4(30) . . .
30.9(31) . . .
26.0(27) . . .
30.6(31) . . .
28.7(29) . . .
36.7(31) . . .
31.9(30) . . .
32.7(31) . . .
31.2(30) . . .
29.3(28) . . .
27.7(27) . . .
26.6(30) . . .
24.0(26) . . .
30.9(30) . . .
23.5(25) . . .
24.5(26) . . .
29.7(29) . . .
29.5(32) . . .
22.1(25) . . .
27.3(27) . . .
30.2(29) . . .
19.1(22) . . .
27.5(30) . . .
25.8(28) . . .
24.5(26) . . .
30.6(30) . . .
24.3(27) . . .
27.2(29) . . .
30.5(29) . . .
30.7(29) . . .
22.4(25) . . .
24.1(27) . . .
24.5(28) . . .
24.5(27) . . .
19.6(23) . . .
24.3(26) . . .
25.2(27) . . .
26.9(29) . . .
21.1(26) . . .
22.4(26) . . .
32.6(32) . . .
28.5(30) . . .
25.6(28) . . .
29.6(28) . . .
29.5(28) . . .
31.7(29) . . .
31.0(30) . . .
30.1(30) . . .
28.0(28) . . .
30.1(29) . . .
25.4(27) . . .
20.2(23) . . .
30.0(29) . . .
26.2(27) . . .
29.2(28) . . .
21.9(25) . . .
30.5(31) . . .
37.5(34) . . .
32.4(30) . . .
33.6(30) . . .
24.5(25) . . .
28.5(30) . . .
39(4) . . .
33.6(30) . . .
36.3(32) . . .
31.0(32) . . .
21.3(24) . . .
31.1(30) . . .
27.0(27) . . .
24.8(26) . . .
32.6(31) . . .
24.1(29) . . .
28.8(29) . . .
37.3(32) . . .
25.3(27) . . .
22.3(25) . . .
30.1(31) . . .
30.0(31) . . .
28.8(28) . . .
32.4(30) . . .
31.5(31) . . .
31.0(32) . . .
18.2(24) . . .
25.8(27) . . .
22.8(26) . . .
24.5(27) . . .
32.9(32) . . .
29.4(29) . . .
25.8(27) . . .
19.7(23) . . .
25.0(26) . . .
34.3(33) . . .
28.9(29) . . .
22.1(24) . . .
30.6(29) . . .
39.5(34) . . .
27.9(28) . . .
32.2(31) . . .
27.9(28) . . .
25.5(28) . . .
23.7(27) . . .
28.5(30) . . .
31.7(30) . . .
25.7(27) . . .
31.3(31) . . .
25.1(30) . . .
31.0(31) . . .
32.7(31) . . .
36.0(32) . . .
29.5(29) . . .
28.4(30) . . .
24.2(27) . . .
24.9(26) . . .
30.8(29) . . .
30.4(32) . . .
22.2(27) . . .
30.8(30) . . .
27.6(27) . . .
26.2(27) . . .
28.1(30) . . .
25.7(30) . . .
26.6(27) . . .
27.7(27) . . .
28.3(28) . . .
25.3(26) . . .
26.6(28) . . .
29.7(28) . . .
28.8(28) . . .
28.3(28) . . .
34.2(30) . . .
31.0(30) . . .
30.5(31) . . .
25.5(26) . . .
22.3(25) . . .
30.7(32) . . .
24.1(27) . . .
25.0(26) . . .
30.0(29) . . .
28.8(28) . . .
30.1(28) . . .
29.4(28) . . .
26.9(27) . . .
24.4(26) . . .
23.3(26) . . .
20.6(24) . . .
21.5(25) . . .
31.5(31) . . .
22.5(25) . . .
29.5(30) . . .
28.5(29) . . .
26.9(29) . . .
28.6(28) . . .
38.2(32) . . .
29.5(29) . . .
36.4(33) . . .
30.0(30) . . .
30.3(29) . . .
29.1(28) . . .
29.6(29) . . .
30.8(30) . . .
31.4(30) . . .
32.2(30) . . .
25.8(26) . . .
24.6(26) . . .
28.6(30) . . .
26.9(28) . . .
28.7(28) . . .
26.4(27) . . .
28.1(28) . . .
36.1(32) . . .
28.3(28) . . .
23.0(25) . . .
23.6(25) . . .
25.0(26) . . .
23.6(25) . . .
25.7(27) . . .
24.6(26) . . .
32.2(30) . . .
31.8(32) . . .
27.3(29) . . .
31.8(30) . . .
22.7(25) . . .
21.6(26) . . .
30.5(30) . . .
31.8(31) . . .
21.0(26) . . .
25.9(26) . . .
28.3(28) . . .
30.6(30) . . .
29.5(30) . . .
28.5(29) . . .
27.1(27) . . .
25.6(26) . . .
29.7(29) . . .
22.3(24) . . .
32.6(31) . . .
36.4(32) . . .
26.8(29) . . .
32.1(30) . . .
32.9(31) . . .
23.2(26) . . .
27.1(27) . . .
27.8(27) . . .
23.8(26) . . .
27.3(28) . . .
28.7(28) . . .
19.9(23) . . .
27.4(28) . . .
28.4(28) . . .
30.3(29) . . .
26.9(27) . . .
23.2(26) . . .
27.6(31) . . .
24.2(27) . . .
33.5(31) . . .
25.3(26) . . .
27.6(28) . . .
20.4(24) . . .
23.1(25) . . .
24.3(26) . . .
27.7(28) . . .
25.8(27) . . .
37.4(33) . . .
24.9(28) . . .
27.2(29) . . .
22.9(26) . . .
29.6(28) . . .
30.0(31) . . .
36(4) . . .
28.9(29) . . .
22.0(24) . . .
28.9(28) . . .
21.2(23) . . .
30.3(31) . . .
22.8(25) . . .
22.5(25) . . .
27.1(28) . . .
28.5(28) . . .
27.0(27) . . .
25.4(27) . . .
22.7(25) . . .
30.1(29) . . .
29.5(29) . . .
23.3(26) . . .
27.8(28) . . .
34.1(31) . . .
30.7(29) . . .
32.4(31) . . .
26.8(28) . . .
21.4(25) . . .
31.1(29) . . .
29.6(28) . . .
32.0(31) . . .
24.0(24) . . .
32.3(30) . . .
34.5(31) . . .
26.9(28) . . .
32.8(33) . . .
28.6(30) . . .
17.7(22) . . .
34.6(31) . . .
26.4(28) . . .
29.3(30) . . .
30.9(30) . . .
32.1(30) . . .
28.7(28) . . .
26.1(26) . . .
29.6(29) . . .
23.4(26) . . .
23.2(26) . . .
27.8(27) . . .
34.4(31) . . .
28.3(29) . . .
33.7(32) . . .
26.9(27) . . .
32.3(29) . . .
35.9(32) . . .
29.2(29) . . .
26.3(26) . . .
26.8(27) . . .
25.3(27) . . .
27.5(30) . . .
28.8(30) . . .
25.9(30) . . .
24.9(26) . . .
31.2(30) . . .
32.0(31) . . .
21.2(26) . . .
22.2(29) . . .
26.6(28) . . .
24.8(26) . . .
24.3(25) . . .
24.0(25) . . .
30.3(32) . . .
36.3(32) . . .
30.7(30) . . .
28.9(29) . . .
32.3(31) . . .
24.7(27) . . .
26.3(27) . . .
26.4(28) . . .
31.3(32) . . .
32.7(31) . . .
29.3(28) . . .
30.6(29) . . .
29.5(28) . . .
37.5(35) . . .
28.2(29) . . .
22.1(25) . . .
29.4(28) . . .
33.5(31) . . .
26.3(27) . . .
21.7(24) . . .
31.2(31) . . .
24.5(25) . . .
29.0(28) . . .
28.0(28) . . .
32.3(31) . . .
27.8(28) . . .
28.1(28) . . .
21.3(25) . . .
25.3(28) . . .
27.6(32) . . .
23.8(25) . . .
22.2(24) . . .
28.7(29) . . .
29.8(32) . . .
31.6(31) . . .
27.5(28) . . .
33.3(31) . . .
25.2(28) . . .
25.1(27) . . .
27.2(27) . . .
28.8(29) . . .
30.1(29) . . .
28.1(28) . . .
27.2(27) . . .
26.6(27) . . .
31.7(29) . . .
29.2(31) . . .
35.2(34) . . .
25.5(27) . . .
32.9(31) . . .
28.1(28) . . .
22.7(26) . . .
31.7(32) . . .
24.2(27) . . .
27.9(29) . . .
26.5(27) . . .
33.3(31) . . .
30.1(30) . . .
25.8(28) . . .
26.0(27) . . .
30.7(29) . . .
25.4(29) . . .
24.0(26) . . .
24.5(29) . . .
25.7(27) . . .
27.8(28) . . .
23.9(26) . . .
16.6(21) . . .
28.2(30) . . .
32.4(29) . . .
34.1(30) . . .
30.3(29) . . .
30.6(29) . . .
34.9(32) . . .
34.7(30) . . .
36.7(31) . . .
27.2(28) . . .
27.8(29) . . .
25.9(27) . . .
20.1(24) . . .
21.7(24) . . .
21.4(25) . . .
26.7(29) . . .
29.1(30) . . .
20.6(23) . . .
25.3(26) . . .
34.2(33) . . .
24.3(27) . . .
33.5(31) . . .
28.3(28) . . .
21.5(26) . . .
29.6(31) . . .
29.8(30) . . .
27.1(27) . . .
35.7(32) . . .
30.8(29) . . .
30.8(29) . . .
34.6(33) . . .
32.5(31) . . .
27.6(27) . . .
31.9(30) . . .
30.1(30) . . .
27.7(31) . . .
25.8(27) . . .
28.0(27) . . .
28.7(28) . . .
28.2(27) . . .
36.6(35) . . .
32.8(30) . . .
34.4(31) . . .
26.6(27) . . .
33.8(31) . . .
32.6(30) . . .
26.4(27) . . .
24.7(26) . . .
30.5(30) . . .
23.5(26) . . .
25.6(27) . . .
29.6(29) . . .
28.1(27) . . .
24.5(27) . . .
24.6(27) . . .
23.2(26) . . .
29.6(30) . . .
32.1(30) . . .
29.3(29) . . .
26.8(30) . . .
25.4(26) . . .
25.2(27) . . .
32.2(29) . . .
30.0(30) . . .
36.4(34) . . .
loop_
_refln_index_h
_refln_index_k
_refln_index_l
_refln_observed_status
_refln_F_squared_meas
_refln_F_squared_calc
_refln_phase_calc
_refln_d_spacing
_gsas_i100_meas
0 0 2 o 338.466 438.104 180.00 6.58383 0.59
0 2 0 o 1549.702 1500.213 180.00 8.19740 4.21
0 1 3 o 62.227 49.474 180.00 4.23990 0.09
1 0 1 o 12597.034 13050.456 0.00 5.87744 35.24
0 0 4 o 110.075 237.822 180.00 3.29191 0.05
0 2 2 o 31896.070 32732.096 0.00 5.13318 68.09
0 3 1 o 1245.190 1544.885 180.00 5.04748 2.57
0 4 0 o 3352.600 1706.988 0.00 4.09870 2.28
1 1 2 o 4396.230 3788.488 0.00 4.47343 14.26
1 0 3 o 313.372 237.746 180.00 3.64935 0.34
1 2 1 o 1716.420 1763.620 0.00 4.77655 6.35
0 1 5 o 1554.214 1676.407 180.00 2.60020 0.86
0 2 4 o 636.190 652.529 0.00 3.05480 0.48
1 1 4 o 46.891 46.154 0.00 2.89666 0.06
0 0 6 o 2170.757 2377.802 0.00 2.19461 0.43
1 2 3 o 544.499 896.582 0.00 3.33390 0.98
0 5 1 o 0.000 24.352 180.00 3.18179 0.00
1 0 5 o 0.000 506.586 180.00 2.44436 0.00
0 3 3 o 11851.496 12625.686 0.00 3.42212 11.27
1 4 1 o 698.126 800.542 180.00 3.36195 1.28
0 2 6 o 820.161 808.261 180.00 2.11995 0.30
0 6 0 o 2087.401 2314.144 0.00 2.73247 0.63
0 4 2 o 5.812 15.567 0.00 3.47953 0.01
1 3 2 o 3487.884 3690.881 0.00 3.54142 7.10
1 2 5 o 523.828 466.492 0.00 2.34244 0.47
1 1 6 o 1016.596 966.752 180.00 2.06491 0.71
0 1 7 o 922.066 1009.510 0.00 1.86883 0.26
0 3 5 o 41.655 81.321 0.00 2.37243 0.02
1 0 7 o 1090.401 1191.545 0.00 1.80839 0.29
2 0 0 o 1882.470 2202.837 180.00 3.28401 0.82
1 3 4 o 17.666 18.204 0.00 2.59113 0.02
2 1 1 o 843.925 888.981 180.00 3.12788 1.34
2 0 2 o 115.749 385.184 0.00 2.93872 0.08
2 2 0 o 75.905 62.184 0.00 3.04848 0.06
0 0 8 o 305.563 356.522 180.00 1.64596 0.03
0 7 1 o 240.040 237.738 0.00 2.30592 0.10
1 6 1 o 329.084 806.826 0.00 2.47778 0.33
2 1 3 o 1057.906 1020.751 0.00 2.59630 1.16
1 2 7 o 1322.321 1327.323 180.00 1.76593 0.68
2 0 4 o 1811.319 1084.210 180.00 2.32494 0.80
0 4 4 o 9388.701 11086.394 0.00 2.56659 5.04
0 2 8 o 932.625 1009.198 180.00 1.61375 0.20
0 6 2 o 65.303 504.997 0.00 2.52374 0.03
1 3 6 o 1160.267 1006.238 0.00 1.94517 0.72
1 5 2 o 2894.015 2795.501 180.00 2.67970 3.39
2 2 2 o 2143.653 1906.493 180.00 2.76633 2.67
0 3 7 o 1259.568 1253.539 0.00 1.77867 0.33
1 1 8 o 1059.939 1303.891 0.00 1.58907 0.44
2 3 1 o 665.530 600.756 0.00 2.75267 0.82
0 1 9 o 1545.244 1330.450 0.00 1.45728 0.27
2 4 0 o 1552.553 1916.224 180.00 2.56284 0.83
0 8 0 o 296.502 275.561 0.00 2.04935 0.05
1 4 3 o 5084.238 5388.847 0.00 2.72555 6.15
2 1 5 o 191.914 167.636 180.00 2.03857 0.13
2 2 4 o 41.590 70.984 0.00 2.23672 0.03
0 4 6 o 3740.968 3298.071 180.00 1.93472 1.15
2 0 6 o 45.425 55.813 0.00 1.82467 0.01
1 4 5 o 249.384 223.473 180.00 2.09937 0.18
1 0 9 o 1352.871 1222.758 180.00 1.42807 0.23
0 5 3 o 448.370 478.861 180.00 2.62688 0.25
0 0 10 o 3278.531 6143.062 180.00 1.31677 0.24
1 3 8 o 43.079 63.627 0.00 1.53252 0.02
2 2 6 o 521.488 521.730 180.00 1.78108 0.27
2 5 1 o 3.729 13.737 0.00 2.28515 0.00
2 3 3 o 30.818 65.792 180.00 2.36947 0.03
1 2 9 o 26.074 24.802 180.00 1.40688 0.01
1 8 1 o 542.828 478.928 180.00 1.93509 0.33
2 1 7 o 307.591 316.638 0.00 1.62425 0.13
2 6 0 o 3324.033 2943.976 180.00 2.10046 1.20
2 4 2 o 136.201 310.630 180.00 2.38828 0.13
1 7 2 o 2520.639 2375.064 0.00 2.09175 1.81
0 8 2 o 1613.778 1522.552 180.00 1.95675 0.51
0 4 8 o 78.387 116.535 180.00 1.52740 0.02
0 3 9 o 54.938 50.982 0.00 1.41330 0.01
0 9 1 o 3484.767 3751.357 0.00 1.80446 0.93
0 5 5 o 22952.834 21974.334 0.00 2.05327 7.93
2 3 5 o 946.527 765.332 0.00 1.92310 0.57
0 2 10 o 0.196 0.250 0.00 1.30010 0.00
2 0 8 o 419.899 387.989 180.00 1.47148 0.08
1 4 7 o 158.195 204.265 180.00 1.65451 0.07
1 1 10 o 4.027 4.395 0.00 1.28709 0.00
1 5 4 o 6265.029 6373.102 0.00 2.19017 4.91
1 6 3 o 4801.329 4761.965 180.00 2.18728 3.76
0 7 3 o 6761.909 6313.958 0.00 2.06634 2.36
0 10 0 o 7675.910 8142.848 180.00 1.63948 0.85
2 3 7 o 1279.278 1549.153 180.00 1.56401 0.52
0 5 7 o 47.182 52.683 180.00 1.63166 0.01
2 2 8 o 1777.779 1360.608 0.00 1.44833 0.62
2 6 2 o 341.068 571.934 180.00 2.00109 0.22
2 7 1 o 607.522 667.124 180.00 1.88716 0.36
2 4 4 o 896.006 898.307 180.00 2.02225 0.60
1 5 6 o 674.415 749.221 0.00 1.75731 0.34
2 1 9 o 734.861 1151.021 180.00 1.33202 0.22
2 8 0 o 1.779 2.269 0.00 1.73860 0.00
3 0 1 o 2633.491 2456.884 180.00 2.15969 1.00
1 4 9 o 3.585 3.902 0.00 1.34856 0.00
1 3 10 o 0.457 0.535 0.00 1.25649 0.00
0 4 10 o 8.564 9.714 180.00 1.25366 0.00
2 0 10 o 1109.323 2003.088 0.00 1.22218 0.14
3 2 1 o 40.167 38.048 0.00 2.08843 0.03
3 1 2 o 2923.277 2906.648 180.00 2.06101 2.03
2 4 6 o 1822.143 2245.640 0.00 1.66695 0.84
2 5 3 o 101.583 100.475 0.00 2.05135 0.07
0 6 4 o 8319.692 7326.989 180.00 2.10253 3.01
1 9 2 o 7.517 8.637 0.00 1.69613 0.00
3 0 3 o 3442.127 3541.328 0.00 1.95915 1.08
1 10 1 o 197.257 254.441 180.00 1.57919 0.08
3 1 4 o 3655.719 3686.990 0.00 1.81182 1.97
1 5 8 o 70.203 59.962 180.00 1.43546 0.02
0 10 2 o 1263.427 1495.842 0.00 1.59090 0.26
0 5 9 o 7.217 8.825 180.00 1.33610 0.00
1 8 3 o 169.296 200.967 0.00 1.78688 0.09
3 0 5 o 2393.644 2322.101 180.00 1.68355 0.56
0 6 6 o 4677.360 6195.749 0.00 1.71106 1.13
2 3 9 o 1072.275 1322.674 0.00 1.29819 0.30
0 11 1 o 6161.566 4823.739 180.00 1.48098 1.12
3 4 1 o 1015.195 758.304 180.00 1.91067 0.61
2 2 10 o 267.524 897.366 180.00 1.20882 0.07
3 2 3 o 5198.833 3911.310 180.00 1.90548 3.10
3 3 2 o 1009.024 726.051 0.00 1.94191 0.62
0 9 3 o 94.305 93.302 180.00 1.68249 0.02
2 8 2 o 150.340 156.658 180.00 1.68097 0.07
3 2 5 o 408.157 522.127 0.00 1.64913 0.18
3 0 7 o 191.396 174.981 180.00 1.42678 0.03
2 9 1 o 20.970 27.415 180.00 1.58145 0.01
1 6 5 o 510.540 671.266 0.00 1.82180 0.28
3 1 6 o 107.774 127.108 180.00 1.54308 0.04
2 4 8 o 1502.977 1450.966 180.00 1.38493 0.48
2 5 5 o 1971.614 2254.409 180.00 1.74099 0.98
0 12 0 o 4066.075 4076.834 0.00 1.36623 0.32
1 6 7 o 374.274 325.350 0.00 1.50804 0.14
3 3 4 o 169.758 360.921 180.00 1.72931 0.08
0 6 8 o 163.068 148.999 180.00 1.40992 0.03
2 7 3 o 1339.397 1412.347 180.00 1.74893 0.67
2 10 0 o 28.515 28.222 0.00 1.46685 0.01
3 6 1 o 1807.375 2079.050 180.00 1.69436 0.86
3 2 7 o 90.805 84.178 0.00 1.40565 0.03
2 5 7 o 2809.617 2519.464 0.00 1.46124 1.00
3 1 8 o 573.859 783.714 180.00 1.31141 0.17
1 11 2 o 129.733 116.876 180.00 1.41931 0.04
1 7 4 o 632.941 623.162 180.00 1.83260 0.35
3 5 2 o 256.359 262.581 0.00 1.75490 0.13
3 3 6 o 66.593 45.974 0.00 1.49114 0.02
3 4 3 o 247.911 226.584 180.00 1.76760 0.13
3 0 9 o 823.275 1727.786 0.00 1.21645 0.10
0 8 4 o 1165.667 1342.765 0.00 1.73976 0.29
2 6 4 o 1110.190 812.174 0.00 1.77071 0.57
1 10 3 o 1.388 1.184 180.00 1.49549 0.00
1 12 1 o 0.281 0.505 0.00 1.33075 0.00
0 7 5 o 1401.420 1374.637 180.00 1.75012 0.35
2 10 2 o 392.293 355.237 180.00 1.43174 0.13
1 6 9 o 99.917 140.179 180.00 1.26564 0.03
2 5 9 o 1726.444 1370.574 180.00 1.23759 0.44
0 7 7 o 4241.836 4436.651 0.00 1.46662 0.76
0 12 2 o 2740.252 3022.375 180.00 1.33773 0.41
0 11 3 o 1079.339 989.091 0.00 1.41129 0.18
3 4 5 o 18.553 23.126 180.00 1.55730 0.01
0 13 1 o 2613.393 3018.403 0.00 1.25539 0.35
3 3 8 o 4.952 4.702 180.00 1.27908 0.00
2 11 1 o 237.718 253.313 0.00 1.35005 0.07
2 9 3 o 15.316 13.950 0.00 1.49741 0.01
2 6 6 o 2131.764 2702.906 180.00 1.51744 0.81
3 8 1 o 0.153 0.098 180.00 1.48659 0.00
1 7 6 o 435.901 563.547 0.00 1.55585 0.17
3 7 2 o 1562.057 1998.859 180.00 1.55418 0.62
3 4 7 o 342.284 382.847 0.00 1.34747 0.10
2 6 8 o 2296.735 2750.957 0.00 1.29557 0.65
1 9 4 o 216.622 272.509 0.00 1.54892 0.09
0 7 9 o 251.172 195.821 0.00 1.24086 0.03
2 12 0 o 474.753 626.096 180.00 1.26142 0.06
3 5 4 o 426.257 426.237 180.00 1.59330 0.18
0 10 4 o 48.141 51.253 180.00 1.46755 0.01
3 6 3 o 330.232 337.608 0.00 1.59218 0.14
4 0 0 o 2532.691 2906.021 0.00 1.64201 0.28
1 7 8 o 117.838 384.071 0.00 1.31922 0.03
4 2 0 o 468.497 341.002 180.00 1.61002 0.10
4 1 1 o 1363.619 1202.594 0.00 1.62140 0.59
3 5 6 o 269.512 280.948 180.00 1.40129 0.09
1 13 2 o 6.588 14.108 180.00 1.21716 0.00
4 0 2 o 212.546 204.215 180.00 1.59320 0.04
2 8 4 o 1807.701 2326.979 180.00 1.53736 0.71
1 12 3 o 18.826 17.081 180.00 1.27951 0.01
4 1 3 o 244.295 544.396 180.00 1.53119 0.09
4 0 4 o 975.569 998.602 0.00 1.46936 0.17
2 7 5 o 1411.164 1494.062 0.00 1.54449 0.56
4 3 1 o 740.153 863.322 180.00 1.56146 0.30
4 2 2 o 1588.870 1891.857 0.00 1.56394 0.64
3 10 1 o 17.630 26.638 0.00 1.30584 0.01
3 9 2 o 71.341 75.707 180.00 1.36967 0.02
2 12 2 o 937.624 701.154 0.00 1.23889 0.24
4 4 0 o 866.496 1567.274 0.00 1.52424 0.17
4 1 5 o 1117.385 1054.508 0.00 1.38835 0.36
1 8 5 o 457.996 654.351 180.00 1.57043 0.19
0 8 6 o 1320.306 1258.089 180.00 1.49783 0.25
2 11 3 o 875.461 1027.393 180.00 1.29663 0.25
4 0 6 o 555.506 996.108 180.00 1.31474 0.08
4 2 4 o 1029.346 671.843 180.00 1.44631 0.36
3 5 8 o 286.920 637.138 0.00 1.22101 0.07
4 5 1 o 2440.009 2241.164 0.00 1.45916 0.86
4 2 6 o 310.355 358.296 0.00 1.29815 0.09
2 7 7 o 3324.010 3160.648 180.00 1.33915 1.00
3 8 3 o 969.136 927.549 180.00 1.41614 0.32
4 1 7 o 397.717 353.702 180.00 1.23352 0.10
0 13 3 o 153.280 412.921 180.00 1.21210 0.02
0 9 5 o 1077.716 1029.346 0.00 1.49816 0.20
4 3 3 o 2794.777 2142.109 0.00 1.48041 1.02
4 6 0 o 3885.729 3336.414 180.00 1.40743 0.64
1 11 4 o 6.489 14.302 180.00 1.32964 0.00
4 4 2 o 2082.630 1311.652 180.00 1.48496 0.76
0 8 8 o 739.586 660.619 0.00 1.28330 0.10
3 6 5 o 21.484 19.647 180.00 1.43334 0.01
1 8 7 o 201.801 205.833 0.00 1.35595 0.06
4 3 5 o 137.285 142.640 180.00 1.35016 0.04
3 6 7 o 373.356 536.849 180.00 1.26474 0.10
2 10 4 o 424.402 385.217 0.00 1.33985 0.13
0 12 4 o 0.366 0.506 180.00 1.26187 0.00
3 7 4 o 12.842 12.436 0.00 1.43858 0.00
3 11 2 o 96.857 376.933 0.00 1.21102 0.02
4 7 1 o 2165.007 2214.044 180.00 1.33755 0.65
4 4 4 o 1002.437 902.938 0.00 1.38316 0.32
4 6 2 o 1153.514 1155.161 0.00 1.37634 0.36
4 8 0 o 2058.565 1635.311 0.00 1.28142 0.28
2 8 6 o 2510.586 2320.057 0.00 1.36278 0.78
4 5 3 o 559.589 514.832 180.00 1.39237 0.18
1 10 5 o 203.597 214.425 0.00 1.36158 0.06
3 10 3 o 457.794 514.889 180.00 1.25732 0.12
4 4 6 o 64.700 74.042 180.00 1.25191 0.02
0 11 5 o 504.611 561.505 0.00 1.29711 0.07
2 9 5 o 3773.425 3409.067 180.00 1.36302 1.17
4 9 1 o 720.889 1324.687 0.00 1.21445 0.18
0 9 7 o 2.137 2.941 180.00 1.30861 0.00
3 7 6 o 50.143 61.004 0.00 1.29255 0.01
4 8 2 o 1482.412 1652.909 180.00 1.25782 0.39
3 9 4 o 162.739 182.912 180.00 1.28857 0.05
1 9 6 o 365.024 391.757 180.00 1.37081 0.11
4 5 5 o 703.951 556.821 0.00 1.28238 0.19
4 7 3 o 695.215 740.466 0.00 1.28554 0.19
3 8 5 o 73.015 102.435 180.00 1.30088 0.02
4 6 4 o 230.579 307.062 180.00 1.29412 0.06
0 10 6 o 7.292 8.435 180.00 1.31344 0.00
5 0 1 o 1284.808 2070.757 0.00 1.30712 0.18
5 2 1 o 353.249 477.654 0.00 1.29081 0.10
5 1 2 o 545.777 500.340 0.00 1.28426 0.15
5 0 3 o 1.450 1.685 180.00 1.25845 0.00
2 9 7 o 29.925 60.140 0.00 1.21565 0.01
5 4 1 o 3.694 5.116 180.00 1.24532 0.00
5 2 3 o 305.913 326.450 0.00 1.24388 0.08
5 3 2 o 430.779 527.206 0.00 1.25385 0.11
5 1 4 o 1.160 3.383 0.00 1.21669 0.00
1 10 7 o 156.451 217.653 180.00 1.21462 0.04
1 11 6 o 40.042 131.432 0.00 1.21181 0.01
2 10 6 o 142.016 289.401 180.00 1.21952 0.04
