#------------------------------------------------------------------------------
#$Date: 2016-03-21 01:21:50 +0200 (Mon, 21 Mar 2016) $
#$Revision: 178377 $
#$URL: svn://www.crystallography.net/cod/cif/4/00/20/4002099.cif $
#------------------------------------------------------------------------------
#
# This file is available in the Crystallography Open Database (COD),
# http://www.crystallography.net/
#
# All data on this site have been placed in the public domain by the
# contributors.
#
data_4002099
loop_
_publ_author_name
'Nanthamathee, Chompoonoot'
'Ling, Sanliang'
'Slater, Ben'
'Attfield, Martin P.'
_publ_section_title
;
 Contradistinct Thermoresponsive Behavior of Isostructural MIL-53 Type
 Metal--Organic Frameworks by Modifying the Framework Inorganic Anion
;
_journal_name_full               'Chemistry of Materials'
_journal_page_first              141223143002002
_journal_paper_doi               10.1021/cm503311x
_journal_year                    2014
_chemical_formula_sum            'C8 Al F O4'
_chemical_formula_weight         206.06
_chemical_name_systematic        ' ?'
_space_group_IT_number           74
_symmetry_cell_setting           orthorhombic
_symmetry_space_group_name_Hall  '-I 2b 2'
_symmetry_space_group_name_H-M   'I m m a'
_audit_creation_date             2014-08-28T13:14
_audit_creation_method           'from EXP file using GSAS2CIF'
_audit_update_record
' 2014-08-28T13:14  Initial CIF as created by GSAS2CIF'
_cell_angle_alpha                90.0
_cell_angle_beta                 90.0
_cell_angle_gamma                90.0
_cell_formula_units_Z            4
_cell_length_a                   6.56772(16)
_cell_length_b                   16.4037(5)
_cell_length_c                   13.1740(6)
_cell_volume                     1419.30(9)
_computing_structure_refinement  GSAS
_diffrn_radiation_polarisn_ratio 0.95
_diffrn_radiation_probe          x-ray
_diffrn_radiation_wavelength     0.825993
_exptl_absorpt_correction_T_max  1.00000
_exptl_absorpt_correction_T_min  1.00000
_exptl_absorpt_process_details
;   GSAS Absorption/surface roughness correction: function number 0
 No correction is applied.
;
_pd_block_id                     2014-08-28T13:14|275K|275K|
_pd_calc_method                  'Rietveld Refinement'
_pd_instr_location               ' ?'
_pd_meas_2theta_range_inc        0.003
_pd_meas_2theta_range_max        149.9955
_pd_meas_2theta_range_min        0.0015
_pd_meas_number_of_points        49999
_pd_phase_name                   300K
_pd_proc_2theta_range_inc        0.003
_pd_proc_2theta_range_max        150.00546
_pd_proc_2theta_range_min        0.01146
_pd_proc_info_datetime           2014-08-28T13:14:37
_pd_proc_info_excluded_regions   ' ?'
_pd_proc_ls_background_function
;   GSAS Background function number 1 with  2 terms.
 Shifted Chebyshev function of 1st kind
      1:    0.00000     2:    0.00000    
;
_pd_proc_ls_peak_cutoff          0.00010
_pd_proc_ls_profile_function
;
 CW Profile function number 4 with  18 terms
 Pseudovoigt profile coefficients as parameterized in
 P. Thompson, D.E. Cox & J.B. Hastings (1987). J. Appl. Cryst.,20,79-83.
 Asymmetry correction of L.W. Finger, D.E. Cox & A. P. Jephcoat (1994).
 J. Appl. Cryst.,27,892-900.
 Microstrain broadening by P.W. Stephens,  (1999). J. Appl. Cryst.,32,281-289.
 Peak tails are ignored  where the intensity is below 0.0001 times the peak
   Aniso. broadening axis   1.0   0.0   1.0
;
_pd_proc_ls_prof_R_factor        0.0332
_pd_proc_ls_prof_wR_expected     0.0253
_pd_proc_ls_prof_wR_factor       0.0425
_pd_proc_number_of_points        49999
_pd_spec_mounting                ' ?'
_refine_ls_goodness_of_fit_all   1.68
_refine_ls_matrix_type           full
_refine_ls_number_parameters     30
_refine_ls_number_restraints     0
_refine_ls_R_Fsqd_factor         0.20163
_refine_ls_shift/su_max          0.04
_refine_ls_shift/su_mean         0.01
_reflns_d_resolution_high        1.209
_reflns_d_resolution_low         8.202
_reflns_limit_h_max              5
_reflns_limit_h_min              0
_reflns_limit_k_max              13
_reflns_limit_k_min              0
_reflns_limit_l_max              11
_reflns_limit_l_min              0
_reflns_number_total             252
_cod_data_source_file            alf275K.cif
_cod_data_source_block           275K_publ
_cod_depositor_comments
;
The following automatic conversions were performed:

'_geom_bond_publ_flag' value 'N' changed to 'n' according to
/home/saulius/struct/COD-crude-data--automatic-downloads/rss-feeds/ACS/lib/dictionaries/cif_core.dic
dictionary named 'cif_core.dic' version 2.4.2 from 2011-04-26 (18
times).

'_geom_angle_publ_flag' value 'N' changed to 'n' according
to
/home/saulius/struct/COD-crude-data--automatic-downloads/rss-feeds/ACS/lib/dictionaries/cif_core.dic
dictionary named 'cif_core.dic' version 2.4.2 from 2011-04-26 (24
times).

Automatic conversion script
Id: cif_fix_values 2935 2014-11-11 08:27:57Z andrius 
;
_cod_original_cell_volume        1419.29(8)
_cod_database_code               4002099
#BEGIN Tags that were not found in dictionaries:
_gsas_exptl_extinct_corr_t_min   1.00000
_gsas_exptl_extinct_corr_t_max   1.00000
#END Tags that were not found in dictionaries
loop_
_symmetry_equiv_pos_site_id
_symmetry_equiv_pos_as_xyz
1 +x,+y,+z
2 -x,+y,+z
3 +x,-y+1/2,+z
4 -x,-y+1/2,+z
-1 -x,-y,-z
-2 +x,-y,-z
-3 -x,+y+1/2,-z
-4 +x,+y+1/2,-z
101 +x+1/2,+y+1/2,+z+1/2
102 -x+1/2,+y+1/2,+z+1/2
103 +x+1/2,-y,+z+1/2
104 -x+1/2,-y,+z+1/2
-101 -x+1/2,-y+1/2,-z+1/2
-102 +x+1/2,-y+1/2,-z+1/2
-103 -x+1/2,+y,-z+1/2
-104 +x+1/2,+y,-z+1/2
loop_
_atom_site_type_symbol
_atom_site_label
_atom_site_fract_x
_atom_site_fract_y
_atom_site_fract_z
_atom_site_occupancy
_atom_site_thermal_displace_type
_atom_site_U_iso_or_equiv
_atom_site_symmetry_multiplicity
Al Al1 0.25 0.25 0.75 1.0 Uiso 0.0145(17) 4
F F1 0.0 0.25 0.6940(6) 1.0 Uiso 0.0106(13) 4
O O1 0.1687(6) 0.16826(25) 0.83890(33) 1.0 Uiso 0.0106(13) 16
C C1 -0.1935(7) 0.0298(6) 0.9583(7) 1.0 Uiso 0.0276(24) 16
C C2 0.0 0.0622(6) 0.9461(9) 1.0 Uiso 0.0276(24) 8
C C3 0.0 0.1387(6) 0.8724(9) 1.0 Uiso 0.0276(24) 8
loop_
_atom_type_symbol
_atom_type_number_in_cell
_atom_type_scat_dispersion_real
_atom_type_scat_dispersion_imag
_atom_type_scat_Cromer_Mann_a1
_atom_type_scat_Cromer_Mann_a2
_atom_type_scat_Cromer_Mann_a3
_atom_type_scat_Cromer_Mann_a4
_atom_type_scat_Cromer_Mann_b1
_atom_type_scat_Cromer_Mann_b2
_atom_type_scat_Cromer_Mann_b3
_atom_type_scat_Cromer_Mann_b4
_atom_type_scat_Cromer_Mann_c
_atom_type_scat_source
Al 4.0 0.000 0.000 6.42020 3.03870 1.90020 0.74260 1.59360 31.5472 1.96460
85.0886 1.11510 International_Tables_Vol_C
F 4.0 0.000 0.000 3.53920 10.2825 2.64120 4.29440 1.51700 0.26150 1.02430
26.1476 0.27760 International_Tables_Vol_C
O 16.0 0.000 0.000 3.04850 13.2771 2.28680 5.70110 1.54630 0.32390 0.86700
32.9089 0.25080 International_Tables_Vol_C
C 32.0 0.000 0.000 2.31000 20.8439 1.02000 10.2075 1.58860 0.56870 0.86500
51.6512 0.21560 International_Tables_Vol_C
loop_
_geom_angle_atom_site_label_1
_geom_angle_atom_site_label_2
_geom_angle_atom_site_label_3
_geom_angle
_geom_angle_site_symmetry_1
_geom_angle_site_symmetry_3
_geom_angle_publ_flag
F1 Al1 F1 180.0 1_555 -101_546 n
F1 Al1 O1 89.78(18) 1_555 1_555 n
F1 Al1 O1 89.78(18) 1_555 3_555 n
F1 Al1 O1 90.22(18) 1_555 -101_566 n
F1 Al1 O1 90.22(18) 1_555 -103_566 n
F1 Al1 O1 90.22(18) -101_566 1_555 n
F1 Al1 O1 90.22(18) -101_566 3_555 n
F1 Al1 O1 89.78(18) -101_566 -101_566 n
F1 Al1 O1 89.78(18) -101_566 -103_566 n
O1 Al1 O1 92.34(31) 1_555 3_555 n
O1 Al1 O1 180.0 1_555 -101_566 n
O1 Al1 O1 87.66(31) 1_555 -103_566 n
O1 Al1 O1 87.66(31) 3_555 -101_566 n
O1 Al1 O1 180.0 3_555 -103_566 n
O1 Al1 O1 92.34(31) -101_566 -103_566 n
Al1 F1 Al1 131.6(4) 1_555 2_555 n
Al1 O1 C3 137.3(5) 1_555 1_555 n
C1 C1 C2 110.0(6) -2_557 1_555 n
C1 C2 C1 132.8(12) 1_555 2_555 n
C1 C2 C3 112.0(6) 1_555 1_555 n
C1 C2 C3 112.0(6) 2_555 1_555 n
O1 C3 O1 118.8(9) 1_555 2_555 n
O1 C3 C2 120.5(5) 1_555 1_555 n
O1 C3 C2 120.5(5) 2_555 1_555 n
loop_
_geom_bond_atom_site_label_1
_geom_bond_atom_site_label_2
_geom_bond_distance
_geom_bond_site_symmetry_2
_geom_bond_publ_flag
Al1 F1 1.8001(31) 1_555 n
Al1 F1 1.8001(31) -101_445 n
Al1 O1 1.8587(32) 1_555 n
Al1 O1 1.8587(32) 3_555 n
Al1 O1 1.8587(32) -101_445 n
Al1 O1 1.8587(32) -103_445 n
F1 Al1 1.8001(31) 1_555 n
F1 Al1 1.8001(31) 2_555 n
O1 Al1 1.8587(32) 1_555 n
O1 C3 1.287(5) 1_555 n
C1 C1 1.471(12) -2_557 n
C1 C2 1.387(6) 1_555 n
C2 C1 1.387(6) 1_555 n
C2 C1 1.387(6) 2_555 n
C2 C3 1.586(10) 1_555 n
C3 O1 1.287(5) 1_555 n
C3 O1 1.287(5) 2_555 n
C3 C2 1.586(10) 1_555 n
loop_
_pd_meas_intensity_total
_pd_proc_ls_weight
_pd_proc_intensity_bkg_calc
_pd_calc_intensity_total
16.3(22) 0.0 0.00 .
16.6(23) 0.0 0.00 .
13.6(19) 0.0 0.00 .
18.9(23) 0.0 0.00 .
42(4) 0.0 0.0 .
143(6) 0.0 0.0 .
127(6) 0.0 0.0 .
793(16) 0.0 0.0 .
1534(21) 0.0 0.0 .
2982(28) 0.0 0.0 .
3346(31) 0.0 0.0 .
3225(30) 0.0 0.0 .
3255(31) 0.0 0.0 .
1193(19) 0.0 0.0 .
101(5) 0.0 0.0 .
55(4) 0.0 0.0 .
49(4) 0.0 0.0 .
39.1(32) 0.0 0.00 .
41.8(35) 0.0 0.00 .
64(4) 0.0 0.0 .
225(8) 0.0 0.0 .
362(10) 0.0 0.0 .
757(15) 0.0 0.0 .
981(17) 0.0 0.0 .
1016(17) 0.0 0.0 .
1289(19) 0.0 0.0 .
1326(20) 0.0 0.0 .
1524(21) 0.0 0.0 .
1754(22) 0.0 0.0 .
1821(22) 0.0 0.0 .
2003(24) 0.0 0.0 .
2127(26) 0.0 0.0 .
1869(23) 0.0 0.0 .
1565(21) 0.0 0.0 .
1155(18) 0.0 0.0 .
657(14) 0.0 0.0 .
329(10) 0.0 0.0 .
230(8) 0.0 0.0 .
136(6) 0.0 0.0 .
80(5) 0.0 0.0 .
40.6(35) 0.0 0.00 .
31.1(31) 0.0 0.00 .
30.0(29) 0.0 0.00 .
26.7(27) 0.0 0.00 .
28.0(27) 0.0 0.00 .
29.2(28) 0.0 0.00 .
31.0(31) 0.0 0.00 .
33.2(30) 0.0 0.00 .
27.7(28) 0.0 0.00 .
33.0(30) 0.0 0.00 .
29.6(29) 0.0 0.00 .
31.2(31) 0.0 0.00 .
28.0(29) 0.0 0.00 .
23.9(25) 0.0 0.00 .
25.9(28) 0.0 0.00 .
27.8(29) 0.0 0.00 .
34.3(33) 0.0 0.00 .
27.8(27) 0.0 0.00 .
41.7(34) 0.0 0.00 .
32.2(30) 0.0 0.00 .
32.7(35) 0.0 0.00 .
27.2(31) 0.0 0.00 .
27.8(28) 0.0 0.00 .
24.8(25) 0.0 0.00 .
23.7(26) 0.0 0.00 .
22.5(25) 0.0 0.00 .
28.0(28) 0.0 0.00 .
30.3(29) 0.0 0.00 .
30.8(29) 0.0 0.00 .
28.8(28) 0.0 0.00 .
25.0(28) 0.0 0.00 .
33.7(32) 0.0 0.00 .
33.8(31) 0.0 0.00 .
27.5(27) 0.0 0.00 .
35.2(32) 0.0 0.00 .
36.8(33) 0.0 0.00 .
38.8(32) 0.0 0.00 .
44.4(35) 0.0 0.00 .
33.8(30) 0.0 0.00 .
31.1(30) 0.0 0.00 .
29.5(31) 0.0 0.00 .
37.2(35) 0.0 0.00 .
42.3(34) 0.0 0.00 .
32.6(30) 0.0 0.00 .
34.0(32) 0.0 0.00 .
41(4) 0.0 0.0 .
40.8(34) 0.0 0.00 .
36.5(32) 0.0 0.00 .
35.2(31) 0.0 0.00 .
40(4) 0.0 0.0 .
46(4) 0.0 0.0 .
47(4) 0.0 0.0 .
45.1(35) 0.0 0.00 .
46(4) 0.0 0.0 .
43.4(33) 0.0 0.00 .
58(4) 0.0 0.0 .
74(5) 0.0 0.0 .
87(5) 0.0 0.0 .
82(5) 0.0 0.0 .
86(5) 0.0 0.0 .
94(6) 0.0 0.0 .
110(6) 0.0 0.0 .
117(6) 0.0 0.0 .
131(6) 0.0 0.0 .
117(6) 0.0 0.0 .
130(6) 0.0 0.0 .
139(6) 0.0 0.0 .
152(6) 0.0 0.0 .
164(7) 0.0 0.0 .
187(7) 0.0 0.0 .
197(8) 0.0 0.0 .
194(7) 0.0 0.0 .
217(8) 0.0 0.0 .
210(8) 0.0 0.0 .
223(8) 0.0 0.0 .
224(8) 0.0 0.0 .
249(8) 0.0 0.0 .
248(8) 0.0 0.0 .
280(9) 0.0 0.0 .
290(9) 0.0 0.0 .
276(9) 0.0 0.0 .
282(9) 0.0 0.0 .
300(9) 0.0 0.0 .
293(9) 0.0 0.0 .
322(10) 0.0 0.0 .
318(9) 0.0 0.0 .
332(10) 0.0 0.0 .
342(10) 0.0 0.0 .
342(10) 0.0 0.0 .
358(10) 0.0 0.0 .
368(10) 0.0 0.0 .
380(10) 0.0 0.0 .
382(10) 0.0 0.0 .
390(11) 0.0 0.0 .
407(11) 0.0 0.0 .
419(11) 0.0 0.0 .
438(11) 0.0 0.0 .
425(11) 0.0 0.0 .
451(11) 0.0 0.0 .
462(12) 0.0 0.0 .
478(12) 0.0 0.0 .
489(11) 0.0 0.0 .
456(11) 0.0 0.0 .
467(11) 0.0 0.0 .
496(12) 0.0 0.0 .
472(12) 0.0 0.0 .
499(12) 0.0 0.0 .
516(12) 0.0 0.0 .
502(12) 0.0 0.0 .
504(12) 0.0 0.0 .
529(13) 0.0 0.0 .
481(11) 0.0 0.0 .
521(12) 0.0 0.0 .
538(12) 0.0 0.0 .
541(13) 0.0 0.0 .
539(13) 0.0 0.0 .
555(12) 0.0 0.0 .
558(12) 0.0 0.0 .
529(12) 0.0 0.0 .
567(13) 0.0 0.0 .
577(13) 0.0 0.0 .
542(12) 0.0 0.0 .
539(12) 0.0 0.0 .
580(13) 0.0 0.0 .
567(13) 0.0 0.0 .
580(13) 0.0 0.0 .
596(13) 0.0 0.0 .
614(13) 0.0 0.0 .
577(13) 0.0 0.0 .
598(13) 0.0 0.0 .
557(12) 0.0 0.0 .
596(13) 0.0 0.0 .
595(13) 0.0 0.0 .
605(14) 0.0 0.0 .
578(13) 0.0 0.0 .
598(13) 0.0 0.0 .
564(12) 0.0 0.0 .
611(13) 0.0 0.0 .
610(14) 0.0 0.0 .
621(13) 0.0 0.0 .
636(13) 0.0 0.0 .
601(13) 0.0 0.0 .
628(14) 0.0 0.0 .
607(14) 0.0 0.0 .
625(13) 0.0 0.0 .
670(14) 0.0 0.0 .
625(13) 0.0 0.0 .
618(13) 0.0 0.0 .
627(14) 0.0 0.0 .
664(14) 0.0 0.0 .
666(13) 0.0 0.0 .
645(13) 0.0 0.0 .
657(14) 0.0 0.0 .
665(14) 0.0 0.0 .
678(14) 0.0 0.0 .
658(13) 0.0 0.0 .
620(13) 0.0 0.0 .
686(14) 0.0 0.0 .
669(14) 0.0 0.0 .
670(14) 0.0 0.0 .
688(14) 0.0 0.0 .
689(14) 0.0 0.0 .
695(14) 0.0 0.0 .
701(15) 0.0 0.0 .
691(14) 0.0 0.0 .
676(13) 0.0 0.0 .
708(14) 0.0 0.0 .
726(14) 0.0 0.0 .
688(14) 0.0 0.0 .
718(14) 0.0 0.0 .
690(14) 0.0 0.0 .
729(14) 0.0 0.0 .
750(15) 0.0 0.0 .
720(15) 0.0 0.0 .
728(14) 0.0 0.0 .
747(14) 0.0 0.0 .
726(15) 0.0 0.0 .
721(15) 0.0 0.0 .
752(15) 0.0 0.0 .
760(15) 0.0 0.0 .
788(15) 0.0 0.0 .
768(15) 0.0 0.0 .
768(15) 0.0 0.0 .
767(15) 0.0 0.0 .
760(15) 0.0 0.0 .
742(14) 0.0 0.0 .
778(15) 0.0 0.0 .
835(16) 0.0 0.0 .
724(14) 0.0 0.0 .
756(14) 0.0 0.0 .
810(15) 0.0 0.0 .
784(15) 0.0 0.0 .
808(16) 0.0 0.0 .
741(15) 0.0 0.0 .
796(15) 0.0 0.0 .
835(15) 0.0 0.0 .
800(15) 0.0 0.0 .
788(16) 0.0 0.0 .
816(15) 0.0 0.0 .
796(15) 0.0 0.0 .
777(15) 0.0 0.0 .
803(15) 0.0 0.0 .
758(15) 0.0 0.0 .
809(15) 0.0 0.0 .
838(15) 0.0 0.0 .
821(15) 0.0 0.0 .
861(16) 0.0 0.0 .
806(15) 0.0 0.0 .
869(16) 0.0 0.0 .
832(15) 0.0 0.0 .
844(15) 0.0 0.0 .
818(15) 0.0 0.0 .
855(16) 0.0 0.0 .
824(16) 0.0 0.0 .
861(15) 0.0 0.0 .
842(15) 0.0 0.0 .
801(15) 0.0 0.0 .
863(16) 0.0 0.0 .
865(16) 0.0 0.0 .
868(15) 0.0 0.0 .
881(16) 0.0 0.0 .
892(16) 0.0 0.0 .
846(16) 0.0 0.0 .
913(16) 0.0 0.0 .
874(15) 0.0 0.0 .
866(16) 0.0 0.0 .
876(16) 0.0 0.0 .
876(16) 0.0 0.0 .
906(16) 0.0 0.0 .
847(15) 0.0 0.0 .
867(16) 0.0 0.0 .
881(16) 0.0 0.0 .
863(16) 0.0 0.0 .
856(15) 0.0 0.0 .
862(15) 0.0 0.0 .
890(16) 0.0 0.0 .
875(16) 0.0 0.0 .
941(17) 0.0 0.0 .
873(16) 0.0 0.0 .
890(15) 0.0 0.0 .
918(16) 0.0 0.0 .
903(17) 0.0 0.0 .
921(16) 0.0 0.0 .
883(15) 0.0 0.0 .
899(16) 0.0 0.0 .
946(17) 0.0 0.0 .
866(16) 0.0 0.0 .
913(16) 0.0 0.0 .
910(16) 0.0 0.0 .
874(15) 0.0 0.0 .
922(16) 0.0 0.0 .
952(17) 0.0 0.0 .
934(17) 0.0 0.0 .
925(16) 0.0 0.0 .
913(16) 0.0 0.0 .
962(17) 0.0 0.0 .
902(17) 0.0 0.0 .
910(16) 0.0 0.0 .
945(16) 0.0 0.0 .
934(16) 0.0 0.0 .
936(16) 0.0 0.0 .
933(17) 0.0 0.0 .
939(16) 0.0 0.0 .
979(16) 0.0 0.0 .
940(16) 0.0 0.0 .
942(17) 0.0 0.0 .
926(17) 0.0 0.0 .
955(17) 0.0 0.0 .
939(16) 0.0 0.0 .
963(16) 0.0 0.0 .
945(17) 0.0 0.0 .
984(17) 0.0 0.0 .
959(16) 0.0 0.0 .
963(16) 0.0 0.0 .
955(16) 0.0 0.0 .
1010(17) 0.0 0.0 .
943(17) 0.0 0.0 .
962(16) 0.0 0.0 .
967(16) 0.0 0.0 .
962(16) 0.0 0.0 .
977(17) 0.0 0.0 .
995(17) 0.0 0.0 .
1019(17) 0.0 0.0 .
989(16) 0.0 0.0 .
990(17) 0.0 0.0 .
999(17) 0.0 0.0 .
970(17) 0.0 0.0 .
1032(17) 0.0 0.0 .
983(16) 0.0 0.0 .
995(17) 0.0 0.0 .
1043(18) 0.0 0.0 .
1009(17) 0.0 0.0 .
1000(17) 0.0 0.0 .
1014(16) 0.0 0.0 .
1035(17) 0.0 0.0 .
1001(18) 0.0 0.0 .
1030(17) 0.0 0.0 .
1028(17) 0.0 0.0 .
1024(17) 0.0 0.0 .
1029(17) 0.0 0.0 .
1032(18) 0.0 0.0 .
1045(17) 0.0 0.0 .
1069(17) 0.0 0.0 .
1002(17) 0.0 0.0 .
1038(17) 0.0 0.0 .
1054(18) 0.0 0.0 .
1049(17) 0.0 0.0 .
1063(17) 0.0 0.0 .
1069(17) 0.0 0.0 .
1090(18) 0.0 0.0 .
1076(18) 0.0 0.0 .
1108(18) 0.0 0.0 .
1121(17) 0.0 0.0 .
1116(18) 0.0 0.0 .
1106(18) 0.0 0.0 .
1089(18) 0.0 0.0 .
1065(18) 0.0 0.0 .
1093(17) 0.0 0.0 .
1148(18) 0.0 0.0 .
1082(18) 0.0 0.0 .
1123(18) 0.0 0.0 .
1091(18) 0.0 0.0 .
1090(17) 0.0 0.0 .
1116(18) 0.0 0.0 .
1120(18) 0.0 0.0 .
1130(18) 0.0 0.0 .
1154(18) 0.0 0.0 .
1170(18) 0.0 0.0 .
1139(18) 0.0 0.0 .
1134(18) 0.0 0.0 .
1164(18) 0.0 0.0 .
1149(18) 0.0 0.0 .
1145(17) 0.0 0.0 .
1214(19) 0.0 0.0 .
1141(19) 0.0 0.0 .
1154(18) 0.0 0.0 .
1254(19) 0.0 0.0 .
1197(18) 0.0 0.0 .
1160(18) 0.0 0.0 .
1189(19) 0.0 0.0 .
1187(18) 0.0 0.0 .
1215(18) 0.0 0.0 .
1169(18) 0.0 0.0 .
1150(18) 0.0 0.0 .
1198(19) 0.0 0.0 .
1206(19) 0.0 0.0 .
1217(18) 0.0 0.0 .
1210(18) 0.0 0.0 .
1209(19) 0.0 0.0 .
1201(19) 0.0 0.0 .
1216(19) 0.0 0.0 .
1215(18) 0.0 0.0 .
1226(18) 0.0 0.0 .
1200(18) 0.0 0.0 .
1235(19) 0.0 0.0 .
1175(18) 0.0 0.0 .
1233(18) 0.0 0.0 .
1218(18) 0.0 0.0 .
1225(19) 0.0 0.0 .
1218(19) 0.0 0.0 .
1253(19) 0.0 0.0 .
1229(18) 0.0 0.0 .
1181(18) 0.0 0.0 .
1231(19) 0.0 0.0 .
1265(20) 0.0 0.0 .
1317(20) 0.0 0.0 .
1222(18) 0.0 0.0 .
1199(18) 0.0 0.0 .
1270(19) 0.0 0.0 .
1271(20) 0.0 0.0 .
1264(19) 0.0 0.0 .
1284(19) 0.0 0.0 .
1248(19) 0.0 0.0 .
1281(19) 0.0 0.0 .
1305(20) 0.0 0.0 .
1259(19) 0.0 0.0 .
1327(19) 0.0 0.0 .
1276(19) 0.0 0.0 .
1255(19) 0.0 0.0 .
1242(19) 0.0 0.0 .
1321(19) 0.0 0.0 .
1251(18) 0.0 0.0 .
1312(19) 0.0 0.0 .
1291(19) 0.0 0.0 .
1313(20) 0.0 0.0 .
1270(19) 0.0 0.0 .
1276(19) 0.0 0.0 .
1268(19) 0.0 0.0 .
1305(20) 0.0 0.0 .
1329(20) 0.0 0.0 .
1330(19) 0.0 0.0 .
1324(19) 0.0 0.0 .
1323(19) 0.0 0.0 .
1282(20) 0.0 0.0 .
1276(19) 0.0 0.0 .
1295(19) 0.0 0.0 .
1290(19) 0.0 0.0 .
1322(19) 0.0 0.0 .
1307(20) 0.0 0.0 .
1320(19) 0.0 0.0 .
1304(19) 0.0 0.0 .
1281(19) 0.0 0.0 .
1284(19) 0.0 0.0 .
1311(20) 0.0 0.0 .
1315(20) 0.0 0.0 .
1305(19) 0.0 0.0 .
1363(19) 0.0 0.0 .
1328(19) 0.0 0.0 .
1339(20) 0.0 0.0 .
1325(20) 0.0 0.0 .
1345(19) 0.0 0.0 .
1357(19) 0.0 0.0 .
1313(19) 0.0 0.0 .
1269(20) 0.0 0.0 .
1249(19) 0.0 0.0 .
1277(18) 0.0 0.0 .
1317(19) 0.0 0.0 .
1310(20) 0.0 0.0 .
1322(20) 0.0 0.0 .
1300(19) 0.0 0.0 .
1314(19) 0.0 0.0 .
1281(19) 0.0 0.0 .
1312(20) 0.0 0.0 .
1345(20) 0.0 0.0 .
1348(20) 0.0 0.0 .
1332(19) 0.0 0.0 .
1403(20) 0.0 0.0 .
1334(20) 0.0 0.0 .
1348(20) 0.0 0.0 .
1360(19) 0.0 0.0 .
1326(19) 0.0 0.0 .
1355(20) 0.0 0.0 .
1333(20) 0.0 0.0 .
1299(19) 0.0 0.0 .
1343(19) 0.0 0.0 .
1321(19) 0.0 0.0 .
1323(20) 0.0 0.0 .
1282(20) 0.0 0.0 .
1313(20) 0.0 0.0 .
1347(19) 0.0 0.0 .
1334(19) 0.0 0.0 .
1281(19) 0.0 0.0 .
1368(20) 0.0 0.0 .
1348(20) 0.0 0.0 .
1353(19) 0.0 0.0 .
1260(18) 0.0 0.0 .
1353(20) 0.0 0.0 .
1290(20) 0.0 0.0 .
1342(20) 0.0 0.0 .
1333(19) 0.0 0.0 .
1327(19) 0.0 0.0 .
1273(19) 0.0 0.0 .
1349(21) 0.0 0.0 .
1303(19) 0.0 0.0 .
1325(19) 0.0 0.0 .
1281(19) 0.0 0.0 .
1286(19) 0.0 0.0 .
1319(20) 0.0 0.0 .
1291(19) 0.0 0.0 .
1324(19) 0.0 0.0 .
1332(19) 0.0 0.0 .
1293(19) 0.0 0.0 .
1268(20) 0.0 0.0 .
1257(19) 0.0 0.0 .
1336(19) 0.0 0.0 .
1331(19) 0.0 0.0 .
1279(19) 0.0 0.0 .
1299(20) 0.0 0.0 .
1339(20) 0.0 0.0 .
1286(19) 0.0 0.0 .
1284(19) 0.0 0.0 .
1305(20) 0.0 0.0 .
1277(19) 0.0 0.0 .
1292(19) 0.0 0.0 .
1304(19) 0.0 0.0 .
1283(19) 0.0 0.0 .
1313(20) 0.0 0.0 .
1332(20) 0.0 0.0 .
1334(20) 0.0 0.0 .
1265(18) 0.0 0.0 .
1294(19) 0.0 0.0 .
1320(20) 0.0 0.0 .
1285(19) 0.0 0.0 .
1301(19) 0.0 0.0 .
1289(19) 0.0 0.0 .
1324(20) 0.0 0.0 .
1272(19) 0.0 0.0 .
1302(19) 0.0 0.0 .
1261(19) 0.0 0.0 .
1319(19) 0.0 0.0 .
1302(19) 0.0 0.0 .
1292(20) 0.0 0.0 .
1270(19) 0.0 0.0 .
1277(19) 0.0 0.0 .
1311(19) 0.0 0.0 .
1308(19) 0.0 0.0 .
1313(20) 0.0 0.0 .
1316(19) 0.0 0.0 .
1329(19) 0.0 0.0 .
1303(19) 0.0 0.0 .
1306(19) 0.0 0.0 .
1299(20) 0.0 0.0 .
1294(19) 0.0 0.0 .
1311(19) 0.0 0.0 .
1276(19) 0.0 0.0 .
1263(19) 0.0 0.0 .
1253(19) 0.0 0.0 .
1256(19) 0.0 0.0 .
1256(18) 0.0 0.0 .
1259(19) 0.0 0.0 .
1289(19) 0.0 0.0 .
1340(20) 0.0 0.0 .
1241(19) 0.0 0.0 .
1290(19) 0.0 0.0 .
1274(19) 0.0 0.0 .
1255(19) 0.0 0.0 .
1238(19) 0.0 0.0 .
1272(19) 0.0 0.0 .
1268(18) 0.0 0.0 .
1316(19) 0.0 0.0 .
1286(19) 0.0 0.0 .
1300(20) 0.0 0.0 .
1228(19) 0.0 0.0 .
1243(18) 0.0 0.0 .
1336(19) 0.0 0.0 .
1250(19) 0.0 0.0 .
1307(20) 0.0 0.0 .
1245(19) 0.0 0.0 .
1253(18) 0.0 0.0 .
1290(19) 0.0 0.0 .
1322(20) 0.0 0.0 .
1274(19) 0.0 0.0 .
1252(19) 0.0 0.0 .
1226(18) 0.0 0.0 .
1267(19) 0.0 0.0 .
1259(19) 0.0 0.0 .
1255(19) 0.0 0.0 .
1236(18) 0.0 0.0 .
1266(18) 0.0 0.0 .
1266(19) 0.0 0.0 .
1256(20) 0.0 0.0 .
1222(19) 0.0 0.0 .
1218(18) 0.0 0.0 .
1308(19) 0.0 0.0 .
1234(19) 0.0 0.0 .
1242(20) 0.0 0.0 .
1223(19) 0.0 0.0 .
1210(18) 0.0 0.0 .
1276(19) 0.0 0.0 .
1198(18) 0.0 0.0 .
1256(20) 0.0 0.0 .
1238(19) 0.0 0.0 .
1273(19) 0.0 0.0 .
1187(18) 0.0 0.0 .
1258(19) 0.0 0.0 .
1234(20) 0.0 0.0 .
1207(19) 0.0 0.0 .
1276(19) 0.0 0.0 .
1258(18) 0.0 0.0 .
1229(19) 0.0 0.0 .
1184(19) 0.0 0.0 .
1261(19) 0.0 0.0 .
1235(18) 0.0 0.0 .
1275(19) 0.0 0.0 .
1264(19) 0.0 0.0 .
1206(19) 0.0 0.0 .
1240(19) 0.0 0.0 .
1270(18) 0.0 0.0 .
1204(18) 0.0 0.0 .
1220(19) 0.0 0.0 .
1253(19) 0.0 0.0 .
1243(19) 0.0 0.0 .
1229(18) 0.0 0.0 .
1243(19) 0.0 0.0 .
1261(19) 0.0 0.0 .
1212(19) 0.0 0.0 .
1259(19) 0.0 0.0 .
1221(18) 0.0 0.0 .
1208(19) 0.0 0.0 .
1209(19) 0.0 0.0 .
1194(19) 0.0 0.0 .
1181(18) 0.0 0.0 .
1203(18) 0.0 0.0 .
1159(18) 0.0 0.0 .
1220(19) 0.0 0.0 .
1231(19) 0.0 0.0 .
1183(18) 0.0 0.0 .
1213(18) 0.0 0.0 .
1230(19) 0.0 0.0 .
1216(19) 0.0 0.0 .
1192(19) 0.0 0.0 .
1178(18) 0.0 0.0 .
1190(18) 0.0 0.0 .
1173(18) 0.0 0.0 .
1203(19) 0.0 0.0 .
1206(19) 0.0 0.0 .
1188(18) 0.0 0.0 .
1162(18) 0.0 0.0 .
1167(18) 0.0 0.0 .
1167(19) 0.0 0.0 .
1187(18) 0.0 0.0 .
1167(18) 0.0 0.0 .
1194(18) 0.0 0.0 .
1154(18) 0.0 0.0 .
1162(19) 0.0 0.0 .
1216(19) 0.0 0.0 .
1211(18) 0.0 0.0 .
1188(18) 0.0 0.0 .
1141(18) 0.0 0.0 .
1162(19) 0.0 0.0 .
1143(18) 0.0 0.0 .
1141(18) 0.0 0.0 .
1177(18) 0.0 0.0 .
1196(19) 0.0 0.0 .
1134(18) 0.0 0.0 .
1176(18) 0.0 0.0 .
1197(18) 0.0 0.0 .
1163(18) 0.0 0.0 .
1173(19) 0.0 0.0 .
1173(19) 0.0 0.0 .
1142(18) 0.0 0.0 .
1189(18) 0.0 0.0 .
1171(18) 0.0 0.0 .
1147(18) 0.0 0.0 .
1153(19) 0.0 0.0 .
1130(18) 0.0 0.0 .
1205(18) 0.0 0.0 .
1198(18) 0.0 0.0 .
1171(18) 0.0 0.0 .
1113(18) 0.0 0.0 .
1153(18) 0.0 0.0 .
1170(18) 0.0 0.0 .
1186(18) 0.0 0.0 .
1166(19) 0.0 0.0 .
1161(18) 0.0 0.0 .
1111(18) 0.0 0.0 .
1116(17) 0.0 0.0 .
1128(18) 0.0 0.0 .
1160(19) 0.0 0.0 .
1136(18) 0.0 0.0 .
1147(18) 0.0 0.0 .
1100(17) 0.0 0.0 .
1132(18) 0.0 0.0 .
1086(18) 0.0 0.0 .
1158(18) 0.0 0.0 .
1111(17) 0.0 0.0 .
1122(17) 0.0 0.0 .
1128(18) 0.0 0.0 .
1130(19) 0.0 0.0 .
1144(18) 0.0 0.0 .
1163(18) 0.0 0.0 .
1158(18) 0.0 0.0 .
1186(18) 0.0 0.0 .
1127(18) 0.0 0.0 .
1148(18) 0.0 0.0 .
1150(18) 0.0 0.0 .
1199(18) 0.0 0.0 .
1117(18) 0.0 0.0 .
1131(19) 0.0 0.0 .
1099(18) 0.0 0.0 .
1140(18) 0.0 0.0 .
1108(17) 0.0 0.0 .
1101(18) 0.0 0.0 .
1091(18) 0.0 0.0 .
1093(18) 0.0 0.0 .
1125(17) 0.0 0.0 .
1127(18) 0.0 0.0 .
1089(18) 0.0 0.0 .
1091(18) 0.0 0.0 .
1103(18) 0.0 0.0 .
1105(17) 0.0 0.0 .
1130(18) 0.0 0.0 .
1119(18) 0.0 0.0 .
1096(18) 0.0 0.0 .
1127(18) 0.0 0.0 .
1088(17) 0.0 0.0 .
1135(18) 0.0 0.0 .
1086(18) 0.0 0.0 .
1107(18) 0.0 0.0 .
1131(18) 0.0 0.0 .
1039(17) 0.0 0.0 .
1061(17) 0.0 0.0 .
1123(18) 0.0 0.0 .
1062(18) 0.0 0.0 .
1067(17) 0.0 0.0 .
1058(17) 0.0 0.0 .
1077(18) 0.0 0.0 .
1086(18) 0.0 0.0 .
1083(18) 0.0 0.0 .
1077(17) 0.0 0.0 .
1116(17) 0.0 0.0 .
1103(18) 0.0 0.0 .
1098(18) 0.0 0.0 .
1103(18) 0.0 0.0 .
1064(17) 0.0 0.0 .
1087(17) 0.0 0.0 .
1072(17) 0.0 0.0 .
1073(18) 0.0 0.0 .
1062(17) 0.0 0.0 .
1076(17) 0.0 0.0 .
1080(17) 0.0 0.0 .
1078(18) 0.0 0.0 .
1050(18) 0.0 0.0 .
1037(17) 0.0 0.0 .
1101(17) 0.0 0.0 .
1064(17) 0.0 0.0 .
1029(17) 0.0 0.0 .
1028(18) 0.0 0.0 .
1077(18) 0.0 0.0 .
1073(17) 0.0 0.0 .
1070(17) 0.0 0.0 .
1065(18) 0.0 0.0 .
1069(18) 0.0 0.0 .
1102(18) 0.0 0.0 .
1075(17) 0.0 0.0 .
1090(17) 0.0 0.0 .
1061(18) 0.0 0.0 .
1041(17) 0.0 0.0 .
1073(18) 0.0 0.0 .
1066(17) 0.0 0.0 .
1070(17) 0.0 0.0 .
1079(18) 0.0 0.0 .
1053(18) 0.0 0.0 .
1037(17) 0.0 0.0 .
1039(17) 0.0 0.0 .
1073(17) 0.0 0.0 .
1088(18) 0.0 0.0 .
1054(18) 0.0 0.0 .
1060(17) 0.0 0.0 .
1057(17) 0.0 0.0 .
1019(17) 0.0 0.0 .
1036(17) 0.0 0.0 .
1092(18) 0.0 0.0 .
1060(17) 0.0 0.0 .
1024(17) 0.0 0.0 .
1008(17) 0.0 0.0 .
1051(18) 0.0 0.0 .
969(17) 0.0 0.0 .
1064(17) 0.0 0.0 .
1037(17) 0.0 0.0 .
1025(17) 0.0 0.0 .
1054(18) 0.0 0.0 .
1004(17) 0.0 0.0 .
997(17) 0.0 0.0 .
1030(17) 0.0 0.0 .
1043(17) 0.0 0.0 .
1034(18) 0.0 0.0 .
1040(17) 0.0 0.0 .
1021(17) 0.0 0.0 .
1011(17) 0.0 0.0 .
1089(18) 0.0 0.0 .
1022(18) 0.0 0.0 .
1000(17) 0.0 0.0 .
1010(17) 0.0 0.0 .
999(16) 0.0 0.0 .
1049(17) 0.0 0.0 .
1070(18) 0.0 0.0 .
1005(17) 0.0 0.0 .
1072(17) 0.0 0.0 .
1060(17) 0.0 0.0 .
1015(17) 0.0 0.0 .
1057(18) 0.0 0.0 .
1019(17) 0.0 0.0 .
1006(17) 0.0 0.0 .
1022(17) 0.0 0.0 .
1004(17) 0.0 0.0 .
1027(18) 0.0 0.0 .
1044(17) 0.0 0.0 .
1039(17) 0.0 0.0 .
966(16) 0.0 0.0 .
1018(17) 0.0 0.0 .
1018(18) 0.0 0.0 .
1009(17) 0.0 0.0 .
967(16) 0.0 0.0 .
1014(17) 0.0 0.0 .
1009(17) 0.0 0.0 .
1000(17) 0.0 0.0 .
1002(17) 0.0 0.0 .
989(16) 0.0 0.0 .
987(17) 0.0 0.0 .
1001(17) 0.0 0.0 .
1000(17) 0.0 0.0 .
956(16) 0.0 0.0 .
1002(16) 0.0 0.0 .
969(17) 0.0 0.0 .
933(17) 0.0 0.0 .
977(17) 0.0 0.0 .
987(17) 0.0 0.0 .
996(16) 0.0 0.0 .
1000(17) 0.0 0.0 .
1043(18) 0.0 0.0 .
1005(17) 0.0 0.0 .
974(16) 0.0 0.0 .
1004(16) 0.0 0.0 .
1016(17) 0.0 0.0 .
977(17) 0.0 0.0 .
962(16) 0.0 0.0 .
1012(17) 0.0 0.0 .
1015(16) 0.0 0.0 .
1001(17) 0.0 0.0 .
984(17) 0.0 0.0 .
972(17) 0.0 0.0 .
966(16) 0.0 0.0 .
985(16) 0.0 0.0 .
952(17) 0.0 0.0 .
976(18) 0.0 0.0 .
981(17) 0.0 0.0 .
1020(17) 0.0 0.0 .
968(16) 0.0 0.0 .
964(17) 0.0 0.0 .
971(17) 0.0 0.0 .
1015(17) 0.0 0.0 .
957(16) 0.0 0.0 .
1014(17) 0.0 0.0 .
978(17) 0.0 0.0 .
970(17) 0.0 0.0 .
994(17) 0.0 0.0 .
952(16) 0.0 0.0 .
952(16) 0.0 0.0 .
963(17) 0.0 0.0 .
965(17) 0.0 0.0 .
943(16) 0.0 0.0 .
952(16) 0.0 0.0 .
970(16) 0.0 0.0 .
1011(17) 0.0 0.0 .
971(17) 0.0 0.0 .
968(17) 0.0 0.0 .
952(16) 0.0 0.0 .
943(16) 0.0 0.0 .
938(16) 0.0 0.0 .
948(17) 0.0 0.0 .
960(17) 0.0 0.0 .
943(16) 0.0 0.0 .
946(17) 0.0 0.0 .
953(17) 0.0 0.0 .
962(17) 0.0 0.0 .
942(16) 0.0 0.0 .
968(16) 0.0 0.0 .
974(17) 0.0 0.0 .
964(17) 0.0 0.0 .
918(16) 0.0 0.0 .
954(16) 0.0 0.0 .
926(16) 0.0 0.0 .
986(17) 0.0 0.0 .
919(17) 0.0 0.0 .
944(17) 0.0 0.0 .
944(16) 0.0 0.0 .
959(16) 0.0 0.0 .
929(16) 0.0 0.0 .
934(17) 0.0 0.0 .
922(16) 0.0 0.0 .
942(16) 0.0 0.0 .
907(16) 0.0 0.0 .
963(17) 0.0 0.0 .
942(17) 0.0 0.0 .
943(16) 0.0 0.0 .
983(16) 0.0 0.0 .
947(16) 0.0 0.0 .
947(16) 0.0 0.0 .
948(17) 0.0 0.0 .
934(16) 0.0 0.0 .
892(15) 0.0 0.0 .
934(16) 0.0 0.0 .
947(17) 0.0 0.0 .
918(17) 0.0 0.0 .
903(16) 0.0 0.0 .
905(16) 0.0 0.0 .
959(16) 0.0 0.0 .
946(17) 0.0 0.0 .
899(17) 0.0 0.0 .
914(17) 0.0 0.0 .
951(16) 0.0 0.0 .
932(16) 0.0 0.0 .
926(16) 0.0 0.0 .
918(17) 0.0 0.0 .
886(16) 0.0 0.0 .
955(16) 0.0 0.0 .
937(16) 0.0 0.0 .
930(17) 0.0 0.0 .
913(17) 0.0 0.0 .
967(17) 0.0 0.0 .
930(16) 0.0 0.0 .
914(16) 0.0 0.0 .
937(17) 0.0 0.0 .
952(17) 0.0 0.0 .
930(16) 0.0 0.0 .
908(16) 0.0 0.0 .
943(17) 0.0 0.0 .
938(17) 0.0 0.0 .
919(16) 0.0 0.0 .
910(16) 0.0 0.0 .
908(16) 0.0 0.0 .
928(16) 0.0 0.0 .
899(16) 0.0 0.0 .
912(16) 0.0 0.0 .
881(16) 0.0 0.0 .
898(16) 0.0 0.0 .
881(16) 0.0 0.0 .
895(16) 0.0 0.0 .
910(16) 0.0 0.0 .
921(16) 0.0 0.0 .
887(15) 0.0 0.0 .
912(16) 0.0 0.0 .
908(17) 0.0 0.0 .
905(16) 0.0 0.0 .
908(16) 0.0 0.0 .
916(16) 0.0 0.0 .
907(16) 0.0 0.0 .
901(17) 0.0 0.0 .
919(16) 0.0 0.0 .
911(16) 0.0 0.0 .
903(16) 0.0 0.0 .
887(16) 0.0 0.0 .
900(16) 0.0 0.0 .
898(16) 0.0 0.0 .
893(15) 0.0 0.0 .
880(16) 0.0 0.0 .
874(16) 0.0 0.0 .
858(16) 0.0 0.0 .
873(16) 0.0 0.0 .
889(15) 0.0 0.0 .
895(16) 0.0 0.0 .
863(16) 0.0 0.0 .
877(16) 0.0 0.0 .
878(16) 0.0 0.0 .
893(15) 0.0 0.0 .
919(16) 0.0 0.0 .
900(16) 0.0 0.0 .
895(16) 0.0 0.0 .
861(16) 0.0 0.0 .
857(15) 0.0 0.0 .
881(16) 0.0 0.0 .
896(16) 0.0 0.0 .
822(15) 0.0 0.0 .
903(16) 0.0 0.0 .
893(16) 0.0 0.0 .
848(16) 0.0 0.0 .
856(16) 0.0 0.0 .
869(16) 0.0 0.0 .
904(16) 0.0 0.0 .
896(16) 0.0 0.0 .
891(16) 0.0 0.0 .
886(16) 0.0 0.0 .
859(16) 0.0 0.0 .
864(15) 0.0 0.0 .
891(15) 0.0 0.0 .
844(16) 0.0 0.0 .
843(16) 0.0 0.0 .
878(16) 0.0 0.0 .
868(15) 0.0 0.0 .
862(15) 0.0 0.0 .
866(16) 0.0 0.0 .
810(16) 0.0 0.0 .
819(15) 0.0 0.0 .
837(15) 0.0 0.0 .
864(15) 0.0 0.0 .
866(16) 0.0 0.0 .
833(16) 0.0 0.0 .
832(15) 0.0 0.0 .
866(15) 0.0 0.0 .
829(15) 0.0 0.0 .
837(16) 0.0 0.0 .
875(16) 0.0 0.0 .
911(16) 0.0 0.0 .
862(15) 0.0 0.0 .
897(16) 0.0 0.0 .
873(16) 0.0 0.0 .
874(16) 0.0 0.0 .
865(16) 0.0 0.0 .
832(15) 0.0 0.0 .
842(15) 0.0 0.0 .
837(16) 0.0 0.0 .
861(16) 0.0 0.0 .
822(15) 0.0 0.0 .
839(15) 0.0 0.0 .
815(15) 0.0 0.0 .
832(16) 0.0 0.0 .
836(16) 0.0 0.0 .
804(15) 0.0 0.0 .
804(15) 0.0 0.0 .
887(16) 0.0 0.0 .
858(16) 0.0 0.0 .
856(16) 0.0 0.0 .
861(16) 0.0 0.0 .
826(15) 0.0 0.0 .
854(16) 0.0 0.0 .
839(16) 0.0 0.0 .
814(15) 0.0 0.0 .
838(15) 0.0 0.0 .
828(15) 0.0 0.0 .
803(15) 0.0 0.0 .
811(16) 0.0 0.0 .
783(15) 0.0 0.0 .
863(15) 0.0 0.0 .
826(15) 0.0 0.0 .
832(15) 0.0 0.0 .
806(16) 0.0 0.0 .
788(15) 0.0 0.0 .
842(15) 0.0 0.0 .
858(15) 0.0 0.0 .
842(16) 0.0 0.0 .
818(16) 0.0 0.0 .
765(15) 0.0 0.0 .
764(14) 0.0 0.0 .
826(15) 0.0 0.0 .
826(15) 0.0 0.0 .
788(16) 0.0 0.0 .
827(15) 0.0 0.0 .
815(15) 0.0 0.0 .
843(15) 0.0 0.0 .
833(16) 0.0 0.0 .
810(16) 0.0 0.0 .
812(15) 0.0 0.0 .
814(15) 0.0 0.0 .
791(15) 0.0 0.0 .
826(15) 0.0 0.0 .
761(15) 0.0 0.0 .
791(15) 0.0 0.0 .
830(15) 0.0 0.0 .
858(15) 0.0 0.0 .
806(15) 0.0 0.0 .
783(15) 0.0 0.0 .
826(16) 0.0 0.0 .
802(15) 0.0 0.0 .
829(15) 0.0 0.0 .
799(15) 0.0 0.0 .
802(16) 0.0 0.0 .
819(15) 0.0 0.0 .
773(14) 0.0 0.0 .
797(15) 0.0 0.0 .
835(16) 0.0 0.0 .
766(15) 0.0 0.0 .
811(15) 0.0 0.0 .
802(15) 0.0 0.0 .
768(15) 0.0 0.0 .
766(15) 0.0 0.0 .
763(15) 0.0 0.0 .
772(15) 0.0 0.0 .
754(14) 0.0 0.0 .
765(15) 0.0 0.0 .
771(15) 0.0 0.0 .
777(15) 0.0 0.0 .
813(15) 0.0 0.0 .
827(15) 0.0 0.0 .
825(15) 0.0 0.0 .
813(16) 0.0 0.0 .
791(15) 0.0 0.0 .
767(15) 0.0 0.0 .
758(14) 0.0 0.0 .
781(15) 0.0 0.0 .
802(16) 0.0 0.0 .
798(15) 0.0 0.0 .
804(15) 0.0 0.0 .
803(15) 0.0 0.0 .
760(15) 0.0 0.0 .
816(16) 0.0 0.0 .
791(15) 0.0 0.0 .
755(14) 0.0 0.0 .
789(15) 0.0 0.0 .
762(15) 0.0 0.0 .
793(16) 0.0 0.0 .
754(15) 0.0 0.0 .
761(14) 0.0 0.0 .
802(15) 0.0 0.0 .
823(15) 0.0 0.0 .
776(15) 0.0 0.0 .
789(15) 0.0 0.0 .
750(14) 0.0 0.0 .
772(15) 0.0 0.0 .
776(15) 0.0 0.0 .
758(15) 0.0 0.0 .
783(15) 0.0 0.0 .
794(15) 0.0 0.0 .
765(15) 0.0 0.0 .
763(15) 0.0 0.0 .
743(15) 0.0 0.0 .
793(15) 0.0 0.0 .
801(15) 0.0 0.0 .
783(15) 0.0 0.0 .
766(15) 0.0 0.0 .
741(15) 0.0 0.0 .
754(15) 0.0 0.0 .
742(14) 0.0 0.0 .
762(15) 0.0 0.0 .
772(15) 0.0 0.0 .
789(15) 0.0 0.0 .
766(15) 0.0 0.0 .
748(14) 0.0 0.0 .
726(15) 0.0 0.0 .
779(15) 0.0 0.0 .
767(15) 0.0 0.0 .
763(15) 0.0 0.0 .
747(14) 0.0 0.0 .
727(14) 0.0 0.0 .
774(15) 0.0 0.0 .
766(15) 0.0 0.0 .
745(14) 0.0 0.0 .
740(14) 0.0 0.0 .
794(15) 0.0 0.0 .
725(15) 0.0 0.0 .
744(15) 0.0 0.0 .
778(14) 0.0 0.0 .
771(14) 0.0 0.0 .
744(15) 0.0 0.0 .
748(15) 0.0 0.0 .
767(15) 0.0 0.0 .
757(14) 0.0 0.0 .
751(14) 0.0 0.0 .
746(15) 0.0 0.0 .
766(15) 0.0 0.0 .
781(15) 0.0 0.0 .
751(14) 0.0 0.0 .
741(14) 0.0 0.0 .
742(15) 0.0 0.0 .
733(15) 0.0 0.0 .
723(14) 0.0 0.0 .
797(15) 0.0 0.0 .
736(14) 0.0 0.0 .
766(15) 0.0 0.0 .
734(15) 0.0 0.0 .
727(14) 0.0 0.0 .
764(14) 0.0 0.0 .
772(14) 0.0 0.0 .
779(15) 0.0 0.0 .
742(15) 0.0 0.0 .
761(15) 0.0 0.0 .
750(14) 0.0 0.0 .
775(15) 0.0 0.0 .
727(14) 0.0 0.0 .
751(15) 0.0 0.0 .
758(15) 0.0 0.0 .
733(14) 0.0 0.0 .
742(15) 0.0 0.0 .
749(15) 0.0 0.0 .
757(15) 0.0 0.0 .
733(14) 0.0 0.0 .
727(14) 0.0 0.0 .
748(15) 0.0 0.0 .
751(15) 0.0 0.0 .
748(15) 0.0 0.0 .
772(15) 0.0 0.0 .
742(14) 0.0 0.0 .
726(14) 0.0 0.0 .
755(15) 0.0 0.0 .
745(15) 0.0 0.0 .
719(14) 0.0 0.0 .
747(14) 0.0 0.0 .
758(15) 0.0 0.0 .
708(15) 0.0 0.0 .
726(15) 0.0 0.0 .
721(14) 0.0 0.0 .
757(14) 0.0 0.0 .
759(15) 0.0 0.0 .
744(15) 0.0 0.0 .
745(15) 0.0 0.0 .
738(14) 0.0 0.0 .
746(14) 0.0 0.0 .
714(14) 0.0 0.0 .
742(15) 0.0 0.0 .
741(15) 0.0 0.0 .
684(14) 0.0 0.0 .
746(14) 0.0 0.0 .
763(15) 0.0 0.0 .
754(15) 0.0 0.0 .
750(15) 0.0 0.0 .
726(14) 0.0 0.0 .
754(14) 0.0 0.0 .
719(14) 0.0 0.0 .
713(15) 0.0 0.0 .
739(15) 0.0 0.0 .
696(14) 0.0 0.0 .
737(14) 0.0 0.0 .
739(15) 0.0 0.0 .
728(15) 0.0 0.0 .
725(15) 0.0 0.0 .
720(14) 0.0 0.0 .
737(14) 0.0 0.0 .
720(15) 0.0 0.0 .
713(15) 0.0 0.0 .
738(15) 0.0 0.0 .
730(14) 0.0 0.0 .
702(14) 0.0 0.0 .
748(15) 0.0 0.0 .
738(15) 0.0 0.0 .
713(14) 0.0 0.0 .
721(14) 0.0 0.0 .
689(14) 0.0 0.0 .
707(15) 0.0 0.0 .
724(15) 0.0 0.0 .
679(14) 0.0 0.0 .
738(14) 0.0 0.0 .
724(14) 0.0 0.0 .
712(15) 0.0 0.0 .
693(14) 0.0 0.0 .
702(14) 0.0 0.0 .
752(14) 0.0 0.0 .
733(15) 0.0 0.0 .
716(15) 0.0 0.0 .
704(14) 0.0 0.0 .
733(14) 0.0 0.0 .
734(14) 0.0 0.0 .
682(14) 0.0 0.0 .
734(15) 0.0 0.0 .
713(14) 0.0 0.0 .
705(14) 0.0 0.0 .
675(13) 0.0 0.0 .
703(14) 0.0 0.0 .
689(14) 0.0 0.0 .
722(14) 0.0 0.0 .
756(14) 0.0 0.0 .
724(14) 0.0 0.0 .
694(14) 0.0 0.0 .
704(15) 0.0 0.0 .
691(14) 0.0 0.0 .
716(14) 0.0 0.0 .
695(14) 0.0 0.0 .
699(14) 0.0 0.0 .
686(15) 0.0 0.0 .
669(14) 0.0 0.0 .
795(15) 0.0 0.0 .
740(14) 0.0 0.0 .
690(14) 0.0 0.0 .
715(15) 0.0 0.0 .
748(15) 0.0 0.0 .
702(14) 0.0 0.0 .
697(14) 0.0 0.0 .
684(14) 0.0 0.0 .
712(15) 0.0 0.0 .
706(14) 0.0 0.0 .
714(14) 0.0 0.0 .
703(14) 0.0 0.0 .
714(14) 0.0 0.0 .
737(15) 0.0 0.0 .
716(14) 0.0 0.0 .
667(13) 0.0 0.0 .
683(14) 0.0 0.0 .
717(15) 0.0 0.0 .
680(14) 0.0 0.0 .
685(14) 0.0 0.0 .
684(14) 0.0 0.0 .
721(15) 0.0 0.0 .
707(15) 0.0 0.0 .
711(14) 0.0 0.0 .
687(14) 0.0 0.0 .
693(14) 0.0 0.0 .
691(14) 0.0 0.0 .
663(14) 0.0 0.0 .
686(14) 0.0 0.0 .
725(14) 0.0 0.0 .
715(14) 0.0 0.0 .
687(14) 0.0 0.0 .
742(15) 0.0 0.0 .
730(14) 0.0 0.0 .
693(14) 0.0 0.0 .
696(14) 0.0 0.0 .
688(14) 0.0 0.0 .
693(15) 0.0 0.0 .
709(14) 0.0 0.0 .
658(13) 0.0 0.0 .
651(13) 0.0 0.0 .
715(14) 0.0 0.0 .
674(14) 0.0 0.0 .
672(14) 0.0 0.0 .
660(13) 0.0 0.0 .
708(14) 0.0 0.0 .
658(14) 0.0 0.0 .
678(15) 0.0 0.0 .
685(14) 0.0 0.0 .
667(13) 0.0 0.0 .
694(14) 0.0 0.0 .
678(14) 0.0 0.0 .
707(15) 0.0 0.0 .
705(14) 0.0 0.0 .
687(14) 0.0 0.0 .
668(14) 0.0 0.0 .
685(14) 0.0 0.0 .
641(14) 0.0 0.0 .
693(14) 0.0 0.0 .
701(14) 0.0 0.0 .
677(14) 0.0 0.0 .
684(14) 0.0 0.0 .
681(14) 0.0 0.0 .
666(14) 0.0 0.0 .
673(13) 0.0 0.0 .
678(14) 0.0 0.0 .
686(14) 0.0 0.0 .
700(14) 0.0 0.0 .
692(14) 0.0 0.0 .
696(14) 0.0 0.0 .
701(14) 0.0 0.0 .
666(14) 0.0 0.0 .
681(14) 0.0 0.0 .
665(14) 0.0 0.0 .
673(13) 0.0 0.0 .
643(14) 0.0 0.0 .
680(14) 0.0 0.0 .
700(14) 0.0 0.0 .
671(14) 0.0 0.0 .
670(13) 0.0 0.0 .
672(14) 0.0 0.0 .
682(14) 0.0 0.0 .
697(14) 0.0 0.0 .
681(14) 0.0 0.0 .
713(14) 0.0 0.0 .
703(14) 0.0 0.0 .
719(15) 0.0 0.0 .
689(14) 0.0 0.0 .
683(14) 0.0 0.0 .
687(14) 0.0 0.0 .
679(14) 0.0 0.0 .
657(14) 0.0 0.0 .
669(14) 0.0 0.0 .
685(14) 0.0 0.0 .
675(14) 0.0 0.0 .
684(14) 0.0 0.0 .
679(14) 0.0 0.0 .
665(14) 0.0 0.0 .
668(13) 0.0 0.0 .
651(13) 0.0 0.0 .
685(14) 0.0 0.0 .
674(14) 0.0 0.0 .
686(14) 0.0 0.0 .
654(13) 0.0 0.0 .
676(14) 0.0 0.0 .
693(14) 0.0 0.0 .
692(14) 0.0 0.0 .
695(14) 0.0 0.0 .
716(14) 0.0 0.0 .
669(14) 0.0 0.0 .
678(14) 0.0 0.0 .
662(14) 0.0 0.0 .
675(14) 0.0 0.0 .
659(13) 0.0 0.0 .
696(14) 0.0 0.0 .
705(14) 0.0 0.0 .
688(14) 0.0 0.0 .
698(14) 0.0 0.0 .
683(14) 0.0 0.0 .
683(14) 0.0 0.0 .
704(15) 0.0 0.0 .
672(14) 0.0 0.0 .
641(13) 0.0 0.0 .
658(13) 0.0 0.0 .
657(14) 0.0 0.0 .
669(14) 0.0 0.0 .
692(14) 0.0 0.0 .
684(14) 0.0 0.0 .
747(14) 0.0 0.0 .
702(14) 0.0 0.0 .
676(14) 0.0 0.0 .
660(14) 0.0 0.0 .
672(14) 0.0 0.0 .
688(14) 0.0 0.0 .
687(14) 0.0 0.0 .
687(15) 0.0 0.0 .
686(14) 0.0 0.0 .
691(14) 0.0 0.0 .
655(13) 0.0 0.0 .
635(13) 0.0 0.0 .
682(15) 0.0 0.0 .
662(14) 0.0 0.0 .
655(13) 0.0 0.0 .
692(14) 0.0 0.0 .
673(14) 0.0 0.0 .
699(15) 0.0 0.0 .
695(14) 0.0 0.0 .
690(14) 0.0 0.0 .
686(14) 0.0 0.0 .
694(14) 0.0 0.0 .
714(15) 0.0 0.0 .
686(14) 0.0 0.0 .
659(13) 0.0 0.0 .
681(14) 0.0 0.0 .
723(15) 0.0 0.0 .
656(14) 0.0 0.0 .
673(14) 0.0 0.0 .
680(14) 0.0 0.0 .
688(14) 0.0 0.0 .
685(14) 0.0 0.0 .
652(14) 0.0 0.0 .
677(14) 0.0 0.0 .
719(14) 0.0 0.0 .
690(14) 0.0 0.0 .
675(14) 0.0 0.0 .
680(14) 0.0 0.0 .
671(14) 0.0 0.0 .
673(13) 0.0 0.0 .
653(14) 0.0 0.0 .
686(14) 0.0 0.0 .
689(14) 0.0 0.0 .
706(14) 0.0 0.0 .
689(14) 0.0 0.0 .
670(14) 0.0 0.0 .
694(15) 0.0 0.0 .
688(14) 0.0 0.0 .
689(14) 0.0 0.0 .
641(13) 0.0 0.0 .
680(14) 0.0 0.0 .
674(14) 0.0 0.0 .
665(14) 0.0 0.0 .
645(13) 0.0 0.0 .
687(14) 0.0 0.0 .
686(14) 0.0 0.0 .
710(15) 0.0 0.0 .
666(14) 0.0 0.0 .
686(14) 0.0 0.0 .
669(13) 0.0 0.0 .
701(14) 0.0 0.0 .
707(15) 0.0 0.0 .
723(15) 0.0 0.0 .
689(14) 0.0 0.0 .
721(14) 0.0 0.0 .
683(14) 0.0 0.0 .
702(15) 0.0 0.0 .
720(14) 0.0 0.0 .
672(13) 0.0 0.0 .
686(14) 0.0 0.0 .
713(14) 0.0 0.0 .
755(15) 0.0 0.0 .
762(15) 0.0 0.0 .
743(14) 0.0 0.0 .
711(14) 0.0 0.0 .
689(14) 0.0 0.0 .
703(14) 0.0 0.0 .
738(15) 0.0 0.0 .
730(14) 0.0 0.0 .
738(14) 0.0 0.0 .
713(14) 0.0 0.0 .
746(15) 0.0 0.0 .
746(15) 0.0 0.0 .
741(14) 0.0 0.0 .
794(15) 0.0 0.0 .
791(15) 0.0 0.0 .
787(15) 0.0 0.0 .
784(15) 0.0 0.0 .
788(14) 0.0 0.0 .
796(15) 0.0 0.0 .
810(16) 0.0 0.0 .
778(15) 0.0 0.0 .
819(15) 0.0 0.0 .
809(15) 0.0 0.0 .
790(15) 0.0 0.0 .
820(16) 0.0 0.0 .
852(16) 0.0 0.0 .
881(16) 0.0 0.0 .
861(15) 0.0 0.0 .
920(16) 0.0 0.0 .
986(17) 0.0 0.0 .
962(16) 0.0 0.0 .
1012(17) 0.0 0.0 .
1008(16) 0.0 0.0 .
1070(18) 0.0 0.0 .
1071(18) 0.0 0.0 .
1153(18) 0.0 0.0 .
1114(17) 0.0 0.0 .
1165(18) 0.0 0.0 .
1226(19) 0.0 0.0 .
1313(20) 0.0 0.0 .
1366(20) 0.0 0.0 .
1429(20) 0.0 0.0 .
1473(20) 0.0 0.0 .
1463(21) 0.0 0.0 .
1559(22) 0.0 0.0 .
1677(22) 0.0 0.0 .
1670(21) 0.0 0.0 .
1832(22) 0.0 0.0 .
2009(24) 0.0 0.0 .
2082(25) 0.0 0.0 .
2294(26) 0.0 0.0 .
2392(25) 0.0 0.0 .
2791(28) 0.0 0.0 .
3128(30) 0.0 0.0 .
3596(33) 0.0 0.0 .
4154(35) 0.0 0.0 .
4711(36) 0.0 0. .
5575(39) 0.0 0. .
6413(43) 0.0 0. .
7384(47) 0.0 0. .
8430(50) 0.0 0. .
9612(51) 0.0 0. .
10830(55) 0.0 0. .
12095(60) 0.0 0. .
13206(63) 0.0 0. .
14643(65) 0.0 0. .
16090(67) 0.0 0. .
17697(72) 0.0 0. .
19651(77) 0.0 0. .
21926(81) 0.0 0. .
24704(86) 0.0 0. .
27997(89) 0.0 0. .
31132(98) 0.0 0. .
34700(110) 0.0 0. .
37670(110) 0.0 0. .
38710(110) 0.0 0. .
36690(100) 0.0 0. .
32380(100) 0.0 0. .
27356(93) 0.0 0. .
22541(82) 0.0 0. .
19034(73) 0.0 0. .
15675(66) 0.0 0. .
12945(63) 0.0 0. .
10811(58) 0.0 0. .
8999(52) 0.0 0. .
7629(46) 0.0 0. .
6493(42) 0.0 0. .
5568(40) 0.0 0. .
4934(40) 0.0 0. .
4381(36) 0.0 0. .
3903(33) 0.0 0.0 .
3488(31) 0.0 0.0 .
3092(30) 0.0 0.0 .
2767(30) 0.0 0.0 .
2501(27) 0.0 0.0 .
2327(25) 0.0 0.0 .
2086(24) 0.0 0.0 .
1962(24) 0.0 0.0 .
1871(24) 0.0 0.0 .
1778(23) 0.0 0.0 .
1604(21) 0.0 0.0 .
1483(20) 0.0 0.0 .
1453(21) 0.0 0.0 .
1359(20) 0.0 0.0 .
1316(19) 0.0 0.0 .
1325(19) 0.0 0.0 .
1213(18) 0.0 0.0 .
1143(18) 0.0 0.0 .
1126(19) 0.0 0.0 .
1087(18) 0.0 0.0 .
1091(17) 0.0 0.0 .
1090(17) 0.0 0.0 .
1050(18) 0.0 0.0 .
990(17) 0.0 0.0 .
955(16) 0.0 0.0 .
930(16) 0.0 0.0 .
894(16) 0.0 0.0 .
904(16) 0.0 0.0 .
854(16) 0.0 0.0 .
885(16) 0.0 0.0 .
858(15) 0.0 0.0 .
886(16) 0.0 0.0 .
859(16) 0.0 0.0 .
845(16) 0.0 0.0 .
840(15) 0.0 0.0 .
864(15) 0.0 0.0 .
800(15) 0.0 0.0 .
798(16) 0.0 0.0 .
783(15) 0.0 0.0 .
744(14) 0.0 0.0 .
773(14) 0.0 0.0 .
777(15) 0.0 0.0 .
759(15) 0.0 0.0 .
728(15) 0.0 0.0 .
711(14) 0.0 0.0 .
758(14) 0.0 0.0 .
745(15) 0.0 0.0 .
723(15) 0.0 0.0 .
742(15) 0.0 0.0 .
733(14) 0.0 0.0 .
694(14) 0.0 0.0 .
708(14) 0.0 0.0 .
708(15) 0.0 0.0 .
689(14) 0.0 0.0 .
691(14) 0.0 0.0 .
715(14) 0.0 0.0 .
697(14) 0.0 0.0 .
694(15) 0.0 0.0 .
695(14) 0.0 0.0 .
686(14) 0.0 0.0 .
688(14) 0.0 0.0 .
652(14) 0.0 0.0 .
660(14) 0.0 0.0 .
662(14) 0.0 0.0 .
691(14) 0.0 0.0 .
674(14) 0.0 0.0 .
665(14) 0.0 0.0 .
688(14) 0.0 0.0 .
657(14) 0.0 0.0 .
663(13) 0.0 0.0 .
690(14) 0.0 0.0 .
619(13) 0.0 0.0 .
662(14) 0.0 0.0 .
656(14) 0.0 0.0 .
651(13) 0.0 0.0 .
676(14) 0.0 0.0 .
683(14) 0.0 0.0 .
674(14) 0.0 0.0 .
653(13) 0.0 0.0 .
616(13) 0.0 0.0 .
656(14) 0.0 0.0 .
653(14) 0.0 0.0 .
685(14) 0.0 0.0 .
590(13) 0.0 0.0 .
668(13) 0.0 0.0 .
644(14) 0.0 0.0 .
622(14) 0.0 0.0 .
632(14) 0.0 0.0 .
647(13) 0.0 0.0 .
646(13) 0.0 0.0 .
659(14) 0.0 0.0 .
628(14) 0.0 0.0 .
617(13) 0.0 0.0 .
661(14) 0.0 0.0 .
666(13) 0.0 0.0 .
635(14) 0.0 0.0 .
634(14) 0.0 0.0 .
604(13) 0.0 0.0 .
657(13) 0.0 0.0 .
648(13) 0.0 0.0 .
656(14) 0.0 0.0 .
685(15) 0.0 0.0 .
615(13) 0.0 0.0 .
628(13) 0.0 0.0 .
626(13) 0.0 0.0 .
622(13) 0.0 0.0 .
643(14) 0.0 0.0 .
652(14) 0.0 0.0 .
617(13) 0.0 0.0 .
651(13) 0.0 0.0 .
622(13) 0.0 0.0 .
633(14) 0.0 0.0 .
617(13) 0.0 0.0 .
576(12) 0.0 0.0 .
610(13) 0.0 0.0 .
655(14) 0.0 0.0 .
612(13) 0.0 0.0 .
651(14) 0.0 0.0 .
606(13) 0.0 0.0 .
598(13) 0.00575 602.9 39.1
594(13) 0.00544 602.9 38.5
645(14) 0.00488 602.9 38.0
630(13) 0.00542 602.9 37.4
606(13) 0.00582 602.7 36.9
616(13) 0.00553 602.4 36.4
630(14) 0.00515 602.1 35.9
609(13) 0.00537 601.8 35.4
579(13) 0.00587 601.5 34.9
619(13) 0.00573 601.2 34.4
575(13) 0.00590 600.9 34.0
608(13) 0.00525 600.5 33.5
621(14) 0.00517 600.2 33.1
623(13) 0.00546 599.9 32.6
630(13) 0.00557 599.6 32.2
625(13) 0.00531 599.3 31.8
610(14) 0.00518 599.0 31.4
590(13) 0.00559 598.7 30.9
621(13) 0.00555 598.3 30.6
578(12) 0.00614 598.0 30.2
578(13) 0.00577 597.7 29.8
592(13) 0.00528 597.4 29.4
610(13) 0.00532 597.1 29.0
589(13) 0.00594 596.8 28.7
588(13) 0.00603 596.5 28.3
610(13) 0.00533 596.1 28.0
548(13) 0.00585 595.8 27.6
603(13) 0.00533 595.5 27.3
601(13) 0.00574 595.2 27.0
578(12) 0.00613 594.9 26.7
604(13) 0.00557 594.6 26.3
622(14) 0.00492 594.3 26.0
613(13) 0.00536 593.9 25.7
594(13) 0.00585 593.6 25.4
619(13) 0.00570 593.3 25.1
582(13) 0.00579 593.0 24.9
598(14) 0.00521 592.7 24.6
601(13) 0.00555 592.4 24.3
590(13) 0.00601 592.1 24.0
587(13) 0.00592 591.7 23.8
558(13) 0.00585 591.4 23.5
580(13) 0.00537 591.1 23.2
568(13) 0.00576 590.8 23.0
584(13) 0.00599 590.5 22.7
584(13) 0.00592 590.2 22.5
620(13) 0.00531 589.9 22.2
596(13) 0.00540 589.5 22.0
591(13) 0.00551 589.2 21.8
582(12) 0.00606 588.9 21.5
584(13) 0.00579 588.6 21.3
586(13) 0.00556 588.3 21.1
579(13) 0.00551 588.0 20.9
553(13) 0.00597 587.7 20.7
568(12) 0.00622 587.3 20.5
558(13) 0.00598 587.0 20.2
584(13) 0.00543 586.7 20.0
577(13) 0.00561 586.4 19.8
593(13) 0.00564 586.1 19.6
583(13) 0.00604 585.8 19.5
607(13) 0.00543 585.4 19.3
598(13) 0.00543 585.1 19.1
577(13) 0.00548 584.8 18.9
540(12) 0.00618 584.5 18.7
573(12) 0.00616 584.2 18.5
540(12) 0.00606 583.9 18.4
574(13) 0.00552 583.6 18.2
573(13) 0.00574 583.2 18.0
569(12) 0.00609 582.9 17.8
573(12) 0.00615 582.6 17.7
589(13) 0.00556 582.3 17.5
553(13) 0.00570 582.0 17.4
547(12) 0.00608 581.7 17.2
587(13) 0.00579 581.4 17.0
619(13) 0.00571 581.0 16.9
544(12) 0.00632 580.7 16.7
596(14) 0.00521 580.4 16.6
586(13) 0.00579 580.1 16.4
584(13) 0.00591 579.8 16.3
553(12) 0.00628 579.5 16.2
567(13) 0.00568 579.2 16.0
572(13) 0.00535 578.8 15.9
553(13) 0.00586 578.5 15.8
567(12) 0.00619 578.2 15.6
599(13) 0.00583 577.9 15.5
587(13) 0.00563 577.6 15.4
587(14) 0.00521 577.3 15.2
569(13) 0.00573 577.0 15.1
572(12) 0.00613 576.6 15.0
560(12) 0.00627 576.3 14.9
578(13) 0.00565 576.0 14.7
568(13) 0.00560 575.7 14.6
575(13) 0.00569 575.4 14.5
588(13) 0.00605 575.1 14.4
567(12) 0.00610 574.8 14.3
555(13) 0.00594 574.4 14.2
549(13) 0.00583 574.1 14.1
557(13) 0.00597 573.8 14.0
566(12) 0.00619 573.5 13.9
550(12) 0.00629 573.2 13.8
582(13) 0.00572 572.9 13.7
590(13) 0.00536 572.6 13.6
574(13) 0.00561 572.2 13.5
571(12) 0.00619 571.9 13.4
555(12) 0.00615 571.6 13.3
586(13) 0.00561 571.3 13.2
583(13) 0.00540 571.0 13.1
574(13) 0.00572 570.7 13.0
600(13) 0.00592 570.4 12.9
581(13) 0.00573 570.0 12.8
533(12) 0.00617 569.7 12.7
540(12) 0.00609 569.4 12.6
569(13) 0.00590 569.1 12.5
558(12) 0.00634 568.8 12.5
584(13) 0.00562 568.5 12.4
580(13) 0.00549 568.2 12.3
533(12) 0.00630 567.8 12.2
538(12) 0.00646 567.5 12.1
570(12) 0.00619 567.2 12.1
583(13) 0.00557 566.9 12.0
539(13) 0.00594 566.6 11.9
538(13) 0.00593 566.3 11.9
536(12) 0.00630 566.0 11.8
565(12) 0.00626 565.6 11.7
580(13) 0.00553 565.3 11.6
550(13) 0.00564 565.0 11.6
539(13) 0.00599 564.7 11.5
591(13) 0.00591 564.4 11.5
565(12) 0.00625 564.1 11.4
579(13) 0.00568 563.8 11.3
578(13) 0.00544 563.4 11.3
558(13) 0.00600 563.1 11.2
565(12) 0.00616 562.8 11.2
584(13) 0.00599 562.5 11.1
549(13) 0.00592 562.2 11.0
579(14) 0.00506 561.9 11.0
566(13) 0.00575 561.6 10.9
565(12) 0.00624 561.2 10.9
557(12) 0.00623 560.9 10.8
551(13) 0.00594 560.6 10.8
576(13) 0.00538 560.3 10.7
577(13) 0.00571 560.0 10.7
564(12) 0.00624 559.7 10.7
564(12) 0.00623 559.4 10.6
550(13) 0.00604 559.0 10.6
568(13) 0.00550 558.7 10.5
580(13) 0.00568 558.4 10.5
567(12) 0.00622 558.1 10.5
559(12) 0.00614 557.8 10.4
560(13) 0.00577 557.5 10.4
550(13) 0.00584 557.2 10.4
583(13) 0.00553 556.8 10.3
528(12) 0.00658 556.5 10.3
541(12) 0.00615 556.2 10.3
544(13) 0.00591 555.9 10.2
554(13) 0.00573 555.6 10.2
540(13) 0.00595 555.3 10.2
543(12) 0.00642 555.0 10.2
554(13) 0.00591 554.6 10.2
565(13) 0.00555 554.3 10.1
568(13) 0.00555 554.0 10.1
543(12) 0.00616 553.9 10.1
553(12) 0.00629 553.8 10.1
567(13) 0.00587 553.7 10.1
589(13) 0.00545 553.5 10.1
570(13) 0.00557 553.4 10.1
522(12) 0.00653 553.3 10.1
561(12) 0.00625 553.1 10.1
550(13) 0.00589 553.0 10.1
560(13) 0.00579 552.9 10.1
597(13) 0.00553 552.7 10.1
541(12) 0.00648 552.6 10.1
538(12) 0.00651 552.5 10.1
532(12) 0.00619 552.4 10.1
554(13) 0.00556 552.2 10.1
563(13) 0.00572 552.1 10.1
553(12) 0.00627 552.0 10.2
566(12) 0.00625 551.8 10.2
568(13) 0.00573 551.7 10.2
566(13) 0.00540 551.6 10.2
538(12) 0.00617 551.5 10.3
573(13) 0.00602 551.3 10.3
550(12) 0.00636 551.2 10.3
550(13) 0.00584 551.1 10.4
537(13) 0.00566 550.9 10.4
556(13) 0.00584 550.8 10.5
590(13) 0.00596 550.7 10.6
559(12) 0.00622 550.6 10.6
552(13) 0.00597 550.4 10.7
541(13) 0.00565 550.3 10.8
569(13) 0.00573 550.2 10.8
545(12) 0.00642 550.0 10.9
533(12) 0.00651 549.9 11.0
577(13) 0.00562 549.8 11.1
552(13) 0.00569 549.6 11.2
552(12) 0.00613 549.5 11.3
550(12) 0.00641 549.4 11.5
536(12) 0.00636 549.3 11.6
524(12) 0.00624 549.1 11.7
531(12) 0.00606 549.0 11.9
574(13) 0.00568 548.9 12.0
518(12) 0.00673 548.7 12.2
553(13) 0.00604 548.6 12.4
615(14) 0.00519 548.5 12.6
575(13) 0.00563 548.4 12.8
528(12) 0.00634 548.2 13.0
560(12) 0.00622 548.1 13.3
553(12) 0.00623 548.0 13.5
573(13) 0.00575 547.8 13.8
539(12) 0.00619 547.7 14.1
543(12) 0.00626 547.6 14.4
564(12) 0.00626 547.4 14.8
556(13) 0.00604 547.3 15.1
557(13) 0.00579 547.2 15.5
549(12) 0.00613 547.1 15.9
563(12) 0.00615 546.9 16.4
539(12) 0.00645 546.8 16.9
537(12) 0.00622 546.7 17.4
576(13) 0.00558 546.5 18.0
569(13) 0.00586 546.4 18.6
545(12) 0.00629 546.3 19.3
571(12) 0.00615 546.2 20.1
585(13) 0.00555 546.0 20.9
557(13) 0.00565 545.9 21.8
562(13) 0.00597 545.8 22.7
571(12) 0.00621 545.6 23.8
541(12) 0.00649 545.5 25.0
597(13) 0.00554 545.4 26.4
597(14) 0.00509 545.3 27.9
590(13) 0.00554 545.1 29.6
589(13) 0.00598 545.0 31.5
580(12) 0.00606 544.9 33.8
587(13) 0.00551 544.7 36.3
608(14) 0.00508 544.6 39.3
582(13) 0.00584 544.5 42.8
594(13) 0.00594 544.3 46.9
610(13) 0.00575 544.2 51.6
598(13) 0.00555 544.1 57.2
629(14) 0.00482 544.0 63.6
661(14) 0.00501 543.8 71.1
647(13) 0.00543 543.7 79.8
607(13) 0.00568 543.6 89.7
689(14) 0.00474 543.4 101.0
655(14) 0.00492 543.3 113.7
675(14) 0.00496 543.2 127.9
679(14) 0.00519 543.1 143.5
709(14) 0.00488 542.9 160.5
728(15) 0.00445 542.8 178.5
714(15) 0.00448 542.7 197.3
738(15) 0.00449 542.5 216.2
722(14) 0.00494 542.4 234.5
727(14) 0.00484 542.3 251.1
755(15) 0.00446 542.2 264.9
763(15) 0.00427 542.0 274.6
770(15) 0.00433 541.9 279.3
706(14) 0.00501 541.8 278.4
748(14) 0.00457 541.6 272.0
746(15) 0.00442 541.5 260.9
711(14) 0.00466 541.4 246.0
714(14) 0.00471 541.2 228.7
716(14) 0.00494 541.1 210.1
656(14) 0.00520 541.0 191.1
650(14) 0.00498 540.9 172.4
595(13) 0.00545 540.7 154.6
639(14) 0.00520 540.6 138.1
613(13) 0.00575 540.5 122.8
565(13) 0.00582 540.3 109.1
567(13) 0.00565 540.2 96.7
599(13) 0.00557 540.1 85.8
616(13) 0.00557 540.0 76.3
567(12) 0.00617 539.8 67.9
556(13) 0.00600 539.7 60.7
535(12) 0.00609 539.6 54.5
573(13) 0.00567 539.4 49.2
539(12) 0.00633 539.3 44.6
522(12) 0.00672 539.2 40.7
558(13) 0.00594 539.1 37.3
558(13) 0.00565 538.9 34.4
553(12) 0.00609 538.8 31.9
571(12) 0.00609 538.7 29.7
536(12) 0.00656 538.5 27.8
547(13) 0.00593 538.4 26.1
547(13) 0.00570 538.3 24.6
544(12) 0.00618 538.1 23.2
525(12) 0.00654 538.0 22.0
561(12) 0.00624 537.9 20.9
565(13) 0.00577 537.8 19.9
541(13) 0.00561 537.6 19.0
518(12) 0.00632 537.5 18.2
516(12) 0.00682 537.4 17.4
559(12) 0.00623 537.2 16.7
538(12) 0.00617 537.1 16.0
525(13) 0.00588 537.0 15.4
583(13) 0.00572 536.9 14.8
550(12) 0.00639 536.7 14.3
547(12) 0.00634 536.6 13.8
547(12) 0.00608 536.5 13.3
557(13) 0.00545 536.3 12.9
506(12) 0.00648 536.2 12.5
515(12) 0.00679 536.1 12.1
564(12) 0.00613 536.0 11.7
536(12) 0.00624 535.8 11.4
549(13) 0.00576 535.7 11.1
561(13) 0.00588 535.6 10.8
548(12) 0.00637 535.4 10.5
508(12) 0.00667 535.3 10.2
553(13) 0.00569 535.2 10.0
534(13) 0.00600 535.0 9.7
519(12) 0.00642 534.9 9.5
607(13) 0.00582 534.8 9.3
507(12) 0.00665 534.7 9.0
532(13) 0.00584 534.5 8.8
513(12) 0.00627 534.4 8.6
544(12) 0.00618 534.3 8.5
525(12) 0.00670 534.1 8.3
540(12) 0.00613 534.0 8.1
540(13) 0.00590 533.9 8.0
542(13) 0.00596 533.8 7.8
509(12) 0.00681 533.6 7.7
578(12) 0.00609 533.5 7.5
556(13) 0.00589 533.4 7.4
512(12) 0.00606 533.2 7.3
537(12) 0.00607 533.1 7.1
535(12) 0.00633 533.0 7.0
537(12) 0.00658 532.9 6.9
548(13) 0.00599 532.7 6.8
503(12) 0.00632 532.6 6.7
521(12) 0.00636 532.5 6.6
552(12) 0.00622 532.3 6.5
556(12) 0.00637 532.2 6.4
542(12) 0.00612 532.1 6.3
560(13) 0.00555 531.9 6.2
551(13) 0.00599 531.8 6.1
542(12) 0.00636 531.7 6.0
524(12) 0.00670 531.6 5.9
545(13) 0.00604 531.4 5.9
547(13) 0.00563 531.3 5.8
548(13) 0.00601 531.2 5.7
509(12) 0.00686 531.0 5.6
529(12) 0.00655 530.9 5.6
549(13) 0.00587 530.8 5.5
513(12) 0.00609 530.7 5.4
509(12) 0.00645 530.5 5.4
524(12) 0.00671 530.4 5.3
521(12) 0.00654 530.3 5.3
538(13) 0.00603 530.1 5.2
514(12) 0.00620 530.0 5.1
538(12) 0.00610 529.9 5.1
537(12) 0.00653 529.8 5.0
570(12) 0.00605 529.6 5.0
507(12) 0.00661 529.5 4.9
516(12) 0.00607 529.4 4.9
527(12) 0.00608 529.2 4.8
543(12) 0.00645 529.1 4.8
517(12) 0.00648 529.0 4.7
526(13) 0.00600 528.8 4.7
507(12) 0.00624 528.7 4.6
528(12) 0.00621 528.6 4.6
554(12) 0.00635 528.5 4.6
554(13) 0.00601 528.3 4.5
523(12) 0.00615 528.2 4.5
525(12) 0.00609 528.1 4.4
536(12) 0.00621 527.9 4.4
515(12) 0.00676 527.8 4.4
524(12) 0.00627 527.7 4.3
517(12) 0.00624 527.6 4.3
541(12) 0.00606 527.4 4.2
550(12) 0.00616 527.3 4.2
547(12) 0.00631 527.2 4.2
512(12) 0.00630 527.0 4.1
548(13) 0.00561 526.9 4.1
527(12) 0.00627 526.8 4.1
544(12) 0.00616 526.7 4.0
519(12) 0.00675 526.5 4.0
527(12) 0.00617 526.4 4.0
528(13) 0.00597 526.3 3.9
475(12) 0.00693 526.1 3.9
508(12) 0.00677 526.0 3.9
517(12) 0.00681 525.9 3.9
542(12) 0.00610 525.7 3.8
540(13) 0.00578 525.6 3.8
529(12) 0.00632 525.5 3.8
524(12) 0.00652 525.4 3.7
513(12) 0.00680 525.2 3.7
519(12) 0.00638 525.1 3.7
505(12) 0.00617 525.0 3.7
532(12) 0.00607 524.8 3.6
530(12) 0.00651 524.7 3.6
555(12) 0.00628 524.6 3.6
547(13) 0.00598 524.5 3.6
553(13) 0.00562 524.3 3.5
537(12) 0.00621 524.2 3.5
557(12) 0.00627 524.1 3.5
547(12) 0.00635 523.9 3.5
489(12) 0.00674 523.8 3.5
516(13) 0.00602 523.7 3.4
523(12) 0.00617 523.6 3.4
515(12) 0.00682 523.4 3.4
510(12) 0.00682 523.3 3.4
526(12) 0.00633 523.2 3.4
542(13) 0.00580 523.0 3.3
507(12) 0.00633 522.9 3.3
529(12) 0.00664 522.8 3.3
531(12) 0.00631 522.6 3.3
526(12) 0.00620 522.5 3.3
544(13) 0.00583 522.4 3.2
520(12) 0.00620 522.3 3.2
519(12) 0.00675 522.3 3.2
554(12) 0.00606 522.2 3.2
556(13) 0.00576 522.2 3.2
503(12) 0.00639 522.2 3.1
510(12) 0.00653 522.2 3.1
536(12) 0.00651 522.2 3.1
541(13) 0.00603 522.1 3.1
525(12) 0.00609 522.1 3.1
510(12) 0.00639 522.1 3.1
539(12) 0.00625 522.1 3.0
550(12) 0.00643 522.1 3.0
529(12) 0.00623 522.0 3.0
517(12) 0.00612 522.0 3.0
511(12) 0.00629 522.0 3.0
504(12) 0.00681 522.0 3.0
493(12) 0.00707 521.9 2.9
528(12) 0.00621 521.9 2.9
518(12) 0.00627 521.9 2.9
513(12) 0.00643 521.9 2.9
543(12) 0.00624 521.9 2.9
520(12) 0.00673 521.8 2.9
539(13) 0.00597 521.8 2.9
501(12) 0.00628 521.8 2.8
531(13) 0.00601 521.8 2.8
531(12) 0.00652 521.8 2.8
518(12) 0.00671 521.7 2.8
544(13) 0.00597 521.7 2.8
520(13) 0.00595 521.7 2.8
517(12) 0.00645 521.7 2.8
531(12) 0.00659 521.7 2.8
509(12) 0.00688 521.6 2.7
539(13) 0.00589 521.6 2.7
530(13) 0.00583 521.6 2.7
541(12) 0.00607 521.6 2.7
508(12) 0.00689 521.6 2.7
484(12) 0.00701 521.5 2.7
529(13) 0.00600 521.5 2.7
516(12) 0.00609 521.5 2.7
517(12) 0.00646 521.5 2.6
537(12) 0.00652 521.5 2.6
526(12) 0.00659 521.4 2.6
520(12) 0.00633 521.4 2.6
504(12) 0.00630 521.4 2.6
520(12) 0.00637 521.4 2.6
493(12) 0.00708 521.4 2.6
509(12) 0.00667 521.3 2.6
548(13) 0.00589 521.3 2.5
508(12) 0.00622 521.3 2.5
495(12) 0.00656 521.3 2.5
518(12) 0.00678 521.3 2.5
534(12) 0.00627 521.2 2.5
550(13) 0.00578 521.2 2.5
505(12) 0.00644 521.2 2.5
524(12) 0.00632 521.2 2.5
568(12) 0.00621 521.1 2.5
538(12) 0.00633 521.1 2.5
536(13) 0.00602 521.1 2.4
506(12) 0.00643 521.1 2.4
484(12) 0.00691 521.1 2.7
529(12) 0.00659 521.0 2.7
538(12) 0.00624 521.0 2.7
522(12) 0.00633 521.0 2.7
503(12) 0.00662 521.0 2.7
506(12) 0.00662 521.0 2.7
495(12) 0.00706 520.9 2.7
533(13) 0.00596 520.9 2.7
502(12) 0.00624 520.9 2.6
536(12) 0.00607 520.9 2.6
556(12) 0.00612 520.9 2.6
527(12) 0.00666 520.8 2.6
511(12) 0.00644 520.8 2.6
510(12) 0.00606 520.8 2.6
531(12) 0.00618 520.8 2.6
506(12) 0.00686 520.8 2.6
541(12) 0.00641 520.7 2.6
537(12) 0.00611 520.7 2.6
532(13) 0.00581 520.7 2.6
567(13) 0.00574 520.7 2.6
558(12) 0.00618 520.7 2.6
548(12) 0.00638 520.6 2.5
525(12) 0.00631 520.6 2.5
563(13) 0.00532 520.6 2.5
536(12) 0.00615 520.6 2.5
565(12) 0.00617 520.6 2.5
556(12) 0.00628 520.5 2.5
523(12) 0.00626 520.5 2.5
526(13) 0.00588 520.5 2.5
537(12) 0.00620 520.5 2.5
546(12) 0.00639 520.5 2.5
568(13) 0.00598 520.4 2.5
569(13) 0.00570 520.4 2.5
557(13) 0.00568 520.4 2.5
559(13) 0.00575 520.4 2.5
544(12) 0.00643 520.4 2.5
549(13) 0.00605 520.3 2.5
540(13) 0.00600 520.3 2.4
541(13) 0.00573 520.3 2.4
532(12) 0.00624 520.3 2.4
554(12) 0.00624 520.2 2.4
531(12) 0.00641 520.2 2.4
521(12) 0.00611 520.2 2.4
541(13) 0.00582 520.2 2.4
549(13) 0.00580 520.2 2.4
510(12) 0.00680 520.1 2.4
547(12) 0.00608 520.1 2.4
530(12) 0.00614 520.1 2.4
542(13) 0.00588 520.1 2.4
563(13) 0.00585 520.1 2.4
553(12) 0.00636 520.0 2.4
528(12) 0.00619 520.0 2.4
490(12) 0.00654 520.0 2.4
502(12) 0.00648 520.0 2.4
512(12) 0.00654 520.0 2.4
498(12) 0.00696 519.9 2.4
518(12) 0.00611 519.9 2.4
535(13) 0.00573 519.9 2.3
524(12) 0.00623 519.9 2.3
536(12) 0.00627 519.9 2.3
506(12) 0.00694 519.8 2.3
541(13) 0.00592 519.8 2.3
522(13) 0.00590 519.8 2.3
521(12) 0.00626 519.8 2.3
545(12) 0.00629 519.8 2.3
526(12) 0.00654 519.7 2.3
540(13) 0.00601 519.7 2.3
540(13) 0.00568 519.7 2.3
528(12) 0.00614 519.7 2.3
496(12) 0.00707 519.7 2.3
542(12) 0.00634 519.6 2.3
508(12) 0.00648 519.6 2.3
522(13) 0.00563 519.6 2.3
508(12) 0.00648 519.6 2.3
520(12) 0.00671 519.6 2.3
557(12) 0.00629 519.5 2.3
534(13) 0.00591 519.5 2.3
521(13) 0.00597 519.5 2.3
529(12) 0.00607 519.5 2.3
523(12) 0.00667 519.4 2.3
516(12) 0.00660 519.4 2.3
518(12) 0.00635 519.4 2.3
537(13) 0.00581 519.4 2.3
480(12) 0.00694 519.4 2.3
516(12) 0.00674 519.3 2.3
516(12) 0.00663 519.3 2.3
479(12) 0.00647 519.3 2.3
472(12) 0.00672 519.3 2.2
489(12) 0.00661 519.3 2.2
502(12) 0.00693 519.2 2.2
508(12) 0.00672 519.2 2.2
514(12) 0.00626 519.2 2.2
529(13) 0.00583 519.2 2.2
518(12) 0.00635 519.2 2.2
528(12) 0.00669 519.1 2.2
522(12) 0.00646 519.1 2.2
521(12) 0.00616 519.1 2.2
536(13) 0.00582 519.1 2.2
532(12) 0.00624 519.1 2.2
507(12) 0.00694 519.0 2.2
494(12) 0.00668 519.0 2.2
537(13) 0.00588 519.0 2.2
530(12) 0.00614 519.0 2.2
515(12) 0.00655 519.0 2.2
527(12) 0.00663 518.9 2.2
533(12) 0.00639 518.9 2.2
501(12) 0.00661 518.9 2.2
508(12) 0.00655 518.9 2.2
517(12) 0.00669 518.9 2.2
503(12) 0.00689 518.8 2.2
514(12) 0.00640 518.8 2.2
542(13) 0.00573 518.8 2.2
519(12) 0.00628 518.8 2.2
506(12) 0.00677 518.8 2.2
536(12) 0.00660 518.7 2.2
526(12) 0.00629 518.7 2.2
501(12) 0.00646 518.7 2.2
506(12) 0.00662 518.7 2.2
554(12) 0.00625 518.7 2.2
519(12) 0.00671 518.6 2.2
487(12) 0.00689 518.6 2.2
520(13) 0.00598 518.6 2.2
541(13) 0.00602 518.6 2.2
506(12) 0.00686 518.5 2.2
522(12) 0.00650 518.5 2.2
484(12) 0.00670 518.5 2.2
495(12) 0.00606 518.5 2.2
509(12) 0.00646 518.5 2.2
474(11) 0.00734 518.4 2.2
503(12) 0.00679 518.4 2.2
534(12) 0.00621 518.4 2.2
520(12) 0.00608 518.4 2.2
533(12) 0.00616 518.4 2.2
526(12) 0.00667 518.3 2.2
528(12) 0.00643 518.3 2.2
506(12) 0.00683 518.3 2.2
536(12) 0.00608 518.3 2.2
529(12) 0.00610 518.3 2.2
508(12) 0.00688 518.2 2.2
496(12) 0.00690 518.2 2.3
520(12) 0.00629 518.2 2.3
533(13) 0.00591 518.2 2.3
476(12) 0.00694 518.2 2.3
512(12) 0.00678 518.1 2.3
522(12) 0.00649 518.1 2.3
510(12) 0.00642 518.1 2.3
524(12) 0.00622 518.1 2.3
545(12) 0.00609 518.1 2.3
519(12) 0.00675 518.0 2.3
524(12) 0.00652 518.0 2.3
507(12) 0.00647 518.0 2.3
511(12) 0.00638 518.0 2.3
549(12) 0.00619 518.0 2.3
534(12) 0.00654 517.9 2.3
543(13) 0.00601 517.9 2.3
524(12) 0.00611 517.9 2.3
531(12) 0.00619 517.9 2.3
505(12) 0.00671 517.9 2.3
495(12) 0.00698 517.8 2.3
529(12) 0.00618 517.8 2.4
522(13) 0.00595 517.8 2.4
529(12) 0.00613 517.8 2.4
545(12) 0.00625 517.7 2.4
518(12) 0.00678 517.7 2.4
540(12) 0.00609 517.7 2.4
549(13) 0.00572 517.7 2.4
546(12) 0.00619 517.7 2.4
515(12) 0.00668 517.6 2.4
488(12) 0.00707 517.6 2.4
528(13) 0.00600 517.6 2.4
531(13) 0.00580 517.6 2.4
532(12) 0.00624 517.6 2.5
525(12) 0.00660 517.5 2.5
515(12) 0.00685 517.5 2.5
531(12) 0.00641 517.5 2.5
532(13) 0.00580 517.5 2.5
514(12) 0.00642 517.5 2.5
500(12) 0.00695 517.4 2.5
503(12) 0.00691 517.4 2.6
503(12) 0.00666 517.4 2.6
513(13) 0.00584 517.4 2.6
499(12) 0.00652 517.5 3.0
527(12) 0.00663 517.5 3.0
513(12) 0.00660 517.6 3.1
555(13) 0.00572 517.6 3.1
547(13) 0.00573 517.7 3.1
521(12) 0.00630 517.7 3.1
520(12) 0.00670 517.8 3.1
535(12) 0.00638 517.8 3.2
512(12) 0.00640 517.8 3.2
534(13) 0.00601 517.9 3.2
552(13) 0.00598 517.9 3.2
507(12) 0.00687 518.0 3.3
544(12) 0.00618 518.0 3.3
506(12) 0.00644 518.1 3.3
516(12) 0.00618 518.1 3.3
532(12) 0.00622 518.2 3.4
526(12) 0.00666 518.2 3.4
529(12) 0.00635 518.3 3.4
522(12) 0.00635 518.3 3.5
551(13) 0.00591 518.4 3.5
511(12) 0.00678 518.4 3.6
521(12) 0.00668 518.5 3.6
542(13) 0.00593 518.5 3.6
523(13) 0.00602 518.6 3.7
524(12) 0.00625 518.6 3.7
498(12) 0.00688 518.7 3.8
538(12) 0.00648 518.7 3.8
511(12) 0.00632 518.8 3.9
503(12) 0.00626 518.8 3.9
478(12) 0.00696 518.9 4.0
516(12) 0.00660 518.9 4.1
522(12) 0.00666 519.0 4.1
515(12) 0.00649 519.0 4.2
503(12) 0.00634 519.0 4.3
521(12) 0.00621 519.1 4.3
519(12) 0.00667 519.1 4.4
506(12) 0.00689 519.2 4.5
512(12) 0.00646 519.2 4.6
524(13) 0.00574 519.3 4.7
525(12) 0.00624 519.3 4.8
536(12) 0.00654 519.4 4.9
543(12) 0.00644 519.4 5.0
522(12) 0.00644 519.5 5.2
543(13) 0.00569 519.5 5.3
529(12) 0.00613 519.6 5.5
529(12) 0.00660 519.6 5.6
498(12) 0.00695 519.7 5.8
516(12) 0.00642 519.7 6.0
514(12) 0.00608 519.8 6.2
511(12) 0.00644 519.8 6.4
499(12) 0.00696 519.9 6.6
539(12) 0.00645 519.9 6.9
519(12) 0.00641 520.0 7.2
557(13) 0.00545 520.0 7.5
523(13) 0.00600 520.1 7.9
531(12) 0.00650 520.1 8.2
492(12) 0.00692 520.2 8.6
497(12) 0.00650 520.2 9.1
506(12) 0.00624 520.2 9.5
535(13) 0.00589 520.3 10.1
570(12) 0.00617 520.3 10.6
497(12) 0.00674 520.4 11.2
528(12) 0.00613 520.4 11.9
525(12) 0.00611 520.5 12.6
559(13) 0.00587 520.5 13.4
503(12) 0.00690 520.6 14.2
512(12) 0.00664 520.6 15.1
550(13) 0.00593 520.7 16.0
515(12) 0.00657 520.7 17.0
529(12) 0.00636 520.8 18.0
511(12) 0.00681 520.8 19.1
525(12) 0.00638 520.9 20.2
521(12) 0.00635 520.9 21.3
546(13) 0.00601 521.0 22.4
520(12) 0.00637 521.0 23.5
523(12) 0.00665 521.1 24.5
516(12) 0.00628 521.1 25.5
515(12) 0.00618 521.2 26.3
534(12) 0.00615 521.2 26.9
544(12) 0.00627 521.3 27.4
525(12) 0.00666 521.3 27.7
514(12) 0.00620 521.4 27.7
537(13) 0.00569 521.4 27.5
524(12) 0.00625 521.4 27.1
530(12) 0.00657 521.5 26.5
535(12) 0.00651 521.5 25.8
523(12) 0.00622 521.6 24.9
496(12) 0.00626 521.6 23.9
495(12) 0.00652 521.7 22.8
522(12) 0.00667 521.7 21.7
536(12) 0.00653 521.8 20.6
534(13) 0.00595 521.8 19.5
508(13) 0.00599 521.9 18.5
493(12) 0.00677 521.9 17.4
535(12) 0.00644 522.0 16.5
541(12) 0.00645 522.0 15.5
511(12) 0.00632 522.1 14.6
502(13) 0.00592 522.1 13.8
486(12) 0.00699 522.2 13.0
525(12) 0.00665 522.2 12.3
533(12) 0.00651 522.3 11.7
518(12) 0.00632 522.3 11.0
521(13) 0.00598 522.4 10.5
535(12) 0.00614 522.4 10.0
520(12) 0.00677 522.5 9.5
558(12) 0.00615 522.5 9.1
536(12) 0.00611 522.6 8.7
532(13) 0.00603 522.6 8.3
508(12) 0.00637 522.6 8.0
507(12) 0.00688 522.7 7.7
524(12) 0.00645 522.7 7.4
519(12) 0.00642 522.8 7.1
549(13) 0.00579 522.8 6.9
531(12) 0.00616 522.9 6.7
479(11) 0.00728 522.9 6.5
505(12) 0.00653 523.0 6.3
507(12) 0.00649 523.0 6.1
533(12) 0.00611 523.1 6.0
507(12) 0.00667 523.1 5.9
518(12) 0.00674 523.2 5.7
554(13) 0.00579 523.2 5.6
520(12) 0.00607 523.3 5.5
469(12) 0.00700 523.3 5.4
494(12) 0.00687 523.4 5.3
549(12) 0.00634 523.4 5.2
539(13) 0.00601 523.5 5.1
536(13) 0.00602 523.5 5.1
525(12) 0.00636 523.6 5.0
511(12) 0.00676 523.6 4.9
502(12) 0.00688 523.7 4.9
555(13) 0.00596 523.7 4.8
563(13) 0.00557 523.8 4.8
535(12) 0.00633 523.8 4.7
533(12) 0.00648 523.8 4.7
527(12) 0.00657 523.9 4.6
499(12) 0.00650 523.9 4.6
518(13) 0.00578 524.0 4.6
545(13) 0.00598 524.0 4.5
527(12) 0.00665 524.1 4.5
510(12) 0.00681 524.1 4.5
490(12) 0.00683 524.2 4.5
532(13) 0.00573 524.2 4.4
514(12) 0.00630 524.3 4.4
505(12) 0.00690 524.3 4.4
519(12) 0.00672 524.4 4.4
504(12) 0.00658 524.4 4.3
533(13) 0.00579 524.5 4.3
505(12) 0.00640 524.5 4.3
523(12) 0.00672 524.6 4.3
497(12) 0.00704 524.6 4.3
532(12) 0.00613 524.7 4.3
509(12) 0.00614 524.7 4.3
505(12) 0.00655 524.8 4.3
528(12) 0.00667 524.8 4.3
532(12) 0.00646 524.9 4.3
536(12) 0.00611 524.9 4.3
526(13) 0.00590 525.0 4.3
530(12) 0.00612 525.0 4.3
532(12) 0.00658 525.0 4.3
515(12) 0.00650 525.1 4.3
509(12) 0.00628 525.1 4.3
516(12) 0.00607 525.2 4.3
493(12) 0.00666 525.2 4.3
520(12) 0.00674 525.3 4.3
523(12) 0.00639 525.3 4.3
502(12) 0.00659 525.4 4.3
527(12) 0.00613 525.4 4.3
533(12) 0.00623 525.5 4.3
512(12) 0.00675 525.5 4.3
536(12) 0.00623 525.6 4.3
522(12) 0.00616 525.6 4.3
557(13) 0.00576 525.7 4.3
526(12) 0.00635 525.7 4.3
531(12) 0.00658 525.8 4.3
533(12) 0.00622 525.8 4.4
553(13) 0.00577 525.9 4.4
499(12) 0.00660 525.9 4.4
500(12) 0.00679 526.0 4.4
533(12) 0.00660 526.0 4.4
561(13) 0.00572 526.1 4.4
529(12) 0.00616 526.1 4.4
489(12) 0.00699 526.2 4.5
507(12) 0.00685 526.2 4.5
536(12) 0.00661 526.2 4.5
534(12) 0.00608 526.3 4.5
542(13) 0.00566 526.3 4.5
526(13) 0.00605 526.4 4.6
528(12) 0.00655 526.4 4.6
518(12) 0.00674 526.5 4.6
526(12) 0.00628 526.5 4.6
519(13) 0.00587 526.6 4.7
524(12) 0.00619 526.6 4.7
540(12) 0.00644 526.7 4.7
527(12) 0.00671 526.7 4.7
519(12) 0.00635 526.8 4.8
541(13) 0.00556 526.8 4.8
550(13) 0.00604 526.9 4.8
558(12) 0.00629 526.9 4.8
541(12) 0.00649 527.0 4.9
586(13) 0.00555 527.0 4.9
540(13) 0.00593 527.1 4.9
553(13) 0.00586 527.1 5.0
541(12) 0.00648 527.2 5.0
524(12) 0.00666 527.2 5.0
515(12) 0.00651 527.3 5.1
530(13) 0.00598 527.3 5.1
543(12) 0.00608 527.4 5.1
525(12) 0.00664 527.4 5.2
526(12) 0.00653 527.4 5.2
540(12) 0.00608 527.5 5.2
542(13) 0.00598 527.5 5.3
534(12) 0.00618 527.6 5.3
513(12) 0.00677 527.6 5.4
545(12) 0.00618 527.7 5.4
510(12) 0.00644 527.7 5.5
565(13) 0.00558 527.8 5.5
526(12) 0.00633 527.8 5.6
537(12) 0.00654 527.9 5.6
556(13) 0.00591 527.9 5.7
504(12) 0.00648 528.0 5.7
522(12) 0.00615 528.0 5.8
520(12) 0.00648 528.1 5.8
527(12) 0.00665 528.1 5.9
541(13) 0.00603 528.2 5.9
528(13) 0.00604 528.2 6.0
539(13) 0.00599 528.3 6.0
543(12) 0.00628 528.3 6.1
548(12) 0.00642 528.4 6.2
542(12) 0.00612 528.4 6.2
552(13) 0.00589 528.6 6.3
547(13) 0.00601 528.8 6.3
540(12) 0.00634 529.0 6.4
554(12) 0.00635 529.2 6.5
507(12) 0.00640 529.4 6.5
538(13) 0.00580 529.6 6.6
549(13) 0.00598 529.8 6.7
511(12) 0.00683 530.0 6.7
542(12) 0.00644 530.2 6.8
514(12) 0.00645 530.4 6.9
514(13) 0.00598 530.6 7.0
540(12) 0.00607 530.8 7.0
529(12) 0.00658 531.0 7.1
529(12) 0.00659 531.2 7.2
498(12) 0.00655 531.4 7.3
533(13) 0.00566 531.6 7.4
510(12) 0.00641 531.8 7.4
536(12) 0.00643 532.0 7.5
492(11) 0.00712 532.2 7.6
521(12) 0.00632 532.4 7.7
499(12) 0.00617 532.6 7.8
527(12) 0.00616 532.8 7.9
549(12) 0.00642 533.0 8.0
541(12) 0.00643 533.2 8.1
543(12) 0.00611 533.4 8.2
546(13) 0.00582 533.6 8.3
552(13) 0.00591 533.8 8.4
504(12) 0.00694 534.0 8.6
533(12) 0.00637 534.2 8.7
560(13) 0.00578 534.4 8.8
560(13) 0.00567 534.6 8.9
541(13) 0.00594 534.8 9.1
540(12) 0.00643 535.0 9.2
544(12) 0.00620 535.2 9.3
521(12) 0.00620 535.4 9.5
550(13) 0.00580 535.6 9.6
513(12) 0.00630 535.8 9.8
549(12) 0.00639 536.0 9.9
514(12) 0.00648 536.2 10.1
550(13) 0.00586 536.4 10.2
531(12) 0.00623 536.6 10.4
542(12) 0.00622 536.8 10.6
548(12) 0.00641 537.0 10.7
547(12) 0.00612 537.2 10.9
541(13) 0.00580 537.4 11.1
531(12) 0.00607 537.6 11.3
523(12) 0.00652 537.8 11.5
546(12) 0.00640 538.0 11.7
545(13) 0.00594 538.2 11.9
547(13) 0.00584 538.4 12.1
552(13) 0.00601 538.6 12.3
564(12) 0.00607 538.8 12.6
543(12) 0.00650 539.0 12.8
556(13) 0.00586 539.2 13.1
540(13) 0.00586 539.4 13.3
569(13) 0.00576 539.6 13.6
534(12) 0.00653 539.8 13.9
551(12) 0.00637 540.0 14.1
561(13) 0.00597 540.2 14.4
537(13) 0.00588 540.4 14.7
547(13) 0.00602 540.6 15.1
541(12) 0.00640 540.8 15.4
518(12) 0.00668 541.0 15.7
527(12) 0.00626 541.2 16.1
565(13) 0.00533 541.3 16.4
555(13) 0.00597 541.5 16.8
543(12) 0.00642 541.7 17.2
528(12) 0.00659 541.9 17.6
536(12) 0.00618 542.1 18.1
543(13) 0.00578 542.3 18.5
531(12) 0.00615 542.5 19.0
556(12) 0.00628 542.7 19.5
568(12) 0.00609 542.9 20.0
549(13) 0.00601 543.1 20.5
578(13) 0.00525 543.3 21.0
519(12) 0.00634 543.5 21.6
569(12) 0.00618 543.7 22.2
531(12) 0.00653 543.9 22.9
551(13) 0.00602 544.1 23.5
563(13) 0.00567 544.3 24.2
572(13) 0.00567 544.5 24.9
553(12) 0.00636 544.7 25.7
592(13) 0.00568 544.9 26.5
568(13) 0.00580 545.1 27.3
591(13) 0.00536 545.3 28.2
573(13) 0.00568 545.5 29.1
557(12) 0.00633 545.7 30.1
543(12) 0.00623 545.9 31.1
568(13) 0.00573 546.1 32.2
552(13) 0.00578 546.3 33.4
558(13) 0.00596 546.5 34.6
549(12) 0.00637 546.7 35.9
592(13) 0.00574 546.9 37.3
579(13) 0.00552 547.1 38.7
561(13) 0.00577 547.3 40.2
568(13) 0.00600 547.5 41.9
565(12) 0.00623 547.7 43.6
586(13) 0.00565 547.9 45.5
580(13) 0.00554 548.1 47.5
582(13) 0.00555 548.3 49.6
582(13) 0.00582 548.5 51.9
557(12) 0.00633 548.7 54.3
604(13) 0.00535 548.9 56.9
591(13) 0.00542 549.1 59.8
587(13) 0.00550 549.3 62.8
597(13) 0.00577 549.5 66.1
612(13) 0.00572 549.7 69.7
601(13) 0.00548 549.9 73.5
606(14) 0.00509 550.1 77.7
616(13) 0.00537 550.3 82.3
627(13) 0.00562 550.5 87.3
636(13) 0.00545 550.7 92.8
622(13) 0.00539 550.9 98.8
641(14) 0.00486 551.1 105.4
662(14) 0.00505 551.3 112.7
659(13) 0.00538 551.5 120.8
656(13) 0.00528 551.7 129.8
654(14) 0.00509 551.9 139.9
692(15) 0.00448 552.1 151.3
709(14) 0.00469 552.3 164.1
683(14) 0.00514 552.5 178.8
705(14) 0.00502 552.7 195.9
733(14) 0.00462 552.9 216.0
760(15) 0.00412 553.1 240.1
781(15) 0.00427 553.3 269.6
890(15) 0.00404 553.5 306.5
903(16) 0.00389 553.7 353.3
992(17) 0.003402 553.9 413.5
1059(18) 0.003066 554.1 491.2
1158(18) 0.002904 554.3 591.4
1365(19) 0.002648 554.5 719.5
1463(20) 0.002447 554.7 881.0
1709(22) 0.001975 554.9 1080.8
1932(24) 0.001703 555.1 1322.2
2156(25) 0.001568 555.3 1606.2
2431(26) 0.001501 555.5 1930.1
2780(28) 0.001269 555.7 2285.9
3047(30) 0.001119 555.9 2658.7
3331(31) 0.001002 556.1 3024.1
3880(34) 0.000879 556.3 3347.1
4226(34) 0.000871 556.5 3584.5
4576(36) 0.000764 557. 3696.
4515(36) 0.000752 557. 3659.
4189(35) 0.000807 557.0 3481.1
3730(32) 0.000940 557.2 3196.0
3260(30) 0.001130 557.4 2847.1
2886(29) 0.001178 557.6 2474.4
2584(28) 0.001273 557.8 2107.5
2250(25) 0.001521 558.0 1766.1
2003(24) 0.001779 558.2 1461.2
1758(22) 0.002069 558.4 1198.1
1581(22) 0.002116 558.6 977.5
1467(21) 0.002197 558.8 797.1
1288(19) 0.002641 559.0 652.8
1189(18) 0.002987 559.2 539.1
1070(17) 0.003351 559.4 450.6
1059(17) 0.003188 559.6 382.2
997(17) 0.003302 559.8 329.1
963(17) 0.00355 560.0 287.5
862(15) 0.00413 560.2 254.6
863(15) 0.00415 560.4 227.9
834(16) 0.00399 560.6 206.0
827(16) 0.00371 560.8 187.5
754(15) 0.00439 561.0 171.6
726(14) 0.00486 561.2 157.9
722(14) 0.00490 561.4 145.9
666(14) 0.00498 561.6 135.2
682(15) 0.00451 561.8 125.7
695(14) 0.00487 562.0 117.1
707(14) 0.00503 562.2 109.5
661(13) 0.00536 562.4 102.5
638(13) 0.00524 562.6 96.2
650(14) 0.00474 562.8 90.5
650(13) 0.00524 563.0 85.3
614(13) 0.00578 563.2 80.5
681(14) 0.00505 563.4 76.1
669(14) 0.00501 563.6 72.1
620(14) 0.00512 563.8 68.4
638(13) 0.00525 564.0 65.0
627(13) 0.00562 564.2 61.9
637(13) 0.00548 564.4 59.0
616(13) 0.00545 564.6 56.2
606(13) 0.00525 564.8 53.7
609(13) 0.00546 565.0 51.4
616(13) 0.00572 565.2 49.2
617(13) 0.00540 565.4 47.2
600(13) 0.00535 565.6 45.3
603(13) 0.00528 565.8 43.5
608(13) 0.00561 566.0 41.8
567(12) 0.00613 566.2 40.2
581(13) 0.00587 566.4 38.7
591(13) 0.00551 566.6 37.4
576(13) 0.00571 566.8 36.0
550(12) 0.00621 567.0 34.8
578(12) 0.00611 567.2 33.6
598(13) 0.00538 567.4 32.5
610(13) 0.00525 567.6 31.5
596(13) 0.00552 567.8 30.5
563(13) 0.00599 568.0 29.6
588(13) 0.00599 568.2 28.7
609(13) 0.00534 568.4 27.8
572(13) 0.00566 568.6 27.0
608(13) 0.00530 568.8 26.3
535(12) 0.00642 569.0 25.5
580(12) 0.00606 569.2 24.9
573(13) 0.00565 569.4 24.2
559(13) 0.00551 569.6 23.6
592(13) 0.00552 569.8 23.0
594(13) 0.00583 570.0 22.4
556(12) 0.00631 570.2 21.9
569(13) 0.00581 570.4 21.3
573(13) 0.00542 570.6 20.8
575(13) 0.00566 570.8 20.4
582(13) 0.00600 571.0 19.9
619(13) 0.00569 571.2 19.5
595(13) 0.00553 571.4 19.1
602(14) 0.00493 571.6 18.6
576(13) 0.00592 571.8 18.3
591(13) 0.00590 572.0 17.9
589(13) 0.00584 572.1 17.5
589(13) 0.00553 572.3 17.2
598(14) 0.00520 572.5 16.9
592(13) 0.00554 572.7 16.6
591(13) 0.00592 572.9 16.3
564(12) 0.00620 573.1 16.0
583(13) 0.00567 573.3 15.7
606(14) 0.00521 573.5 15.4
567(13) 0.00583 573.7 15.2
595(13) 0.00592 573.9 14.9
606(13) 0.00573 574.1 14.7
544(12) 0.00614 574.3 14.4
583(13) 0.00541 574.5 14.2
556(13) 0.00582 574.7 14.0
570(12) 0.00614 574.9 13.8
582(13) 0.00592 575.1 13.6
592(13) 0.00555 575.3 13.4
566(13) 0.00579 575.5 13.2
606(13) 0.00557 575.7 13.0
592(13) 0.00595 575.9 12.9
579(13) 0.00577 576.1 12.7
619(14) 0.00522 576.3 12.5
585(13) 0.00552 576.5 12.4
569(13) 0.00584 576.7 12.2
548(12) 0.00639 576.9 12.1
561(13) 0.00584 577.1 11.9
562(13) 0.00565 577.3 11.8
579(13) 0.00559 577.5 11.7
578(13) 0.00594 577.7 11.5
599(13) 0.00591 577.9 11.4
571(13) 0.00572 578.1 11.3
575(13) 0.00554 578.3 11.2
558(13) 0.00592 578.5 11.1
570(13) 0.00588 578.7 11.0
552(12) 0.00633 578.9 10.9
570(13) 0.00593 579.1 10.8
611(14) 0.00507 579.3 10.7
562(13) 0.00591 579.5 10.6
591(13) 0.00594 579.7 10.5
586(13) 0.00600 579.9 10.4
588(13) 0.00543 580.1 10.3
579(13) 0.00538 580.3 10.3
632(13) 0.00526 580.5 10.2
605(13) 0.00577 580.7 10.1
585(13) 0.00594 580.9 10.0
583(13) 0.00560 581.1 10.0
575(13) 0.00540 581.3 9.9
574(13) 0.00582 581.5 9.8
609(13) 0.00575 581.7 9.8
569(12) 0.00619 581.9 9.7
565(13) 0.00581 582.1 9.7
574(13) 0.00543 582.3 9.6
613(13) 0.00530 582.5 9.6
619(13) 0.00559 582.7 9.5
621(13) 0.00567 582.9 9.5
575(13) 0.00583 583.1 9.4
583(13) 0.00532 583.3 9.4
589(13) 0.00558 583.5 9.3
583(12) 0.00612 583.7 9.3
592(13) 0.00595 583.9 9.3
616(13) 0.00545 584.1 9.2
592(13) 0.00543 584.3 9.2
596(13) 0.00543 584.5 9.2
605(13) 0.00585 584.7 9.1
583(13) 0.00583 584.9 9.1
581(13) 0.00552 585.1 9.1
555(13) 0.00587 585.3 9.1
599(13) 0.00556 585.5 9.0
602(13) 0.00585 585.7 9.0
588(13) 0.00580 585.9 9.0
620(14) 0.00522 586.1 9.0
572(13) 0.00563 586.3 8.9
581(13) 0.00570 586.5 8.9
605(13) 0.00585 586.7 8.9
595(13) 0.00563 586.9 8.9
560(13) 0.00602 587.1 8.9
572(13) 0.00576 587.3 8.9
592(13) 0.00568 587.5 8.9
586(13) 0.00594 587.6 8.9
609(13) 0.00531 587.8 8.9
625(14) 0.00509 588.0 8.9
591(13) 0.00569 588.2 8.9
610(13) 0.00566 588.4 8.9
603(13) 0.00578 588.6 8.9
609(13) 0.00547 588.8 8.9
574(13) 0.00561 589.0 8.9
578(13) 0.00578 589.2 8.9
588(13) 0.00592 589.4 8.9
613(13) 0.00572 589.6 8.9
600(13) 0.00530 589.8 8.9
547(13) 0.00561 590.0 9.0
565(13) 0.00569 590.2 9.0
594(13) 0.00584 590.4 9.0
618(13) 0.00572 590.6 9.0
588(13) 0.00551 590.8 9.0
587(13) 0.00527 591.0 9.0
611(14) 0.00521 591.2 9.0
567(12) 0.00613 591.4 9.1
599(13) 0.00585 591.6 9.1
591(13) 0.00566 591.8 9.1
587(13) 0.00527 592.0 9.1
601(13) 0.00548 592.2 9.1
608(13) 0.00568 592.4 9.2
589(13) 0.00583 592.6 9.2
587(13) 0.00567 592.8 9.2
601(13) 0.00526 593.0 9.3
624(13) 0.00528 593.3 9.3
580(13) 0.00605 593.7 9.3
605(13) 0.00569 594.2 9.3
583(13) 0.00565 594.7 9.4
569(13) 0.00553 595.2 9.4
602(13) 0.00535 595.6 9.5
632(13) 0.00557 596.1 9.5
590(13) 0.00576 596.6 9.5
603(13) 0.00551 597.1 9.6
587(13) 0.00537 597.5 9.6
594(13) 0.00555 598.0 9.7
613(13) 0.00572 598.5 9.7
624(13) 0.00551 599.0 9.7
604(13) 0.00545 599.5 9.8
570(13) 0.00580 599.9 9.8
631(13) 0.00527 600.4 9.9
606(13) 0.00582 600.9 9.9
591(13) 0.00572 601.4 10.0
630(14) 0.00517 601.8 10.1
580(13) 0.00581 602.3 10.1
618(13) 0.00543 602.8 10.2
646(13) 0.00551 603.3 10.2
614(13) 0.00532 603.7 10.3
595(13) 0.00538 604.2 10.4
622(14) 0.00518 604.7 10.4
619(13) 0.00549 605.2 10.5
600(13) 0.00587 605.7 10.6
607(13) 0.00556 606.1 10.6
652(14) 0.00491 606.6 10.7
604(13) 0.00546 607.1 10.8
607(13) 0.00561 607.6 10.8
594(13) 0.00595 608.0 10.9
595(13) 0.00563 608.5 11.0
602(13) 0.00524 609.0 11.1
608(13) 0.00548 609.5 11.2
616(13) 0.00573 609.9 11.3
625(13) 0.00554 610.4 11.3
614(13) 0.00532 610.9 11.4
616(14) 0.00500 611.4 11.5
586(13) 0.00561 611.8 11.6
594(13) 0.00586 612.3 11.7
629(13) 0.00560 612.8 11.8
628(13) 0.00531 613.3 11.9
636(14) 0.00495 613.8 12.0
638(13) 0.00526 614.2 12.1
616(13) 0.00565 614.7 12.2
642(13) 0.00548 615.2 12.3
628(13) 0.00538 615.7 12.4
617(14) 0.00503 616.1 12.6
654(14) 0.00511 616.6 12.7
625(13) 0.00561 617.1 12.8
624(13) 0.00564 617.6 12.9
611(13) 0.00549 618.0 13.0
628(14) 0.00498 618.5 13.2
611(13) 0.00543 619.0 13.3
619(13) 0.00574 619.5 13.4
610(13) 0.00561 619.9 13.6
624(13) 0.00530 620.4 13.7
620(14) 0.00518 620.9 13.9
560(13) 0.00589 621.4 14.0
650(13) 0.00541 621.9 14.2
615(13) 0.00560 622.3 14.3
609(13) 0.00535 622.8 14.5
621(14) 0.00512 623.3 14.6
603(13) 0.00562 623.8 14.8
628(13) 0.00564 624.2 15.0
620(13) 0.00547 624.7 15.1
609(13) 0.00540 625.2 15.3
627(13) 0.00525 625.7 15.5
599(13) 0.00562 626.1 15.7
601(13) 0.00587 626.6 15.9
616(13) 0.00540 627.1 16.1
613(13) 0.00530 627.6 16.3
642(14) 0.00498 628.0 16.5
660(14) 0.00510 628.5 16.7
658(13) 0.00535 629.0 16.9
645(14) 0.00515 629.5 17.1
647(14) 0.00490 630.0 17.3
644(14) 0.00510 630.4 17.6
649(14) 0.00521 630.9 17.8
610(13) 0.00581 631.4 18.1
646(14) 0.00501 631.9 18.3
637(14) 0.00500 632.3 18.6
638(13) 0.00525 632.8 18.8
680(14) 0.00521 633.3 19.1
683(14) 0.00518 633.8 19.4
657(14) 0.00504 634.2 19.6
653(14) 0.00475 634.7 19.9
656(14) 0.00511 635.2 20.2
641(13) 0.00552 635.7 20.5
681(14) 0.00514 636.2 20.9
662(14) 0.00497 636.6 21.2
667(14) 0.00464 637.1 21.5
628(13) 0.00530 637.6 21.8
646(13) 0.00548 638.1 22.2
636(13) 0.00546 638.5 22.6
638(13) 0.00527 639.0 22.9
642(14) 0.00475 639.5 23.3
633(14) 0.00522 640.0 23.7
645(13) 0.00545 640.4 24.1
646(13) 0.00542 640.9 24.5
640(14) 0.00519 641.4 24.9
623(14) 0.00504 641.9 25.4
642(14) 0.00518 642.3 25.8
640(13) 0.00552 642.8 26.3
649(13) 0.00535 643.3 26.8
632(13) 0.00532 643.8 27.3
634(14) 0.00503 644.3 27.8
634(14) 0.00513 644.7 28.3
638(13) 0.00555 645.2 28.8
628(13) 0.00541 645.7 29.4
651(14) 0.00510 646.2 30.0
660(14) 0.00496 646.6 30.6
610(13) 0.00550 647.1 31.2
655(13) 0.00543 647.6 31.8
643(13) 0.00526 648.1 32.5
669(14) 0.00490 648.5 33.2
674(14) 0.00490 649.0 33.9
677(14) 0.00507 649.5 34.6
629(13) 0.00560 650.0 35.3
621(13) 0.00534 650.4 36.1
657(14) 0.00488 650.9 36.9
659(14) 0.00493 651.4 37.8
670(14) 0.00516 651.9 38.6
681(14) 0.00521 652.4 39.5
686(14) 0.00483 652.8 40.4
654(14) 0.00502 653.3 41.4
636(13) 0.00528 653.8 42.4
673(14) 0.00510 654.3 43.4
705(14) 0.00505 654.7 44.5
669(14) 0.00510 655.2 45.7
695(15) 0.00452 655.7 46.8
709(14) 0.00458 656.2 48.0
711(14) 0.00485 656.6 49.3
685(14) 0.00517 657.1 50.6
715(14) 0.00458 657.6 52.0
730(15) 0.00423 658.1 53.4
733(14) 0.00458 658.6 54.9
689(14) 0.00513 659.0 56.5
693(14) 0.00504 659.5 58.1
706(14) 0.00474 660.0 59.8
749(15) 0.00405 660.5 61.6
691(14) 0.00483 660.9 63.5
720(14) 0.00495 661.4 65.4
701(14) 0.00504 661.9 67.5
720(14) 0.00461 662.4 69.7
729(15) 0.00425 662.8 71.9
709(14) 0.00478 663.3 74.3
678(14) 0.00523 663.8 76.8
726(14) 0.00484 664.3 79.4
706(14) 0.00474 664.7 82.2
715(15) 0.00442 665.2 85.1
713(14) 0.00466 665.7 88.2
700(14) 0.00507 666.2 91.4
730(14) 0.00483 666.7 94.9
729(15) 0.00455 667.1 98.5
740(15) 0.00435 667.6 102.4
723(15) 0.00456 668.1 106.5
731(14) 0.00488 668.6 110.8
740(14) 0.00465 669.0 115.4
786(15) 0.00418 669.5 120.3
743(15) 0.00443 670.0 125.6
750(15) 0.00452 670.5 131.2
766(14) 0.00464 670.9 137.2
785(15) 0.00443 671.4 143.5
777(15) 0.00428 671.9 150.4
743(15) 0.00438 672.4 157.8
790(15) 0.00425 672.8 165.7
787(15) 0.00454 673.3 174.2
779(15) 0.00431 673.8 183.4
803(15) 0.00402 674.3 193.3
790(15) 0.00425 674.8 204.1
823(15) 0.00421 675.2 215.7
831(15) 0.00432 675.7 228.4
850(16) 0.00396 676.2 242.3
871(16) 0.00381 676.7 257.4
878(16) 0.00381 677.1 274.1
884(16) 0.00391 677.6 292.3
914(16) 0.00392 678.1 312.6
954(17) 0.00353 678.6 335.0
967(17) 0.003357 679.0 360.1
1000(17) 0.003415 679.5 388.4
1013(17) 0.003487 680.0 420.4
1085(17) 0.003347 680.5 457.1
1089(18) 0.003103 680.9 499.4
1123(18) 0.002851 681.4 548.8
1242(19) 0.002702 681.9 606.9
1284(19) 0.002788 682.4 675.9
1388(19) 0.002612 682.9 758.3
1498(21) 0.002281 683.3 857.1
1573(22) 0.001998 683.8 975.7
1720(22) 0.001983 684.3 1117.8
1985(23) 0.001813 684.8 1287.5
2093(24) 0.001750 685.2 1488.7
2335(26) 0.001460 685.7 1725.1
2660(29) 0.001190 686.2 1999.9
3052(30) 0.001122 686.7 2314.7
3448(31) 0.001060 687.1 2670.0
3945(33) 0.000926 687.6 3063.1
4344(35) 0.000794 688. 3488.
4817(38) 0.000671 689. 3932.
5401(40) 0.000631 689. 4374.
5927(40) 0.000619 690. 4787.
6243(42) 0.000577 690. 5132.
6273(43) 0.000550 690. 5370.
6288(44) 0.000524 691. 5467.
6166(42) 0.000559 691. 5409.
5808(40) 0.000633 692. 5205.
5329(39) 0.000668 692. 4884.
4822(37) 0.000711 693. 4485.
4528(37) 0.000733 693. 4047.
4056(34) 0.000853 693.8 3601.4
3795(32) 0.000962 694.3 3170.9
3392(31) 0.001042 694.8 2769.4
3098(30) 0.001078 695.2 2404.5
2761(28) 0.001218 695.7 2079.7
2526(27) 0.001398 696.2 1795.5
2415(25) 0.001520 696.7 1550.0
2244(25) 0.001545 697.2 1340.8
2135(25) 0.001560 697.6 1164.0
1947(24) 0.001746 698.1 1015.7
1799(23) 0.001938 698.6 892.1
1757(22) 0.002071 699.1 789.3
1654(22) 0.002063 699.5 703.7
1526(21) 0.002166 700.0 632.3
1536(21) 0.002160 700.5 572.4
1415(20) 0.002477 701.0 521.8
1322(19) 0.002744 701.4 478.7
1272(19) 0.002655 701.9 441.7
1244(19) 0.002649 702.4 409.6
1242(19) 0.002735 702.9 381.6
1162(18) 0.003070 703.3 357.0
1117(17) 0.003250 703.8 335.4
1111(18) 0.003072 704.3 316.2
1073(18) 0.002976 704.8 299.2
1045(17) 0.003202 705.3 284.3
1057(17) 0.003372 705.7 271.1
1010(16) 0.00358 706.2 259.6
968(17) 0.003500 706.7 249.7
977(17) 0.003247 707.2 241.4
947(16) 0.00362 707.6 234.6
980(16) 0.00368 708.1 229.4
978(16) 0.00368 708.6 225.7
979(17) 0.003469 709.1 223.5
935(17) 0.003348 709.5 223.0
886(16) 0.00389 710.0 224.2
948(16) 0.00381 710.5 227.0
968(16) 0.00364 711.0 231.6
946(17) 0.00353 711.5 237.9
945(17) 0.003295 711.9 245.7
952(17) 0.003490 712.4 255.1
924(16) 0.00387 712.9 265.5
897(16) 0.00393 713.4 276.7
995(17) 0.003433 713.8 287.9
949(17) 0.003486 714.3 298.1
1001(17) 0.003296 714.8 306.3
942(16) 0.00382 715.3 311.2
925(16) 0.00377 715.7 312.0
927(17) 0.00355 716.2 308.1
951(17) 0.003402 716.7 299.5
997(17) 0.003316 717.2 286.9
943(16) 0.00379 717.6 271.3
925(16) 0.00375 718.1 253.9
923(16) 0.00357 718.6 235.7
898(16) 0.00370 719.1 217.5
837(15) 0.00408 719.6 200.0
844(15) 0.00423 720.0 183.5
839(15) 0.00411 720.5 168.2
860(16) 0.00380 721.0 154.3
838(16) 0.00391 721.5 141.7
832(15) 0.00409 721.9 130.4
810(15) 0.00443 722.4 120.4
790(15) 0.00425 722.9 111.6
804(15) 0.00405 723.4 103.7
835(16) 0.00392 723.8 96.8
773(15) 0.00448 724.3 90.8
834(15) 0.00429 724.8 85.4
786(15) 0.00419 725.3 80.7
805(16) 0.00400 725.7 76.5
776(15) 0.00428 726.2 72.7
796(15) 0.00438 726.7 69.4
745(14) 0.00479 727.2 66.3
801(15) 0.00406 727.7 63.6
780(15) 0.00412 728.1 61.0
779(15) 0.00429 728.6 58.7
724(14) 0.00486 729.1 56.6
741(14) 0.00479 729.6 54.6
799(15) 0.00409 730.0 52.7
748(15) 0.00409 730.5 51.0
745(15) 0.00432 731.0 49.4
747(14) 0.00479 731.5 47.9
783(15) 0.00454 731.9 46.4
800(15) 0.00421 732.4 45.1
752(15) 0.00423 732.9 43.8
759(15) 0.00443 733.4 42.6
721(14) 0.00496 733.8 41.4
725(14) 0.00492 734.3 40.3
722(14) 0.00469 734.8 39.2
771(15) 0.00408 735.3 38.3
740(14) 0.00462 735.8 37.3
752(14) 0.00478 736.2 36.4
716(14) 0.00498 736.7 35.5
723(14) 0.00468 737.2 34.7
773(15) 0.00404 737.7 33.9
735(15) 0.00455 738.1 33.1
730(14) 0.00485 738.6 32.4
733(14) 0.00470 739.1 31.7
707(14) 0.00482 739.6 31.0
766(15) 0.00418 740.0 30.4
746(15) 0.00444 740.5 29.7
738(14) 0.00483 741.0 29.1
757(14) 0.00456 741.5 28.6
752(15) 0.00443 742.0 28.0
760(15) 0.00433 742.4 27.5
767(15) 0.00436 742.9 26.9
753(14) 0.00476 743.4 26.4
750(14) 0.00461 743.9 26.0
736(15) 0.00444 744.3 25.5
748(15) 0.00431 744.8 25.0
721(14) 0.00474 745.3 24.6
751(14) 0.00476 745.8 24.2
742(15) 0.00455 746.2 23.8
807(15) 0.00404 746.7 23.4
745(15) 0.00441 747.2 23.0
742(14) 0.00456 747.7 22.6
699(14) 0.00508 748.1 22.3
735(15) 0.00447 748.6 21.9
715(15) 0.00451 749.1 21.6
754(15) 0.00441 749.6 21.3
738(14) 0.00479 750.1 21.0
759(14) 0.00470 750.5 20.6
757(15) 0.00447 751.0 20.4
748(15) 0.00428 751.5 20.1
731(14) 0.00464 752.0 19.8
757(14) 0.00462 752.4 19.5
723(14) 0.00492 752.9 19.3
794(15) 0.00408 753.4 19.0
777(15) 0.00408 753.9 18.8
756(15) 0.00435 754.3 18.5
765(14) 0.00464 754.8 18.3
769(14) 0.00464 755.3 18.1
749(15) 0.00438 755.8 17.9
768(16) 0.00399 756.2 17.7
788(15) 0.00426 756.7 17.5
767(14) 0.00462 757.2 17.3
807(15) 0.00436 757.7 17.1
756(15) 0.00440 758.2 16.9
770(15) 0.00407 758.6 16.7
766(15) 0.00437 759.1 16.5
737(14) 0.00479 759.6 16.4
760(14) 0.00464 760.1 16.2
789(15) 0.00420 760.5 16.1
752(15) 0.00414 761.0 15.9
754(15) 0.00439 761.5 15.8
731(14) 0.00483 762.0 15.6
790(15) 0.00442 762.4 15.5
781(15) 0.00428 762.9 15.4
763(15) 0.00422 763.4 15.3
759(15) 0.00443 763.9 15.2
800(15) 0.00449 764.4 15.1
780(15) 0.00445 764.9 15.0
781(15) 0.00422 765.5 14.9
749(15) 0.00435 766.0 14.8
744(15) 0.00446 766.6 14.7
788(15) 0.00453 767.2 14.6
792(15) 0.00431 767.7 14.5
785(15) 0.00421 768.3 14.5
780(15) 0.00421 768.8 14.4
797(15) 0.00431 769.4 14.3
812(15) 0.00439 770.0 14.3
777(15) 0.00439 770.5 14.2
808(16) 0.00401 771.1 14.2
768(15) 0.00423 771.7 14.2
785(15) 0.00440 772.2 14.1
787(15) 0.00450 772.8 14.1
769(15) 0.00427 773.4 14.1
806(16) 0.00397 773.9 14.1
773(15) 0.00431 774.5 14.1
756(14) 0.00459 775.0 14.1
781(14) 0.00457 775.6 14.1
799(15) 0.00417 776.2 14.2
768(15) 0.00419 776.7 14.2
766(15) 0.00438 777.3 14.3
759(14) 0.00463 777.9 14.3
813(15) 0.00438 778.4 14.4
787(15) 0.00422 779.0 14.5
789(15) 0.00407 779.6 14.6
792(15) 0.00421 780.1 14.7
768(15) 0.00456 780.7 14.8
785(15) 0.00454 781.3 14.9
766(15) 0.00442 781.8 15.1
771(15) 0.00410 782.4 15.2
811(15) 0.00416 782.9 15.4
785(15) 0.00455 783.5 15.6
778(15) 0.00456 784.1 15.8
802(15) 0.00414 784.6 16.1
814(16) 0.00386 785.2 16.4
790(15) 0.00432 785.8 16.7
827(15) 0.00431 786.3 17.0
767(14) 0.00462 786.9 17.4
799(15) 0.00419 787.5 17.8
792(16) 0.00399 788.0 18.2
797(15) 0.00417 788.6 18.7
756(14) 0.00468 789.1 19.3
800(15) 0.00441 789.7 19.8
828(15) 0.00409 790.3 20.5
809(15) 0.00404 790.8 21.2
833(16) 0.00398 791.4 22.1
793(15) 0.00448 792.0 23.0
796(15) 0.00437 792.5 24.0
797(15) 0.00415 793.1 25.1
829(16) 0.00392 793.7 26.3
808(15) 0.00416 794.2 27.8
805(15) 0.00444 794.8 29.4
842(15) 0.00414 795.3 31.2
834(16) 0.00392 795.9 33.3
840(16) 0.00395 796.5 35.6
857(16) 0.00394 797.0 38.4
811(15) 0.00444 797.6 41.6
837(15) 0.00411 798.2 45.5
865(16) 0.00379 798.7 50.3
857(16) 0.00397 799.3 56.3
899(16) 0.00383 799.9 64.2
853(15) 0.00420 800.4 74.7
946(16) 0.00361 801.0 88.8
978(17) 0.003345 801.5 108.2
968(17) 0.003378 802.1 134.4
1020(17) 0.003322 802.7 169.3
1055(17) 0.003417 803.2 214.7
1098(18) 0.003028 803.8 271.8
1198(19) 0.002685 804.4 341.1
1242(19) 0.002702 804.9 421.3
1291(19) 0.002745 805.5 509.5
1394(19) 0.002617 806.1 599.6
1469(21) 0.002300 806.6 682.1
1517(21) 0.002161 807.2 744.2
1561(21) 0.002202 807.7 772.7
1589(21) 0.002251 808.3 760.5
1560(20) 0.002342 808.9 710.6
1411(20) 0.002409 809.4 634.6
1346(20) 0.002361 810.0 546.1
1246(19) 0.002727 810.6 456.2
1122(17) 0.003225 811.1 372.1
1064(17) 0.003365 811.7 298.1
979(17) 0.003406 812.3 236.0
937(17) 0.003318 812.8 185.8
956(17) 0.003442 813.4 146.8
915(16) 0.00388 814.0 117.2
893(16) 0.00400 814.5 95.2
874(16) 0.00390 815.1 79.0
847(16) 0.00376 815.6 67.1
896(16) 0.00366 816.2 58.3
899(16) 0.00400 816.8 51.5
838(15) 0.00423 817.3 46.2
891(16) 0.00378 817.9 41.9
899(16) 0.00356 818.5 38.3
877(16) 0.00382 819.0 35.3
856(15) 0.00417 819.6 32.7
862(15) 0.00405 820.2 30.5
829(15) 0.00408 820.7 28.5
868(16) 0.00373 821.3 26.7
882(16) 0.00381 821.8 25.2
844(15) 0.00424 822.4 23.8
838(15) 0.00409 823.0 22.5
833(16) 0.00391 823.5 21.4
808(15) 0.00403 824.1 20.4
805(15) 0.00429 824.7 19.4
840(15) 0.00424 825.2 18.6
860(16) 0.00400 825.8 17.8
829(15) 0.00403 826.4 17.1
838(16) 0.00393 826.9 16.5
863(16) 0.00392 827.5 15.9
859(15) 0.00416 828.0 15.4
810(15) 0.00424 828.6 14.9
843(16) 0.00393 829.2 14.4
849(16) 0.00388 829.7 14.0
828(15) 0.00423 830.3 13.6
840(15) 0.00425 830.9 13.2
835(15) 0.00405 831.4 12.9
807(15) 0.00408 832.0 12.5
817(16) 0.00397 832.6 12.2
804(15) 0.00436 833.1 12.0
829(15) 0.00432 833.7 11.7
808(15) 0.00418 834.2 11.5
859(16) 0.00369 834.8 11.2
810(15) 0.00418 835.4 11.0
878(16) 0.00395 835.9 10.8
858(15) 0.00416 836.5 10.6
831(16) 0.00398 837.1 10.4
858(16) 0.00362 837.6 10.3
838(15) 0.00406 838.2 10.1
850(15) 0.00415 838.8 10.0
865(15) 0.00411 839.3 9.8
841(15) 0.00407 839.9 9.7
824(16) 0.00387 840.4 9.6
840(16) 0.00400 841.0 9.5
829(15) 0.00431 841.6 9.3
829(15) 0.00424 842.1 9.2
846(15) 0.00402 842.7 9.1
833(16) 0.00388 843.3 9.0
826(15) 0.00416 843.8 9.0
854(15) 0.00417 844.4 8.9
847(15) 0.00417 845.0 8.8
843(16) 0.00399 845.5 8.7
835(16) 0.00373 846.1 8.7
812(15) 0.00413 846.7 8.6
837(15) 0.00426 847.2 8.5
836(15) 0.00421 847.8 8.5
880(16) 0.00380 848.3 8.4
911(17) 0.003454 848.9 8.4
860(16) 0.00379 849.5 8.3
846(15) 0.00421 850.0 8.3
890(16) 0.00391 850.6 8.3
879(16) 0.00387 851.2 8.2
859(16) 0.00385 851.7 8.2
860(16) 0.00387 852.3 8.2
913(16) 0.00392 852.9 8.1
843(15) 0.00411 853.4 8.1
856(16) 0.00382 854.0 8.1
798(15) 0.00422 854.5 8.1
800(15) 0.00434 855.1 8.1
852(15) 0.00419 855.7 8.0
850(16) 0.00394 856.2 8.0
841(16) 0.00385 856.8 8.0
850(16) 0.00391 857.4 8.0
898(16) 0.00377 857.9 8.0
820(15) 0.00435 858.5 8.0
899(16) 0.00368 859.1 8.0
889(16) 0.00376 859.6 8.0
889(16) 0.00382 860.2 8.0
835(15) 0.00412 860.7 8.0
864(15) 0.00416 861.3 8.0
860(16) 0.00379 861.9 8.1
819(16) 0.00399 862.4 8.1
826(15) 0.00413 863.0 8.1
857(15) 0.00410 863.6 8.1
878(15) 0.00411 864.1 8.1
858(16) 0.00393 864.7 8.2
841(16) 0.00381 865.3 8.2
868(16) 0.00387 865.8 8.2
866(15) 0.00407 866.4 8.3
865(15) 0.00413 866.9 8.3
835(15) 0.00406 867.5 8.3
824(16) 0.00379 868.0 8.4
847(16) 0.00390 868.5 8.4
866(15) 0.00416 869.0 8.5
866(15) 0.00408 869.5 8.5
838(15) 0.00406 870.0 8.6
908(17) 0.003343 870.5 8.6
871(16) 0.00389 871.0 8.7
889(15) 0.00405 871.5 8.7
897(16) 0.00393 872.1 8.8
845(16) 0.00394 872.6 8.9
898(17) 0.00355 873.1 8.9
869(16) 0.00395 873.6 9.0
873(15) 0.00409 874.1 9.1
882(15) 0.00402 874.6 9.1
905(16) 0.00370 875.1 9.2
883(16) 0.00360 875.6 9.3
888(16) 0.00370 876.1 9.4
899(16) 0.00399 876.6 9.5
894(16) 0.00389 877.1 9.6
925(16) 0.00357 877.6 9.7
937(17) 0.003419 878.2 9.8
870(16) 0.00374 878.7 9.9
886(15) 0.00403 879.2 10.0
895(16) 0.00387 879.7 10.1
914(16) 0.00361 880.2 10.3
912(16) 0.00361 880.7 10.4
880(16) 0.00381 881.2 10.5
890(15) 0.00404 881.7 10.7
904(16) 0.00376 882.2 10.8
885(16) 0.00369 882.7 11.0
877(16) 0.00378 883.2 11.1
856(15) 0.00409 883.7 11.3
888(15) 0.00402 884.3 11.5
932(16) 0.00359 884.8 11.6
884(16) 0.00367 885.3 11.8
921(16) 0.00362 885.8 12.0
922(16) 0.00381 886.3 12.2
874(15) 0.00408 886.8 12.4
869(16) 0.00383 887.3 12.7
890(16) 0.00360 887.8 12.9
870(16) 0.00391 888.3 13.1
932(16) 0.00376 888.8 13.4
880(15) 0.00407 889.3 13.6
899(16) 0.00371 889.8 13.9
897(17) 0.00352 890.4 14.2
924(16) 0.00356 890.9 14.5
884(16) 0.00397 891.4 14.8
955(16) 0.00374 891.9 15.1
940(16) 0.00358 892.4 15.4
901(17) 0.003506 892.9 15.8
932(16) 0.00358 893.4 16.1
895(16) 0.00396 893.9 16.5
916(16) 0.00391 894.4 16.9
903(16) 0.00380 894.9 17.3
916(17) 0.003358 895.4 17.8
901(16) 0.00371 895.9 18.2
897(16) 0.00396 896.4 18.7
891(16) 0.00394 897.0 19.2
919(16) 0.00365 897.5 19.7
929(17) 0.003449 898.0 20.3
924(16) 0.00366 898.5 20.9
899(15) 0.00403 899.0 21.5
897(16) 0.00393 899.5 22.1
942(17) 0.003507 900.0 22.8
919(17) 0.003481 900.5 23.5
933(16) 0.00357 901.0 24.3
936(16) 0.00384 901.5 25.1
970(16) 0.00360 902.0 26.0
917(16) 0.00374 902.5 26.9
931(17) 0.003490 903.1 27.8
924(16) 0.00367 903.6 28.8
973(16) 0.00368 904.1 29.9
893(16) 0.00388 904.6 31.1
958(17) 0.00353 905.1 32.3
983(17) 0.003366 905.6 33.6
941(16) 0.00356 906.1 35.0
951(16) 0.00378 906.6 36.5
963(16) 0.00358 907.1 38.0
944(17) 0.003496 907.6 39.7
942(17) 0.00353 908.1 41.5
967(17) 0.00354 908.6 43.5
964(16) 0.00374 909.2 45.6
964(17) 0.00352 909.7 47.9
934(16) 0.00358 910.2 50.3
953(17) 0.00355 910.7 53.0
927(16) 0.00375 911.2 55.9
949(16) 0.00379 911.7 59.0
972(17) 0.003425 912.2 62.4
1026(18) 0.003154 912.7 66.2
1010(17) 0.003343 913.2 70.4
1007(17) 0.003473 913.7 75.0
1003(16) 0.00360 914.2 80.1
986(17) 0.003432 914.7 85.8
1031(18) 0.003035 915.3 92.2
1011(17) 0.003306 915.8 99.3
1078(17) 0.003244 916.3 107.4
1032(17) 0.003490 916.8 116.6
1033(17) 0.003274 917.3 127.1
1024(18) 0.003146 917.8 138.9
1040(17) 0.003224 918.3 152.4
1071(17) 0.003375 918.8 167.8
1102(17) 0.003209 919.3 185.2
1108(18) 0.003095 919.8 205.0
1138(19) 0.002765 920.3 227.4
1183(19) 0.002792 920.8 252.6
1150(18) 0.003129 921.3 280.8
1202(18) 0.002984 921.9 312.1
1282(19) 0.002617 922.4 346.8
1297(20) 0.002426 922.9 384.7
1329(20) 0.002517 923.4 425.8
1373(19) 0.002635 923.9 469.4
1435(20) 0.002481 924.4 515.0
1547(21) 0.002175 924.9 561.3
1551(22) 0.002074 925.4 606.5
1619(22) 0.002094 925.9 648.6
1654(21) 0.002186 926.4 684.7
1704(22) 0.002108 926.9 712.1
1763(23) 0.001895 927.4 728.5
1701(23) 0.001924 928.0 732.1
1652(22) 0.002048 928.5 722.7
1660(21) 0.002178 929.0 701.2
1606(21) 0.002180 929.5 669.6
1527(21) 0.002199 930.0 630.5
1494(21) 0.002202 930.5 586.7
1500(21) 0.002202 931.0 540.8
1426(20) 0.002538 931.5 494.6
1386(20) 0.002493 932.0 449.8
1303(19) 0.002602 932.5 407.2
1255(19) 0.002659 933.0 367.4
1239(19) 0.002752 933.5 330.9
1230(18) 0.002938 934.1 297.7
1192(19) 0.002842 934.6 267.7
1176(19) 0.002807 935.1 240.9
1183(19) 0.002776 935.6 216.9
1208(18) 0.002855 936.1 195.7
1195(18) 0.003031 936.6 177.0
1202(19) 0.002825 937.1 160.5
1123(18) 0.002900 937.6 146.0
1109(18) 0.003003 938.1 133.2
1131(18) 0.003086 938.6 122.0
1088(17) 0.003337 939.1 112.1
1120(18) 0.003024 939.6 103.4
1087(18) 0.003013 940.1 95.7
1104(18) 0.003054 940.7 88.9
1085(17) 0.003253 941.2 82.8
1057(17) 0.003415 941.7 77.3
1052(17) 0.003229 942.2 72.5
1038(18) 0.003115 942.7 68.0
1090(18) 0.003109 943.2 64.1
1011(17) 0.00354 943.7 60.4
1015(17) 0.00353 944.2 57.1
1071(17) 0.003188 944.7 54.1
1043(18) 0.003056 945.2 51.3
1050(18) 0.003146 945.7 48.7
1021(17) 0.003488 946.2 46.3
1031(17) 0.003500 946.8 44.1
1068(18) 0.003160 947.3 42.0
1054(18) 0.002988 947.8 40.1
1013(17) 0.003275 948.3 38.4
1004(16) 0.00359 948.8 36.7
1055(17) 0.003365 949.3 35.1
987(17) 0.003445 949.8 33.7
1013(18) 0.003124 950.3 32.3
986(17) 0.00353 950.8 31.0
1006(16) 0.00357 951.3 29.8
996(16) 0.00356 951.8 28.7
970(17) 0.00355 952.3 27.6
1014(17) 0.003232 952.9 26.6
1028(17) 0.003275 953.4 25.7
994(16) 0.00363 953.9 24.8
1012(17) 0.003491 954.4 23.9
1003(17) 0.003362 954.9 23.1
1040(18) 0.003099 955.4 22.4
1004(17) 0.003369 955.9 21.7
963(16) 0.00374 956.4 21.0
991(17) 0.00353 956.9 20.3
974(17) 0.003413 957.4 19.7
977(17) 0.003371 957.9 19.1
1027(17) 0.003308 958.4 18.5
941(16) 0.00386 959.0 18.0
978(17) 0.003455 959.5 17.5
981(17) 0.003339 960.0 17.0
1004(17) 0.003249 960.5 16.5
1005(17) 0.003441 961.0 16.1
994(16) 0.00362 961.5 15.7
1011(17) 0.003379 962.0 15.2
1001(17) 0.003259 962.5 14.9
985(17) 0.003437 963.0 14.5
976(16) 0.00364 963.5 14.1
1037(17) 0.003448 964.0 13.8
964(17) 0.003442 964.5 13.4
984(17) 0.003288 965.0 13.1
970(17) 0.003440 965.6 12.8
979(16) 0.00359 966.1 12.5
1015(16) 0.00356 966.6 12.2
1043(17) 0.003189 967.1 12.0
976(17) 0.003327 967.6 11.7
999(17) 0.003366 968.1 11.5
989(16) 0.00358 968.6 11.2
969(16) 0.00373 969.1 11.0
954(17) 0.00355 969.6 10.7
971(17) 0.003243 970.1 10.5
981(17) 0.003484 970.6 10.3
975(16) 0.00363 971.1 10.1
1014(17) 0.00352 971.7 9.9
1013(17) 0.003365 972.2 9.8
1022(18) 0.003035 972.7 9.6
964(17) 0.003463 973.2 9.4
1010(17) 0.00353 973.7 9.3
1059(17) 0.003387 974.2 9.1
1014(17) 0.003311 974.7 8.9
969(17) 0.003354 975.2 8.8
989(17) 0.003466 975.7 8.6
1006(16) 0.00362 976.2 8.5
1039(17) 0.003432 976.7 8.3
1042(17) 0.003208 977.2 8.2
1033(18) 0.003081 977.8 8.1
999(17) 0.003260 978.3 7.9
969(16) 0.00374 978.8 7.8
963(16) 0.00367 979.3 7.7
1001(17) 0.003365 979.8 7.6
1008(17) 0.003242 980.3 7.5
1006(17) 0.003342 980.8 7.3
1012(16) 0.00356 981.3 7.2
1008(17) 0.003503 981.8 7.1
1027(17) 0.003236 982.3 7.0
1033(17) 0.003184 982.8 6.9
1026(17) 0.003336 983.3 6.8
1016(17) 0.00354 983.9 6.7
1005(17) 0.003375 984.4 6.6
979(17) 0.003430 984.9 6.6
1001(17) 0.003355 985.4 6.5
1007(17) 0.003439 985.9 6.4
1068(17) 0.003378 986.4 6.3
1031(17) 0.003357 986.9 6.2
1000(17) 0.003301 987.4 6.2
993(17) 0.003399 987.9 6.1
996(17) 0.00353 988.4 6.0
1014(17) 0.00354 988.9 5.9
1047(18) 0.003152 989.4 5.9
1011(17) 0.003190 989.9 5.8
966(16) 0.00356 990.5 5.7
1004(17) 0.003444 991.0 5.7
1018(17) 0.003501 991.5 5.6
1008(17) 0.003320 992.0 5.5
995(17) 0.003195 992.5 5.5
1009(17) 0.003350 993.0 5.4
960(16) 0.00373 993.5 5.4
1003(16) 0.00362 994.0 5.3
1000(17) 0.003388 994.5 5.3
1061(18) 0.002938 995.0 5.2
1001(17) 0.003385 995.5 5.2
1006(16) 0.00358 996.0 5.1
999(16) 0.00359 996.6 5.1
1012(17) 0.003381 997.1 5.0
981(17) 0.003256 997.6 5.0
1005(17) 0.003363 998.1 4.9
1043(17) 0.003435 998.6 4.9
1022(17) 0.003505 999.1 4.9
1017(17) 0.003378 999.6 4.8
1013(18) 0.003124 1000.1 4.8
1005(17) 0.003394 1000.6 4.8
1026(17) 0.00352 1001.1 4.7
987(16) 0.00357 1001.6 4.7
1007(17) 0.003358 1002.1 4.7
1018(17) 0.003197 1002.7 4.6
1040(17) 0.003231 1003.2 4.6
1048(17) 0.003448 1003.7 4.6
996(17) 0.00351 1004.2 4.5
999(17) 0.003304 1004.7 4.5
1004(17) 0.003265 1005.2 4.5
1032(17) 0.003243 1005.7 4.5
1030(17) 0.003478 1006.2 4.5
1043(17) 0.003303 1006.7 4.4
1026(17) 0.003282 1007.2 4.4
1018(17) 0.003225 1007.7 4.4
1070(18) 0.003144 1008.2 4.4
1026(17) 0.003498 1008.8 4.4
1021(17) 0.003335 1009.3 4.4
1031(17) 0.003199 1009.8 4.4
988(17) 0.003387 1010.3 4.4
1030(17) 0.003333 1010.8 4.4
1049(17) 0.003447 1011.3 4.4
1039(17) 0.003268 1011.8 4.4
1007(17) 0.003244 1012.3 4.4
989(17) 0.003394 1012.8 4.4
1023(17) 0.003399 1013.3 4.4
1036(17) 0.003447 1013.8 4.4
1038(17) 0.003265 1014.3 4.4
1049(18) 0.003130 1014.8 4.5
1037(17) 0.003275 1015.4 4.5
1044(17) 0.003385 1015.9 4.5
1027(17) 0.003485 1016.4 4.5
980(17) 0.003458 1016.9 4.6
1052(18) 0.003046 1017.4 4.6
1001(17) 0.003393 1017.9 4.6
993(16) 0.00356 1018.4 4.7
1015(17) 0.00354 1018.9 4.7
1042(17) 0.003254 1019.4 4.8
1023(18) 0.003036 1019.9 4.8
1026(17) 0.003220 1020.4 4.9
1028(17) 0.003438 1020.9 4.9
1030(17) 0.003481 1021.5 5.0
1069(18) 0.003137 1022.0 5.0
1012(18) 0.003084 1022.5 5.1
1027(17) 0.003269 1023.0 5.1
1070(17) 0.003358 1023.5 5.2
979(16) 0.00367 1024.0 5.2
1011(17) 0.003293 1024.5 5.2
1022(18) 0.003034 1025.0 5.2
1054(17) 0.003202 1025.5 5.2
1001(16) 0.00362 1026.0 5.3
1062(17) 0.003339 1026.5 5.2
1016(17) 0.003342 1026.6 5.2
1019(18) 0.003116 1026.5 5.2
1038(17) 0.003245 1026.4 5.2
1019(17) 0.00353 1026.3 5.1
1047(17) 0.003378 1026.3 5.1
1052(17) 0.003179 1026.2 5.0
1066(18) 0.003072 1026.1 5.0
1048(17) 0.003180 1026.1 4.9
1030(17) 0.003485 1026.0 4.8
1040(17) 0.003340 1025.9 4.7
1071(18) 0.003102 1025.8 4.7
1055(18) 0.003108 1025.8 4.6
1057(17) 0.003211 1025.7 4.5
1050(17) 0.003428 1025.6 4.5
1009(17) 0.003442 1025.5 4.4
1054(18) 0.003098 1025.5 4.3
1039(17) 0.003189 1025.4 4.3
1062(17) 0.003294 1025.3 4.2
1074(17) 0.003364 1025.3 4.1
1038(17) 0.003322 1025.2 4.1
1021(17) 0.003286 1025.1 4.0
1037(17) 0.003175 1025.0 4.0
1025(17) 0.003395 1025.0 4.0
1051(17) 0.003404 1024.9 3.9
1032(17) 0.003198 1024.8 3.9
1069(18) 0.003020 1024.7 3.8
1079(18) 0.003132 1024.7 3.8
1057(17) 0.003335 1024.6 3.8
1069(17) 0.003367 1024.5 3.8
1080(18) 0.003100 1024.5 3.7
1096(18) 0.002950 1024.4 3.7
1060(17) 0.003208 1024.3 3.7
1111(17) 0.003185 1024.2 3.7
1045(17) 0.003421 1024.2 3.7
1027(17) 0.003290 1024.1 3.6
1060(18) 0.002981 1024.0 3.6
1029(17) 0.003257 1023.9 3.6
1027(17) 0.003448 1023.9 3.6
1052(17) 0.003440 1023.8 3.6
1036(17) 0.003290 1023.7 3.6
1044(18) 0.003024 1023.7 3.6
1060(17) 0.003238 1023.6 3.6
1061(17) 0.003397 1023.5 3.6
1024(17) 0.00353 1023.4 3.6
1090(18) 0.003085 1023.4 3.6
1081(18) 0.002929 1023.3 3.6
1108(18) 0.002971 1023.2 3.7
1073(17) 0.003358 1023.2 3.7
1008(17) 0.00354 1023.1 3.7
1054(17) 0.003212 1023.0 3.7
1014(17) 0.003190 1022.9 3.7
1070(18) 0.003164 1022.9 3.7
1097(17) 0.003277 1022.8 3.8
1033(17) 0.003429 1022.7 3.8
1034(17) 0.003233 1022.6 3.8
1012(18) 0.003170 1022.6 3.8
1036(18) 0.003166 1022.5 3.9
1030(17) 0.003494 1022.4 3.9
1082(17) 0.003230 1022.4 3.9
1012(17) 0.003316 1022.3 4.0
1022(17) 0.003249 1022.2 4.0
1065(18) 0.003134 1022.1 4.1
1068(17) 0.003368 1022.1 4.1
1063(17) 0.003290 1022.0 4.2
1037(17) 0.003215 1021.9 4.2
1040(17) 0.003207 1021.8 4.3
1067(17) 0.003224 1021.8 4.3
1065(17) 0.003363 1021.7 4.4
1042(17) 0.003286 1021.6 4.4
1051(18) 0.003135 1021.6 4.5
1056(18) 0.003151 1021.5 4.6
1069(17) 0.003277 1021.4 4.7
1043(17) 0.003448 1021.3 4.7
1040(17) 0.003234 1021.3 4.8
1044(18) 0.003082 1021.2 4.9
1020(17) 0.003276 1021.1 5.0
1065(17) 0.003272 1021.0 5.1
1040(17) 0.003434 1021.0 5.2
1043(17) 0.003241 1020.9 5.3
1107(18) 0.002910 1020.8 5.5
1048(17) 0.003250 1020.8 5.6
1011(17) 0.003498 1020.7 5.7
1003(16) 0.00357 1020.6 5.9
1012(17) 0.003320 1020.5 6.1
1053(18) 0.003059 1020.5 6.2
1052(17) 0.003198 1020.4 6.4
1045(17) 0.003411 1020.3 6.6
1061(17) 0.003397 1020.3 6.8
1035(17) 0.003279 1020.2 7.0
1024(18) 0.003039 1020.1 7.3
1058(17) 0.003179 1020.0 7.5
1074(17) 0.003364 1020.0 7.8
1076(17) 0.003321 1019.9 8.1
1047(17) 0.003240 1019.8 8.5
1097(18) 0.002852 1019.7 8.8
1035(17) 0.003260 1019.7 9.2
1001(16) 0.00359 1019.6 9.6
1107(17) 0.003219 1019.5 9.9
1040(17) 0.003272 1019.5 10.4
1076(18) 0.002945 1019.4 10.9
1037(17) 0.003256 1019.3 11.5
1068(17) 0.003366 1019.2 12.1
1073(17) 0.003317 1019.2 12.8
1076(18) 0.003110 1019.1 13.6
1095(18) 0.002882 1019.0 14.4
995(17) 0.003475 1018.9 15.2
1091(17) 0.003310 1018.9 16.2
1044(17) 0.003358 1018.8 17.2
1064(18) 0.003153 1018.7 18.3
1072(18) 0.003078 1018.7 19.5
1062(18) 0.003098 1018.6 20.8
1037(17) 0.003500 1018.5 22.2
1092(17) 0.003225 1018.4 23.7
1086(18) 0.003040 1018.4 25.2
1098(18) 0.002960 1018.3 26.9
1070(18) 0.003143 1018.2 28.6
1053(17) 0.003427 1018.1 30.4
1053(17) 0.003282 1018.1 32.3
1063(18) 0.003094 1018.0 34.3
1077(18) 0.003078 1017.9 36.2
1095(17) 0.003236 1017.9 38.1
1094(17) 0.003298 1017.8 39.9
1085(18) 0.003140 1017.7 41.7
1117(18) 0.002931 1017.6 43.2
1087(18) 0.003107 1017.6 44.6
1029(17) 0.003322 1017.5 45.6
1074(17) 0.003365 1017.4 46.3
1057(17) 0.003181 1017.3 46.7
1061(18) 0.002990 1017.3 46.7
1038(17) 0.003252 1017.2 46.3
1047(17) 0.003393 1017.1 45.5
1060(17) 0.003390 1017.1 44.4
1093(18) 0.003092 1017.0 43.1
1066(18) 0.003065 1016.9 41.5
1108(18) 0.003058 1016.8 39.8
1049(17) 0.003432 1016.8 37.9
1111(17) 0.003245 1016.7 36.0
1116(18) 0.002975 1016.6 34.0
1063(18) 0.003035 1016.6 32.1
1064(18) 0.003148 1016.5 30.2
1068(17) 0.003346 1016.4 28.4
1021(17) 0.00353 1016.3 26.6
1065(18) 0.003132 1016.3 25.0
1068(18) 0.002891 1016.2 23.4
1050(17) 0.003223 1016.1 21.9
1052(17) 0.003434 1016.0 20.5
1051(17) 0.003393 1016.0 19.2
1068(17) 0.003207 1015.9 18.0
1072(18) 0.002951 1015.8 16.9
1060(18) 0.003141 1015.8 15.9
1062(17) 0.003367 1015.7 14.9
1052(17) 0.003362 1015.6 14.1
1033(17) 0.003192 1015.5 13.3
1035(18) 0.003042 1015.5 12.5
1023(17) 0.003260 1015.4 11.8
1025(17) 0.003507 1015.3 11.2
1031(17) 0.003394 1015.2 10.6
1062(18) 0.003163 1015.2 10.0
1051(18) 0.003128 1015.1 9.5
1084(18) 0.003058 1015.0 9.1
1067(17) 0.003375 1015.0 8.7
1041(17) 0.003411 1014.9 8.3
1053(17) 0.003189 1014.8 7.9
1061(18) 0.003090 1014.7 7.6
1064(17) 0.003179 1014.7 7.3
1119(17) 0.003235 1014.6 7.0
1096(18) 0.003133 1014.5 6.7
1040(17) 0.003217 1014.4 6.4
1061(18) 0.003111 1014.4 6.2
1100(18) 0.003124 1014.3 6.0
1079(17) 0.003332 1014.2 5.8
1081(18) 0.003136 1014.2 5.6
1047(18) 0.003147 1014.1 5.4
1032(17) 0.003221 1014.0 5.2
1027(17) 0.003366 1013.9 5.1
1067(17) 0.003370 1013.9 4.9
1029(17) 0.003250 1013.8 4.8
1029(17) 0.003187 1013.7 4.6
1053(17) 0.003212 1013.7 4.5
1021(17) 0.003464 1013.6 4.4
1075(17) 0.003352 1013.5 4.3
1031(17) 0.003211 1013.4 4.2
1044(18) 0.003057 1013.4 4.0
1054(18) 0.003168 1013.3 3.9
1031(17) 0.003460 1013.2 3.8
1070(17) 0.003363 1013.1 3.8
1081(18) 0.003143 1013.1 3.7
1080(18) 0.002973 1013.0 3.6
1070(18) 0.003150 1012.9 3.5
1028(17) 0.00351 1012.9 3.4
1035(17) 0.003494 1012.8 3.4
1063(18) 0.003135 1012.7 3.3
1040(18) 0.003042 1012.6 3.2
1065(17) 0.003190 1012.6 3.2
1056(17) 0.003402 1012.5 3.1
1019(17) 0.00351 1012.4 3.0
1043(17) 0.003252 1012.3 3.0
1075(18) 0.002889 1012.3 2.9
1041(17) 0.003242 1012.2 2.9
1059(17) 0.003390 1012.1 2.8
1055(17) 0.003405 1012.1 2.8
1067(18) 0.003132 1012.0 2.7
1052(18) 0.002982 1011.9 2.7
1050(17) 0.003173 1011.8 2.6
1080(17) 0.003356 1011.8 2.6
1045(17) 0.003370 1011.7 2.6
1035(17) 0.003223 1011.6 2.5
1074(18) 0.002992 1011.5 2.5
1077(18) 0.003076 1011.5 2.4
1038(17) 0.003464 1011.4 2.4
1032(17) 0.003361 1011.3 2.4
1053(17) 0.003228 1011.3 2.3
1084(18) 0.003076 1011.2 2.3
1105(18) 0.003063 1011.1 2.3
1073(17) 0.003359 1011.0 2.2
1044(17) 0.003321 1011.0 2.2
995(17) 0.003401 1010.9 2.2
1032(17) 0.003211 1010.8 2.2
1077(17) 0.003236 1010.7 2.1
1049(17) 0.003446 1010.7 2.1
1038(17) 0.003334 1010.6 2.1
1062(18) 0.003126 1010.5 2.1
1102(18) 0.003098 1010.5 2.0
1098(18) 0.003136 1010.4 2.0
1053(17) 0.003422 1010.3 2.0
1040(17) 0.003243 1010.2 2.0
1056(18) 0.003144 1010.2 1.9
1076(18) 0.003094 1010.1 1.9
1025(17) 0.003427 1010.0 1.9
1072(17) 0.003361 1010.0 1.9
1058(17) 0.003197 1009.9 1.9
1097(18) 0.002968 1009.8 1.8
1035(17) 0.003278 1009.7 1.8
1041(17) 0.003358 1009.7 1.8
1012(16) 0.00356 1009.6 1.8
1037(17) 0.003314 1009.5 1.8
1057(18) 0.003047 1009.4 1.8
1040(17) 0.003256 1009.4 1.7
1021(17) 0.00351 1009.3 1.7
1057(17) 0.003393 1009.2 1.7
1021(17) 0.003293 1009.2 1.7
1054(18) 0.002928 1009.1 1.7
1002(17) 0.003347 1009.0 1.7
1094(17) 0.003288 1008.9 1.7
1050(17) 0.003452 1008.9 1.6
1083(18) 0.003110 1008.8 1.6
1058(18) 0.003018 1008.7 1.6
1017(17) 0.003329 1008.6 1.6
1032(17) 0.003475 1008.6 1.6
1059(17) 0.003361 1008.5 1.6
1053(17) 0.003289 1008.4 1.6
1048(18) 0.003031 1008.4 1.6
995(17) 0.003418 1008.3 1.5
1040(17) 0.003496 1008.2 1.5
1062(17) 0.003281 1008.1 1.5
1022(17) 0.003276 1008.1 1.5
1062(18) 0.003034 1008.0 1.5
1031(17) 0.003263 1007.9 1.5
1078(17) 0.003314 1007.8 1.5
1022(17) 0.003468 1007.8 1.5
1046(17) 0.003187 1007.7 1.5
1041(18) 0.003093 1007.6 1.5
1044(18) 0.003155 1007.6 1.4
1089(17) 0.003321 1007.5 1.4
1067(17) 0.003209 1007.4 1.4
1058(18) 0.003145 1007.3 1.4
1031(17) 0.003244 1007.3 1.4
1031(17) 0.003318 1007.2 1.4
1086(17) 0.003318 1007.1 1.4
1045(17) 0.003319 1007.1 1.4
1032(17) 0.003243 1007.0 1.4
1021(17) 0.003304 1006.9 1.4
1031(17) 0.003373 1006.8 1.4
1071(17) 0.003355 1006.8 1.4
1013(17) 0.003374 1006.7 1.4
1062(18) 0.003048 1006.6 1.3
1065(18) 0.003157 1006.5 1.3
1073(17) 0.003206 1006.5 1.3
1049(17) 0.003430 1006.4 1.4
1011(17) 0.003315 1006.3 1.4
1059(18) 0.002955 1006.3 1.4
1042(17) 0.003185 1006.2 1.4
1096(17) 0.003199 1006.1 1.4
1036(17) 0.003456 1006.0 1.4
1027(17) 0.003243 1006.0 1.4
1035(18) 0.003169 1005.9 1.4
1057(17) 0.003253 1005.8 1.4
1028(17) 0.003456 1005.7 1.3
1075(17) 0.003331 1005.7 1.3
1037(17) 0.003230 1005.6 1.3
1009(18) 0.003061 1005.5 1.3
1026(17) 0.003241 1005.5 1.3
1088(17) 0.003290 1005.4 1.3
1072(17) 0.003350 1005.3 1.3
1049(17) 0.003260 1005.2 1.3
1040(18) 0.003023 1005.2 1.3
1060(17) 0.003173 1005.1 1.3
1040(17) 0.003433 1005.0 1.3
1049(17) 0.003395 1004.9 1.3
1021(17) 0.003212 1004.9 1.3
1002(17) 0.003209 1004.8 1.3
991(17) 0.003379 1004.7 1.3
986(16) 0.00363 1004.7 1.3
964(16) 0.00370 1004.6 1.3
1011(17) 0.003334 1004.5 1.3
1049(18) 0.003026 1004.4 1.3
1054(17) 0.003181 1004.4 1.3
1022(17) 0.00354 1004.3 1.3
1035(17) 0.003387 1004.2 1.3
1024(17) 0.003266 1004.2 1.3
976(17) 0.003393 1004.1 1.2
1011(17) 0.003317 1004.0 1.2
983(16) 0.00365 1003.9 1.2
1011(17) 0.003407 1003.9 1.2
1043(17) 0.003197 1003.8 1.2
1029(17) 0.003226 1003.7 1.2
982(17) 0.00352 1003.6 1.2
996(16) 0.00359 1003.6 1.2
1006(17) 0.003454 1003.5 1.2
1021(17) 0.003249 1003.4 1.2
988(17) 0.003370 1003.4 1.2
1030(17) 0.003408 1003.3 1.2
1031(17) 0.003497 1003.2 1.2
1015(17) 0.003297 1003.1 1.2
1056(18) 0.003067 1003.1 1.2
1018(17) 0.003275 1003.0 1.2
1046(17) 0.003332 1002.9 1.2
1047(17) 0.003453 1002.8 1.2
998(17) 0.003332 1002.8 1.2
1020(18) 0.003148 1002.7 1.2
997(17) 0.003381 1002.6 1.2
1003(17) 0.00352 1002.6 1.2
1009(17) 0.00355 1002.5 1.2
1028(17) 0.003272 1002.4 1.2
1032(18) 0.003066 1002.3 1.2
1004(17) 0.003388 1002.3 1.2
1001(16) 0.00356 1002.2 1.2
1020(17) 0.00351 1001.8 1.2
1006(17) 0.003327 1001.3 1.2
976(17) 0.003262 1000.9 1.2
953(16) 0.00357 1000.4 1.2
966(16) 0.00370 999.9 1.2
1040(17) 0.003413 999.5 1.2
1020(17) 0.003295 999.0 1.2
1002(18) 0.003109 998.6 1.2
1011(17) 0.003383 998.1 1.2
968(16) 0.00370 997.6 1.2
1008(17) 0.00353 997.2 1.2
1003(17) 0.003311 996.7 1.2
1000(18) 0.003071 996.2 1.2
1013(17) 0.003231 995.8 1.2
1011(17) 0.00355 995.3 1.2
1029(17) 0.003439 994.8 1.2
1013(17) 0.003300 994.4 1.2
1004(17) 0.003245 993.9 1.2
993(17) 0.003405 993.5 1.2
1017(17) 0.00356 993.0 1.2
1049(17) 0.003329 992.5 1.1
1034(17) 0.003213 992.1 1.1
985(17) 0.003351 991.6 1.1
1004(17) 0.003336 991.1 1.1
991(16) 0.00364 990.7 1.1
1022(17) 0.003380 990.2 1.1
999(17) 0.003422 989.8 1.1
1005(17) 0.003284 989.3 1.1
984(17) 0.003402 988.8 1.1
992(16) 0.00362 988.4 1.1
1003(17) 0.003431 987.9 1.1
996(17) 0.003339 987.4 1.1
998(17) 0.003321 987.0 1.1
1009(17) 0.003451 986.5 1.1
1030(17) 0.003491 986.0 1.1
1001(17) 0.003325 985.6 1.1
985(17) 0.003317 985.1 1.1
993(17) 0.003271 984.7 1.1
948(16) 0.00365 984.2 1.1
989(16) 0.00365 983.7 1.1
987(17) 0.003448 983.3 1.1
988(17) 0.003338 982.8 1.1
994(17) 0.003324 982.3 1.1
973(16) 0.00362 981.9 1.1
995(16) 0.00362 981.4 1.1
1026(18) 0.003171 980.9 1.1
959(17) 0.003344 980.5 1.1
963(17) 0.003448 980.0 1.1
963(16) 0.00369 979.6 1.1
986(16) 0.00366 979.1 1.1
979(17) 0.003457 978.6 1.1
1013(17) 0.003189 978.2 1.1
991(17) 0.003414 977.7 1.1
996(16) 0.00359 977.2 1.1
990(16) 0.00360 976.8 1.1
991(17) 0.003363 976.3 1.1
979(17) 0.003192 975.9 1.1
994(17) 0.003382 975.4 1.1
1017(17) 0.00353 974.9 1.1
943(16) 0.00379 974.5 1.1
997(17) 0.003351 974.0 1.1
972(17) 0.003230 973.5 1.1
976(17) 0.003381 973.1 1.1
994(16) 0.00362 972.6 1.1
934(16) 0.00380 972.1 1.1
984(17) 0.003441 971.7 1.1
1004(17) 0.003250 971.2 1.1
964(17) 0.00351 970.8 1.1
996(16) 0.00360 970.3 1.1
1004(17) 0.00354 969.8 1.1
1002(17) 0.003360 969.4 1.1
987(17) 0.003286 968.9 1.1
970(17) 0.003503 968.4 1.1
960(16) 0.00376 968.0 1.1
1018(17) 0.003410 967.5 1.1
992(17) 0.003334 967.1 1.1
963(17) 0.003356 966.6 1.1
981(17) 0.003416 966.1 1.1
951(16) 0.00376 965.7 1.2
971(17) 0.003506 965.2 1.2
952(16) 0.00356 964.7 1.2
961(17) 0.003449 964.3 1.2
982(17) 0.003440 963.8 1.2
992(16) 0.00363 963.3 1.2
943(16) 0.00364 962.9 1.2
950(17) 0.00353 962.4 1.2
956(17) 0.003424 962.0 1.2
963(17) 0.00352 961.5 1.2
959(16) 0.00375 961.0 1.2
990(17) 0.003386 960.6 1.2
981(17) 0.003341 960.1 1.2
1000(17) 0.003291 959.6 1.2
984(17) 0.00355 959.2 1.2
977(16) 0.00368 958.7 1.2
963(17) 0.003498 958.3 1.2
952(17) 0.003424 957.8 1.2
986(17) 0.003353 957.3 1.2
997(16) 0.00357 956.9 1.2
973(16) 0.00369 956.4 1.2
951(17) 0.003503 955.9 1.2
935(17) 0.003371 955.5 1.2
930(16) 0.00358 955.0 1.2
908(16) 0.00391 954.5 1.2
947(16) 0.00378 954.1 1.2
1019(17) 0.003269 953.6 1.2
984(17) 0.003218 953.2 1.2
992(17) 0.003438 952.7 1.2
966(16) 0.00368 952.2 1.2
977(16) 0.00366 951.8 1.2
980(17) 0.003437 951.3 1.2
960(17) 0.003294 950.8 1.2
977(17) 0.003385 950.4 1.2
1017(16) 0.00357 949.9 1.2
1017(17) 0.003471 949.5 1.2
952(17) 0.00352 949.0 1.2
951(17) 0.003303 948.5 1.2
922(16) 0.00368 948.1 1.2
921(16) 0.00389 947.6 1.2
962(16) 0.00370 947.1 1.2
1001(17) 0.003353 946.7 1.2
958(17) 0.003386 946.2 1.2
958(17) 0.003441 945.7 1.2
967(16) 0.00370 945.3 1.2
955(16) 0.00370 944.8 1.2
959(17) 0.003436 944.4 1.3
956(17) 0.003376 943.9 1.3
974(17) 0.003344 943.4 1.3
976(16) 0.00368 943.0 1.3
994(17) 0.003408 942.5 1.3
980(17) 0.003412 942.0 1.3
969(17) 0.003427 941.6 1.3
975(17) 0.003469 941.1 1.3
936(16) 0.00385 940.6 1.3
923(16) 0.00372 940.2 1.3
936(17) 0.00352 939.7 1.3
953(17) 0.003354 939.3 1.3
932(16) 0.00365 938.8 1.3
980(16) 0.00366 938.3 1.3
907(16) 0.00373 937.9 1.3
946(17) 0.003415 937.4 1.3
925(17) 0.003497 936.9 1.3
920(16) 0.00376 936.5 1.3
936(16) 0.00381 936.0 1.3
957(17) 0.003477 935.6 1.3
960(17) 0.003287 935.1 1.3
914(16) 0.00360 934.6 1.3
923(16) 0.00375 934.2 1.3
966(16) 0.00369 933.7 1.3
968(17) 0.00352 933.2 1.4
951(17) 0.003329 932.8 1.4
933(16) 0.00356 932.3 1.4
918(16) 0.00378 931.8 1.4
895(16) 0.00399 931.4 1.4
922(16) 0.00371 930.9 1.4
945(17) 0.003365 930.5 1.4
947(17) 0.00355 930.0 1.4
963(16) 0.00370 929.5 1.4
964(16) 0.00369 929.1 1.4
926(16) 0.00366 928.6 1.4
929(17) 0.003362 928.1 1.4
947(17) 0.00353 927.7 1.4
941(16) 0.00381 927.2 1.4
963(16) 0.00367 926.8 1.4
899(16) 0.00379 926.3 1.5
949(17) 0.003341 925.8 1.5
951(17) 0.00354 925.4 1.5
940(16) 0.00382 924.9 1.5
934(16) 0.00379 924.4 1.5
947(16) 0.00360 924.0 1.5
942(17) 0.00351 923.5 1.5
954(17) 0.00352 923.0 1.5
909(16) 0.00393 922.6 1.5
914(16) 0.00379 922.1 1.5
918(16) 0.00363 921.7 1.5
917(16) 0.00357 921.2 1.5
946(17) 0.00355 920.7 1.6
956(16) 0.00378 920.3 1.6
917(16) 0.00372 919.8 1.6
898(16) 0.00371 919.3 1.6
926(16) 0.00356 918.9 1.6
930(16) 0.00358 918.4 1.6
905(16) 0.00397 918.0 1.6
945(16) 0.00369 917.5 1.6
951(17) 0.003432 917.0 1.6
942(17) 0.003371 916.6 1.6
930(16) 0.00371 916.1 1.7
946(16) 0.00381 915.6 1.7
885(16) 0.00383 915.2 1.7
937(17) 0.003500 914.7 1.7
935(17) 0.00352 914.2 1.7
921(16) 0.00377 913.8 1.7
908(16) 0.00394 913.3 1.7
928(17) 0.003507 912.9 1.8
908(16) 0.00358 912.4 1.8
909(16) 0.00370 911.9 1.8
915(16) 0.00387 911.5 1.8
928(16) 0.00389 911.0 1.8
916(16) 0.00362 910.5 1.8
903(17) 0.003505 910.1 1.9
886(16) 0.00378 909.6 1.9
877(15) 0.00408 909.2 1.9
924(16) 0.00388 908.7 1.9
948(17) 0.003507 908.2 1.9
943(17) 0.003349 907.8 1.9
949(16) 0.00357 907.3 2.0
945(16) 0.00377 906.8 2.0
891(16) 0.00399 906.4 2.0
926(17) 0.00355 905.9 2.0
875(17) 0.00355 905.4 2.1
925(16) 0.00365 905.0 2.1
940(16) 0.00381 904.5 2.1
949(16) 0.00374 904.1 2.1
913(16) 0.00374 903.6 2.2
900(17) 0.00354 903.1 2.2
870(16) 0.00383 902.7 2.2
864(15) 0.00417 902.2 2.3
900(16) 0.00393 901.7 2.3
956(17) 0.00352 901.3 2.3
934(17) 0.003477 900.8 2.4
892(16) 0.00378 900.3 2.4
904(16) 0.00398 899.9 2.4
925(16) 0.00381 899.4 2.5
935(16) 0.00359 898.9 2.5
902(16) 0.00357 898.4 2.6
891(16) 0.00370 897.9 2.6
928(16) 0.00386 897.4 2.7
936(16) 0.00372 896.9 2.7
981(17) 0.003338 896.4 2.8
899(16) 0.00361 895.9 2.8
890(16) 0.00376 895.4 2.9
876(15) 0.00407 894.9 3.0
896(16) 0.00380 894.4 3.1
909(16) 0.00362 893.9 3.1
879(16) 0.00375 893.4 3.2
897(16) 0.00382 892.9 3.3
917(16) 0.00392 892.4 3.4
889(16) 0.00378 891.8 3.5
896(16) 0.00363 891.3 3.6
898(16) 0.00363 890.8 3.7
893(16) 0.00382 890.3 3.8
902(16) 0.00401 889.8 3.9
846(16) 0.00398 889.3 4.1
909(17) 0.00351 888.8 4.2
882(16) 0.00383 888.3 4.4
873(15) 0.00411 887.8 4.5
936(16) 0.00383 887.3 4.7
858(16) 0.00390 886.8 4.9
893(16) 0.00358 886.3 5.1
863(16) 0.00395 885.8 5.3
898(16) 0.00390 885.3 5.5
905(16) 0.00395 884.8 5.7
903(16) 0.00368 884.3 6.0
902(17) 0.003460 883.8 6.2
879(16) 0.00390 883.3 6.5
932(16) 0.00385 882.8 6.8
896(16) 0.00400 882.3 7.0
903(16) 0.00375 881.8 7.3
895(17) 0.003444 881.2 7.6
879(16) 0.00381 880.7 7.9
892(15) 0.00403 880.2 8.2
863(15) 0.00411 879.7 8.5
905(16) 0.00374 879.2 8.8
911(17) 0.003460 878.7 9.0
853(15) 0.00405 878.2 9.2
866(15) 0.00413 877.7 9.4
864(15) 0.00410 877.2 9.6
888(16) 0.00379 876.7 9.7
896(16) 0.00359 876.2 9.8
884(16) 0.00372 875.7 9.8
882(15) 0.00405 875.2 9.8
857(15) 0.00412 874.7 9.8
915(16) 0.00369 874.2 9.7
921(17) 0.003472 873.7 9.5
883(16) 0.00372 873.2 9.4
898(16) 0.00397 872.7 9.2
879(16) 0.00397 872.2 8.9
892(16) 0.00377 871.7 8.7
902(16) 0.00369 871.2 8.5
864(16) 0.00394 870.6 8.2
896(15) 0.00401 870.1 8.0
920(16) 0.00372 869.6 7.7
894(16) 0.00369 869.1 7.5
865(16) 0.00380 868.6 7.2
858(16) 0.00398 868.1 7.0
882(15) 0.00408 867.6 6.8
876(16) 0.00388 867.1 6.6
863(16) 0.00377 866.6 6.4
883(16) 0.00367 866.1 6.2
869(16) 0.00396 865.6 6.0
863(15) 0.00415 865.1 5.9
856(16) 0.00387 864.6 5.7
904(17) 0.00353 864.1 5.6
907(16) 0.00363 863.6 5.4
862(16) 0.00398 863.1 5.3
852(15) 0.00424 862.6 5.2
864(16) 0.00389 862.1 5.1
889(17) 0.00352 861.6 5.0
858(16) 0.00394 861.1 5.0
868(15) 0.00404 860.6 4.9
862(15) 0.00415 860.0 4.8
874(16) 0.00384 859.5 4.8
873(16) 0.00370 859.0 4.7
880(16) 0.00388 858.5 4.7
852(15) 0.00411 858.0 4.7
819(15) 0.00439 857.5 4.6
855(16) 0.00386 857.0 4.6
854(16) 0.00364 856.5 4.6
869(16) 0.00389 856.0 4.6
909(16) 0.00390 855.5 4.6
871(15) 0.00409 855.0 4.6
833(15) 0.00402 854.5 4.6
838(16) 0.00367 854.0 4.6
839(16) 0.00397 853.5 4.6
842(15) 0.00426 853.0 4.6
844(15) 0.00412 852.5 4.7
805(15) 0.00416 852.0 4.7
806(16) 0.00388 851.5 4.7
840(15) 0.00402 851.0 4.7
845(15) 0.00419 850.5 4.8
821(15) 0.00428 850.0 4.8
799(15) 0.00425 849.5 4.9
854(16) 0.00373 848.9 4.9
849(16) 0.00392 848.4 5.0
876(15) 0.00408 847.9 5.0
864(15) 0.00406 847.4 5.1
834(15) 0.00410 846.9 5.1
858(16) 0.00388 846.4 5.2
853(16) 0.00391 845.9 5.3
851(15) 0.00419 845.4 5.3
833(15) 0.00416 844.9 5.4
824(15) 0.00409 844.4 5.5
843(16) 0.00391 843.9 5.6
852(15) 0.00406 843.4 5.7
837(15) 0.00425 842.9 5.8
844(15) 0.00405 842.4 5.9
832(15) 0.00402 841.9 6.0
854(16) 0.00390 841.4 6.1
811(15) 0.00430 840.9 6.2
863(15) 0.00415 840.4 6.4
879(16) 0.00385 839.9 6.5
834(15) 0.00403 839.4 6.6
885(16) 0.00374 838.9 6.8
827(15) 0.00423 838.3 6.9
804(15) 0.00449 837.8 7.1
825(15) 0.00407 837.3 7.3
871(16) 0.00369 836.8 7.5
840(15) 0.00402 836.3 7.7
853(15) 0.00409 835.8 7.9
851(15) 0.00422 835.3 8.1
802(15) 0.00421 834.8 8.3
870(16) 0.00364 834.3 8.6
878(16) 0.00378 833.8 8.8
849(15) 0.00420 833.3 9.1
804(15) 0.00442 832.8 9.4
820(15) 0.00412 832.3 9.7
867(17) 0.003491 831.8 10.0
814(15) 0.00413 831.3 10.4
831(15) 0.00428 830.8 10.8
786(15) 0.00455 830.3 11.2
832(15) 0.00402 829.8 11.6
881(17) 0.003442 829.3 12.1
863(16) 0.00386 828.8 12.6
855(15) 0.00414 828.3 13.1
883(16) 0.00399 827.7 13.7
832(16) 0.00392 827.2 14.3
819(16) 0.00379 826.7 15.0
811(15) 0.00407 826.2 15.7
860(15) 0.00414 825.7 16.5
840(15) 0.00420 825.2 17.4
820(15) 0.00413 824.7 18.3
833(16) 0.00383 824.2 19.4
843(16) 0.00391 823.7 20.5
823(15) 0.00432 823.2 21.8
841(15) 0.00415 822.7 23.2
837(15) 0.00412 822.2 24.7
824(16) 0.00388 821.7 26.4
800(15) 0.00413 821.2 28.3
826(15) 0.00432 820.7 30.5
831(15) 0.00410 820.2 32.9
866(16) 0.00382 819.7 35.7
853(16) 0.00388 819.2 38.8
866(16) 0.00385 818.7 42.5
860(15) 0.00417 818.2 46.6
877(16) 0.00390 817.7 51.6
894(16) 0.00365 817.2 57.5
902(16) 0.00359 816.6 64.6
865(16) 0.00398 816.1 73.6
893(15) 0.00404 815.6 85.2
863(16) 0.00390 815.1 100.5
930(17) 0.00355 814.6 120.8
926(16) 0.00363 814.1 148.2
963(16) 0.00356 813.6 184.7
1001(16) 0.00360 813.1 232.7
1067(18) 0.003119 812.6 294.2
1180(19) 0.002778 812.1 370.5
1178(18) 0.002861 811.6 461.5
1273(19) 0.002771 811.1 564.8
1413(20) 0.002567 810.6 674.3
1484(21) 0.002273 810.1 778.7
1620(22) 0.001950 809.6 860.5
1675(22) 0.001996 809.1 900.5
1818(22) 0.001960 808.6 887.0
1740(22) 0.002079 808.1 824.1
1487(21) 0.002254 807.6 728.7
1421(21) 0.002237 807.1 620.1
1326(19) 0.002587 806.6 512.7
1174(18) 0.003078 806.0 415.1
1113(17) 0.003208 805.5 331.3
1102(18) 0.003068 805.0 262.5
1023(18) 0.003086 804.5 207.9
980(17) 0.003429 804.0 166.0
971(16) 0.00371 803.5 134.4
949(16) 0.00377 803.0 110.8
936(17) 0.00355 802.5 93.2
904(17) 0.00353 802.0 80.0
893(16) 0.00377 801.5 69.9
881(15) 0.00405 801.0 62.0
885(16) 0.00397 800.5 55.6
867(16) 0.00385 800.0 50.3
845(16) 0.00381 799.5 45.8
860(16) 0.00385 799.0 42.0
827(15) 0.00430 798.5 38.7
822(15) 0.00428 798.0 35.8
815(15) 0.00411 797.5 33.3
828(16) 0.00394 797.0 31.1
818(15) 0.00408 796.5 29.1
810(15) 0.00442 796.0 27.4
802(15) 0.00436 795.4 25.8
807(15) 0.00405 794.9 24.4
779(15) 0.00422 794.4 23.2
796(15) 0.00412 793.9 22.1
794(15) 0.00449 793.4 21.1
831(15) 0.00416 792.9 20.2
824(16) 0.00397 792.4 19.3
800(15) 0.00406 791.9 18.6
776(15) 0.00439 791.4 17.9
787(15) 0.00453 790.9 17.3
741(14) 0.00460 790.4 16.8
793(15) 0.00409 789.9 16.2
778(15) 0.00421 789.4 15.8
794(15) 0.00425 788.9 15.4
764(14) 0.00466 788.4 15.0
796(15) 0.00410 787.9 14.6
778(15) 0.00420 787.4 14.3
815(15) 0.00412 786.9 14.0
805(15) 0.00435 786.4 13.8
782(14) 0.00458 785.9 13.5
796(15) 0.00419 785.4 13.3
787(15) 0.00411 784.9 13.1
776(15) 0.00429 784.3 13.0
783(15) 0.00443 783.8 12.8
777(14) 0.00457 783.3 12.7
775(15) 0.00438 782.8 12.6
768(15) 0.00407 782.3 12.5
796(15) 0.00412 781.8 12.4
800(15) 0.00444 781.3 12.3
800(15) 0.00449 780.8 12.3
792(15) 0.00425 780.3 12.2
779(16) 0.00396 779.8 12.2
750(15) 0.00450 779.3 12.2
779(15) 0.00455 778.8 12.2
754(14) 0.00470 778.3 12.2
774(15) 0.00430 777.8 12.2
753(15) 0.00418 777.3 12.3
753(15) 0.00447 776.8 12.3
778(14) 0.00459 776.3 12.4
716(14) 0.00490 775.8 12.4
778(15) 0.00429 775.3 12.5
768(15) 0.00413 774.8 12.6
776(15) 0.00421 774.3 12.7
802(15) 0.00446 773.7 12.9
762(14) 0.00466 773.2 13.0
765(15) 0.00435 772.7 13.2
758(15) 0.00421 772.3 13.4
740(15) 0.00451 771.8 13.5
772(14) 0.00458 771.3 13.7
776(15) 0.00452 770.8 14.0
775(15) 0.00438 770.3 14.2
763(15) 0.00430 769.8 14.4
769(15) 0.00434 769.3 14.6
777(14) 0.00458 768.8 14.8
767(15) 0.00449 768.4 15.1
789(15) 0.00425 767.9 15.3
772(15) 0.00430 767.4 15.5
749(15) 0.00447 766.9 15.7
728(14) 0.00488 766.4 16.0
738(14) 0.00456 765.9 16.3
780(15) 0.00426 765.4 16.5
762(15) 0.00440 764.9 16.9
737(14) 0.00468 764.5 17.2
777(15) 0.00455 764.0 17.6
788(15) 0.00419 763.5 17.9
748(15) 0.00436 763.0 18.4
772(15) 0.00423 762.5 18.8
766(15) 0.00445 762.0 19.2
731(14) 0.00485 761.5 19.7
770(15) 0.00430 761.0 20.3
768(15) 0.00414 760.5 20.8
759(15) 0.00444 760.1 21.4
764(14) 0.00459 759.6 22.0
754(14) 0.00472 759.1 22.6
791(15) 0.00418 758.6 23.3
793(15) 0.00403 758.1 24.0
734(14) 0.00462 757.6 24.8
774(15) 0.00451 757.1 25.6
763(14) 0.00468 756.6 26.5
751(15) 0.00441 756.2 27.4
724(15) 0.00428 755.7 28.4
745(15) 0.00453 755.2 29.4
799(15) 0.00438 754.7 30.5
756(14) 0.00469 754.2 31.6
752(15) 0.00453 753.7 32.9
754(15) 0.00409 753.2 34.2
760(15) 0.00448 752.7 35.6
793(15) 0.00450 752.2 37.1
741(14) 0.00478 751.8 38.7
773(15) 0.00438 751.3 40.4
758(15) 0.00425 750.8 42.2
748(15) 0.00452 750.3 44.2
803(15) 0.00443 749.8 46.4
756(14) 0.00464 749.3 48.7
780(15) 0.00422 748.8 51.1
788(15) 0.00402 748.3 53.8
797(15) 0.00411 747.9 56.8
799(15) 0.00447 747.4 59.9
767(14) 0.00460 746.9 63.4
752(15) 0.00451 746.4 67.2
780(15) 0.00410 745.9 71.4
816(15) 0.00405 745.4 76.0
775(14) 0.00459 744.9 81.0
784(15) 0.00433 744.4 86.7
818(15) 0.00403 744.0 93.0
818(16) 0.00400 743.5 100.1
779(15) 0.00435 743.0 108.0
846(15) 0.00422 742.5 117.0
824(15) 0.00413 742.0 127.1
811(15) 0.00407 741.5 138.6
881(16) 0.00371 741.0 151.7
851(16) 0.00397 740.5 166.5
878(15) 0.00407 740.0 183.4
914(16) 0.00371 739.6 202.5
945(17) 0.003446 739.1 224.2
946(17) 0.003487 738.6 248.6
1003(17) 0.003479 738.1 276.1
1020(17) 0.00353 737.6 306.8
1069(18) 0.003154 737.1 341.0
1110(18) 0.002948 736.6 378.5
1150(18) 0.002963 736.1 419.5
1157(18) 0.003073 735.7 463.5
1315(19) 0.002762 735.2 509.8
1324(19) 0.002579 734.7 557.2
1390(20) 0.002334 734.2 604.2
1428(20) 0.002380 733.7 648.4
1477(20) 0.002436 733.2 687.1
1488(20) 0.002456 732.7 717.1
1523(21) 0.002207 732.2 735.7
1469(21) 0.002172 731.8 741.2
1470(21) 0.002295 731.3 732.8
1333(19) 0.002736 730.8 711.5
1348(19) 0.002667 730.3 679.4
1266(19) 0.002685 729.8 639.3
1230(20) 0.002547 729.3 594.4
1192(19) 0.002825 728.8 547.2
1204(18) 0.002981 728.3 499.9
1092(17) 0.003281 727.8 454.0
1105(18) 0.003058 727.4 410.8
1141(19) 0.002784 726.9 370.6
1033(17) 0.003324 726.4 333.9
1012(17) 0.00355 725.9 300.5
1000(17) 0.00355 725.4 270.6
1011(17) 0.003351 724.9 243.9
988(17) 0.003247 724.4 220.2
913(16) 0.00369 723.9 199.2
889(15) 0.00405 723.5 180.6
870(16) 0.00396 723.0 164.3
911(16) 0.00362 722.5 150.0
858(16) 0.00377 722.0 137.3
872(16) 0.00383 721.5 126.2
865(15) 0.00413 721.0 116.5
866(15) 0.00405 720.5 107.8
819(15) 0.00410 720.0 100.2
852(16) 0.00387 719.6 93.4
851(16) 0.00388 719.1 87.3
788(15) 0.00452 718.6 81.9
774(15) 0.00443 718.1 77.1
823(16) 0.00393 717.6 72.7
787(15) 0.00428 717.1 68.7
796(15) 0.00435 716.6 65.1
822(15) 0.00436 716.1 61.9
779(15) 0.00433 715.6 58.9
760(15) 0.00436 715.2 56.2
768(15) 0.00439 714.7 53.7
794(15) 0.00431 714.2 51.4
782(14) 0.00459 713.7 49.3
734(14) 0.00461 713.2 47.4
770(15) 0.00413 712.7 45.6
732(15) 0.00452 712.2 44.0
734(14) 0.00472 711.7 42.5
730(14) 0.00491 711.3 41.1
750(15) 0.00437 710.8 39.9
760(15) 0.00422 710.3 38.7
770(15) 0.00433 709.8 37.7
773(14) 0.00458 709.3 36.8
759(14) 0.00468 708.8 35.9
759(15) 0.00439 708.3 35.2
730(15) 0.00435 707.8 34.5
727(14) 0.00469 707.4 33.9
726(14) 0.00479 706.9 33.4
750(14) 0.00472 706.4 33.0
765(15) 0.00437 705.9 32.7
732(15) 0.00423 705.4 32.4
741(15) 0.00449 704.9 32.3
720(14) 0.00490 704.4 32.2
745(14) 0.00479 703.9 32.3
737(15) 0.00454 703.5 32.4
724(15) 0.00440 703.0 32.7
730(14) 0.00462 702.5 33.1
737(14) 0.00485 702.0 33.6
740(14) 0.00475 701.5 34.2
720(14) 0.00468 701.0 35.0
766(15) 0.00411 700.5 36.0
732(14) 0.00464 700.0 37.2
709(14) 0.00504 699.5 38.6
740(14) 0.00467 699.1 40.1
780(15) 0.00420 698.6 42.0
741(15) 0.00422 698.1 44.1
773(15) 0.00424 697.6 46.4
754(14) 0.00470 697.1 49.0
762(14) 0.00464 696.6 52.0
759(15) 0.00439 696.1 55.2
733(15) 0.00451 695.6 58.7
751(15) 0.00441 695.2 62.4
740(14) 0.00483 694.7 66.3
802(15) 0.00422 694.2 70.4
759(15) 0.00439 693.7 74.4
754(15) 0.00434 693.2 78.2
766(15) 0.00440 692.7 81.7
786(15) 0.00456 692.2 84.6
759(15) 0.00436 691.7 86.7
790(15) 0.00426 691.2 87.9
829(16) 0.00401 690.8 88.1
806(15) 0.00431 690.3 87.2
767(14) 0.00463 689.8 85.3
763(15) 0.00429 689.3 82.7
755(15) 0.00431 688.8 79.5
802(15) 0.00409 688.3 76.0
789(15) 0.00436 687.8 72.2
787(15) 0.00450 687.3 68.5
714(14) 0.00468 686.9 64.9
719(15) 0.00449 686.4 61.5
735(15) 0.00455 685.9 58.4
747(14) 0.00462 685.4 55.6
718(14) 0.00497 684.9 53.1
716(14) 0.00469 684.4 51.0
712(15) 0.00441 683.9 49.2
689(14) 0.00485 683.4 47.8
734(14) 0.00475 683.0 46.7
737(14) 0.00483 682.5 46.0
751(15) 0.00436 682.0 45.6
701(14) 0.00458 681.5 45.4
714(14) 0.00482 681.0 45.6
749(14) 0.00471 680.5 46.1
727(14) 0.00487 680.0 46.9
710(14) 0.00466 679.5 47.9
688(15) 0.00442 679.0 49.3
686(14) 0.00479 678.6 50.9
693(14) 0.00513 678.1 52.8
672(13) 0.00525 677.6 54.9
715(14) 0.00464 677.1 57.3
719(15) 0.00437 676.6 59.8
732(14) 0.00458 676.1 62.6
754(14) 0.00474 675.6 65.4
716(14) 0.00490 675.1 68.3
736(15) 0.00442 674.7 71.2
712(15) 0.00451 674.2 73.9
729(15) 0.00453 673.7 76.4
774(14) 0.00463 673.2 78.5
747(14) 0.00465 672.7 80.2
731(15) 0.00442 672.2 81.3
746(15) 0.00432 671.7 81.7
753(15) 0.00451 671.2 81.3
701(14) 0.00503 670.8 80.3
739(14) 0.00466 670.3 78.6
717(14) 0.00457 669.8 76.4
731(15) 0.00447 669.3 73.6
726(15) 0.00452 668.8 70.5
711(14) 0.00500 668.3 67.2
702(14) 0.00487 667.8 63.7
699(14) 0.00480 667.3 60.1
744(15) 0.00444 666.8 56.6
743(14) 0.00466 666.4 53.1
710(14) 0.00500 665.9 49.8
673(14) 0.00493 665.4 46.7
673(14) 0.00476 664.9 43.7
702(14) 0.00478 664.4 41.0
724(14) 0.00482 663.9 38.4
716(14) 0.00493 663.4 36.0
680(14) 0.00497 662.9 33.7
667(14) 0.00505 662.5 31.7
683(14) 0.00492 662.0 29.8
694(14) 0.00503 661.5 28.1
679(14) 0.00519 661.0 26.5
656(14) 0.00501 660.5 25.0
699(15) 0.00443 660.0 23.7
672(14) 0.00493 659.5 22.5
676(14) 0.00521 659.0 21.3
651(13) 0.00542 658.6 20.3
683(14) 0.00484 658.1 19.4
693(15) 0.00439 657.6 18.5
673(14) 0.00499 657.1 17.7
719(14) 0.00488 656.6 17.0
656(13) 0.00536 656.1 16.4
637(13) 0.00542 655.6 15.8
661(14) 0.00471 655.1 15.2
662(14) 0.00499 654.6 14.7
629(13) 0.00562 654.2 14.3
629(13) 0.00558 653.7 13.8
657(14) 0.00515 653.2 13.5
694(15) 0.00438 652.7 13.1
630(13) 0.00534 652.2 12.8
653(13) 0.00542 651.7 12.5
664(14) 0.00521 651.2 12.2
676(14) 0.00491 650.7 12.0
648(14) 0.00490 650.3 11.8
654(14) 0.00512 649.8 11.6
671(13) 0.00530 649.3 11.4
645(13) 0.00528 648.8 11.2
633(14) 0.00511 648.3 11.1
654(14) 0.00486 647.8 11.0
667(14) 0.00494 647.3 10.9
655(13) 0.00541 646.8 10.9
668(14) 0.00510 646.4 10.9
669(14) 0.00492 645.9 10.9
634(14) 0.00512 645.4 10.9
659(14) 0.00502 644.9 11.0
654(13) 0.00542 644.4 11.1
666(14) 0.00505 643.9 11.2
696(15) 0.00447 643.4 11.5
614(13) 0.00534 642.9 11.8
682(14) 0.00493 642.5 12.1
675(13) 0.00525 642.0 12.6
644(13) 0.00526 641.5 13.3
658(14) 0.00499 641.0 14.2
673(14) 0.00491 640.5 15.6
666(13) 0.00524 640.0 17.8
641(13) 0.00545 639.5 21.2
663(14) 0.00495 639.0 26.9
676(14) 0.00470 638.5 35.8
698(14) 0.00476 638.1 49.0
695(14) 0.00507 637.6 67.2
744(14) 0.00478 637.1 90.3
749(15) 0.00444 636.6 116.5
798(16) 0.00396 636.1 142.0
816(15) 0.00414 635.6 160.5
795(15) 0.00445 635.1 165.4
806(15) 0.00444 634.6 154.5
767(15) 0.00429 634.2 132.3
756(15) 0.00407 633.7 105.7
682(14) 0.00496 633.2 80.1
676(14) 0.00521 632.7 58.5
671(13) 0.00523 632.2 42.0
666(14) 0.00500 631.7 30.4
648(14) 0.00480 631.2 22.6
675(14) 0.00494 630.7 17.7
694(14) 0.00508 630.2 14.6
670(14) 0.00522 629.8 12.6
651(14) 0.00507 629.3 11.2
621(14) 0.00502 628.8 10.1
633(14) 0.00518 628.3 9.3
630(13) 0.00558 627.8 8.7
634(13) 0.00549 627.3 8.1
617(13) 0.00538 626.8 7.6
635(14) 0.00511 626.3 7.2
646(14) 0.00518 625.9 6.9
617(13) 0.00563 625.4 6.5
619(13) 0.00551 624.9 6.2
602(13) 0.00540 624.4 6.0
603(13) 0.00523 623.9 5.8
630(14) 0.00510 623.4 5.6
641(13) 0.00551 622.9 5.4
640(13) 0.00532 622.4 5.2
623(14) 0.00522 622.0 5.0
633(14) 0.00491 621.5 4.9
665(14) 0.00503 621.0 4.8
635(13) 0.00555 620.5 4.6
626(13) 0.00540 620.0 4.5
628(13) 0.00525 619.5 4.4
607(13) 0.00535 619.0 4.3
625(13) 0.00536 618.5 4.2
636(13) 0.00554 618.0 4.1
618(13) 0.00543 617.6 4.0
634(14) 0.00496 617.1 3.9
602(13) 0.00537 616.6 3.9
632(13) 0.00537 616.1 3.8
643(13) 0.00541 615.6 3.7
601(13) 0.00557 615.1 3.7
647(14) 0.00491 614.6 3.6
628(14) 0.00521 614.1 3.5
612(13) 0.00559 613.7 3.5
625(13) 0.00559 613.2 3.4
635(14) 0.00513 612.7 3.4
609(14) 0.00510 612.2 3.3
587(13) 0.00576 611.7 3.3
612(13) 0.00562 611.2 3.2
587(13) 0.00600 610.7 3.2
588(13) 0.00557 610.2 3.1
617(14) 0.00499 609.8 3.1
616(13) 0.00551 609.3 3.0
643(13) 0.00536 608.8 3.0
618(13) 0.00572 608.3 3.0
601(13) 0.00560 607.8 2.9
595(14) 0.00519 607.3 2.9
608(13) 0.00531 606.8 2.9
610(13) 0.00574 606.3 2.8
602(13) 0.00577 605.8 2.8
592(13) 0.00551 605.4 2.8
597(14) 0.00512 604.9 2.7
591(13) 0.00572 604.4 2.7
604(13) 0.00586 603.9 2.7
635(13) 0.00542 603.4 2.6
635(13) 0.00530 602.9 2.6
588(13) 0.00541 602.4 2.6
600(13) 0.00545 601.9 2.6
580(13) 0.00605 601.5 2.5
601(13) 0.00581 601.0 2.5
592(13) 0.00567 600.5 2.5
579(13) 0.00560 600.0 2.5
607(13) 0.00540 599.5 2.4
614(13) 0.00573 599.0 2.4
591(13) 0.00582 598.5 2.4
584(13) 0.00565 598.0 2.4
582(13) 0.00567 597.6 2.4
619(13) 0.00528 597.1 2.4
567(12) 0.00620 596.6 2.3
585(13) 0.00583 596.1 2.3
579(13) 0.00573 595.6 2.3
589(13) 0.00559 595.1 2.3
589(13) 0.00565 594.6 2.3
598(13) 0.00588 594.1 2.3
586(13) 0.00578 593.6 2.2
600(13) 0.00543 593.2 2.2
579(13) 0.00561 592.7 2.2
577(13) 0.00594 592.2 2.2
588(13) 0.00598 591.7 2.2
575(13) 0.00590 591.2 2.2
588(13) 0.00544 590.7 2.2
609(13) 0.00538 590.2 2.2
603(13) 0.00563 589.7 2.1
585(13) 0.00599 589.3 2.1
614(13) 0.00542 588.8 2.1
587(13) 0.00547 588.3 2.1
613(13) 0.00539 587.8 2.1
590(13) 0.00582 587.3 2.1
561(12) 0.00627 586.8 2.1
610(13) 0.00540 586.3 2.1
581(13) 0.00537 585.8 2.0
586(13) 0.00556 585.4 2.0
598(13) 0.00580 585.0 2.0
599(13) 0.00588 584.7 2.0
570(13) 0.00578 584.4 2.0
594(13) 0.00525 584.2 2.0
586(13) 0.00563 583.9 2.0
588(13) 0.00596 583.6 2.0
591(13) 0.00598 583.4 2.0
597(13) 0.00542 583.1 2.0
606(14) 0.00510 582.8 2.0
574(13) 0.00556 582.6 1.9
594(13) 0.00598 582.3 1.9
606(13) 0.00568 582.0 1.9
590(13) 0.00554 581.8 1.9
609(14) 0.00502 581.5 1.9
590(13) 0.00554 581.2 1.9
574(13) 0.00602 581.0 1.9
608(13) 0.00570 580.7 1.9
576(13) 0.00572 580.4 1.9
577(13) 0.00552 580.1 1.9
570(13) 0.00580 579.9 1.9
599(13) 0.00589 579.6 1.9
578(13) 0.00587 579.3 1.9
567(13) 0.00576 579.1 1.9
581(13) 0.00564 578.8 1.9
581(13) 0.00572 578.5 1.9
559(12) 0.00629 578.3 1.9
585(13) 0.00576 578.0 1.9
567(13) 0.00583 577.7 1.9
576(13) 0.00559 577.5 1.9
551(12) 0.00608 577.2 1.9
579(12) 0.00606 576.9 1.9
560(13) 0.00594 576.7 1.9
613(14) 0.00519 576.4 1.9
592(13) 0.00554 576.1 1.9
611(13) 0.00555 575.9 1.9
581(12) 0.00606 575.6 1.9
551(13) 0.00603 575.3 2.0
587(13) 0.00539 575.1 2.0
588(13) 0.00546 574.8 2.0
598(13) 0.00565 574.5 2.0
572(12) 0.00613 574.2 2.0
582(13) 0.00578 574.0 2.0
591(13) 0.00527 573.7 2.0
564(13) 0.00577 573.4 2.0
555(12) 0.00616 573.2 2.0
598(13) 0.00588 572.9 2.1
553(13) 0.00596 572.6 2.1
556(13) 0.00571 572.4 2.1
589(13) 0.00576 572.1 2.1
629(13) 0.00560 571.8 2.1
583(12) 0.00608 571.6 2.1
591(13) 0.00547 571.3 2.1
583(13) 0.00525 571.0 2.1
575(13) 0.00582 570.8 2.1
594(13) 0.00588 570.5 2.1
582(13) 0.00605 570.2 2.1
595(13) 0.00544 570.0 2.1
569(13) 0.00541 569.7 2.1
559(13) 0.00598 569.4 2.1
543(12) 0.00643 569.2 2.0
525(12) 0.00669 568.9 2.0
562(13) 0.00575 568.6 2.0
605(14) 0.00507 568.3 2.0
599(13) 0.00562 568.1 2.0
560(12) 0.00629 567.8 2.0
575(13) 0.00604 567.5 2.0
562(13) 0.00588 567.3 2.0
544(13) 0.00583 567.0 2.0
583(13) 0.00557 566.7 2.0
601(13) 0.00587 566.5 2.0
587(13) 0.00575 566.2 2.0
549(12) 0.00613 565.9 2.0
559(13) 0.00562 565.7 2.1
536(12) 0.00611 565.4 2.1
571(12) 0.00616 565.1 2.1
587(13) 0.00586 564.9 2.1
572(13) 0.00569 564.6 2.1
579(13) 0.00558 564.3 2.1
567(13) 0.00592 564.1 2.1
563(12) 0.00627 563.8 2.2
571(13) 0.00588 563.5 2.2
586(13) 0.00544 563.3 2.2
570(13) 0.00562 563.0 2.2
538(12) 0.00614 562.7 2.2
566(12) 0.00621 562.4 2.3
585(13) 0.00561 562.2 2.3
558(13) 0.00585 561.9 2.3
571(13) 0.00578 561.6 2.4
554(12) 0.00615 561.4 2.4
567(12) 0.00618 561.1 2.4
550(13) 0.00601 560.8 2.5
553(13) 0.00579 560.6 2.5
546(13) 0.00588 560.3 2.6
551(12) 0.00616 560.0 2.6
590(13) 0.00595 559.8 2.7
570(13) 0.00582 559.5 2.8
559(13) 0.00553 559.2 2.8
548(13) 0.00598 559.0 2.9
564(12) 0.00617 558.7 3.0
546(12) 0.00647 558.4 3.1
536(12) 0.00611 558.2 3.2
515(13) 0.00599 557.9 3.2
528(12) 0.00630 557.6 3.4
576(13) 0.00594 557.4 3.5
556(12) 0.00629 557.1 3.6
578(13) 0.00569 556.8 3.7
563(13) 0.00543 556.5 3.9
543(13) 0.00603 556.3 4.0
536(12) 0.00656 556.0 4.2
585(13) 0.00583 555.7 4.4
530(13) 0.00598 555.5 4.6
578(14) 0.00518 555.2 4.9
562(13) 0.00605 554.9 5.2
569(12) 0.00610 554.7 5.5
586(13) 0.00600 554.4 5.8
581(13) 0.00580 554.1 6.2
527(12) 0.00617 553.9 6.6
571(13) 0.00567 553.6 7.1
547(12) 0.00637 553.3 7.6
569(13) 0.00599 553.1 8.3
546(12) 0.00619 552.8 9.0
527(13) 0.00603 552.5 9.9
567(13) 0.00552 552.3 10.9
552(12) 0.00634 552.0 12.1
541(12) 0.00623 551.7 13.6
524(12) 0.00629 551.5 15.5
566(13) 0.00568 551.2 18.0
576(13) 0.00569 550.9 21.3
550(12) 0.00643 550.6 25.8
596(13) 0.00571 550.4 32.0
596(13) 0.00538 550.1 40.5
613(13) 0.00526 549.8 51.7
637(13) 0.00536 549.6 66.2
618(13) 0.00570 549.3 84.2
686(14) 0.00483 549.0 105.4
687(14) 0.00467 548.8 128.8
722(15) 0.00445 548.5 152.1
739(14) 0.00463 548.2 171.5
713(14) 0.00500 548.0 182.0
746(15) 0.00449 547.7 180.2
684(14) 0.00476 547.4 166.8
677(14) 0.00498 547.2 145.8
656(13) 0.00528 546.9 122.2
650(13) 0.00547 546.6 99.2
588(13) 0.00566 546.4 78.9
596(13) 0.00528 546.1 61.9
616(13) 0.00536 545.8 48.3
568(12) 0.00606 545.6 38.0
596(13) 0.00595 545.3 30.2
557(13) 0.00599 545.0 24.5
580(13) 0.00532 544.7 20.4
578(13) 0.00568 544.5 17.3
563(12) 0.00625 544.2 15.0
551(12) 0.00636 543.9 13.3
537(12) 0.00610 543.7 11.9
576(13) 0.00526 543.4 10.7
541(12) 0.00612 543.1 9.8
555(12) 0.00635 542.9 9.0
550(12) 0.00637 542.6 8.3
550(13) 0.00579 542.3 7.7
559(13) 0.00535 542.1 7.2
530(12) 0.00620 541.8 6.7
566(12) 0.00621 541.5 6.3
562(12) 0.00611 541.3 6.0
506(12) 0.00644 541.0 5.6
516(13) 0.00603 540.7 5.4
555(13) 0.00591 540.5 5.1
563(12) 0.00622 540.2 4.9
542(12) 0.00640 539.9 4.7
546(13) 0.00588 539.7 4.5
541(13) 0.00583 539.4 4.4
538(12) 0.00615 539.1 4.2
515(12) 0.00681 538.8 4.1
538(12) 0.00632 538.6 4.0
506(12) 0.00659 538.3 3.9
561(13) 0.00579 538.0 3.8
553(13) 0.00585 537.8 3.7
534(12) 0.00657 537.5 3.6
562(13) 0.00605 537.2 3.5
539(12) 0.00611 537.0 3.5
555(13) 0.00590 536.7 3.4
550(12) 0.00613 536.4 3.4
558(12) 0.00628 536.2 3.3
529(12) 0.00639 535.9 3.3
493(12) 0.00668 535.6 3.3
509(12) 0.00646 535.4 3.2
501(12) 0.00683 535.1 3.2
527(12) 0.00660 534.8 3.2
528(12) 0.00617 534.6 3.2
541(13) 0.00582 534.3 3.2
579(13) 0.00563 534.0 3.1
550(12) 0.00620 533.7 3.1
545(12) 0.00643 533.5 3.1
518(12) 0.00634 533.2 3.1
521(12) 0.00606 532.9 3.1
549(13) 0.00602 532.7 3.2
510(12) 0.00676 532.4 3.2
518(12) 0.00672 532.1 3.2
548(13) 0.00581 531.9 3.2
541(13) 0.00563 531.6 3.2
513(12) 0.00645 531.3 3.3
540(12) 0.00655 531.1 3.3
536(12) 0.00653 530.8 3.3
518(12) 0.00636 530.5 3.4
515(13) 0.00589 530.3 3.4
510(12) 0.00637 530.0 3.5
520(12) 0.00664 529.7 3.5
550(12) 0.00629 529.5 3.6
517(12) 0.00644 529.2 3.6
524(13) 0.00581 528.9 3.7
526(12) 0.00618 528.7 3.8
525(12) 0.00660 528.4 3.8
501(12) 0.00686 528.1 3.9
520(12) 0.00625 527.8 4.0
497(12) 0.00611 527.6 4.1
519(12) 0.00627 527.3 4.2
540(12) 0.00648 527.0 4.3
513(12) 0.00669 526.8 4.4
531(13) 0.00600 526.5 4.5
510(12) 0.00620 526.2 4.7
519(12) 0.00634 526.0 4.8
533(12) 0.00654 525.7 4.9
536(12) 0.00636 525.4 5.1
549(13) 0.00591 525.2 5.2
527(13) 0.00602 524.9 5.4
570(13) 0.00571 524.6 5.6
504(12) 0.00685 524.4 5.8
521(12) 0.00643 524.1 6.0
545(12) 0.00608 523.8 6.2
554(13) 0.00594 523.6 6.4
521(12) 0.00639 523.3 6.7
515(12) 0.00675 523.0 6.9
526(12) 0.00629 522.8 7.2
540(13) 0.00605 522.5 7.5
543(13) 0.00590 522.2 7.7
539(12) 0.00616 521.9 8.1
531(12) 0.00658 521.7 8.4
523(12) 0.00636 521.4 8.7
510(12) 0.00626 521.1 9.0
533(12) 0.00614 520.9 9.4
567(13) 0.00600 520.6 9.8
533(12) 0.00653 520.3 10.1
557(13) 0.00581 520.1 10.5
541(13) 0.00595 519.8 10.9
546(13) 0.00596 519.5 11.3
556(12) 0.00613 519.3 11.7
516(12) 0.00680 519.0 12.1
500(12) 0.00642 518.7 12.5
528(13) 0.00570 518.5 12.9
542(13) 0.00599 518.2 13.3
551(12) 0.00624 517.9 13.6
515(12) 0.00677 517.7 14.0
553(13) 0.00582 517.4 14.3
521(13) 0.00600 517.1 14.5
531(12) 0.00626 516.9 14.8
556(12) 0.00626 516.6 15.0
495(12) 0.00701 516.3 15.1
516(12) 0.00641 516.0 15.3
544(13) 0.00549 515.8 15.4
548(12) 0.00606 515.5 15.4
517(12) 0.00675 515.2 15.5
506(12) 0.00682 515.0 15.6
494(12) 0.00678 514.7 15.7
556(13) 0.00557 514.4 15.8
549(12) 0.00611 514.2 16.0
517(12) 0.00674 513.9 16.3
532(12) 0.00647 513.6 16.7
514(12) 0.00623 513.4 17.1
539(13) 0.00591 513.1 17.6
537(12) 0.00613 512.8 18.0
514(12) 0.00681 512.6 18.1
511(12) 0.00670 512.3 17.8
530(12) 0.00630 512.0 17.1
533(13) 0.00589 511.8 16.0
530(12) 0.00608 511.5 14.8
517(12) 0.00678 511.2 13.6
548(12) 0.00618 511.0 12.5
529(12) 0.00622 510.7 11.5
504(12) 0.00651 510.4 10.6
502(12) 0.00645 510.1 9.8
524(12) 0.00664 509.9 9.1
530(12) 0.00645 509.6 8.6
535(13) 0.00594 509.3 8.1
519(12) 0.00627 509.1 7.7
507(12) 0.00658 508.8 7.3
500(12) 0.00696 508.5 6.9
505(12) 0.00641 508.3 6.6
537(13) 0.00595 508.0 6.3
522(12) 0.00632 507.7 6.1
510(12) 0.00653 507.5 5.8
484(12) 0.00707 507.2 5.6
502(12) 0.00647 506.9 5.4
494(12) 0.00650 506.7 5.2
498(12) 0.00658 506.4 5.0
507(12) 0.00681 506.1 4.8
499(12) 0.00701 505.9 4.6
512(12) 0.00631 505.6 4.5
528(13) 0.00599 505.3 4.3
518(12) 0.00644 505.1 4.2
508(12) 0.00684 504.8 4.0
501(12) 0.00692 504.5 3.9
510(12) 0.00646 504.2 3.8
506(12) 0.00616 504.0 3.7
512(12) 0.00632 503.7 3.5
514(12) 0.00672 503.4 3.4
528(12) 0.00663 503.2 3.3
523(12) 0.00619 502.9 3.3
543(13) 0.00567 502.6 3.2
508(12) 0.00650 502.4 3.1
492(12) 0.00704 502.1 3.0
515(12) 0.00672 501.8 2.9
504(12) 0.00664 501.6 2.9
516(13) 0.00602 501.3 2.8
531(13) 0.00598 501.0 2.7
503(12) 0.00694 500.8 2.7
486(12) 0.00699 500.5 2.6
469(12) 0.00687 500.2 2.5
486(12) 0.00633 500.0 2.5
500(12) 0.00662 499.7 2.4
490(11) 0.00709 499.4 2.4
477(11) 0.00724 499.2 2.3
527(12) 0.00616 498.9 2.3
507(12) 0.00626 498.6 2.3
480(12) 0.00662 498.3 2.2
485(11) 0.00713 498.1 2.2
490(12) 0.00693 497.8 2.1
506(12) 0.00651 497.5 2.1
502(12) 0.00640 497.3 2.1
519(12) 0.00644 497.0 2.0
508(12) 0.00685 496.7 2.0
496(12) 0.00667 496.5 2.0
499(12) 0.00638 496.2 1.9
474(12) 0.00658 495.9 1.9
479(12) 0.00663 495.7 1.9
483(11) 0.00723 495.4 1.9
505(12) 0.00651 495.1 1.8
456(11) 0.00716 494.9 1.8
495(12) 0.00651 494.6 1.9
504(12) 0.00655 494.3 1.8
488(11) 0.00713 494.1 1.8
487(12) 0.00663 493.8 1.8
467(12) 0.00671 493.5 1.8
475(12) 0.00688 493.3 1.7
499(12) 0.00672 493.0 1.7
501(12) 0.00696 492.7 1.7
500(12) 0.00660 492.4 1.7
509(13) 0.00605 492.2 1.7
497(12) 0.00670 491.9 1.7
493(12) 0.00698 491.6 1.6
508(12) 0.00691 491.4 1.6
483(12) 0.00659 491.1 1.6
468(12) 0.00644 490.8 1.6
468(12) 0.00708 490.6 1.6
483(11) 0.00717 490.3 1.6
500(12) 0.00698 490.0 1.6
480(12) 0.00669 489.8 1.6
500(13) 0.00598 489.5 1.5
477(12) 0.00698 489.2 1.5
491(12) 0.00708 489.0 1.5
503(12) 0.00685 488.7 1.5
485(12) 0.00670 488.4 1.5
493(12) 0.00635 488.2 1.5
498(12) 0.00658 487.9 1.5
483(11) 0.00717 487.6 1.5
488(12) 0.00688 487.4 1.5
484(12) 0.00682 487.1 1.5
501(12) 0.00611 486.8 1.4
507(12) 0.00640 486.5 1.4
504(12) 0.00682 486.3 1.4
487(12) 0.00698 486.0 1.4
492(12) 0.00681 485.7 1.4
499(12) 0.00661 485.5 1.4
503(12) 0.00656 485.2 1.4
474(11) 0.00734 485.0 1.4
471(11) 0.00729 484.9 1.4
493(12) 0.00649 484.7 1.4
483(12) 0.00645 484.5 1.4
481(12) 0.00695 484.3 1.4
475(11) 0.00734 484.1 1.4
456(11) 0.00754 483.9 1.4
450(11) 0.00720 483.8 1.4
470(12) 0.00679 483.6 1.4
472(12) 0.00699 483.4 1.4
492(11) 0.00714 483.2 1.4
456(11) 0.00723 483.0 1.4
486(12) 0.00664 482.9 1.4
499(12) 0.00651 482.7 1.4
485(12) 0.00677 482.5 1.4
493(11) 0.00710 482.3 1.4
484(12) 0.00663 482.1 1.4
442(11) 0.00712 481.9 1.4
477(12) 0.00680 481.8 1.4
505(12) 0.00671 481.6 1.4
502(12) 0.00696 481.4 1.4
496(12) 0.00648 481.2 1.4
463(12) 0.00688 481.0 1.4
480(12) 0.00682 480.8 1.4
494(12) 0.00703 480.7 1.4
493(12) 0.00704 480.5 1.4
447(11) 0.00749 480.3 1.4
494(12) 0.00615 480.1 1.4
460(11) 0.00717 479.9 1.4
506(12) 0.00678 479.8 1.4
472(11) 0.00739 479.6 1.4
484(12) 0.00682 479.4 1.4
500(13) 0.00598 479.2 1.4
477(12) 0.00682 479.0 1.4
482(11) 0.00723 478.8 1.5
469(11) 0.00732 478.7 1.5
481(12) 0.00689 478.5 1.5
485(12) 0.00619 478.3 1.5
477(12) 0.00672 478.1 1.5
469(11) 0.00733 477.9 1.5
494(12) 0.00690 477.7 1.5
477(12) 0.00685 477.6 1.5
452(12) 0.00701 477.4 1.6
469(12) 0.00693 477.2 1.6
486(11) 0.00717 477.0 1.6
489(12) 0.00690 476.8 1.6
493(12) 0.00639 476.7 1.6
480(12) 0.00642 476.5 1.7
473(12) 0.00692 476.3 1.7
490(12) 0.00704 476.1 1.7
466(11) 0.00738 475.9 1.7
475(12) 0.00695 475.7 1.8
481(12) 0.00646 475.6 1.8
492(12) 0.00634 475.4 1.8
471(11) 0.00741 475.2 1.9
480(12) 0.00708 475.0 1.9
489(12) 0.00655 474.8 2.0
468(12) 0.00690 474.6 2.0
489(12) 0.00664 474.5 2.1
468(11) 0.00738 474.3 2.1
467(11) 0.00711 474.1 2.2
484(12) 0.00658 473.9 2.2
455(12) 0.00702 473.7 2.3
485(12) 0.00675 473.6 2.4
495(12) 0.00705 473.4 2.5
470(12) 0.00697 473.2 2.6
461(12) 0.00686 473.0 2.7
492(12) 0.00653 472.8 2.8
483(11) 0.00713 472.6 2.9
479(11) 0.00729 472.5 3.1
473(12) 0.00681 472.3 3.3
479(12) 0.00658 472.1 3.4
480(12) 0.00664 471.9 3.7
470(11) 0.00711 471.7 3.9
466(11) 0.00745 471.6 4.2
479(12) 0.00687 471.4 4.5
474(12) 0.00661 471.2 4.9
472(12) 0.00696 471.0 5.3
467(11) 0.00729 470.8 5.9
467(11) 0.00749 470.6 6.5
493(12) 0.00661 470.5 7.1
490(12) 0.00632 470.3 7.9
506(12) 0.00640 470.1 8.8
488(11) 0.00708 469.9 9.9
494(12) 0.00698 469.7 11.0
467(12) 0.00682 469.5 12.3
486(13) 0.00597 469.4 13.6
471(12) 0.00684 469.2 15.1
495(11) 0.00712 469.0 16.6
492(12) 0.00689 468.8 18.0
489(12) 0.00678 468.6 19.3
483(12) 0.00635 468.5 20.3
496(12) 0.00644 468.3 20.9
471(11) 0.00737 468.1 21.1
470(11) 0.00734 467.9 20.7
443(11) 0.00753 467.7 19.9
476(12) 0.00650 467.5 18.8
484(12) 0.00689 467.4 17.4
481(11) 0.00725 467.2 16.0
484(12) 0.00708 467.0 14.5
467(12) 0.00689 466.8 13.1
474(12) 0.00646 466.6 11.7
481(12) 0.00677 466.4 10.5
449(11) 0.00766 466.3 9.5
467(11) 0.00715 466.1 8.5
483(12) 0.00694 465.9 7.7
463(12) 0.00702 465.7 6.9
460(12) 0.00703 465.5 6.3
466(11) 0.00749 465.4 5.8
462(11) 0.00722 465.2 5.3
469(12) 0.00693 465.0 4.9
458(12) 0.00697 464.8 4.5
459(11) 0.00726 464.6 4.2
476(11) 0.00736 464.4 4.0
483(12) 0.00689 464.3 3.8
501(12) 0.00630 464.1 3.6
496(12) 0.00659 463.9 3.4
472(11) 0.00724 463.7 3.3
468(11) 0.00741 463.5 3.1
458(11) 0.00728 463.3 3.0
484(12) 0.00631 463.2 2.9
456(12) 0.00706 463.0 2.8
436(11) 0.00785 462.8 2.8
450(11) 0.00767 462.6 2.7
478(12) 0.00681 462.4 2.6
481(12) 0.00639 462.3 2.6
455(11) 0.00713 462.1 2.6
460(11) 0.00747 461.9 2.5
460(11) 0.00741 461.7 2.5
460(12) 0.00694 461.5 2.5
475(12) 0.00634 461.3 2.4
484(12) 0.00668 461.2 2.4
465(11) 0.00734 461.0 2.4
435(11) 0.00797 460.8 2.4
430(11) 0.00747 460.6 2.4
474(12) 0.00617 460.4 2.4
450(11) 0.00725 460.3 2.4
431(11) 0.00802 460.1 2.4
477(11) 0.00729 459.9 2.4
469(12) 0.00685 459.7 2.4
453(12) 0.00664 459.5 2.4
456(11) 0.00712 459.3 2.5
471(11) 0.00737 459.2 2.5
437(11) 0.00771 459.0 2.5
466(11) 0.00711 458.8 2.5
459(12) 0.00695 458.6 2.6
466(12) 0.00684 458.4 2.6
471(11) 0.00730 458.2 2.6
480(11) 0.00714 458.1 2.7
491(12) 0.00672 457.9 2.7
494(12) 0.00636 457.7 2.8
455(11) 0.00722 457.5 2.8
429(11) 0.00803 457.3 2.9
445(11) 0.00761 457.2 2.9
466(12) 0.00683 457.0 3.0
435(11) 0.00745 456.8 3.0
449(11) 0.00732 456.6 3.1
433(11) 0.00794 456.4 3.1
446(11) 0.00744 456.2 3.2
442(11) 0.00736 456.1 3.3
459(11) 0.00713 455.9 3.3
498(12) 0.00662 455.7 3.4
447(11) 0.00780 455.5 3.4
440(11) 0.00735 455.3 3.4
456(12) 0.00699 455.1 3.5
479(12) 0.00679 455.0 3.5
475(12) 0.00704 454.8 3.5
488(11) 0.00715 454.6 3.6
477(12) 0.00685 454.4 3.6
447(11) 0.00720 454.2 3.6
464(12) 0.00693 454.1 3.6
455(11) 0.00741 453.9 3.6
458(11) 0.00758 453.7 3.6
470(12) 0.00706 453.5 3.5
415(11) 0.00758 453.3 3.5
458(12) 0.00703 453.1 3.5
460(11) 0.00732 453.0 3.4
446(11) 0.00775 452.8 3.4
462(12) 0.00695 452.6 3.3
454(12) 0.00693 452.4 3.3
468(11) 0.00711 452.2 3.2
484(11) 0.00715 452.0 3.1
470(11) 0.00736 451.9 3.1
447(12) 0.00695 451.7 3.0
442(12) 0.00696 451.5 3.0
480(12) 0.00665 451.3 2.9
467(11) 0.00741 451.1 2.8
452(11) 0.00764 451.0 2.8
443(11) 0.00766 450.8 2.7
463(12) 0.00660 450.6 2.6
459(11) 0.00716 450.4 2.6
430(11) 0.00811 450.2 2.5
456(11) 0.00750 450.0 2.5
448(11) 0.00728 449.9 2.4
466(12) 0.00667 449.7 2.4
458(11) 0.00715 449.5 2.3
438(11) 0.00792 449.3 2.3
466(11) 0.00725 449.1 2.2
435(11) 0.00751 449.0 2.2
436(11) 0.00719 448.8 2.1
442(11) 0.00729 448.6 2.1
452(11) 0.00764 448.4 2.1
398(10) 0.00846 448.2 2.0
458(12) 0.00683 448.0 2.0
447(11) 0.00731 447.9 2.0
470(12) 0.00676 447.7 1.9
413(11) 0.00834 447.5 1.9
473(12) 0.00701 447.3 1.9
480(12) 0.00667 447.1 1.9
433(11) 0.00728 446.9 1.8
441(12) 0.00701 446.8 1.8
452(11) 0.00772 446.6 1.8
431(11) 0.00760 446.4 1.8
438(11) 0.00732 446.2 1.8
435(11) 0.00719 446.0 1.8
437(11) 0.00734 445.9 1.7
450(11) 0.00763 445.7 1.7
447(11) 0.00742 445.5 1.7
450(12) 0.00695 445.3 1.7
453(11) 0.00712 445.1 1.7
444(11) 0.00764 444.9 1.7
451(11) 0.00769 444.8 1.7
425(11) 0.00735 444.6 1.7
429(11) 0.00722 444.4 1.6
417(11) 0.00768 444.2 1.6
426(11) 0.00791 444.0 1.6
434(11) 0.00791 443.8 1.6
438(11) 0.00739 443.7 1.6
466(12) 0.00657 443.5 1.6
444(11) 0.00721 443.3 1.6
444(11) 0.00776 443.1 1.6
457(11) 0.00749 442.9 1.6
442(11) 0.00709 442.8 1.6
453(12) 0.00654 442.6 1.6
442(11) 0.00737 442.4 1.6
459(11) 0.00756 442.2 1.6
452(11) 0.00758 442.0 1.6
455(12) 0.00701 441.8 1.6
451(12) 0.00654 441.7 1.6
471(12) 0.00687 441.5 1.6
459(11) 0.00755 441.3 1.6
452(11) 0.00735 441.1 1.6
424(11) 0.00761 440.9 1.6
451(12) 0.00669 440.7 1.6
444(11) 0.00730 440.6 1.6
464(11) 0.00745 440.4 1.6
415(11) 0.00817 440.2 1.6
429(11) 0.00740 440.0 1.6
408(11) 0.00758 439.8 1.6
461(11) 0.00714 439.7 1.6
433(11) 0.00791 439.5 1.6
468(11) 0.00710 439.3 1.6
440(11) 0.00733 439.1 1.6
429(11) 0.00720 438.9 1.6
429(11) 0.00746 438.7 1.6
443(11) 0.00781 438.6 1.6
451(11) 0.00741 438.4 1.6
451(11) 0.00727 438.2 1.6
416(11) 0.00770 438.0 1.6
442(11) 0.00752 437.8 1.6
438(11) 0.00787 437.7 1.6
439(11) 0.00746 437.5 1.6
437(11) 0.00725 437.3 1.6
425(11) 0.00750 437.1 1.6
441(11) 0.00759 436.9 1.6
420(11) 0.00813 436.7 1.7
440(11) 0.00759 436.6 1.7
445(11) 0.00718 436.4 1.7
429(11) 0.00766 436.2 1.7
435(11) 0.00767 436.0 1.7
437(11) 0.00786 435.8 1.7
426(11) 0.00768 435.6 1.7
445(12) 0.00702 435.5 1.7
422(11) 0.00791 435.3 1.7
444(11) 0.00774 435.1 1.7
416(11) 0.00821 435.0 1.7
424(11) 0.00764 434.9 1.7
432(11) 0.00729 434.8 1.7
469(12) 0.00684 434.7 1.7
455(11) 0.00752 434.6 1.8
440(11) 0.00781 434.5 1.8
426(11) 0.00740 434.3 1.8
444(12) 0.00687 434.2 1.8
432(11) 0.00778 434.1 1.8
456(11) 0.00751 434.0 1.8
447(11) 0.00766 433.9 1.8
433(11) 0.00736 433.8 1.8
435(12) 0.00666 433.7 1.8
423(11) 0.00727 433.6 1.8
450(11) 0.00755 433.5 1.9
430(11) 0.00804 433.4 1.9
413(11) 0.00782 433.2 1.9
437(11) 0.00716 433.1 1.9
436(11) 0.00757 433.0 1.9
445(11) 0.00779 432.9 1.9
431(11) 0.00794 432.8 1.9
420(11) 0.00768 432.7 1.9
409(11) 0.00768 432.6 2.0
439(11) 0.00736 432.5 2.0
421(11) 0.00818 432.4 2.0
423(11) 0.00774 432.3 2.0
415(11) 0.00778 432.1 2.0
427(11) 0.00733 432.0 2.0
430(11) 0.00753 431.9 2.0
410(10) 0.00841 431.8 2.1
439(11) 0.00759 431.7 2.1
421(11) 0.00778 431.6 2.1
454(12) 0.00700 431.5 2.1
455(11) 0.00710 431.4 2.1
421(11) 0.00814 431.3 2.1
438(11) 0.00745 431.1 2.2
424(11) 0.00742 431.0 2.2
440(11) 0.00722 430.9 2.2
444(11) 0.00746 430.8 2.2
453(11) 0.00766 430.7 2.2
409(11) 0.00802 430.6 2.3
457(12) 0.00700 430.5 2.3
423(11) 0.00768 430.4 2.3
421(11) 0.00794 430.3 2.3
437(11) 0.00789 430.2 2.3
430(11) 0.00768 430.0 2.4
398(11) 0.00790 429.9 2.4
415(11) 0.00794 429.8 2.4
378(10) 0.00881 429.7 2.4
437(11) 0.00788 429.6 2.5
402(11) 0.00803 429.5 2.5
415(11) 0.00739 429.4 2.5
405(11) 0.00814 429.3 2.5
436(11) 0.00773 429.2 2.6
432(11) 0.00788 429.1 2.6
429(11) 0.00753 428.9 2.6
447(12) 0.00677 428.8 2.7
411(11) 0.00782 428.7 2.7
437(11) 0.00788 428.6 2.7
422(11) 0.00817 428.5 2.8
406(11) 0.00790 428.4 2.8
406(11) 0.00754 428.3 2.8
434(11) 0.00737 428.2 2.9
420(11) 0.00817 428.1 2.9
440(11) 0.00788 428.0 2.9
417(11) 0.00776 427.8 3.0
413(11) 0.00744 427.7 3.0
426(11) 0.00754 427.6 3.0
395(10) 0.00874 427.5 3.1
437(11) 0.00782 427.4 3.1
445(11) 0.00735 427.3 3.2
423(11) 0.00749 427.2 3.2
400(11) 0.00783 427.1 3.3
431(11) 0.00798 427.0 3.3
394(10) 0.00870 426.9 3.4
418(11) 0.00771 426.7 3.4
422(11) 0.00759 426.6 3.5
432(11) 0.00749 426.5 3.5
430(11) 0.00808 426.4 3.6
416(11) 0.00797 426.3 3.6
408(11) 0.00762 426.2 3.7
442(12) 0.00706 426.1 3.7
428(11) 0.00767 426.0 3.8
426(11) 0.00799 425.9 3.9
412(11) 0.00817 425.8 3.9
403(11) 0.00807 425.6 4.0
417(11) 0.00779 425.5 4.1
416(11) 0.00820 425.4 4.2
416(11) 0.00828 425.3 4.2
433(11) 0.00765 425.2 4.3
439(11) 0.00715 425.1 4.4
407(11) 0.00789 425.0 4.5
425(11) 0.00794 424.9 4.6
401(10) 0.00849 424.8 4.7
413(11) 0.00782 424.7 4.8
431(11) 0.00734 424.5 4.9
402(11) 0.00792 424.4 5.0
423(11) 0.00803 424.3 5.1
411(10) 0.00843 424.2 5.2
398(11) 0.00810 424.1 5.3
421(11) 0.00734 424.0 5.4
404(11) 0.00811 423.9 5.6
401(10) 0.00855 423.8 5.7
435(11) 0.00792 423.7 5.9
423(11) 0.00732 423.6 6.0
407(11) 0.00727 423.4 6.2
421(11) 0.00756 423.3 6.3
404(11) 0.00832 423.2 6.5
406(10) 0.00846 423.1 6.7
403(11) 0.00773 423.0 6.9
445(12) 0.00659 422.9 7.1
419(11) 0.00769 422.8 7.3
428(11) 0.00797 422.7 7.6
415(11) 0.00820 422.6 7.8
430(11) 0.00751 422.5 8.1
418(11) 0.00721 422.3 8.4
411(11) 0.00796 422.2 8.7
396(10) 0.00868 422.1 9.0
418(11) 0.00818 422.0 9.3
433(11) 0.00747 421.9 9.7
423(11) 0.00721 421.8 10.1
429(11) 0.00743 421.7 10.5
432(11) 0.00785 421.6 11.0
436(11) 0.00768 421.5 11.4
408(11) 0.00776 421.4 12.0
435(12) 0.00703 421.2 12.6
404(11) 0.00790 421.1 13.2
411(11) 0.00835 421.0 13.9
413(11) 0.00826 420.9 14.6
439(11) 0.00712 420.8 15.5
405(11) 0.00784 420.7 16.4
408(11) 0.00789 420.6 17.4
422(11) 0.00817 420.5 18.5
428(11) 0.00758 420.4 19.8
423(11) 0.00777 420.3 21.3
424(11) 0.00752 420.1 22.9
423(11) 0.00777 420.0 24.7
430(11) 0.00798 419.9 26.9
457(11) 0.00722 419.8 29.4
463(12) 0.00699 419.7 32.4
470(12) 0.00689 419.6 35.9
467(11) 0.00721 419.5 40.2
470(11) 0.00739 419.4 45.3
475(12) 0.00697 419.3 51.5
478(12) 0.00654 419.2 59.0
485(12) 0.00671 419.0 67.9
503(12) 0.00668 418.9 78.6
520(12) 0.00673 418.8 91.2
532(13) 0.00605 418.7 105.8
597(14) 0.00521 418.6 122.4
569(13) 0.00585 418.5 140.9
613(13) 0.00562 418.4 160.7
650(13) 0.00539 418.3 180.7
662(14) 0.00497 418.2 199.1
696(15) 0.00456 418.1 213.7
690(14) 0.00491 417.9 222.1
681(14) 0.00518 417.8 222.6
636(13) 0.00554 417.7 215.2
649(14) 0.00497 417.6 201.5
603(14) 0.00509 417.5 183.8
593(13) 0.00560 417.4 164.5
572(12) 0.00620 417.3 145.3
543(12) 0.00642 417.2 127.4
529(13) 0.00590 417.1 111.3
536(13) 0.00577 417.0 97.4
505(12) 0.00665 416.8 85.6
521(12) 0.00667 416.7 75.7
476(11) 0.00716 416.6 67.7
464(12) 0.00678 416.5 61.4
503(13) 0.00600 416.4 56.5
469(12) 0.00679 416.3 52.9
487(11) 0.00716 416.2 50.5
507(12) 0.00679 416.1 49.2
470(12) 0.00699 416.0 48.9
482(12) 0.00648 415.9 49.6
492(12) 0.00647 415.7 51.3
489(11) 0.00715 415.6 54.0
495(12) 0.00691 415.5 57.7
484(12) 0.00680 415.4 62.3
510(12) 0.00628 415.3 67.7
514(12) 0.00635 415.2 73.6
548(12) 0.00640 415.1 79.7
526(12) 0.00635 415.0 85.0
500(12) 0.00635 414.9 88.7
508(12) 0.00640 414.8 90.0
483(12) 0.00705 414.6 88.5
496(12) 0.00700 414.5 84.5
507(12) 0.00659 414.4 78.7
488(12) 0.00641 414.3 72.0
422(11) 0.00745 414.2 65.3
482(12) 0.00679 414.1 59.1
452(11) 0.00772 414.0 53.5
451(11) 0.00734 413.9 48.6
428(11) 0.00746 413.8 44.6
441(11) 0.00736 413.7 41.4
438(11) 0.00783 413.5 38.8
441(11) 0.00784 413.4 36.8
430(11) 0.00761 413.3 35.3
421(11) 0.00757 413.2 34.3
434(11) 0.00743 413.1 33.6
452(11) 0.00739 413.0 33.2
433(11) 0.00806 412.9 33.1
440(11) 0.00734 412.8 33.2
443(12) 0.00687 412.7 33.5
432(11) 0.00756 412.6 34.0
447(11) 0.00765 412.4 34.6
418(11) 0.00818 412.3 35.4
420(11) 0.00773 412.2 36.4
434(12) 0.00693 412.1 37.4
429(11) 0.00774 412.0 38.7
404(10) 0.00849 411.9 40.1
427(11) 0.00809 411.8 41.6
446(11) 0.00734 411.7 43.3
430(12) 0.00699 411.6 45.2
433(11) 0.00746 411.4 47.3
448(11) 0.00763 411.3 49.6
453(11) 0.00768 411.2 52.1
444(11) 0.00730 411.1 54.9
459(12) 0.00671 411.0 58.0
459(11) 0.00723 410.9 61.5
455(11) 0.00762 410.8 65.4
428(11) 0.00806 410.7 69.9
447(11) 0.00719 410.6 75.0
492(12) 0.00622 410.5 81.0
489(12) 0.00673 410.3 88.1
476(11) 0.00735 410.2 96.7
516(12) 0.00658 410.1 107.1
477(12) 0.00686 410.0 120.1
537(13) 0.00586 409.9 136.3
568(13) 0.00581 409.8 156.5
544(12) 0.00644 409.7 181.6
619(13) 0.00540 409.6 212.6
641(14) 0.00514 409.5 250.3
684(14) 0.00478 409.4 295.4
699(14) 0.00482 409.2 348.1
769(14) 0.00464 409.1 407.6
855(15) 0.00407 409.0 471.9
909(16) 0.00368 408.9 536.6
945(17) 0.00354 408.8 594.1
1026(17) 0.003328 408.7 635.0
1013(16) 0.00356 408.6 650.3
977(17) 0.003480 408.5 636.0
942(17) 0.003460 408.4 595.7
880(16) 0.00380 408.3 538.0
847(15) 0.00416 408.1 472.6
820(15) 0.00434 408.0 407.2
746(15) 0.00445 407.9 346.3
661(14) 0.00494 407.8 292.2
666(14) 0.00501 407.7 245.7
653(13) 0.00527 407.6 206.7
594(13) 0.00592 407.5 174.5
567(13) 0.00581 407.4 148.3
534(13) 0.00599 407.3 127.2
559(13) 0.00591 407.2 110.2
515(12) 0.00677 407.0 96.6
502(12) 0.00691 406.9 85.6
504(12) 0.00638 406.8 76.6
477(12) 0.00670 406.7 69.1
498(12) 0.00669 406.6 62.9
496(12) 0.00698 406.5 57.6
439(11) 0.00782 406.4 53.1
433(11) 0.00758 406.3 49.2
476(12) 0.00627 406.2 45.7
456(11) 0.00710 406.1 42.7
441(11) 0.00782 405.9 40.0
461(11) 0.00745 405.8 37.6
437(11) 0.00749 405.7 35.5
422(12) 0.00707 405.6 33.6
425(11) 0.00751 405.5 31.9
441(11) 0.00792 405.4 30.3
437(11) 0.00780 405.3 28.9
436(11) 0.00741 405.2 27.7
437(11) 0.00709 405.1 26.5
431(11) 0.00752 405.0 25.5
436(11) 0.00788 404.8 24.5
421(11) 0.00791 404.7 23.7
401(11) 0.00834 404.6 22.9
426(11) 0.00741 404.5 22.2
432(11) 0.00759 404.4 21.6
433(11) 0.00804 404.3 21.0
398(11) 0.00838 404.2 20.5
403(11) 0.00792 404.1 20.0
428(11) 0.00716 404.0 19.6
437(11) 0.00747 403.9 19.2
421(11) 0.00809 403.7 18.9
408(11) 0.00811 403.6 18.6
409(11) 0.00759 403.5 18.4
416(11) 0.00770 403.4 18.1
406(11) 0.00817 403.3 18.0
396(10) 0.00866 403.2 17.8
416(11) 0.00772 403.1 17.7
421(11) 0.00761 403.0 17.7
410(11) 0.00793 402.9 17.6
432(11) 0.00758 402.8 17.6
434(11) 0.00795 402.6 17.6
419(11) 0.00789 402.5 17.7
435(11) 0.00720 402.4 17.8
402(11) 0.00830 402.3 17.9
391(10) 0.00843 402.2 18.1
406(10) 0.00841 402.1 18.3
434(11) 0.00737 402.0 18.6
422(11) 0.00724 401.9 18.9
419(11) 0.00743 401.8 19.2
427(11) 0.00798 401.7 19.6
418(11) 0.00814 401.5 20.0
393(11) 0.00818 401.4 20.5
407(11) 0.00752 401.3 21.1
423(11) 0.00778 401.2 21.7
422(11) 0.00807 401.1 22.4
416(11) 0.00825 401.0 23.2
458(12) 0.00706 400.9 24.1
446(12) 0.00694 400.8 25.1
425(11) 0.00769 400.7 26.1
421(11) 0.00805 400.6 27.4
423(11) 0.00817 400.4 28.7
422(11) 0.00789 400.3 30.3
437(12) 0.00693 400.2 32.0
409(11) 0.00794 400.1 33.9
448(11) 0.00772 400.0 36.1
445(11) 0.00766 399.9 38.6
447(11) 0.00717 399.8 41.4
465(12) 0.00653 399.7 44.6
465(12) 0.00696 399.6 48.2
437(11) 0.00792 399.5 52.2
451(11) 0.00759 399.3 56.8
480(12) 0.00669 399.2 61.9
483(12) 0.00647 399.1 67.7
478(12) 0.00696 399.0 74.1
507(12) 0.00692 398.9 81.2
514(12) 0.00667 398.8 89.2
527(12) 0.00609 398.7 97.8
489(12) 0.00655 398.6 107.2
496(12) 0.00658 398.5 117.3
536(12) 0.00654 398.4 127.8
555(12) 0.00620 398.2 138.6
538(12) 0.00612 398.1 149.3
570(13) 0.00564 398.0 159.4
586(13) 0.00570 397.9 168.3
596(13) 0.00594 397.8 175.4
611(13) 0.00543 397.7 180.0
570(13) 0.00569 397.6 181.8
584(13) 0.00554 397.5 180.6
620(13) 0.00541 397.4 176.5
597(13) 0.00591 397.3 169.8
574(13) 0.00571 397.1 161.2
562(13) 0.00565 397.0 151.2
562(13) 0.00567 396.9 140.6
563(12) 0.00608 396.8 129.7
526(12) 0.00661 396.7 119.0
492(12) 0.00640 396.6 108.7
478(12) 0.00639 396.5 99.1
451(11) 0.00723 396.4 90.2
468(11) 0.00729 396.3 82.0
458(11) 0.00753 396.2 74.6
441(11) 0.00739 396.0 67.9
467(12) 0.00665 395.9 61.9
457(12) 0.00706 395.8 56.6
462(11) 0.00736 395.7 51.8
427(11) 0.00806 395.6 47.6
435(11) 0.00744 395.5 43.8
380(11) 0.00819 395.4 40.4
430(11) 0.00745 395.3 37.5
413(11) 0.00829 395.2 34.8
420(11) 0.00811 395.1 32.5
407(11) 0.00787 394.9 30.3
409(11) 0.00737 394.8 28.5
379(10) 0.00856 394.7 26.8
407(10) 0.00843 394.6 25.3
405(11) 0.00831 394.5 23.9
396(11) 0.00789 394.4 22.6
396(11) 0.00776 394.3 21.5
405(11) 0.00798 394.2 20.5
423(11) 0.00811 394.1 19.6
419(11) 0.00813 394.0 18.7
390(11) 0.00833 393.8 17.9
394(11) 0.00781 393.7 17.2
365(10) 0.00888 393.6 16.5
392(10) 0.00864 393.5 15.9
387(11) 0.00834 393.4 15.3
396(11) 0.00795 393.3 14.8
394(11) 0.00767 393.2 14.3
399(11) 0.00775 393.1 13.8
391(10) 0.00871 393.0 13.4
392(10) 0.00853 392.9 13.0
390(11) 0.00835 392.7 12.6
424(11) 0.00745 392.6 12.2
421(11) 0.00769 392.5 11.9
398(10) 0.00869 392.4 11.6
421(11) 0.00794 392.3 11.3
400(11) 0.00801 392.2 11.0
370(10) 0.00856 392.1 10.8
401(11) 0.00783 392.0 10.6
380(10) 0.00904 391.9 10.3
371(10) 0.00877 391.7 10.1
370(10) 0.00861 391.6 9.9
399(11) 0.00808 391.5 9.7
387(10) 0.00867 391.4 9.6
363(10) 0.00927 391.3 9.4
400(11) 0.00785 391.2 9.2
401(11) 0.00769 391.1 9.1
393(11) 0.00794 391.0 9.0
351(10) 0.00937 390.9 8.8
386(10) 0.00897 390.8 8.7
414(11) 0.00752 390.6 8.6
387(11) 0.00793 390.5 8.5
380(10) 0.00847 390.4 8.4
406(11) 0.00830 390.3 8.3
404(10) 0.00853 390.2 8.2
382(10) 0.00867 390.1 8.2
381(11) 0.00821 390.0 8.1
380(10) 0.00869 389.9 8.0
380(10) 0.00878 389.8 8.0
363(10) 0.00936 389.7 7.9
391(11) 0.00822 389.5 7.9
376(11) 0.00807 389.4 7.8
356(10) 0.00890 389.3 7.8
403(10) 0.00855 389.2 7.8
394(10) 0.00857 389.1 7.7
390(10) 0.00840 388.9 7.7
379(11) 0.00814 388.8 7.7
381(10) 0.00842 388.7 7.7
377(10) 0.00914 388.6 7.7
358(10) 0.00944 388.4 7.7
404(11) 0.00772 388.3 7.7
400(11) 0.00778 388.2 7.7
401(11) 0.00822 388.1 7.7
385(10) 0.00892 387.9 7.7
387(10) 0.00863 387.8 7.7
384(11) 0.00834 387.7 7.8
401(11) 0.00781 387.6 7.8
383(10) 0.00848 387.4 7.9
386(10) 0.00889 387.3 7.9
412(11) 0.00810 387.2 8.0
374(10) 0.00863 387.0 8.0
390(11) 0.00809 386.9 8.1
384(10) 0.00850 386.8 8.2
409(10) 0.00841 386.7 8.3
388(10) 0.00860 386.5 8.4
382(11) 0.00826 386.4 8.5
376(10) 0.00851 386.3 8.6
392(10) 0.00842 386.2 8.8
386(10) 0.00883 386.0 9.0
359(10) 0.00872 385.9 9.2
381(11) 0.00818 385.8 9.4
394(11) 0.00804 385.7 9.7
375(10) 0.00885 385.5 10.0
366(10) 0.00936 385.4 10.4
385(11) 0.00799 385.3 10.8
389(11) 0.00805 385.2 11.5
397(11) 0.00794 385.0 12.3
379(10) 0.00874 384.9 13.4
408(11) 0.00837 384.8 14.9
409(11) 0.00784 384.7 16.9
378(11) 0.00822 384.5 19.5
381(10) 0.00844 384.4 22.8
379(10) 0.00874 384.3 26.8
395(10) 0.00881 384.1 31.2
398(11) 0.00826 384.0 35.8
401(11) 0.00770 383.9 39.7
402(11) 0.00813 383.8 41.9
436(11) 0.00797 383.6 41.7
428(11) 0.00802 383.5 39.1
400(11) 0.00800 383.4 35.2
388(11) 0.00760 383.3 30.9
409(11) 0.00786 383.1 26.8
393(10) 0.00863 383.0 23.3
395(10) 0.00865 382.9 20.4
409(11) 0.00809 382.8 18.3
402(11) 0.00744 382.6 16.7
410(11) 0.00780 382.5 15.6
408(10) 0.00850 382.4 14.8
392(10) 0.00855 382.3 14.4
361(10) 0.00896 382.1 14.1
413(11) 0.00731 382.0 13.9
409(11) 0.00787 381.9 13.8
396(10) 0.00865 381.8 13.8
409(11) 0.00821 381.6 13.9
387(11) 0.00810 381.5 14.0
379(11) 0.00812 381.4 14.1
376(10) 0.00877 381.2 14.3
393(10) 0.00857 381.1 14.5
376(10) 0.00892 381.0 14.7
394(11) 0.00816 380.9 14.9
404(11) 0.00775 380.7 15.2
379(10) 0.00868 380.6 15.5
372(10) 0.00923 380.5 15.8
378(10) 0.00872 380.4 16.2
344(10) 0.00924 380.2 16.5
387(11) 0.00792 380.1 16.9
412(11) 0.00804 380.0 17.3
396(10) 0.00866 379.9 17.7
392(11) 0.00832 379.7 18.2
385(11) 0.00814 379.6 18.7
413(11) 0.00750 379.5 19.2
386(11) 0.00825 379.4 19.7
385(10) 0.00885 379.2 20.3
383(11) 0.00837 379.1 20.9
384(11) 0.00806 379.0 21.5
370(10) 0.00846 378.9 22.1
374(10) 0.00874 378.7 22.8
402(10) 0.00853 378.6 23.5
386(10) 0.00842 378.5 24.3
364(10) 0.00857 378.4 25.1
381(11) 0.00822 378.2 25.9
406(11) 0.00820 378.1 26.8
397(10) 0.00861 378.0 27.8
386(10) 0.00858 377.8 28.8
404(11) 0.00743 377.7 29.8
370(10) 0.00889 377.6 31.0
408(11) 0.00836 377.5 32.2
381(10) 0.00887 377.3 33.5
391(10) 0.00859 377.2 34.8
408(11) 0.00738 377.1 36.3
410(11) 0.00778 377.0 37.8
413(11) 0.00822 376.8 39.4
440(11) 0.00779 376.7 41.2
436(11) 0.00735 376.6 43.1
404(11) 0.00767 376.5 45.1
437(11) 0.00746 376.3 47.2
434(11) 0.00784 376.2 49.4
453(11) 0.00744 376.1 51.8
448(11) 0.00722 376.0 54.3
466(12) 0.00647 375.8 57.0
420(11) 0.00769 375.7 59.7
453(11) 0.00765 375.6 62.5
430(11) 0.00800 375.5 65.4
461(12) 0.00704 375.3 68.2
468(12) 0.00669 375.2 71.0
498(12) 0.00647 375.1 73.6
477(11) 0.00733 374.9 76.0
470(12) 0.00706 374.8 78.1
456(11) 0.00715 374.7 79.7
482(12) 0.00634 374.6 80.7
432(11) 0.00760 374.4 81.3
462(11) 0.00746 374.3 81.2
444(11) 0.00754 374.2 80.5
447(11) 0.00711 374.1 79.4
436(11) 0.00717 373.9 77.7
449(11) 0.00729 373.8 75.7
456(11) 0.00762 373.7 73.4
453(11) 0.00711 373.6 70.9
444(11) 0.00719 373.4 68.3
422(11) 0.00787 373.3 65.8
457(11) 0.00730 373.2 63.2
435(11) 0.00796 373.1 60.8
416(11) 0.00793 372.9 58.4
443(12) 0.00698 372.8 56.2
427(11) 0.00763 372.7 54.2
434(11) 0.00763 372.6 52.3
439(11) 0.00780 372.4 50.6
427(11) 0.00750 372.3 49.1
407(11) 0.00754 372.2 47.8
434(11) 0.00735 372.0 46.6
418(11) 0.00812 371.9 45.5
408(10) 0.00842 371.8 44.7
392(11) 0.00815 371.7 44.0
415(11) 0.00728 371.5 43.4
424(11) 0.00743 371.4 43.0
395(10) 0.00857 371.3 42.7
402(10) 0.00857 371.2 42.5
408(11) 0.00787 371.0 42.5
403(11) 0.00758 370.9 42.7
403(11) 0.00812 370.8 42.9
420(11) 0.00815 370.7 43.3
415(11) 0.00829 370.5 43.9
408(11) 0.00795 370.4 44.6
404(11) 0.00741 370.3 45.4
414(11) 0.00774 370.2 46.4
413(10) 0.00847 370.0 47.5
408(10) 0.00840 369.9 48.9
412(11) 0.00797 369.8 50.4
446(12) 0.00682 369.7 52.1
422(11) 0.00773 369.5 54.0
428(11) 0.00808 369.4 56.2
418(11) 0.00823 369.3 58.6
434(11) 0.00729 369.2 61.4
404(11) 0.00772 369.0 64.4
412(11) 0.00781 368.9 67.8
446(11) 0.00761 368.8 71.6
428(11) 0.00800 368.6 75.7
423(11) 0.00772 368.5 80.4
445(12) 0.00706 368.4 85.6
449(11) 0.00717 368.3 91.3
444(11) 0.00776 368.1 97.7
470(12) 0.00707 368.0 104.7
453(12) 0.00707 367.9 112.4
438(11) 0.00732 367.8 120.9
475(12) 0.00681 367.6 130.2
465(11) 0.00748 367.5 140.3
533(12) 0.00614 367.4 151.4
541(13) 0.00603 367.3 163.4
549(13) 0.00590 367.1 176.2
552(12) 0.00612 367.0 189.9
542(12) 0.00649 366.9 204.4
600(13) 0.00549 366.8 219.4
616(14) 0.00519 366.6 234.7
649(14) 0.00497 366.5 250.1
611(13) 0.00553 366.4 265.0
634(13) 0.00556 366.3 278.9
650(14) 0.00508 366.1 291.3
646(14) 0.00492 366.0 301.6
657(14) 0.00497 365.9 309.4
643(13) 0.00532 365.7 314.1
611(13) 0.00568 365.6 315.8
591(13) 0.00550 365.5 314.3
603(14) 0.00520 365.4 310.1
629(14) 0.00520 365.2 303.4
621(13) 0.00561 365.1 294.8
581(13) 0.00601 365.0 284.8
603(13) 0.00547 364.9 273.8
550(13) 0.00571 364.7 262.2
541(12) 0.00617 364.6 250.0
549(12) 0.00635 364.5 237.5
554(12) 0.00626 364.4 224.8
504(12) 0.00657 364.2 211.8
519(13) 0.00595 364.1 198.7
510(12) 0.00666 364.0 185.6
520(12) 0.00669 363.9 172.7
476(11) 0.00721 363.7 160.2
489(12) 0.00671 363.6 148.3
482(12) 0.00634 363.5 137.0
480(12) 0.00673 363.4 126.4
493(12) 0.00701 363.2 116.7
448(11) 0.00776 363.1 107.7
466(12) 0.00675 363.0 99.5
462(12) 0.00670 362.8 92.0
452(11) 0.00716 362.7 85.3
430(11) 0.00785 362.6 79.1
429(11) 0.00787 362.5 73.6
406(11) 0.00793 362.3 68.5
438(12) 0.00707 362.2 64.0
417(11) 0.00752 362.1 59.9
418(11) 0.00824 362.0 56.2
423(11) 0.00779 361.8 52.8
412(11) 0.00772 361.7 49.7
438(12) 0.00703 361.6 47.0
410(11) 0.00800 361.5 44.4
414(11) 0.00832 361.3 42.1
412(11) 0.00772 361.2 40.0
378(11) 0.00835 361.1 38.0
375(10) 0.00853 361.0 36.2
404(11) 0.00803 360.8 34.6
397(10) 0.00871 360.7 33.0
405(11) 0.00824 360.6 31.6
387(10) 0.00842 360.5 30.3
381(10) 0.00840 360.3 29.0
349(10) 0.00950 360.2 27.9
366(10) 0.00924 360.1 26.8
408(11) 0.00769 360.0 25.8
382(11) 0.00809 359.8 24.8
360(10) 0.00859 359.7 23.9
378(10) 0.00873 359.6 23.1
345(10) 0.00992 359.4 22.3
380(10) 0.00845 359.3 21.6
383(11) 0.00817 359.2 20.9
364(10) 0.00894 359.1 20.2
372(10) 0.00910 358.9 19.6
369(10) 0.00923 358.8 19.0
348(10) 0.00919 358.7 18.5
367(11) 0.00799 358.6 18.0
373(10) 0.00862 358.4 17.5
364(10) 0.00942 358.3 17.0
366(10) 0.00928 358.2 16.6
367(10) 0.00869 358.1 16.2
377(11) 0.00767 357.9 15.8
364(10) 0.00904 357.8 15.4
370(10) 0.00916 357.7 15.1
374(10) 0.00926 357.6 14.7
345(10) 0.00925 357.4 14.4
379(11) 0.00772 357.3 14.1
359(10) 0.00879 357.2 13.9
352(10) 0.00953 357.1 13.6
380(10) 0.00892 356.9 13.4
374(11) 0.00835 356.8 13.1
367(10) 0.00842 356.7 12.9
383(11) 0.00830 356.5 12.8
388(10) 0.00881 356.4 12.6
375(10) 0.00895 356.3 12.4
378(10) 0.00839 356.2 12.3
355(10) 0.00845 356.0 12.2
345(10) 0.00912 355.9 12.1
327(9) 0.01036 355.8 12.0
373(10) 0.00899 355.7 11.9
362(10) 0.00874 355.5 11.9
369(10) 0.00871 355.4 11.8
384(11) 0.00826 355.3 11.8
353(10) 0.00959 355.2 11.8
366(10) 0.00900 355.0 11.9
356(10) 0.00901 354.9 11.9
368(10) 0.00868 354.8 12.0
356(10) 0.00912 354.7 12.1
346(10) 0.00992 354.5 12.2
367(10) 0.00850 354.4 12.3
343(10) 0.00903 354.3 12.5
364(10) 0.00847 354.2 12.7
364(10) 0.00905 354.0 12.9
346(10) 0.00984 353.9 13.1
361(10) 0.00877 353.8 13.4
341(10) 0.00904 353.7 13.6
346(10) 0.00906 353.5 13.9
361(10) 0.00905 353.4 14.1
353(10) 0.00959 353.3 14.4
346(10) 0.00922 353.1 14.6
363(11) 0.00824 353.0 14.9
358(10) 0.00873 352.9 15.0
398(10) 0.00843 352.8 15.2
388(10) 0.00870 352.6 15.2
347(10) 0.00925 352.5 15.2
351(10) 0.00891 352.4 15.2
337(10) 0.00947 352.3 15.1
340(10) 0.00985 352.1 14.9
340(10) 0.00989 352.0 14.6
363(10) 0.00904 351.9 14.3
365(11) 0.00803 351.8 13.9
333(10) 0.00968 351.6 13.6
330(10) 0.00998 351.5 13.2
349(10) 0.00971 351.4 12.7
371(10) 0.00850 351.3 12.3
360(10) 0.00850 351.1 11.9
335(10) 0.00967 351.0 11.5
349(10) 0.00962 350.9 11.1
353(10) 0.00960 350.8 10.7
338(10) 0.00941 350.6 10.3
356(10) 0.00856 350.5 9.9
337(10) 0.00939 350.4 9.6
324(9) 0.01037 350.2 9.3
356(10) 0.00930 350.1 9.0
350(10) 0.00891 350.0 8.7
360(10) 0.00858 349.9 8.5
367(10) 0.00869 349.7 8.2
354(10) 0.00945 349.6 8.0
355(10) 0.00936 349.5 7.8
340(10) 0.00920 349.4 7.6
327(10) 0.00959 349.2 7.4
349(10) 0.00889 349.1 7.3
354(10) 0.00963 349.0 7.1
371(10) 0.00875 348.9 7.0
370(10) 0.00839 348.7 6.9
362(10) 0.00860 348.6 6.7
355(10) 0.00891 348.5 6.6
323(9) 0.01047 348.4 6.5
341(10) 0.00961 348.2 6.4
372(10) 0.00841 348.1 6.4
350(10) 0.00880 348.0 6.3
354(10) 0.00945 347.9 6.2
362(10) 0.00944 347.7 6.1
333(10) 0.00980 347.6 6.1
343(10) 0.00909 347.5 6.0
347(10) 0.00927 347.4 6.0
306(9) 0.01087 347.2 5.9
369(10) 0.00920 347.1 5.9
346(10) 0.00958 347.0 5.9
356(10) 0.00861 346.9 5.8
351(10) 0.00896 346.8 5.8
352(10) 0.00923 346.7 5.8
341(10) 0.00990 346.6 5.8
342(10) 0.00927 346.5 5.8
355(10) 0.00853 346.4 5.8
341(10) 0.00938 346.2 5.7
341(10) 0.00987 346.1 5.7
327(9) 0.01037 346.0 5.8
333(10) 0.00958 345.9 5.8
326(10) 0.00895 345.8 5.8
333(10) 0.00945 345.7 5.8
336(10) 0.00991 345.6 5.8
343(10) 0.00979 345.5 5.8
338(10) 0.00930 345.4 5.9
348(10) 0.00851 345.3 5.9
343(10) 0.00939 345.1 5.9
356(10) 0.00946 345.0 6.0
331(9) 0.01021 344.9 6.0
344(10) 0.00900 344.8 6.1
340(10) 0.00851 344.7 6.2
346(10) 0.00921 344.6 6.2
333(9) 0.01022 344.5 6.3
343(10) 0.00960 344.4 6.4
354(10) 0.00886 344.3 6.5
340(10) 0.00866 344.1 6.5
335(10) 0.00953 344.0 6.6
374(10) 0.00905 343.9 6.8
349(10) 0.00963 343.8 6.9
382(11) 0.00826 343.7 7.0
364(10) 0.00869 343.6 7.1
353(10) 0.00897 343.5 7.3
373(10) 0.00917 343.4 7.4
354(10) 0.00927 343.3 7.6
334(10) 0.00938 343.2 7.8
346(10) 0.00905 343.0 8.0
360(10) 0.00912 342.9 8.2
367(10) 0.00930 342.8 8.4
334(10) 0.00972 342.7 8.7
334(10) 0.00955 342.6 8.9
373(11) 0.00822 342.5 9.2
350(10) 0.00923 342.4 9.5
354(10) 0.00954 342.3 9.8
326(10) 0.00978 342.2 10.1
333(10) 0.00924 342.1 10.5
351(10) 0.00876 341.9 10.9
336(10) 0.00962 341.8 11.3
364(10) 0.00929 341.7 11.8
346(10) 0.00922 341.6 12.3
328(10) 0.00972 341.5 12.8
368(10) 0.00890 341.4 13.3
362(10) 0.00928 341.3 13.9
366(10) 0.00940 341.2 14.5
348(10) 0.00917 341.1 15.2
365(11) 0.00826 340.9 15.9
366(10) 0.00865 340.8 16.6
335(10) 0.00995 340.7 17.4
359(10) 0.00955 340.6 18.2
365(10) 0.00886 340.5 19.0
355(10) 0.00864 340.4 19.8
364(10) 0.00880 340.3 20.7
348(10) 0.00957 340.2 21.6
342(10) 0.00984 340.1 22.6
344(10) 0.00957 340.0 23.5
365(11) 0.00818 339.8 24.4
343(10) 0.00978 339.7 25.3
365(10) 0.00940 339.6 26.2
341(10) 0.00985 339.5 27.0
355(10) 0.00881 339.4 27.8
374(11) 0.00793 339.3 28.5
388(11) 0.00810 339.2 29.1
345(10) 0.00985 339.1 29.5
354(10) 0.00937 339.0 29.8
357(10) 0.00907 338.8 30.0
354(10) 0.00861 338.7 30.1
339(10) 0.00926 338.6 30.0
366(10) 0.00921 338.5 29.7
362(10) 0.00936 338.4 29.3
387(11) 0.00795 338.3 28.8
363(10) 0.00863 338.2 28.2
405(11) 0.00758 338.1 27.5
373(10) 0.00917 338.0 26.7
359(10) 0.00933 337.9 25.9
351(10) 0.00952 337.7 25.0
345(10) 0.00948 337.6 24.0
355(10) 0.00915 337.5 23.1
344(10) 0.00984 337.4 22.2
364(10) 0.00890 337.3 21.3
335(10) 0.00914 337.2 20.4
346(10) 0.00886 337.1 19.5
350(10) 0.00935 337.0 18.7
369(10) 0.00927 336.9 17.8
349(10) 0.00962 336.8 17.1
344(10) 0.00927 336.6 16.3
364(10) 0.00878 336.5 15.6
355(10) 0.00951 336.4 15.0
312(9) 0.01070 336.3 14.3
313(9) 0.01013 336.2 13.7
365(11) 0.00822 336.1 13.2
327(10) 0.00940 336.0 12.7
329(10) 0.00985 335.9 12.2
334(9) 0.01016 335.8 11.7
348(10) 0.00920 335.6 11.3
372(11) 0.00831 335.5 10.9
332(10) 0.00948 335.4 10.5
336(10) 0.00994 335.3 10.2
334(9) 0.01014 335.2 9.9
336(10) 0.00936 335.1 9.6
350(11) 0.00833 335.0 9.3
347(10) 0.00908 334.9 9.1
347(10) 0.00962 334.8 8.8
331(9) 0.01018 334.7 8.6
332(10) 0.00928 334.5 8.4
345(10) 0.00859 334.4 8.2
326(10) 0.00978 334.3 8.1
328(9) 0.01015 334.2 7.9
321(9) 0.01044 334.1 7.8
330(10) 0.00972 334.0 7.6
339(10) 0.00884 333.9 7.5
353(10) 0.00913 333.8 7.4
316(9) 0.01067 333.7 7.3
332(10) 0.00986 333.5 7.3
311(9) 0.01041 333.4 7.2
302(9) 0.01028 333.3 7.1
358(10) 0.00911 333.2 7.1
319(9) 0.01048 333.1 7.0
315(9) 0.01064 333.0 7.0
329(10) 0.00952 332.9 7.0
305(9) 0.01029 332.8 7.0
335(10) 0.00973 332.7 6.9
330(9) 0.01026 332.6 6.9
356(10) 0.00934 332.4 6.9
305(9) 0.01080 332.3 7.0
342(10) 0.00870 332.2 7.0
308(9) 0.01027 332.1 7.0
302(9) 0.01108 332.0 7.0
321(9) 0.01018 331.9 7.1
312(10) 0.00964 331.8 7.1
311(10) 0.00974 331.7 7.1
333(10) 0.00923 331.6 7.2
334(10) 0.01006 331.5 7.2
331(10) 0.00998 331.3 7.3
357(10) 0.00882 331.2 7.3
327(10) 0.00966 331.1 7.4
330(10) 0.00982 331.0 7.5
342(10) 0.00988 330.9 7.5
337(10) 0.00954 330.8 7.6
323(10) 0.00943 330.7 7.7
319(10) 0.00965 330.6 7.7
321(9) 0.01019 330.5 7.8
347(10) 0.00979 330.3 7.9
336(10) 0.00915 330.2 7.9
326(10) 0.00947 330.1 8.0
344(10) 0.00925 330.0 8.0
366(10) 0.00907 329.9 8.1
316(9) 0.01068 329.8 8.1
330(10) 0.00968 329.7 8.2
346(10) 0.00859 329.6 8.2
351(10) 0.00927 329.5 8.2
354(10) 0.00958 329.4 8.2
317(9) 0.01062 329.2 8.2
328(10) 0.00905 329.1 8.2
303(10) 0.00991 329.0 8.2
337(10) 0.00898 328.9 8.2
346(10) 0.00970 328.8 8.1
327(9) 0.01011 328.7 8.1
334(10) 0.00986 328.6 8.0
348(10) 0.00878 328.5 7.9
345(10) 0.00924 328.4 7.9
333(9) 0.01011 328.2 7.8
339(10) 0.00981 328.1 7.7
337(10) 0.00936 328.0 7.6
342(10) 0.00860 327.9 7.5
325(10) 0.00997 327.8 7.4
340(10) 0.00994 327.7 7.3
311(9) 0.01048 327.6 7.1
310(9) 0.01023 327.5 7.0
341(10) 0.00880 327.4 6.9
337(10) 0.00932 327.3 6.8
321(9) 0.01027 327.1 6.6
294(9) 0.01127 327.0 6.5
312(9) 0.01043 326.9 6.4
345(10) 0.00900 326.8 6.2
349(10) 0.00880 326.7 6.1
328(9) 0.01033 326.6 6.0
333(10) 0.00999 326.5 5.9
344(10) 0.00921 326.4 5.7
341(10) 0.00919 326.3 5.6
332(10) 0.00967 326.2 5.5
342(10) 0.00999 326.0 5.4
330(10) 0.00954 325.9 5.3
328(10) 0.00917 325.8 5.1
318(9) 0.01021 325.7 5.0
324(10) 0.00974 325.6 4.9
337(9) 0.01008 325.5 4.8
337(10) 0.00949 325.4 4.7
319(10) 0.00994 325.3 4.6
314(9) 0.01023 325.2 4.5
339(10) 0.00973 325.0 4.4
314(9) 0.01067 324.9 4.3
314(9) 0.01012 324.8 4.3
303(9) 0.01023 324.7 4.2
317(10) 0.00978 324.6 4.1
306(9) 0.01086 324.5 4.0
282(9) 0.01190 324.4 3.9
303(9) 0.01030 324.3 3.9
343(10) 0.00880 324.2 3.8
329(10) 0.00965 324.1 3.7
343(10) 0.00963 323.9 3.7
355(10) 0.00946 323.8 3.6
316(9) 0.01014 323.7 3.5
313(10) 0.00982 323.6 3.5
335(10) 0.00966 323.5 3.4
321(9) 0.01042 323.4 3.4
317(9) 0.01068 323.3 3.3
330(10) 0.00934 323.2 3.3
333(10) 0.00898 323.1 3.2
346(10) 0.00923 322.9 3.2
316(9) 0.01063 322.8 3.1
297(9) 0.01135 322.7 3.1
301(9) 0.01081 322.6 3.1
331(10) 0.00887 322.5 3.0
326(10) 0.00980 322.4 3.0
318(9) 0.01053 322.3 2.9
333(9) 0.01029 322.2 2.9
328(10) 0.00997 322.1 2.9
333(10) 0.00902 322.0 2.8
322(10) 0.00977 321.8 2.8
335(9) 0.01008 321.7 2.8
321(9) 0.01033 321.6 2.8
312(9) 0.01026 321.5 2.7
312(10) 0.00991 321.4 2.7
314(9) 0.01012 321.3 2.7
336(10) 0.01006 321.2 2.7
321(9) 0.01047 321.1 2.6
335(10) 0.00961 321.0 2.6
316(10) 0.00994 320.9 2.6
321(10) 0.00988 320.7 2.6
302(9) 0.01099 320.6 2.6
327(10) 0.00971 320.5 2.5
316(10) 0.01007 320.4 2.5
349(10) 0.00886 320.3 2.5
319(9) 0.01029 320.2 2.5
322(9) 0.01046 320.1 2.5
299(9) 0.01066 320.0 2.5
317(10) 0.00979 319.9 2.4
309(9) 0.01036 319.7 2.4
347(10) 0.00941 319.6 2.4
324(9) 0.01035 319.5 2.4
310(10) 0.00996 319.4 2.4
311(10) 0.00981 319.3 2.4
324(10) 0.00981 319.2 2.4
333(10) 0.00994 319.2 2.4
326(9) 0.01034 319.1 2.4
324(10) 0.00955 319.0 2.4
315(10) 0.00990 319.0 2.4
283(9) 0.01149 318.9 2.4
311(9) 0.01068 318.8 2.4
327(9) 0.01024 318.8 2.4
321(10) 0.01006 318.7 2.4
327(10) 0.00923 318.6 2.4
301(9) 0.01049 318.6 2.4
314(9) 0.01050 318.5 2.4
341(10) 0.00983 318.4 2.4
321(10) 0.00990 318.4 2.4
334(10) 0.00897 318.3 2.4
324(10) 0.01002 318.2 2.4
308(9) 0.01080 318.2 2.4
308(9) 0.01078 318.1 2.4
339(10) 0.00914 318.1 2.4
311(10) 0.00931 318.0 2.4
348(10) 0.00898 317.9 2.4
321(9) 0.01046 317.9 2.4
324(9) 0.01052 317.8 2.5
324(10) 0.00996 317.7 2.5
329(10) 0.00927 317.7 2.5
317(9) 0.01033 317.6 2.5
315(9) 0.01083 317.5 2.5
303(9) 0.01072 317.5 2.6
329(10) 0.00980 317.4 2.6
329(10) 0.00945 317.3 2.6
307(9) 0.01031 317.3 2.6
307(9) 0.01095 317.2 2.7
305(9) 0.01045 317.1 2.7
293(9) 0.01084 317.1 2.8
309(10) 0.00989 317.0 2.8
320(10) 0.00951 317.0 2.9
324(9) 0.01035 316.9 2.9
331(10) 0.00995 316.8 3.0
340(10) 0.00939 316.8 3.1
326(10) 0.00956 316.7 3.1
333(10) 0.00935 316.6 3.2
325(9) 0.01038 316.6 3.3
328(10) 0.00978 316.5 3.4
318(10) 0.00986 316.4 3.5
309(10) 0.01005 316.4 3.7
317(9) 0.01009 316.3 3.8
310(9) 0.01084 316.2 4.0
305(9) 0.01033 316.2 4.2
300(10) 0.01004 316.1 4.4
303(9) 0.01032 316.0 4.7
307(9) 0.01057 316.0 5.0
340(10) 0.00984 315.9 5.4
309(9) 0.01011 315.9 5.9
326(10) 0.00933 315.8 6.4
319(10) 0.00991 315.7 7.1
318(9) 0.01023 315.7 7.9
328(9) 0.01027 315.6 8.8
306(9) 0.01016 315.5 9.9
318(10) 0.00923 315.5 11.2
317(10) 0.00983 315.4 12.7
306(9) 0.01083 315.3 14.4
331(9) 0.01022 315.3 16.2
313(9) 0.01023 315.2 18.2
310(10) 0.00949 315.1 20.1
323(10) 0.00966 315.1 21.9
329(9) 0.01020 315.0 23.2
318(9) 0.01061 314.9 23.9
342(10) 0.00936 314.9 23.8
336(10) 0.00871 314.8 22.9
329(10) 0.00967 314.8 21.5
328(9) 0.01029 314.7 19.7
331(9) 0.01015 314.6 17.8
333(10) 0.00973 314.6 15.9
322(10) 0.00944 314.5 14.1
314(9) 0.01018 314.4 12.6
333(9) 0.01009 314.4 11.2
320(9) 0.01033 314.3 10.0
305(9) 0.01037 314.2 8.9
333(10) 0.00906 314.2 8.1
289(9) 0.01115 314.1 7.4
312(9) 0.01071 314.0 6.8
313(9) 0.01040 314.0 6.3
308(9) 0.01011 313.9 5.9
310(10) 0.01003 313.8 5.6
335(10) 0.00934 313.8 5.4
300(9) 0.01112 313.7 5.2
317(9) 0.01014 313.6 5.0
329(10) 0.00999 313.6 4.9
335(10) 0.00954 313.5 4.8
324(10) 0.00991 313.5 4.7
332(9) 0.01025 313.4 4.6
314(9) 0.01034 313.3 4.6
308(10) 0.00987 313.3 4.5
315(10) 0.00997 313.2 4.5
302(9) 0.01072 313.1 4.5
288(9) 0.01149 313.1 4.5
314(10) 0.00999 313.0 4.5
314(10) 0.00974 312.9 4.5
297(9) 0.01074 312.9 4.6
295(9) 0.01107 312.8 4.6
294(9) 0.01126 312.7 4.7
319(10) 0.00983 312.7 4.7
338(10) 0.00890 312.6 4.8
309(9) 0.01015 312.5 4.9
293(9) 0.01095 312.5 5.0
284(9) 0.01179 312.4 5.1
282(9) 0.01119 312.4 5.2
323(10) 0.00943 312.3 5.3
309(9) 0.01028 312.2 5.5
315(9) 0.01060 312.2 5.6
312(9) 0.01071 312.1 5.8
316(9) 0.01018 312.0 6.0
318(10) 0.00936 312.0 6.2
301(9) 0.01074 311.9 6.4
331(9) 0.01011 311.8 6.7
315(9) 0.01072 311.8 6.9
324(10) 0.00981 311.7 7.1
313(10) 0.00940 311.6 7.3
300(9) 0.01060 311.6 7.4
322(9) 0.01012 311.5 7.5
353(10) 0.00952 311.4 7.5
312(9) 0.01059 311.4 7.4
311(10) 0.00950 311.3 7.3
289(9) 0.01089 311.3 7.1
329(9) 0.01028 311.2 6.8
333(10) 0.00995 311.1 6.6
338(10) 0.00926 311.1 6.4
318(10) 0.00922 311.0 6.1
300(9) 0.01073 310.9 5.9
309(9) 0.01088 310.9 5.7
310(9) 0.01046 310.8 5.5
292(9) 0.01058 310.7 5.3
332(10) 0.00884 310.7 5.2
320(10) 0.00985 310.6 5.1
311(9) 0.01073 310.5 5.0
305(9) 0.01078 310.5 4.9
333(10) 0.00931 310.4 4.8
306(9) 0.01038 310.3 4.7
313(9) 0.01035 310.3 4.7
315(9) 0.01071 310.2 4.7
311(9) 0.01034 310.2 4.6
306(9) 0.01024 310.1 4.6
303(9) 0.01010 310.0 4.6
284(9) 0.01120 310.0 4.6
313(9) 0.01065 309.9 4.6
305(9) 0.01049 309.8 4.7
326(10) 0.00907 309.8 4.7
311(9) 0.01018 309.7 4.7
330(10) 0.00976 309.6 4.8
310(9) 0.01074 309.6 4.8
305(9) 0.01033 309.5 4.9
336(10) 0.00884 309.4 4.9
332(10) 0.00962 309.4 5.0
298(9) 0.01119 309.3 5.1
289(9) 0.01141 309.2 5.1
317(10) 0.00999 309.2 5.2
314(10) 0.00973 309.1 5.3
298(9) 0.01074 309.1 5.4
317(9) 0.01053 309.0 5.5
317(9) 0.01056 308.9 5.6
329(10) 0.00946 308.9 5.7
316(10) 0.00963 308.8 5.8
315(10) 0.00979 308.7 6.0
332(10) 0.00992 308.7 6.1
314(9) 0.01075 308.6 6.2
322(10) 0.00977 308.5 6.4
315(10) 0.00909 308.5 6.5
314(10) 0.01006 308.4 6.7
301(9) 0.01094 308.3 6.8
324(9) 0.01033 308.3 7.0
305(9) 0.01042 308.2 7.2
294(9) 0.01019 308.1 7.4
323(10) 0.00970 308.1 7.5
308(9) 0.01098 308.0 7.7
317(9) 0.01065 308.0 7.9
335(10) 0.00976 307.9 8.1
329(10) 0.00889 307.8 8.4
314(10) 0.00993 307.8 8.6
317(9) 0.01071 307.7 8.8
340(10) 0.00960 307.6 9.0
297(9) 0.01073 307.6 9.2
309(10) 0.00968 307.5 9.5
328(10) 0.00952 307.4 9.7
311(9) 0.01081 307.4 9.9
314(9) 0.01035 307.3 10.1
335(10) 0.00945 307.2 10.3
322(10) 0.00947 307.2 10.5
296(9) 0.01049 307.1 10.8
320(9) 0.01053 307.0 11.0
330(10) 0.00961 307.0 11.1
316(10) 0.00981 306.9 11.3
327(10) 0.00975 306.9 11.5
341(10) 0.00949 306.8 11.6
337(9) 0.01016 306.7 11.8
293(9) 0.01081 306.7 11.9
286(9) 0.01108 306.6 12.0
319(10) 0.00980 306.5 12.1
320(10) 0.01006 306.5 12.2
345(10) 0.00981 306.4 12.2
304(9) 0.01054 306.3 12.3
309(10) 0.00994 306.3 12.3
317(10) 0.00996 306.2 12.4
313(9) 0.01070 306.1 12.4
313(9) 0.01061 306.1 12.4
329(10) 0.00937 306.0 12.4
309(10) 0.00979 305.9 12.4
308(9) 0.01050 305.9 12.3
339(10) 0.00981 305.8 12.3
320(9) 0.01052 305.8 12.3
318(10) 0.00970 305.7 12.3
323(10) 0.00935 305.6 12.3
316(9) 0.01008 305.6 12.3
336(10) 0.00997 305.5 12.3
334(10) 0.00999 305.4 12.3
336(10) 0.00921 305.4 12.3
337(10) 0.00882 305.3 12.4
320(10) 0.00988 305.2 12.4
305(9) 0.01109 305.2 12.5
296(9) 0.01109 305.1 12.6
313(9) 0.01010 305.0 12.7
339(10) 0.00886 305.0 12.8
320(10) 0.00994 304.9 13.0
318(9) 0.01064 304.8 13.2
285(9) 0.01185 304.8 13.4
320(10) 0.00978 304.7 13.6
318(10) 0.00945 304.6 13.9
337(10) 0.00952 304.6 14.1
327(9) 0.01032 304.5 14.4
344(10) 0.00949 304.5 14.8
338(10) 0.00932 304.4 15.1
323(10) 0.00971 304.3 15.5
346(10) 0.00895 304.3 15.9
326(9) 0.01041 304.2 16.4
341(10) 0.00967 304.1 16.8
324(10) 0.00991 304.1 17.3
324(10) 0.00971 304.0 17.8
321(10) 0.00992 303.9 18.3
309(9) 0.01085 303.9 18.8
319(9) 0.01022 303.8 19.3
330(10) 0.00930 303.7 19.9
332(10) 0.00943 303.7 20.4
335(10) 0.00919 303.6 20.9
332(10) 0.01001 303.5 21.3
348(10) 0.00929 303.5 21.7
329(10) 0.00945 303.4 22.1
341(10) 0.00909 303.4 22.4
353(10) 0.00934 303.3 22.7
350(10) 0.00957 303.2 22.8
352(10) 0.00907 303.2 22.9
363(10) 0.00865 303.1 22.9
340(10) 0.00930 303.0 22.9
325(9) 0.01008 303.0 22.7
351(10) 0.00961 302.9 22.5
326(10) 0.00949 302.8 22.2
319(10) 0.00959 302.8 21.8
328(10) 0.00954 302.7 21.4
338(10) 0.00963 302.6 20.9
340(10) 0.01001 302.6 20.3
321(10) 0.00964 302.5 19.8
325(10) 0.00931 302.4 19.2
321(10) 0.00981 302.4 18.6
303(9) 0.01083 302.3 18.0
321(9) 0.01046 302.3 17.3
320(10) 0.00997 302.2 16.7
333(10) 0.00919 302.1 16.1
302(9) 0.01065 302.1 15.6
318(9) 0.01054 302.0 15.0
345(10) 0.00955 301.9 14.5
307(10) 0.01001 301.9 13.9
290(10) 0.00990 301.8 13.4
288(9) 0.01062 301.7 13.0
322(9) 0.01036 301.7 12.5
305(9) 0.01090 301.6 12.1
321(9) 0.01017 301.5 11.7
313(10) 0.00968 301.5 11.3
296(9) 0.01055 301.4 11.0
337(10) 0.01001 301.3 10.6
338(10) 0.00972 301.3 10.3
349(10) 0.00927 301.2 10.0
316(10) 0.00972 301.2 9.8
289(9) 0.01070 301.1 9.5
302(9) 0.01102 301.0 9.3
323(10) 0.01005 301.0 9.1
297(9) 0.01074 300.9 8.9
300(9) 0.01019 300.8 8.7
310(10) 0.00983 300.8 8.6
304(9) 0.01096 300.7 8.4
302(9) 0.01079 300.6 8.3
308(9) 0.01014 300.6 8.2
313(10) 0.01007 300.5 8.1
311(9) 0.01014 300.4 8.0
301(9) 0.01119 300.4 7.9
316(10) 0.00986 300.3 7.9
307(9) 0.01016 300.2 7.8
315(10) 0.00981 300.2 7.7
306(9) 0.01039 300.1 7.7
327(9) 0.01026 300.1 7.6
305(9) 0.01042 300.0 7.5
326(10) 0.00948 299.9 7.5
313(10) 0.00994 299.9 7.4
310(9) 0.01054 299.8 7.4
292(9) 0.01150 299.7 7.3
299(9) 0.01028 299.7 7.2
335(10) 0.00892 299.6 7.2
296(9) 0.01071 299.5 7.1
316(9) 0.01031 299.5 7.0
304(9) 0.01103 299.4 6.9
312(10) 0.01001 299.3 6.8
310(10) 0.00962 299.3 6.7
325(10) 0.00967 299.2 6.6
303(9) 0.01102 299.1 6.4
288(9) 0.01148 299.1 6.3
286(9) 0.01057 299.0 6.2
283(9) 0.01052 299.0 6.1
311(9) 0.01023 298.9 5.9
289(9) 0.01144 298.8 5.8
311(9) 0.01087 298.8 5.7
309(9) 0.01013 298.7 5.5
295(10) 0.00993 298.6 5.4
291(9) 0.01089 298.6 5.3
309(9) 0.01080 298.5 5.2
337(10) 0.00982 298.4 5.0
309(9) 0.01025 298.4 4.9
299(10) 0.00989 298.3 4.8
300(9) 0.01041 298.2 4.7
308(9) 0.01094 298.2 4.6
295(9) 0.01122 298.1 4.5
301(9) 0.01031 298.0 4.4
309(10) 0.00981 298.0 4.3
304(9) 0.01050 297.9 4.2
277(9) 0.01206 297.9 4.1
302(9) 0.01063 297.8 4.0
275(9) 0.01161 297.7 3.9
316(10) 0.00929 297.7 3.8
301(9) 0.01054 297.6 3.8
301(9) 0.01113 297.5 3.7
291(9) 0.01080 297.5 3.6
290(9) 0.01079 297.4 3.5
303(9) 0.01010 297.3 3.5
306(9) 0.01037 297.3 3.4
295(9) 0.01133 297.2 3.4
298(9) 0.01080 297.1 3.3
298(9) 0.01058 297.1 3.3
302(9) 0.01033 297.0 3.2
303(9) 0.01053 296.9 3.2
287(9) 0.01162 296.9 3.1
299(9) 0.01062 296.8 3.1
283(9) 0.01066 296.8 3.0
296(9) 0.01072 296.7 3.0
299(9) 0.01105 296.6 3.0
302(9) 0.01099 296.6 3.0
307(10) 0.00986 296.5 2.9
288(9) 0.01069 296.4 2.9
313(10) 0.00963 296.4 2.9
298(9) 0.01075 296.3 2.9
301(9) 0.01120 296.2 2.8
317(9) 0.01010 296.2 2.8
298(9) 0.01047 296.1 2.8
308(9) 0.01042 296.0 2.8
274(9) 0.01188 296.0 2.8
297(9) 0.01121 295.9 2.8
300(10) 0.01002 295.8 2.8
285(9) 0.01052 295.8 2.8
289(9) 0.01078 295.7 2.8
293(9) 0.01115 295.7 2.8
298(9) 0.01119 295.6 2.8
297(9) 0.01067 295.5 2.8
305(10) 0.00964 295.5 2.8
297(9) 0.01048 295.4 2.8
278(9) 0.01189 295.3 2.8
272(9) 0.01226 295.3 2.7
297(9) 0.01028 295.2 2.7
297(10) 0.00982 295.1 2.7
315(10) 0.00997 295.1 2.7
315(9) 0.01066 295.0 2.6
270(9) 0.01218 294.9 2.6
292(9) 0.01082 294.9 2.6
294(10) 0.00998 294.8 2.5
300(9) 0.01060 294.7 2.5
284(9) 0.01176 294.7 2.5
307(9) 0.01064 294.6 2.4
298(9) 0.01068 294.5 2.4
291(9) 0.01026 294.5 2.4
291(9) 0.01058 294.4 2.3
307(9) 0.01095 294.4 2.3
287(9) 0.01142 294.3 2.3
292(9) 0.01044 294.2 2.3
313(10) 0.00966 294.2 2.3
315(10) 0.00982 294.1 2.2
289(9) 0.01142 294.0 2.2
301(9) 0.01056 294.0 2.2
311(9) 0.01026 293.9 2.2
347(10) 0.00877 293.8 2.2
278(9) 0.01160 293.8 2.2
295(9) 0.01111 293.7 2.2
306(9) 0.01016 293.6 2.1
303(9) 0.01013 293.6 2.1
286(9) 0.01107 293.5 2.1
285(9) 0.01133 293.4 2.1
280(9) 0.01203 293.4 2.1
280(9) 0.01078 293.3 2.1
278(9) 0.01107 293.3 2.1
301(9) 0.01048 293.2 2.1
277(9) 0.01174 293.1 2.1
283(9) 0.01166 293.1 2.1
267(9) 0.01149 293.0 2.1
293(9) 0.01020 292.9 2.1
281(9) 0.01121 292.9 2.1
283(9) 0.01137 292.8 2.1
287(9) 0.01173 292.7 2.1
304(10) 0.01007 292.7 2.1
290(9) 0.01025 292.6 2.1
291(9) 0.01103 292.5 2.1
300(9) 0.01098 292.5 2.1
289(9) 0.01161 292.4 2.1
290(9) 0.01103 292.3 2.0
297(10) 0.00990 292.3 2.0
296(9) 0.01020 292.2 2.0
306(9) 0.01075 292.2 2.0
276(9) 0.01199 292.1 2.0
288(9) 0.01090 292.0 2.0
302(10) 0.01001 292.0 2.0
309(9) 0.01041 291.9 2.0
294(9) 0.01124 291.8 2.0
302(9) 0.01107 291.8 2.0
274(9) 0.01125 291.7 2.1
303(10) 0.00940 291.6 2.1
278(9) 0.01123 291.6 2.1
292(9) 0.01134 291.5 2.1
257(8) 0.01265 291.4 2.1
266(9) 0.01154 291.4 2.1
290(9) 0.01031 291.3 2.1
285(9) 0.01093 291.2 2.1
299(9) 0.01122 291.2 2.1
297(9) 0.01101 291.1 2.1
308(9) 0.01015 291.1 2.1
292(9) 0.01020 291.0 2.1
282(9) 0.01110 290.9 2.1
283(9) 0.01182 290.9 2.1
296(9) 0.01077 290.8 2.1
296(9) 0.01036 290.7 2.1
284(9) 0.01069 290.7 2.1
294(9) 0.01040 290.6 2.1
294(9) 0.01148 290.5 2.1
293(9) 0.01060 290.5 2.1
315(10) 0.00991 290.4 2.1
290(9) 0.01060 290.3 2.1
288(9) 0.01077 290.3 2.1
289(9) 0.01160 290.2 2.2
274(9) 0.01152 290.1 2.2
288(9) 0.01051 290.1 2.2
292(9) 0.01057 290.0 2.2
288(9) 0.01136 290.0 2.2
300(9) 0.01119 289.9 2.2
309(9) 0.01012 289.9 2.2
282(9) 0.01124 290.0 2.2
276(9) 0.01126 290.0 2.2
269(9) 0.01174 290.0 2.2
293(9) 0.01136 290.0 2.2
302(9) 0.01038 290.0 2.2
294(9) 0.01034 290.0 2.3
270(9) 0.01197 290.1 2.3
284(9) 0.01161 290.1 2.3
296(9) 0.01111 290.1 2.3
285(9) 0.01070 290.1 2.3
279(9) 0.01026 290.1 2.3
276(9) 0.01155 290.2 2.3
292(9) 0.01143 290.2 2.3
289(9) 0.01148 290.2 2.4
279(9) 0.01093 290.2 2.4
291(10) 0.00984 290.2 2.4
286(9) 0.01080 290.2 2.4
305(9) 0.01087 290.3 2.4
275(9) 0.01195 290.3 2.4
298(9) 0.01081 290.3 2.5
264(9) 0.01102 290.3 2.5
256(8) 0.01235 290.3 2.5
276(9) 0.01207 290.3 2.5
269(9) 0.01202 290.4 2.5
288(9) 0.01074 290.4 2.5
305(10) 0.00996 290.4 2.6
323(10) 0.00962 290.4 2.6
303(9) 0.01111 290.4 2.6
294(9) 0.01115 290.4 2.6
300(9) 0.01063 290.5 2.7
301(9) 0.01033 290.5 2.7
300(9) 0.01056 290.5 2.7
280(9) 0.01176 290.5 2.7
294(9) 0.01093 290.5 2.8
282(9) 0.01141 290.6 2.8
298(9) 0.01044 290.6 2.8
290(9) 0.01092 290.6 2.9
277(9) 0.01198 290.6 2.9
299(9) 0.01081 290.6 2.9
319(10) 0.00993 290.6 3.0
313(10) 0.00984 290.7 3.0
264(9) 0.01184 290.7 3.0
275(9) 0.01209 290.7 3.1
293(9) 0.01091 290.7 3.1
296(9) 0.01030 290.7 3.2
316(10) 0.00928 290.7 3.2
303(9) 0.01061 290.8 3.3
317(9) 0.01059 290.8 3.3
289(9) 0.01075 290.8 3.4
301(9) 0.01028 290.8 3.4
297(9) 0.01068 290.8 3.5
279(9) 0.01171 290.8 3.5
264(8) 0.01233 290.9 3.6
294(9) 0.01039 290.9 3.7
305(10) 0.00998 290.9 3.7
302(9) 0.01046 290.9 3.8
276(9) 0.01199 290.9 3.9
279(9) 0.01189 290.9 3.9
309(9) 0.01038 291.0 4.0
282(9) 0.01023 291.0 4.1
288(9) 0.01084 291.0 4.1
283(9) 0.01152 291.0 4.2
292(9) 0.01138 291.0 4.2
273(9) 0.01150 291.1 4.3
307(10) 0.00950 291.1 4.3
294(9) 0.01092 291.1 4.4
272(9) 0.01210 291.1 4.4
284(9) 0.01163 291.1 4.4
298(9) 0.01041 291.1 4.4
290(9) 0.01020 291.2 4.5
280(9) 0.01131 291.2 4.5
288(9) 0.01153 291.2 4.5
294(9) 0.01130 291.2 4.5
314(10) 0.01005 291.2 4.5
314(10) 0.01007 291.2 4.5
302(9) 0.01075 291.3 4.4
283(9) 0.01178 291.3 4.4
284(9) 0.01134 291.3 4.4
306(9) 0.01022 291.3 4.4
313(10) 0.00969 291.3 4.4
303(9) 0.01019 291.3 4.4
263(8) 0.01240 291.4 4.4
270(9) 0.01209 291.4 4.4
297(9) 0.01024 291.4 4.4
310(10) 0.00944 291.4 4.4
294(9) 0.01068 291.4 4.4
307(9) 0.01095 291.4 4.4
285(9) 0.01129 291.5 4.4
290(9) 0.01081 291.5 4.4
289(9) 0.01088 291.5 4.5
305(9) 0.01040 291.5 4.5
271(9) 0.01210 291.5 4.5
260(9) 0.01223 291.6 4.5
305(10) 0.00987 291.6 4.6
296(9) 0.01075 291.6 4.6
290(9) 0.01105 291.6 4.6
310(9) 0.01085 291.6 4.7
297(9) 0.01051 291.6 4.7
332(10) 0.00891 291.7 4.7
299(9) 0.01029 291.7 4.8
282(9) 0.01132 291.7 4.8
304(9) 0.01109 291.7 4.9
308(9) 0.01029 291.7 4.9
312(10) 0.00962 291.7 5.0
285(9) 0.01129 291.8 5.0
299(9) 0.01105 291.8 5.1
283(9) 0.01180 291.8 5.2
284(9) 0.01123 291.8 5.2
299(10) 0.00999 291.8 5.3
311(9) 0.01021 291.8 5.3
302(9) 0.01098 291.9 5.4
300(9) 0.01108 291.9 5.5
313(9) 0.01015 291.9 5.6
300(9) 0.01030 291.9 5.6
306(9) 0.01036 291.9 5.7
287(9) 0.01146 292.0 5.8
305(9) 0.01097 292.0 5.9
296(9) 0.01084 292.0 6.0
296(10) 0.00985 292.0 6.1
282(9) 0.01144 292.0 6.2
275(9) 0.01185 292.0 6.3
279(9) 0.01186 292.1 6.4
301(9) 0.01017 292.1 6.5
289(9) 0.01064 292.1 6.6
292(9) 0.01082 292.1 6.7
302(9) 0.01097 292.1 6.8
280(9) 0.01150 292.1 6.9
300(9) 0.01053 292.2 7.0
305(10) 0.01002 292.2 7.2
313(10) 0.01002 292.2 7.3
276(9) 0.01207 292.2 7.4
301(9) 0.01059 292.2 7.6
280(9) 0.01108 292.2 7.7
292(9) 0.01028 292.3 7.8
285(9) 0.01120 292.3 8.0
310(9) 0.01068 292.3 8.2
281(9) 0.01136 292.3 8.3
291(9) 0.01085 292.3 8.5
289(9) 0.01093 292.3 8.7
297(9) 0.01099 292.4 8.9
299(9) 0.01129 292.4 9.0
305(9) 0.01050 292.4 9.2
309(9) 0.01019 292.4 9.4
280(9) 0.01123 292.4 9.7
305(9) 0.01043 292.5 9.9
298(9) 0.01115 292.5 10.1
301(9) 0.01014 292.5 10.4
294(9) 0.01008 292.5 10.6
277(9) 0.01136 292.5 10.9
307(9) 0.01054 292.5 11.1
312(9) 0.01075 292.6 11.4
320(10) 0.00979 292.6 11.7
302(9) 0.01013 292.6 12.0
303(9) 0.01035 292.6 12.3
313(9) 0.01049 292.6 12.6
321(9) 0.01044 292.6 12.9
302(9) 0.01012 292.7 13.3
270(9) 0.01089 292.7 13.6
281(9) 0.01126 292.7 14.0
271(9) 0.01203 292.7 14.4
286(9) 0.01168 292.7 14.8
309(10) 0.01005 292.7 15.3
302(10) 0.01001 292.8 15.7
315(9) 0.01037 292.8 16.2
294(9) 0.01127 292.8 16.7
330(9) 0.01031 292.8 17.2
338(10) 0.00919 292.8 17.7
309(10) 0.00954 292.9 18.3
315(9) 0.01017 292.9 18.9
296(9) 0.01127 292.9 19.5
320(9) 0.01044 292.9 20.2
300(9) 0.01056 292.9 20.9
316(10) 0.00932 292.9 21.6
285(9) 0.01090 293.0 22.4
300(9) 0.01112 293.0 23.2
321(9) 0.01049 293.0 24.1
304(9) 0.01079 293.0 25.0
326(10) 0.00936 293.0 26.0
324(10) 0.00967 293.0 27.0
315(9) 0.01062 293.1 28.1
324(9) 0.01010 293.1 29.3
328(10) 0.00956 293.1 30.5
317(10) 0.00989 293.1 31.9
319(10) 0.00976 293.1 33.3
338(9) 0.01010 293.1 34.8
331(10) 0.00960 293.2 36.5
335(10) 0.00952 293.2 38.3
344(10) 0.00908 293.2 40.2
321(10) 0.00989 293.2 42.3
324(9) 0.01041 293.2 44.5
349(10) 0.00916 293.2 47.0
341(10) 0.00912 293.3 49.7
313(9) 0.01017 293.3 52.7
354(10) 0.00915 293.3 56.0
367(10) 0.00917 293.3 59.6
337(10) 0.00951 293.3 63.7
366(11) 0.00838 293.4 68.3
350(10) 0.00917 293.4 73.5
374(10) 0.00907 293.4 79.5
371(10) 0.00915 293.4 86.2
397(11) 0.00807 293.4 94.0
390(11) 0.00813 293.4 103.0
427(11) 0.00750 293.5 113.4
437(11) 0.00777 293.5 125.4
426(11) 0.00807 293.5 139.2
443(11) 0.00738 293.5 155.3
473(12) 0.00647 293.5 173.7
492(12) 0.00645 293.5 194.8
498(12) 0.00681 293.6 218.8
511(12) 0.00689 293.6 245.8
570(13) 0.00584 293.6 275.7
597(14) 0.00523 293.6 308.3
636(13) 0.00524 293.6 342.9
672(13) 0.00531 293.6 378.2
690(14) 0.00514 293.7 412.4
737(15) 0.00444 293.7 443.5
757(15) 0.00414 293.7 468.7
767(15) 0.00437 293.7 486.5
738(14) 0.00481 293.7 495.9
769(14) 0.00463 293.7 497.7
774(15) 0.00438 293.8 493.4
741(15) 0.00437 293.8 485.1
784(15) 0.00422 293.8 474.6
749(14) 0.00478 293.8 463.0
782(15) 0.00443 293.8 450.2
747(15) 0.00449 293.9 435.9
725(15) 0.00443 293.9 419.3
720(14) 0.00462 293.9 399.7
696(14) 0.00513 293.9 377.1
648(13) 0.00538 293.9 351.8
690(14) 0.00470 293.9 324.8
625(14) 0.00520 294.0 297.3
575(13) 0.00586 294.0 270.1
526(12) 0.00668 294.0 244.1
539(12) 0.00627 294.0 220.0
493(12) 0.00670 294.0 197.8
448(11) 0.00713 294.0 177.8
460(12) 0.00707 294.1 159.9
474(11) 0.00734 294.1 144.0
434(11) 0.00764 294.1 130.0
443(12) 0.00705 294.1 117.6
374(10) 0.00875 294.1 106.7
396(10) 0.00844 294.1 97.2
372(10) 0.00909 294.2 88.8
369(10) 0.00861 294.2 81.4
384(10) 0.00856 294.2 75.0
389(11) 0.00817 294.2 69.2
364(10) 0.00876 294.2 64.2
363(10) 0.00941 294.3 59.7
359(10) 0.00864 294.3 55.7
362(11) 0.00830 294.3 52.2
351(10) 0.00884 294.3 49.0
375(10) 0.00878 294.3 46.1
347(10) 0.00980 294.3 43.5
336(10) 0.00937 294.4 41.1
309(10) 0.00996 294.4 38.9
321(10) 0.00996 294.4 36.9
306(9) 0.01087 294.4 35.1
331(9) 0.01009 294.4 33.4
336(10) 0.00975 294.4 31.9
327(10) 0.00945 294.5 30.5
335(10) 0.00961 294.5 29.2
308(9) 0.01080 294.5 27.9
338(9) 0.01008 294.5 26.8
338(10) 0.00946 294.5 25.7
332(10) 0.00873 294.5 24.7
301(9) 0.01085 294.6 23.8
344(10) 0.00981 294.6 22.9
337(10) 0.00992 294.6 22.1
331(10) 0.00980 294.6 21.4
340(10) 0.00858 294.6 20.7
300(9) 0.01067 294.6 20.0
291(9) 0.01131 294.7 19.4
308(9) 0.01070 294.7 18.8
319(10) 0.00970 294.7 18.3
298(10) 0.01005 294.7 17.7
321(10) 0.00927 294.7 17.3
305(9) 0.01085 294.8 16.8
310(9) 0.01066 294.8 16.4
323(10) 0.00951 294.8 16.0
297(9) 0.01015 294.8 15.6
314(10) 0.00995 294.8 15.3
296(9) 0.01135 294.8 14.9
320(9) 0.01012 294.9 14.6
296(9) 0.01120 294.9 14.3
299(9) 0.01052 294.9 14.1
299(9) 0.01055 294.9 13.8
313(9) 0.01072 294.9 13.6
316(9) 0.01067 294.9 13.4
308(10) 0.01000 295.0 13.2
287(9) 0.01081 295.0 13.1
309(9) 0.01048 295.0 12.9
304(9) 0.01097 295.0 12.8
284(9) 0.01096 295.0 12.7
319(10) 0.00950 295.0 12.6
294(9) 0.01063 295.1 12.6
307(9) 0.01053 295.1 12.6
303(9) 0.01103 295.1 12.6
319(10) 0.00994 295.1 12.6
291(9) 0.01059 295.1 12.6
301(9) 0.01060 295.1 12.7
301(9) 0.01116 295.2 12.9
304(9) 0.01088 295.2 13.0
321(10) 0.00979 295.2 13.3
314(10) 0.00957 295.2 13.6
328(10) 0.00938 295.2 13.9
319(9) 0.01035 295.3 14.4
317(9) 0.01059 295.3 14.9
302(9) 0.01033 295.3 15.6
300(9) 0.01020 295.3 16.5
313(9) 0.01029 295.3 17.6
327(9) 0.01028 295.3 19.0
340(10) 0.00984 295.4 20.9
317(10) 0.00989 295.4 23.4
316(10) 0.00930 295.4 26.8
356(10) 0.00873 295.4 31.2
320(9) 0.01062 295.4 37.1
340(10) 0.00982 295.4 44.6
330(10) 0.00980 295.5 53.9
371(11) 0.00831 295.5 65.2
392(11) 0.00793 295.5 78.1
418(11) 0.00818 295.5 91.8
399(10) 0.00858 295.5 104.9
416(11) 0.00771 295.5 114.8
423(11) 0.00713 295.6 119.0
412(11) 0.00788 295.6 116.1
393(10) 0.00872 295.6 107.0
395(10) 0.00842 295.6 94.2
413(11) 0.00765 295.6 80.3
356(10) 0.00857 295.7 67.0
344(10) 0.00900 295.7 55.3
345(10) 0.00978 295.7 45.4
342(10) 0.00979 295.7 37.4
319(10) 0.00995 295.7 31.1
321(10) 0.00948 295.7 26.2
319(9) 0.01013 295.8 22.5
337(10) 0.01002 295.8 19.7
315(9) 0.01039 295.8 17.6
310(10) 0.00996 295.8 15.9
317(10) 0.00952 295.8 14.6
307(9) 0.01049 295.8 13.5
305(9) 0.01102 295.9 12.6
300(9) 0.01058 295.9 11.9
322(10) 0.00940 295.9 11.3
314(10) 0.00986 295.9 10.7
298(9) 0.01074 295.9 10.2
282(9) 0.01181 295.9 9.8
293(9) 0.01041 296.0 9.4
297(9) 0.01015 296.0 9.1
295(9) 0.01059 296.0 8.8
288(9) 0.01114 296.0 8.5
305(9) 0.01099 296.0 8.3
294(9) 0.01058 296.0 8.1
316(10) 0.00983 296.1 7.9
308(9) 0.01020 296.1 7.7
310(9) 0.01036 296.1 7.6
300(9) 0.01111 296.1 7.4
283(9) 0.01107 296.1 7.3
277(9) 0.01106 296.2 7.2
310(9) 0.01035 296.2 7.0
307(9) 0.01085 296.2 6.9
317(9) 0.01056 296.2 6.8
304(9) 0.01019 296.2 6.8
286(9) 0.01033 296.2 6.7
312(10) 0.01000 296.3 6.6
300(9) 0.01111 296.3 6.5
325(9) 0.01042 296.3 6.5
324(10) 0.00991 296.3 6.4
303(10) 0.00986 296.3 6.4
313(9) 0.01012 296.3 6.3
317(9) 0.01063 296.4 6.3
293(9) 0.01125 296.4 6.2
301(9) 0.01037 296.4 6.2
290(9) 0.01054 296.4 6.2
318(10) 0.00995 296.4 6.1
309(9) 0.01091 296.4 6.1
329(10) 0.01005 296.5 6.1
341(10) 0.00911 296.5 6.1
302(10) 0.00995 296.5 6.0
310(9) 0.01012 296.5 6.0
307(9) 0.01088 296.5 6.0
311(9) 0.01073 296.5 6.0
326(10) 0.00974 296.6 6.0
332(10) 0.00928 296.6 6.0
300(9) 0.01068 296.6 6.0
291(9) 0.01139 296.6 6.0
287(9) 0.01119 296.6 6.0
293(9) 0.01077 296.7 6.0
313(10) 0.00994 296.7 6.0
294(9) 0.01082 296.7 6.0
278(9) 0.01197 296.7 6.0
327(10) 0.00957 296.7 6.0
318(10) 0.00973 296.7 6.0
315(10) 0.00970 296.8 6.1
305(9) 0.01063 296.8 6.1
323(9) 0.01043 296.8 6.1
287(9) 0.01110 296.8 6.1
296(9) 0.01032 296.8 6.1
319(10) 0.00993 296.8 6.2
295(9) 0.01116 296.9 6.2
291(9) 0.01137 296.9 6.2
316(10) 0.00989 296.9 6.3
316(10) 0.00968 296.9 6.3
304(9) 0.01060 296.9 6.3
323(9) 0.01022 296.9 6.4
292(9) 0.01140 297.0 6.4
306(9) 0.01069 297.0 6.4
306(10) 0.01007 297.0 6.5
273(9) 0.01150 297.0 6.5
306(9) 0.01075 297.0 6.6
322(9) 0.01042 297.1 6.6
270(9) 0.01190 297.1 6.7
308(10) 0.00946 297.1 6.8
304(9) 0.01012 297.1 6.8
289(9) 0.01163 297.1 6.9
309(9) 0.01084 297.1 6.9
313(9) 0.01035 297.2 7.0
305(10) 0.00960 297.2 7.1
295(9) 0.01097 297.2 7.1
312(9) 0.01079 297.2 7.2
297(9) 0.01120 297.2 7.3
292(9) 0.01090 297.2 7.4
289(9) 0.01041 297.2 7.4
286(9) 0.01109 297.2 7.5
319(9) 0.01045 297.2 7.6
302(9) 0.01094 297.2 7.7
305(9) 0.01032 297.2 7.8
315(10) 0.00971 297.2 7.9
300(9) 0.01022 297.2 8.0
307(9) 0.01085 297.2 8.1
289(9) 0.01144 297.2 8.2
280(9) 0.01146 297.2 8.3
325(10) 0.00896 297.2 8.4
314(9) 0.01019 297.2 8.5
324(9) 0.01032 297.2 8.6
300(9) 0.01089 297.2 8.7
294(9) 0.01048 297.2 8.9
292(9) 0.01047 297.2 9.0
326(10) 0.00985 297.2 9.1
315(9) 0.01061 297.2 9.2
308(9) 0.01047 297.2 9.3
284(9) 0.01121 297.2 9.5
306(9) 0.01032 297.2 9.6
301(9) 0.01065 297.2 9.7
295(9) 0.01121 297.2 9.9
312(9) 0.01021 297.2 10.0
310(10) 0.00960 297.2 10.1
319(10) 0.00980 297.2 10.2
326(10) 0.00990 297.2 10.4
317(9) 0.01049 297.2 10.5
300(9) 0.01025 297.2 10.7
321(10) 0.00937 297.2 10.8
321(9) 0.01011 297.2 10.9
338(10) 0.00983 297.2 11.1
290(9) 0.01152 297.2 11.2
306(10) 0.00984 297.2 11.3
335(10) 0.00876 297.2 11.4
315(10) 0.00976 297.2 11.6
308(9) 0.01072 297.2 11.7
330(9) 0.01013 297.2 11.8
302(9) 0.01049 297.2 12.0
302(9) 0.01014 297.2 12.1
318(9) 0.01017 297.2 12.2
324(9) 0.01036 297.2 12.4
309(9) 0.01085 297.2 12.5
305(9) 0.01054 297.2 12.6
318(10) 0.00931 297.2 12.8
312(9) 0.01034 297.2 12.9
322(9) 0.01044 297.1 13.0
315(9) 0.01068 297.1 13.2
306(9) 0.01049 297.1 13.3
319(10) 0.00940 297.1 13.5
314(9) 0.01011 297.1 13.7
295(9) 0.01124 297.1 13.8
300(9) 0.01109 297.1 14.0
314(10) 0.00987 297.1 14.2
314(10) 0.00948 297.1 14.4
326(10) 0.00973 297.1 14.6
326(9) 0.01027 297.1 14.8
303(9) 0.01106 297.1 15.1
297(9) 0.01065 297.1 15.3
305(9) 0.01023 297.1 15.6
339(10) 0.00913 297.1 15.9
308(9) 0.01084 297.1 16.2
321(9) 0.01037 297.1 16.5
301(9) 0.01050 297.1 16.8
332(10) 0.00925 297.1 17.2
323(9) 0.01013 297.1 17.6
300(9) 0.01112 297.1 18.0
282(9) 0.01167 297.1 18.5
316(10) 0.00996 297.1 19.0
294(9) 0.01099 297.1 19.6
350(10) 0.00897 297.1 20.2
316(9) 0.01066 297.1 20.8
336(10) 0.00971 297.1 21.5
331(10) 0.00925 297.1 22.3
322(10) 0.00976 297.1 23.2
303(9) 0.01089 297.1 24.1
314(9) 0.01074 297.1 25.1
330(10) 0.00976 297.1 26.2
339(10) 0.00941 297.1 27.5
333(10) 0.00970 297.1 28.8
318(9) 0.01026 297.1 30.4
315(9) 0.01072 297.1 32.1
333(10) 0.00982 297.1 34.0
350(10) 0.00885 297.1 36.2
333(10) 0.00977 297.1 38.7
345(10) 0.00968 297.1 41.6
355(10) 0.00963 297.1 45.0
359(10) 0.00889 297.1 49.2
351(10) 0.00912 297.1 54.3
397(11) 0.00802 297.1 61.0
378(10) 0.00890 297.1 69.8
380(10) 0.00903 297.1 81.9
425(11) 0.00748 297.0 98.5
418(11) 0.00739 297.0 121.1
449(11) 0.00728 297.0 151.0
500(12) 0.00685 297.0 189.2
513(12) 0.00664 297.0 235.4
576(13) 0.00577 297.0 288.0
686(15) 0.00436 297.0 342.0
702(14) 0.00467 297.0 388.1
746(14) 0.00482 297.0 414.3
775(15) 0.00453 297.0 411.5
716(14) 0.00471 297.0 381.5
676(14) 0.00465 297.0 334.9
617(13) 0.00539 297.0 283.7
547(12) 0.00638 297.0 235.4
542(12) 0.00634 297.0 194.1
524(12) 0.00634 297.0 161.0
510(12) 0.00619 297.0 135.8
476(12) 0.00699 297.0 117.3
460(11) 0.00749 297.0 104.2
416(11) 0.00802 297.0 95.0
443(11) 0.00742 297.0 88.6
427(11) 0.00745 297.0 83.9
414(11) 0.00768 297.0 80.5
391(10) 0.00873 297.0 77.9
418(11) 0.00792 297.0 75.8
392(11) 0.00828 297.0 74.1
398(11) 0.00797 297.0 72.8
384(10) 0.00843 297.0 71.7
377(10) 0.00908 297.0 70.9
371(10) 0.00871 297.0 70.4
370(10) 0.00844 297.0 70.1
341(10) 0.00951 297.0 70.0
393(11) 0.00838 297.0 70.1
364(10) 0.00936 297.0 70.4
375(10) 0.00862 297.0 70.8
400(11) 0.00765 297.0 71.4
399(11) 0.00781 297.0 72.2
359(10) 0.00926 297.0 73.0
385(10) 0.00895 297.0 74.0
383(11) 0.00827 297.0 74.9
384(11) 0.00807 297.0 75.9
392(11) 0.00815 297.0 76.9
390(10) 0.00855 297.0 77.8
399(10) 0.00850 297.0 78.6
364(10) 0.00875 297.0 79.3
374(11) 0.00815 297.0 79.7
410(11) 0.00762 296.9 80.0
390(10) 0.00882 296.9 80.0
382(10) 0.00890 296.9 79.7
392(11) 0.00820 296.9 79.2
380(11) 0.00786 296.9 78.4
394(11) 0.00807 296.9 77.3
351(10) 0.00962 296.9 76.1
372(10) 0.00916 296.9 74.6
351(10) 0.00913 296.9 73.0
358(11) 0.00813 296.9 71.2
369(10) 0.00876 296.9 69.4
400(10) 0.00869 296.9 67.6
370(10) 0.00910 296.9 65.7
342(10) 0.00941 296.9 63.9
348(10) 0.00876 296.9 62.2
356(10) 0.00890 296.9 60.4
345(10) 0.00981 296.9 58.7
321(9) 0.01032 296.9 57.0
355(10) 0.00879 296.9 55.2
352(10) 0.00868 296.9 53.2
340(10) 0.00941 296.9 51.2
359(10) 0.00945 296.9 49.2
352(10) 0.00938 296.9 47.2
315(9) 0.01046 296.9 45.4
351(10) 0.00895 296.9 43.7
335(10) 0.00959 296.9 42.1
328(9) 0.01035 296.9 40.7
356(10) 0.00896 296.9 39.4
340(10) 0.00937 296.9 38.2
344(10) 0.00908 296.9 37.2
319(9) 0.01011 296.9 36.3
330(9) 0.01032 296.9 35.4
293(9) 0.01079 296.9 34.6
314(10) 0.00999 296.9 33.9
332(10) 0.00960 296.9 33.3
348(10) 0.00915 296.9 32.8
331(9) 0.01023 296.9 32.3
329(10) 0.00961 296.9 31.9
330(10) 0.00985 296.9 31.5
349(10) 0.00916 296.9 31.2
314(9) 0.01066 296.9 31.0
316(9) 0.01057 296.9 30.8
325(10) 0.00911 296.9 30.7
329(10) 0.00935 296.9 30.6
342(10) 0.00918 296.9 30.5
342(10) 0.00958 296.9 30.5
329(9) 0.01022 296.8 30.6
340(10) 0.00939 296.8 30.6
311(10) 0.00990 296.8 30.8
355(10) 0.00904 296.8 30.9
330(9) 0.01023 296.8 31.2
310(9) 0.01076 296.8 31.4
310(10) 0.01005 296.8 31.7
304(10) 0.00951 296.8 32.1
321(10) 0.00980 296.8 32.5
330(9) 0.01015 296.8 33.0
338(10) 0.00998 296.8 33.5
341(10) 0.00903 296.8 34.0
326(10) 0.00900 296.8 34.6
306(9) 0.01048 296.8 35.3
361(10) 0.00932 296.8 36.0
338(10) 0.00978 296.8 36.8
342(10) 0.00899 296.8 37.7
311(10) 0.00998 296.8 38.7
338(10) 0.00932 296.8 39.7
370(10) 0.00928 296.8 40.8
339(10) 0.00983 296.8 42.0
336(10) 0.00940 296.8 43.4
335(10) 0.00899 296.8 44.8
352(10) 0.00909 296.8 46.3
352(10) 0.00964 296.8 48.0
369(10) 0.00891 296.8 49.9
343(10) 0.00938 296.8 51.8
381(11) 0.00791 296.8 54.0
390(11) 0.00789 296.8 56.3
356(10) 0.00956 296.8 58.9
402(11) 0.00827 296.8 61.6
375(10) 0.00853 296.8 64.6
372(10) 0.00839 296.8 67.9
380(11) 0.00826 296.8 71.4
388(10) 0.00881 296.8 75.1
387(10) 0.00863 296.8 79.2
376(11) 0.00838 296.8 83.6
405(11) 0.00778 296.8 88.2
416(11) 0.00783 296.8 93.1
397(10) 0.00869 296.8 98.4
405(11) 0.00801 296.8 103.9
403(11) 0.00774 296.8 109.6
412(11) 0.00784 296.8 115.4
436(11) 0.00782 296.8 121.3
432(11) 0.00796 296.8 127.2
459(12) 0.00693 296.8 132.9
455(12) 0.00700 296.7 138.3
468(12) 0.00694 296.7 143.1
457(11) 0.00726 296.7 147.3
471(11) 0.00733 296.7 150.8
464(12) 0.00690 296.7 153.4
459(12) 0.00672 296.7 155.1
453(11) 0.00725 296.7 155.9
475(11) 0.00727 296.7 156.0
459(11) 0.00735 296.7 155.5
465(11) 0.00712 296.7 154.6
491(12) 0.00615 296.7 153.5
444(11) 0.00731 296.7 152.5
465(11) 0.00740 296.7 151.8
430(11) 0.00795 296.7 151.6
442(11) 0.00738 296.7 152.1
459(12) 0.00638 296.7 153.6
444(11) 0.00728 296.7 156.1
482(11) 0.00722 296.7 159.9
492(12) 0.00700 296.7 165.1
452(11) 0.00711 296.7 171.8
472(12) 0.00651 296.7 180.1
447(11) 0.00734 296.7 190.1
494(12) 0.00706 296.7 201.6
454(11) 0.00750 296.7 214.4
498(12) 0.00649 296.7 228.1
524(13) 0.00590 296.7 241.8
555(13) 0.00588 296.7 254.4
568(12) 0.00618 296.7 264.7
535(12) 0.00626 296.7 271.5
546(12) 0.00607 296.7 274.0
516(12) 0.00628 296.7 272.4
536(13) 0.00599 296.7 267.6
515(12) 0.00676 296.7 260.7
569(13) 0.00597 296.7 253.1
512(12) 0.00641 296.7 245.8
506(12) 0.00632 296.7 239.6
534(12) 0.00609 296.7 235.0
541(12) 0.00651 296.7 232.1
520(12) 0.00647 296.7 231.1
522(12) 0.00627 296.7 231.9
576(13) 0.00560 296.7 234.4
545(12) 0.00611 296.7 238.4
569(12) 0.00618 296.7 243.8
574(13) 0.00580 296.7 250.4
549(13) 0.00599 296.7 258.0
579(13) 0.00559 296.7 266.3
626(13) 0.00537 296.7 274.9
615(13) 0.00573 296.6 283.7
621(13) 0.00538 296.6 292.2
620(14) 0.00519 296.6 300.2
604(13) 0.00548 296.6 307.1
636(13) 0.00542 296.6 312.8
639(13) 0.00552 296.6 316.8
608(13) 0.00528 296.6 318.9
640(14) 0.00485 296.6 319.1
586(13) 0.00582 296.6 317.1
570(12) 0.00610 296.6 313.1
561(12) 0.00631 296.6 307.2
572(13) 0.00579 296.6 299.5
538(13) 0.00585 296.6 290.4
558(13) 0.00587 296.6 280.1
531(12) 0.00654 296.6 268.8
577(12) 0.00607 296.6 257.0
525(12) 0.00640 296.6 244.7
493(12) 0.00630 296.6 232.2
471(12) 0.00685 296.6 219.6
484(11) 0.00717 296.6 207.3
477(11) 0.00725 296.6 195.3
466(12) 0.00708 296.6 183.8
442(12) 0.00696 296.6 172.8
464(12) 0.00704 296.6 162.4
451(11) 0.00775 296.6 152.6
424(11) 0.00804 296.6 143.4
427(11) 0.00752 296.6 134.9
430(12) 0.00701 296.6 126.9
401(11) 0.00818 296.6 119.4
414(11) 0.00831 296.6 112.5
413(11) 0.00831 296.6 106.1
408(11) 0.00794 296.6 100.2
389(11) 0.00796 296.6 94.7
394(11) 0.00804 296.6 89.6
408(10) 0.00843 296.6 84.9
399(10) 0.00847 296.6 80.6
412(11) 0.00788 296.6 76.6
372(10) 0.00851 296.6 72.8
391(11) 0.00805 296.6 69.4
407(11) 0.00838 296.6 66.2
373(10) 0.00883 296.6 63.2
376(11) 0.00838 296.6 60.5
376(10) 0.00860 296.6 57.9
349(10) 0.00956 296.6 55.5
398(10) 0.00855 296.6 53.3
368(10) 0.00902 296.6 51.3
372(10) 0.00839 296.5 49.4
332(10) 0.00932 296.5 47.6
334(10) 0.00960 296.5 45.9
351(10) 0.00959 296.5 44.3
369(10) 0.00851 296.5 42.9
344(10) 0.00915 296.5 41.5
367(10) 0.00867 296.5 40.2
364(10) 0.00899 296.5 39.0
309(9) 0.01083 296.5 37.8
350(10) 0.00904 296.5 36.8
336(10) 0.00933 296.5 35.7
324(10) 0.00985 296.5 34.8
336(10) 0.00966 296.5 33.8
322(9) 0.01046 296.5 33.0
342(10) 0.00928 296.5 32.1
320(10) 0.00981 296.5 31.3
351(10) 0.00907 296.5 30.6
358(10) 0.00937 296.5 29.8
363(10) 0.00942 296.5 29.1
339(10) 0.00974 296.5 28.5
333(10) 0.00896 296.5 27.8
324(10) 0.00992 296.5 27.2
367(10) 0.00917 296.5 26.6
336(10) 0.00974 296.5 26.0
321(10) 0.00989 296.5 25.5
300(10) 0.00996 296.5 24.9
329(10) 0.00935 296.5 24.4
334(10) 0.00998 296.5 23.9
322(9) 0.01040 296.5 23.4
346(10) 0.00930 296.5 22.9
351(10) 0.00855 296.5 22.5
314(9) 0.01033 296.5 22.0
316(9) 0.01063 296.5 21.6
327(9) 0.01013 296.5 21.2
319(10) 0.00966 296.5 20.8
297(10) 0.00974 296.5 20.5
328(10) 0.00949 296.5 20.1
313(9) 0.01062 296.5 19.8
326(9) 0.01010 296.5 19.4
334(10) 0.00929 296.5 19.1
305(10) 0.00999 296.5 18.9
331(10) 0.00937 296.5 18.6
325(9) 0.01048 296.5 18.3
323(9) 0.01016 296.5 18.1
315(10) 0.01008 296.5 17.9
305(9) 0.01032 296.5 17.7
346(10) 0.00923 296.4 17.5
338(10) 0.01005 296.4 17.4
320(10) 0.00992 296.4 17.2
333(10) 0.00899 296.4 17.1
316(10) 0.01006 296.4 17.0
339(10) 0.00976 296.4 16.9
354(10) 0.00961 296.4 16.9
306(9) 0.01062 296.4 16.9
335(10) 0.00929 296.4 16.9
305(9) 0.01029 296.4 16.9
321(10) 0.00998 296.4 17.0
338(10) 0.00999 296.4 17.1
320(10) 0.01006 296.4 17.3
323(10) 0.00951 296.4 17.5
305(9) 0.01027 296.4 17.7
354(10) 0.00939 296.4 18.0
310(9) 0.01084 296.4 18.4
324(10) 0.00961 296.4 18.8
326(10) 0.00933 296.4 19.3
307(9) 0.01023 296.4 19.8
307(9) 0.01071 296.4 20.5
302(9) 0.01111 296.4 21.2
299(9) 0.01081 296.4 22.0
312(10) 0.00933 296.4 22.8
323(10) 0.00995 296.4 23.8
322(9) 0.01029 296.4 24.9
311(9) 0.01091 296.4 26.0
319(9) 0.01013 296.4 27.2
323(10) 0.00943 296.4 28.5
324(10) 0.01000 296.4 29.9
322(9) 0.01031 296.4 31.2
346(10) 0.00966 296.4 32.6
344(10) 0.00936 296.4 33.8
332(10) 0.00899 296.4 34.9
345(10) 0.00933 296.4 35.9
365(10) 0.00932 296.4 36.6
334(9) 0.01019 296.4 37.0
349(10) 0.00905 296.4 37.0
343(10) 0.00897 296.4 36.7
332(10) 0.00968 296.4 36.1
343(10) 0.00991 296.4 35.2
333(10) 0.00996 296.4 34.1
341(10) 0.00932 296.4 32.7
342(10) 0.00906 296.4 31.3
346(10) 0.00931 296.4 29.7
346(10) 0.00981 296.4 28.2
354(10) 0.00944 296.3 26.7
328(10) 0.00954 296.3 25.2
352(10) 0.00853 296.3 23.8
319(10) 0.00999 296.3 22.4
346(10) 0.00980 296.3 21.2
315(9) 0.01043 296.3 20.0
322(10) 0.01001 296.3 18.9
348(10) 0.00901 296.3 17.9
329(10) 0.00995 296.3 17.0
314(9) 0.01068 296.3 16.2
312(9) 0.01020 296.3 15.4
322(10) 0.00959 296.3 14.7
311(10) 0.00981 296.3 14.1
321(10) 0.01004 296.3 13.5
310(9) 0.01074 296.3 13.0
321(10) 0.00945 296.3 12.5
295(9) 0.01051 296.3 12.1
329(10) 0.00979 296.3 11.7
321(9) 0.01014 296.3 11.3
313(9) 0.01078 296.3 11.0
298(9) 0.01016 296.3 10.7
311(10) 0.00933 296.3 10.4
318(10) 0.00990 296.3 10.1
311(9) 0.01077 296.3 9.9
310(9) 0.01081 296.3 9.7
313(9) 0.01012 296.3 9.5
307(10) 0.00957 296.3 9.3
288(9) 0.01146 296.3 9.1
325(9) 0.01038 296.3 9.0
307(9) 0.01081 296.3 8.9
311(9) 0.01018 296.3 8.7
307(10) 0.00948 296.3 8.6
293(9) 0.01097 296.3 8.5
302(9) 0.01088 296.3 8.4
335(10) 0.00998 296.3 8.3
331(10) 0.00968 296.3 8.3
329(10) 0.00899 296.3 8.2
297(9) 0.01060 296.3 8.1
312(9) 0.01073 296.3 8.1
308(9) 0.01077 296.3 8.1
307(9) 0.01030 296.3 8.0
318(10) 0.00966 296.3 8.0
301(9) 0.01097 296.3 8.0
317(9) 0.01064 296.3 8.0
305(9) 0.01100 296.3 8.0
321(10) 0.00992 296.3 8.1
285(9) 0.01093 296.2 8.1
309(10) 0.01003 296.2 8.2
299(9) 0.01119 296.2 8.2
300(9) 0.01084 296.2 8.3
302(9) 0.01063 296.2 8.4
302(10) 0.01006 296.2 8.6
297(9) 0.01039 296.2 8.7
314(9) 0.01066 296.2 8.9
291(9) 0.01079 296.2 9.0
309(10) 0.00991 296.2 9.3
281(9) 0.01104 296.2 9.5
308(9) 0.01025 296.2 9.8
287(9) 0.01158 296.2 10.1
318(9) 0.01012 296.2 10.4
327(10) 0.00954 296.2 10.7
294(9) 0.01098 296.2 11.1
327(10) 0.00982 296.2 11.6
293(9) 0.01121 296.2 12.0
298(9) 0.01048 296.2 12.5
312(10) 0.00959 296.2 13.0
290(9) 0.01079 296.2 13.5
307(9) 0.01057 296.2 14.1
306(9) 0.01102 296.2 14.6
275(9) 0.01144 296.2 15.2
296(10) 0.01006 296.2 15.7
304(9) 0.01045 296.2 16.1
325(9) 0.01022 296.2 16.5
314(9) 0.01064 296.2 16.7
298(9) 0.01042 296.2 16.9
319(10) 0.00918 296.2 16.9
304(9) 0.01048 296.2 16.9
310(9) 0.01069 296.2 16.6
318(9) 0.01061 296.2 16.3
337(10) 0.00961 296.2 15.9
317(10) 0.00982 296.2 15.4
330(10) 0.00964 296.2 14.9
310(9) 0.01081 296.2 14.3
305(9) 0.01095 296.2 13.7
314(9) 0.01009 296.2 13.1
299(10) 0.00975 296.2 12.5
327(10) 0.00955 296.2 11.9
279(9) 0.01174 296.2 11.4
297(9) 0.01127 296.2 10.9
297(9) 0.01058 296.2 10.4
311(10) 0.00910 296.2 9.9
280(9) 0.01120 296.2 9.5
290(9) 0.01155 296.1 9.1
299(9) 0.01114 296.1 8.8
315(9) 0.01014 296.1 8.4
287(9) 0.01072 296.1 8.1
307(9) 0.01008 296.1 7.9
309(9) 0.01087 296.1 7.6
298(9) 0.01112 296.1 7.4
288(9) 0.01073 296.1 7.2
323(10) 0.00943 296.1 7.0
304(9) 0.01031 296.1 6.8
303(9) 0.01107 296.1 6.6
317(9) 0.01050 296.1 6.5
287(9) 0.01105 296.1 6.3
286(9) 0.01085 296.1 6.2
303(9) 0.01057 296.1 6.1
284(9) 0.01171 296.1 6.0
299(9) 0.01059 296.1 5.9
301(9) 0.01037 296.1 5.8
325(10) 0.00959 296.1 5.7
335(10) 0.00987 296.1 5.6
309(9) 0.01086 296.1 5.6
310(10) 0.00996 296.1 5.5
316(10) 0.00971 296.1 5.5
298(9) 0.01034 296.1 5.4
304(9) 0.01040 296.1 5.4
294(9) 0.01144 296.1 5.3
304(10) 0.01003 296.1 5.3
306(10) 0.00962 296.1 5.2
302(9) 0.01011 296.1 5.2
290(9) 0.01156 296.1 5.2
306(9) 0.01094 296.1 5.1
303(9) 0.01051 296.1 5.1
310(10) 0.00967 296.1 5.1
280(9) 0.01149 296.1 5.1
304(9) 0.01082 296.1 5.0
276(9) 0.01212 296.1 5.0
294(9) 0.01084 296.1 5.0
293(10) 0.00990 296.1 5.0
289(9) 0.01113 296.1 5.0
319(9) 0.01051 296.1 5.0
283(9) 0.01180 296.1 4.9
306(9) 0.01047 296.1 4.9
298(10) 0.00979 296.1 4.9
291(9) 0.01049 296.1 4.9
304(9) 0.01107 296.1 4.9
300(9) 0.01108 296.1 4.9
317(9) 0.01016 296.0 4.9
309(10) 0.00970 296.0 4.9
299(9) 0.01079 296.0 4.9
312(9) 0.01054 296.0 4.9
299(9) 0.01093 296.0 4.9
309(9) 0.01024 296.0 5.0
311(10) 0.00970 296.0 5.0
310(10) 0.00983 296.0 5.0
281(9) 0.01188 296.0 5.0
270(9) 0.01222 296.0 5.0
289(9) 0.01086 296.0 5.0
313(10) 0.00988 296.0 5.0
304(9) 0.01037 295.9 5.0
287(9) 0.01151 295.9 5.1
270(9) 0.01187 295.9 5.1
311(10) 0.00971 295.9 5.1
300(9) 0.01027 295.8 5.1
339(10) 0.00924 295.8 5.2
315(9) 0.01077 295.8 5.2
294(9) 0.01075 295.7 5.2
297(9) 0.01049 295.7 5.2
297(9) 0.01046 295.7 5.3
286(9) 0.01151 295.6 5.3
300(9) 0.01113 295.6 5.3
305(9) 0.01055 295.6 5.4
322(10) 0.00951 295.6 5.4
313(10) 0.01003 295.5 5.4
324(10) 0.01000 295.5 5.5
292(9) 0.01132 295.5 5.5
303(9) 0.01026 295.4 5.6
307(10) 0.00971 295.4 5.6
294(9) 0.01057 295.4 5.7
308(9) 0.01052 295.4 5.7
300(9) 0.01114 295.3 5.8
303(9) 0.01012 295.3 5.8
295(9) 0.01025 295.3 5.9
312(9) 0.01018 295.2 6.0
294(9) 0.01128 295.2 6.0
304(9) 0.01099 295.2 6.1
286(9) 0.01097 295.2 6.2
316(10) 0.00930 295.1 6.2
304(9) 0.01030 295.1 6.3
306(9) 0.01091 295.1 6.4
287(9) 0.01141 295.0 6.5
305(9) 0.01036 295.0 6.6
312(10) 0.00961 295.0 6.6
307(9) 0.01064 295.0 6.7
306(9) 0.01100 294.9 6.8
315(9) 0.01036 294.9 6.9
279(9) 0.01124 294.9 7.0
296(10) 0.00965 294.8 7.1
277(9) 0.01139 294.8 7.3
316(9) 0.01055 294.8 7.4
313(9) 0.01058 294.7 7.5
323(10) 0.00984 294.7 7.6
301(9) 0.01048 294.7 7.8
317(10) 0.00972 294.7 7.9
302(9) 0.01108 294.6 8.1
303(9) 0.01088 294.6 8.2
330(10) 0.00966 294.6 8.4
300(9) 0.01044 294.5 8.6
295(9) 0.01059 294.5 8.7
313(9) 0.01070 294.5 8.9
304(9) 0.01067 294.5 9.1
310(10) 0.01001 294.4 9.3
317(10) 0.00956 294.4 9.6
318(10) 0.00997 294.4 9.8
292(9) 0.01139 294.3 10.1
303(9) 0.01075 294.3 10.3
315(10) 0.00982 294.3 10.6
295(9) 0.01039 294.3 10.9
307(10) 0.01006 294.2 11.2
307(9) 0.01098 294.2 11.5
310(9) 0.01053 294.2 11.9
308(10) 0.01007 294.1 12.2
301(9) 0.01029 294.1 12.6
315(9) 0.01036 294.1 13.0
318(9) 0.01060 294.0 13.5
305(9) 0.01053 294.0 14.0
326(10) 0.00957 294.0 14.5
314(9) 0.01022 294.0 15.0
312(9) 0.01035 293.9 15.6
295(9) 0.01134 293.9 16.2
333(10) 0.00945 293.9 16.9
327(10) 0.00923 293.8 17.7
350(10) 0.00912 293.8 18.5
307(9) 0.01082 293.8 19.3
307(9) 0.01087 293.8 20.3
315(10) 0.00974 293.7 21.3
331(10) 0.00904 293.7 22.4
330(10) 0.00965 293.7 23.6
341(10) 0.00974 293.6 24.9
322(9) 0.01044 293.6 26.4
348(10) 0.00928 293.6 27.9
335(10) 0.00911 293.6 29.6
311(9) 0.01048 293.5 31.5
322(9) 0.01033 293.5 33.5
337(10) 0.01001 293.5 35.6
315(9) 0.01039 293.4 38.0
353(11) 0.00827 293.4 40.5
341(10) 0.00949 293.4 43.1
331(9) 0.01016 293.4 46.0
339(10) 0.00954 293.3 49.0
327(10) 0.00983 293.3 52.1
368(11) 0.00797 293.3 55.2
343(10) 0.00929 293.2 58.4
357(10) 0.00959 293.2 61.6
349(10) 0.00942 293.2 64.5
401(11) 0.00762 293.1 67.2
355(10) 0.00852 293.1 69.4
336(10) 0.00932 293.1 71.2
356(10) 0.00946 293.1 72.4
357(10) 0.00960 293.0 72.9
327(10) 0.01007 293.0 72.7
365(10) 0.00841 293.0 71.9
356(10) 0.00890 292.9 70.5
348(10) 0.00962 292.9 68.6
372(10) 0.00888 292.9 66.4
359(10) 0.00866 292.9 64.0
363(10) 0.00863 292.8 61.4
356(10) 0.00882 292.8 58.8
348(10) 0.00972 292.8 56.1
341(10) 0.00947 292.7 53.6
356(10) 0.00918 292.7 51.1
379(11) 0.00831 292.7 48.7
347(10) 0.00963 292.7 46.5
360(10) 0.00927 292.6 44.4
367(10) 0.00874 292.6 42.5
348(10) 0.00898 292.6 40.7
355(10) 0.00882 292.5 39.0
342(10) 0.00963 292.5 37.5
350(10) 0.00959 292.5 36.1
351(10) 0.00917 292.5 34.9
383(11) 0.00765 292.4 33.7
351(10) 0.00914 292.4 32.7
327(9) 0.01021 292.4 31.7
339(10) 0.00984 292.3 30.9
358(10) 0.00887 292.3 30.1
352(10) 0.00852 292.3 29.4
335(10) 0.00962 292.2 28.8
325(9) 0.01019 292.2 28.3
297(9) 0.01134 292.2 27.8
329(10) 0.00953 292.2 27.4
330(10) 0.00895 292.1 27.1
315(10) 0.00996 292.1 26.8
316(9) 0.01039 292.1 26.6
329(9) 0.01025 292.0 26.4
345(10) 0.00896 292.0 26.3
329(10) 0.00887 292.0 26.2
334(10) 0.00941 292.0 26.1
304(9) 0.01102 291.9 26.1
320(9) 0.01042 291.9 26.1
335(10) 0.00915 291.9 26.1
330(10) 0.00916 291.8 26.2
331(10) 0.00946 291.8 26.3
303(9) 0.01108 291.8 26.4
314(9) 0.01040 291.8 26.6
348(10) 0.00889 291.7 26.8
323(10) 0.00966 291.7 27.0
335(10) 0.00953 291.7 27.2
330(9) 0.01019 291.6 27.5
306(9) 0.01099 291.6 27.7
309(9) 0.01023 291.6 28.1
316(10) 0.00938 291.6 28.4
326(10) 0.00937 291.5 28.8
333(9) 0.01014 291.5 29.2
337(10) 0.00963 291.5 29.7
355(10) 0.00875 291.4 30.3
327(10) 0.00927 291.4 30.9
310(10) 0.01001 291.4 31.7
317(9) 0.01061 291.3 32.5
311(9) 0.01056 291.3 33.6
340(10) 0.00927 291.3 34.8
356(10) 0.00882 291.3 36.3
337(10) 0.00982 291.2 38.0
335(9) 0.01013 291.2 40.1
354(10) 0.00917 291.2 42.5
361(10) 0.00864 291.1 45.3
373(10) 0.00848 291.1 48.4
378(10) 0.00902 291.1 51.8
363(10) 0.00929 291.1 55.5
376(10) 0.00851 291.0 59.3
388(11) 0.00811 291.0 62.8
409(11) 0.00784 291.0 65.6
403(10) 0.00844 290.9 67.5
406(10) 0.00843 290.9 67.9
383(11) 0.00818 290.9 67.0
361(11) 0.00807 290.9 64.9
361(10) 0.00894 290.8 62.1
377(10) 0.00878 290.8 58.8
349(10) 0.00977 290.8 55.5
373(10) 0.00853 290.7 52.3
373(11) 0.00778 290.7 49.5
331(10) 0.00965 290.7 47.0
351(10) 0.00968 290.7 44.9
376(10) 0.00898 290.6 43.2
346(10) 0.00919 290.6 41.7
344(10) 0.00885 290.6 40.6
337(10) 0.00947 290.5 39.7
344(10) 0.00989 290.5 39.1
369(10) 0.00917 290.5 38.6
333(10) 0.00937 290.4 38.2
349(10) 0.00845 290.4 37.9
327(10) 0.00977 290.4 37.7
302(9) 0.01108 290.4 37.6
349(10) 0.00966 290.3 37.5
330(10) 0.00996 290.3 37.4
332(10) 0.00894 290.3 37.3
331(10) 0.00936 290.2 37.1
338(10) 0.01002 290.2 37.0
311(9) 0.01067 290.2 36.8
326(10) 0.00951 290.2 36.7
327(10) 0.00929 290.1 36.4
367(10) 0.00856 290.1 36.2
351(10) 0.00962 290.1 35.9
331(10) 0.00982 290.0 35.5
328(10) 0.00942 290.0 35.2
321(10) 0.00952 290.0 34.8
315(10) 0.00985 290.0 34.4
336(9) 0.01012 289.9 33.9
325(9) 0.01017 289.9 33.4
335(10) 0.00945 289.9 32.9
342(10) 0.00914 289.8 32.4
310(9) 0.01032 289.8 31.9
335(9) 0.01011 289.8 31.4
337(10) 0.00970 289.8 30.8
327(10) 0.00959 289.7 30.3
322(10) 0.00958 289.7 29.8
336(10) 0.00942 289.7 29.3
301(9) 0.01106 289.6 28.8
305(9) 0.01036 289.6 28.3
336(10) 0.00905 289.6 27.8
345(10) 0.00898 289.5 27.4
328(9) 0.01020 289.5 26.9
337(10) 0.01005 289.5 26.5
321(10) 0.00971 289.5 26.2
296(9) 0.01027 289.4 25.8
349(10) 0.00910 289.4 25.5
308(9) 0.01079 289.4 25.2
296(9) 0.01117 289.3 24.9
327(10) 0.00981 289.3 24.7
290(9) 0.01029 289.3 24.5
294(9) 0.01047 289.3 24.3
317(9) 0.01037 289.2 24.1
307(9) 0.01099 289.2 24.0
331(10) 0.00958 289.2 23.9
309(10) 0.00959 289.1 23.9
316(9) 0.01010 289.1 23.8
333(9) 0.01010 289.1 23.8
337(10) 0.00993 289.1 23.8
317(10) 0.00995 289.0 23.8
317(10) 0.00916 289.0 23.9
321(10) 0.00985 289.0 23.9
330(9) 0.01031 288.9 24.0
330(10) 0.01002 288.9 24.1
319(10) 0.00996 288.9 24.1
338(10) 0.00876 288.8 24.2
298(9) 0.01075 288.8 24.3
325(9) 0.01034 288.8 24.3
301(9) 0.01082 288.8 24.4
338(10) 0.00935 288.7 24.4
308(10) 0.00989 288.7 24.4
314(10) 0.00995 288.7 24.3
312(9) 0.01075 288.6 24.2
315(10) 0.00989 288.6 24.1
298(9) 0.01074 288.6 24.0
361(10) 0.00854 288.6 23.8
310(9) 0.01034 288.5 23.6
318(9) 0.01058 288.5 23.3
308(9) 0.01043 288.5 23.1
315(10) 0.00979 288.4 22.8
307(10) 0.00974 288.4 22.5
321(10) 0.00997 288.4 22.1
314(9) 0.01074 288.4 21.8
304(9) 0.01052 288.3 21.5
306(10) 0.00986 288.3 21.1
306(10) 0.01006 288.3 20.8
295(9) 0.01095 288.2 20.4
329(9) 0.01023 288.2 20.1
325(10) 0.00971 288.2 19.8
314(9) 0.01017 288.2 19.5
311(9) 0.01024 288.1 19.2
307(9) 0.01102 288.1 18.9
341(10) 0.00988 288.1 18.7
309(9) 0.01029 288.0 18.5
297(10) 0.01006 288.0 18.3
279(9) 0.01098 288.0 18.1
313(9) 0.01015 287.9 18.0
305(9) 0.01115 287.9 17.9
302(9) 0.01029 287.9 17.8
291(9) 0.01034 287.9 17.7
307(9) 0.01018 287.8 17.7
305(9) 0.01093 287.8 17.7
297(9) 0.01104 287.8 17.8
309(9) 0.01033 287.7 17.9
302(10) 0.00975 287.7 18.0
305(9) 0.01042 287.7 18.2
319(9) 0.01053 287.7 18.5
308(9) 0.01084 287.6 18.7
329(10) 0.00975 287.6 19.1
333(10) 0.00890 287.6 19.5
319(9) 0.01013 287.5 20.0
326(9) 0.01026 287.5 20.6
320(9) 0.01039 287.5 21.3
299(9) 0.01040 287.5 22.1
300(9) 0.01012 287.4 23.0
342(10) 0.00929 287.4 24.1
316(9) 0.01071 287.4 25.4
374(10) 0.00901 287.3 26.8
353(10) 0.00884 287.3 28.4
334(10) 0.00923 287.3 30.3
339(10) 0.00960 287.3 32.4
331(9) 0.01018 287.2 34.8
342(10) 0.00955 287.2 37.4
334(10) 0.00933 287.2 40.2
314(10) 0.00999 287.1 43.2
346(10) 0.00892 287.1 46.3
325(9) 0.01039 287.1 49.5
370(10) 0.00892 287.0 52.5
355(10) 0.00910 287.0 55.2
361(10) 0.00853 287.0 57.5
362(10) 0.00892 287.0 59.2
369(10) 0.00931 286.9 60.4
364(10) 0.00903 286.9 61.3
362(10) 0.00886 286.9 62.0
372(10) 0.00870 286.8 62.8
399(11) 0.00811 286.8 63.7
364(10) 0.00937 286.8 65.1
392(11) 0.00820 286.8 66.9
388(11) 0.00835 286.7 69.4
371(10) 0.00858 286.7 72.5
369(10) 0.00881 286.7 76.3
383(10) 0.00897 286.6 80.7
390(11) 0.00833 286.6 85.9
401(11) 0.00793 286.6 91.6
394(10) 0.00846 286.6 98.0
453(11) 0.00745 286.5 104.8
452(11) 0.00766 286.5 111.8
462(11) 0.00721 286.5 118.9
469(12) 0.00663 286.4 125.8
483(12) 0.00671 286.4 131.9
496(11) 0.00712 286.4 137.1
500(12) 0.00691 286.4 140.7
470(12) 0.00701 286.3 142.6
497(12) 0.00611 286.3 142.5
463(11) 0.00709 286.3 140.4
456(11) 0.00755 286.2 136.5
449(11) 0.00766 286.2 131.1
411(11) 0.00788 286.2 124.4
424(12) 0.00705 286.1 117.0
412(11) 0.00800 286.1 109.2
389(10) 0.00883 286.1 101.3
421(11) 0.00813 286.1 93.5
391(11) 0.00798 286.0 86.1
360(10) 0.00849 286.0 79.1
367(10) 0.00879 286.0 72.5
399(10) 0.00858 285.9 66.5
378(10) 0.00896 285.9 60.9
362(10) 0.00887 285.9 55.9
343(10) 0.00885 285.9 51.3
336(10) 0.00941 285.8 47.2
339(10) 0.01002 285.8 43.5
334(10) 0.00964 285.8 40.2
337(10) 0.00986 285.7 37.3
357(10) 0.00842 285.7 34.6
325(10) 0.01007 285.7 32.3
343(10) 0.00992 285.7 30.2
322(9) 0.01017 285.6 28.3
318(10) 0.00975 285.6 26.6
319(10) 0.00966 285.6 25.1
315(10) 0.00988 285.5 23.7
317(9) 0.01059 285.5 22.5
331(10) 0.00971 285.5 21.4
321(10) 0.00972 285.5 20.4
306(9) 0.01016 285.4 19.5
300(9) 0.01064 285.4 18.6
294(9) 0.01142 285.4 17.9
313(10) 0.00994 285.3 17.2
320(10) 0.00955 285.3 16.6
329(10) 0.00945 285.3 16.0
331(10) 0.00989 285.2 15.5
319(9) 0.01055 285.2 15.0
297(9) 0.01035 285.2 14.6
319(10) 0.00951 285.2 14.2
337(10) 0.00946 285.1 13.9
295(9) 0.01118 285.1 13.5
296(9) 0.01136 285.1 13.2
294(9) 0.01051 285.0 13.0
299(9) 0.01032 285.0 12.7
302(9) 0.01048 285.0 12.5
300(9) 0.01062 285.0 12.3
295(9) 0.01129 284.9 12.2
284(9) 0.01093 284.9 12.0
318(10) 0.00939 284.9 11.9
308(9) 0.01054 284.8 11.8
305(9) 0.01095 284.8 11.7
299(9) 0.01108 284.8 11.7
307(10) 0.01006 284.8 11.6
292(10) 0.00992 284.7 11.6
299(9) 0.01039 284.7 11.6
264(8) 0.01231 284.7 11.6
268(8) 0.01234 284.6 11.7
282(9) 0.01100 284.6 11.7
300(10) 0.00971 284.6 11.8
288(9) 0.01048 284.6 11.9
269(9) 0.01221 284.5 12.0
287(9) 0.01144 284.5 12.1
268(9) 0.01177 284.5 12.3
299(10) 0.00972 284.4 12.4
306(9) 0.01045 284.4 12.6
318(9) 0.01047 284.4 12.8
303(9) 0.01055 284.3 13.0
280(9) 0.01120 284.3 13.2
300(9) 0.01024 284.3 13.4
296(9) 0.01032 284.3 13.6
294(9) 0.01116 284.2 13.7
284(9) 0.01136 284.2 13.9
284(9) 0.01112 284.2 14.1
308(9) 0.01029 284.1 14.2
318(9) 0.01010 284.1 14.4
279(9) 0.01187 284.1 14.5
271(9) 0.01182 284.1 14.5
286(9) 0.01074 284.0 14.6
292(9) 0.01058 284.0 14.6
289(9) 0.01118 284.0 14.5
282(9) 0.01184 283.9 14.4
308(9) 0.01015 283.9 14.3
276(9) 0.01136 283.9 14.1
296(9) 0.01024 283.9 14.0
322(10) 0.00996 283.8 13.7
303(9) 0.01104 283.8 13.5
300(9) 0.01040 283.8 13.2
298(9) 0.01054 283.7 12.9
320(10) 0.00980 283.7 12.6
301(9) 0.01077 283.7 12.3
282(9) 0.01188 283.7 12.0
279(9) 0.01140 283.6 11.7
285(9) 0.01073 283.6 11.4
259(8) 0.01247 283.6 11.1
272(9) 0.01222 283.5 10.8
286(9) 0.01152 283.5 10.5
308(10) 0.00993 283.5 10.2
290(9) 0.01035 283.4 10.0
290(9) 0.01077 283.4 9.7
280(9) 0.01170 283.4 9.4
303(9) 0.01080 283.4 9.2
290(9) 0.01093 283.3 9.0
264(9) 0.01134 283.3 8.8
274(9) 0.01145 283.3 8.6
270(8) 0.01231 283.2 8.4
271(9) 0.01215 283.2 8.2
297(9) 0.01068 283.2 8.0
289(9) 0.01016 283.2 7.9
304(10) 0.01003 283.1 7.7
307(9) 0.01096 283.1 7.6
275(9) 0.01181 283.1 7.5
287(9) 0.01097 283.0 7.4
275(9) 0.01074 283.0 7.3
267(9) 0.01203 283.0 7.2
294(9) 0.01131 283.0 7.1
305(9) 0.01077 282.9 7.0
303(9) 0.01038 282.9 6.9
320(10) 0.00904 282.9 6.8
295(9) 0.01066 282.8 6.8
275(9) 0.01206 282.8 6.7
275(9) 0.01193 282.8 6.7
307(9) 0.01021 282.7 6.6
284(9) 0.01091 282.7 6.6
299(9) 0.01051 282.7 6.5
315(9) 0.01073 282.7 6.5
279(9) 0.01131 282.6 6.5
284(9) 0.01062 282.6 6.4
289(9) 0.01071 282.6 6.4
283(9) 0.01094 282.5 6.4
292(9) 0.01151 282.5 6.4
292(9) 0.01047 282.5 6.4
276(9) 0.01109 282.5 6.4
263(9) 0.01208 282.4 6.3
298(9) 0.01089 282.4 6.3
286(9) 0.01162 282.4 6.3
280(9) 0.01111 282.3 6.3
307(10) 0.00986 282.3 6.3
315(10) 0.01007 282.3 6.3
278(9) 0.01136 282.3 6.3
290(9) 0.01161 282.2 6.4
283(9) 0.01108 282.2 6.4
287(9) 0.01009 282.2 6.4
286(9) 0.01105 282.1 6.4
295(9) 0.01132 282.1 6.4
288(9) 0.01169 282.1 6.4
301(9) 0.01008 282.1 6.4
300(10) 0.00976 282.0 6.4
269(9) 0.01146 282.0 6.4
262(8) 0.01247 282.0 6.4
263(9) 0.01225 281.9 6.4
309(9) 0.01010 281.9 6.4
283(9) 0.01049 281.9 6.4
294(9) 0.01087 281.8 6.4
308(9) 0.01070 281.8 6.4
284(9) 0.01187 281.8 6.4
293(9) 0.01109 281.8 6.4
272(9) 0.01072 281.7 6.4
273(9) 0.01137 281.7 6.4
299(9) 0.01123 281.7 6.4
287(9) 0.01125 281.6 6.4
267(9) 0.01135 281.6 6.4
285(9) 0.01026 281.6 6.4
290(9) 0.01084 281.6 6.4
286(9) 0.01169 281.5 6.3
276(9) 0.01172 281.5 6.3
264(9) 0.01211 281.5 6.3
305(10) 0.00964 281.4 6.3
281(9) 0.01127 281.4 6.2
290(9) 0.01145 281.4 6.2
295(9) 0.01113 281.4 6.2
294(9) 0.01056 281.3 6.1
278(9) 0.01106 281.3 6.1
302(9) 0.01050 281.3 6.1
307(9) 0.01085 281.2 6.0
301(9) 0.01049 281.2 6.0
289(9) 0.01057 281.2 5.9
271(9) 0.01104 281.2 5.9
271(9) 0.01162 281.1 5.9
276(9) 0.01194 281.1 5.8
290(9) 0.01083 281.1 5.8
280(9) 0.01082 281.0 5.7
277(9) 0.01139 281.0 5.7
274(9) 0.01199 281.0 5.6
275(9) 0.01196 280.9 5.6
270(9) 0.01122 280.9 5.5
297(10) 0.00998 280.9 5.5
279(9) 0.01139 280.9 5.4
297(9) 0.01100 280.8 5.4
307(9) 0.01092 280.8 5.3
297(9) 0.01047 280.8 5.3
279(9) 0.01109 280.7 5.2
263(9) 0.01214 280.7 5.1
280(9) 0.01191 280.7 5.1
301(9) 0.01111 280.7 5.0
288(9) 0.01075 280.6 5.0
300(10) 0.00984 280.6 5.0
282(9) 0.01149 280.6 4.9
261(8) 0.01276 280.5 4.9
255(8) 0.01298 280.5 4.8
291(9) 0.01072 280.5 4.8
287(9) 0.01034 280.5 4.7
293(9) 0.01087 280.4 4.7
298(9) 0.01133 280.4 4.6
269(8) 0.01238 280.4 4.6
302(9) 0.01017 280.3 4.6
294(10) 0.00997 280.3 4.5
284(9) 0.01093 280.3 4.5
296(9) 0.01126 280.3 4.4
291(9) 0.01141 280.2 4.4
286(9) 0.01098 280.2 4.4
290(10) 0.00973 280.2 4.3
277(9) 0.01082 280.1 4.3
280(9) 0.01193 280.1 4.3
253(8) 0.01313 280.1 4.2
281(9) 0.01122 280.1 4.2
270(9) 0.01105 280.1 4.2
292(9) 0.01027 280.1 4.1
271(9) 0.01222 280.1 4.1
273(9) 0.01194 280.0 4.1
274(9) 0.01154 280.0 4.1
286(9) 0.01035 280.0 4.0
281(9) 0.01133 280.0 4.0
275(9) 0.01206 280.0 4.0
293(9) 0.01117 280.0 4.0
288(9) 0.01078 280.0 3.9
279(9) 0.01108 280.0 3.9
292(9) 0.01073 279.9 3.9
264(8) 0.01251 279.9 3.9
266(9) 0.01201 279.9 3.9
269(9) 0.01100 279.9 3.9
273(9) 0.01105 279.9 3.8
251(8) 0.01295 279.9 3.8
253(8) 0.01293 279.9 3.8
266(9) 0.01195 279.9 3.8
273(9) 0.01126 279.8 3.8
266(9) 0.01203 279.8 3.8
294(9) 0.01119 279.8 3.8
295(9) 0.01133 279.8 3.8
294(9) 0.01039 279.8 3.7
283(9) 0.01056 279.8 3.7
288(9) 0.01061 279.8 3.7
274(9) 0.01179 279.8 3.7
283(9) 0.01169 279.7 3.7
280(9) 0.01080 279.7 3.7
285(9) 0.01052 279.7 3.7
297(9) 0.01029 279.7 3.7
272(9) 0.01180 279.7 3.7
278(9) 0.01191 279.7 3.7
283(9) 0.01103 279.7 3.7
288(9) 0.01034 279.7 3.7
295(9) 0.01076 279.6 3.7
278(9) 0.01198 279.6 3.7
286(9) 0.01157 279.6 3.7
287(9) 0.01147 279.6 3.7
265(9) 0.01122 279.6 3.7
285(9) 0.01090 279.6 3.7
269(9) 0.01203 279.6 3.7
287(9) 0.01142 279.5 3.7
252(8) 0.01251 279.5 3.7
301(10) 0.00935 279.5 3.8
273(9) 0.01181 279.5 3.8
267(8) 0.01244 279.5 3.8
270(9) 0.01206 279.5 3.8
284(9) 0.01107 279.5 3.8
301(10) 0.00989 279.5 3.8
282(9) 0.01068 279.4 3.8
266(8) 0.01255 279.4 3.8
282(9) 0.01118 279.4 3.8
299(9) 0.01030 279.4 3.9
282(9) 0.01074 279.4 3.9
292(9) 0.01043 279.4 3.9
291(9) 0.01143 279.4 3.9
295(9) 0.01104 279.4 3.9
292(9) 0.01047 279.3 4.0
288(9) 0.01077 279.3 4.0
291(9) 0.01099 279.3 4.0
274(9) 0.01209 279.3 4.0
292(9) 0.01071 279.3 4.1
297(10) 0.01007 279.3 4.1
278(9) 0.01094 279.3 4.1
293(9) 0.01110 279.3 4.2
298(9) 0.01120 279.2 4.2
274(9) 0.01156 279.2 4.2
285(9) 0.01052 279.2 4.3
258(9) 0.01198 279.2 4.3
280(9) 0.01138 279.2 4.3
281(9) 0.01179 279.2 4.4
269(9) 0.01124 279.2 4.4
282(9) 0.01049 279.2 4.5
279(9) 0.01112 279.1 4.5
269(9) 0.01210 279.1 4.6
289(9) 0.01162 279.1 4.6
281(9) 0.01114 279.1 4.7
280(9) 0.01069 279.1 4.7
265(9) 0.01168 279.1 4.8
258(8) 0.01245 279.1 4.9
282(9) 0.01171 279.1 5.0
310(10) 0.00994 279.0 5.0
290(9) 0.01025 279.0 5.1
295(9) 0.01043 279.0 5.2
307(9) 0.01071 279.0 5.3
289(9) 0.01145 279.0 5.4
287(9) 0.01112 279.0 5.5
305(10) 0.00968 279.0 5.6
290(9) 0.01122 278.9 5.8
274(9) 0.01213 278.9 5.9
309(9) 0.01045 278.9 6.0
296(9) 0.01064 278.9 6.2
258(9) 0.01169 278.9 6.4
288(9) 0.01080 278.9 6.6
297(9) 0.01126 278.9 6.8
275(9) 0.01190 278.9 7.0
299(9) 0.01076 278.8 7.3
291(9) 0.01011 278.8 7.6
278(9) 0.01132 278.8 8.0
294(9) 0.01134 278.8 8.4
292(9) 0.01156 278.8 8.9
271(9) 0.01164 278.8 9.5
290(9) 0.01067 278.8 10.1
276(9) 0.01169 278.8 10.9
309(9) 0.01078 278.7 11.8
308(9) 0.01077 278.7 12.9
303(9) 0.01021 278.7 14.1
300(9) 0.01022 278.7 15.5
317(9) 0.01023 278.7 17.1
294(9) 0.01123 278.7 18.9
274(9) 0.01156 278.7 20.8
282(9) 0.01107 278.7 23.0
302(9) 0.01025 278.6 25.1
304(10) 0.01005 278.6 27.3
318(9) 0.01060 278.6 29.2
304(9) 0.01046 278.6 30.7
320(10) 0.00977 278.6 31.7
307(9) 0.01038 278.6 31.9
329(10) 0.01003 278.6 31.4
296(9) 0.01125 278.6 30.3
292(9) 0.01104 278.5 28.6
315(10) 0.00970 278.5 26.7
302(9) 0.01030 278.5 24.7
321(9) 0.01028 278.5 22.8
282(9) 0.01171 278.5 20.9
268(9) 0.01193 278.5 19.3
307(10) 0.01000 278.5 17.8
301(9) 0.01077 278.5 16.5
297(9) 0.01104 278.4 15.4
299(9) 0.01110 278.4 14.5
277(9) 0.01125 278.4 13.7
301(10) 0.01003 278.4 13.1
309(9) 0.01014 278.4 12.6
300(9) 0.01108 278.4 12.2
282(9) 0.01179 278.4 11.9
288(9) 0.01064 278.3 11.7
279(9) 0.01033 278.3 11.6
282(9) 0.01115 278.3 11.5
271(9) 0.01217 278.3 11.5
295(9) 0.01138 278.3 11.5
287(9) 0.01108 278.3 11.6
290(10) 0.00988 278.3 11.7
285(9) 0.01098 278.3 11.8
288(9) 0.01141 278.2 12.0
277(9) 0.01197 278.2 12.3
281(9) 0.01063 278.2 12.5
294(10) 0.00990 278.2 12.9
279(9) 0.01106 278.2 13.2
289(9) 0.01139 278.2 13.6
292(9) 0.01129 278.2 14.1
292(9) 0.01062 278.2 14.6
262(9) 0.01182 278.1 15.2
292(9) 0.01064 278.1 15.9
303(9) 0.01117 278.1 16.6
304(9) 0.01070 278.1 17.4
310(9) 0.01023 278.1 18.3
289(9) 0.01087 278.1 19.3
288(9) 0.01105 278.1 20.4
312(9) 0.01083 278.1 21.5
302(9) 0.01095 278.0 22.8
289(9) 0.01070 278.0 24.1
298(9) 0.01015 278.0 25.5
301(9) 0.01021 278.0 27.0
300(9) 0.01115 278.0 28.5
309(9) 0.01043 278.0 30.0
309(10) 0.01003 278.0 31.4
309(9) 0.01009 278.0 32.6
304(9) 0.01056 277.9 33.7
294(9) 0.01136 277.9 34.5
296(9) 0.01048 277.9 35.1
307(10) 0.00991 277.9 35.3
292(9) 0.01076 277.9 35.2
286(9) 0.01121 277.9 34.8
301(9) 0.01104 277.9 34.2
312(9) 0.01010 277.8 33.5
324(10) 0.00898 277.8 32.7
294(9) 0.01090 277.8 31.9
303(9) 0.01095 277.8 31.1
291(9) 0.01149 277.8 30.3
313(9) 0.01011 277.8 29.6
309(9) 0.01018 277.8 29.1
310(9) 0.01048 277.8 28.6
289(9) 0.01139 277.7 28.3
306(9) 0.01109 277.7 28.1
323(10) 0.00998 277.7 28.0
303(10) 0.00964 277.7 28.1
298(9) 0.01061 277.7 28.2
280(9) 0.01187 277.7 28.5
293(9) 0.01142 277.7 28.9
302(9) 0.01049 277.7 29.4
310(10) 0.00943 277.6 30.0
299(9) 0.01080 277.6 30.7
320(9) 0.01053 277.6 31.5
327(10) 0.01006 277.6 32.5
319(10) 0.00991 277.6 33.5
315(10) 0.00925 277.6 34.7
324(10) 0.00943 277.6 36.0
319(9) 0.01055 277.6 37.4
304(9) 0.01083 277.5 38.9
310(9) 0.01028 277.5 40.6
339(10) 0.00874 277.5 42.3
312(9) 0.01024 277.5 44.2
334(9) 0.01015 277.5 46.3
308(9) 0.01073 277.5 48.4
363(10) 0.00864 277.5 50.7
333(10) 0.00930 277.5 53.1
336(10) 0.00921 277.4 55.6
329(9) 0.01025 277.4 58.3
351(10) 0.00951 277.4 61.0
361(10) 0.00905 277.4 63.8
343(10) 0.00940 277.4 66.7
338(10) 0.00958 277.4 69.6
356(10) 0.00959 277.4 72.5
351(10) 0.00931 277.4 75.3
373(11) 0.00824 277.3 78.1
364(10) 0.00872 277.3 80.7
377(10) 0.00873 277.3 83.1
369(10) 0.00931 277.3 85.2
379(10) 0.00848 277.3 87.0
377(11) 0.00816 277.3 88.5
377(10) 0.00863 277.3 89.5
371(10) 0.00915 277.2 90.1
351(10) 0.00969 277.2 90.3
370(10) 0.00841 277.2 90.1
377(11) 0.00786 277.2 89.4
389(11) 0.00794 277.2 88.3
344(10) 0.00969 277.2 86.9
371(10) 0.00918 277.2 85.2
340(10) 0.00962 277.2 83.3
388(11) 0.00795 277.1 81.2
353(10) 0.00909 277.1 79.0
339(10) 0.00961 277.1 76.7
345(10) 0.00989 277.1 74.4
348(10) 0.00919 277.1 72.1
368(11) 0.00819 277.1 69.8
355(10) 0.00905 277.1 67.6
334(9) 0.01010 277.1 65.5
339(10) 0.00984 277.0 63.5
352(10) 0.00897 277.0 61.5
332(10) 0.00903 277.0 59.6
325(10) 0.00968 277.0 57.9
356(10) 0.00939 277.0 56.3
333(9) 0.01020 277.0 54.7
342(10) 0.00933 277.0 53.2
315(10) 0.00996 277.0 51.9
347(10) 0.00903 276.9 50.6
306(9) 0.01086 276.9 49.4
326(9) 0.01016 276.9 48.2
307(9) 0.01017 276.9 47.1
289(9) 0.01071 276.9 46.1
319(10) 0.00980 276.9 45.1
315(9) 0.01067 276.9 44.1
329(10) 0.00977 276.9 43.2
309(9) 0.01042 276.8 42.3
327(10) 0.00924 276.8 41.5
332(10) 0.00940 276.8 40.6
325(9) 0.01031 276.8 39.8
300(9) 0.01092 276.8 39.0
308(9) 0.01038 276.8 38.2
315(10) 0.00978 276.8 37.4
314(9) 0.01026 276.8 36.6
311(9) 0.01067 276.7 35.8
300(9) 0.01080 276.7 35.0
319(10) 0.00947 276.7 34.2
321(10) 0.00970 276.7 33.5
305(9) 0.01065 276.7 32.7
311(9) 0.01088 276.7 32.0
303(9) 0.01072 276.7 31.2
304(9) 0.01033 276.6 30.5
296(9) 0.01051 276.6 29.8
307(9) 0.01068 276.6 29.1
309(9) 0.01085 276.6 28.4
308(10) 0.00991 276.6 27.7
313(10) 0.00981 276.6 27.1
318(9) 0.01017 276.6 26.4
317(9) 0.01038 276.6 25.8
305(9) 0.01089 276.5 25.2
288(9) 0.01050 276.5 24.6
297(10) 0.00972 276.5 24.0
285(9) 0.01114 276.5 23.5
300(9) 0.01109 276.5 22.9
288(9) 0.01147 276.5 22.4
306(9) 0.01039 276.5 21.9
311(10) 0.00980 276.5 21.4
283(9) 0.01126 276.4 20.9
281(9) 0.01175 276.4 20.5
297(9) 0.01101 276.4 20.0
274(9) 0.01126 276.4 19.6
308(10) 0.00933 276.4 19.2
303(10) 0.00995 276.4 18.8
311(9) 0.01090 276.4 18.4
296(9) 0.01113 276.4 18.1
291(9) 0.01078 276.3 17.7
287(9) 0.01031 276.3 17.4
274(9) 0.01168 276.3 17.1
293(9) 0.01133 276.3 16.8
286(9) 0.01137 276.3 16.5
271(9) 0.01155 276.3 16.3
287(9) 0.01060 276.3 16.0
295(9) 0.01118 276.3 15.8
285(9) 0.01171 276.2 15.6
274(9) 0.01185 276.2 15.4
279(9) 0.01144 276.2 15.2
311(10) 0.00966 276.2 15.0
312(10) 0.01004 276.2 14.8
287(9) 0.01159 276.2 14.7
278(9) 0.01153 276.2 14.6
274(9) 0.01135 276.1 14.4
280(9) 0.01089 276.1 14.3
283(9) 0.01137 276.1 14.2
300(9) 0.01111 276.1 14.1
305(9) 0.01068 276.1 14.1
306(10) 0.01004 276.1 14.0
289(9) 0.01083 276.1 13.9
293(9) 0.01098 276.1 13.9
277(9) 0.01201 276.0 13.9
294(9) 0.01044 276.0 13.9
268(9) 0.01152 276.0 13.9
289(9) 0.01042 276.0 13.9
284(9) 0.01151 276.0 13.9
292(9) 0.01145 276.0 14.0
265(9) 0.01197 276.0 14.1
284(9) 0.01036 276.0 14.1
301(9) 0.01046 275.9 14.2
295(9) 0.01112 275.9 14.3
281(9) 0.01177 275.9 14.4
287(9) 0.01119 275.9 14.6
303(9) 0.01009 275.9 14.7
290(9) 0.01080 275.9 14.9
281(9) 0.01146 275.9 15.0
292(9) 0.01133 275.9 15.2
270(9) 0.01138 275.8 15.4
305(10) 0.00925 275.8 15.6
264(9) 0.01200 275.8 15.8
292(9) 0.01115 275.8 16.1
300(9) 0.01100 275.8 16.3
271(9) 0.01174 275.8 16.5
287(9) 0.01038 275.8 16.7
307(10) 0.00996 275.8 16.9
286(9) 0.01154 275.7 17.1
293(9) 0.01144 275.7 17.3
304(9) 0.01037 275.7 17.5
320(10) 0.00901 275.7 17.6
295(9) 0.01051 275.7 17.8
306(9) 0.01087 275.7 17.9
301(9) 0.01104 275.7 18.0
281(9) 0.01105 275.7 18.1
282(9) 0.01055 275.6 18.1
288(9) 0.01078 275.6 18.2
283(9) 0.01174 275.6 18.3
275(9) 0.01185 275.6 18.3
285(9) 0.01139 275.6 18.3
283(9) 0.01081 275.6 18.4
277(9) 0.01149 275.6 18.4
300(9) 0.01111 275.5 18.5
322(9) 0.01041 275.5 18.5
276(9) 0.01135 275.5 18.6
286(9) 0.01016 275.5 18.6
278(9) 0.01070 275.5 18.7
284(9) 0.01177 275.5 18.7
294(9) 0.01107 275.5 18.8
287(9) 0.01099 275.5 18.9
307(10) 0.00983 275.4 19.0
307(9) 0.01035 275.4 19.1
284(9) 0.01175 275.4 19.2
284(9) 0.01125 275.4 19.2
294(9) 0.01023 275.4 19.3
280(9) 0.01132 275.4 19.4
285(9) 0.01125 275.4 19.5
311(9) 0.01083 275.4 19.6
294(9) 0.01084 275.3 19.6
294(9) 0.01053 275.3 19.7
298(9) 0.01057 275.3 19.8
300(9) 0.01100 275.3 19.8
311(9) 0.01096 275.3 19.9
300(9) 0.01070 275.3 19.9
289(9) 0.01090 275.3 19.9
317(10) 0.00977 275.3 20.0
290(9) 0.01120 275.2 20.0
313(9) 0.01082 275.2 20.0
298(9) 0.01047 275.2 19.9
249(8) 0.01239 275.2 19.9
292(9) 0.01067 275.2 19.9
304(9) 0.01085 275.2 19.9
299(9) 0.01125 275.2 19.8
296(9) 0.01046 275.2 19.8
299(10) 0.00982 275.1 19.8
299(9) 0.01056 275.1 19.7
274(9) 0.01202 275.1 19.7
280(9) 0.01180 275.1 19.6
301(9) 0.01039 275.1 19.6
290(10) 0.00998 275.1 19.5
308(9) 0.01018 275.1 19.5
292(9) 0.01137 275.1 19.4
292(9) 0.01126 275.0 19.4
316(10) 0.00976 275.0 19.4
286(9) 0.01079 275.0 19.4
272(9) 0.01178 275.0 19.4
307(9) 0.01100 275.0 19.4
298(9) 0.01108 275.0 19.4
295(9) 0.01065 275.0 19.5
286(9) 0.01024 274.9 19.6
273(9) 0.01131 274.9 19.7
275(9) 0.01218 274.9 19.8
302(9) 0.01076 274.9 20.0
302(9) 0.01045 274.9 20.2
287(9) 0.01073 274.9 20.4
312(9) 0.01012 274.9 20.7
295(9) 0.01142 274.9 21.1
306(9) 0.01078 274.8 21.5
310(9) 0.01020 274.8 22.1
303(9) 0.01039 274.8 22.7
297(9) 0.01036 274.8 23.5
301(9) 0.01110 274.8 24.5
310(9) 0.01040 274.8 25.5
312(10) 0.01002 274.8 26.8
294(9) 0.01076 274.8 28.3
313(9) 0.01024 274.7 30.0
300(9) 0.01118 274.7 31.9
301(9) 0.01049 274.7 34.0
327(10) 0.00931 274.7 36.3
333(10) 0.00967 274.7 38.8
331(10) 0.00993 274.7 41.3
301(9) 0.01098 274.7 43.7
364(10) 0.00870 274.7 46.0
368(10) 0.00860 274.6 47.8
335(10) 0.00953 274.6 49.0
355(10) 0.00930 274.6 49.4
366(10) 0.00923 274.6 49.1
350(10) 0.00877 274.6 48.0
343(10) 0.00879 274.6 46.4
334(10) 0.00947 274.6 44.5
344(10) 0.00966 274.6 42.5
347(10) 0.00989 274.5 40.5
318(9) 0.01024 274.5 38.7
339(10) 0.00882 274.5 37.1
320(10) 0.00980 274.5 35.7
316(9) 0.01055 274.5 34.5
314(9) 0.01058 274.5 33.6
316(9) 0.01051 274.5 32.9
310(10) 0.00980 274.4 32.4
320(10) 0.00982 274.4 32.1
322(9) 0.01044 274.4 31.8
314(9) 0.01064 274.4 31.5
312(10) 0.00996 274.4 31.2
315(10) 0.00922 274.4 30.7
306(9) 0.01057 274.4 30.2
304(9) 0.01102 274.4 29.6
311(9) 0.01064 274.3 28.8
312(9) 0.01014 274.3 28.0
298(9) 0.01025 274.3 27.3
301(9) 0.01049 274.3 26.5
288(9) 0.01165 274.3 25.7
293(9) 0.01095 274.3 25.0
327(10) 0.00937 274.3 24.4
292(9) 0.01064 274.3 23.8
293(9) 0.01098 274.2 23.3
293(9) 0.01141 274.2 22.8
284(9) 0.01111 274.2 22.4
270(9) 0.01171 274.2 22.1
289(9) 0.01087 274.2 21.8
306(9) 0.01008 274.2 21.5
291(9) 0.01148 274.2 21.3
276(9) 0.01177 274.2 21.1
274(9) 0.01126 274.1 20.9
283(9) 0.01074 274.1 20.8
314(9) 0.01045 274.1 20.7
299(9) 0.01118 274.1 20.6
278(9) 0.01121 274.1 20.6
277(9) 0.01119 274.1 20.6
308(10) 0.01000 274.1 20.6
290(9) 0.01116 274.1 20.6
301(9) 0.01108 274.0 20.6
319(10) 0.00979 274.0 20.6
293(9) 0.01020 274.0 20.7
299(9) 0.01034 274.0 20.8
287(9) 0.01133 274.0 20.9
266(8) 0.01235 274.0 21.0
281(9) 0.01056 274.0 21.1
294(9) 0.01010 274.0 21.3
300(9) 0.01036 273.9 21.5
292(9) 0.01090 273.9 21.6
297(9) 0.01132 273.9 21.8
295(9) 0.01093 273.9 22.0
292(10) 0.01006 273.9 22.2
300(9) 0.01035 273.9 22.5
295(9) 0.01128 273.9 22.7
305(9) 0.01099 273.8 22.9
287(9) 0.01055 273.8 23.2
300(10) 0.00965 273.8 23.4
319(10) 0.00982 273.8 23.6
295(9) 0.01139 273.8 23.9
311(9) 0.01068 273.8 24.1
309(9) 0.01024 273.8 24.4
322(10) 0.00931 273.8 24.6
317(9) 0.01022 273.7 24.9
289(9) 0.01169 273.7 25.1
320(9) 0.01040 273.7 25.4
307(9) 0.01064 273.7 25.7
329(10) 0.00895 273.7 26.0
282(9) 0.01137 273.7 26.3
291(9) 0.01151 273.7 26.7
292(9) 0.01150 273.7 27.1
299(9) 0.01065 273.6 27.5
307(10) 0.00954 273.6 28.0
303(10) 0.00983 273.6 28.5
299(9) 0.01108 273.6 29.0
291(9) 0.01131 273.6 29.4
318(10) 0.00986 273.6 29.9
321(10) 0.00957 273.6 30.3
327(10) 0.00964 273.6 30.6
337(10) 0.00998 273.5 30.8
312(9) 0.01046 273.5 30.9
319(10) 0.00943 273.5 30.9
323(10) 0.00932 273.5 30.8
297(9) 0.01069 273.5 30.8
317(9) 0.01069 273.5 30.8
290(9) 0.01104 273.5 30.8
293(9) 0.01068 273.5 31.1
298(9) 0.01065 273.4 31.5
305(9) 0.01035 273.4 32.2
301(9) 0.01112 273.4 33.1
305(9) 0.01021 273.4 34.4
317(10) 0.00957 273.4 36.1
318(10) 0.01001 273.4 38.2
337(10) 0.00978 273.4 40.7
343(10) 0.00981 273.4 43.7
318(9) 0.01011 273.3 47.1
327(10) 0.00927 273.3 50.9
350(10) 0.00907 273.3 54.9
354(10) 0.00937 273.3 59.0
323(9) 0.01043 273.3 62.7
376(10) 0.00862 273.3 65.7
376(11) 0.00801 273.3 67.7
342(10) 0.00927 273.2 68.4
339(10) 0.00977 273.2 68.0
347(10) 0.00984 273.2 66.7
341(10) 0.00935 273.2 64.8
350(10) 0.00852 273.2 62.7
367(10) 0.00870 273.2 60.4
351(10) 0.00953 273.2 58.1
352(10) 0.00950 273.2 55.8
338(10) 0.00939 273.1 53.6
328(10) 0.00918 273.1 51.4
334(10) 0.00959 273.1 49.3
314(9) 0.01057 273.1 47.3
325(9) 0.01015 273.1 45.4
322(9) 0.01013 273.1 43.6
317(10) 0.00920 273.1 41.8
307(9) 0.01023 273.1 40.3
320(9) 0.01046 273.0 38.8
305(9) 0.01101 273.0 37.5
300(9) 0.01049 273.0 36.4
304(10) 0.00997 273.0 35.4
307(9) 0.01051 273.0 34.5
281(9) 0.01178 273.0 33.9
296(9) 0.01108 273.0 33.4
293(9) 0.01081 273.0 33.0
328(10) 0.00923 272.9 32.8
297(9) 0.01094 272.9 32.8
295(9) 0.01126 272.9 32.9
321(9) 0.01026 272.9 33.2
287(9) 0.01100 272.9 33.6
308(9) 0.01036 272.9 34.2
329(10) 0.00985 272.9 35.0
296(9) 0.01118 272.9 35.9
281(9) 0.01095 272.8 37.0
308(10) 0.00970 272.8 38.2
338(10) 0.00924 272.8 39.7
323(10) 0.01000 272.8 41.2
305(9) 0.01092 272.8 43.0
323(10) 0.00987 272.8 44.8
317(10) 0.00993 272.8 46.8
335(10) 0.00912 272.7 49.0
314(9) 0.01035 272.7 51.2
334(9) 0.01013 272.7 53.5
322(10) 0.00992 272.7 55.8
338(10) 0.00916 272.7 58.1
336(10) 0.00933 272.7 60.4
336(10) 0.00981 272.7 62.5
325(9) 0.01040 272.7 64.5
343(10) 0.00936 272.6 66.2
318(10) 0.00954 272.6 67.6
336(10) 0.00969 272.6 68.6
343(10) 0.00991 272.6 69.3
327(9) 0.01034 272.6 69.4
331(10) 0.00983 272.6 69.1
341(10) 0.00887 272.6 68.4
347(10) 0.00935 272.6 67.1
336(9) 0.01014 272.5 65.4
313(9) 0.01075 272.5 63.3
309(9) 0.01037 272.5 61.0
341(10) 0.00850 272.5 58.3
339(10) 0.00930 272.5 55.6
325(9) 0.01049 272.5 52.7
305(9) 0.01118 272.5 49.9
333(10) 0.00911 272.5 47.1
305(10) 0.00956 272.4 44.4
301(9) 0.01033 272.4 41.7
303(9) 0.01102 272.4 39.3
294(9) 0.01117 272.4 36.9
308(9) 0.01022 272.4 34.7
287(9) 0.01037 272.4 32.7
278(9) 0.01128 272.4 30.8
273(9) 0.01221 272.4 29.1
271(9) 0.01203 272.3 27.4
297(9) 0.01068 272.3 26.0
307(10) 0.00989 272.3 24.6
286(9) 0.01103 272.3 23.4
310(9) 0.01073 272.3 22.2
289(9) 0.01142 272.3 21.2
308(9) 0.01031 272.3 20.2
289(9) 0.01074 272.3 19.4
281(9) 0.01123 272.2 18.6
269(9) 0.01222 272.2 17.8
280(9) 0.01146 272.2 17.2
304(10) 0.01001 272.2 16.6
265(9) 0.01201 272.2 16.1
295(9) 0.01072 272.2 15.6
268(8) 0.01231 272.2 15.2
308(9) 0.01042 272.1 14.8
278(9) 0.01102 272.1 14.4
272(9) 0.01102 272.1 14.1
278(9) 0.01158 272.1 13.8
300(9) 0.01113 272.1 13.6
274(9) 0.01128 272.1 13.4
279(9) 0.01066 272.1 13.3
262(9) 0.01219 272.1 13.1
296(9) 0.01128 272.0 13.0
269(9) 0.01212 272.0 12.9
300(9) 0.01011 272.0 12.9
268(9) 0.01109 272.0 12.9
290(9) 0.01051 272.0 12.9
271(9) 0.01201 272.0 13.0
290(9) 0.01155 272.0 13.0
282(9) 0.01130 272.0 13.1
276(9) 0.01105 271.9 13.3
297(9) 0.01083 271.9 13.4
282(9) 0.01158 271.9 13.6
267(9) 0.01220 271.9 13.7
272(9) 0.01137 271.9 13.9
287(9) 0.01023 271.9 14.1
274(9) 0.01170 271.9 14.3
293(9) 0.01142 271.9 14.4
289(9) 0.01157 271.8 14.6
277(9) 0.01101 271.8 14.7
270(9) 0.01147 271.8 14.8
269(9) 0.01181 271.8 14.8
269(9) 0.01214 271.8 14.7
275(9) 0.01206 271.8 14.6
269(9) 0.01135 271.8 14.5
261(9) 0.01131 271.8 14.3
267(9) 0.01139 271.7 14.0
314(9) 0.01074 271.7 13.8
275(9) 0.01189 271.7 13.5
309(10) 0.01006 271.7 13.1
272(9) 0.01095 271.7 12.8
298(9) 0.01030 271.7 12.5
273(9) 0.01203 271.7 12.1
269(9) 0.01196 271.7 11.8
248(8) 0.01242 271.6 11.5
265(9) 0.01122 271.6 11.2
281(9) 0.01105 271.6 10.9
268(9) 0.01223 271.6 10.7
279(9) 0.01164 271.6 10.4
280(9) 0.01118 271.6 10.2
260(9) 0.01202 271.6 10.0
267(9) 0.01220 271.6 9.8
271(9) 0.01219 271.6 9.7
266(9) 0.01176 271.6 9.5
279(9) 0.01048 271.6 9.4
289(9) 0.01011 271.6 9.3
289(9) 0.01083 271.6 9.2
296(9) 0.01138 271.6 9.1
265(9) 0.01185 271.6 9.0
285(9) 0.01044 271.6 9.0
278(9) 0.01154 271.6 8.9
289(9) 0.01114 271.6 8.9
272(9) 0.01213 271.6 8.9
285(9) 0.01083 271.6 8.9
278(9) 0.01123 271.6 8.9
305(9) 0.01016 271.6 8.9
279(9) 0.01171 271.6 8.9
267(8) 0.01232 271.6 9.0
284(9) 0.01094 271.6 9.0
276(9) 0.01094 271.6 9.1
299(9) 0.01049 271.6 9.1
268(9) 0.01213 271.6 9.2
269(9) 0.01218 271.6 9.3
288(9) 0.01058 271.6 9.4
277(9) 0.01067 271.6 9.5
259(8) 0.01243 271.6 9.7
279(9) 0.01185 271.6 9.8
271(9) 0.01206 271.6 9.9
263(9) 0.01151 271.6 10.1
266(9) 0.01122 271.6 10.3
289(9) 0.01115 271.6 10.5
287(9) 0.01160 271.6 10.7
276(9) 0.01176 271.6 10.9
247(9) 0.01207 271.6 11.1
273(9) 0.01051 271.6 11.4
276(9) 0.01093 271.6 11.7
290(9) 0.01141 271.6 12.0
276(9) 0.01203 271.6 12.3
311(10) 0.00996 271.6 12.6
302(9) 0.01026 271.6 13.0
283(9) 0.01118 271.6 13.4
289(9) 0.01143 271.6 13.8
276(9) 0.01197 271.6 14.2
287(9) 0.01068 271.6 14.7
302(10) 0.00982 271.6 15.2
275(9) 0.01149 271.6 15.8
273(9) 0.01229 271.6 16.3
273(9) 0.01144 271.6 17.0
294(9) 0.01047 271.6 17.6
287(9) 0.01025 271.6 18.4
271(9) 0.01144 271.6 19.1
291(9) 0.01149 271.6 19.9
279(9) 0.01172 271.6 20.8
286(9) 0.01114 271.6 21.7
304(9) 0.01016 271.6 22.7
291(9) 0.01115 271.6 23.7
303(9) 0.01100 271.6 24.9
290(9) 0.01092 271.6 26.0
300(9) 0.01043 271.6 27.3
292(9) 0.01116 271.6 28.6
295(9) 0.01082 271.6 30.0
303(9) 0.01107 271.6 31.4
328(10) 0.00933 271.6 32.9
327(10) 0.00911 271.6 34.5
315(10) 0.01003 271.6 36.1
301(9) 0.01100 271.6 37.8
316(9) 0.01058 271.6 39.5
318(10) 0.00991 271.6 41.2
314(10) 0.00978 271.6 43.0
312(9) 0.01023 271.6 44.7
299(9) 0.01074 271.6 46.4
307(9) 0.01084 271.6 48.1
318(10) 0.00993 271.6 49.6
337(10) 0.00893 271.6 51.1
330(10) 0.00966 271.6 52.3
313(9) 0.01056 271.6 53.4
327(9) 0.01030 271.6 54.3
313(9) 0.01013 271.6 55.0
330(10) 0.00878 271.6 55.4
315(10) 0.00986 271.6 55.5
342(10) 0.00986 271.6 55.4
321(9) 0.01047 271.6 55.0
329(10) 0.00957 271.6 54.3
270(9) 0.01107 271.6 53.4
316(10) 0.00966 271.6 52.3
310(9) 0.01073 271.6 51.0
301(9) 0.01071 271.6 49.6
308(10) 0.00998 271.6 48.0
308(10) 0.00994 271.6 46.4
301(9) 0.01053 271.6 44.7
300(9) 0.01120 271.6 43.0
331(10) 0.00981 271.6 41.3
312(9) 0.01028 271.6 39.6
295(9) 0.01012 271.6 37.9
303(9) 0.01028 271.6 36.2
301(9) 0.01111 271.6 34.6
300(9) 0.01090 271.6 33.1
285(9) 0.01104 271.6 31.6
288(9) 0.01095 271.6 30.2
306(9) 0.01042 271.6 28.8
294(9) 0.01145 271.6 27.6
289(9) 0.01105 271.6 26.3
281(9) 0.01110 271.6 25.2
298(10) 0.00983 271.6 24.1
276(9) 0.01170 271.6 23.1
290(9) 0.01151 271.6 22.2
280(9) 0.01122 271.6 21.3
291(9) 0.01073 271.6 20.5
288(9) 0.01099 271.6 19.7
312(9) 0.01057 271.6 19.0
276(9) 0.01201 271.6 18.3
313(10) 0.00981 271.6 17.6
266(9) 0.01119 271.6 17.1
273(9) 0.01127 271.6 16.5
306(9) 0.01084 271.6 16.0
275(9) 0.01201 271.6 15.6
252(9) 0.01191 271.6 15.1
262(9) 0.01113 271.6 14.7
257(8) 0.01241 271.6 14.4
299(9) 0.01118 271.6 14.0
294(9) 0.01143 271.6 13.7
291(9) 0.01046 271.6 13.4
271(9) 0.01102 271.6 13.2
287(9) 0.01075 271.6 12.9
278(9) 0.01180 271.6 12.7
289(9) 0.01153 271.6 12.6
293(9) 0.01085 271.6 12.4
296(10) 0.00981 271.6 12.2
285(9) 0.01113 271.6 12.1
277(9) 0.01183 271.6 12.0
262(9) 0.01224 271.6 11.9
286(9) 0.01119 271.6 11.9
291(9) 0.01044 271.6 11.8
295(9) 0.01086 271.6 11.8
283(9) 0.01166 271.6 11.8
272(9) 0.01183 271.6 11.8
294(9) 0.01049 271.6 11.8
313(10) 0.00961 271.6 11.9
284(9) 0.01154 271.6 11.9
272(9) 0.01226 271.6 12.0
276(9) 0.01175 271.6 12.2
285(9) 0.01101 271.6 12.3
285(9) 0.01033 271.6 12.5
281(9) 0.01120 271.6 12.7
273(9) 0.01207 271.6 12.9
288(9) 0.01142 271.6 13.1
281(9) 0.01116 271.6 13.4
300(9) 0.01009 271.6 13.7
285(9) 0.01111 271.6 14.1
295(9) 0.01139 271.6 14.5
293(9) 0.01075 271.6 15.0
289(9) 0.01022 271.6 15.5
281(9) 0.01068 271.6 16.0
278(9) 0.01126 271.6 16.6
289(9) 0.01156 271.6 17.3
311(9) 0.01026 271.6 18.0
322(10) 0.00958 271.6 18.8
282(9) 0.01118 271.6 19.7
308(9) 0.01050 271.6 20.6
305(9) 0.01101 271.6 21.6
295(9) 0.01084 271.6 22.7
286(9) 0.01070 271.6 23.9
314(10) 0.00995 271.6 25.2
310(9) 0.01062 271.6 26.5
314(9) 0.01074 271.6 27.9
290(9) 0.01083 271.6 29.3
306(10) 0.00976 271.6 30.8
297(9) 0.01049 271.6 32.3
287(9) 0.01168 271.6 33.8
296(9) 0.01124 271.6 35.2
317(10) 0.00948 271.6 36.6
312(10) 0.00967 271.6 37.9
307(9) 0.01051 271.6 39.0
325(9) 0.01021 271.6 39.8
336(10) 0.00989 271.6 40.5
308(9) 0.01048 271.6 40.9
310(10) 0.00964 271.6 40.9
308(9) 0.01013 271.6 40.7
307(9) 0.01103 271.6 40.2
315(9) 0.01046 271.6 39.5
321(10) 0.00971 271.6 38.5
281(9) 0.01051 271.6 37.4
309(10) 0.01006 271.6 36.1
314(9) 0.01075 271.6 34.7
310(9) 0.01067 271.6 33.4
303(9) 0.01070 271.6 31.9
299(9) 0.01031 271.6 30.6
296(9) 0.01091 271.6 29.2
307(9) 0.01098 271.6 27.9
288(9) 0.01122 271.6 26.7
287(9) 0.01079 271.6 25.5
296(9) 0.01018 271.6 24.5
298(9) 0.01070 271.6 23.5
293(9) 0.01150 271.6 22.6
276(9) 0.01152 271.6 21.7
295(9) 0.01055 271.6 21.0
289(9) 0.01073 271.6 20.3
297(9) 0.01039 271.6 19.7
288(9) 0.01171 271.6 19.2
283(9) 0.01111 271.6 18.8
297(9) 0.01066 271.6 18.4
312(9) 0.01012 271.6 18.0
286(9) 0.01122 271.6 17.8
280(9) 0.01185 271.6 17.5
306(9) 0.01031 271.6 17.4
271(9) 0.01148 271.6 17.3
278(9) 0.01154 271.6 17.2
273(9) 0.01156 271.6 17.2
278(9) 0.01198 271.6 17.2
291(9) 0.01084 271.6 17.2
288(9) 0.01045 271.6 17.3
289(9) 0.01082 271.6 17.5
284(9) 0.01157 271.6 17.6
282(9) 0.01183 271.6 17.8
296(9) 0.01058 271.6 18.0
299(9) 0.01026 271.6 18.3
277(9) 0.01131 271.6 18.6
284(9) 0.01177 271.6 18.9
289(9) 0.01156 271.6 19.2
289(9) 0.01068 271.6 19.6
285(9) 0.01050 271.6 20.0
324(10) 0.00949 271.6 20.4
301(9) 0.01091 271.6 20.8
297(9) 0.01129 271.6 21.2
312(10) 0.01000 271.6 21.6
303(10) 0.00977 271.6 22.1
317(10) 0.00997 271.6 22.5
296(9) 0.01129 271.6 22.9
287(9) 0.01146 271.6 23.3
279(9) 0.01116 271.6 23.7
296(10) 0.00968 271.6 24.1
288(9) 0.01086 271.6 24.4
310(9) 0.01068 271.6 24.7
322(9) 0.01030 271.6 25.0
313(10) 0.00946 271.6 25.2
295(10) 0.00991 271.6 25.4
298(9) 0.01044 271.6 25.5
334(10) 0.01005 271.6 25.5
313(9) 0.01062 271.6 25.5
295(9) 0.01052 271.6 25.5
292(9) 0.01051 271.6 25.4
309(9) 0.01040 271.6 25.2
310(9) 0.01067 271.6 25.0
294(9) 0.01116 271.6 24.7
282(9) 0.01115 271.6 24.4
303(9) 0.01011 271.6 24.1
296(9) 0.01080 271.6 23.7
307(9) 0.01091 271.6 23.3
293(9) 0.01104 271.6 22.8
309(10) 0.00985 271.6 22.4
293(9) 0.01063 271.6 21.9
291(9) 0.01101 271.6 21.4
298(9) 0.01121 271.6 20.9
288(9) 0.01119 271.6 20.4
289(9) 0.01060 271.6 20.0
291(9) 0.01045 271.6 19.5
296(9) 0.01051 271.6 19.0
284(9) 0.01170 271.6 18.6
293(9) 0.01065 271.6 18.1
293(9) 0.01057 271.6 17.7
279(9) 0.01076 271.6 17.3
309(9) 0.01053 271.6 16.9
295(9) 0.01127 271.6 16.5
280(9) 0.01071 271.6 16.1
291(9) 0.01025 271.6 15.8
291(9) 0.01035 271.6 15.4
295(9) 0.01108 271.6 15.1
285(9) 0.01173 271.6 14.8
296(9) 0.01069 271.6 14.6
282(9) 0.01086 271.6 14.3
279(9) 0.01170 271.6 14.1
284(9) 0.01181 271.6 13.9
279(9) 0.01169 271.6 13.7
272(9) 0.01171 271.6 13.5
262(9) 0.01145 271.6 13.4
281(9) 0.01104 271.6 13.2
265(8) 0.01245 271.6 13.1
288(9) 0.01164 271.6 13.0
279(9) 0.01111 271.6 12.9
244(9) 0.01206 271.6 12.9
284(9) 0.01097 271.6 12.8
273(9) 0.01221 271.6 12.8
265(9) 0.01214 271.6 12.8
270(9) 0.01158 271.6 12.8
269(9) 0.01084 271.6 12.8
280(9) 0.01150 271.6 12.8
311(9) 0.01077 271.6 12.9
284(9) 0.01122 271.6 13.0
284(9) 0.01088 271.6 13.1
279(9) 0.01091 271.6 13.2
263(9) 0.01140 271.6 13.3
270(9) 0.01229 271.6 13.4
284(9) 0.01158 271.6 13.6
286(9) 0.01118 271.6 13.7
290(9) 0.01070 271.6 13.9
289(9) 0.01092 271.6 14.1
292(9) 0.01147 271.6 14.4
269(9) 0.01209 271.6 14.6
297(9) 0.01036 271.6 14.9
282(9) 0.01051 271.6 15.2
272(9) 0.01127 271.6 15.5
298(9) 0.01123 271.6 15.8
295(9) 0.01035 271.6 16.1
282(9) 0.01076 271.6 16.5
270(9) 0.01154 271.6 16.8
284(9) 0.01121 271.6 17.2
283(9) 0.01165 271.6 17.7
279(9) 0.01165 271.6 18.1
277(9) 0.01161 271.6 18.5
282(9) 0.01128 271.6 19.0
289(9) 0.01121 271.6 19.5
290(9) 0.01141 271.6 20.0
276(9) 0.01130 271.6 20.5
288(9) 0.01043 271.6 21.0
293(9) 0.01088 271.6 21.5
329(10) 0.00984 271.6 22.1
302(9) 0.01109 271.6 22.6
275(9) 0.01157 271.6 23.2
286(9) 0.01034 271.6 23.7
291(9) 0.01097 271.6 24.2
304(9) 0.01081 271.6 24.7
298(9) 0.01114 271.6 25.2
308(9) 0.01027 271.6 25.7
307(10) 0.00956 271.6 26.2
286(9) 0.01106 271.6 26.6
287(9) 0.01150 271.6 27.0
296(9) 0.01137 271.6 27.3
281(9) 0.01116 271.6 27.6
283(9) 0.01050 271.6 27.9
304(9) 0.01019 271.6 28.1
279(9) 0.01166 271.6 28.2
296(9) 0.01138 271.6 28.3
304(9) 0.01044 271.6 28.3
286(9) 0.01021 271.6 28.3
291(9) 0.01075 271.6 28.2
279(9) 0.01198 271.6 28.0
276(9) 0.01203 271.6 27.8
284(9) 0.01075 271.6 27.5
305(10) 0.00935 271.6 27.1
316(10) 0.00957 271.6 26.8
300(9) 0.01128 271.6 26.3
286(9) 0.01141 271.6 25.9
312(10) 0.00993 271.6 25.4
307(10) 0.00976 271.6 24.9
288(9) 0.01092 271.6 24.4
267(8) 0.01240 271.6 23.8
285(9) 0.01152 271.6 23.3
301(9) 0.01034 271.6 22.7
308(10) 0.00956 271.6 22.1
294(9) 0.01078 271.6 21.6
314(9) 0.01065 271.6 21.0
294(9) 0.01093 271.6 20.5
304(10) 0.00983 271.6 19.9
286(9) 0.01056 271.6 19.4
277(9) 0.01124 271.6 18.9
296(9) 0.01148 271.6 18.4
295(9) 0.01072 271.6 17.9
280(9) 0.01072 271.6 17.4
257(9) 0.01187 271.6 16.9
271(9) 0.01190 271.6 16.5
284(9) 0.01166 271.6 16.1
289(9) 0.01033 271.6 15.6
280(9) 0.01074 271.6 15.3
271(9) 0.01130 271.6 14.9
286(9) 0.01106 271.6 14.5
278(9) 0.01205 271.6 14.2
278(9) 0.01124 271.6 13.9
269(9) 0.01147 271.6 13.5
280(9) 0.01143 271.6 13.2
307(9) 0.01080 271.6 13.0
258(8) 0.01271 271.6 12.7
265(9) 0.01185 271.6 12.5
277(9) 0.01066 271.6 12.2
312(10) 0.00965 271.6 12.0
273(9) 0.01199 271.6 11.8
291(9) 0.01134 271.6 11.6
280(9) 0.01100 271.6 11.4
270(9) 0.01062 271.6 11.2
267(9) 0.01174 271.6 11.1
265(9) 0.01218 271.6 10.9
286(9) 0.01163 271.6 10.8
298(9) 0.01067 271.6 10.7
261(9) 0.01137 271.6 10.6
267(9) 0.01155 271.6 10.4
289(9) 0.01153 271.6 10.3
264(9) 0.01225 271.6 10.3
271(9) 0.01181 271.6 10.2
298(9) 0.01037 271.6 10.1
301(9) 0.01037 271.6 10.0
269(8) 0.01232 271.6 10.0
277(9) 0.01161 271.6 9.9
284(9) 0.01063 271.6 9.9
282(9) 0.01062 271.6 9.9
261(9) 0.01208 271.6 9.8
278(9) 0.01203 271.6 9.8
280(9) 0.01140 271.6 9.8
260(9) 0.01194 271.6 9.8
268(9) 0.01130 271.6 9.8
297(9) 0.01029 271.6 9.8
296(9) 0.01127 271.6 9.8
261(8) 0.01271 271.6 9.8
308(10) 0.00990 271.6 9.9
280(9) 0.01118 271.6 9.9
272(9) 0.01158 271.6 9.9
271(8) 0.01239 271.6 10.0
282(9) 0.01109 271.6 10.0
269(9) 0.01144 271.6 10.1
280(9) 0.01086 271.6 10.2
273(9) 0.01163 271.6 10.2
274(9) 0.01207 271.6 10.3
261(9) 0.01189 271.6 10.4
290(9) 0.01049 271.6 10.5
279(9) 0.01107 271.6 10.6
281(9) 0.01140 271.6 10.7
274(9) 0.01226 271.6 10.8
284(9) 0.01083 271.6 11.0
286(9) 0.01042 271.6 11.1
258(9) 0.01167 271.7 11.2
300(9) 0.01104 271.7 11.4
266(8) 0.01243 271.7 11.5
260(9) 0.01190 271.7 11.7
286(9) 0.01043 271.7 11.9
274(9) 0.01204 271.7 12.1
295(9) 0.01149 271.7 12.2
299(9) 0.01108 271.7 12.4
300(9) 0.01052 271.7 12.6
282(9) 0.01067 271.7 12.8
268(9) 0.01173 271.7 13.0
270(9) 0.01224 271.7 13.3
292(9) 0.01119 271.7 13.5
293(9) 0.01099 271.7 13.7
285(9) 0.01042 271.7 13.9
294(9) 0.01052 271.7 14.1
284(9) 0.01169 271.7 14.3
287(9) 0.01171 271.7 14.5
281(9) 0.01079 271.7 14.7
265(9) 0.01081 271.7 14.8
275(9) 0.01100 271.7 15.0
282(9) 0.01186 271.7 15.1
260(8) 0.01265 271.7 15.3
277(9) 0.01151 271.7 15.4
277(9) 0.01088 271.7 15.5
258(9) 0.01209 271.7 15.6
258(8) 0.01270 271.7 15.7
263(9) 0.01205 271.8 15.8
273(9) 0.01155 271.8 15.9
291(9) 0.01051 271.8 15.9
268(9) 0.01110 271.8 16.0
266(8) 0.01237 271.8 16.1
306(9) 0.01058 271.8 16.1
287(9) 0.01055 271.8 16.2
255(9) 0.01185 271.8 16.3
278(9) 0.01107 271.8 16.3
287(9) 0.01163 271.8 16.4
285(9) 0.01080 271.8 16.5
304(9) 0.01031 271.8 16.7
267(9) 0.01220 271.8 16.8
301(9) 0.01074 271.8 16.9
289(9) 0.01151 271.8 17.1
278(9) 0.01171 271.8 17.3
293(9) 0.01057 271.8 17.5
277(9) 0.01093 271.8 17.7
277(9) 0.01197 271.8 17.9
286(9) 0.01153 271.8 18.2
278(9) 0.01117 271.8 18.5
298(10) 0.00986 271.8 18.9
286(9) 0.01130 271.8 19.2
311(9) 0.01044 271.8 19.7
278(9) 0.01208 271.8 20.2
290(9) 0.01065 271.8 20.7
287(9) 0.01075 271.9 21.4
304(9) 0.01023 271.9 22.3
282(9) 0.01144 271.9 23.3
266(8) 0.01257 271.9 24.7
283(9) 0.01106 271.9 26.3
303(10) 0.00941 271.9 28.4
296(10) 0.01000 271.9 30.9
295(9) 0.01138 271.9 34.0
315(9) 0.01053 271.9 37.5
302(9) 0.01055 271.9 41.5
293(9) 0.01020 271.9 45.7
325(10) 0.00970 271.9 50.0
316(9) 0.01051 271.9 53.9
320(9) 0.01054 271.9 56.9
303(9) 0.01083 271.9 58.4
311(10) 0.00949 271.9 58.2
298(9) 0.01059 271.9 56.2
325(9) 0.01027 271.9 53.1
312(9) 0.01069 271.9 49.2
330(10) 0.00957 271.9 45.2
290(9) 0.01058 271.9 41.3
295(9) 0.01027 271.9 37.8
318(9) 0.01066 271.9 34.8
309(9) 0.01051 271.9 32.2
284(9) 0.01075 271.9 30.1
305(10) 0.00977 271.9 28.4
309(10) 0.01001 271.9 27.0
304(9) 0.01098 272.0 26.0
308(9) 0.01068 272.0 25.1
298(9) 0.01065 272.0 24.4
310(10) 0.00997 272.0 23.8
301(9) 0.01070 272.0 23.3
313(9) 0.01084 272.0 22.8
287(9) 0.01105 272.0 22.4
286(9) 0.01064 272.0 21.9
307(9) 0.01045 272.0 21.5
286(9) 0.01130 272.0 21.1
308(9) 0.01098 272.0 20.7
296(9) 0.01031 272.0 20.3
299(9) 0.01033 272.0 19.9
282(9) 0.01141 272.0 19.6
280(9) 0.01162 272.0 19.2
286(9) 0.01158 272.0 18.8
285(9) 0.01084 272.0 18.4
288(9) 0.01062 272.0 18.0
281(9) 0.01127 272.0 17.7
304(9) 0.01077 272.0 17.3
284(9) 0.01183 272.0 17.0
297(10) 0.00995 272.0 16.6
288(9) 0.01069 272.0 16.3
289(9) 0.01100 272.0 15.9
300(9) 0.01091 272.0 15.6
294(9) 0.01127 272.0 15.3
320(10) 0.00964 272.1 14.9
308(10) 0.00950 272.1 14.6
281(9) 0.01137 272.1 14.3
285(9) 0.01172 272.1 14.0
271(9) 0.01207 272.1 13.7
277(9) 0.01089 272.1 13.5
250(9) 0.01191 272.1 13.2
298(9) 0.01061 272.1 12.9
269(8) 0.01247 272.1 12.7
253(8) 0.01289 272.1 12.4
270(9) 0.01133 272.1 12.2
266(9) 0.01107 272.1 11.9
277(9) 0.01125 272.1 11.7
275(9) 0.01188 272.1 11.5
288(9) 0.01147 272.1 11.3
288(9) 0.01086 272.1 11.1
276(9) 0.01112 272.1 10.9
284(9) 0.01101 272.1 10.7
287(9) 0.01158 272.1 10.5
278(9) 0.01183 272.1 10.4
271(9) 0.01177 272.1 10.2
293(9) 0.01069 272.1 10.0
295(9) 0.01073 272.1 9.9
264(8) 0.01246 272.1 9.7
274(9) 0.01136 272.1 9.6
256(9) 0.01192 272.1 9.5
275(9) 0.01057 272.1 9.3
263(9) 0.01174 272.2 9.2
268(8) 0.01238 272.2 9.1
271(9) 0.01182 272.2 9.0
279(9) 0.01083 272.2 8.9
284(9) 0.01097 272.2 8.8
293(9) 0.01087 272.2 8.7
294(9) 0.01131 272.2 8.6
297(9) 0.01071 272.2 8.5
266(9) 0.01188 272.2 8.5
286(9) 0.01081 272.2 8.4
294(9) 0.01086 272.2 8.3
273(9) 0.01209 272.2 8.3
278(9) 0.01155 272.2 8.2
290(9) 0.01035 272.2 8.2
279(9) 0.01133 272.2 8.1
258(8) 0.01270 272.2 8.1
293(9) 0.01133 272.2 8.1
275(9) 0.01130 272.2 8.0
267(9) 0.01106 272.2 8.0
293(9) 0.01086 272.2 8.0
285(9) 0.01162 272.2 8.0
274(9) 0.01204 272.2 8.0
268(9) 0.01155 272.2 8.0
279(9) 0.01058 272.2 8.0
291(9) 0.01074 272.2 8.0
285(9) 0.01144 272.2 8.0
289(9) 0.01150 272.2 8.1
273(9) 0.01172 272.3 8.1
271(9) 0.01068 272.3 8.1
268(9) 0.01146 272.3 8.2
259(8) 0.01260 272.3 8.3
265(8) 0.01245 272.3 8.3
298(9) 0.01031 272.3 8.4
263(9) 0.01120 272.3 8.5
268(9) 0.01185 272.3 8.6
283(9) 0.01164 272.3 8.7
264(8) 0.01248 272.3 8.9
275(9) 0.01143 272.3 9.0
270(9) 0.01075 272.3 9.2
258(9) 0.01193 272.3 9.5
277(9) 0.01205 272.3 9.7
293(9) 0.01136 272.3 10.0
270(9) 0.01175 272.3 10.4
269(9) 0.01074 272.3 10.9
263(9) 0.01178 272.3 11.5
260(8) 0.01258 272.3 12.2
304(9) 0.01077 272.3 13.1
305(9) 0.01047 272.3 14.2
298(9) 0.01070 272.3 15.7
293(9) 0.01070 272.3 17.5
293(9) 0.01155 272.3 19.8
297(9) 0.01068 272.3 22.5
308(9) 0.01036 272.3 25.8
360(10) 0.00860 272.4 29.5
330(10) 0.01007 272.4 33.8
325(9) 0.01038 272.4 38.6
311(9) 0.01020 272.4 43.5
340(10) 0.00930 272.4 48.4
343(10) 0.00938 272.4 52.7
330(10) 0.00991 272.4 56.0
334(9) 0.01009 272.4 57.6
348(10) 0.00909 272.4 57.3
312(10) 0.01003 272.4 55.1
320(10) 0.00990 272.4 51.5
346(10) 0.00930 272.4 46.9
323(9) 0.01056 272.4 41.9
319(10) 0.00994 272.4 37.0
301(9) 0.01040 272.4 32.3
301(9) 0.01028 272.4 28.1
258(8) 0.01241 272.4 24.5
296(9) 0.01115 272.4 21.3
294(9) 0.01073 272.4 18.7
322(10) 0.00945 272.4 16.6
288(9) 0.01110 272.4 14.8
281(9) 0.01162 272.4 13.4
312(9) 0.01074 272.4 12.3
296(9) 0.01075 272.4 11.4
273(9) 0.01053 272.4 10.7
275(9) 0.01146 272.4 10.2
295(9) 0.01114 272.4 9.7
287(9) 0.01165 272.5 9.3
300(9) 0.01045 272.5 9.0
305(10) 0.00970 272.5 8.7
293(9) 0.01069 272.5 8.5
281(9) 0.01198 272.5 8.3
243(8) 0.01308 272.5 8.1
285(9) 0.01086 272.5 7.9
282(9) 0.01047 272.5 7.8
281(9) 0.01087 272.5 7.6
270(9) 0.01226 272.5 7.5
295(9) 0.01111 272.5 7.4
281(9) 0.01124 272.5 7.3
259(9) 0.01178 272.5 7.2
282(9) 0.01145 272.5 7.2
294(9) 0.01133 272.5 7.1
298(9) 0.01106 272.5 7.0
280(9) 0.01147 272.5 7.0
270(9) 0.01147 272.5 6.9
263(9) 0.01202 272.5 6.8
249(8) 0.01317 272.5 6.8
283(9) 0.01148 272.5 6.8
293(9) 0.01053 272.5 6.7
295(9) 0.01039 272.5 6.7
285(9) 0.01124 272.5 6.7
272(9) 0.01202 272.5 6.6
291(9) 0.01072 272.5 6.6
267(9) 0.01173 272.6 6.6
280(9) 0.01110 272.6 6.6
288(9) 0.01123 272.6 6.5
246(8) 0.01320 272.6 6.5
271(9) 0.01140 272.6 6.5
278(9) 0.01086 272.6 6.5
279(9) 0.01129 272.6 6.5
281(9) 0.01162 272.6 6.6
275(9) 0.01209 272.6 6.6
264(9) 0.01160 272.6 6.6
281(9) 0.01040 272.6 6.7
257(9) 0.01183 272.6 6.8
272(9) 0.01195 272.6 6.9
297(9) 0.01116 272.6 7.1
271(9) 0.01184 272.6 7.3
307(10) 0.00958 272.6 7.6
280(9) 0.01131 272.6 8.0
286(9) 0.01129 272.6 8.4
304(9) 0.01100 272.6 8.9
282(9) 0.01127 272.6 9.5
293(10) 0.01007 272.6 10.2
296(9) 0.01066 272.6 10.9
296(9) 0.01122 272.6 11.6
310(9) 0.01078 272.6 12.2
301(9) 0.01047 272.6 12.7
268(9) 0.01102 272.6 12.9
254(8) 0.01271 272.6 12.9
271(9) 0.01213 272.7 12.5
271(9) 0.01221 272.7 12.0
265(9) 0.01159 272.7 11.3
292(10) 0.00973 272.7 10.5
276(9) 0.01109 272.7 9.7
284(9) 0.01153 272.7 9.0
275(9) 0.01205 272.7 8.4
291(9) 0.01044 272.7 7.9
296(10) 0.00975 272.7 7.4
280(9) 0.01119 272.7 7.0
279(9) 0.01184 272.7 6.7
290(9) 0.01088 272.7 6.4
259(9) 0.01178 272.7 6.2
272(9) 0.01079 272.7 6.1
284(9) 0.01073 272.7 6.0
278(9) 0.01204 272.7 5.9
280(9) 0.01157 272.7 5.8
270(9) 0.01156 272.7 5.7
258(9) 0.01135 272.7 5.7
278(9) 0.01083 272.7 5.6
261(8) 0.01253 272.7 5.6
264(9) 0.01196 272.7 5.6
277(9) 0.01103 272.7 5.5
297(9) 0.01073 272.7 5.5
306(9) 0.01055 272.7 5.5
271(9) 0.01220 272.7 5.5
269(9) 0.01146 272.8 5.5
295(9) 0.01010 272.8 5.5
291(9) 0.01059 272.8 5.5
256(8) 0.01241 272.8 5.5
280(9) 0.01182 272.8 5.5
291(9) 0.01074 272.8 5.5
311(10) 0.00950 272.8 5.5
261(9) 0.01150 272.8 5.5
262(8) 0.01239 272.8 5.5
299(9) 0.01109 272.8 5.6
279(9) 0.01143 272.8 5.6
272(9) 0.01096 272.8 5.6
272(9) 0.01130 272.8 5.6
269(9) 0.01198 272.8 5.7
303(9) 0.01106 272.8 5.7
282(9) 0.01103 272.8 5.8
275(9) 0.01066 272.9 5.8
279(9) 0.01097 272.9 5.8
269(9) 0.01222 272.9 5.9
286(9) 0.01148 272.9 5.9
289(9) 0.01046 272.9 6.0
286(10) 0.00989 273.0 6.0
294(9) 0.01043 273.0 6.1
274(9) 0.01188 273.0 6.2
266(8) 0.01255 273.0 6.2
285(9) 0.01093 273.0 6.3
285(9) 0.01037 273.1 6.4
267(9) 0.01130 273.1 6.5
272(9) 0.01185 273.1 6.5
257(8) 0.01269 273.1 6.6
289(9) 0.01068 273.1 6.7
305(10) 0.00990 273.2 6.8
284(9) 0.01077 273.2 6.9
296(9) 0.01139 273.2 7.0
284(9) 0.01140 273.2 7.1
285(9) 0.01108 273.2 7.2
295(9) 0.01046 273.3 7.4
308(9) 0.01018 273.3 7.5
276(9) 0.01191 273.3 7.6
265(8) 0.01231 273.3 7.8
276(9) 0.01183 273.3 7.9
280(9) 0.01112 273.4 8.1
280(9) 0.01105 273.4 8.2
285(9) 0.01184 273.4 8.4
281(9) 0.01125 273.4 8.6
282(9) 0.01097 273.4 8.8
288(9) 0.01080 273.5 9.0
281(9) 0.01128 273.5 9.2
271(9) 0.01213 273.5 9.5
265(9) 0.01198 273.5 9.7
277(9) 0.01103 273.5 10.0
276(9) 0.01103 273.6 10.3
287(9) 0.01133 273.6 10.7
276(9) 0.01190 273.6 11.0
305(9) 0.01013 273.6 11.4
280(9) 0.01072 273.6 11.8
278(9) 0.01109 273.7 12.3
297(9) 0.01079 273.7 12.8
296(9) 0.01148 273.7 13.3
282(9) 0.01090 273.7 13.9
276(9) 0.01069 273.7 14.6
283(9) 0.01098 273.8 15.3
296(9) 0.01089 273.8 16.1
307(9) 0.01094 273.8 16.9
303(9) 0.01023 273.8 17.9
294(9) 0.01035 273.8 18.9
297(9) 0.01132 273.9 20.0
314(9) 0.01062 273.9 21.2
298(9) 0.01035 273.9 22.5
277(9) 0.01110 273.9 23.9
290(9) 0.01106 273.9 25.3
320(9) 0.01049 274.0 26.8
282(9) 0.01184 274.0 28.3
315(10) 0.00994 274.0 29.7
312(10) 0.00940 274.0 31.1
319(10) 0.00979 274.0 32.4
327(9) 0.01025 274.1 33.5
290(9) 0.01140 274.1 34.4
301(9) 0.01036 274.1 35.1
305(10) 0.00972 274.1 35.5
287(9) 0.01064 274.1 35.7
286(9) 0.01159 274.2 35.5
301(9) 0.01097 274.2 35.2
307(9) 0.01051 274.2 34.6
302(9) 0.01027 274.2 33.8
318(10) 0.01002 274.2 32.8
317(9) 0.01056 274.3 31.7
298(9) 0.01094 274.3 30.5
293(9) 0.01067 274.3 29.2
289(9) 0.01060 274.3 27.9
299(9) 0.01029 274.3 26.7
260(8) 0.01263 274.4 25.5
268(9) 0.01158 274.4 24.4
276(9) 0.01112 274.4 23.3
302(10) 0.00995 274.4 22.3
289(9) 0.01086 274.4 21.4
287(9) 0.01163 274.5 20.6
286(9) 0.01146 274.5 19.8
273(9) 0.01166 274.5 19.1
297(9) 0.01041 274.5 18.5
294(9) 0.01099 274.5 17.9
298(9) 0.01124 274.6 17.4
286(9) 0.01076 274.6 16.9
290(9) 0.01049 274.6 16.5
284(9) 0.01100 274.6 16.1
284(9) 0.01129 274.6 15.8
282(9) 0.01177 274.7 15.4
275(9) 0.01135 274.7 15.1
275(9) 0.01119 274.7 14.8
285(9) 0.01112 274.7 14.6
301(9) 0.01078 274.8 14.3
298(9) 0.01127 274.8 14.1
293(9) 0.01085 274.8 13.9
303(10) 0.00976 274.8 13.6
294(9) 0.01062 274.8 13.4
279(9) 0.01182 274.9 13.2
286(9) 0.01145 274.9 13.1
290(9) 0.01076 274.9 12.9
312(10) 0.00940 274.9 12.7
287(9) 0.01123 274.9 12.6
290(9) 0.01138 275.0 12.4
274(9) 0.01220 275.0 12.3
260(9) 0.01226 275.0 12.1
282(9) 0.01051 275.0 12.0
295(9) 0.01068 275.0 11.9
303(9) 0.01099 275.1 11.8
296(9) 0.01106 275.1 11.7
293(9) 0.01028 275.1 11.5
297(10) 0.00997 275.1 11.4
295(9) 0.01064 275.1 11.3
284(9) 0.01177 275.2 11.3
298(9) 0.01106 275.2 11.2
284(9) 0.01088 275.2 11.1
277(9) 0.01078 275.2 11.0
300(9) 0.01077 275.2 10.9
307(9) 0.01101 275.3 10.9
282(9) 0.01147 275.3 10.8
301(10) 0.00989 275.3 10.8
283(9) 0.01029 275.3 10.7
296(9) 0.01069 275.3 10.7
277(9) 0.01195 275.4 10.6
260(8) 0.01245 275.4 10.6
273(9) 0.01194 275.4 10.6
290(9) 0.01040 275.4 10.5
273(9) 0.01159 275.4 10.5
275(9) 0.01203 275.5 10.5
302(9) 0.01068 275.5 10.4
279(9) 0.01109 275.5 10.4
283(9) 0.01089 275.5 10.4
265(9) 0.01210 275.5 10.4
288(9) 0.01156 275.6 10.4
286(9) 0.01113 275.6 10.4
301(9) 0.01049 275.6 10.4
283(9) 0.01087 275.6 10.3
272(9) 0.01138 275.6 10.3
291(9) 0.01137 275.7 10.3
275(9) 0.01104 275.7 10.3
277(9) 0.01095 275.7 10.3
271(9) 0.01192 275.7 10.3
298(9) 0.01084 275.7 10.3
267(9) 0.01228 275.8 10.3
264(9) 0.01170 275.8 10.2
260(9) 0.01159 275.8 10.2
288(9) 0.01044 275.8 10.2
284(9) 0.01133 275.8 10.2
288(9) 0.01157 275.9 10.2
300(9) 0.01040 275.9 10.1
289(9) 0.01039 275.9 10.1
295(9) 0.01030 275.9 10.1
271(9) 0.01207 275.9 10.1
279(9) 0.01190 276.0 10.0
303(9) 0.01021 276.0 10.0
304(10) 0.00943 276.0 10.0
284(9) 0.01117 276.0 10.0
274(9) 0.01212 276.0 9.9
291(9) 0.01139 276.1 9.9
276(9) 0.01111 276.1 9.9
277(9) 0.01080 276.1 9.8
309(10) 0.00965 276.1 9.8
274(9) 0.01189 276.1 9.8
278(9) 0.01199 276.2 9.8
298(9) 0.01038 276.2 9.8
272(9) 0.01056 276.2 9.8
263(9) 0.01182 276.2 9.7
289(9) 0.01155 276.2 9.7
294(9) 0.01117 276.3 9.7
296(9) 0.01061 276.3 9.8
301(10) 0.00997 276.3 9.8
293(9) 0.01017 276.3 9.8
274(9) 0.01216 276.3 9.8
273(9) 0.01164 276.4 9.8
276(9) 0.01153 276.4 9.9
290(9) 0.01058 276.4 9.9
298(10) 0.00998 276.4 10.0
282(9) 0.01179 276.4 10.1
295(9) 0.01100 276.5 10.2
298(9) 0.01083 276.5 10.3
284(9) 0.01111 276.5 10.4
303(9) 0.01022 276.5 10.5
300(9) 0.01109 276.5 10.7
288(9) 0.01068 276.6 10.8
293(9) 0.01011 276.6 11.0
277(9) 0.01094 276.6 11.3
288(9) 0.01100 276.6 11.5
317(9) 0.01044 276.6 11.9
290(9) 0.01070 276.7 12.2
298(9) 0.01012 276.7 12.7
313(10) 0.00950 276.7 13.2
295(9) 0.01133 276.7 13.9
290(9) 0.01129 276.7 14.6
293(9) 0.01047 276.8 15.5
316(10) 0.00933 276.8 16.6
286(9) 0.01111 276.8 17.8
279(9) 0.01184 276.8 19.3
287(9) 0.01161 276.8 20.9
296(9) 0.01072 276.9 22.7
294(9) 0.01049 276.9 24.7
300(9) 0.01063 276.9 26.9
316(9) 0.01046 276.9 29.1
302(9) 0.01114 276.9 31.3
291(9) 0.01090 277.0 33.4
301(10) 0.00983 277.0 35.0
297(9) 0.01050 277.0 36.2
285(9) 0.01174 277.0 36.6
299(9) 0.01098 277.0 36.3
313(9) 0.01016 277.1 35.4
297(9) 0.01010 277.1 34.0
310(10) 0.00974 277.1 32.3
295(9) 0.01136 277.1 30.4
340(10) 0.00994 277.1 28.6
322(10) 0.00972 277.2 26.9
281(9) 0.01079 277.2 25.4
300(9) 0.01063 277.2 24.0
286(9) 0.01160 277.2 22.8
260(8) 0.01254 277.2 21.9
271(9) 0.01126 277.3 21.2
278(9) 0.01074 277.3 20.6
305(9) 0.01013 277.3 20.2
290(9) 0.01149 277.3 19.9
316(9) 0.01030 277.3 19.8
274(9) 0.01183 277.4 19.8
292(9) 0.01081 277.4 19.9
307(9) 0.01054 277.4 20.0
274(9) 0.01218 277.4 20.3
293(9) 0.01102 277.5 20.6
285(9) 0.01064 277.5 21.0
298(10) 0.01003 277.5 21.4
276(9) 0.01175 277.5 22.0
310(9) 0.01088 277.5 22.5
317(10) 0.00996 277.6 23.2
294(9) 0.01063 277.6 24.0
284(9) 0.01093 277.6 24.8
278(9) 0.01165 277.6 25.8
314(9) 0.01074 277.6 27.0
307(9) 0.01033 277.7 28.3
307(9) 0.01024 277.7 29.8
308(9) 0.01012 277.7 31.6
302(9) 0.01077 277.7 33.6
314(9) 0.01062 277.7 35.9
325(10) 0.00951 277.8 38.6
307(10) 0.00968 277.8 41.6
320(10) 0.00968 277.8 45.0
318(9) 0.01026 277.8 48.8
329(9) 0.01024 277.8 52.9
338(10) 0.00945 277.9 57.4
332(10) 0.00889 277.9 62.1
316(10) 0.01006 277.9 66.9
347(10) 0.00968 277.9 71.7
364(10) 0.00924 277.9 76.1
366(10) 0.00873 278.0 79.8
348(10) 0.00867 278.0 82.4
362(10) 0.00860 278.0 83.8
346(10) 0.00961 278.0 83.8
353(10) 0.00968 278.0 82.6
368(10) 0.00876 278.1 80.4
344(10) 0.00870 278.1 77.5
356(10) 0.00902 278.1 74.4
341(10) 0.00981 278.1 71.3
348(10) 0.00966 278.1 68.5
325(10) 0.00960 278.2 66.2
336(10) 0.00886 278.2 64.4
338(10) 0.00945 278.2 63.2
332(9) 0.01022 278.2 62.5
342(10) 0.00986 278.2 62.3
346(10) 0.00954 278.3 62.4
337(10) 0.00930 278.3 62.5
342(10) 0.00911 278.3 62.4
307(9) 0.01098 278.3 61.9
335(10) 0.00993 278.3 60.7
314(10) 0.00994 278.4 58.8
340(10) 0.00901 278.4 56.2
319(9) 0.01012 278.4 53.3
324(9) 0.01041 278.4 50.1
322(10) 0.01002 278.4 46.9
316(9) 0.01013 278.5 43.8
320(10) 0.00983 278.5 41.0
302(9) 0.01025 278.5 38.4
300(9) 0.01105 278.5 36.2
317(9) 0.01018 278.5 34.3
303(9) 0.01033 278.6 32.7
292(9) 0.01039 278.6 31.4
298(9) 0.01075 278.6 30.4
283(9) 0.01175 278.6 29.7
325(10) 0.00996 278.6 29.2
329(10) 0.00914 278.7 28.9
329(10) 0.00930 278.7 28.8
300(9) 0.01078 278.7 28.9
319(9) 0.01048 278.7 29.1
316(10) 0.00976 278.7 29.4
312(10) 0.00905 278.8 29.9
299(10) 0.00991 278.8 30.4
276(9) 0.01198 278.8 31.1
321(9) 0.01058 278.8 31.9
295(9) 0.01047 278.8 32.7
317(10) 0.00946 278.9 33.6
302(9) 0.01055 278.9 34.5
303(9) 0.01102 278.9 35.4
301(9) 0.01120 278.9 36.4
302(9) 0.01086 278.9 37.3
327(10) 0.00897 279.0 38.2
310(9) 0.01027 279.0 39.1
284(9) 0.01178 279.0 39.9
315(9) 0.01050 279.0 40.7
334(10) 0.00921 279.0 41.4
324(10) 0.00927 279.1 42.1
299(9) 0.01082 279.1 42.7
289(9) 0.01157 279.1 43.2
294(9) 0.01099 279.1 43.7
298(9) 0.01061 279.1 44.0
326(10) 0.00906 279.2 44.3
338(10) 0.00936 279.2 44.5
306(9) 0.01100 279.2 44.6
343(10) 0.00963 279.2 44.6
298(9) 0.01091 279.2 44.4
314(10) 0.00948 279.3 44.0
305(9) 0.01038 279.3 43.5
335(9) 0.01012 279.3 42.8
309(9) 0.01075 279.3 42.0
301(9) 0.01035 279.3 41.0
327(10) 0.00924 279.4 39.9
325(10) 0.00960 279.4 38.8
307(9) 0.01085 279.4 37.6
322(9) 0.01014 279.4 36.3
296(9) 0.01057 279.4 35.0
309(10) 0.00981 279.5 33.8
311(9) 0.01041 279.5 32.6
290(9) 0.01156 279.5 31.4
309(9) 0.01031 279.5 30.2
280(9) 0.01106 279.5 29.2
302(9) 0.01040 279.6 28.2
289(9) 0.01121 279.6 27.3
277(9) 0.01181 279.6 26.4
298(9) 0.01050 279.6 25.6
294(10) 0.00996 279.6 24.9
319(10) 0.00947 279.7 24.3
282(9) 0.01112 279.7 23.8
278(9) 0.01211 279.7 23.3
281(9) 0.01125 279.7 22.9
314(10) 0.00938 279.7 22.5
289(9) 0.01081 279.8 22.2
313(9) 0.01050 279.8 21.9
308(9) 0.01080 279.8 21.7
324(10) 0.00950 279.8 21.5
286(9) 0.01078 279.8 21.3
299(9) 0.01058 279.9 21.1
319(9) 0.01017 279.9 21.0
290(9) 0.01120 279.9 20.8
314(10) 0.00999 279.9 20.7
298(9) 0.01029 279.9 20.5
301(9) 0.01029 280.0 20.4
300(9) 0.01090 280.0 20.3
275(9) 0.01197 280.0 20.1
302(9) 0.01018 280.0 20.0
300(10) 0.00953 280.0 20.0
294(9) 0.01080 280.1 19.9
293(9) 0.01137 280.1 19.9
315(9) 0.01064 280.1 20.0
284(9) 0.01136 280.1 20.1
307(10) 0.00948 280.1 20.3
308(9) 0.01014 280.2 20.6
305(9) 0.01087 280.2 21.0
295(9) 0.01109 280.2 21.5
315(10) 0.00996 280.2 22.2
309(10) 0.00962 280.3 23.0
307(9) 0.01032 280.3 23.9
330(9) 0.01020 280.3 25.1
286(9) 0.01127 280.3 26.4
311(10) 0.01006 280.3 27.9
306(9) 0.01008 280.4 29.6
308(9) 0.01042 280.4 31.5
337(10) 0.00999 280.4 33.6
329(10) 0.01006 280.4 35.9
304(9) 0.01059 280.4 38.2
322(10) 0.00927 280.5 40.6
319(10) 0.00987 280.5 42.9
341(10) 0.00989 280.5 45.1
352(10) 0.00915 280.5 47.0
336(10) 0.00956 280.5 48.4
334(10) 0.00969 280.6 49.2
370(10) 0.00899 280.6 49.4
338(10) 0.00999 280.6 48.9
319(9) 0.01015 280.6 47.7
337(10) 0.00921 280.6 46.1
330(10) 0.00950 280.7 44.0
312(9) 0.01043 280.7 41.7
319(9) 0.01057 280.7 39.3
304(9) 0.01024 280.7 36.9
302(9) 0.01037 280.7 34.5
325(10) 0.00950 280.8 32.3
312(9) 0.01058 280.8 30.2
317(9) 0.01066 280.8 28.4
311(10) 0.01003 280.8 26.7
308(10) 0.00966 280.8 25.2
302(9) 0.01057 280.9 23.8
318(9) 0.01051 280.9 22.7
309(9) 0.01080 280.9 21.7
317(10) 0.00978 280.9 20.9
302(10) 0.00976 280.9 20.3
295(9) 0.01096 281.0 19.8
306(9) 0.01087 281.0 19.4
281(9) 0.01182 281.0 19.1
293(9) 0.01085 281.0 19.0
288(9) 0.01020 281.0 19.0
286(9) 0.01088 281.1 19.1
302(9) 0.01109 281.1 19.3
300(9) 0.01117 281.1 19.6
312(9) 0.01010 281.1 20.0
290(9) 0.01043 281.1 20.5
317(9) 0.01010 281.2 21.2
311(9) 0.01072 281.2 21.9
285(9) 0.01136 281.2 22.8
316(10) 0.00986 281.2 23.8
318(10) 0.00884 281.2 24.9
335(10) 0.00908 281.3 26.2
335(9) 0.01015 281.3 27.5
315(9) 0.01065 281.3 29.0
274(9) 0.01171 281.3 30.7
306(10) 0.00974 281.3 32.4
323(10) 0.00951 281.4 34.3
293(9) 0.01143 281.4 36.2
296(9) 0.01094 281.4 38.2
330(10) 0.00956 281.4 40.1
335(10) 0.00911 281.4 42.1
312(9) 0.01023 281.5 43.9
327(9) 0.01035 281.5 45.4
307(9) 0.01064 281.5 46.8
308(9) 0.01044 281.5 47.7
334(10) 0.00913 281.5 48.3
311(9) 0.01029 281.6 48.4
338(10) 0.00993 281.6 48.0
330(10) 0.00977 281.6 47.2
313(10) 0.00993 281.6 46.0
300(9) 0.01052 281.6 44.5
309(9) 0.01061 281.7 42.7
289(9) 0.01143 281.7 40.8
274(9) 0.01162 281.7 38.7
323(10) 0.00955 281.7 36.6
298(9) 0.01025 281.7 34.5
285(9) 0.01130 281.8 32.5
295(9) 0.01134 281.8 30.5
302(9) 0.01049 281.8 28.7
305(9) 0.01032 281.8 26.9
319(10) 0.00972 281.8 25.3
309(9) 0.01053 281.9 23.8
304(9) 0.01112 281.9 22.5
297(9) 0.01052 281.9 21.2
273(9) 0.01146 281.9 20.1
294(9) 0.01104 281.9 19.1
274(9) 0.01197 282.0 18.2
302(9) 0.01109 282.0 17.4
292(9) 0.01079 282.0 16.7
285(9) 0.01045 282.0 16.1
295(9) 0.01064 282.0 15.6
281(9) 0.01165 282.1 15.2
284(9) 0.01177 282.1 14.8
291(9) 0.01061 282.1 14.5
302(10) 0.00982 282.1 14.3
315(9) 0.01024 282.1 14.2
305(9) 0.01098 282.2 14.2
285(9) 0.01163 282.2 14.2
302(9) 0.01044 282.2 14.2
298(10) 0.01002 282.2 14.4
331(10) 0.00943 282.2 14.6
323(9) 0.01039 282.3 14.8
297(9) 0.01120 282.3 15.1
289(9) 0.01093 282.3 15.5
303(10) 0.00994 282.3 15.9
299(9) 0.01059 282.3 16.3
288(9) 0.01161 282.4 16.7
299(9) 0.01101 282.4 17.2
306(10) 0.01000 282.4 17.6
276(9) 0.01093 282.4 18.0
274(9) 0.01144 282.4 18.3
322(9) 0.01043 282.5 18.5
298(9) 0.01112 282.5 18.6
296(9) 0.01057 282.5 18.6
281(9) 0.01107 282.5 18.4
296(9) 0.01026 282.5 18.1
296(9) 0.01122 282.6 17.7
279(9) 0.01140 282.6 17.2
318(10) 0.00980 282.6 16.7
300(9) 0.01049 282.6 16.1
288(9) 0.01107 282.6 15.5
308(9) 0.01091 282.7 15.0
308(10) 0.01006 282.7 14.4
298(9) 0.01022 282.7 13.8
301(9) 0.01019 282.7 13.3
284(9) 0.01146 282.7 12.9
309(9) 0.01092 282.8 12.4
305(9) 0.01013 282.8 12.1
287(9) 0.01063 282.8 11.7
314(9) 0.01009 282.8 11.4
299(9) 0.01113 282.8 11.2
278(9) 0.01191 282.9 11.0
291(9) 0.01060 282.9 10.8
290(9) 0.01046 282.9 10.7
289(9) 0.01113 282.9 10.6
280(9) 0.01178 282.9 10.6
296(9) 0.01123 283.0 10.6
300(9) 0.01042 283.0 10.6
288(9) 0.01028 283.0 10.7
304(9) 0.01021 283.0 10.8
303(9) 0.01079 283.1 11.0
297(9) 0.01133 283.1 11.3
302(9) 0.01010 283.1 11.6
296(10) 0.00974 283.1 12.0
320(10) 0.00993 283.1 12.4
312(9) 0.01077 283.2 13.0
291(9) 0.01127 283.2 13.6
303(9) 0.01032 283.2 14.4
314(10) 0.00919 283.2 15.3
293(9) 0.01064 283.2 16.3
289(9) 0.01158 283.3 17.4
307(9) 0.01073 283.3 18.7
297(9) 0.01082 283.3 20.1
301(10) 0.00978 283.3 21.7
285(9) 0.01108 283.3 23.4
317(9) 0.01065 283.4 25.1
321(9) 0.01017 283.4 26.9
299(9) 0.01037 283.4 28.6
312(10) 0.00956 283.4 30.3
292(9) 0.01082 283.4 31.6
309(9) 0.01096 283.5 32.7
293(9) 0.01099 283.5 33.3
300(9) 0.01070 283.5 33.5
299(9) 0.01029 283.5 33.2
321(10) 0.00996 283.5 32.4
311(9) 0.01077 283.6 31.4
289(9) 0.01124 283.6 30.1
298(9) 0.01077 283.6 28.7
296(9) 0.01070 283.6 27.3
303(9) 0.01068 283.6 26.0
334(9) 0.01010 283.7 24.8
307(9) 0.01063 283.7 23.7
312(10) 0.00984 283.7 22.7
286(9) 0.01039 283.7 21.9
258(8) 0.01234 283.7 21.3
278(9) 0.01186 283.8 20.8
292(9) 0.01049 283.8 20.4
293(9) 0.01041 283.8 20.2
297(9) 0.01056 283.8 20.2
281(9) 0.01155 283.8 20.2
299(9) 0.01114 283.9 20.4
310(9) 0.01044 283.9 20.7
314(10) 0.00991 283.9 21.1
308(9) 0.01018 283.9 21.6
307(9) 0.01095 283.9 22.2
308(9) 0.01070 284.0 22.8
317(10) 0.00952 284.0 23.6
281(9) 0.01070 284.0 24.4
310(10) 0.00963 284.0 25.2
287(9) 0.01138 284.0 26.2
283(9) 0.01193 284.1 27.2
295(9) 0.01055 284.1 28.2
315(10) 0.00930 284.1 29.3
325(10) 0.00961 284.1 30.4
312(9) 0.01082 284.1 31.5
318(9) 0.01029 284.2 32.7
309(9) 0.01026 284.2 33.8
328(10) 0.00897 284.2 34.9
320(9) 0.01010 284.2 36.0
325(9) 0.01053 284.2 37.0
306(9) 0.01077 284.3 38.0
315(10) 0.00988 284.3 38.8
303(10) 0.00978 284.3 39.5
344(10) 0.00912 284.3 40.0
330(9) 0.01020 284.3 40.4
298(9) 0.01103 284.4 40.6
322(10) 0.01000 284.4 40.6
330(10) 0.00945 284.4 40.5
310(9) 0.01025 284.4 40.1
312(9) 0.01074 284.4 39.6
311(9) 0.01058 284.5 39.0
313(10) 0.01006 284.5 38.1
307(10) 0.01005 284.5 37.2
320(10) 0.00994 284.5 36.2
314(9) 0.01060 284.5 35.1
313(9) 0.01039 284.6 33.9
311(10) 0.00989 284.6 32.7
304(9) 0.01030 284.6 31.5
323(10) 0.01001 284.6 30.2
313(9) 0.01077 284.6 29.0
323(10) 0.00990 284.7 27.8
321(10) 0.00947 284.7 26.6
293(9) 0.01054 284.7 25.5
327(10) 0.00968 284.7 24.4
315(9) 0.01069 284.7 23.3
331(10) 0.00946 284.8 22.3
329(10) 0.00944 284.8 21.4
303(9) 0.01029 284.8 20.4
291(9) 0.01098 284.8 19.6
337(10) 0.01003 284.8 18.8
314(9) 0.01018 284.9 18.0
294(9) 0.01027 284.9 17.3
291(9) 0.01093 284.9 16.6
285(9) 0.01163 284.9 16.0
318(9) 0.01067 284.9 15.4
320(10) 0.00992 285.0 14.8
305(10) 0.00982 285.0 14.3
296(9) 0.01093 285.0 13.8
308(9) 0.01068 285.0 13.4
312(9) 0.01095 285.0 12.9
310(9) 0.01028 285.1 12.6
294(9) 0.01025 285.1 12.2
306(9) 0.01050 285.1 11.9
307(9) 0.01084 285.1 11.6
330(9) 0.01018 285.1 11.3
291(9) 0.01128 285.2 11.0
302(9) 0.01017 285.2 10.8
295(9) 0.01091 285.2 10.6
321(9) 0.01042 285.2 10.4
318(9) 0.01056 285.2 10.2
293(9) 0.01079 285.3 10.0
333(10) 0.00890 285.3 9.9
308(10) 0.01004 285.3 9.7
312(9) 0.01067 285.3 9.6
304(9) 0.01076 285.3 9.5
305(9) 0.01027 285.4 9.4
286(9) 0.01041 285.4 9.3
291(9) 0.01063 285.4 9.2
281(9) 0.01188 285.4 9.2
305(9) 0.01056 285.4 9.1
288(9) 0.01080 285.5 9.0
287(9) 0.01067 285.5 9.0
285(9) 0.01107 285.5 8.9
295(9) 0.01139 285.5 8.9
277(9) 0.01186 285.5 8.8
311(10) 0.00972 285.6 8.8
303(9) 0.01046 285.6 8.8
289(9) 0.01123 285.6 8.7
292(9) 0.01149 285.6 8.7
310(9) 0.01053 285.6 8.6
281(9) 0.01112 285.7 8.6
283(9) 0.01115 285.7 8.5
301(9) 0.01032 285.7 8.5
291(9) 0.01146 285.7 8.4
294(9) 0.01075 285.7 8.4
305(10) 0.00973 285.8 8.3
297(9) 0.01093 285.8 8.2
304(9) 0.01081 285.8 8.2
314(9) 0.01059 285.8 8.1
286(9) 0.01102 285.9 8.0
313(10) 0.00953 285.9 8.0
310(9) 0.01010 285.9 7.9
297(9) 0.01101 285.9 7.8
303(9) 0.01119 285.9 7.7
290(9) 0.01048 286.0 7.6
281(9) 0.01032 286.0 7.6
294(9) 0.01047 286.0 7.5
293(9) 0.01109 286.0 7.4
293(9) 0.01135 286.0 7.3
307(9) 0.01016 286.1 7.3
285(9) 0.01019 286.1 7.2
299(9) 0.01069 286.1 7.2
313(9) 0.01076 286.1 7.1
290(9) 0.01134 286.1 7.0
306(9) 0.01070 286.2 7.0
306(9) 0.01020 286.2 7.0
283(9) 0.01124 286.2 6.9
289(9) 0.01148 286.2 6.9
315(9) 0.01064 286.2 6.9
308(10) 0.00991 286.3 6.8
268(9) 0.01118 286.3 6.8
286(9) 0.01094 286.3 6.8
314(9) 0.01075 286.3 6.8
285(9) 0.01169 286.3 6.8
286(9) 0.01118 286.3 6.9
306(10) 0.00991 286.4 6.9
284(9) 0.01083 286.4 6.9
298(9) 0.01125 286.4 6.9
288(9) 0.01104 286.4 7.0
274(9) 0.01128 286.4 7.1
294(9) 0.01056 286.4 7.1
300(9) 0.01013 286.5 7.2
312(9) 0.01088 286.5 7.3
297(9) 0.01078 286.5 7.4
325(10) 0.00981 286.5 7.5
283(9) 0.01117 286.5 7.7
298(9) 0.01037 286.5 7.9
301(9) 0.01115 286.6 8.0
308(9) 0.01053 286.6 8.3
291(9) 0.01067 286.6 8.5
315(10) 0.00975 286.6 8.8
316(10) 0.01000 286.6 9.1
291(9) 0.01150 286.7 9.5
292(9) 0.01103 286.7 9.9
309(10) 0.01003 286.7 10.4
289(9) 0.01090 286.7 11.0
300(9) 0.01080 286.7 11.6
322(9) 0.01040 286.7 12.4
285(9) 0.01103 286.8 13.2
305(9) 0.01011 286.8 14.2
294(9) 0.01086 286.8 15.2
305(9) 0.01083 286.8 16.5
299(9) 0.01114 286.8 17.8
295(9) 0.01089 286.8 19.3
302(10) 0.00975 286.9 21.0
313(9) 0.01009 286.9 22.8
313(9) 0.01063 286.9 24.7
313(9) 0.01077 286.9 26.7
306(9) 0.01019 286.9 28.8
301(10) 0.00998 287.0 30.9
320(10) 0.01000 287.0 32.9
308(9) 0.01068 287.0 34.7
320(9) 0.01041 287.0 36.3
308(9) 0.01063 287.0 37.5
319(10) 0.00987 287.0 38.2
356(10) 0.00910 287.1 38.4
310(9) 0.01090 287.1 38.1
310(9) 0.01092 287.1 37.2
314(10) 0.01003 287.1 35.9
308(10) 0.00969 287.1 34.2
321(10) 0.00980 287.1 32.3
309(9) 0.01084 287.2 30.3
321(9) 0.01039 287.2 28.2
285(9) 0.01114 287.2 26.2
307(10) 0.00970 287.2 24.2
320(10) 0.00998 287.2 22.4
300(9) 0.01115 287.2 20.6
295(9) 0.01123 287.3 19.1
316(9) 0.01027 287.3 17.7
317(10) 0.00971 287.3 16.4
283(9) 0.01086 287.3 15.3
306(9) 0.01101 287.3 14.3
304(9) 0.01058 287.4 13.4
299(9) 0.01033 287.4 12.7
294(9) 0.01023 287.4 12.0
323(10) 0.00968 287.4 11.4
310(9) 0.01081 287.4 10.9
309(9) 0.01055 287.4 10.5
296(9) 0.01067 287.5 10.1
315(10) 0.00996 287.5 9.8
322(10) 0.00994 287.5 9.6
317(9) 0.01068 287.5 9.3
292(9) 0.01077 287.5 9.1
293(9) 0.01052 287.5 9.0
311(10) 0.00985 287.6 8.8
282(9) 0.01142 287.6 8.7
304(9) 0.01102 287.6 8.6
303(9) 0.01026 287.6 8.5
316(10) 0.00981 287.6 8.4
314(10) 0.00980 287.7 8.3
283(9) 0.01119 287.7 8.3
299(9) 0.01111 287.7 8.3
281(9) 0.01114 287.7 8.2
300(10) 0.01007 287.7 8.2
283(9) 0.01108 287.7 8.2
281(9) 0.01167 287.8 8.2
316(9) 0.01058 287.8 8.2
309(9) 0.01015 287.8 8.3
314(10) 0.00968 287.8 8.3
335(10) 0.00947 287.8 8.3
316(9) 0.01034 287.8 8.4
281(9) 0.01187 287.9 8.4
285(9) 0.01064 287.9 8.5
309(10) 0.00929 287.9 8.5
313(9) 0.01020 287.9 8.6
303(9) 0.01082 287.9 8.7
321(9) 0.01053 287.9 8.8
275(9) 0.01202 288.0 8.9
315(10) 0.00917 288.0 9.0
333(10) 0.00925 288.0 9.1
321(9) 0.01041 288.0 9.2
306(9) 0.01107 288.0 9.3
307(9) 0.01022 288.1 9.5
301(9) 0.01021 288.1 9.6
278(9) 0.01161 288.1 9.7
291(9) 0.01134 288.1 9.9
308(9) 0.01063 288.1 10.1
296(9) 0.01054 288.1 10.2
314(10) 0.00950 288.2 10.4
299(9) 0.01050 288.2 10.6
328(9) 0.01021 288.2 10.8
312(9) 0.01075 288.2 11.1
306(9) 0.01066 288.2 11.3
306(9) 0.01018 288.2 11.6
307(9) 0.01031 288.3 11.8
294(9) 0.01129 288.3 12.1
291(9) 0.01089 288.3 12.4
322(10) 0.00964 288.3 12.8
306(10) 0.00995 288.3 13.1
303(9) 0.01036 288.3 13.5
308(9) 0.01087 288.4 13.9
320(10) 0.00978 288.4 14.4
328(10) 0.00934 288.4 14.9
308(9) 0.01017 288.4 15.4
342(10) 0.00951 288.4 16.0
320(9) 0.01050 288.5 16.7
319(10) 0.00970 288.5 17.5
312(10) 0.00985 288.5 18.3
327(10) 0.00967 288.5 19.3
323(9) 0.01029 288.5 20.4
358(10) 0.00939 288.5 21.6
333(10) 0.00945 288.6 23.0
328(10) 0.00912 288.6 24.5
305(9) 0.01016 288.6 26.3
323(9) 0.01023 288.6 28.2
333(9) 0.01014 288.6 30.4
358(10) 0.00909 288.6 32.8
356(10) 0.00877 288.7 35.3
355(10) 0.00931 288.7 38.1
347(10) 0.00976 288.7 41.0
334(10) 0.01007 288.7 43.9
336(10) 0.00943 288.7 46.9
357(10) 0.00850 288.8 49.7
371(10) 0.00876 288.8 52.2
388(10) 0.00873 288.8 54.3
359(10) 0.00958 288.8 55.7
390(11) 0.00815 288.8 56.4
390(11) 0.00738 288.8 56.4
368(10) 0.00896 288.9 55.7
333(9) 0.01018 288.9 54.5
352(10) 0.00949 288.9 52.8
334(10) 0.00951 288.9 50.9
368(11) 0.00836 288.9 48.9
344(10) 0.00912 288.9 47.0
311(9) 0.01077 289.0 45.2
342(10) 0.00984 289.0 43.6
338(10) 0.00974 289.0 42.3
365(10) 0.00858 289.0 41.1
355(10) 0.00908 289.0 40.3
373(10) 0.00919 289.0 39.8
335(10) 0.00957 289.1 39.5
324(10) 0.00990 289.1 39.5
335(10) 0.00891 289.1 39.8
312(9) 0.01009 289.1 40.4
333(9) 0.01014 289.1 41.2
344(10) 0.00911 289.2 42.3
327(10) 0.00961 289.2 43.7
336(10) 0.00938 289.2 45.3
363(10) 0.00863 289.2 47.2
349(10) 0.00977 289.2 49.3
363(10) 0.00890 289.2 51.6
364(10) 0.00886 289.3 54.0
360(10) 0.00876 289.3 56.7
369(10) 0.00871 289.3 59.3
346(10) 0.00985 289.3 62.0
355(10) 0.00913 289.3 64.6
363(10) 0.00876 289.3 66.9
397(11) 0.00805 289.4 68.9
403(11) 0.00835 289.4 70.3
409(11) 0.00838 289.4 71.1
380(11) 0.00836 289.4 71.2
384(11) 0.00813 289.4 70.5
364(10) 0.00919 289.5 69.2
391(10) 0.00867 289.5 67.2
347(10) 0.00968 289.5 64.7
356(10) 0.00905 289.5 61.9
357(10) 0.00868 289.5 58.8
340(10) 0.00946 289.5 55.7
341(10) 0.00979 289.6 52.6
358(10) 0.00936 289.6 49.5
339(10) 0.00961 289.6 46.6
369(11) 0.00802 289.6 43.8
345(10) 0.00916 289.6 41.3
336(10) 0.00997 289.6 38.9
338(10) 0.00989 289.7 36.7
334(10) 0.00972 289.7 34.7
332(10) 0.00885 289.7 32.9
349(10) 0.00909 289.7 31.2
325(9) 0.01022 289.7 29.7
329(9) 0.01027 289.7 28.4
331(10) 0.00981 289.8 27.2
344(10) 0.00858 289.8 26.1
324(10) 0.00968 289.8 25.1
317(9) 0.01055 289.8 24.3
321(9) 0.01037 289.8 23.5
318(10) 0.00995 289.9 22.8
315(10) 0.00954 289.9 22.2
314(10) 0.00937 289.9 21.6
336(9) 0.01017 289.9 21.1
332(10) 0.01001 289.9 20.6
346(10) 0.00892 289.9 20.2
322(10) 0.00930 290.0 19.9
318(10) 0.00988 290.0 19.5
309(9) 0.01084 290.0 19.2
304(9) 0.01056 290.0 19.0
329(10) 0.00961 290.0 18.7
326(10) 0.00938 290.0 18.5
293(9) 0.01118 290.1 18.3
296(9) 0.01139 290.1 18.2
280(9) 0.01143 290.1 18.0
310(10) 0.00986 290.1 17.9
302(9) 0.01036 290.1 17.8
305(9) 0.01068 290.1 17.7
314(9) 0.01067 290.2 17.7
312(9) 0.01030 290.2 17.6
308(9) 0.01020 290.2 17.6
316(10) 0.01000 290.2 17.6
330(10) 0.00994 290.2 17.7
318(9) 0.01068 290.3 17.7
333(10) 0.00944 290.3 17.8
304(10) 0.00976 290.3 17.9
288(9) 0.01051 290.3 18.0
311(9) 0.01047 290.3 18.2
293(9) 0.01130 290.3 18.3
305(9) 0.01052 290.4 18.5
300(9) 0.01016 290.4 18.7
330(10) 0.00945 290.4 19.0
303(9) 0.01079 290.4 19.2
297(9) 0.01122 290.4 19.5
319(10) 0.01004 290.4 19.8
308(10) 0.00964 290.5 20.2
314(10) 0.00977 290.5 20.6
323(9) 0.01031 290.5 21.0
312(9) 0.01079 290.5 21.4
327(10) 0.00956 290.5 21.9
299(10) 0.00997 290.6 22.4
321(10) 0.00987 290.6 23.0
317(9) 0.01071 290.6 23.6
302(9) 0.01115 290.6 24.2
332(10) 0.00960 290.6 24.9
357(11) 0.00832 290.6 25.6
323(10) 0.00973 290.7 26.3
317(9) 0.01047 290.7 27.1
292(9) 0.01124 290.7 27.9
324(10) 0.00946 290.7 28.7
315(10) 0.00944 290.7 29.6
356(10) 0.00860 290.7 30.5
345(10) 0.00989 290.8 31.4
318(9) 0.01049 290.8 32.3
318(10) 0.00961 290.8 33.2
314(10) 0.00960 290.8 34.1
294(9) 0.01080 290.8 35.0
329(9) 0.01021 290.8 35.9
318(9) 0.01038 290.9 36.8
331(10) 0.00964 290.9 37.6
323(10) 0.00996 290.9 38.4
351(10) 0.00904 290.9 39.2
319(9) 0.01055 290.9 39.9
336(10) 0.00999 291.0 40.6
320(10) 0.00993 291.0 41.3
339(10) 0.00908 291.0 41.9
309(9) 0.01058 291.0 42.5
321(9) 0.01047 291.0 43.0
319(9) 0.01012 291.0 43.4
334(10) 0.00964 291.1 43.8
326(10) 0.00963 291.1 44.2
344(10) 0.00950 291.1 44.5
330(9) 0.01031 291.1 44.6
345(10) 0.00916 291.1 44.8
333(10) 0.00925 291.1 44.8
312(9) 0.01023 291.2 44.8
321(9) 0.01035 291.2 44.7
342(10) 0.00993 291.2 44.5
364(10) 0.00870 291.2 44.2
340(10) 0.00879 291.2 43.9
321(10) 0.00994 291.3 43.5
350(10) 0.00962 291.3 43.1
326(9) 0.01040 291.3 42.7
317(10) 0.00990 291.3 42.2
318(10) 0.00945 291.3 41.7
317(9) 0.01020 291.3 41.2
342(10) 0.00974 291.4 40.7
356(10) 0.00964 291.4 40.3
355(10) 0.00919 291.4 39.8
331(10) 0.00900 291.4 39.3
332(10) 0.00956 291.4 38.9
343(10) 0.00992 291.4 38.6
311(9) 0.01046 291.5 38.2
323(9) 0.01011 291.5 37.9
368(11) 0.00794 291.5 37.6
315(10) 0.00988 291.5 37.4
320(9) 0.01043 291.5 37.2
318(9) 0.01044 291.5 37.1
294(9) 0.01112 291.6 37.0
333(10) 0.00880 291.6 36.9
334(10) 0.00936 291.6 36.9
351(10) 0.00969 291.6 36.9
322(9) 0.01050 291.6 37.0
348(10) 0.00890 291.7 37.1
351(10) 0.00844 291.7 37.2
356(10) 0.00869 291.7 37.4
334(10) 0.01003 291.7 37.6
332(10) 0.00980 291.7 37.9
337(10) 0.00934 291.7 38.2
330(10) 0.00952 291.8 38.5
343(10) 0.00934 291.8 38.9
333(10) 0.01007 291.8 39.3
317(9) 0.01033 291.8 39.8
341(10) 0.00925 291.8 40.3
337(10) 0.00903 291.8 40.9
348(10) 0.00906 291.9 41.6
345(10) 0.00986 291.9 42.3
305(9) 0.01048 291.9 43.2
324(10) 0.00950 291.9 44.1
335(10) 0.00927 291.9 45.2
354(10) 0.00915 291.9 46.4
344(10) 0.00988 292.0 47.7
354(10) 0.00894 292.0 49.2
370(11) 0.00825 292.0 50.9
370(10) 0.00858 292.0 52.7
344(10) 0.00969 292.0 54.6
358(10) 0.00950 292.1 56.7
373(11) 0.00838 292.1 59.0
349(10) 0.00876 292.1 61.4
362(10) 0.00854 292.1 63.8
365(10) 0.00916 292.1 66.2
365(10) 0.00922 292.1 68.6
350(10) 0.00905 292.2 70.7
373(11) 0.00801 292.2 72.5
356(10) 0.00933 292.2 73.9
369(10) 0.00924 292.2 74.7
372(10) 0.00902 292.2 74.9
366(10) 0.00879 292.2 74.3
362(11) 0.00818 292.3 73.1
351(10) 0.00875 292.3 71.1
341(10) 0.00963 292.3 68.7
339(10) 0.00998 292.3 65.9
394(11) 0.00787 292.3 62.8
331(10) 0.00897 292.4 59.5
328(10) 0.01003 292.4 56.2
323(9) 0.01038 292.4 52.9
309(9) 0.01090 292.4 49.8
331(10) 0.00939 292.4 46.8
339(10) 0.00872 292.4 43.9
335(10) 0.00947 292.5 41.3
326(9) 0.01023 292.5 38.8
327(10) 0.01005 292.5 36.5
320(10) 0.00965 292.5 34.5
297(9) 0.01021 292.5 32.6
309(9) 0.01008 292.5 30.8
311(9) 0.01084 292.6 29.3
312(9) 0.01058 292.6 27.9
336(10) 0.00928 292.6 26.6
311(10) 0.00987 292.6 25.4
306(9) 0.01019 292.6 24.4
306(9) 0.01114 292.6 23.4
305(9) 0.01044 292.7 22.6
311(9) 0.01011 292.7 21.8
321(10) 0.00970 292.7 21.1
320(10) 0.01005 292.7 20.4
316(9) 0.01077 292.7 19.8
341(10) 0.00967 292.8 19.3
306(9) 0.01033 292.8 18.8
295(9) 0.01064 292.8 18.4
298(9) 0.01086 292.8 17.9
282(9) 0.01171 292.8 17.6
302(9) 0.01077 292.8 17.2
331(10) 0.00922 292.9 16.9
325(10) 0.00945 292.9 16.6
304(9) 0.01053 292.9 16.3
319(9) 0.01063 292.9 16.0
328(10) 0.00959 292.9 15.8
322(10) 0.00960 292.9 15.6
337(10) 0.00950 293.0 15.3
303(9) 0.01099 293.0 15.2
310(9) 0.01098 293.0 15.0
305(9) 0.01040 293.0 14.8
286(9) 0.01089 293.0 14.7
284(9) 0.01134 293.1 14.5
325(9) 0.01025 293.1 14.4
287(9) 0.01152 293.1 14.3
278(9) 0.01146 293.1 14.2
308(10) 0.00939 293.1 14.1
313(9) 0.01016 293.1 14.0
305(9) 0.01102 293.2 13.9
296(9) 0.01095 293.2 13.8
293(9) 0.01084 293.2 13.7
300(10) 0.00987 293.2 13.7
318(10) 0.00981 293.2 13.6
296(9) 0.01138 293.2 13.6
315(9) 0.01038 293.3 13.6
287(9) 0.01105 293.3 13.6
313(10) 0.00930 293.3 13.5
304(9) 0.01044 293.3 13.5
282(9) 0.01187 293.3 13.5
306(9) 0.01080 293.3 13.5
326(10) 0.00956 293.4 13.6
329(10) 0.00921 293.4 13.6
308(9) 0.01024 293.4 13.6
319(9) 0.01062 293.4 13.7
336(10) 0.00977 293.4 13.7
316(10) 0.01007 293.5 13.8
327(10) 0.00966 293.5 13.8
316(10) 0.00974 293.5 13.9
323(9) 0.01036 293.5 14.0
324(10) 0.01003 293.5 14.1
324(10) 0.00982 293.5 14.2
324(10) 0.00933 293.6 14.4
303(9) 0.01066 293.6 14.5
291(9) 0.01147 293.6 14.7
323(10) 0.00979 293.6 14.8
327(10) 0.00937 293.6 15.0
334(10) 0.00925 293.6 15.2
332(10) 0.00992 293.7 15.4
323(9) 0.01035 293.7 15.6
306(10) 0.00999 293.7 15.9
304(9) 0.01021 293.7 16.2
307(9) 0.01030 293.7 16.4
321(9) 0.01040 293.7 16.7
305(9) 0.01101 293.8 17.0
312(10) 0.00998 293.8 17.4
341(10) 0.00886 293.8 17.7
308(9) 0.01029 293.8 18.0
321(10) 0.01005 293.8 18.3
317(9) 0.01059 293.9 18.7
307(9) 0.01009 293.9 18.9
352(11) 0.00819 293.9 19.2
336(10) 0.00932 293.9 19.4
322(9) 0.01024 293.9 19.6
328(9) 0.01042 293.9 19.7
310(9) 0.01020 294.0 19.8
330(10) 0.00891 294.0 19.8
328(10) 0.00950 294.0 19.7
334(10) 0.01004 294.0 19.5
322(9) 0.01045 294.0 19.3
332(10) 0.00939 294.0 18.9
325(10) 0.00882 294.1 18.6
319(10) 0.01007 294.1 18.2
300(9) 0.01106 294.1 17.7
344(10) 0.00988 294.1 17.2
339(10) 0.00931 294.1 16.7
332(10) 0.00880 294.2 16.2
347(10) 0.00920 294.2 15.7
331(9) 0.01014 294.2 15.2
306(9) 0.01086 294.2 14.7
339(10) 0.00912 294.2 14.2
312(10) 0.00985 294.2 13.7
310(10) 0.00984 294.3 13.3
310(9) 0.01082 294.3 12.8
288(9) 0.01119 294.3 12.4
315(10) 0.00990 294.3 12.0
310(10) 0.00962 294.3 11.7
309(9) 0.01011 294.3 11.3
298(9) 0.01125 294.4 11.0
311(9) 0.01015 294.4 10.7
312(9) 0.01026 294.4 10.4
307(9) 0.01010 294.4 10.1
292(9) 0.01061 294.4 9.8
308(9) 0.01073 294.4 9.6
300(9) 0.01087 294.5 9.4
332(10) 0.00926 294.5 9.2
299(9) 0.01035 294.5 8.9
290(9) 0.01127 294.5 8.8
293(9) 0.01129 294.5 8.6
309(9) 0.01038 294.6 8.4
322(10) 0.00953 294.6 8.3
301(9) 0.01046 294.6 8.1
319(9) 0.01039 294.6 8.0
297(9) 0.01114 294.6 7.9
296(9) 0.01034 294.6 7.8
287(9) 0.01090 294.7 7.7
305(9) 0.01022 294.7 7.6
293(9) 0.01090 294.7 7.5
315(9) 0.01066 294.7 7.4
313(9) 0.01020 294.7 7.3
304(10) 0.00981 294.7 7.2
293(9) 0.01069 294.8 7.2
308(9) 0.01062 294.8 7.1
308(9) 0.01091 294.8 7.1
316(9) 0.01012 294.8 7.0
314(10) 0.00972 294.8 7.0
321(10) 0.01006 294.9 7.0
313(9) 0.01049 294.9 7.0
297(9) 0.01135 294.9 6.9
331(10) 0.00943 294.9 6.9
290(9) 0.01016 294.9 6.9
299(9) 0.01054 294.9 6.9
306(9) 0.01082 295.0 6.9
323(9) 0.01048 295.0 6.9
324(10) 0.00998 295.0 6.9
300(10) 0.00999 295.0 6.8
300(9) 0.01041 295.0 6.8
302(9) 0.01098 295.0 6.8
324(9) 0.01042 295.1 6.7
309(9) 0.01050 295.1 6.7
326(10) 0.00898 295.1 6.7
308(9) 0.01030 295.1 6.6
310(9) 0.01076 295.1 6.6
308(9) 0.01092 295.1 6.6
320(10) 0.00969 295.2 6.5
297(9) 0.01071 295.2 6.5
302(9) 0.01055 295.2 6.5
330(9) 0.01019 295.2 6.4
335(10) 0.00998 295.2 6.4
302(9) 0.01068 295.3 6.4
303(9) 0.01025 295.3 6.4
318(10) 0.01002 295.3 6.4
304(9) 0.01099 295.3 6.4
302(9) 0.01040 295.3 6.4
289(9) 0.01105 295.3 6.4
327(10) 0.00940 295.4 6.5
300(9) 0.01075 295.4 6.5
327(9) 0.01028 295.4 6.5
306(9) 0.01058 295.4 6.6
309(10) 0.00980 295.4 6.6
311(10) 0.00998 295.4 6.7
312(9) 0.01057 295.5 6.7
321(9) 0.01044 295.5 6.8
331(10) 0.00972 295.5 6.8
302(9) 0.01064 295.5 6.9
301(9) 0.01056 295.5 7.0
292(9) 0.01131 295.5 7.1
300(9) 0.01117 295.6 7.1
279(9) 0.01159 295.6 7.2
284(9) 0.01071 295.6 7.3
306(9) 0.01038 295.6 7.4
314(9) 0.01072 295.6 7.5
324(9) 0.01033 295.7 7.6
315(10) 0.00995 295.7 7.6
308(9) 0.01008 295.7 7.7
276(9) 0.01158 295.7 7.8
292(9) 0.01142 295.7 7.9
315(9) 0.01060 295.7 7.9
309(9) 0.01048 295.8 8.0
319(10) 0.00943 295.8 8.0
305(9) 0.01020 295.8 8.0
267(8) 0.01258 295.8 8.1
320(9) 0.01045 295.8 8.1
319(10) 0.00997 295.8 8.1
309(10) 0.00955 295.9 8.1
306(9) 0.01037 295.9 8.1
312(9) 0.01062 295.9 8.1
280(9) 0.01153 295.9 8.1
313(10) 0.00964 295.9 8.0
303(10) 0.01002 296.0 8.0
332(10) 0.00950 296.0 8.0
318(9) 0.01055 296.0 8.0
290(9) 0.01143 296.0 7.9
320(10) 0.00976 296.0 7.9
320(10) 0.00946 296.0 7.9
314(9) 0.01022 296.0 7.8
307(9) 0.01082 296.1 7.8
303(9) 0.01068 296.1 7.8
308(10) 0.00997 296.1 7.7
307(10) 0.00969 296.1 7.7
292(9) 0.01062 296.1 7.6
300(9) 0.01111 296.1 7.6
313(9) 0.01038 296.1 7.6
312(10) 0.01006 296.2 7.5
299(9) 0.01026 296.2 7.5
317(10) 0.00959 296.2 7.4
321(9) 0.01056 296.2 7.4
335(10) 0.00938 296.2 7.3
308(9) 0.01014 296.2 7.3
287(9) 0.01087 296.2 7.3
291(9) 0.01082 296.2 7.2
306(9) 0.01091 296.3 7.2
290(9) 0.01082 296.3 7.1
314(10) 0.00963 296.3 7.1
330(10) 0.00926 296.3 7.1
335(10) 0.00979 296.3 7.0
320(9) 0.01050 296.3 7.0
308(10) 0.00978 296.3 7.0
311(10) 0.00941 296.3 6.9
297(9) 0.01072 296.4 6.9
320(9) 0.01041 296.4 6.9
327(9) 0.01031 296.4 6.8
332(10) 0.00937 296.4 6.8
299(10) 0.00981 296.4 6.8
317(10) 0.00983 296.4 6.7
321(9) 0.01026 296.4 6.7
317(9) 0.01056 296.5 6.7
320(10) 0.01000 296.5 6.6
313(10) 0.00975 296.5 6.6
309(9) 0.01016 296.5 6.6
304(9) 0.01096 296.5 6.5
297(9) 0.01126 296.5 6.5
300(9) 0.01089 296.5 6.5
308(10) 0.00981 296.5 6.5
296(9) 0.01051 296.6 6.4
319(9) 0.01033 296.6 6.4
287(9) 0.01141 296.6 6.4
300(9) 0.01053 296.6 6.3
312(10) 0.00956 296.6 6.3
290(9) 0.01101 296.6 6.3
313(9) 0.01085 296.6 6.3
314(9) 0.01052 296.7 6.2
313(9) 0.01010 296.7 6.2
312(10) 0.00964 296.7 6.2
294(9) 0.01083 296.7 6.2
279(9) 0.01207 296.7 6.1
307(9) 0.01049 296.7 6.1
318(10) 0.00991 296.7 6.1
299(9) 0.01040 296.7 6.1
298(9) 0.01059 296.8 6.1
275(9) 0.01199 296.8 6.0
307(9) 0.01060 296.8 6.0
299(9) 0.01048 296.8 6.0
330(10) 0.00944 296.8 6.0
325(10) 0.00990 296.8 6.0
308(9) 0.01072 296.8 6.0
300(9) 0.01050 296.8 6.0
273(9) 0.01121 296.9 6.0
293(9) 0.01032 296.9 6.0
291(9) 0.01070 296.9 6.0
300(9) 0.01121 296.9 6.0
300(9) 0.01087 296.9 6.0
302(9) 0.01032 296.9 6.0
308(9) 0.01019 296.9 6.0
296(9) 0.01110 297.0 6.0
300(9) 0.01106 297.0 6.0
321(10) 0.00967 297.0 6.1
300(9) 0.01042 297.0 6.1
284(9) 0.01134 297.0 6.1
304(9) 0.01083 297.0 6.1
322(9) 0.01055 297.0 6.2
321(10) 0.01001 297.0 6.2
313(10) 0.00976 297.1 6.3
317(10) 0.00988 297.1 6.3
324(10) 0.00990 297.1 6.3
326(9) 0.01041 297.1 6.4
315(10) 0.01002 297.1 6.5
303(10) 0.00977 297.1 6.5
303(9) 0.01030 297.1 6.6
293(9) 0.01114 297.1 6.7
278(9) 0.01174 297.2 6.7
296(9) 0.01045 297.2 6.8
309(10) 0.00944 297.2 6.9
297(9) 0.01093 297.2 7.0
313(9) 0.01084 297.2 7.1
299(9) 0.01118 297.2 7.2
310(9) 0.01020 297.2 7.3
301(10) 0.00954 297.3 7.5
292(9) 0.01073 297.3 7.6
287(9) 0.01181 297.3 7.8
306(9) 0.01068 297.3 7.9
311(9) 0.01020 297.3 8.1
307(10) 0.00987 297.3 8.3
299(9) 0.01071 297.3 8.5
300(9) 0.01115 297.3 8.7
306(9) 0.01063 297.4 8.9
302(9) 0.01038 297.4 9.2
308(10) 0.01007 297.4 9.4
315(10) 0.00999 297.4 9.7
309(9) 0.01089 297.4 10.0
304(9) 0.01056 297.4 10.3
333(10) 0.00952 297.4 10.7
320(10) 0.00953 297.4 11.0
292(9) 0.01091 297.5 11.4
306(9) 0.01096 297.5 11.7
313(9) 0.01012 297.5 12.1
307(9) 0.01023 297.5 12.5
300(9) 0.01020 297.5 12.9
300(9) 0.01073 297.5 13.3
306(9) 0.01098 297.5 13.6
328(10) 0.00979 297.6 14.0
320(10) 0.00999 297.6 14.3
318(10) 0.01002 297.6 14.7
330(10) 0.00999 297.6 14.9
309(9) 0.01066 297.6 15.2
285(9) 0.01105 297.6 15.3
303(10) 0.00987 297.6 15.4
291(9) 0.01094 297.6 15.5
328(10) 0.01005 297.7 15.5
297(9) 0.01121 297.7 15.4
320(10) 0.00934 297.7 15.3
318(10) 0.00940 297.7 15.2
294(9) 0.01086 297.7 15.0
330(10) 0.01003 297.7 14.7
306(9) 0.01091 297.7 14.5
306(9) 0.01046 297.7 14.2
299(9) 0.01051 297.8 13.9
320(10) 0.00988 297.8 13.6
293(9) 0.01151 297.8 13.3
304(9) 0.01090 297.8 13.0
301(9) 0.01025 297.8 12.8
313(10) 0.00932 297.8 12.5
323(10) 0.00968 297.8 12.2
323(9) 0.01039 297.9 12.0
296(9) 0.01123 297.9 11.8
325(10) 0.00972 297.9 11.6
305(10) 0.00993 297.9 11.4
322(9) 0.01010 297.9 11.3
337(10) 0.01006 297.9 11.2
284(9) 0.01154 297.9 11.0
304(9) 0.01076 297.9 10.9
308(10) 0.00969 298.0 10.8
309(10) 0.01005 298.0 10.8
319(9) 0.01062 298.0 10.7
318(9) 0.01044 298.0 10.7
302(9) 0.01038 298.0 10.6
334(10) 0.00891 298.0 10.6
303(9) 0.01052 298.0 10.6
314(9) 0.01063 298.0 10.6
321(9) 0.01040 298.1 10.7
304(9) 0.01051 298.1 10.7
316(10) 0.00966 298.1 10.7
303(9) 0.01008 298.1 10.8
298(9) 0.01119 298.1 10.8
316(9) 0.01031 298.1 10.9
312(9) 0.01027 298.1 11.0
329(10) 0.00947 298.2 11.1
317(9) 0.01030 298.2 11.2
309(9) 0.01093 298.2 11.4
310(9) 0.01056 298.2 11.5
300(9) 0.01050 298.2 11.7
322(10) 0.00986 298.2 11.9
327(10) 0.00995 298.2 12.1
340(10) 0.00997 298.2 12.3
328(10) 0.00991 298.3 12.6
317(9) 0.01017 298.3 12.9
328(10) 0.00978 298.3 13.2
327(10) 0.00993 298.3 13.6
348(10) 0.00966 298.3 14.0
320(10) 0.01000 298.3 14.4
315(10) 0.00987 298.3 14.9
304(9) 0.01052 298.3 15.5
325(9) 0.01029 298.4 16.1
316(9) 0.01045 298.4 16.8
331(10) 0.00958 298.4 17.5
336(10) 0.00880 298.4 18.3
328(10) 0.00973 298.4 19.1
324(9) 0.01026 298.4 20.0
322(9) 0.01036 298.4 20.9
334(10) 0.00942 298.5 21.9
302(10) 0.01000 298.5 23.0
315(10) 0.01006 298.5 24.0
337(10) 0.00992 298.5 25.1
314(9) 0.01079 298.5 26.2
310(9) 0.01028 298.5 27.3
320(10) 0.00934 298.5 28.3
338(10) 0.00956 298.5 29.2
327(9) 0.01037 298.6 30.0
318(9) 0.01068 298.6 30.7
331(10) 0.00957 298.6 31.2
311(10) 0.00946 298.6 31.4
291(9) 0.01091 298.6 31.5
316(9) 0.01067 298.6 31.3
350(10) 0.00976 298.6 30.9
332(10) 0.00962 298.6 30.3
318(10) 0.00959 298.7 29.5
358(10) 0.00893 298.7 28.6
353(10) 0.00967 298.7 27.5
329(10) 0.00990 298.7 26.4
333(10) 0.00947 298.7 25.3
325(10) 0.00930 298.7 24.1
341(10) 0.00896 298.7 22.9
327(9) 0.01026 298.8 21.7
335(10) 0.00965 298.8 20.6
302(9) 0.01040 298.8 19.6
332(10) 0.00921 298.8 18.5
316(9) 0.01041 298.8 17.6
304(9) 0.01108 298.8 16.7
312(9) 0.01031 298.8 15.8
319(10) 0.00982 298.8 15.1
338(10) 0.00903 298.9 14.3
304(9) 0.01061 298.9 13.7
322(9) 0.01037 298.9 13.1
299(9) 0.01049 298.9 12.5
294(9) 0.01037 298.9 12.0
306(9) 0.01034 298.9 11.5
316(10) 0.01007 298.9 11.1
300(9) 0.01114 298.9 10.7
291(9) 0.01077 299.0 10.4
300(9) 0.01061 299.0 10.1
308(9) 0.01039 299.0 9.8
272(9) 0.01197 299.0 9.6
327(9) 0.01027 299.0 9.4
316(10) 0.00999 299.0 9.2
296(9) 0.01025 299.0 9.0
309(9) 0.01021 299.1 8.9
308(9) 0.01086 299.1 8.7
302(9) 0.01118 299.1 8.6
306(9) 0.01045 299.1 8.5
287(9) 0.01047 299.1 8.4
308(9) 0.01017 299.1 8.4
323(9) 0.01048 299.1 8.3
316(9) 0.01046 299.1 8.2
311(10) 0.01000 299.2 8.2
310(10) 0.00930 299.2 8.1
306(9) 0.01019 299.2 8.1
311(9) 0.01069 299.2 8.0
297(9) 0.01125 299.2 8.0
313(10) 0.00986 299.2 7.9
307(10) 0.00929 299.2 7.9
295(9) 0.01054 299.2 7.8
335(10) 0.00994 299.3 7.7
288(9) 0.01132 299.3 7.7
298(9) 0.01024 299.3 7.6
325(10) 0.00923 299.3 7.5
343(10) 0.00972 299.3 7.5
328(9) 0.01026 299.3 7.4
313(9) 0.01051 299.3 7.3
316(10) 0.00980 299.4 7.2
294(9) 0.01062 299.4 7.1
325(10) 0.00963 299.4 7.0
280(9) 0.01179 299.4 7.0
278(9) 0.01172 299.4 6.9
324(10) 0.00974 299.4 6.8
316(10) 0.00964 299.4 6.7
321(10) 0.00949 299.4 6.6
295(9) 0.01142 299.5 6.6
315(9) 0.01037 299.5 6.5
326(10) 0.00918 299.5 6.4
287(9) 0.01087 299.5 6.4
306(9) 0.01057 299.5 6.3
325(9) 0.01041 299.5 6.3
309(9) 0.01025 299.5 6.2
305(9) 0.01026 299.5 6.2
307(9) 0.01017 299.6 6.1
313(9) 0.01029 299.6 6.1
297(9) 0.01124 299.6 6.1
318(10) 0.00938 299.6 6.0
286(9) 0.01054 299.6 6.0
282(9) 0.01097 299.6 6.0
304(9) 0.01056 299.6 6.0
305(9) 0.01101 299.7 6.0
287(9) 0.01088 299.7 6.0
284(9) 0.01071 299.7 6.0
308(9) 0.01030 299.7 6.0
326(10) 0.00997 299.7 6.0
304(9) 0.01109 299.7 6.0
318(10) 0.00935 299.7 6.1
286(9) 0.01033 299.7 6.1
307(9) 0.01025 299.7 6.1
303(9) 0.01087 299.7 6.2
309(9) 0.01088 299.7 6.2
317(10) 0.01004 299.7 6.3
313(10) 0.00970 299.6 6.4
286(9) 0.01136 299.6 6.4
292(9) 0.01122 299.6 6.5
295(9) 0.01116 299.6 6.6
302(9) 0.01045 299.6 6.7
300(10) 0.00977 299.6 6.8
311(10) 0.01001 299.6 6.9
296(9) 0.01120 299.6 7.0
293(9) 0.01124 299.6 7.2
303(9) 0.01010 299.6 7.3
295(10) 0.00997 299.6 7.5
326(10) 0.00955 299.6 7.7
306(9) 0.01084 299.6 7.9
287(9) 0.01151 299.6 8.2
318(10) 0.00945 299.6 8.5
303(10) 0.00958 299.6 8.8
334(10) 0.00914 299.6 9.1
320(9) 0.01051 299.5 9.5
337(10) 0.01001 299.5 9.9
325(10) 0.00983 299.5 10.3
320(10) 0.00955 299.5 10.8
294(9) 0.01075 299.5 11.4
317(9) 0.01068 299.5 12.0
331(10) 0.00993 299.5 12.7
317(9) 0.01014 299.5 13.4
316(10) 0.00998 299.5 14.1
316(9) 0.01032 299.5 14.9
294(9) 0.01127 299.5 15.7
294(9) 0.01098 299.5 16.5
327(10) 0.00962 299.5 17.4
349(10) 0.00886 299.5 18.2
334(10) 0.00955 299.5 19.0
346(10) 0.00986 299.5 19.6
310(9) 0.01033 299.4 20.2
332(10) 0.00948 299.4 20.6
353(10) 0.00883 299.4 20.9
314(9) 0.01033 299.4 21.0
297(9) 0.01122 299.4 20.9
307(9) 0.01032 299.4 20.8
307(9) 0.01012 299.4 20.5
301(9) 0.01049 299.4 20.1
347(10) 0.00951 299.4 19.8
337(10) 0.01003 299.4 19.4
316(10) 0.00999 299.4 19.0
336(10) 0.00874 299.4 18.7
318(10) 0.01002 299.4 18.4
330(9) 0.01013 299.4 18.2
306(9) 0.01086 299.4 18.0
304(9) 0.01041 299.4 17.9
325(10) 0.00924 299.3 17.8
332(10) 0.00956 299.3 17.8
339(10) 0.00977 299.3 17.8
343(10) 0.00969 299.3 17.9
315(9) 0.01021 299.3 18.1
340(10) 0.00855 299.3 18.3
311(9) 0.01011 299.3 18.5
309(9) 0.01096 299.3 18.7
323(9) 0.01046 299.3 19.0
334(10) 0.00948 299.3 19.3
303(10) 0.00983 299.3 19.7
311(9) 0.01021 299.3 20.0
293(9) 0.01146 299.3 20.3
327(9) 0.01009 299.3 20.6
321(9) 0.01015 299.3 21.0
340(10) 0.00865 299.3 21.3
323(10) 0.00944 299.3 21.5
333(9) 0.01031 299.2 21.8
313(9) 0.01032 299.2 22.0
307(9) 0.01083 299.2 22.2
345(10) 0.00868 299.2 22.4
336(10) 0.00949 299.2 22.5
311(9) 0.01076 299.2 22.6
314(9) 0.01019 299.2 22.7
319(10) 0.00977 299.2 22.7
315(10) 0.00961 299.2 22.7
299(9) 0.01078 299.2 22.7
326(9) 0.01028 299.2 22.6
324(10) 0.00978 299.2 22.5
323(10) 0.00958 299.2 22.4
304(9) 0.01032 299.2 22.3
305(9) 0.01067 299.2 22.2
306(9) 0.01096 299.2 22.1
312(9) 0.01024 299.1 22.0
327(10) 0.00967 299.1 21.9
332(10) 0.00924 299.1 21.8
297(9) 0.01114 299.1 21.7
333(9) 0.01011 299.1 21.7
334(10) 0.00914 299.1 21.6
336(10) 0.00896 299.1 21.6
326(10) 0.00977 299.1 21.6
313(9) 0.01073 299.1 21.6
302(9) 0.01090 299.1 21.7
348(10) 0.00928 299.1 21.7
318(10) 0.00954 299.1 21.9
331(10) 0.00943 299.1 22.0
332(10) 0.00999 299.1 22.2
306(9) 0.01075 299.1 22.4
327(10) 0.00964 299.1 22.6
297(9) 0.01013 299.1 22.9
329(10) 0.00952 299.0 23.3
311(9) 0.01068 299.0 23.6
336(10) 0.00991 299.0 24.0
325(10) 0.00982 299.0 24.4
330(10) 0.00873 299.0 24.9
321(10) 0.00978 299.0 25.4
320(9) 0.01032 299.0 25.9
330(9) 0.01017 299.0 26.4
336(10) 0.00952 299.0 26.9
339(10) 0.00894 299.0 27.3
339(10) 0.00952 299.0 27.7
327(9) 0.01041 299.0 28.0
315(9) 0.01046 299.0 28.3
352(10) 0.00869 299.0 28.4
333(10) 0.00929 299.0 28.4
350(10) 0.00880 299.0 28.2
311(9) 0.01085 298.9 27.9
328(10) 0.00978 298.9 27.5
337(10) 0.00945 298.9 27.0
352(10) 0.00861 298.9 26.3
338(10) 0.00932 298.9 25.6
309(9) 0.01082 298.9 24.8
323(10) 0.01006 298.9 24.0
306(10) 0.00992 298.9 23.2
295(9) 0.01050 298.9 22.3
316(9) 0.01012 298.9 21.5
340(10) 0.00992 298.9 20.7
342(10) 0.00962 298.9 19.9
349(10) 0.00890 298.9 19.2
312(9) 0.01028 298.9 18.5
351(10) 0.00889 298.9 17.9
299(9) 0.01117 298.9 17.3
308(9) 0.01017 298.9 16.7
325(10) 0.00961 298.8 16.2
340(10) 0.00909 298.8 15.7
307(9) 0.01070 298.8 15.3
336(10) 0.01006 298.8 14.9
325(10) 0.00955 298.8 14.5
304(9) 0.01025 298.8 14.2
332(10) 0.00934 298.8 14.0
331(10) 0.00987 298.8 13.7
325(9) 0.01042 298.8 13.5
318(10) 0.00994 298.8 13.4
319(10) 0.00942 298.8 13.2
304(9) 0.01054 298.8 13.2
308(9) 0.01049 298.8 13.1
313(9) 0.01075 298.8 13.1
306(9) 0.01045 298.8 13.1
293(10) 0.00990 298.8 13.2
306(9) 0.01012 298.7 13.3
318(9) 0.01038 298.7 13.5
315(9) 0.01072 298.7 13.7
327(10) 0.00973 298.7 14.0
328(10) 0.00909 298.7 14.3
320(10) 0.00977 298.7 14.6
319(9) 0.01060 298.7 15.1
335(10) 0.00981 298.7 15.5
328(10) 0.00973 298.7 16.1
330(10) 0.00892 298.7 16.7
332(10) 0.00970 298.7 17.4
353(10) 0.00960 298.7 18.1
305(9) 0.01094 298.7 18.9
313(9) 0.01024 298.7 19.8
317(10) 0.00951 298.7 20.7
303(9) 0.01065 298.7 21.7
306(9) 0.01077 298.6 22.6
333(10) 0.00981 298.6 23.7
333(10) 0.00992 298.6 24.7
349(10) 0.00885 298.6 25.6
322(10) 0.00965 298.6 26.5
307(9) 0.01074 298.6 27.3
339(10) 0.00994 298.6 28.0
350(10) 0.00916 298.6 28.5
347(10) 0.00875 298.6 28.7
324(10) 0.00982 298.6 28.8
316(9) 0.01067 298.6 28.6
312(9) 0.01029 298.6 28.2
315(10) 0.00949 298.6 27.6
297(9) 0.01037 298.6 26.8
313(9) 0.01019 298.6 26.0
326(9) 0.01034 298.6 25.0
325(10) 0.00976 298.6 23.9
306(10) 0.00985 298.5 22.9
312(9) 0.01012 298.5 21.8
319(9) 0.01047 298.5 20.8
329(9) 0.01013 298.5 19.8
315(10) 0.01006 298.5 18.8
339(10) 0.00893 298.5 17.9
322(10) 0.00972 298.5 17.1
323(9) 0.01028 298.5 16.3
337(10) 0.01000 298.5 15.6
323(10) 0.00962 298.5 14.9
300(9) 0.01010 298.5 14.3
277(9) 0.01152 298.5 13.8
280(9) 0.01199 298.5 13.4
300(9) 0.01116 298.5 13.0
310(9) 0.01053 298.5 12.6
313(10) 0.00953 298.5 12.3
291(9) 0.01047 298.4 12.1
299(9) 0.01130 298.4 12.0
314(9) 0.01063 298.4 11.9
296(9) 0.01047 298.4 11.8
302(10) 0.00959 298.4 11.8
316(9) 0.01026 298.4 11.9
328(9) 0.01027 298.4 12.1
304(9) 0.01088 298.4 12.3
302(9) 0.01038 298.4 12.6
322(10) 0.00923 298.4 13.0
288(9) 0.01138 298.4 13.4
293(9) 0.01132 298.4 13.9
306(9) 0.01088 298.4 14.5
303(9) 0.01023 298.4 15.1
313(10) 0.00948 298.4 15.7
324(10) 0.00964 298.4 16.3
328(9) 0.01020 298.4 17.0
319(10) 0.00991 298.3 17.5
307(10) 0.01003 298.3 17.9
299(9) 0.01036 298.3 18.2
299(9) 0.01094 298.3 18.3
322(9) 0.01044 298.3 18.3
325(10) 0.00997 298.3 18.0
300(9) 0.01048 298.3 17.6
322(10) 0.00925 298.3 17.1
309(10) 0.01002 298.3 16.6
307(9) 0.01094 298.3 16.0
310(9) 0.01055 298.3 15.4
310(9) 0.01017 298.3 14.9
313(10) 0.00951 298.3 14.4
291(9) 0.01091 298.3 14.0
302(9) 0.01100 298.3 13.6
333(10) 0.00958 298.3 13.3
323(10) 0.00968 298.2 13.0
327(10) 0.00931 298.2 12.9
305(9) 0.01033 298.2 12.7
350(10) 0.00965 298.2 12.6
313(9) 0.01060 298.2 12.6
305(10) 0.00991 298.2 12.6
309(10) 0.01004 298.2 12.6
311(9) 0.01052 298.2 12.6
312(9) 0.01078 298.2 12.7
325(10) 0.00968 298.2 12.8
289(9) 0.01105 298.2 13.0
319(10) 0.00997 298.2 13.1
345(10) 0.00974 298.2 13.3
306(9) 0.01104 298.2 13.5
317(9) 0.01008 298.2 13.7
328(10) 0.00877 298.2 13.9
316(10) 0.00980 298.2 14.2
320(9) 0.01031 298.1 14.5
318(9) 0.01062 298.1 14.8
305(10) 0.01006 298.1 15.1
328(10) 0.00875 298.1 15.4
320(10) 0.00976 298.1 15.8
317(9) 0.01060 298.1 16.2
312(9) 0.01061 298.1 16.7
313(9) 0.01019 298.1 17.2
330(10) 0.00883 298.1 17.7
311(9) 0.01021 298.1 18.3
307(9) 0.01097 298.1 19.0
306(9) 0.01083 298.1 19.7
322(10) 0.01001 298.1 20.5
341(10) 0.00882 298.1 21.4
340(10) 0.00921 298.1 22.4
333(9) 0.01013 298.1 23.5
300(9) 0.01128 298.0 24.8
336(10) 0.00956 298.0 26.2
335(10) 0.00912 298.0 27.7
351(10) 0.00913 298.0 29.4
330(9) 0.01017 298.0 31.3
334(10) 0.01006 298.0 33.4
338(10) 0.00926 298.0 35.7
351(10) 0.00866 298.0 38.3
330(10) 0.00980 298.0 41.1
347(10) 0.00972 298.0 44.2
343(10) 0.00973 298.0 47.6
366(10) 0.00860 298.0 51.2
365(10) 0.00874 298.0 55.1
365(10) 0.00897 298.0 59.2
370(10) 0.00931 298.0 63.6
369(10) 0.00875 298.0 68.1
400(11) 0.00784 297.9 72.8
390(10) 0.00842 297.9 77.5
391(10) 0.00841 297.9 82.2
399(10) 0.00855 297.9 86.7
427(11) 0.00789 297.9 90.8
418(11) 0.00773 297.9 94.5
481(12) 0.00659 297.9 97.4
432(11) 0.00770 297.9 99.6
433(11) 0.00798 297.9 100.8
418(11) 0.00762 297.9 100.9
403(11) 0.00787 297.9 100.1
416(11) 0.00776 297.9 98.3
387(10) 0.00875 297.9 95.6
402(10) 0.00853 297.9 92.3
426(11) 0.00739 297.9 88.3
369(11) 0.00826 297.9 84.0
355(10) 0.00906 297.9 79.5
364(10) 0.00927 297.8 74.8
353(10) 0.00966 297.8 70.2
388(11) 0.00838 297.8 65.6
342(10) 0.00875 297.8 61.2
364(10) 0.00866 297.8 57.0
358(10) 0.00947 297.8 53.0
326(9) 0.01030 297.8 49.2
344(10) 0.00904 297.8 45.7
307(10) 0.00979 297.8 42.5
343(10) 0.00910 297.8 39.4
323(9) 0.01035 297.8 36.7
317(9) 0.01052 297.8 34.1
326(10) 0.00975 297.8 31.8
313(10) 0.00954 297.8 29.7
319(10) 0.00975 297.8 27.8
348(10) 0.00976 297.8 26.1
324(9) 0.01023 297.7 24.5
307(9) 0.01037 297.7 23.1
324(10) 0.00944 297.7 21.8
327(10) 0.00965 297.7 20.7
321(9) 0.01061 297.7 19.6
337(10) 0.00985 297.7 18.7
327(10) 0.00971 297.7 17.9
316(10) 0.00945 297.7 17.1
349(10) 0.00889 297.7 16.4
316(9) 0.01064 297.7 15.8
286(9) 0.01160 297.7 15.2
314(9) 0.01025 297.7 14.7
337(10) 0.00928 297.7 14.3
311(9) 0.01043 297.7 13.9
296(9) 0.01135 297.7 13.5
337(10) 0.00935 297.7 13.1
318(10) 0.00964 297.7 12.8
330(10) 0.00938 297.6 12.6
312(9) 0.01037 297.6 12.3
340(10) 0.00990 297.6 12.1
285(9) 0.01138 297.6 11.9
291(9) 0.01098 297.6 11.7
304(9) 0.01052 297.6 11.6
316(9) 0.01032 297.6 11.4
304(9) 0.01099 297.6 11.3
298(9) 0.01039 297.6 11.2
309(10) 0.00989 297.6 11.1
310(9) 0.01040 297.6 11.0
298(9) 0.01096 297.6 11.0
302(9) 0.01106 297.6 10.9
315(9) 0.01028 297.6 10.9
306(9) 0.01039 297.6 10.8
322(10) 0.00988 297.6 10.8
303(9) 0.01077 297.5 10.7
302(9) 0.01106 297.5 10.7
317(10) 0.00974 297.5 10.6
332(10) 0.00868 297.5 10.5
309(9) 0.01018 297.5 10.5
325(9) 0.01015 297.5 10.4
287(9) 0.01158 297.5 10.3
316(10) 0.00995 297.5 10.2
296(9) 0.01040 297.5 10.1
301(9) 0.01078 297.5 10.0
316(9) 0.01044 297.5 9.9
285(9) 0.01175 297.5 9.8
298(9) 0.01031 297.5 9.6
287(9) 0.01036 297.5 9.5
305(9) 0.01024 297.5 9.4
309(9) 0.01088 297.5 9.3
295(9) 0.01126 297.4 9.2
335(10) 0.00928 297.4 9.1
305(10) 0.00968 297.4 9.0
291(9) 0.01090 297.4 8.9
329(9) 0.01021 297.4 8.8
299(9) 0.01081 297.4 8.7
304(9) 0.01014 297.4 8.7
318(10) 0.00968 297.4 8.6
313(10) 0.00993 297.4 8.6
307(9) 0.01102 297.4 8.5
318(9) 0.01009 297.4 8.5
297(9) 0.01008 297.4 8.5
314(10) 0.00960 297.4 8.4
292(9) 0.01094 297.4 8.4
311(9) 0.01076 297.4 8.4
302(9) 0.01072 297.4 8.4
272(9) 0.01197 297.4 8.4
305(9) 0.01047 297.3 8.5
304(9) 0.01078 297.3 8.5
317(9) 0.01052 297.3 8.5
292(9) 0.01079 297.3 8.5
318(10) 0.00934 297.3 8.6
328(10) 0.00943 297.3 8.6
285(9) 0.01154 297.3 8.7
301(9) 0.01116 297.3 8.8
311(10) 0.00992 297.3 8.8
295(9) 0.01069 297.3 8.9
302(9) 0.01041 297.3 9.0
313(9) 0.01014 297.3 9.1
318(9) 0.01052 297.3 9.1
313(9) 0.01017 297.3 9.2
329(10) 0.00924 297.3 9.3
286(9) 0.01111 297.3 9.4
295(9) 0.01118 297.3 9.5
290(9) 0.01169 297.3 9.6
294(9) 0.01090 297.3 9.7
318(10) 0.00943 297.3 9.8
317(10) 0.00998 297.3 9.9
292(9) 0.01140 297.3 10.1
290(9) 0.01162 297.3 10.2
317(10) 0.00976 297.3 10.3
316(10) 0.00914 297.3 10.3
313(9) 0.01031 297.3 10.4
300(9) 0.01099 297.3 10.5
286(9) 0.01143 297.3 10.6
278(9) 0.01117 297.4 10.7
310(10) 0.00923 297.4 10.7
316(10) 0.00968 297.4 10.8
298(9) 0.01120 297.4 10.8
314(9) 0.01065 297.4 10.9
281(9) 0.01135 297.4 10.9
301(9) 0.01031 297.4 11.0
341(10) 0.00934 297.4 11.0
285(9) 0.01159 297.4 11.1
309(9) 0.01061 297.4 11.1
325(10) 0.00985 297.4 11.1
296(9) 0.01019 297.5 11.2
322(10) 0.00979 297.5 11.2
304(9) 0.01096 297.5 11.2
319(9) 0.01046 297.5 11.2
342(10) 0.00919 297.5 11.3
307(9) 0.01015 297.5 11.3
339(10) 0.00891 297.5 11.4
286(9) 0.01163 297.5 11.4
307(9) 0.01065 297.5 11.4
317(10) 0.00985 297.5 11.5
325(10) 0.00980 297.5 11.5
314(9) 0.01047 297.6 11.6
323(9) 0.01046 297.6 11.6
281(9) 0.01172 297.6 11.7
299(9) 0.01058 297.6 11.7
327(10) 0.00955 297.6 11.8
327(10) 0.00970 297.6 11.9
301(9) 0.01115 297.6 11.9
285(9) 0.01127 297.6 12.0
305(9) 0.01019 297.6 12.1
295(9) 0.01057 297.6 12.2
310(9) 0.01048 297.6 12.3
305(9) 0.01090 297.7 12.4
320(10) 0.00993 297.7 12.5
312(10) 0.00987 297.7 12.6
325(10) 0.00971 297.7 12.7
299(9) 0.01089 297.7 12.8
313(9) 0.01076 297.7 13.0
326(10) 0.00935 297.7 13.1
318(10) 0.00993 297.7 13.3
328(10) 0.00978 297.7 13.5
320(9) 0.01039 297.7 13.7
336(10) 0.01005 297.7 13.8
326(10) 0.00971 297.7 14.1
304(10) 0.00996 297.8 14.3
303(9) 0.01081 297.8 14.5
332(9) 0.01012 297.8 14.8
330(9) 0.01023 297.8 15.0
316(9) 0.01010 297.8 15.3
326(10) 0.00895 297.8 15.6
307(10) 0.01002 297.8 15.9
305(9) 0.01104 297.8 16.3
320(9) 0.01044 297.8 16.6
329(10) 0.00984 297.8 17.0
325(10) 0.00918 297.8 17.4
319(10) 0.00989 297.9 17.9
318(9) 0.01038 297.9 18.3
336(10) 0.00993 297.9 18.8
333(10) 0.00982 297.9 19.3
323(10) 0.00950 297.9 19.8
297(9) 0.01059 297.9 20.4
341(10) 0.00999 297.9 21.0
330(10) 0.00994 297.9 21.6
326(10) 0.00969 297.9 22.3
350(10) 0.00857 297.9 23.0
328(10) 0.00987 297.9 23.7
346(10) 0.00981 298.0 24.5
347(10) 0.00965 298.0 25.3
337(10) 0.00922 298.0 26.2
296(9) 0.01041 298.0 27.1
329(10) 0.00945 298.0 28.0
319(9) 0.01059 298.0 29.0
326(10) 0.01002 298.0 30.0
323(10) 0.00947 298.0 31.0
339(10) 0.00911 298.0 32.2
346(10) 0.00926 298.0 33.3
338(9) 0.01009 298.0 34.5
344(10) 0.00929 298.1 35.7
326(10) 0.00948 298.1 37.0
361(10) 0.00874 298.1 38.3
361(10) 0.00909 298.1 39.7
358(10) 0.00947 298.1 41.0
333(10) 0.00958 298.1 42.4
357(10) 0.00865 298.1 43.8
372(11) 0.00835 298.1 45.3
365(10) 0.00919 298.1 46.7
348(10) 0.00970 298.1 48.1
357(10) 0.00891 298.1 49.5
351(10) 0.00877 298.1 50.9
352(10) 0.00904 298.2 52.2
365(10) 0.00902 298.2 53.5
361(10) 0.00948 298.2 54.8
376(10) 0.00854 298.2 55.9
367(11) 0.00831 298.2 57.1
346(10) 0.00930 298.2 58.1
398(10) 0.00844 298.2 59.0
345(10) 0.00991 298.2 59.9
375(10) 0.00851 298.2 60.7
341(10) 0.00891 298.2 61.4
368(10) 0.00896 298.2 62.1
348(10) 0.00969 298.3 62.6
358(10) 0.00947 298.3 63.1
378(10) 0.00840 298.3 63.5
379(11) 0.00822 298.3 63.9
396(11) 0.00821 298.3 64.2
374(10) 0.00901 298.3 64.4
376(10) 0.00892 298.3 64.5
389(11) 0.00803 298.3 64.6
341(10) 0.00908 298.3 64.6
366(10) 0.00880 298.3 64.5
371(10) 0.00913 298.3 64.3
359(10) 0.00916 298.4 63.9
360(10) 0.00859 298.4 63.5
334(10) 0.00917 298.4 62.9
337(10) 0.00946 298.4 62.1
362(10) 0.00941 298.4 61.2
360(10) 0.00919 298.4 60.1
363(10) 0.00864 298.4 58.9
351(10) 0.00899 298.4 57.6
358(10) 0.00881 298.4 56.1
335(10) 0.01003 298.4 54.6
363(10) 0.00894 298.4 53.0
361(10) 0.00897 298.4 51.4
359(10) 0.00889 298.5 49.7
336(10) 0.00978 298.5 48.0
332(9) 0.01028 298.5 46.4
323(10) 0.00975 298.5 44.7
339(10) 0.00920 298.5 43.1
340(10) 0.00928 298.5 41.5
347(10) 0.00930 298.5 40.0
324(9) 0.01044 298.5 38.6
354(10) 0.00882 298.5 37.2
343(10) 0.00880 298.5 35.8
333(10) 0.00924 298.5 34.5
318(9) 0.01046 298.6 33.3
335(10) 0.00997 298.6 32.2
325(10) 0.00986 298.6 31.1
334(10) 0.00881 298.6 30.0
338(10) 0.00917 298.6 29.0
322(9) 0.01045 298.6 28.1
311(9) 0.01074 298.6 27.2
323(10) 0.00966 298.6 26.4
322(10) 0.00937 298.6 25.6
330(10) 0.00982 298.6 24.9
336(10) 0.01002 298.6 24.2
318(9) 0.01041 298.7 23.6
312(9) 0.01036 298.7 22.9
332(10) 0.00890 298.7 22.4
337(10) 0.00922 298.7 21.8
336(10) 0.00996 298.7 21.3
302(9) 0.01101 298.7 20.8
304(9) 0.01008 298.7 20.3
303(10) 0.00937 298.7 19.9
322(10) 0.00959 298.7 19.5
319(9) 0.01060 298.7 19.1
320(9) 0.01052 298.7 18.7
338(10) 0.00923 298.8 18.4
322(10) 0.00929 298.8 18.0
319(10) 0.00984 298.8 17.7
305(9) 0.01103 298.8 17.4
308(9) 0.01071 298.8 17.1
309(9) 0.01048 298.8 16.8
317(10) 0.00993 298.8 16.5
315(9) 0.01036 298.8 16.3
301(9) 0.01110 298.8 16.0
315(9) 0.01040 298.8 15.8
315(9) 0.01012 298.8 15.5
305(10) 0.01003 298.8 15.3
307(9) 0.01020 298.9 15.1
307(9) 0.01088 298.9 14.9
287(9) 0.01132 298.9 14.7
301(9) 0.01037 298.9 14.5
308(9) 0.01039 298.9 14.3
327(10) 0.00998 298.9 14.1
327(9) 0.01026 298.9 13.9
292(9) 0.01060 298.9 13.7
296(9) 0.01046 298.9 13.5
306(9) 0.01030 298.9 13.4
276(9) 0.01189 298.9 13.2
310(9) 0.01069 299.0 13.0
282(9) 0.01125 299.0 12.9
324(10) 0.00896 299.0 12.7
293(9) 0.01068 299.0 12.6
303(9) 0.01074 299.0 12.4
282(9) 0.01177 299.0 12.3
336(10) 0.00900 299.0 12.1
322(10) 0.00960 299.0 12.0
313(9) 0.01010 299.0 11.8
301(9) 0.01070 299.0 11.7
288(9) 0.01175 299.0 11.6
280(9) 0.01134 299.1 11.4
307(10) 0.00947 299.1 11.3
311(9) 0.01016 299.1 11.2
311(9) 0.01079 299.1 11.1
302(9) 0.01121 299.1 10.9
298(9) 0.01088 299.1 10.8
286(9) 0.01017 299.1 10.7
296(9) 0.01075 299.1 10.6
309(9) 0.01080 299.1 10.5
300(9) 0.01113 299.1 10.4
305(9) 0.01019 299.1 10.3
291(9) 0.01021 299.2 10.2
295(9) 0.01069 299.2 10.1
319(9) 0.01046 299.2 10.0
310(9) 0.01069 299.2 9.9
291(9) 0.01111 299.2 9.8
322(10) 0.00936 299.2 9.8
320(10) 0.00957 299.2 9.7
289(9) 0.01149 299.2 9.6
332(10) 0.00996 299.2 9.5
302(9) 0.01057 299.2 9.5
315(10) 0.00955 299.2 9.4
282(9) 0.01136 299.2 9.3
319(9) 0.01056 299.3 9.3
292(9) 0.01113 299.3 9.2
305(10) 0.01005 299.3 9.2
310(10) 0.01004 299.3 9.1
319(10) 0.00969 299.3 9.1
300(9) 0.01115 299.3 9.0
284(9) 0.01102 299.3 9.0
290(9) 0.01053 299.3 8.9
293(9) 0.01057 299.3 8.9
298(9) 0.01089 299.3 8.9
273(9) 0.01214 299.3 8.8
320(10) 0.00999 299.4 8.8
322(10) 0.00973 299.4 8.8
316(10) 0.00972 299.4 8.8
303(9) 0.01065 299.4 8.7
291(9) 0.01141 299.4 8.7
324(10) 0.00962 299.4 8.7
308(9) 0.01020 299.4 8.7
305(9) 0.01040 299.4 8.7
298(9) 0.01109 299.4 8.7
267(9) 0.01226 299.4 8.7
313(9) 0.01011 299.4 8.7
293(9) 0.01054 299.5 8.7
289(9) 0.01086 299.5 8.7
315(9) 0.01056 299.5 8.7
308(9) 0.01092 299.5 8.7
328(10) 0.00955 299.5 8.7
297(10) 0.00986 299.5 8.8
269(9) 0.01160 299.5 8.8
299(9) 0.01108 299.5 8.8
306(9) 0.01103 299.5 8.8
308(9) 0.01027 299.5 8.9
306(10) 0.00991 299.5 8.9
303(9) 0.01090 299.6 8.9
341(10) 0.00989 299.6 9.0
311(9) 0.01071 299.6 9.0
296(9) 0.01044 299.6 9.1
297(10) 0.00962 299.6 9.1
311(9) 0.01040 299.6 9.2
306(9) 0.01092 299.6 9.2
308(9) 0.01082 299.6 9.3
314(9) 0.01024 299.6 9.4
302(10) 0.00971 299.6 9.4
295(9) 0.01047 299.6 9.5
301(9) 0.01102 299.6 9.6
291(9) 0.01098 299.7 9.7
308(10) 0.01005 299.7 9.7
299(10) 0.01004 299.7 9.8
302(9) 0.01021 299.7 9.9
291(9) 0.01135 299.7 10.0
293(9) 0.01117 299.7 10.1
264(9) 0.01211 299.7 10.2
322(10) 0.00947 299.7 10.3
318(9) 0.01013 299.7 10.4
297(9) 0.01126 299.6 10.5
318(9) 0.01022 299.6 10.6
286(9) 0.01069 299.6 10.7
286(9) 0.01060 299.6 10.7
299(9) 0.01052 299.6 10.8
298(9) 0.01100 299.6 10.9
323(10) 0.00984 299.5 11.0
283(9) 0.01115 299.5 11.1
305(10) 0.00979 299.5 11.2
315(9) 0.01030 299.5 11.3
316(9) 0.01072 299.5 11.4
299(9) 0.01083 299.5 11.5
291(9) 0.01067 299.5 11.6
298(9) 0.01050 299.4 11.7
323(9) 0.01010 299.4 11.7
283(9) 0.01176 299.4 11.8
318(10) 0.00954 299.4 11.9
296(9) 0.01036 299.4 12.0
288(9) 0.01067 299.4 12.0
287(9) 0.01155 299.4 12.1
284(9) 0.01165 299.3 12.1
309(9) 0.01023 299.3 12.2
312(10) 0.00957 299.3 12.3
287(9) 0.01130 299.3 12.3
334(10) 0.01004 299.3 12.4
296(9) 0.01131 299.3 12.4
311(9) 0.01008 299.3 12.5
305(10) 0.00997 299.2 12.5
314(10) 0.00988 299.2 12.5
309(9) 0.01043 299.2 12.6
319(9) 0.01059 299.2 12.6
309(9) 0.01027 299.2 12.7
315(10) 0.00907 299.2 12.7
278(9) 0.01161 299.1 12.8
327(9) 0.01018 299.1 12.9
314(9) 0.01066 299.1 12.9
322(10) 0.00926 299.1 13.0
328(10) 0.00872 299.1 13.0
314(9) 0.01011 299.1 13.1
309(9) 0.01067 299.1 13.2
320(9) 0.01065 299.0 13.2
311(10) 0.01005 299.0 13.3
304(10) 0.00997 299.0 13.4
306(9) 0.01016 299.0 13.5
301(9) 0.01122 299.0 13.5
316(9) 0.01062 299.0 13.6
322(10) 0.00966 299.0 13.7
291(9) 0.01057 298.9 13.8
282(9) 0.01112 298.9 13.9
332(9) 0.01023 298.9 13.9
323(9) 0.01022 298.9 14.0
320(10) 0.00985 298.9 14.1
327(10) 0.00918 298.9 14.2
299(9) 0.01049 298.9 14.3
320(9) 0.01057 298.8 14.3
335(10) 0.00969 298.8 14.4
306(9) 0.01057 298.8 14.5
295(9) 0.01045 298.8 14.5
306(10) 0.00991 298.8 14.6
297(9) 0.01134 298.8 14.6
307(10) 0.00996 298.7 14.7
303(9) 0.01010 298.7 14.7
314(10) 0.01002 298.7 14.7
309(9) 0.01053 298.7 14.7
305(9) 0.01092 298.7 14.7
314(10) 0.01000 298.7 14.7
316(10) 0.00956 298.7 14.7
310(9) 0.01033 298.6 14.7
301(9) 0.01092 298.6 14.6
314(9) 0.01074 298.6 14.6
292(9) 0.01072 298.6 14.6
295(9) 0.01016 298.6 14.5
297(9) 0.01050 298.6 14.4
281(9) 0.01182 298.6 14.4
300(9) 0.01107 298.5 14.3
305(9) 0.01009 298.5 14.2
313(10) 0.00928 298.5 14.2
309(9) 0.01027 298.5 14.1
304(9) 0.01101 298.5 14.0
317(9) 0.01069 298.5 13.9
284(9) 0.01143 298.5 13.8
315(10) 0.00920 298.4 13.7
326(10) 0.00950 298.4 13.7
312(9) 0.01074 298.4 13.6
312(9) 0.01060 298.4 13.5
307(9) 0.01015 298.4 13.4
293(9) 0.01025 298.4 13.3
305(9) 0.01045 298.3 13.2
308(9) 0.01098 298.3 13.1
282(9) 0.01182 298.3 13.1
330(10) 0.00955 298.3 13.0
309(9) 0.01017 298.3 12.9
296(9) 0.01061 298.3 12.8
309(9) 0.01083 298.3 12.7
311(9) 0.01057 298.2 12.7
304(9) 0.01061 298.2 12.6
303(9) 0.01016 298.2 12.5
299(9) 0.01041 298.2 12.4
313(9) 0.01075 298.2 12.4
295(9) 0.01109 298.2 12.3
301(9) 0.01064 298.2 12.2
332(10) 0.00917 298.1 12.2
310(10) 0.00982 298.1 12.1
285(9) 0.01161 298.1 12.1
307(9) 0.01062 298.1 12.0
304(9) 0.01025 298.1 12.0
278(9) 0.01137 298.1 12.0
326(10) 0.00953 298.0 11.9
325(9) 0.01021 298.0 11.9
321(9) 0.01014 298.0 11.9
310(9) 0.01025 298.0 11.9
321(10) 0.00961 298.0 11.9
325(10) 0.00989 298.0 11.9
303(9) 0.01096 298.0 11.9
307(9) 0.01021 297.9 12.0
314(10) 0.00974 297.9 12.1
325(10) 0.00960 297.9 12.2
293(9) 0.01115 297.9 12.3
292(9) 0.01130 297.9 12.5
306(9) 0.01012 297.9 12.7
319(10) 0.00953 297.9 13.0
322(10) 0.00992 297.8 13.3
301(9) 0.01093 297.8 13.8
305(9) 0.01101 297.8 14.3
302(9) 0.01053 297.8 15.0
328(10) 0.00882 297.8 15.8
310(10) 0.01000 297.8 16.7
302(9) 0.01102 297.8 17.8
299(9) 0.01109 297.7 19.1
333(10) 0.00913 297.7 20.5
303(10) 0.00963 297.7 22.0
273(9) 0.01155 297.7 23.7
292(9) 0.01112 297.7 25.4
305(9) 0.01113 297.7 27.3
347(10) 0.00902 297.6 29.1
337(10) 0.00869 297.6 30.8
326(10) 0.00972 297.6 32.2
355(10) 0.00950 297.6 33.4
325(9) 0.01022 297.6 34.1
325(10) 0.00978 297.6 34.3
335(10) 0.00899 297.6 34.0
328(10) 0.00972 297.5 33.1
307(9) 0.01102 297.5 31.9
312(9) 0.01060 297.5 30.3
324(10) 0.00962 297.5 28.6
323(10) 0.00913 297.5 26.7
321(10) 0.00995 297.5 24.9
341(10) 0.01000 297.5 23.1
303(9) 0.01057 297.4 21.4
290(9) 0.01096 297.4 19.9
311(10) 0.00974 297.4 18.5
307(9) 0.01050 297.4 17.3
331(9) 0.01030 297.4 16.2
305(9) 0.01061 297.4 15.3
306(9) 0.01008 297.4 14.5
305(9) 0.01017 297.3 13.8
298(9) 0.01041 297.3 13.3
338(10) 0.01003 297.3 12.9
312(9) 0.01019 297.3 12.5
296(9) 0.01045 297.3 12.2
302(9) 0.01033 297.3 12.0
317(9) 0.01023 297.2 11.9
305(9) 0.01113 297.2 11.7
293(9) 0.01058 297.2 11.6
295(9) 0.01048 297.2 11.6
299(9) 0.01033 297.2 11.6
300(9) 0.01104 297.2 11.5
302(9) 0.01099 297.2 11.5
316(9) 0.01014 297.1 11.6
302(9) 0.01052 297.1 11.6
317(10) 0.00984 297.1 11.7
298(9) 0.01104 297.1 11.7
315(9) 0.01069 297.1 11.8
311(10) 0.00979 297.1 11.9
314(10) 0.00956 297.1 12.0
295(9) 0.01101 297.0 12.1
315(10) 0.01004 297.0 12.3
328(9) 0.01041 297.0 12.4
292(9) 0.01079 297.0 12.6
301(10) 0.01000 297.0 12.8
331(10) 0.00948 297.0 12.9
316(9) 0.01064 297.0 13.1
299(9) 0.01116 296.9 13.4
303(9) 0.01034 296.9 13.6
310(10) 0.00951 296.9 13.8
315(10) 0.01002 296.9 14.1
264(8) 0.01255 296.9 14.3
306(9) 0.01075 296.9 14.6
301(9) 0.01043 296.8 14.9
319(10) 0.00934 296.8 15.2
292(9) 0.01088 296.8 15.5
309(9) 0.01078 296.8 15.8
333(9) 0.01009 296.8 16.1
334(10) 0.00947 296.8 16.4
301(9) 0.01032 296.8 16.7
300(9) 0.01062 296.7 17.0
305(9) 0.01094 296.7 17.4
321(9) 0.01048 296.7 17.7
300(9) 0.01102 296.7 18.0
298(9) 0.01049 296.7 18.3
312(9) 0.01008 296.7 18.6
320(9) 0.01052 296.7 18.9
308(9) 0.01069 296.6 19.2
312(10) 0.00992 296.6 19.5
290(9) 0.01075 296.6 19.9
315(10) 0.00988 296.6 20.2
317(9) 0.01070 296.6 20.6
322(9) 0.01026 296.6 21.0
330(10) 0.00963 296.5 21.4
317(10) 0.00989 296.5 21.8
321(9) 0.01021 296.5 22.2
310(9) 0.01082 296.5 22.6
331(10) 0.00971 296.5 23.0
331(10) 0.00922 296.5 23.5
313(9) 0.01040 296.5 24.0
320(9) 0.01026 296.4 24.4
313(9) 0.01074 296.4 24.9
333(10) 0.00932 296.4 25.4
320(10) 0.00958 296.4 25.9
314(9) 0.01014 296.4 26.3
353(10) 0.00936 296.4 26.8
310(9) 0.01071 296.4 27.3
316(10) 0.00980 296.3 27.7
328(10) 0.00889 296.3 28.2
312(9) 0.01019 296.3 28.6
332(10) 0.00999 296.3 29.0
328(9) 0.01037 296.3 29.4
352(10) 0.00865 296.3 29.8
319(10) 0.00926 296.3 30.2
315(10) 0.01007 296.2 30.5
330(9) 0.01027 296.2 30.8
298(9) 0.01113 296.2 31.1
329(10) 0.00971 296.2 31.3
344(10) 0.00856 296.2 31.5
320(10) 0.00986 296.2 31.7
347(10) 0.00967 296.1 31.9
329(9) 0.01028 296.1 32.0
324(10) 0.01001 296.1 32.1
340(10) 0.00875 296.1 32.2
339(10) 0.00906 296.1 32.2
323(9) 0.01031 296.1 32.2
356(10) 0.00926 296.1 32.2
360(10) 0.00867 296.0 32.2
335(10) 0.00882 296.0 32.1
285(9) 0.01082 296.0 32.1
308(9) 0.01098 296.0 32.0
305(9) 0.01065 296.0 31.9
315(10) 0.00981 296.0 31.7
290(9) 0.01041 296.0 31.6
328(10) 0.00956 295.9 31.5
327(9) 0.01044 295.9 31.3
333(10) 0.00977 295.9 31.2
349(10) 0.00915 295.9 31.0
331(10) 0.00953 295.9 30.9
337(10) 0.00936 295.9 30.7
335(9) 0.01011 295.9 30.5
320(9) 0.01012 295.8 30.4
318(10) 0.01005 295.8 30.2
321(10) 0.00981 295.8 30.0
333(10) 0.00959 295.8 29.8
333(9) 0.01009 295.8 29.5
326(10) 0.00940 295.8 29.3
302(10) 0.00987 295.7 28.9
294(9) 0.01045 295.7 28.6
309(9) 0.01061 295.7 28.2
319(9) 0.01054 295.7 27.7
319(9) 0.01035 295.7 27.2
328(10) 0.00924 295.7 26.7
321(10) 0.00966 295.7 26.1
304(9) 0.01048 295.6 25.5
304(9) 0.01108 295.6 24.9
321(10) 0.00989 295.6 24.3
323(10) 0.00942 295.6 23.7
320(10) 0.00989 295.6 23.1
320(9) 0.01036 295.6 22.5
308(9) 0.01099 295.6 21.9
310(9) 0.01052 295.5 21.4
327(10) 0.00925 295.5 20.9
305(9) 0.01024 295.5 20.5
293(9) 0.01147 295.5 20.1
313(9) 0.01064 295.5 19.7
334(10) 0.00922 295.5 19.4
307(10) 0.00995 295.5 19.2
337(10) 0.00947 295.4 19.0
328(9) 0.01015 295.4 18.9
313(9) 0.01078 295.4 18.8
305(9) 0.01056 295.4 18.9
326(10) 0.00920 295.4 19.0
320(9) 0.01010 295.4 19.2
293(9) 0.01159 295.3 19.5
291(9) 0.01135 295.3 19.9
291(9) 0.01058 295.3 20.4
307(10) 0.00973 295.3 20.9
322(10) 0.00983 295.3 21.5
333(9) 0.01012 295.3 22.1
305(9) 0.01082 295.3 22.6
312(10) 0.00999 295.2 23.2
287(9) 0.01031 295.2 23.6
294(9) 0.01040 295.2 23.9
306(9) 0.01101 295.2 24.0
333(10) 0.00990 295.2 23.8
308(9) 0.01040 295.2 23.5
309(10) 0.00976 295.2 22.9
313(10) 0.01003 295.1 22.2
315(9) 0.01067 295.1 21.4
310(9) 0.01059 295.1 20.5
299(9) 0.01046 295.1 19.6
270(9) 0.01177 295.1 18.8
284(9) 0.01134 295.1 17.9
314(9) 0.01067 295.1 17.2
293(9) 0.01092 295.0 16.4
302(9) 0.01035 295.0 15.8
325(10) 0.00977 295.0 15.2
289(9) 0.01145 295.0 14.7
303(9) 0.01103 295.0 14.3
315(9) 0.01011 295.0 13.9
302(9) 0.01039 294.9 13.6
309(9) 0.01033 294.9 13.4
333(10) 0.00971 294.9 13.2
296(9) 0.01124 294.9 13.1
312(9) 0.01011 294.9 13.0
319(10) 0.00942 294.9 12.9
292(9) 0.01069 294.9 12.9
311(9) 0.01085 294.8 12.9
328(9) 0.01025 294.8 12.9
330(10) 0.00959 294.8 13.0
308(10) 0.00976 294.8 13.1
306(9) 0.01042 294.8 13.2
300(9) 0.01115 294.8 13.4
327(9) 0.01049 294.8 13.6
323(9) 0.01013 294.7 13.8
306(10) 0.00984 294.7 14.1
314(9) 0.01028 294.7 14.4
321(9) 0.01038 294.7 14.8
313(9) 0.01074 294.7 15.2
320(10) 0.00951 294.7 15.6
298(10) 0.01002 294.6 16.1
319(10) 0.00985 294.6 16.6
302(9) 0.01099 294.6 17.1
283(9) 0.01171 294.6 17.7
325(10) 0.00970 294.6 18.3
297(9) 0.01064 294.6 19.0
336(10) 0.00933 294.6 19.6
310(9) 0.01086 294.5 20.3
292(9) 0.01127 294.5 21.0
327(10) 0.00949 294.5 21.7
318(10) 0.00978 294.5 22.3
323(10) 0.00954 294.5 22.9
309(9) 0.01090 294.5 23.5
301(9) 0.01084 294.5 24.0
292(9) 0.01088 294.4 24.5
299(9) 0.01025 294.4 24.9
318(10) 0.00986 294.4 25.2
318(9) 0.01065 294.4 25.6
313(9) 0.01038 294.4 25.9
311(9) 0.01008 294.4 26.1
325(10) 0.00906 294.4 26.4
331(10) 0.00967 294.3 26.7
341(10) 0.00988 294.3 26.9
336(10) 0.00952 294.3 27.2
297(9) 0.01090 294.3 27.5
312(9) 0.01034 294.3 27.8
337(10) 0.00956 294.3 28.0
339(10) 0.00998 294.2 28.2
313(9) 0.01035 294.2 28.3
327(10) 0.00911 294.2 28.3
320(10) 0.00953 294.2 28.2
303(9) 0.01065 294.2 28.0
300(9) 0.01110 294.2 27.7
297(9) 0.01054 294.2 27.4
318(10) 0.00944 294.1 27.0
349(10) 0.00902 294.1 26.6
339(10) 0.00977 294.1 26.1
320(9) 0.01065 294.1 25.7
309(9) 0.01027 294.1 25.3
316(10) 0.00951 294.1 24.9
315(9) 0.01014 294.1 24.6
309(9) 0.01041 294.0 24.3
310(9) 0.01092 294.0 24.0
325(10) 0.00988 294.0 23.7
320(10) 0.00892 294.0 23.5
322(10) 0.00980 294.0 23.2
311(9) 0.01074 294.0 23.0
303(9) 0.01109 294.0 22.7
316(10) 0.00974 293.9 22.4
316(10) 0.00915 293.9 22.1
314(10) 0.01006 293.9 21.8
339(10) 0.01002 293.9 21.5
307(9) 0.01095 293.9 21.1
342(10) 0.00935 293.9 20.7
322(10) 0.00974 293.8 20.3
332(10) 0.00938 293.8 19.9
313(9) 0.01079 293.8 19.5
294(9) 0.01137 293.8 19.0
324(10) 0.00962 293.8 18.5
319(10) 0.00943 293.8 18.0
305(9) 0.01026 293.8 17.6
290(9) 0.01144 293.7 17.0
319(9) 0.01031 293.7 16.5
300(9) 0.01051 293.7 16.0
301(10) 0.01000 293.7 15.5
322(10) 0.00985 293.7 15.0
297(9) 0.01139 293.7 14.5
297(9) 0.01079 293.7 14.0
283(9) 0.01128 293.6 13.6
304(9) 0.01023 293.6 13.1
296(9) 0.01101 293.6 12.6
306(9) 0.01096 293.6 12.2
274(9) 0.01170 293.6 11.8
304(10) 0.00998 293.6 11.4
310(10) 0.00981 293.6 11.0
293(9) 0.01111 293.5 10.6
310(9) 0.01081 293.5 10.3
317(10) 0.00952 293.5 10.0
289(9) 0.01091 293.5 9.6
310(10) 0.00965 293.5 9.3
302(9) 0.01085 293.5 9.0
300(9) 0.01103 293.4 8.8
306(9) 0.01067 293.4 8.5
340(10) 0.00926 293.4 8.3
305(9) 0.01076 293.4 8.0
292(9) 0.01108 293.4 7.8
299(9) 0.01113 293.4 7.6
305(10) 0.00992 293.4 7.4
282(9) 0.01046 293.3 7.2
271(9) 0.01152 293.3 7.0
287(9) 0.01153 293.3 6.8
300(9) 0.01120 293.3 6.7
292(9) 0.01108 293.3 6.5
304(10) 0.00976 293.3 6.4
322(10) 0.00963 293.3 6.2
325(9) 0.01025 293.2 6.1
290(9) 0.01159 293.2 6.0
290(9) 0.01106 293.2 5.9
293(9) 0.01034 293.2 5.7
324(10) 0.01005 293.2 5.6
298(9) 0.01115 293.2 5.5
314(9) 0.01058 293.1 5.4
306(9) 0.01029 293.1 5.3
282(9) 0.01028 293.1 5.2
277(9) 0.01102 293.1 5.2
288(9) 0.01140 293.1 5.1
303(9) 0.01115 293.1 5.0
303(9) 0.01038 293.1 4.9
256(9) 0.01190 293.0 4.9
270(9) 0.01158 293.0 4.8
279(9) 0.01193 293.0 4.7
287(9) 0.01139 293.0 4.7
272(9) 0.01143 293.0 4.6
285(9) 0.01045 293.0 4.6
267(9) 0.01194 293.0 4.5
304(9) 0.01085 292.9 4.5
287(9) 0.01154 292.9 4.4
295(9) 0.01074 292.9 4.4
304(10) 0.00980 292.9 4.3
266(9) 0.01159 292.9 4.3
296(9) 0.01134 292.9 4.2
301(9) 0.01086 292.9 4.2
283(9) 0.01096 292.8 4.2
300(9) 0.01014 292.8 4.1
300(9) 0.01075 292.8 4.1
289(9) 0.01157 292.8 4.1
300(9) 0.01060 292.8 4.1
294(9) 0.01084 292.8 4.0
300(9) 0.01063 292.7 4.0
292(9) 0.01113 292.7 4.0
305(9) 0.01093 292.7 4.0
284(9) 0.01104 292.7 3.9
291(9) 0.01041 292.7 3.9
293(9) 0.01065 292.7 3.9
301(9) 0.01076 292.7 3.9
319(9) 0.01057 292.6 3.9
287(9) 0.01073 292.6 3.8
298(10) 0.00993 292.6 3.8
279(9) 0.01146 292.6 3.8
298(9) 0.01086 292.6 3.8
278(9) 0.01198 292.6 3.8
272(9) 0.01189 292.6 3.8
315(10) 0.00956 292.5 3.8
308(10) 0.01007 292.5 3.8
308(9) 0.01056 292.5 3.8
282(9) 0.01180 292.5 3.8
287(9) 0.01088 292.5 3.8
273(9) 0.01086 292.5 3.8
275(9) 0.01151 292.5 3.8
290(9) 0.01171 292.4 3.8
308(9) 0.01049 292.4 3.8
305(10) 0.01002 292.4 3.8
297(10) 0.00993 292.4 3.8
310(10) 0.01007 292.4 3.8
301(9) 0.01113 292.4 3.8
293(9) 0.01129 292.4 3.8
278(9) 0.01152 292.4 3.8
287(9) 0.01070 292.4 3.8
308(9) 0.01008 292.4 3.8
316(9) 0.01075 292.4 3.8
307(9) 0.01049 292.4 3.9
299(9) 0.01076 292.4 3.9
287(9) 0.01080 292.4 3.9
268(9) 0.01132 292.4 3.9
294(9) 0.01143 292.4 3.9
278(9) 0.01169 292.4 4.0
289(9) 0.01104 292.4 4.0
306(9) 0.01015 292.4 4.0
303(9) 0.01021 292.4 4.0
289(9) 0.01145 292.4 4.1
315(9) 0.01037 292.4 4.1
302(9) 0.01011 292.4 4.1
280(9) 0.01116 292.4 4.2
304(9) 0.01059 292.4 4.2
309(9) 0.01099 292.4 4.2
302(9) 0.01092 292.4 4.3
331(10) 0.00944 292.4 4.3
296(9) 0.01071 292.4 4.3
288(9) 0.01092 292.4 4.4
297(9) 0.01128 292.4 4.4
320(10) 0.01007 292.4 4.5
301(9) 0.01031 292.4 4.5
292(9) 0.01062 292.4 4.6
318(10) 0.01003 292.4 4.7
297(9) 0.01121 292.4 4.7
305(9) 0.01016 292.4 4.8
268(9) 0.01166 292.4 4.8
312(10) 0.00968 292.4 4.9
286(9) 0.01111 292.4 5.0
316(9) 0.01068 292.4 5.0
294(9) 0.01079 292.4 5.1
297(10) 0.00988 292.4 5.2
279(9) 0.01127 292.4 5.3
308(9) 0.01062 292.4 5.4
307(9) 0.01096 292.4 5.5
302(9) 0.01058 292.4 5.6
303(10) 0.00975 292.4 5.6
286(9) 0.01090 292.4 5.7
303(9) 0.01076 292.4 5.8
284(9) 0.01187 292.4 6.0
295(9) 0.01090 292.4 6.1
305(10) 0.00964 292.4 6.2
288(9) 0.01102 292.4 6.3
291(9) 0.01137 292.4 6.4
305(9) 0.01098 292.4 6.5
291(9) 0.01077 292.4 6.6
301(10) 0.00974 292.4 6.8
284(9) 0.01117 292.4 6.9
290(9) 0.01149 292.4 7.0
311(9) 0.01068 292.4 7.2
312(10) 0.00987 292.4 7.3
280(9) 0.01075 292.4 7.4
295(9) 0.01071 292.4 7.5
281(9) 0.01186 292.4 7.7
288(9) 0.01135 292.4 7.8
292(9) 0.01072 292.4 7.9
293(9) 0.01027 292.4 8.1
307(9) 0.01019 292.4 8.2
313(9) 0.01069 292.4 8.3
290(9) 0.01131 292.4 8.4
299(9) 0.01066 292.4 8.5
302(9) 0.01040 292.4 8.6
320(10) 0.01005 292.4 8.7
310(9) 0.01076 292.4 8.8
315(9) 0.01051 292.4 8.9
303(9) 0.01053 292.4 8.9
284(9) 0.01144 292.4 9.0
306(9) 0.01072 292.4 9.0
318(9) 0.01069 292.4 9.1
288(9) 0.01105 292.4 9.1
297(9) 0.01074 292.4 9.1
316(10) 0.00965 292.4 9.2
272(9) 0.01162 292.4 9.2
278(9) 0.01201 292.4 9.2
298(9) 0.01016 292.4 9.2
297(10) 0.00998 292.4 9.2
274(9) 0.01143 292.4 9.2
305(9) 0.01054 292.4 9.2
310(9) 0.01086 292.4 9.2
304(9) 0.01036 292.4 9.2
301(10) 0.00995 292.4 9.2
304(9) 0.01070 292.4 9.2
316(9) 0.01069 292.4 9.2
294(9) 0.01125 292.4 9.2
297(9) 0.01083 292.4 9.3
286(9) 0.01075 292.4 9.3
303(9) 0.01010 292.4 9.3
286(9) 0.01157 292.4 9.3
311(9) 0.01064 292.4 9.4
294(9) 0.01082 292.4 9.4
297(10) 0.00979 292.4 9.5
295(9) 0.01050 292.4 9.5
289(9) 0.01166 292.4 9.6
317(9) 0.01027 292.4 9.7
297(9) 0.01025 292.4 9.8
302(10) 0.00932 292.4 9.8
289(9) 0.01076 292.4 10.0
304(9) 0.01103 292.4 10.1
310(9) 0.01041 292.4 10.2
279(9) 0.01121 292.4 10.3
307(10) 0.00972 292.4 10.5
281(9) 0.01141 292.4 10.6
320(9) 0.01044 292.4 10.8
299(9) 0.01089 292.4 11.0
299(9) 0.01062 292.4 11.2
292(9) 0.01032 292.4 11.4
310(10) 0.00983 292.4 11.6
304(9) 0.01097 292.4 11.9
307(9) 0.01057 292.4 12.2
306(9) 0.01014 292.4 12.4
299(9) 0.01041 292.4 12.7
309(10) 0.01006 292.4 13.1
315(9) 0.01064 292.4 13.4
276(9) 0.01170 292.4 13.8
306(10) 0.01006 292.4 14.2
316(10) 0.00965 292.4 14.6
293(9) 0.01108 292.4 15.0
301(9) 0.01106 292.4 15.5
304(9) 0.01084 292.4 16.0
318(9) 0.01008 292.4 16.5
304(9) 0.01038 292.4 17.0
319(10) 0.00992 292.4 17.6
307(9) 0.01086 292.4 18.2
308(10) 0.01004 292.4 18.8
313(10) 0.00975 292.4 19.4
301(9) 0.01065 292.4 20.0
298(9) 0.01098 292.4 20.7
291(9) 0.01151 292.4 21.3
302(9) 0.01015 292.4 22.0
333(10) 0.00893 292.4 22.7
286(9) 0.01075 292.4 23.3
267(9) 0.01184 292.4 24.0
321(9) 0.01060 292.4 24.6
337(10) 0.00936 292.4 25.1
314(10) 0.00977 292.4 25.7
305(9) 0.01050 292.4 26.1
329(9) 0.01012 292.4 26.6
322(9) 0.01041 292.4 26.9
331(10) 0.00945 292.4 27.2
316(10) 0.00940 292.4 27.3
302(9) 0.01065 292.4 27.4
326(9) 0.01047 292.4 27.4
299(9) 0.01078 292.4 27.3
314(9) 0.01016 292.4 27.2
330(10) 0.00931 292.4 26.9
313(9) 0.01042 292.4 26.6
322(9) 0.01037 292.4 26.2
291(9) 0.01154 292.4 25.8
328(10) 0.00939 292.4 25.3
307(10) 0.00976 292.4 24.8
322(10) 0.01001 292.4 24.3
340(10) 0.01000 292.4 23.8
329(9) 0.01009 292.4 23.2
304(9) 0.01045 292.4 22.7
329(10) 0.00902 292.4 22.2
298(9) 0.01072 292.4 21.6
315(9) 0.01063 292.4 21.1
307(9) 0.01067 292.4 20.6
311(9) 0.01012 292.4 20.2
313(10) 0.00971 292.4 19.7
325(10) 0.00981 292.4 19.3
311(9) 0.01076 292.4 18.9
308(9) 0.01058 292.4 18.6
291(9) 0.01100 292.4 18.3
327(10) 0.00922 292.4 18.0
282(9) 0.01154 292.4 17.8
303(9) 0.01107 292.4 17.6
325(10) 0.00966 292.4 17.5
306(9) 0.01016 292.4 17.4
295(9) 0.01041 292.4 17.4
306(9) 0.01018 292.4 17.4
332(9) 0.01030 292.4 17.5
283(9) 0.01129 292.4 17.6
311(10) 0.00997 292.4 17.8
301(9) 0.01053 292.4 18.1
315(9) 0.01033 292.4 18.3
293(9) 0.01131 292.4 18.6
330(10) 0.00949 292.4 19.0
311(10) 0.00957 292.4 19.3
310(9) 0.01021 292.4 19.6
316(9) 0.01030 292.4 19.9
297(9) 0.01124 292.4 20.1
293(9) 0.01055 292.4 20.3
308(10) 0.00964 292.4 20.3
293(9) 0.01085 292.4 20.2
295(9) 0.01109 292.4 19.9
327(9) 0.01032 292.4 19.5
308(9) 0.01048 292.4 19.0
299(9) 0.01012 292.4 18.4
318(10) 0.00982 292.4 17.7
312(9) 0.01075 292.4 17.0
308(9) 0.01071 292.4 16.3
298(9) 0.01069 292.4 15.5
305(10) 0.00951 292.4 14.8
308(9) 0.01019 292.4 14.1
295(9) 0.01125 292.4 13.4
301(9) 0.01118 292.4 12.8
287(9) 0.01097 292.4 12.2
302(10) 0.00951 292.4 11.7
287(9) 0.01085 292.4 11.2
314(9) 0.01048 292.4 10.8
305(9) 0.01095 292.4 10.3
309(9) 0.01016 292.4 10.0
288(9) 0.01029 292.4 9.6
302(9) 0.01026 292.4 9.3
294(9) 0.01142 292.4 9.0
298(9) 0.01064 292.4 8.8
284(9) 0.01122 292.4 8.5
287(9) 0.01114 292.4 8.3
298(9) 0.01052 292.4 8.1
294(9) 0.01140 292.4 7.9
283(9) 0.01122 292.4 7.8
284(9) 0.01067 292.4 7.6
294(9) 0.01065 292.4 7.5
315(9) 0.01020 292.4 7.3
304(9) 0.01104 292.4 7.2
324(10) 0.00976 292.4 7.1
298(9) 0.01076 292.4 7.0
285(9) 0.01116 292.4 6.9
303(9) 0.01059 292.4 6.8
307(9) 0.01095 292.4 6.7
302(9) 0.01051 292.4 6.6
284(9) 0.01074 292.4 6.5
305(9) 0.01027 292.4 6.4
311(9) 0.01043 292.4 6.3
300(9) 0.01106 292.4 6.2
322(10) 0.00959 292.4 6.2
295(9) 0.01041 292.4 6.1
277(9) 0.01140 292.4 6.0
277(9) 0.01174 292.4 6.0
310(9) 0.01063 292.4 5.9
302(9) 0.01030 292.4 5.9
295(9) 0.01015 292.4 5.8
296(9) 0.01052 292.4 5.8
302(9) 0.01100 292.4 5.7
291(9) 0.01166 292.4 5.7
290(9) 0.01081 292.4 5.7
295(9) 0.01037 292.4 5.6
313(10) 0.01004 292.4 5.6
287(9) 0.01154 292.4 5.6
302(9) 0.01109 292.4 5.6
314(10) 0.00986 292.4 5.5
308(10) 0.00960 292.4 5.5
275(9) 0.01190 292.4 5.5
298(9) 0.01105 292.4 5.5
301(9) 0.01069 292.4 5.5
308(10) 0.00989 292.4 5.5
292(10) 0.00996 292.4 5.5
305(9) 0.01028 292.4 5.5
302(9) 0.01100 292.4 5.5
302(9) 0.01065 292.4 5.5
295(9) 0.01065 292.4 5.5
289(9) 0.01016 292.4 5.5
291(9) 0.01059 292.4 5.5
300(9) 0.01109 292.4 5.5
284(9) 0.01153 292.4 5.5
284(9) 0.01120 292.4 5.6
307(10) 0.01006 292.4 5.6
310(9) 0.01015 292.4 5.6
288(9) 0.01147 292.4 5.7
264(9) 0.01193 292.4 5.7
280(9) 0.01085 292.4 5.8
299(9) 0.01019 292.4 5.8
319(10) 0.00992 292.4 5.9
296(9) 0.01128 292.4 6.0
288(9) 0.01106 292.4 6.1
275(9) 0.01141 292.4 6.2
296(9) 0.01027 292.4 6.3
299(9) 0.01058 292.4 6.4
315(9) 0.01060 292.4 6.5
287(9) 0.01123 292.4 6.6
300(9) 0.01025 292.4 6.8
298(9) 0.01028 292.4 7.0
285(9) 0.01127 292.4 7.1
269(9) 0.01221 292.4 7.3
286(9) 0.01074 292.4 7.5
312(10) 0.00945 292.4 7.7
312(10) 0.00993 292.4 8.0
318(9) 0.01021 292.4 8.2
294(9) 0.01131 292.4 8.5
327(10) 0.00935 292.4 8.7
296(9) 0.01033 292.4 9.0
327(10) 0.00990 292.4 9.3
317(9) 0.01035 292.4 9.6
317(9) 0.01065 292.4 9.9
319(10) 0.00951 292.4 10.1
309(10) 0.00968 292.4 10.4
292(9) 0.01045 292.4 10.6
303(9) 0.01097 292.4 10.9
317(9) 0.01059 292.4 11.0
324(10) 0.00980 292.4 11.2
303(10) 0.00947 292.4 11.3
310(9) 0.01033 292.4 11.3
313(9) 0.01070 292.4 11.3
277(9) 0.01199 292.4 11.3
281(9) 0.01116 292.4 11.2
309(10) 0.00953 292.4 11.1
304(9) 0.01065 292.4 11.0
285(9) 0.01161 292.4 10.9
296(9) 0.01136 292.4 10.8
319(10) 0.00993 292.4 10.6
324(10) 0.00962 292.4 10.5
310(9) 0.01052 292.4 10.4
319(9) 0.01052 292.4 10.3
305(9) 0.01067 292.4 10.2
313(10) 0.00980 292.4 10.1
296(9) 0.01053 292.4 10.1
327(10) 0.00994 292.4 10.0
291(9) 0.01134 292.4 10.0
312(9) 0.01081 292.4 10.0
287(9) 0.01142 292.4 10.0
298(9) 0.01074 292.4 10.0
316(9) 0.01029 292.4 10.0
305(9) 0.01091 292.4 10.1
307(9) 0.01032 292.4 10.1
294(9) 0.01100 292.4 10.2
301(9) 0.01014 292.4 10.2
295(9) 0.01096 292.4 10.3
293(9) 0.01133 292.4 10.4
291(9) 0.01109 292.4 10.5
293(9) 0.01051 292.4 10.6
278(9) 0.01099 292.4 10.7
312(9) 0.01044 292.4 10.8
329(9) 0.01008 292.4 10.9
317(10) 0.00995 292.4 11.0
311(9) 0.01021 292.4 11.1
290(9) 0.01112 292.4 11.2
319(9) 0.01026 292.4 11.3
313(9) 0.01071 292.4 11.4
303(9) 0.01039 292.4 11.5
307(10) 0.01000 292.4 11.6
285(9) 0.01130 292.4 11.7
287(9) 0.01139 292.4 11.8
278(9) 0.01205 292.4 11.9
307(9) 0.01029 292.4 12.0
282(9) 0.01126 292.4 12.1
302(9) 0.01077 292.4 12.2
304(9) 0.01085 292.4 12.3
328(9) 0.01021 292.4 12.3
297(9) 0.01053 292.4 12.4
344(10) 0.00853 292.4 12.5
322(10) 0.00994 292.4 12.5
324(9) 0.01028 292.4 12.6
313(9) 0.01066 292.4 12.6
296(9) 0.01064 292.4 12.6
301(10) 0.00963 292.4 12.7
275(9) 0.01093 292.4 12.7
321(9) 0.01021 292.4 12.7
294(9) 0.01117 292.4 12.7
301(9) 0.01052 292.4 12.7
299(10) 0.00977 292.4 12.7
317(10) 0.00971 292.4 12.7
296(9) 0.01139 292.4 12.7
295(9) 0.01118 292.4 12.6
293(9) 0.01039 292.4 12.6
311(10) 0.00919 292.4 12.6
312(10) 0.00999 292.4 12.5
288(9) 0.01147 292.4 12.5
320(9) 0.01043 292.4 12.4
306(9) 0.01028 292.4 12.4
315(10) 0.00991 292.4 12.3
315(9) 0.01012 292.4 12.3
323(9) 0.01034 292.4 12.2
310(9) 0.01061 292.4 12.1
302(9) 0.01055 292.4 12.0
302(9) 0.01015 292.4 12.0
307(9) 0.01019 292.4 11.9
297(9) 0.01135 292.4 11.8
296(9) 0.01089 292.4 11.7
306(9) 0.01024 292.4 11.7
304(9) 0.01044 292.4 11.6
301(9) 0.01066 292.4 11.5
306(9) 0.01088 292.4 11.4
284(9) 0.01078 292.4 11.3
322(10) 0.00941 292.4 11.2
299(9) 0.01044 292.4 11.2
284(9) 0.01137 292.4 11.1
284(9) 0.01173 292.4 11.0
320(10) 0.00964 292.4 10.9
329(10) 0.00905 292.4 10.8
290(9) 0.01094 292.4 10.7
309(9) 0.01069 292.4 10.7
310(9) 0.01078 292.4 10.6
281(9) 0.01133 292.4 10.5
309(10) 0.00984 292.4 10.4
299(9) 0.01076 292.4 10.4
303(9) 0.01092 292.4 10.3
307(9) 0.01092 292.4 10.2
310(10) 0.01005 292.4 10.1
299(10) 0.00990 292.4 10.1
300(9) 0.01057 292.4 10.0
324(10) 0.00999 292.4 9.9
290(9) 0.01143 292.4 9.9
288(9) 0.01102 292.4 9.8
324(10) 0.00904 292.4 9.7
308(9) 0.01014 292.4 9.6
286(9) 0.01164 292.4 9.6
301(9) 0.01115 292.4 9.5
339(10) 0.00927 292.4 9.4
308(10) 0.00990 292.4 9.3
291(9) 0.01077 292.4 9.3
280(9) 0.01188 292.4 9.2
282(9) 0.01190 292.4 9.1
307(10) 0.00969 292.4 9.0
313(10) 0.00962 292.4 8.9
317(9) 0.01025 292.4 8.8
301(9) 0.01107 292.4 8.8
296(9) 0.01108 292.4 8.7
263(9) 0.01208 292.4 8.6
317(10) 0.00932 292.4 8.5
331(10) 0.00940 292.4 8.4
284(9) 0.01175 292.4 8.3
292(9) 0.01064 292.4 8.2
301(9) 0.01009 292.4 8.1
296(10) 0.01001 292.4 8.0
295(9) 0.01081 292.4 7.9
306(9) 0.01111 292.4 7.9
296(9) 0.01082 292.4 7.8
304(9) 0.01021 292.4 7.7
311(10) 0.00993 292.4 7.6
305(9) 0.01079 292.4 7.5
283(9) 0.01176 292.4 7.4
299(9) 0.01030 292.4 7.3
309(10) 0.00967 292.4 7.3
279(9) 0.01128 292.4 7.2
303(9) 0.01066 292.4 7.1
292(9) 0.01142 292.4 7.0
325(10) 0.00952 292.4 6.9
293(9) 0.01046 292.4 6.9
326(10) 0.00927 292.4 6.8
314(9) 0.01036 292.4 6.7
300(9) 0.01109 292.4 6.7
317(10) 0.01004 292.4 6.6
323(10) 0.00931 292.4 6.6
302(9) 0.01012 292.4 6.5
311(9) 0.01082 292.4 6.4
301(9) 0.01110 292.4 6.4
311(10) 0.00992 292.4 6.3
307(10) 0.00969 292.4 6.3
309(9) 0.01016 292.4 6.2
283(9) 0.01172 292.4 6.2
305(9) 0.01094 292.4 6.2
299(10) 0.01007 292.4 6.1
295(10) 0.00982 292.4 6.1
318(10) 0.01005 292.4 6.1
296(9) 0.01142 292.4 6.0
304(9) 0.01091 292.4 6.0
304(9) 0.01044 292.4 6.0
326(10) 0.00942 292.4 6.0
332(10) 0.00970 292.4 5.9
288(9) 0.01158 292.4 5.9
273(9) 0.01226 292.4 5.9
309(10) 0.00980 292.4 5.9
282(9) 0.01057 292.4 5.9
307(10) 0.00977 292.4 5.9
295(9) 0.01140 292.4 5.9
295(9) 0.01085 292.4 5.9
299(9) 0.01042 292.4 5.9
286(9) 0.01027 292.4 5.9
291(9) 0.01041 292.4 5.9
308(9) 0.01086 292.4 5.9
292(9) 0.01086 292.4 5.9
287(9) 0.01071 292.4 5.9
308(10) 0.01006 292.4 5.9
285(9) 0.01132 292.4 5.9
298(9) 0.01119 292.4 5.9
289(9) 0.01108 292.4 5.9
283(9) 0.01089 292.4 5.9
317(10) 0.00952 292.4 6.0
302(9) 0.01082 292.4 6.0
299(9) 0.01115 292.4 6.0
296(9) 0.01105 292.4 6.0
314(10) 0.00999 292.4 6.0
295(9) 0.01102 292.4 6.1
286(9) 0.01110 292.4 6.1
304(9) 0.01104 292.4 6.1
287(9) 0.01110 292.4 6.2
286(9) 0.01061 292.4 6.2
270(9) 0.01162 292.4 6.2
303(9) 0.01073 292.4 6.3
311(9) 0.01073 292.4 6.3
307(9) 0.01031 292.4 6.4
302(10) 0.01002 292.3 6.4
296(9) 0.01047 292.3 6.5
293(9) 0.01119 292.3 6.5
301(9) 0.01121 292.3 6.6
302(9) 0.01020 292.3 6.6
270(9) 0.01100 292.3 6.7
280(9) 0.01113 292.2 6.7
297(9) 0.01117 292.2 6.8
303(9) 0.01105 292.2 6.8
311(9) 0.01022 292.2 6.9
326(10) 0.00913 292.2 7.0
287(9) 0.01127 292.2 7.0
312(9) 0.01081 292.1 7.1
285(9) 0.01145 292.1 7.2
303(9) 0.01028 292.1 7.2
302(10) 0.00985 292.1 7.3
283(9) 0.01095 292.1 7.4
296(9) 0.01136 292.1 7.4
306(9) 0.01065 292.0 7.5
293(9) 0.01048 292.0 7.6
304(10) 0.00996 292.0 7.7
300(9) 0.01059 292.0 7.7
295(9) 0.01139 292.0 7.8
311(9) 0.01046 291.9 7.9
301(9) 0.01045 291.9 8.0
282(9) 0.01097 291.9 8.1
309(9) 0.01030 291.9 8.2
316(9) 0.01060 291.9 8.3
293(9) 0.01090 291.9 8.3
301(9) 0.01025 291.8 8.4
262(9) 0.01167 291.8 8.5
277(9) 0.01126 291.8 8.6
300(9) 0.01118 291.8 8.7
305(9) 0.01064 291.8 8.8
271(9) 0.01181 291.8 8.9
297(9) 0.01032 291.7 9.0
297(9) 0.01078 291.7 9.1
284(9) 0.01174 291.7 9.2
288(9) 0.01125 291.7 9.3
290(9) 0.01083 291.7 9.4
323(10) 0.00988 291.7 9.5
324(9) 0.01023 291.6 9.6
315(9) 0.01064 291.6 9.7
309(9) 0.01037 291.6 9.8
281(9) 0.01050 291.6 9.9
308(9) 0.01030 291.6 10.0
318(9) 0.01030 291.5 10.2
298(9) 0.01118 291.5 10.3
324(10) 0.00960 291.5 10.4
282(9) 0.01077 291.5 10.5
275(9) 0.01106 291.5 10.7
313(9) 0.01041 291.5 10.8
296(9) 0.01125 291.4 10.9
302(9) 0.01017 291.4 11.1
295(9) 0.01038 291.4 11.2
296(9) 0.01043 291.4 11.4
298(9) 0.01096 291.4 11.5
283(9) 0.01167 291.4 11.7
282(9) 0.01115 291.3 11.9
299(10) 0.00967 291.3 12.1
282(9) 0.01119 291.3 12.3
296(9) 0.01122 291.3 12.5
305(9) 0.01105 291.3 12.7
318(10) 0.01004 291.3 12.9
313(10) 0.00953 291.2 13.1
296(9) 0.01087 291.2 13.3
290(9) 0.01158 291.2 13.5
308(9) 0.01094 291.2 13.7
290(9) 0.01065 291.2 13.8
281(9) 0.01065 291.2 14.0
322(10) 0.00981 291.1 14.1
293(9) 0.01144 291.1 14.2
290(9) 0.01139 291.1 14.2
328(10) 0.00929 291.1 14.2
292(9) 0.01021 291.1 14.2
281(9) 0.01105 291.0 14.1
314(9) 0.01073 291.0 14.0
315(9) 0.01055 291.0 13.9
322(10) 0.00998 291.0 13.8
291(9) 0.01071 291.0 13.6
286(9) 0.01095 291.0 13.5
313(9) 0.01073 290.9 13.4
316(10) 0.01004 290.9 13.3
310(10) 0.00998 290.9 13.2
295(9) 0.01047 290.9 13.1
284(9) 0.01131 290.9 13.0
299(9) 0.01127 290.9 12.9
317(10) 0.00968 290.8 12.8
315(10) 0.00982 290.8 12.8
326(10) 0.00954 290.8 12.8
297(9) 0.01074 290.8 12.8
277(9) 0.01197 290.8 12.8
312(9) 0.01008 290.8 12.8
301(9) 0.01050 290.7 12.9
315(10) 0.00987 290.7 12.9
305(9) 0.01068 290.7 13.0
304(9) 0.01094 290.7 13.1
279(9) 0.01115 290.7 13.2
296(9) 0.01026 290.6 13.4
305(9) 0.01027 290.6 13.5
305(9) 0.01066 290.6 13.7
289(9) 0.01147 290.6 13.8
297(9) 0.01030 290.6 14.0
320(10) 0.00947 290.6 14.2
312(10) 0.00995 290.5 14.5
313(9) 0.01033 290.5 14.7
293(9) 0.01129 290.5 14.9
308(9) 0.01019 290.5 15.2
305(10) 0.00991 290.5 15.5
327(10) 0.00950 290.5 15.8
300(9) 0.01117 290.4 16.1
300(9) 0.01106 290.4 16.5
308(9) 0.01014 290.4 16.8
312(10) 0.00915 290.4 17.2
305(9) 0.01011 290.4 17.5
312(9) 0.01076 290.4 17.9
318(9) 0.01056 290.3 18.3
306(9) 0.01013 290.3 18.7
321(10) 0.00877 290.3 19.1
277(9) 0.01138 290.3 19.5
292(9) 0.01131 290.3 19.8
292(9) 0.01158 290.3 20.2
295(9) 0.01063 290.2 20.6
279(9) 0.01090 290.2 20.9
336(10) 0.00950 290.2 21.2
297(9) 0.01122 290.2 21.4
330(10) 0.00987 290.2 21.6
320(10) 0.00994 290.1 21.8
265(9) 0.01184 290.1 21.8
296(9) 0.01055 290.1 21.9
316(9) 0.01060 290.1 21.9
300(9) 0.01094 290.1 21.8
283(9) 0.01068 290.1 21.7
304(9) 0.01028 290.0 21.6
311(10) 0.00981 290.0 21.4
307(9) 0.01082 290.0 21.2
327(10) 0.00972 290.0 21.0
309(10) 0.00985 290.0 20.8
291(9) 0.01107 290.0 20.5
323(9) 0.01011 289.9 20.3
297(9) 0.01129 289.9 20.0
292(9) 0.01078 289.9 19.8
300(9) 0.01051 289.9 19.5
295(9) 0.01074 289.9 19.3
301(9) 0.01088 289.9 19.0
319(9) 0.01051 289.8 18.8
305(9) 0.01040 289.8 18.6
326(10) 0.00913 289.8 18.4
313(10) 0.00988 289.8 18.2
289(9) 0.01121 289.8 18.0
290(9) 0.01146 289.7 17.8
284(9) 0.01109 289.7 17.6
313(10) 0.00935 289.7 17.4
291(9) 0.01091 289.7 17.3
293(9) 0.01113 289.7 17.1
325(9) 0.01029 289.7 16.9
311(9) 0.01061 289.6 16.7
322(10) 0.00948 289.6 16.5
321(10) 0.01004 289.6 16.4
308(9) 0.01087 289.6 16.2
322(9) 0.01028 289.6 16.0
299(9) 0.01092 289.6 15.8
300(10) 0.00987 289.5 15.5
328(10) 0.00979 289.5 15.3
293(9) 0.01142 289.5 15.1
272(9) 0.01194 289.5 14.9
291(9) 0.01082 289.5 14.6
288(9) 0.01028 289.5 14.4
308(9) 0.01020 289.4 14.2
312(9) 0.01076 289.4 14.0
298(9) 0.01130 289.4 13.7
306(9) 0.01027 289.4 13.5
279(9) 0.01065 289.4 13.3
295(9) 0.01027 289.4 13.1
310(9) 0.01077 289.3 12.9
339(10) 0.00957 289.3 12.8
303(9) 0.01054 289.3 12.6
289(9) 0.01039 289.3 12.4
297(10) 0.01005 289.3 12.3
282(9) 0.01177 289.2 12.1
302(9) 0.01070 289.2 11.9
301(9) 0.01046 289.2 11.8
306(9) 0.01034 289.2 11.7
296(9) 0.01081 289.2 11.5
286(9) 0.01146 289.2 11.4
315(9) 0.01026 289.1 11.3
281(9) 0.01131 289.1 11.2
294(9) 0.01029 289.1 11.1
287(9) 0.01128 289.1 11.0
291(9) 0.01151 289.1 10.9
308(9) 0.01011 289.1 10.8
288(9) 0.01057 289.0 10.7
294(9) 0.01071 289.0 10.6
305(9) 0.01051 289.0 10.5
286(9) 0.01176 289.0 10.5
290(9) 0.01041 289.0 10.4
320(10) 0.00960 289.0 10.4
344(10) 0.00917 288.9 10.3
294(9) 0.01092 288.9 10.3
315(9) 0.01063 288.9 10.2
307(10) 0.01000 288.9 10.2
286(9) 0.01032 288.9 10.1
277(9) 0.01097 288.8 10.1
259(8) 0.01268 288.8 10.1
317(9) 0.01060 288.8 10.1
296(9) 0.01046 288.8 10.0
292(9) 0.01027 288.8 10.0
280(9) 0.01127 288.8 10.0
261(8) 0.01248 288.7 10.0
302(9) 0.01117 288.7 10.0
300(9) 0.01078 288.7 10.0
315(10) 0.00931 288.7 10.0
294(9) 0.01065 288.7 10.0
311(9) 0.01058 288.7 10.0
297(9) 0.01127 288.7 10.0
275(9) 0.01180 288.7 10.0
276(9) 0.01081 288.7 10.0
262(9) 0.01179 288.7 9.9
266(8) . . .
297(9) . . .
270(9) . . .
303(10) . . .
289(9) . . .
306(9) . . .
289(9) . . .
288(9) . . .
290(9) . . .
308(9) . . .
315(9) . . .
300(9) . . .
298(9) . . .
283(9) . . .
288(9) . . .
312(9) . . .
307(9) . . .
304(9) . . .
297(9) . . .
283(9) . . .
283(9) . . .
300(9) . . .
284(9) . . .
276(9) . . .
281(9) . . .
278(9) . . .
284(9) . . .
293(10) . . .
277(9) . . .
290(9) . . .
266(8) . . .
295(9) . . .
285(9) . . .
287(9) . . .
284(9) . . .
286(9) . . .
273(9) . . .
315(10) . . .
349(10) . . .
299(9) . . .
296(9) . . .
315(10) . . .
288(9) . . .
298(9) . . .
292(9) . . .
309(9) . . .
304(9) . . .
311(10) . . .
309(9) . . .
293(9) . . .
282(9) . . .
330(10) . . .
304(9) . . .
325(10) . . .
326(9) . . .
310(9) . . .
305(9) . . .
301(10) . . .
291(9) . . .
305(9) . . .
310(9) . . .
291(9) . . .
281(9) . . .
292(9) . . .
287(9) . . .
289(9) . . .
308(9) . . .
306(9) . . .
293(9) . . .
314(9) . . .
283(9) . . .
268(9) . . .
285(9) . . .
312(9) . . .
279(9) . . .
273(9) . . .
286(9) . . .
293(9) . . .
315(9) . . .
293(9) . . .
281(9) . . .
281(9) . . .
299(10) . . .
304(9) . . .
303(9) . . .
279(9) . . .
297(10) . . .
297(9) . . .
279(9) . . .
332(9) . . .
301(9) . . .
298(10) . . .
295(9) . . .
309(9) . . .
315(9) . . .
314(10) . . .
305(10) . . .
283(9) . . .
287(9) . . .
292(9) . . .
284(9) . . .
288(9) . . .
277(9) . . .
291(9) . . .
282(9) . . .
264(9) . . .
277(9) . . .
283(9) . . .
284(9) . . .
288(9) . . .
309(9) . . .
273(9) . . .
279(9) . . .
289(9) . . .
302(9) . . .
309(9) . . .
292(9) . . .
305(9) . . .
268(8) . . .
275(9) . . .
316(10) . . .
304(10) . . .
294(9) . . .
304(9) . . .
265(9) . . .
303(10) . . .
305(10) . . .
261(9) . . .
282(9) . . .
302(9) . . .
296(10) . . .
274(9) . . .
290(9) . . .
289(9) . . .
277(9) . . .
286(9) . . .
283(9) . . .
300(9) . . .
270(8) . . .
276(9) . . .
289(9) . . .
287(9) . . .
285(9) . . .
277(9) . . .
279(9) . . .
277(9) . . .
240(8) . . .
282(9) . . .
273(9) . . .
281(9) . . .
260(9) . . .
279(9) . . .
279(9) . . .
252(8) . . .
277(9) . . .
308(10) . . .
293(9) . . .
290(9) . . .
271(9) . . .
302(10) . . .
267(9) . . .
292(9) . . .
278(9) . . .
273(9) . . .
306(9) . . .
293(9) . . .
296(9) . . .
278(9) . . .
284(9) . . .
267(9) . . .
261(9) . . .
288(9) . . .
289(9) . . .
257(8) . . .
299(10) . . .
286(9) . . .
276(9) . . .
278(9) . . .
282(9) . . .
296(9) . . .
290(9) . . .
265(9) . . .
279(9) . . .
290(9) . . .
284(9) . . .
298(9) . . .
287(9) . . .
263(8) . . .
312(10) . . .
269(9) . . .
293(9) . . .
262(8) . . .
279(9) . . .
305(9) . . .
290(10) . . .
273(9) . . .
290(9) . . .
274(9) . . .
274(9) . . .
287(9) . . .
271(9) . . .
284(9) . . .
264(8) . . .
264(9) . . .
255(9) . . .
269(9) . . .
298(9) . . .
302(9) . . .
281(9) . . .
282(9) . . .
256(8) . . .
289(9) . . .
286(9) . . .
286(9) . . .
269(9) . . .
279(9) . . .
287(9) . . .
254(8) . . .
275(9) . . .
272(9) . . .
271(9) . . .
289(9) . . .
308(9) . . .
290(9) . . .
282(9) . . .
292(9) . . .
283(9) . . .
276(9) . . .
291(9) . . .
261(9) . . .
290(9) . . .
288(9) . . .
271(9) . . .
287(9) . . .
269(9) . . .
274(9) . . .
287(9) . . .
266(9) . . .
260(9) . . .
277(9) . . .
289(9) . . .
270(9) . . .
281(9) . . .
280(9) . . .
278(9) . . .
266(9) . . .
260(8) . . .
279(9) . . .
279(9) . . .
275(9) . . .
275(9) . . .
259(9) . . .
247(8) . . .
308(10) . . .
299(9) . . .
290(9) . . .
284(9) . . .
289(9) . . .
301(9) . . .
277(9) . . .
265(8) . . .
299(9) . . .
271(9) . . .
274(9) . . .
284(9) . . .
295(9) . . .
266(9) . . .
282(9) . . .
276(9) . . .
270(9) . . .
265(9) . . .
266(9) . . .
281(9) . . .
278(9) . . .
275(9) . . .
262(8) . . .
284(9) . . .
261(9) . . .
246(8) . . .
257(8) . . .
294(9) . . .
283(9) . . .
291(9) . . .
269(9) . . .
301(9) . . .
304(9) . . .
300(9) . . .
291(9) . . .
278(9) . . .
262(8) . . .
275(9) . . .
272(9) . . .
271(9) . . .
277(9) . . .
273(9) . . .
296(9) . . .
301(9) . . .
295(10) . . .
279(9) . . .
278(9) . . .
265(8) . . .
282(9) . . .
275(9) . . .
292(9) . . .
289(9) . . .
319(9) . . .
310(9) . . .
322(10) . . .
299(9) . . .
279(9) . . .
303(9) . . .
313(10) . . .
312(10) . . .
294(9) . . .
296(9) . . .
279(9) . . .
292(9) . . .
287(9) . . .
294(9) . . .
267(8) . . .
282(9) . . .
292(9) . . .
302(10) . . .
275(9) . . .
260(8) . . .
278(9) . . .
271(9) . . .
292(9) . . .
286(9) . . .
283(9) . . .
300(9) . . .
291(9) . . .
269(9) . . .
300(9) . . .
262(8) . . .
302(10) . . .
293(9) . . .
300(9) . . .
295(9) . . .
295(9) . . .
274(9) . . .
310(10) . . .
297(9) . . .
266(9) . . .
251(8) . . .
271(9) . . .
277(9) . . .
283(9) . . .
279(9) . . .
268(9) . . .
285(9) . . .
283(9) . . .
311(10) . . .
301(9) . . .
281(9) . . .
278(9) . . .
269(9) . . .
282(9) . . .
265(8) . . .
275(9) . . .
276(9) . . .
293(9) . . .
293(9) . . .
286(9) . . .
277(9) . . .
277(9) . . .
268(9) . . .
286(9) . . .
295(9) . . .
264(9) . . .
282(9) . . .
286(9) . . .
285(9) . . .
298(9) . . .
292(9) . . .
291(9) . . .
298(9) . . .
285(9) . . .
304(9) . . .
299(9) . . .
310(10) . . .
294(9) . . .
299(9) . . .
286(9) . . .
288(9) . . .
281(9) . . .
266(9) . . .
266(8) . . .
300(9) . . .
308(9) . . .
277(9) . . .
286(9) . . .
303(9) . . .
282(9) . . .
276(9) . . .
307(10) . . .
285(9) . . .
307(9) . . .
289(9) . . .
296(9) . . .
295(10) . . .
287(9) . . .
296(9) . . .
272(9) . . .
274(9) . . .
281(9) . . .
287(9) . . .
285(9) . . .
257(8) . . .
295(9) . . .
289(9) . . .
283(9) . . .
300(9) . . .
287(9) . . .
271(9) . . .
302(9) . . .
300(9) . . .
298(9) . . .
292(9) . . .
290(9) . . .
279(9) . . .
278(9) . . .
301(9) . . .
296(9) . . .
285(9) . . .
280(9) . . .
288(9) . . .
302(9) . . .
283(9) . . .
277(9) . . .
298(9) . . .
274(9) . . .
293(9) . . .
272(9) . . .
278(9) . . .
273(9) . . .
262(8) . . .
273(9) . . .
295(9) . . .
282(9) . . .
292(9) . . .
282(9) . . .
273(9) . . .
254(8) . . .
285(9) . . .
298(9) . . .
280(9) . . .
258(8) . . .
274(9) . . .
263(9) . . .
297(9) . . .
270(8) . . .
268(9) . . .
308(9) . . .
273(9) . . .
264(9) . . .
257(8) . . .
269(9) . . .
267(9) . . .
240(8) . . .
272(9) . . .
266(8) . . .
278(9) . . .
293(9) . . .
248(9) . . .
243(8) . . .
298(9) . . .
285(9) . . .
244(9) . . .
267(9) . . .
274(9) . . .
260(8) . . .
266(9) . . .
273(9) . . .
261(9) . . .
250(8) . . .
277(9) . . .
266(9) . . .
262(9) . . .
255(9) . . .
243(8) . . .
274(9) . . .
263(9) . . .
288(9) . . .
271(9) . . .
247(8) . . .
269(9) . . .
286(9) . . .
274(9) . . .
289(9) . . .
252(8) . . .
260(8) . . .
229(8) . . .
263(9) . . .
276(9) . . .
277(9) . . .
258(8) . . .
262(9) . . .
296(10) . . .
287(9) . . .
253(8) . . .
267(9) . . .
276(9) . . .
273(9) . . .
253(8) . . .
264(8) . . .
260(8) . . .
254(8) . . .
272(9) . . .
234(8) . . .
256(8) . . .
262(9) . . .
275(9) . . .
257(9) . . .
279(9) . . .
255(8) . . .
264(9) . . .
292(9) . . .
277(9) . . .
279(9) . . .
262(8) . . .
259(8) . . .
283(9) . . .
268(9) . . .
286(9) . . .
273(9) . . .
243(8) . . .
254(9) . . .
251(8) . . .
274(9) . . .
260(8) . . .
260(9) . . .
251(9) . . .
253(8) . . .
261(9) . . .
261(8) . . .
266(9) . . .
268(9) . . .
259(9) . . .
258(8) . . .
272(9) . . .
283(9) . . .
247(8) . . .
258(8) . . .
275(9) . . .
263(8) . . .
252(9) . . .
266(9) . . .
256(9) . . .
248(8) . . .
275(9) . . .
250(8) . . .
258(9) . . .
265(9) . . .
248(8) . . .
255(8) . . .
292(9) . . .
268(9) . . .
259(9) . . .
274(9) . . .
257(8) . . .
267(9) . . .
259(9) . . .
257(9) . . .
259(8) . . .
261(9) . . .
264(9) . . .
271(9) . . .
260(8) . . .
263(8) . . .
231(8) . . .
282(9) . . .
255(9) . . .
260(9) . . .
247(8) . . .
246(8) . . .
239(8) . . .
238(8) . . .
243(8) . . .
266(9) . . .
250(8) . . .
262(9) . . .
256(8) . . .
287(9) . . .
257(8) . . .
261(9) . . .
249(9) . . .
260(9) . . .
267(8) . . .
237(8) . . .
253(9) . . .
262(9) . . .
258(9) . . .
252(8) . . .
233(8) . . .
238(8) . . .
266(9) . . .
265(9) . . .
276(9) . . .
270(8) . . .
259(9) . . .
238(9) . . .
250(8) . . .
255(8) . . .
249(8) . . .
251(9) . . .
245(9) . . .
265(9) . . .
270(9) . . .
272(9) . . .
250(8) . . .
276(9) . . .
266(9) . . .
257(8) . . .
245(8) . . .
253(9) . . .
267(9) . . .
259(9) . . .
265(8) . . .
231(8) . . .
243(8) . . .
249(8) . . .
274(9) . . .
264(8) . . .
266(9) . . .
256(9) . . .
273(9) . . .
261(8) . . .
256(8) . . .
240(8) . . .
259(9) . . .
274(9) . . .
249(8) . . .
282(9) . . .
248(9) . . .
285(9) . . .
291(9) . . .
262(9) . . .
249(8) . . .
248(8) . . .
289(10) . . .
288(9) . . .
257(8) . . .
233(8) . . .
273(9) . . .
267(9) . . .
273(9) . . .
264(8) . . .
273(9) . . .
261(9) . . .
255(9) . . .
250(8) . . .
240(8) . . .
249(8) . . .
235(8) . . .
239(8) . . .
248(8) . . .
252(8) . . .
271(9) . . .
257(8) . . .
264(9) . . .
264(9) . . .
270(8) . . .
266(8) . . .
258(9) . . .
270(9) . . .
231(8) . . .
252(8) . . .
233(8) . . .
226(8) . . .
265(9) . . .
242(8) . . .
227(8) . . .
236(8) . . .
260(9) . . .
248(9) . . .
243(8) . . .
252(8) . . .
235(8) . . .
253(9) . . .
248(9) . . .
236(8) . . .
242(8) . . .
242(8) . . .
244(9) . . .
245(8) . . .
245(8) . . .
239(8) . . .
243(8) . . .
266(9) . . .
261(9) . . .
257(8) . . .
235(8) . . .
267(9) . . .
278(9) . . .
248(9) . . .
238(8) . . .
247(8) . . .
229(8) . . .
216(8) . . .
232(8) . . .
262(8) . . .
255(8) . . .
265(9) . . .
271(9) . . .
277(9) . . .
264(8) . . .
243(8) . . .
250(9) . . .
249(9) . . .
253(8) . . .
260(8) . . .
254(8) . . .
236(8) . . .
242(9) . . .
248(9) . . .
229(8) . . .
257(8) . . .
254(9) . . .
247(9) . . .
241(8) . . .
237(8) . . .
260(9) . . .
248(9) . . .
243(8) . . .
246(8) . . .
235(8) . . .
243(8) . . .
262(9) . . .
256(9) . . .
256(8) . . .
239(8) . . .
244(8) . . .
245(9) . . .
237(8) . . .
250(8) . . .
271(9) . . .
256(9) . . .
243(9) . . .
253(9) . . .
235(8) . . .
259(8) . . .
254(9) . . .
251(9) . . .
251(9) . . .
247(8) . . .
244(8) . . .
244(9) . . .
262(9) . . .
248(8) . . .
252(8) . . .
236(8) . . .
243(8) . . .
245(9) . . .
240(8) . . .
255(8) . . .
259(8) . . .
245(8) . . .
231(8) . . .
236(8) . . .
241(8) . . .
231(8) . . .
264(9) . . .
262(9) . . .
259(9) . . .
256(8) . . .
242(8) . . .
246(8) . . .
232(8) . . .
263(9) . . .
291(9) . . .
270(9) . . .
241(8) . . .
251(9) . . .
267(9) . . .
253(8) . . .
269(9) . . .
284(9) . . .
270(9) . . .
245(8) . . .
267(8) . . .
263(9) . . .
273(9) . . .
272(9) . . .
258(9) . . .
281(9) . . .
263(9) . . .
253(9) . . .
239(8) . . .
241(8) . . .
274(9) . . .
238(8) . . .
250(9) . . .
225(8) . . .
242(8) . . .
260(8) . . .
253(9) . . .
245(9) . . .
260(9) . . .
253(8) . . .
226(8) . . .
243(8) . . .
256(9) . . .
246(9) . . .
259(8) . . .
247(8) . . .
250(9) . . .
248(9) . . .
241(8) . . .
234(8) . . .
228(8) . . .
252(9) . . .
230(8) . . .
237(8) . . .
265(8) . . .
238(8) . . .
253(9) . . .
223(8) . . .
213(8) . . .
238(8) . . .
221(8) . . .
239(9) . . .
251(9) . . .
248(8) . . .
252(8) . . .
230(8) . . .
237(8) . . .
240(8) . . .
221(8) . . .
222(8) . . .
247(8) . . .
234(8) . . .
229(8) . . .
238(8) . . .
244(8) . . .
205(8) . . .
216(8) . . .
225(8) . . .
217(8) . . .
233(8) . . .
234(8) . . .
235(9) . . .
239(8) . . .
213(8) . . .
245(8) . . .
235(8) . . .
226(8) . . .
210(8) . . .
229(8) . . .
250(8) . . .
237(8) . . .
233(9) . . .
225(8) . . .
236(8) . . .
225(8) . . .
233(8) . . .
225(8) . . .
241(8) . . .
235(8) . . .
238(8) . . .
262(9) . . .
235(8) . . .
237(8) . . .
205(7) . . .
237(8) . . .
204(7) . . .
220(8) . . .
222(8) . . .
226(8) . . .
226(8) . . .
209(8) . . .
256(9) . . .
237(8) . . .
225(8) . . .
232(8) . . .
231(8) . . .
202(8) . . .
217(8) . . .
218(8) . . .
235(8) . . .
219(8) . . .
249(9) . . .
207(8) . . .
231(8) . . .
229(8) . . .
226(8) . . .
216(8) . . .
223(8) . . .
217(8) . . .
224(8) . . .
203(8) . . .
221(8) . . .
241(8) . . .
220(8) . . .
226(8) . . .
234(9) . . .
220(8) . . .
233(8) . . .
208(7) . . .
226(8) . . .
218(8) . . .
213(8) . . .
197(7) . . .
214(8) . . .
220(8) . . .
210(8) . . .
220(8) . . .
210(8) . . .
237(8) . . .
222(8) . . .
221(8) . . .
232(8) . . .
223(8) . . .
221(8) . . .
235(8) . . .
228(8) . . .
238(8) . . .
214(8) . . .
212(8) . . .
214(8) . . .
211(8) . . .
231(8) . . .
214(8) . . .
217(8) . . .
234(8) . . .
203(8) . . .
199(7) . . .
215(8) . . .
214(8) . . .
211(8) . . .
226(8) . . .
222(8) . . .
238(8) . . .
238(8) . . .
241(8) . . .
238(8) . . .
216(8) . . .
212(8) . . .
218(8) . . .
216(8) . . .
224(8) . . .
236(8) . . .
224(8) . . .
208(8) . . .
238(9) . . .
224(8) . . .
213(8) . . .
219(8) . . .
247(8) . . .
208(8) . . .
220(8) . . .
211(8) . . .
222(8) . . .
225(8) . . .
234(9) . . .
239(8) . . .
193(7) . . .
222(8) . . .
226(8) . . .
216(8) . . .
201(8) . . .
231(8) . . .
207(8) . . .
229(8) . . .
244(9) . . .
214(8) . . .
218(8) . . .
246(8) . . .
224(8) . . .
216(8) . . .
234(8) . . .
230(8) . . .
200(8) . . .
194(7) . . .
209(8) . . .
217(8) . . .
204(7) . . .
229(8) . . .
219(8) . . .
232(8) . . .
226(8) . . .
227(8) . . .
211(8) . . .
220(8) . . .
225(8) . . .
222(8) . . .
225(8) . . .
218(8) . . .
203(8) . . .
210(8) . . .
204(7) . . .
239(8) . . .
215(8) . . .
231(8) . . .
218(8) . . .
207(7) . . .
216(8) . . .
226(8) . . .
207(8) . . .
227(8) . . .
214(8) . . .
238(8) . . .
227(8) . . .
221(8) . . .
212(8) . . .
222(8) . . .
213(8) . . .
222(8) . . .
222(8) . . .
199(7) . . .
238(8) . . .
218(8) . . .
215(8) . . .
209(8) . . .
201(8) . . .
237(8) . . .
221(8) . . .
213(8) . . .
213(8) . . .
202(8) . . .
229(8) . . .
241(8) . . .
225(8) . . .
245(9) . . .
212(8) . . .
222(8) . . .
231(8) . . .
228(8) . . .
226(8) . . .
250(8) . . .
218(8) . . .
248(8) . . .
247(9) . . .
215(8) . . .
228(8) . . .
205(7) . . .
217(8) . . .
207(8) . . .
219(8) . . .
243(8) . . .
234(8) . . .
223(8) . . .
224(8) . . .
242(8) . . .
218(8) . . .
234(8) . . .
229(8) . . .
212(8) . . .
255(9) . . .
197(7) . . .
213(8) . . .
215(8) . . .
211(8) . . .
235(8) . . .
222(8) . . .
217(8) . . .
211(8) . . .
205(8) . . .
225(8) . . .
215(8) . . .
230(8) . . .
224(8) . . .
223(8) . . .
240(8) . . .
254(8) . . .
217(8) . . .
215(8) . . .
232(8) . . .
234(8) . . .
221(8) . . .
214(8) . . .
233(8) . . .
235(8) . . .
231(8) . . .
211(8) . . .
218(8) . . .
232(8) . . .
220(8) . . .
230(8) . . .
208(8) . . .
207(8) . . .
206(8) . . .
221(8) . . .
215(8) . . .
226(8) . . .
219(8) . . .
199(8) . . .
227(8) . . .
234(8) . . .
213(8) . . .
214(8) . . .
232(8) . . .
219(8) . . .
226(8) . . .
236(8) . . .
249(8) . . .
221(8) . . .
209(8) . . .
208(8) . . .
251(8) . . .
250(9) . . .
211(8) . . .
207(8) . . .
209(7) . . .
217(8) . . .
209(8) . . .
200(8) . . .
226(8) . . .
213(8) . . .
199(7) . . .
202(8) . . .
222(8) . . .
206(8) . . .
211(8) . . .
216(8) . . .
207(8) . . .
202(8) . . .
203(8) . . .
224(8) . . .
221(8) . . .
214(8) . . .
191(7) . . .
238(8) . . .
190(7) . . .
214(8) . . .
206(8) . . .
198(8) . . .
199(8) . . .
209(7) . . .
215(8) . . .
212(8) . . .
201(8) . . .
208(8) . . .
220(8) . . .
219(8) . . .
221(8) . . .
197(7) . . .
206(7) . . .
225(8) . . .
229(8) . . .
249(9) . . .
219(8) . . .
241(8) . . .
187(7) . . .
220(8) . . .
207(8) . . .
211(8) . . .
216(8) . . .
209(8) . . .
203(8) . . .
210(8) . . .
198(8) . . .
205(7) . . .
208(8) . . .
193(8) . . .
207(8) . . .
208(8) . . .
206(7) . . .
208(8) . . .
212(8) . . .
209(8) . . .
209(8) . . .
204(7) . . .
206(7) . . .
217(8) . . .
194(8) . . .
197(8) . . .
216(8) . . .
217(8) . . .
202(8) . . .
216(8) . . .
216(8) . . .
212(8) . . .
213(8) . . .
214(8) . . .
224(8) . . .
219(8) . . .
229(8) . . .
208(8) . . .
216(8) . . .
206(8) . . .
215(8) . . .
182(7) . . .
194(7) . . .
203(8) . . .
221(8) . . .
211(8) . . .
172(7) . . .
217(8) . . .
198(8) . . .
197(8) . . .
205(8) . . .
193(7) . . .
230(8) . . .
185(7) . . .
204(8) . . .
208(8) . . .
211(8) . . .
213(8) . . .
223(8) . . .
221(8) . . .
204(7) . . .
199(7) . . .
214(8) . . .
217(8) . . .
191(7) . . .
208(7) . . .
213(8) . . .
207(8) . . .
208(8) . . .
202(7) . . .
230(8) . . .
217(8) . . .
208(8) . . .
206(8) . . .
202(8) . . .
223(8) . . .
207(7) . . .
204(8) . . .
213(8) . . .
208(8) . . .
223(8) . . .
216(8) . . .
200(8) . . .
207(8) . . .
208(8) . . .
194(7) . . .
195(7) . . .
205(8) . . .
201(8) . . .
211(8) . . .
198(7) . . .
191(7) . . .
198(8) . . .
204(8) . . .
179(7) . . .
200(7) . . .
190(7) . . .
198(8) . . .
211(8) . . .
199(7) . . .
211(8) . . .
204(8) . . .
190(8) . . .
177(7) . . .
200(7) . . .
210(8) . . .
212(8) . . .
196(8) . . .
215(8) . . .
199(7) . . .
210(7) . . .
202(8) . . .
200(8) . . .
179(7) . . .
197(7) . . .
201(7) . . .
195(7) . . .
196(8) . . .
204(8) . . .
199(7) . . .
199(7) . . .
206(8) . . .
202(8) . . .
215(8) . . .
202(7) . . .
216(8) . . .
202(8) . . .
204(8) . . .
211(8) . . .
215(8) . . .
195(7) . . .
184(7) . . .
185(7) . . .
196(8) . . .
202(7) . . .
195(8) . . .
201(8) . . .
206(8) . . .
210(8) . . .
207(8) . . .
199(8) . . .
201(8) . . .
191(7) . . .
191(7) . . .
190(7) . . .
211(8) . . .
203(8) . . .
215(8) . . .
216(8) . . .
200(7) . . .
212(8) . . .
199(8) . . .
187(7) . . .
215(8) . . .
210(7) . . .
208(8) . . .
213(8) . . .
199(8) . . .
209(8) . . .
203(7) . . .
225(8) . . .
215(8) . . .
209(8) . . .
206(7) . . .
212(8) . . .
187(7) . . .
214(8) . . .
207(8) . . .
208(7) . . .
193(7) . . .
195(8) . . .
211(8) . . .
198(7) . . .
219(8) . . .
212(8) . . .
211(8) . . .
192(7) . . .
217(8) . . .
207(7) . . .
202(8) . . .
195(7) . . .
208(8) . . .
207(8) . . .
195(7) . . .
193(7) . . .
215(8) . . .
215(8) . . .
198(7) . . .
196(7) . . .
218(8) . . .
198(8) . . .
201(7) . . .
209(8) . . .
205(7) . . .
196(7) . . .
211(8) . . .
201(8) . . .
208(7) . . .
201(7) . . .
206(8) . . .
208(8) . . .
196(7) . . .
194(7) . . .
214(8) . . .
209(8) . . .
204(8) . . .
225(8) . . .
214(8) . . .
224(8) . . .
208(8) . . .
203(8) . . .
219(8) . . .
200(7) . . .
181(7) . . .
205(8) . . .
201(8) . . .
202(7) . . .
203(7) . . .
204(7) . . .
201(8) . . .
196(8) . . .
210(8) . . .
205(7) . . .
205(8) . . .
201(8) . . .
189(8) . . .
202(8) . . .
185(7) . . .
193(7) . . .
212(8) . . .
212(8) . . .
198(8) . . .
209(7) . . .
195(7) . . .
211(8) . . .
203(8) . . .
189(7) . . .
212(8) . . .
196(7) . . .
188(8) . . .
175(7) . . .
203(8) . . .
173(7) . . .
191(7) . . .
197(8) . . .
176(7) . . .
187(7) . . .
189(7) . . .
198(8) . . .
183(8) . . .
192(7) . . .
199(8) . . .
174(7) . . .
190(7) . . .
196(8) . . .
202(8) . . .
190(7) . . .
190(7) . . .
183(7) . . .
207(8) . . .
207(8) . . .
208(8) . . .
210(7) . . .
182(7) . . .
203(8) . . .
210(8) . . .
185(7) . . .
181(7) . . .
190(7) . . .
181(8) . . .
203(8) . . .
205(7) . . .
171(7) . . .
217(8) . . .
214(8) . . .
209(8) . . .
184(7) . . .
196(7) . . .
216(8) . . .
218(8) . . .
217(8) . . .
192(7) . . .
210(8) . . .
193(7) . . .
193(7) . . .
195(8) . . .
225(8) . . .
206(8) . . .
212(8) . . .
196(8) . . .
196(8) . . .
211(8) . . .
224(8) . . .
205(8) . . .
200(8) . . .
230(8) . . .
236(8) . . .
216(8) . . .
211(8) . . .
223(8) . . .
209(8) . . .
212(8) . . .
204(8) . . .
189(8) . . .
213(8) . . .
181(7) . . .
196(7) . . .
194(7) . . .
188(7) . . .
203(8) . . .
199(7) . . .
189(7) . . .
181(7) . . .
201(8) . . .
189(7) . . .
199(7) . . .
202(7) . . .
190(7) . . .
197(8) . . .
195(7) . . .
187(7) . . .
194(7) . . .
189(7) . . .
207(8) . . .
195(7) . . .
198(7) . . .
197(7) . . .
170(7) . . .
189(8) . . .
193(7) . . .
187(7) . . .
183(7) . . .
177(7) . . .
171(7) . . .
185(8) . . .
197(7) . . .
226(8) . . .
218(8) . . .
180(7) . . .
170(7) . . .
182(7) . . .
205(8) . . .
193(8) . . .
181(7) . . .
181(7) . . .
188(7) . . .
199(8) . . .
169(7) . . .
173(7) . . .
193(7) . . .
178(7) . . .
189(7) . . .
186(7) . . .
182(7) . . .
197(8) . . .
186(7) . . .
188(7) . . .
202(8) . . .
190(7) . . .
198(7) . . .
185(7) . . .
186(7) . . .
183(7) . . .
178(7) . . .
215(8) . . .
190(7) . . .
204(8) . . .
196(8) . . .
198(7) . . .
207(8) . . .
172(7) . . .
183(7) . . .
199(8) . . .
200(8) . . .
180(7) . . .
173(7) . . .
195(8) . . .
197(8) . . .
188(7) . . .
195(7) . . .
184(7) . . .
190(8) . . .
195(8) . . .
196(7) . . .
201(7) . . .
194(7) . . .
196(7) . . .
191(8) . . .
186(7) . . .
210(8) . . .
200(8) . . .
195(8) . . .
199(8) . . .
191(7) . . .
183(7) . . .
197(8) . . .
201(8) . . .
199(8) . . .
210(8) . . .
212(8) . . .
180(7) . . .
196(8) . . .
180(7) . . .
177(7) . . .
184(7) . . .
182(7) . . .
186(7) . . .
183(7) . . .
187(7) . . .
197(7) . . .
168(7) . . .
190(8) . . .
185(7) . . .
184(7) . . .
175(7) . . .
173(7) . . .
177(7) . . .
188(8) . . .
172(7) . . .
193(7) . . .
187(7) . . .
176(7) . . .
174(7) . . .
198(7) . . .
189(7) . . .
197(8) . . .
186(7) . . .
192(7) . . .
186(7) . . .
183(7) . . .
186(7) . . .
181(7) . . .
188(7) . . .
188(7) . . .
181(7) . . .
178(7) . . .
170(7) . . .
191(8) . . .
185(7) . . .
200(7) . . .
195(7) . . .
192(7) . . .
187(7) . . .
179(7) . . .
193(7) . . .
178(7) . . .
180(7) . . .
211(8) . . .
161(7) . . .
182(7) . . .
171(7) . . .
175(7) . . .
214(8) . . .
207(7) . . .
215(8) . . .
192(8) . . .
202(8) . . .
202(7) . . .
193(7) . . .
192(7) . . .
180(8) . . .
182(7) . . .
195(7) . . .
188(7) . . .
184(7) . . .
190(8) . . .
198(8) . . .
187(7) . . .
182(7) . . .
194(8) . . .
188(8) . . .
187(7) . . .
193(7) . . .
179(7) . . .
174(7) . . .
167(7) . . .
192(8) . . .
201(7) . . .
194(7) . . .
192(7) . . .
184(8) . . .
193(8) . . .
191(7) . . .
180(7) . . .
158(7) . . .
186(7) . . .
178(7) . . .
183(7) . . .
171(7) . . .
183(7) . . .
224(8) . . .
199(7) . . .
171(7) . . .
184(7) . . .
178(7) . . .
200(8) . . .
211(8) . . .
192(7) . . .
189(7) . . .
207(8) . . .
210(8) . . .
208(8) . . .
180(7) . . .
202(8) . . .
208(8) . . .
199(7) . . .
182(7) . . .
212(8) . . .
208(8) . . .
195(8) . . .
193(7) . . .
188(7) . . .
213(8) . . .
221(8) . . .
202(8) . . .
184(7) . . .
188(7) . . .
188(7) . . .
192(7) . . .
201(8) . . .
186(7) . . .
192(7) . . .
176(7) . . .
201(8) . . .
199(8) . . .
210(8) . . .
191(7) . . .
179(7) . . .
182(7) . . .
210(8) . . .
194(8) . . .
188(7) . . .
181(7) . . .
193(7) . . .
196(8) . . .
200(8) . . .
199(7) . . .
196(7) . . .
205(8) . . .
190(7) . . .
200(8) . . .
195(7) . . .
207(8) . . .
195(8) . . .
193(8) . . .
197(8) . . .
184(7) . . .
177(7) . . .
190(7) . . .
201(8) . . .
186(7) . . .
196(7) . . .
184(7) . . .
173(7) . . .
183(7) . . .
200(7) . . .
200(7) . . .
179(7) . . .
180(7) . . .
184(7) . . .
190(7) . . .
200(7) . . .
177(7) . . .
190(8) . . .
194(8) . . .
198(7) . . .
189(7) . . .
171(7) . . .
176(8) . . .
184(7) . . .
181(7) . . .
177(7) . . .
195(7) . . .
180(7) . . .
185(7) . . .
188(7) . . .
173(7) . . .
198(7) . . .
189(8) . . .
167(7) . . .
187(7) . . .
179(7) . . .
192(8) . . .
169(7) . . .
178(7) . . .
186(7) . . .
202(8) . . .
194(8) . . .
196(8) . . .
206(8) . . .
182(7) . . .
191(7) . . .
188(8) . . .
179(7) . . .
194(7) . . .
167(7) . . .
177(7) . . .
166(7) . . .
193(8) . . .
179(7) . . .
180(7) . . .
183(7) . . .
157(7) . . .
189(8) . . .
184(7) . . .
192(7) . . .
182(7) . . .
184(7) . . .
173(7) . . .
176(7) . . .
178(7) . . .
170(7) . . .
180(7) . . .
190(8) . . .
175(7) . . .
167(7) . . .
180(7) . . .
191(8) . . .
180(7) . . .
186(7) . . .
170(7) . . .
175(7) . . .
186(8) . . .
183(7) . . .
169(7) . . .
179(7) . . .
164(7) . . .
169(7) . . .
165(7) . . .
190(7) . . .
173(7) . . .
175(7) . . .
187(7) . . .
204(8) . . .
176(7) . . .
194(7) . . .
211(8) . . .
188(7) . . .
181(7) . . .
169(7) . . .
190(7) . . .
197(8) . . .
186(7) . . .
174(7) . . .
183(7) . . .
177(7) . . .
184(7) . . .
188(7) . . .
203(7) . . .
211(8) . . .
158(7) . . .
180(7) . . .
173(7) . . .
166(7) . . .
192(7) . . .
177(7) . . .
184(7) . . .
203(8) . . .
188(7) . . .
183(7) . . .
191(8) . . .
173(7) . . .
173(7) . . .
186(7) . . .
175(7) . . .
192(8) . . .
190(8) . . .
181(7) . . .
193(7) . . .
187(7) . . .
179(7) . . .
173(7) . . .
186(7) . . .
181(7) . . .
166(7) . . .
185(7) . . .
187(7) . . .
188(8) . . .
165(7) . . .
166(7) . . .
170(7) . . .
176(7) . . .
180(7) . . .
157(7) . . .
162(7) . . .
190(8) . . .
188(7) . . .
176(7) . . .
202(7) . . .
184(7) . . .
173(7) . . .
176(7) . . .
189(7) . . .
174(7) . . .
179(7) . . .
190(8) . . .
180(7) . . .
167(7) . . .
181(7) . . .
177(7) . . .
170(7) . . .
167(7) . . .
187(7) . . .
175(7) . . .
178(7) . . .
182(7) . . .
191(7) . . .
168(7) . . .
168(7) . . .
170(7) . . .
194(8) . . .
189(7) . . .
186(7) . . .
161(7) . . .
201(8) . . .
181(8) . . .
185(7) . . .
192(7) . . .
174(7) . . .
200(8) . . .
190(8) . . .
184(7) . . .
182(7) . . .
171(7) . . .
199(8) . . .
161(7) . . .
174(7) . . .
175(7) . . .
164(7) . . .
179(7) . . .
212(8) . . .
180(7) . . .
175(7) . . .
188(7) . . .
187(7) . . .
178(7) . . .
168(7) . . .
175(7) . . .
172(7) . . .
182(7) . . .
165(7) . . .
180(7) . . .
168(7) . . .
177(7) . . .
172(7) . . .
188(7) . . .
185(7) . . .
183(7) . . .
186(7) . . .
183(7) . . .
184(7) . . .
179(7) . . .
185(7) . . .
171(7) . . .
185(8) . . .
198(8) . . .
168(7) . . .
181(7) . . .
195(8) . . .
185(8) . . .
187(7) . . .
187(7) . . .
180(7) . . .
174(7) . . .
190(8) . . .
168(7) . . .
195(7) . . .
181(7) . . .
198(8) . . .
171(7) . . .
163(7) . . .
166(7) . . .
188(7) . . .
181(7) . . .
169(7) . . .
174(7) . . .
198(7) . . .
173(7) . . .
182(7) . . .
179(7) . . .
161(7) . . .
167(7) . . .
161(7) . . .
157(7) . . .
189(8) . . .
185(7) . . .
208(7) . . .
175(7) . . .
192(8) . . .
183(7) . . .
185(7) . . .
182(7) . . .
202(8) . . .
175(7) . . .
172(7) . . .
195(7) . . .
201(7) . . .
175(7) . . .
163(7) . . .
174(7) . . .
159(7) . . .
200(7) . . .
170(7) . . .
170(7) . . .
185(7) . . .
180(7) . . .
193(7) . . .
183(7) . . .
176(7) . . .
195(7) . . .
187(7) . . .
186(7) . . .
171(7) . . .
188(8) . . .
183(7) . . .
182(7) . . .
190(7) . . .
191(7) . . .
193(8) . . .
180(7) . . .
171(7) . . .
182(7) . . .
180(7) . . .
180(7) . . .
157(7) . . .
178(7) . . .
198(7) . . .
186(7) . . .
205(8) . . .
156(7) . . .
171(7) . . .
170(7) . . .
185(8) . . .
179(7) . . .
162(7) . . .
172(7) . . .
178(7) . . .
185(8) . . .
179(7) . . .
174(7) . . .
177(7) . . .
168(7) . . .
190(8) . . .
172(7) . . .
186(7) . . .
182(7) . . .
183(7) . . .
165(7) . . .
179(7) . . .
184(7) . . .
163(7) . . .
197(8) . . .
199(8) . . .
189(7) . . .
180(7) . . .
180(7) . . .
178(7) . . .
178(7) . . .
189(7) . . .
179(7) . . .
167(7) . . .
192(8) . . .
198(8) . . .
162(7) . . .
180(7) . . .
170(7) . . .
180(7) . . .
194(8) . . .
180(7) . . .
165(7) . . .
167(7) . . .
183(7) . . .
163(7) . . .
171(7) . . .
165(7) . . .
176(7) . . .
166(7) . . .
180(7) . . .
178(7) . . .
196(7) . . .
168(7) . . .
164(7) . . .
167(7) . . .
169(7) . . .
180(7) . . .
181(7) . . .
172(7) . . .
174(7) . . .
179(7) . . .
152(6) . . .
196(7) . . .
169(7) . . .
170(7) . . .
174(7) . . .
178(7) . . .
184(7) . . .
181(7) . . .
179(7) . . .
175(7) . . .
186(7) . . .
168(7) . . .
164(7) . . .
180(7) . . .
165(7) . . .
172(7) . . .
154(7) . . .
182(7) . . .
169(7) . . .
162(7) . . .
165(7) . . .
192(7) . . .
171(7) . . .
185(7) . . .
175(7) . . .
171(7) . . .
163(7) . . .
176(7) . . .
188(7) . . .
160(7) . . .
152(6) . . .
163(7) . . .
150(7) . . .
169(7) . . .
172(7) . . .
173(7) . . .
172(7) . . .
182(8) . . .
191(8) . . .
167(7) . . .
186(7) . . .
172(7) . . .
179(7) . . .
177(7) . . .
184(7) . . .
182(7) . . .
186(7) . . .
176(7) . . .
176(7) . . .
165(7) . . .
167(7) . . .
185(7) . . .
182(7) . . .
182(7) . . .
184(7) . . .
173(7) . . .
191(7) . . .
172(7) . . .
178(7) . . .
168(7) . . .
168(7) . . .
174(7) . . .
173(7) . . .
168(7) . . .
179(7) . . .
170(7) . . .
173(7) . . .
183(7) . . .
167(7) . . .
180(7) . . .
170(7) . . .
194(8) . . .
186(7) . . .
160(7) . . .
167(7) . . .
181(7) . . .
185(8) . . .
178(7) . . .
169(7) . . .
177(7) . . .
160(7) . . .
168(7) . . .
168(7) . . .
169(7) . . .
185(7) . . .
177(7) . . .
193(8) . . .
189(7) . . .
167(7) . . .
180(7) . . .
185(7) . . .
196(8) . . .
179(7) . . .
159(7) . . .
165(7) . . .
183(7) . . .
181(7) . . .
170(7) . . .
170(7) . . .
171(7) . . .
175(7) . . .
157(7) . . .
173(7) . . .
185(7) . . .
187(7) . . .
185(7) . . .
183(7) . . .
163(7) . . .
174(7) . . .
177(7) . . .
186(7) . . .
178(7) . . .
161(7) . . .
171(7) . . .
163(7) . . .
177(7) . . .
170(7) . . .
168(7) . . .
164(7) . . .
174(7) . . .
170(7) . . .
181(7) . . .
168(7) . . .
170(7) . . .
170(7) . . .
181(7) . . .
187(7) . . .
181(7) . . .
190(7) . . .
172(7) . . .
173(7) . . .
150(7) . . .
169(7) . . .
201(7) . . .
183(7) . . .
191(8) . . .
179(7) . . .
176(7) . . .
190(7) . . .
176(7) . . .
182(8) . . .
163(7) . . .
172(7) . . .
170(7) . . .
162(7) . . .
171(7) . . .
195(8) . . .
173(7) . . .
167(7) . . .
179(7) . . .
197(8) . . .
179(7) . . .
194(7) . . .
174(7) . . .
165(7) . . .
186(8) . . .
167(7) . . .
187(7) . . .
199(8) . . .
187(7) . . .
184(7) . . .
168(7) . . .
182(7) . . .
200(8) . . .
189(7) . . .
177(7) . . .
173(7) . . .
194(7) . . .
189(7) . . .
176(7) . . .
169(7) . . .
159(7) . . .
177(7) . . .
177(7) . . .
170(7) . . .
171(7) . . .
183(7) . . .
177(7) . . .
188(7) . . .
186(8) . . .
167(7) . . .
177(7) . . .
183(7) . . .
158(7) . . .
172(7) . . .
172(7) . . .
173(7) . . .
179(7) . . .
174(7) . . .
175(7) . . .
163(7) . . .
185(7) . . .
173(7) . . .
190(7) . . .
161(7) . . .
164(7) . . .
184(7) . . .
166(7) . . .
185(7) . . .
175(7) . . .
163(7) . . .
181(7) . . .
194(8) . . .
178(7) . . .
182(7) . . .
177(7) . . .
188(7) . . .
176(7) . . .
184(7) . . .
164(7) . . .
160(7) . . .
164(7) . . .
181(7) . . .
192(8) . . .
162(7) . . .
178(7) . . .
169(7) . . .
163(7) . . .
179(7) . . .
167(7) . . .
181(7) . . .
161(7) . . .
163(7) . . .
172(7) . . .
173(7) . . .
145(6) . . .
193(7) . . .
154(7) . . .
163(7) . . .
182(7) . . .
167(7) . . .
172(7) . . .
164(7) . . .
188(8) . . .
166(7) . . .
171(7) . . .
199(7) . . .
188(7) . . .
169(7) . . .
168(7) . . .
187(7) . . .
183(7) . . .
158(6) . . .
187(7) . . .
172(7) . . .
168(7) . . .
177(7) . . .
181(7) . . .
198(8) . . .
188(8) . . .
193(7) . . .
178(7) . . .
168(7) . . .
177(7) . . .
187(7) . . .
186(7) . . .
192(7) . . .
204(8) . . .
198(8) . . .
178(7) . . .
178(7) . . .
157(7) . . .
166(7) . . .
159(7) . . .
188(7) . . .
197(7) . . .
180(7) . . .
196(8) . . .
177(7) . . .
164(7) . . .
175(7) . . .
161(7) . . .
166(7) . . .
159(7) . . .
161(7) . . .
178(7) . . .
172(7) . . .
180(7) . . .
181(7) . . .
174(7) . . .
181(7) . . .
177(7) . . .
178(7) . . .
189(7) . . .
189(7) . . .
180(7) . . .
190(7) . . .
186(7) . . .
183(7) . . .
165(7) . . .
174(7) . . .
196(8) . . .
182(7) . . .
151(7) . . .
161(7) . . .
175(7) . . .
162(7) . . .
174(7) . . .
173(7) . . .
183(7) . . .
188(7) . . .
190(8) . . .
182(7) . . .
187(8) . . .
184(7) . . .
165(7) . . .
180(7) . . .
194(8) . . .
189(7) . . .
173(7) . . .
168(7) . . .
164(7) . . .
195(8) . . .
178(7) . . .
173(7) . . .
185(7) . . .
213(8) . . .
186(7) . . .
163(7) . . .
184(7) . . .
177(7) . . .
148(6) . . .
169(7) . . .
181(7) . . .
170(7) . . .
172(7) . . .
176(7) . . .
173(7) . . .
180(7) . . .
166(7) . . .
179(7) . . .
173(7) . . .
167(7) . . .
168(7) . . .
165(7) . . .
178(7) . . .
182(7) . . .
169(7) . . .
180(7) . . .
189(7) . . .
173(7) . . .
183(7) . . .
185(7) . . .
185(7) . . .
165(7) . . .
181(7) . . .
184(7) . . .
194(7) . . .
175(7) . . .
186(7) . . .
178(7) . . .
169(7) . . .
190(7) . . .
177(7) . . .
169(7) . . .
177(7) . . .
154(7) . . .
184(7) . . .
176(7) . . .
187(7) . . .
170(7) . . .
169(7) . . .
195(8) . . .
204(7) . . .
179(7) . . .
189(8) . . .
195(7) . . .
188(7) . . .
189(7) . . .
194(7) . . .
188(7) . . .
180(7) . . .
174(7) . . .
178(7) . . .
191(7) . . .
180(7) . . .
186(7) . . .
183(7) . . .
199(7) . . .
200(8) . . .
197(8) . . .
176(7) . . .
202(7) . . .
193(7) . . .
179(7) . . .
202(8) . . .
165(7) . . .
200(7) . . .
188(7) . . .
197(8) . . .
190(8) . . .
183(7) . . .
199(7) . . .
191(7) . . .
175(7) . . .
187(7) . . .
176(7) . . .
174(7) . . .
187(7) . . .
189(7) . . .
170(7) . . .
175(7) . . .
185(7) . . .
177(7) . . .
179(7) . . .
170(7) . . .
198(8) . . .
153(6) . . .
167(7) . . .
204(8) . . .
210(8) . . .
196(7) . . .
166(7) . . .
154(7) . . .
180(7) . . .
158(7) . . .
166(7) . . .
173(7) . . .
193(8) . . .
185(7) . . .
180(7) . . .
179(7) . . .
155(6) . . .
168(7) . . .
181(7) . . .
188(7) . . .
180(7) . . .
190(7) . . .
188(7) . . .
182(7) . . .
178(7) . . .
173(7) . . .
159(7) . . .
183(7) . . .
172(7) . . .
171(7) . . .
183(7) . . .
168(7) . . .
160(7) . . .
165(7) . . .
167(7) . . .
194(7) . . .
171(7) . . .
181(7) . . .
175(7) . . .
155(7) . . .
144(6) . . .
155(7) . . .
178(7) . . .
167(7) . . .
166(7) . . .
182(7) . . .
182(7) . . .
175(7) . . .
191(8) . . .
159(7) . . .
197(7) . . .
172(7) . . .
173(7) . . .
162(7) . . .
167(7) . . .
186(7) . . .
192(8) . . .
165(7) . . .
187(7) . . .
170(7) . . .
176(7) . . .
163(7) . . .
191(8) . . .
177(7) . . .
170(7) . . .
180(7) . . .
181(7) . . .
171(7) . . .
182(7) . . .
173(7) . . .
169(7) . . .
165(7) . . .
173(7) . . .
154(7) . . .
173(7) . . .
181(7) . . .
179(7) . . .
183(8) . . .
172(7) . . .
176(7) . . .
175(7) . . .
163(7) . . .
167(7) . . .
178(7) . . .
184(7) . . .
186(7) . . .
171(7) . . .
175(7) . . .
177(7) . . .
180(7) . . .
168(7) . . .
158(7) . . .
174(7) . . .
161(7) . . .
200(7) . . .
183(7) . . .
175(7) . . .
150(7) . . .
162(7) . . .
181(7) . . .
174(7) . . .
180(7) . . .
179(7) . . .
169(7) . . .
179(7) . . .
176(7) . . .
171(7) . . .
182(7) . . .
182(7) . . .
159(7) . . .
178(7) . . .
174(7) . . .
156(7) . . .
174(7) . . .
166(7) . . .
173(7) . . .
181(7) . . .
167(7) . . .
185(7) . . .
186(7) . . .
182(7) . . .
186(8) . . .
176(7) . . .
175(7) . . .
165(7) . . .
183(7) . . .
191(8) . . .
196(8) . . .
157(7) . . .
160(7) . . .
183(7) . . .
164(7) . . .
178(7) . . .
189(7) . . .
183(7) . . .
177(7) . . .
160(7) . . .
158(7) . . .
162(7) . . .
189(7) . . .
194(7) . . .
173(7) . . .
167(7) . . .
174(7) . . .
189(7) . . .
187(8) . . .
189(8) . . .
175(7) . . .
173(7) . . .
186(7) . . .
179(7) . . .
164(7) . . .
186(7) . . .
183(7) . . .
184(7) . . .
179(7) . . .
168(7) . . .
182(7) . . .
167(7) . . .
182(7) . . .
188(7) . . .
191(7) . . .
162(7) . . .
184(7) . . .
189(7) . . .
173(7) . . .
164(7) . . .
158(7) . . .
191(7) . . .
179(7) . . .
163(7) . . .
175(7) . . .
178(7) . . .
178(7) . . .
178(7) . . .
172(7) . . .
184(7) . . .
171(7) . . .
159(7) . . .
170(7) . . .
183(8) . . .
181(7) . . .
191(7) . . .
178(7) . . .
176(7) . . .
167(7) . . .
180(7) . . .
170(7) . . .
169(7) . . .
171(7) . . .
175(7) . . .
161(7) . . .
178(7) . . .
207(8) . . .
189(7) . . .
175(7) . . .
170(7) . . .
175(7) . . .
187(7) . . .
183(7) . . .
177(7) . . .
184(7) . . .
183(7) . . .
204(8) . . .
192(8) . . .
176(7) . . .
177(7) . . .
173(7) . . .
174(7) . . .
170(7) . . .
164(7) . . .
182(7) . . .
178(7) . . .
198(8) . . .
179(7) . . .
194(8) . . .
184(7) . . .
163(7) . . .
183(7) . . .
168(7) . . .
163(7) . . .
163(7) . . .
170(7) . . .
171(7) . . .
156(7) . . .
174(7) . . .
183(7) . . .
185(7) . . .
167(7) . . .
183(8) . . .
166(7) . . .
179(7) . . .
155(7) . . .
179(7) . . .
178(7) . . .
171(7) . . .
165(7) . . .
173(7) . . .
169(7) . . .
171(7) . . .
181(7) . . .
157(7) . . .
167(7) . . .
161(7) . . .
169(7) . . .
158(7) . . .
176(7) . . .
166(7) . . .
183(7) . . .
165(7) . . .
167(7) . . .
166(7) . . .
190(7) . . .
176(7) . . .
170(7) . . .
179(7) . . .
168(7) . . .
184(7) . . .
166(7) . . .
177(7) . . .
178(7) . . .
168(7) . . .
161(7) . . .
174(7) . . .
175(7) . . .
176(7) . . .
175(7) . . .
172(7) . . .
183(8) . . .
150(7) . . .
166(7) . . .
169(7) . . .
157(7) . . .
160(7) . . .
160(7) . . .
176(7) . . .
181(7) . . .
163(7) . . .
168(7) . . .
171(7) . . .
173(7) . . .
194(7) . . .
172(7) . . .
179(8) . . .
167(7) . . .
164(7) . . .
181(7) . . .
192(8) . . .
181(8) . . .
185(8) . . .
163(7) . . .
165(7) . . .
172(7) . . .
173(7) . . .
181(7) . . .
151(6) . . .
174(7) . . .
177(7) . . .
178(7) . . .
170(7) . . .
183(7) . . .
183(7) . . .
196(8) . . .
183(7) . . .
165(7) . . .
183(7) . . .
150(7) . . .
164(7) . . .
170(7) . . .
188(7) . . .
183(7) . . .
164(7) . . .
177(7) . . .
169(7) . . .
176(7) . . .
181(7) . . .
191(7) . . .
180(7) . . .
165(7) . . .
152(7) . . .
194(7) . . .
192(7) . . .
167(7) . . .
161(7) . . .
177(7) . . .
216(8) . . .
176(7) . . .
165(7) . . .
183(7) . . .
171(7) . . .
164(7) . . .
160(7) . . .
172(7) . . .
169(7) . . .
161(7) . . .
168(7) . . .
194(8) . . .
185(8) . . .
187(7) . . .
196(7) . . .
173(7) . . .
183(7) . . .
190(8) . . .
182(7) . . .
212(8) . . .
193(7) . . .
190(8) . . .
173(7) . . .
185(8) . . .
172(7) . . .
159(7) . . .
165(7) . . .
173(7) . . .
173(7) . . .
169(7) . . .
174(7) . . .
178(7) . . .
166(7) . . .
173(7) . . .
184(7) . . .
159(7) . . .
154(7) . . .
168(7) . . .
172(7) . . .
195(7) . . .
171(7) . . .
172(7) . . .
177(7) . . .
186(7) . . .
171(7) . . .
178(7) . . .
179(7) . . .
192(7) . . .
186(7) . . .
172(7) . . .
175(7) . . .
180(8) . . .
167(7) . . .
154(6) . . .
150(6) . . .
173(7) . . .
186(8) . . .
149(6) . . .
170(7) . . .
173(7) . . .
164(7) . . .
176(7) . . .
190(8) . . .
177(7) . . .
172(7) . . .
166(7) . . .
185(7) . . .
160(7) . . .
144(6) . . .
175(7) . . .
180(7) . . .
170(7) . . .
159(7) . . .
153(6) . . .
166(7) . . .
177(7) . . .
176(7) . . .
185(7) . . .
165(7) . . .
168(7) . . .
191(8) . . .
178(7) . . .
175(7) . . .
175(7) . . .
179(7) . . .
178(7) . . .
188(7) . . .
194(7) . . .
162(7) . . .
172(7) . . .
185(8) . . .
180(7) . . .
181(7) . . .
165(7) . . .
173(7) . . .
179(8) . . .
153(6) . . .
177(7) . . .
177(7) . . .
166(7) . . .
175(7) . . .
183(7) . . .
189(7) . . .
171(7) . . .
174(7) . . .
157(7) . . .
147(6) . . .
159(7) . . .
177(7) . . .
180(7) . . .
165(7) . . .
166(7) . . .
178(7) . . .
187(7) . . .
184(7) . . .
169(7) . . .
186(7) . . .
179(7) . . .
181(7) . . .
179(7) . . .
158(7) . . .
157(7) . . .
183(7) . . .
182(7) . . .
184(7) . . .
171(7) . . .
173(7) . . .
163(7) . . .
162(7) . . .
172(7) . . .
182(7) . . .
180(7) . . .
188(7) . . .
200(8) . . .
184(8) . . .
174(7) . . .
174(7) . . .
188(7) . . .
176(7) . . .
182(7) . . .
201(8) . . .
184(7) . . .
169(7) . . .
178(7) . . .
182(8) . . .
184(7) . . .
170(7) . . .
160(7) . . .
183(7) . . .
168(7) . . .
182(7) . . .
160(7) . . .
181(7) . . .
173(7) . . .
189(8) . . .
186(7) . . .
176(7) . . .
179(7) . . .
164(7) . . .
167(7) . . .
178(7) . . .
177(7) . . .
153(7) . . .
162(7) . . .
157(7) . . .
175(7) . . .
171(7) . . .
158(7) . . .
171(7) . . .
174(7) . . .
181(7) . . .
161(7) . . .
171(7) . . .
158(7) . . .
175(7) . . .
194(7) . . .
167(7) . . .
174(7) . . .
167(7) . . .
184(7) . . .
177(7) . . .
176(7) . . .
172(7) . . .
153(7) . . .
172(7) . . .
172(7) . . .
188(7) . . .
180(7) . . .
178(7) . . .
175(7) . . .
159(7) . . .
182(7) . . .
170(7) . . .
158(7) . . .
181(7) . . .
186(7) . . .
188(7) . . .
169(7) . . .
170(7) . . .
172(7) . . .
177(7) . . .
195(7) . . .
165(7) . . .
170(7) . . .
183(7) . . .
171(7) . . .
172(7) . . .
167(7) . . .
164(7) . . .
178(7) . . .
168(7) . . .
180(7) . . .
171(7) . . .
160(7) . . .
155(7) . . .
168(7) . . .
162(7) . . .
177(7) . . .
153(7) . . .
168(7) . . .
185(7) . . .
173(7) . . .
178(7) . . .
166(7) . . .
175(7) . . .
195(7) . . .
176(7) . . .
167(7) . . .
183(8) . . .
164(7) . . .
160(7) . . .
192(7) . . .
174(7) . . .
184(7) . . .
157(7) . . .
164(7) . . .
173(7) . . .
173(7) . . .
187(7) . . .
181(7) . . .
178(7) . . .
170(7) . . .
172(7) . . .
171(7) . . .
171(7) . . .
150(6) . . .
166(7) . . .
175(7) . . .
154(7) . . .
167(7) . . .
188(7) . . .
172(7) . . .
172(7) . . .
185(7) . . .
183(7) . . .
179(7) . . .
166(7) . . .
156(7) . . .
151(7) . . .
190(7) . . .
163(7) . . .
166(7) . . .
185(7) . . .
181(7) . . .
166(7) . . .
195(7) . . .
177(7) . . .
185(7) . . .
197(7) . . .
174(7) . . .
165(7) . . .
186(8) . . .
161(7) . . .
147(7) . . .
180(7) . . .
158(7) . . .
184(7) . . .
186(7) . . .
173(7) . . .
180(7) . . .
160(7) . . .
170(7) . . .
167(7) . . .
190(7) . . .
186(7) . . .
153(7) . . .
164(7) . . .
155(7) . . .
180(7) . . .
175(7) . . .
177(7) . . .
147(6) . . .
170(7) . . .
147(6) . . .
172(7) . . .
185(7) . . .
189(8) . . .
186(7) . . .
175(7) . . .
163(7) . . .
179(7) . . .
180(7) . . .
186(7) . . .
173(7) . . .
166(7) . . .
157(7) . . .
176(7) . . .
180(7) . . .
199(7) . . .
168(7) . . .
176(7) . . .
149(7) . . .
159(7) . . .
182(7) . . .
174(7) . . .
186(7) . . .
171(7) . . .
185(7) . . .
161(7) . . .
161(7) . . .
176(7) . . .
173(7) . . .
167(7) . . .
164(7) . . .
169(7) . . .
169(7) . . .
166(7) . . .
162(7) . . .
163(7) . . .
179(7) . . .
155(7) . . .
171(7) . . .
178(7) . . .
156(6) . . .
157(7) . . .
151(7) . . .
160(7) . . .
167(7) . . .
167(7) . . .
172(7) . . .
173(7) . . .
192(7) . . .
187(7) . . .
165(7) . . .
178(7) . . .
195(8) . . .
176(7) . . .
159(7) . . .
165(7) . . .
169(7) . . .
172(7) . . .
156(7) . . .
177(7) . . .
208(8) . . .
175(7) . . .
197(8) . . .
161(7) . . .
176(7) . . .
189(7) . . .
180(7) . . .
172(7) . . .
183(7) . . .
170(7) . . .
180(7) . . .
183(7) . . .
174(7) . . .
175(7) . . .
174(7) . . .
173(7) . . .
180(7) . . .
179(7) . . .
175(7) . . .
171(7) . . .
205(8) . . .
185(7) . . .
171(7) . . .
180(7) . . .
175(7) . . .
184(7) . . .
171(7) . . .
179(7) . . .
175(7) . . .
164(7) . . .
160(7) . . .
173(7) . . .
161(7) . . .
180(7) . . .
178(7) . . .
158(7) . . .
172(7) . . .
175(7) . . .
176(7) . . .
171(7) . . .
156(7) . . .
158(7) . . .
169(7) . . .
151(6) . . .
174(7) . . .
190(7) . . .
173(7) . . .
157(7) . . .
162(7) . . .
170(7) . . .
181(7) . . .
178(7) . . .
162(7) . . .
157(6) . . .
182(7) . . .
183(7) . . .
182(8) . . .
167(7) . . .
177(7) . . .
165(7) . . .
173(7) . . .
166(7) . . .
164(7) . . .
146(6) . . .
151(6) . . .
169(7) . . .
163(7) . . .
154(7) . . .
151(6) . . .
154(7) . . .
155(7) . . .
160(7) . . .
165(7) . . .
170(7) . . .
155(7) . . .
164(7) . . .
172(7) . . .
188(7) . . .
169(7) . . .
183(7) . . .
161(7) . . .
168(7) . . .
163(7) . . .
178(7) . . .
164(7) . . .
166(7) . . .
174(7) . . .
173(7) . . .
151(6) . . .
153(7) . . .
167(7) . . .
156(7) . . .
165(7) . . .
149(6) . . .
162(7) . . .
167(7) . . .
182(7) . . .
165(7) . . .
167(7) . . .
171(7) . . .
178(8) . . .
162(7) . . .
177(7) . . .
174(7) . . .
159(6) . . .
168(7) . . .
153(7) . . .
137(6) . . .
173(7) . . .
181(7) . . .
182(8) . . .
163(7) . . .
167(7) . . .
157(7) . . .
188(8) . . .
163(7) . . .
154(7) . . .
160(7) . . .
154(7) . . .
151(7) . . .
166(7) . . .
167(7) . . .
175(7) . . .
157(7) . . .
163(7) . . .
164(7) . . .
147(7) . . .
151(6) . . .
168(7) . . .
171(7) . . .
162(7) . . .
165(7) . . .
162(7) . . .
173(7) . . .
189(7) . . .
174(7) . . .
173(7) . . .
169(7) . . .
162(7) . . .
166(7) . . .
176(7) . . .
161(7) . . .
197(7) . . .
167(7) . . .
153(7) . . .
165(7) . . .
175(7) . . .
167(7) . . .
186(8) . . .
171(7) . . .
163(7) . . .
163(7) . . .
153(6) . . .
173(7) . . .
172(7) . . .
177(7) . . .
157(6) . . .
176(7) . . .
172(7) . . .
169(7) . . .
177(7) . . .
172(7) . . .
180(7) . . .
176(7) . . .
161(7) . . .
169(7) . . .
181(7) . . .
178(7) . . .
160(7) . . .
168(7) . . .
176(7) . . .
172(7) . . .
164(7) . . .
163(7) . . .
156(7) . . .
181(7) . . .
181(7) . . .
166(7) . . .
177(7) . . .
182(7) . . .
182(7) . . .
155(7) . . .
179(7) . . .
166(7) . . .
177(7) . . .
174(7) . . .
170(7) . . .
155(7) . . .
169(7) . . .
167(7) . . .
160(7) . . .
156(6) . . .
166(7) . . .
164(7) . . .
182(7) . . .
181(7) . . .
159(7) . . .
158(7) . . .
166(7) . . .
170(7) . . .
173(7) . . .
148(6) . . .
162(7) . . .
179(8) . . .
157(7) . . .
174(7) . . .
168(7) . . .
157(7) . . .
160(7) . . .
163(7) . . .
171(7) . . .
167(7) . . .
162(7) . . .
164(7) . . .
171(7) . . .
182(7) . . .
171(7) . . .
173(7) . . .
178(7) . . .
180(7) . . .
173(7) . . .
189(7) . . .
178(7) . . .
188(7) . . .
170(7) . . .
186(7) . . .
149(7) . . .
166(7) . . .
160(7) . . .
175(7) . . .
187(7) . . .
173(7) . . .
181(7) . . .
177(7) . . .
165(7) . . .
179(7) . . .
187(7) . . .
162(7) . . .
167(7) . . .
167(7) . . .
165(7) . . .
165(7) . . .
168(7) . . .
184(8) . . .
170(7) . . .
167(7) . . .
171(7) . . .
162(7) . . .
179(7) . . .
187(7) . . .
159(7) . . .
179(7) . . .
170(7) . . .
170(7) . . .
167(7) . . .
154(6) . . .
162(7) . . .
161(7) . . .
177(7) . . .
167(7) . . .
163(7) . . .
165(7) . . .
153(7) . . .
169(7) . . .
190(7) . . .
160(7) . . .
161(7) . . .
155(7) . . .
149(7) . . .
158(7) . . .
164(7) . . .
177(7) . . .
183(7) . . .
171(7) . . .
180(7) . . .
172(7) . . .
173(7) . . .
163(7) . . .
184(7) . . .
165(7) . . .
169(7) . . .
160(7) . . .
176(7) . . .
168(7) . . .
160(7) . . .
163(7) . . .
169(7) . . .
178(7) . . .
167(7) . . .
168(7) . . .
185(7) . . .
191(8) . . .
167(7) . . .
155(7) . . .
169(7) . . .
174(7) . . .
184(8) . . .
158(7) . . .
170(7) . . .
172(7) . . .
177(7) . . .
186(8) . . .
170(7) . . .
149(6) . . .
154(6) . . .
167(7) . . .
158(7) . . .
186(7) . . .
169(7) . . .
175(7) . . .
152(7) . . .
161(7) . . .
163(7) . . .
155(7) . . .
166(7) . . .
179(7) . . .
162(7) . . .
159(7) . . .
182(7) . . .
164(7) . . .
165(7) . . .
174(7) . . .
165(7) . . .
164(7) . . .
179(7) . . .
173(7) . . .
162(7) . . .
167(7) . . .
171(7) . . .
179(7) . . .
158(7) . . .
160(7) . . .
188(7) . . .
162(7) . . .
177(7) . . .
161(7) . . .
166(7) . . .
166(7) . . .
153(6) . . .
179(7) . . .
165(7) . . .
165(7) . . .
148(6) . . .
156(7) . . .
155(7) . . .
164(7) . . .
172(7) . . .
185(7) . . .
155(6) . . .
171(7) . . .
150(7) . . .
168(7) . . .
161(7) . . .
159(6) . . .
149(6) . . .
174(7) . . .
174(7) . . .
168(7) . . .
169(7) . . .
167(7) . . .
163(7) . . .
154(7) . . .
183(7) . . .
169(7) . . .
149(7) . . .
152(7) . . .
167(7) . . .
157(7) . . .
165(7) . . .
175(7) . . .
161(7) . . .
161(7) . . .
157(7) . . .
175(7) . . .
152(6) . . .
170(7) . . .
161(7) . . .
175(7) . . .
164(7) . . .
164(7) . . .
165(7) . . .
158(7) . . .
157(7) . . .
164(7) . . .
151(7) . . .
163(7) . . .
165(7) . . .
175(7) . . .
164(7) . . .
164(7) . . .
168(7) . . .
170(7) . . .
163(7) . . .
160(7) . . .
160(7) . . .
159(7) . . .
170(7) . . .
196(7) . . .
156(7) . . .
160(7) . . .
186(8) . . .
166(7) . . .
182(7) . . .
154(7) . . .
158(7) . . .
156(7) . . .
165(7) . . .
165(7) . . .
155(7) . . .
149(7) . . .
162(7) . . .
159(7) . . .
177(7) . . .
167(7) . . .
169(7) . . .
170(7) . . .
174(7) . . .
183(7) . . .
158(7) . . .
167(7) . . .
166(7) . . .
180(7) . . .
153(7) . . .
168(7) . . .
166(7) . . .
168(7) . . .
159(7) . . .
170(7) . . .
177(7) . . .
172(7) . . .
161(7) . . .
158(7) . . .
168(7) . . .
160(7) . . .
184(7) . . .
157(7) . . .
171(7) . . .
180(7) . . .
155(7) . . .
158(7) . . .
158(7) . . .
172(7) . . .
147(6) . . .
162(7) . . .
164(7) . . .
167(7) . . .
160(7) . . .
161(7) . . .
154(7) . . .
153(7) . . .
156(6) . . .
166(7) . . .
192(8) . . .
165(7) . . .
167(7) . . .
161(7) . . .
173(7) . . .
159(7) . . .
157(7) . . .
168(7) . . .
162(7) . . .
154(6) . . .
155(7) . . .
161(7) . . .
153(7) . . .
171(7) . . .
138(6) . . .
178(7) . . .
167(7) . . .
137(6) . . .
164(7) . . .
160(7) . . .
159(7) . . .
177(7) . . .
163(7) . . .
161(7) . . .
162(7) . . .
163(7) . . .
155(7) . . .
150(6) . . .
158(7) . . .
164(7) . . .
177(7) . . .
160(7) . . .
157(7) . . .
153(6) . . .
160(7) . . .
163(7) . . .
155(7) . . .
147(6) . . .
133(6) . . .
152(7) . . .
169(7) . . .
179(7) . . .
144(6) . . .
150(6) . . .
159(7) . . .
171(7) . . .
166(7) . . .
169(7) . . .
172(7) . . .
169(7) . . .
162(7) . . .
150(7) . . .
162(7) . . .
174(7) . . .
178(7) . . .
147(7) . . .
160(7) . . .
142(6) . . .
168(7) . . .
157(7) . . .
167(7) . . .
141(6) . . .
141(6) . . .
156(7) . . .
160(7) . . .
164(7) . . .
170(7) . . .
169(7) . . .
155(7) . . .
175(7) . . .
153(7) . . .
167(7) . . .
149(6) . . .
143(6) . . .
154(7) . . .
144(6) . . .
172(7) . . .
158(6) . . .
132(6) . . .
165(7) . . .
165(7) . . .
171(7) . . .
177(7) . . .
171(7) . . .
165(7) . . .
148(6) . . .
153(7) . . .
152(6) . . .
163(7) . . .
169(7) . . .
154(7) . . .
163(7) . . .
165(7) . . .
154(7) . . .
165(7) . . .
165(7) . . .
173(7) . . .
154(6) . . .
152(7) . . .
148(7) . . .
151(6) . . .
166(7) . . .
167(7) . . .
158(7) . . .
144(7) . . .
157(7) . . .
157(7) . . .
166(7) . . .
163(7) . . .
162(7) . . .
146(6) . . .
165(7) . . .
152(6) . . .
152(7) . . .
169(7) . . .
164(7) . . .
170(7) . . .
166(7) . . .
159(7) . . .
158(7) . . .
154(7) . . .
161(7) . . .
151(6) . . .
164(7) . . .
160(7) . . .
146(7) . . .
153(6) . . .
180(7) . . .
159(7) . . .
166(7) . . .
170(7) . . .
154(6) . . .
165(7) . . .
148(7) . . .
151(6) . . .
155(7) . . .
150(6) . . .
164(7) . . .
156(7) . . .
174(7) . . .
162(7) . . .
156(7) . . .
165(7) . . .
167(7) . . .
154(7) . . .
157(6) . . .
179(7) . . .
170(7) . . .
161(7) . . .
168(7) . . .
163(7) . . .
151(6) . . .
171(7) . . .
160(7) . . .
162(7) . . .
159(7) . . .
169(7) . . .
170(7) . . .
158(7) . . .
163(7) . . .
152(6) . . .
173(7) . . .
174(7) . . .
153(7) . . .
160(7) . . .
172(7) . . .
174(7) . . .
188(7) . . .
168(7) . . .
187(7) . . .
155(6) . . .
153(6) . . .
161(7) . . .
169(7) . . .
152(7) . . .
153(6) . . .
159(7) . . .
174(7) . . .
164(7) . . .
170(7) . . .
147(6) . . .
136(6) . . .
175(7) . . .
162(7) . . .
161(7) . . .
171(7) . . .
154(7) . . .
152(7) . . .
147(6) . . .
150(7) . . .
145(6) . . .
156(7) . . .
152(7) . . .
180(7) . . .
147(6) . . .
162(7) . . .
166(7) . . .
157(7) . . .
153(7) . . .
157(7) . . .
158(6) . . .
166(7) . . .
153(7) . . .
164(7) . . .
161(7) . . .
149(6) . . .
134(6) . . .
157(7) . . .
149(6) . . .
165(7) . . .
171(7) . . .
164(7) . . .
163(7) . . .
168(7) . . .
158(7) . . .
159(7) . . .
159(7) . . .
177(7) . . .
158(7) . . .
183(7) . . .
157(7) . . .
155(7) . . .
144(7) . . .
161(7) . . .
172(7) . . .
174(7) . . .
156(7) . . .
147(7) . . .
148(6) . . .
183(7) . . .
156(7) . . .
154(7) . . .
149(6) . . .
186(7) . . .
176(7) . . .
178(7) . . .
171(7) . . .
176(7) . . .
168(7) . . .
161(7) . . .
154(7) . . .
165(7) . . .
164(7) . . .
163(7) . . .
180(7) . . .
159(7) . . .
165(7) . . .
166(7) . . .
176(7) . . .
174(7) . . .
174(7) . . .
158(7) . . .
139(6) . . .
161(7) . . .
164(7) . . .
168(7) . . .
170(7) . . .
149(6) . . .
162(7) . . .
166(7) . . .
156(7) . . .
158(7) . . .
172(7) . . .
173(7) . . .
166(7) . . .
165(7) . . .
145(7) . . .
152(7) . . .
165(7) . . .
154(6) . . .
157(7) . . .
162(7) . . .
164(7) . . .
159(7) . . .
152(7) . . .
144(6) . . .
160(7) . . .
168(7) . . .
163(7) . . .
151(7) . . .
155(7) . . .
152(7) . . .
149(6) . . .
157(7) . . .
164(7) . . .
165(7) . . .
169(7) . . .
169(7) . . .
164(7) . . .
150(6) . . .
158(7) . . .
167(7) . . .
153(7) . . .
160(7) . . .
167(7) . . .
160(7) . . .
147(6) . . .
161(7) . . .
168(7) . . .
158(7) . . .
175(7) . . .
169(7) . . .
151(6) . . .
173(7) . . .
160(7) . . .
163(7) . . .
145(7) . . .
169(7) . . .
149(6) . . .
158(7) . . .
153(7) . . .
153(7) . . .
160(7) . . .
160(7) . . .
171(7) . . .
145(6) . . .
159(7) . . .
159(7) . . .
176(7) . . .
167(7) . . .
139(6) . . .
166(7) . . .
156(6) . . .
143(6) . . .
156(7) . . .
163(7) . . .
161(7) . . .
162(7) . . .
158(7) . . .
170(7) . . .
169(7) . . .
167(7) . . .
162(7) . . .
170(7) . . .
155(7) . . .
170(7) . . .
175(7) . . .
151(6) . . .
164(7) . . .
158(7) . . .
170(7) . . .
171(7) . . .
150(6) . . .
143(6) . . .
160(7) . . .
180(7) . . .
150(6) . . .
159(7) . . .
164(7) . . .
159(7) . . .
169(7) . . .
155(7) . . .
144(6) . . .
165(7) . . .
182(8) . . .
152(6) . . .
159(7) . . .
170(7) . . .
169(7) . . .
164(7) . . .
143(6) . . .
179(7) . . .
160(7) . . .
168(7) . . .
155(7) . . .
168(7) . . .
156(6) . . .
160(7) . . .
141(6) . . .
128(6) . . .
168(7) . . .
163(7) . . .
151(7) . . .
160(7) . . .
145(6) . . .
154(7) . . .
169(7) . . .
153(7) . . .
153(7) . . .
153(7) . . .
159(7) . . .
173(7) . . .
171(7) . . .
160(7) . . .
161(7) . . .
169(7) . . .
166(7) . . .
173(7) . . .
171(7) . . .
173(7) . . .
183(7) . . .
155(6) . . .
151(7) . . .
150(6) . . .
146(6) . . .
152(6) . . .
172(7) . . .
157(7) . . .
160(7) . . .
183(7) . . .
167(7) . . .
156(6) . . .
152(7) . . .
160(7) . . .
174(7) . . .
164(7) . . .
164(7) . . .
166(7) . . .
166(7) . . .
168(7) . . .
162(7) . . .
155(6) . . .
167(7) . . .
177(7) . . .
171(7) . . .
175(7) . . .
168(7) . . .
172(7) . . .
169(7) . . .
136(6) . . .
159(7) . . .
167(7) . . .
149(6) . . .
159(7) . . .
147(6) . . .
151(6) . . .
158(7) . . .
168(7) . . .
158(7) . . .
168(7) . . .
156(6) . . .
148(6) . . .
177(7) . . .
153(7) . . .
162(7) . . .
149(6) . . .
165(7) . . .
162(7) . . .
153(7) . . .
173(7) . . .
180(7) . . .
161(7) . . .
156(7) . . .
150(7) . . .
154(6) . . .
148(6) . . .
155(7) . . .
163(7) . . .
146(6) . . .
159(7) . . .
168(7) . . .
162(7) . . .
164(7) . . .
166(7) . . .
154(7) . . .
167(7) . . .
158(7) . . .
157(7) . . .
167(7) . . .
152(6) . . .
157(6) . . .
148(6) . . .
163(7) . . .
151(7) . . .
156(6) . . .
160(7) . . .
167(7) . . .
157(7) . . .
165(7) . . .
166(7) . . .
161(7) . . .
159(7) . . .
169(7) . . .
154(7) . . .
154(6) . . .
149(6) . . .
150(7) . . .
154(7) . . .
166(7) . . .
173(7) . . .
149(6) . . .
154(7) . . .
153(7) . . .
154(7) . . .
147(6) . . .
152(7) . . .
161(7) . . .
157(7) . . .
155(6) . . .
147(6) . . .
168(7) . . .
161(7) . . .
157(7) . . .
168(7) . . .
169(7) . . .
161(7) . . .
155(7) . . .
163(7) . . .
152(6) . . .
156(6) . . .
143(6) . . .
163(7) . . .
141(6) . . .
154(6) . . .
150(6) . . .
160(7) . . .
148(7) . . .
152(7) . . .
168(7) . . .
175(7) . . .
173(7) . . .
130(6) . . .
162(7) . . .
147(6) . . .
159(7) . . .
155(7) . . .
155(7) . . .
166(7) . . .
155(6) . . .
154(7) . . .
156(7) . . .
144(6) . . .
163(7) . . .
161(7) . . .
154(7) . . .
136(6) . . .
178(7) . . .
161(7) . . .
154(6) . . .
160(7) . . .
173(7) . . .
170(7) . . .
144(6) . . .
172(7) . . .
164(7) . . .
162(7) . . .
151(7) . . .
153(7) . . .
172(7) . . .
166(7) . . .
128(6) . . .
159(7) . . .
163(7) . . .
168(7) . . .
139(6) . . .
160(7) . . .
150(6) . . .
163(7) . . .
167(7) . . .
168(7) . . .
149(7) . . .
133(6) . . .
143(6) . . .
166(7) . . .
160(7) . . .
183(8) . . .
165(7) . . .
166(7) . . .
165(7) . . .
164(7) . . .
152(7) . . .
161(7) . . .
173(7) . . .
162(7) . . .
169(7) . . .
157(7) . . .
179(7) . . .
144(6) . . .
145(6) . . .
150(6) . . .
151(7) . . .
156(7) . . .
160(7) . . .
150(6) . . .
163(7) . . .
151(7) . . .
133(6) . . .
136(6) . . .
189(7) . . .
158(7) . . .
155(7) . . .
169(7) . . .
161(7) . . .
151(7) . . .
171(7) . . .
140(6) . . .
160(7) . . .
156(7) . . .
174(7) . . .
168(7) . . .
161(7) . . .
160(7) . . .
145(6) . . .
148(6) . . .
152(7) . . .
165(7) . . .
150(6) . . .
142(6) . . .
160(7) . . .
155(7) . . .
183(7) . . .
164(7) . . .
140(6) . . .
150(7) . . .
154(7) . . .
161(7) . . .
172(7) . . .
161(7) . . .
152(7) . . .
155(7) . . .
158(7) . . .
169(7) . . .
172(7) . . .
154(7) . . .
155(7) . . .
161(7) . . .
162(7) . . .
141(6) . . .
147(6) . . .
139(6) . . .
165(7) . . .
142(6) . . .
170(7) . . .
146(6) . . .
156(7) . . .
166(7) . . .
142(6) . . .
162(7) . . .
138(6) . . .
146(7) . . .
166(7) . . .
153(6) . . .
156(7) . . .
157(6) . . .
151(7) . . .
153(7) . . .
160(7) . . .
148(7) . . .
156(7) . . .
153(7) . . .
158(7) . . .
171(7) . . .
164(7) . . .
169(7) . . .
147(6) . . .
155(7) . . .
149(6) . . .
147(6) . . .
155(7) . . .
152(7) . . .
148(6) . . .
149(6) . . .
158(7) . . .
158(7) . . .
169(7) . . .
158(6) . . .
153(6) . . .
149(7) . . .
153(7) . . .
145(6) . . .
148(6) . . .
154(7) . . .
169(7) . . .
156(7) . . .
155(7) . . .
138(6) . . .
166(7) . . .
149(7) . . .
145(7) . . .
139(6) . . .
143(6) . . .
150(6) . . .
165(7) . . .
153(7) . . .
149(7) . . .
151(6) . . .
145(6) . . .
152(7) . . .
157(7) . . .
152(6) . . .
154(6) . . .
155(6) . . .
152(7) . . .
173(7) . . .
163(7) . . .
154(6) . . .
161(7) . . .
156(7) . . .
151(7) . . .
152(7) . . .
150(6) . . .
156(7) . . .
157(7) . . .
166(7) . . .
157(6) . . .
146(6) . . .
144(6) . . .
145(7) . . .
151(7) . . .
162(7) . . .
155(6) . . .
155(7) . . .
140(7) . . .
165(7) . . .
159(7) . . .
152(7) . . .
165(7) . . .
161(7) . . .
162(7) . . .
159(6) . . .
163(7) . . .
147(6) . . .
160(7) . . .
150(6) . . .
148(6) . . .
145(6) . . .
156(7) . . .
162(7) . . .
160(7) . . .
160(7) . . .
150(6) . . .
154(7) . . .
155(7) . . .
167(7) . . .
164(7) . . .
151(6) . . .
144(6) . . .
141(6) . . .
146(6) . . .
147(6) . . .
138(6) . . .
158(7) . . .
147(7) . . .
159(7) . . .
154(6) . . .
149(7) . . .
153(7) . . .
158(7) . . .
143(6) . . .
149(6) . . .
146(7) . . .
160(7) . . .
163(7) . . .
154(6) . . .
153(6) . . .
145(6) . . .
152(7) . . .
146(7) . . .
144(6) . . .
141(6) . . .
154(7) . . .
165(7) . . .
157(7) . . .
146(6) . . .
170(7) . . .
167(7) . . .
141(7) . . .
142(6) . . .
149(6) . . .
141(6) . . .
161(7) . . .
167(7) . . .
145(7) . . .
143(6) . . .
157(6) . . .
159(7) . . .
155(7) . . .
137(6) . . .
164(7) . . .
160(7) . . .
154(7) . . .
158(7) . . .
143(6) . . .
142(6) . . .
139(6) . . .
153(7) . . .
146(7) . . .
160(7) . . .
149(6) . . .
157(7) . . .
148(7) . . .
146(7) . . .
158(7) . . .
145(6) . . .
143(6) . . .
154(7) . . .
157(7) . . .
139(6) . . .
157(7) . . .
145(6) . . .
136(6) . . .
145(6) . . .
153(6) . . .
143(6) . . .
156(7) . . .
141(6) . . .
159(7) . . .
146(6) . . .
162(7) . . .
158(7) . . .
139(6) . . .
156(7) . . .
146(6) . . .
145(6) . . .
145(6) . . .
163(7) . . .
151(7) . . .
158(7) . . .
161(6) . . .
162(7) . . .
139(6) . . .
165(7) . . .
129(6) . . .
172(7) . . .
149(7) . . .
167(7) . . .
178(7) . . .
150(6) . . .
145(6) . . .
155(7) . . .
153(7) . . .
148(7) . . .
150(6) . . .
153(7) . . .
157(7) . . .
155(7) . . .
142(6) . . .
136(6) . . .
153(7) . . .
163(7) . . .
146(7) . . .
148(7) . . .
142(6) . . .
148(6) . . .
132(6) . . .
147(7) . . .
149(6) . . .
152(6) . . .
145(6) . . .
155(7) . . .
143(7) . . .
145(7) . . .
136(6) . . .
147(6) . . .
155(7) . . .
143(6) . . .
136(6) . . .
162(7) . . .
160(7) . . .
139(7) . . .
143(6) . . .
130(6) . . .
139(6) . . .
143(6) . . .
148(7) . . .
138(6) . . .
147(6) . . .
143(6) . . .
162(7) . . .
134(6) . . .
143(7) . . .
130(6) . . .
133(6) . . .
142(7) . . .
132(6) . . .
156(7) . . .
135(6) . . .
145(6) . . .
167(7) . . .
144(6) . . .
141(7) . . .
162(7) . . .
152(6) . . .
160(7) . . .
146(7) . . .
143(6) . . .
170(7) . . .
158(7) . . .
154(7) . . .
130(6) . . .
148(7) . . .
161(7) . . .
149(7) . . .
129(6) . . .
158(7) . . .
158(7) . . .
146(6) . . .
160(7) . . .
147(7) . . .
154(7) . . .
149(6) . . .
137(6) . . .
144(7) . . .
145(7) . . .
153(7) . . .
158(7) . . .
155(7) . . .
165(7) . . .
158(7) . . .
157(7) . . .
138(6) . . .
154(7) . . .
158(7) . . .
145(7) . . .
151(7) . . .
163(7) . . .
149(6) . . .
145(6) . . .
154(7) . . .
142(6) . . .
160(7) . . .
159(7) . . .
158(7) . . .
150(7) . . .
158(7) . . .
152(6) . . .
138(6) . . .
154(7) . . .
157(7) . . .
161(7) . . .
163(7) . . .
155(7) . . .
148(7) . . .
154(7) . . .
159(7) . . .
161(7) . . .
158(7) . . .
168(7) . . .
171(7) . . .
143(6) . . .
174(7) . . .
152(7) . . .
154(7) . . .
153(7) . . .
171(7) . . .
172(7) . . .
167(7) . . .
155(7) . . .
166(7) . . .
150(6) . . .
164(7) . . .
152(7) . . .
177(7) . . .
155(7) . . .
141(6) . . .
171(7) . . .
172(7) . . .
175(8) . . .
144(6) . . .
146(6) . . .
148(6) . . .
159(7) . . .
149(7) . . .
142(6) . . .
128(6) . . .
154(6) . . .
157(7) . . .
153(7) . . .
173(7) . . .
136(6) . . .
140(6) . . .
154(7) . . .
148(7) . . .
157(7) . . .
159(7) . . .
150(6) . . .
148(7) . . .
148(7) . . .
162(7) . . .
135(6) . . .
152(6) . . .
150(7) . . .
146(7) . . .
141(6) . . .
146(6) . . .
163(7) . . .
146(7) . . .
152(7) . . .
149(7) . . .
150(6) . . .
155(7) . . .
148(6) . . .
150(7) . . .
154(7) . . .
143(6) . . .
141(6) . . .
154(7) . . .
142(6) . . .
149(7) . . .
174(7) . . .
142(6) . . .
143(7) . . .
151(6) . . .
154(7) . . .
150(6) . . .
144(6) . . .
148(7) . . .
140(6) . . .
150(6) . . .
155(6) . . .
156(7) . . .
145(7) . . .
159(7) . . .
157(6) . . .
154(6) . . .
154(7) . . .
146(7) . . .
149(7) . . .
135(6) . . .
131(6) . . .
144(6) . . .
143(7) . . .
157(7) . . .
161(7) . . .
137(6) . . .
148(7) . . .
162(7) . . .
154(7) . . .
162(7) . . .
132(6) . . .
144(7) . . .
144(7) . . .
143(7) . . .
172(7) . . .
129(6) . . .
168(7) . . .
170(7) . . .
184(7) . . .
156(7) . . .
155(7) . . .
136(6) . . .
163(7) . . .
135(6) . . .
169(7) . . .
155(7) . . .
164(7) . . .
162(7) . . .
163(7) . . .
143(6) . . .
156(7) . . .
144(7) . . .
145(6) . . .
158(7) . . .
151(6) . . .
153(7) . . .
156(7) . . .
144(7) . . .
148(6) . . .
139(6) . . .
145(6) . . .
140(6) . . .
144(6) . . .
155(6) . . .
158(6) . . .
160(7) . . .
155(7) . . .
153(7) . . .
150(6) . . .
150(6) . . .
146(6) . . .
151(7) . . .
158(7) . . .
158(7) . . .
164(7) . . .
165(7) . . .
145(6) . . .
163(7) . . .
158(7) . . .
136(6) . . .
157(7) . . .
158(7) . . .
156(7) . . .
167(7) . . .
147(6) . . .
147(6) . . .
172(7) . . .
162(7) . . .
127(6) . . .
135(6) . . .
156(7) . . .
157(7) . . .
154(7) . . .
141(6) . . .
127(6) . . .
143(6) . . .
163(7) . . .
148(7) . . .
133(6) . . .
149(6) . . .
146(7) . . .
138(6) . . .
158(7) . . .
142(6) . . .
145(6) . . .
152(7) . . .
145(7) . . .
147(6) . . .
147(6) . . .
153(7) . . .
144(6) . . .
152(7) . . .
150(6) . . .
155(6) . . .
149(7) . . .
149(7) . . .
151(6) . . .
144(6) . . .
153(6) . . .
175(7) . . .
165(7) . . .
135(6) . . .
140(6) . . .
147(6) . . .
146(6) . . .
144(6) . . .
164(7) . . .
156(7) . . .
155(6) . . .
148(7) . . .
145(7) . . .
157(7) . . .
150(6) . . .
151(6) . . .
151(7) . . .
161(7) . . .
160(7) . . .
144(6) . . .
146(6) . . .
147(7) . . .
154(7) . . .
152(7) . . .
156(6) . . .
163(7) . . .
164(7) . . .
160(7) . . .
160(7) . . .
154(6) . . .
163(7) . . .
152(7) . . .
153(7) . . .
147(6) . . .
133(6) . . .
146(6) . . .
145(7) . . .
152(7) . . .
157(7) . . .
136(6) . . .
150(7) . . .
149(7) . . .
165(7) . . .
145(6) . . .
162(7) . . .
144(6) . . .
163(7) . . .
158(7) . . .
148(6) . . .
130(6) . . .
139(6) . . .
136(6) . . .
161(7) . . .
147(6) . . .
146(6) . . .
157(7) . . .
157(7) . . .
130(6) . . .
152(7) . . .
136(6) . . .
141(6) . . .
164(7) . . .
148(7) . . .
148(6) . . .
145(6) . . .
126(6) . . .
147(7) . . .
142(7) . . .
147(6) . . .
146(6) . . .
165(7) . . .
156(7) . . .
132(6) . . .
159(7) . . .
148(7) . . .
131(6) . . .
131(6) . . .
135(6) . . .
140(6) . . .
145(6) . . .
146(7) . . .
140(6) . . .
152(6) . . .
151(6) . . .
150(6) . . .
150(7) . . .
149(6) . . .
148(6) . . .
164(7) . . .
155(7) . . .
142(6) . . .
132(6) . . .
141(6) . . .
134(6) . . .
140(6) . . .
147(7) . . .
147(6) . . .
154(6) . . .
141(6) . . .
144(7) . . .
154(7) . . .
146(6) . . .
141(6) . . .
149(6) . . .
150(7) . . .
147(7) . . .
150(7) . . .
145(6) . . .
134(6) . . .
146(6) . . .
155(7) . . .
157(7) . . .
136(6) . . .
156(7) . . .
148(7) . . .
150(7) . . .
143(6) . . .
143(6) . . .
143(6) . . .
136(6) . . .
127(6) . . .
152(7) . . .
144(6) . . .
161(7) . . .
147(7) . . .
154(7) . . .
149(6) . . .
147(6) . . .
136(6) . . .
143(6) . . .
150(7) . . .
159(7) . . .
167(7) . . .
132(6) . . .
138(7) . . .
134(6) . . .
149(6) . . .
150(6) . . .
135(6) . . .
148(7) . . .
135(6) . . .
143(6) . . .
135(6) . . .
144(6) . . .
161(7) . . .
135(6) . . .
143(6) . . .
149(6) . . .
152(7) . . .
136(6) . . .
159(7) . . .
163(7) . . .
135(6) . . .
159(7) . . .
135(6) . . .
143(6) . . .
146(6) . . .
131(6) . . .
138(6) . . .
148(7) . . .
162(7) . . .
157(7) . . .
146(6) . . .
143(7) . . .
139(7) . . .
128(6) . . .
149(6) . . .
148(6) . . .
124(6) . . .
152(7) . . .
153(7) . . .
132(6) . . .
135(6) . . .
155(7) . . .
138(6) . . .
163(7) . . .
135(6) . . .
147(7) . . .
129(6) . . .
149(7) . . .
144(6) . . .
145(6) . . .
161(7) . . .
135(6) . . .
136(6) . . .
140(6) . . .
136(6) . . .
140(6) . . .
146(7) . . .
135(6) . . .
130(6) . . .
127(6) . . .
155(7) . . .
145(7) . . .
145(7) . . .
166(7) . . .
155(6) . . .
162(7) . . .
151(7) . . .
135(6) . . .
137(6) . . .
162(7) . . .
149(7) . . .
151(7) . . .
152(7) . . .
160(7) . . .
138(6) . . .
144(6) . . .
139(7) . . .
149(7) . . .
152(6) . . .
163(7) . . .
143(6) . . .
142(7) . . .
137(6) . . .
156(6) . . .
152(6) . . .
139(6) . . .
121(6) . . .
130(6) . . .
144(6) . . .
149(6) . . .
150(7) . . .
139(6) . . .
137(6) . . .
154(6) . . .
130(6) . . .
136(6) . . .
135(6) . . .
160(7) . . .
155(7) . . .
131(6) . . .
157(7) . . .
160(7) . . .
148(6) . . .
155(7) . . .
137(6) . . .
148(7) . . .
155(7) . . .
137(6) . . .
150(6) . . .
142(6) . . .
131(6) . . .
154(7) . . .
133(6) . . .
150(6) . . .
159(7) . . .
144(7) . . .
121(6) . . .
132(6) . . .
145(6) . . .
138(6) . . .
142(7) . . .
136(6) . . .
153(6) . . .
135(6) . . .
155(7) . . .
140(6) . . .
139(6) . . .
145(6) . . .
148(6) . . .
150(7) . . .
133(6) . . .
150(7) . . .
138(6) . . .
156(7) . . .
145(7) . . .
139(7) . . .
130(6) . . .
140(6) . . .
154(6) . . .
149(7) . . .
129(6) . . .
157(7) . . .
149(6) . . .
136(6) . . .
138(6) . . .
139(6) . . .
135(6) . . .
123(6) . . .
151(6) . . .
160(7) . . .
143(6) . . .
147(6) . . .
141(6) . . .
136(6) . . .
143(7) . . .
128(6) . . .
121(6) . . .
136(6) . . .
130(6) . . .
122(6) . . .
130(6) . . .
146(6) . . .
126(6) . . .
160(7) . . .
154(7) . . .
138(6) . . .
150(6) . . .
145(6) . . .
134(6) . . .
134(6) . . .
122(6) . . .
142(6) . . .
139(6) . . .
127(6) . . .
144(7) . . .
132(6) . . .
129(6) . . .
136(6) . . .
132(6) . . .
150(7) . . .
127(6) . . .
138(6) . . .
145(6) . . .
148(7) . . .
139(6) . . .
142(6) . . .
158(7) . . .
140(6) . . .
152(7) . . .
169(7) . . .
144(6) . . .
158(7) . . .
136(6) . . .
135(6) . . .
147(7) . . .
132(6) . . .
132(6) . . .
145(6) . . .
149(7) . . .
146(7) . . .
126(6) . . .
160(7) . . .
151(7) . . .
139(7) . . .
124(6) . . .
130(6) . . .
148(6) . . .
154(7) . . .
140(6) . . .
147(7) . . .
148(6) . . .
138(6) . . .
139(6) . . .
138(6) . . .
130(6) . . .
159(7) . . .
138(6) . . .
129(6) . . .
135(6) . . .
143(6) . . .
143(6) . . .
155(6) . . .
139(6) . . .
118(6) . . .
140(6) . . .
144(6) . . .
146(6) . . .
146(7) . . .
133(6) . . .
127(6) . . .
137(6) . . .
151(6) . . .
132(6) . . .
143(7) . . .
129(6) . . .
142(6) . . .
148(6) . . .
135(6) . . .
131(6) . . .
144(7) . . .
133(6) . . .
140(6) . . .
131(6) . . .
119(6) . . .
133(6) . . .
155(7) . . .
164(7) . . .
148(7) . . .
125(6) . . .
133(6) . . .
132(6) . . .
140(6) . . .
128(6) . . .
150(6) . . .
156(7) . . .
145(6) . . .
137(6) . . .
137(6) . . .
130(6) . . .
124(6) . . .
138(6) . . .
133(6) . . .
145(7) . . .
148(7) . . .
142(6) . . .
143(6) . . .
137(6) . . .
141(6) . . .
145(6) . . .
141(6) . . .
137(6) . . .
127(6) . . .
144(7) . . .
150(7) . . .
135(6) . . .
139(6) . . .
125(6) . . .
138(7) . . .
122(6) . . .
144(6) . . .
145(6) . . .
130(6) . . .
148(7) . . .
128(6) . . .
158(7) . . .
157(7) . . .
135(6) . . .
134(6) . . .
141(6) . . .
145(6) . . .
137(6) . . .
147(7) . . .
142(6) . . .
150(7) . . .
136(6) . . .
136(6) . . .
144(6) . . .
142(6) . . .
135(6) . . .
140(6) . . .
142(6) . . .
141(6) . . .
160(7) . . .
136(6) . . .
133(6) . . .
150(7) . . .
149(7) . . .
144(6) . . .
140(6) . . .
131(6) . . .
128(6) . . .
133(6) . . .
126(6) . . .
137(6) . . .
140(6) . . .
138(6) . . .
117(6) . . .
112(6) . . .
120(6) . . .
128(6) . . .
132(6) . . .
123(6) . . .
144(6) . . .
139(6) . . .
140(6) . . .
129(6) . . .
143(7) . . .
128(6) . . .
137(6) . . .
115(6) . . .
126(6) . . .
137(6) . . .
130(6) . . .
132(6) . . .
132(6) . . .
125(6) . . .
131(6) . . .
139(6) . . .
136(6) . . .
123(6) . . .
136(6) . . .
157(7) . . .
153(7) . . .
149(6) . . .
150(6) . . .
125(6) . . .
131(6) . . .
139(6) . . .
149(6) . . .
141(6) . . .
128(6) . . .
141(6) . . .
137(6) . . .
147(6) . . .
124(6) . . .
130(6) . . .
126(6) . . .
133(6) . . .
123(6) . . .
144(6) . . .
140(6) . . .
158(7) . . .
149(6) . . .
126(6) . . .
120(6) . . .
129(6) . . .
140(6) . . .
128(6) . . .
148(6) . . .
121(6) . . .
134(7) . . .
133(6) . . .
136(6) . . .
127(6) . . .
140(6) . . .
134(7) . . .
123(6) . . .
133(6) . . .
143(6) . . .
124(6) . . .
124(6) . . .
134(6) . . .
135(6) . . .
130(6) . . .
147(7) . . .
137(6) . . .
136(6) . . .
147(6) . . .
137(6) . . .
137(6) . . .
145(7) . . .
128(6) . . .
131(6) . . .
139(6) . . .
132(6) . . .
150(7) . . .
145(6) . . .
138(6) . . .
116(6) . . .
144(7) . . .
134(6) . . .
139(6) . . .
134(6) . . .
130(6) . . .
148(7) . . .
149(7) . . .
124(6) . . .
135(6) . . .
144(6) . . .
142(6) . . .
135(6) . . .
133(6) . . .
144(6) . . .
134(6) . . .
143(6) . . .
156(7) . . .
147(6) . . .
127(6) . . .
150(7) . . .
142(7) . . .
148(7) . . .
149(6) . . .
131(6) . . .
144(6) . . .
131(6) . . .
127(6) . . .
123(6) . . .
126(6) . . .
147(6) . . .
149(7) . . .
148(6) . . .
135(6) . . .
146(6) . . .
144(6) . . .
139(7) . . .
148(6) . . .
128(6) . . .
139(6) . . .
134(6) . . .
144(7) . . .
151(7) . . .
148(6) . . .
139(6) . . .
140(6) . . .
141(7) . . .
140(6) . . .
125(6) . . .
134(6) . . .
124(6) . . .
147(7) . . .
136(6) . . .
132(6) . . .
151(6) . . .
139(6) . . .
136(6) . . .
138(6) . . .
131(6) . . .
131(6) . . .
153(7) . . .
134(6) . . .
134(6) . . .
135(6) . . .
123(6) . . .
127(6) . . .
127(6) . . .
137(6) . . .
117(6) . . .
120(6) . . .
131(6) . . .
130(6) . . .
139(6) . . .
130(6) . . .
135(6) . . .
157(7) . . .
136(6) . . .
146(6) . . .
133(6) . . .
131(6) . . .
143(7) . . .
138(6) . . .
126(6) . . .
147(6) . . .
136(6) . . .
126(6) . . .
120(6) . . .
114(6) . . .
127(6) . . .
137(6) . . .
128(6) . . .
150(7) . . .
130(6) . . .
144(6) . . .
142(6) . . .
138(6) . . .
133(6) . . .
130(6) . . .
142(6) . . .
147(6) . . .
138(6) . . .
138(6) . . .
138(6) . . .
142(7) . . .
131(6) . . .
133(6) . . .
125(6) . . .
142(6) . . .
128(6) . . .
136(6) . . .
131(6) . . .
134(6) . . .
121(6) . . .
131(6) . . .
152(7) . . .
129(6) . . .
131(6) . . .
136(6) . . .
144(6) . . .
135(6) . . .
134(6) . . .
125(6) . . .
135(6) . . .
137(6) . . .
132(6) . . .
144(6) . . .
143(6) . . .
141(6) . . .
135(6) . . .
140(7) . . .
137(6) . . .
121(6) . . .
129(6) . . .
154(7) . . .
156(7) . . .
162(7) . . .
132(6) . . .
127(6) . . .
129(6) . . .
149(7) . . .
142(6) . . .
146(6) . . .
141(6) . . .
128(6) . . .
135(6) . . .
129(6) . . .
143(6) . . .
130(6) . . .
144(7) . . .
122(6) . . .
127(6) . . .
143(6) . . .
121(6) . . .
138(6) . . .
143(6) . . .
135(6) . . .
125(6) . . .
132(6) . . .
128(6) . . .
130(6) . . .
149(6) . . .
141(6) . . .
136(6) . . .
142(6) . . .
130(6) . . .
125(6) . . .
142(6) . . .
130(6) . . .
126(6) . . .
150(7) . . .
132(6) . . .
134(6) . . .
148(7) . . .
140(6) . . .
143(6) . . .
156(7) . . .
133(6) . . .
131(6) . . .
153(7) . . .
162(7) . . .
142(6) . . .
147(6) . . .
134(6) . . .
137(6) . . .
134(6) . . .
134(6) . . .
133(6) . . .
131(6) . . .
129(6) . . .
132(6) . . .
119(6) . . .
120(6) . . .
149(7) . . .
131(6) . . .
135(6) . . .
139(6) . . .
139(6) . . .
128(6) . . .
141(6) . . .
139(6) . . .
123(6) . . .
135(6) . . .
111(6) . . .
135(6) . . .
142(6) . . .
149(6) . . .
139(6) . . .
150(7) . . .
137(6) . . .
137(6) . . .
140(6) . . .
147(7) . . .
145(7) . . .
132(6) . . .
117(6) . . .
140(6) . . .
137(6) . . .
142(7) . . .
145(6) . . .
138(6) . . .
145(6) . . .
128(6) . . .
146(7) . . .
130(6) . . .
147(6) . . .
129(6) . . .
120(6) . . .
135(6) . . .
128(6) . . .
124(6) . . .
134(6) . . .
131(6) . . .
134(6) . . .
133(6) . . .
120(6) . . .
120(6) . . .
154(7) . . .
153(7) . . .
133(6) . . .
133(6) . . .
123(6) . . .
118(6) . . .
142(6) . . .
134(6) . . .
142(6) . . .
132(6) . . .
128(6) . . .
127(6) . . .
135(6) . . .
149(6) . . .
129(6) . . .
134(6) . . .
127(6) . . .
128(6) . . .
137(6) . . .
136(6) . . .
152(7) . . .
117(6) . . .
128(6) . . .
142(6) . . .
147(7) . . .
146(7) . . .
140(7) . . .
143(6) . . .
129(6) . . .
138(6) . . .
127(6) . . .
131(6) . . .
137(6) . . .
116(6) . . .
123(6) . . .
126(6) . . .
121(6) . . .
128(6) . . .
128(6) . . .
119(6) . . .
137(7) . . .
137(6) . . .
139(6) . . .
138(6) . . .
121(6) . . .
131(6) . . .
116(6) . . .
122(6) . . .
121(6) . . .
134(6) . . .
138(7) . . .
127(6) . . .
129(6) . . .
148(6) . . .
145(6) . . .
155(7) . . .
125(6) . . .
130(6) . . .
132(6) . . .
148(7) . . .
145(7) . . .
139(6) . . .
133(6) . . .
124(6) . . .
128(6) . . .
146(7) . . .
130(6) . . .
134(6) . . .
116(6) . . .
142(6) . . .
142(6) . . .
141(6) . . .
123(6) . . .
127(6) . . .
159(7) . . .
121(6) . . .
134(6) . . .
132(6) . . .
145(7) . . .
130(6) . . .
154(7) . . .
142(6) . . .
137(6) . . .
133(6) . . .
133(6) . . .
120(6) . . .
127(6) . . .
130(6) . . .
122(6) . . .
120(6) . . .
129(6) . . .
127(6) . . .
139(6) . . .
122(6) . . .
129(6) . . .
134(6) . . .
132(6) . . .
132(6) . . .
132(6) . . .
118(6) . . .
138(6) . . .
128(6) . . .
134(6) . . .
136(6) . . .
127(6) . . .
125(6) . . .
146(6) . . .
129(6) . . .
138(6) . . .
139(7) . . .
129(6) . . .
129(6) . . .
133(6) . . .
139(6) . . .
130(6) . . .
152(7) . . .
126(6) . . .
123(6) . . .
142(6) . . .
131(6) . . .
132(6) . . .
158(7) . . .
134(6) . . .
146(7) . . .
122(6) . . .
135(6) . . .
127(6) . . .
125(6) . . .
132(6) . . .
132(6) . . .
139(6) . . .
132(6) . . .
139(6) . . .
127(6) . . .
136(6) . . .
129(6) . . .
129(6) . . .
138(6) . . .
126(6) . . .
130(6) . . .
148(6) . . .
134(6) . . .
125(6) . . .
135(6) . . .
141(6) . . .
129(6) . . .
131(6) . . .
138(6) . . .
126(6) . . .
147(6) . . .
132(6) . . .
139(6) . . .
128(6) . . .
151(7) . . .
122(6) . . .
126(6) . . .
134(6) . . .
137(6) . . .
134(6) . . .
131(6) . . .
141(6) . . .
144(6) . . .
133(6) . . .
135(6) . . .
131(6) . . .
141(6) . . .
128(6) . . .
132(6) . . .
121(6) . . .
129(6) . . .
123(6) . . .
133(6) . . .
125(6) . . .
112(6) . . .
139(6) . . .
142(6) . . .
137(6) . . .
135(6) . . .
132(6) . . .
127(6) . . .
116(6) . . .
127(6) . . .
139(6) . . .
142(6) . . .
138(6) . . .
111(6) . . .
123(6) . . .
130(6) . . .
118(6) . . .
143(6) . . .
135(6) . . .
134(6) . . .
131(7) . . .
127(6) . . .
140(6) . . .
125(6) . . .
118(6) . . .
133(6) . . .
126(6) . . .
137(6) . . .
137(6) . . .
140(6) . . .
137(7) . . .
113(6) . . .
131(6) . . .
133(6) . . .
134(6) . . .
139(7) . . .
140(6) . . .
134(6) . . .
129(6) . . .
146(7) . . .
145(7) . . .
134(6) . . .
126(6) . . .
120(6) . . .
145(7) . . .
130(6) . . .
133(6) . . .
137(6) . . .
128(6) . . .
130(6) . . .
154(7) . . .
132(6) . . .
124(6) . . .
133(6) . . .
137(7) . . .
124(6) . . .
137(6) . . .
134(6) . . .
141(6) . . .
143(7) . . .
141(6) . . .
119(6) . . .
119(6) . . .
139(6) . . .
143(7) . . .
118(6) . . .
127(6) . . .
130(6) . . .
135(6) . . .
137(7) . . .
128(6) . . .
127(6) . . .
136(6) . . .
123(6) . . .
120(6) . . .
127(6) . . .
137(6) . . .
128(6) . . .
144(6) . . .
132(6) . . .
138(6) . . .
129(6) . . .
144(6) . . .
123(6) . . .
133(6) . . .
145(6) . . .
153(6) . . .
133(6) . . .
142(6) . . .
144(7) . . .
125(6) . . .
137(6) . . .
139(6) . . .
144(6) . . .
138(6) . . .
127(6) . . .
133(6) . . .
115(6) . . .
116(6) . . .
129(6) . . .
143(6) . . .
135(6) . . .
128(6) . . .
126(6) . . .
138(6) . . .
143(6) . . .
132(6) . . .
136(6) . . .
147(7) . . .
145(6) . . .
131(6) . . .
154(6) . . .
134(6) . . .
126(6) . . .
128(6) . . .
136(6) . . .
132(6) . . .
130(6) . . .
123(6) . . .
131(6) . . .
138(6) . . .
110(6) . . .
124(6) . . .
132(6) . . .
111(6) . . .
131(6) . . .
129(6) . . .
135(6) . . .
123(6) . . .
128(6) . . .
137(6) . . .
120(6) . . .
137(6) . . .
151(7) . . .
137(6) . . .
136(6) . . .
143(6) . . .
121(6) . . .
130(6) . . .
130(6) . . .
124(6) . . .
137(6) . . .
132(6) . . .
128(6) . . .
130(6) . . .
141(6) . . .
120(6) . . .
137(7) . . .
141(7) . . .
137(6) . . .
117(6) . . .
130(6) . . .
119(6) . . .
128(6) . . .
138(6) . . .
137(6) . . .
139(6) . . .
121(6) . . .
136(6) . . .
133(6) . . .
140(6) . . .
147(7) . . .
127(6) . . .
135(6) . . .
133(6) . . .
137(6) . . .
124(6) . . .
130(6) . . .
123(6) . . .
127(6) . . .
123(6) . . .
135(6) . . .
145(7) . . .
132(6) . . .
136(6) . . .
129(6) . . .
131(6) . . .
128(6) . . .
138(6) . . .
140(6) . . .
119(6) . . .
134(6) . . .
147(7) . . .
136(6) . . .
117(6) . . .
125(6) . . .
139(6) . . .
137(6) . . .
127(6) . . .
118(6) . . .
137(6) . . .
128(6) . . .
133(6) . . .
142(7) . . .
141(6) . . .
133(6) . . .
119(6) . . .
107(5) . . .
129(6) . . .
135(6) . . .
140(6) . . .
122(6) . . .
141(7) . . .
118(6) . . .
125(6) . . .
136(6) . . .
114(6) . . .
123(6) . . .
136(6) . . .
128(6) . . .
115(6) . . .
125(6) . . .
134(6) . . .
121(6) . . .
127(6) . . .
116(6) . . .
121(6) . . .
152(7) . . .
125(6) . . .
139(6) . . .
130(6) . . .
134(6) . . .
143(7) . . .
119(6) . . .
117(6) . . .
128(6) . . .
126(6) . . .
116(6) . . .
127(6) . . .
128(6) . . .
135(6) . . .
137(7) . . .
140(6) . . .
124(6) . . .
134(6) . . .
135(6) . . .
127(6) . . .
131(6) . . .
129(6) . . .
116(6) . . .
126(6) . . .
131(6) . . .
149(7) . . .
117(6) . . .
137(6) . . .
132(6) . . .
125(6) . . .
141(6) . . .
117(6) . . .
136(6) . . .
131(6) . . .
119(6) . . .
132(6) . . .
126(6) . . .
119(6) . . .
133(6) . . .
131(6) . . .
135(6) . . .
135(6) . . .
133(6) . . .
125(6) . . .
113(6) . . .
114(6) . . .
129(6) . . .
117(6) . . .
125(6) . . .
133(6) . . .
137(6) . . .
134(6) . . .
131(6) . . .
130(6) . . .
136(6) . . .
127(6) . . .
124(6) . . .
144(6) . . .
139(7) . . .
132(6) . . .
142(6) . . .
136(6) . . .
128(6) . . .
108(6) . . .
148(7) . . .
134(6) . . .
130(6) . . .
140(6) . . .
130(6) . . .
134(6) . . .
138(6) . . .
124(6) . . .
136(7) . . .
138(7) . . .
146(7) . . .
137(6) . . .
136(6) . . .
112(6) . . .
114(6) . . .
125(6) . . .
133(6) . . .
118(6) . . .
121(6) . . .
125(6) . . .
128(6) . . .
131(6) . . .
130(6) . . .
130(6) . . .
127(6) . . .
139(6) . . .
126(6) . . .
137(6) . . .
127(6) . . .
142(6) . . .
130(6) . . .
135(6) . . .
135(6) . . .
124(6) . . .
123(6) . . .
137(6) . . .
138(6) . . .
120(6) . . .
146(7) . . .
124(6) . . .
131(6) . . .
132(6) . . .
150(7) . . .
116(6) . . .
125(6) . . .
120(6) . . .
117(6) . . .
118(6) . . .
114(6) . . .
130(6) . . .
121(6) . . .
132(6) . . .
117(6) . . .
112(6) . . .
134(6) . . .
121(6) . . .
129(6) . . .
124(6) . . .
121(6) . . .
122(6) . . .
125(6) . . .
118(6) . . .
116(6) . . .
132(6) . . .
135(6) . . .
141(6) . . .
131(6) . . .
135(6) . . .
134(6) . . .
128(6) . . .
133(6) . . .
124(6) . . .
133(6) . . .
130(6) . . .
126(6) . . .
120(6) . . .
139(6) . . .
139(6) . . .
122(6) . . .
135(6) . . .
143(6) . . .
138(6) . . .
126(6) . . .
126(6) . . .
124(6) . . .
128(6) . . .
133(6) . . .
120(6) . . .
125(6) . . .
131(6) . . .
146(6) . . .
138(6) . . .
138(7) . . .
124(6) . . .
127(6) . . .
132(6) . . .
127(6) . . .
129(6) . . .
141(7) . . .
128(6) . . .
120(6) . . .
115(6) . . .
142(7) . . .
132(6) . . .
124(6) . . .
126(6) . . .
118(6) . . .
138(7) . . .
115(6) . . .
125(6) . . .
123(6) . . .
133(6) . . .
119(6) . . .
130(6) . . .
140(6) . . .
134(6) . . .
122(6) . . .
120(6) . . .
131(6) . . .
147(6) . . .
143(6) . . .
126(6) . . .
134(6) . . .
132(6) . . .
120(6) . . .
117(6) . . .
120(6) . . .
123(6) . . .
112(6) . . .
137(6) . . .
131(6) . . .
132(6) . . .
129(6) . . .
138(6) . . .
135(6) . . .
111(6) . . .
123(6) . . .
128(6) . . .
134(6) . . .
133(6) . . .
128(6) . . .
114(6) . . .
127(6) . . .
114(6) . . .
113(6) . . .
126(6) . . .
129(7) . . .
140(6) . . .
121(6) . . .
130(6) . . .
106(6) . . .
127(6) . . .
124(6) . . .
135(6) . . .
116(6) . . .
120(6) . . .
118(6) . . .
133(6) . . .
128(6) . . .
123(6) . . .
129(6) . . .
133(6) . . .
149(7) . . .
138(6) . . .
135(6) . . .
130(6) . . .
111(6) . . .
128(6) . . .
147(6) . . .
129(6) . . .
120(6) . . .
143(6) . . .
141(6) . . .
148(6) . . .
136(6) . . .
126(6) . . .
129(6) . . .
126(6) . . .
125(6) . . .
127(6) . . .
131(6) . . .
123(6) . . .
146(6) . . .
136(6) . . .
136(6) . . .
137(6) . . .
137(6) . . .
132(6) . . .
135(6) . . .
116(6) . . .
116(6) . . .
122(6) . . .
132(6) . . .
138(6) . . .
118(6) . . .
129(6) . . .
114(6) . . .
137(6) . . .
130(6) . . .
139(6) . . .
121(6) . . .
151(7) . . .
127(6) . . .
121(6) . . .
124(6) . . .
136(6) . . .
137(6) . . .
132(6) . . .
139(6) . . .
133(6) . . .
125(6) . . .
136(6) . . .
140(6) . . .
128(6) . . .
140(7) . . .
131(6) . . .
149(7) . . .
133(6) . . .
150(7) . . .
125(6) . . .
140(7) . . .
142(6) . . .
140(6) . . .
132(6) . . .
131(6) . . .
127(6) . . .
117(6) . . .
126(6) . . .
125(6) . . .
129(6) . . .
136(6) . . .
138(6) . . .
145(6) . . .
142(6) . . .
130(6) . . .
134(6) . . .
125(6) . . .
138(6) . . .
142(7) . . .
129(6) . . .
157(7) . . .
126(6) . . .
132(6) . . .
122(6) . . .
136(6) . . .
154(7) . . .
131(6) . . .
140(6) . . .
155(7) . . .
143(6) . . .
149(7) . . .
137(6) . . .
134(6) . . .
125(6) . . .
143(7) . . .
131(6) . . .
142(6) . . .
136(6) . . .
149(7) . . .
146(7) . . .
136(6) . . .
120(6) . . .
123(6) . . .
141(7) . . .
130(6) . . .
143(6) . . .
121(6) . . .
123(6) . . .
121(6) . . .
119(6) . . .
142(6) . . .
134(6) . . .
124(6) . . .
133(6) . . .
131(7) . . .
122(6) . . .
122(6) . . .
147(7) . . .
141(6) . . .
128(6) . . .
124(6) . . .
125(6) . . .
123(6) . . .
144(7) . . .
139(6) . . .
153(6) . . .
139(6) . . .
128(6) . . .
133(6) . . .
127(6) . . .
135(6) . . .
143(6) . . .
146(6) . . .
147(7) . . .
124(6) . . .
122(6) . . .
133(6) . . .
130(6) . . .
121(6) . . .
129(6) . . .
127(6) . . .
113(6) . . .
138(6) . . .
127(6) . . .
133(6) . . .
143(6) . . .
131(6) . . .
117(6) . . .
119(6) . . .
153(7) . . .
129(6) . . .
134(6) . . .
127(6) . . .
121(6) . . .
139(6) . . .
127(6) . . .
132(6) . . .
137(6) . . .
114(6) . . .
110(6) . . .
132(6) . . .
134(6) . . .
137(6) . . .
141(6) . . .
148(7) . . .
122(6) . . .
111(6) . . .
118(6) . . .
125(6) . . .
131(6) . . .
127(6) . . .
138(6) . . .
131(6) . . .
122(6) . . .
122(6) . . .
128(6) . . .
126(6) . . .
123(6) . . .
139(6) . . .
141(6) . . .
122(6) . . .
120(6) . . .
136(6) . . .
138(6) . . .
118(6) . . .
127(6) . . .
129(6) . . .
125(6) . . .
128(6) . . .
136(6) . . .
133(6) . . .
134(6) . . .
132(6) . . .
127(6) . . .
132(6) . . .
147(6) . . .
131(6) . . .
145(7) . . .
132(6) . . .
157(6) . . .
145(6) . . .
149(7) . . .
144(6) . . .
145(6) . . .
149(6) . . .
139(6) . . .
127(6) . . .
151(7) . . .
129(6) . . .
155(6) . . .
142(6) . . .
140(7) . . .
141(7) . . .
149(6) . . .
148(6) . . .
130(6) . . .
156(7) . . .
124(6) . . .
144(6) . . .
130(6) . . .
138(6) . . .
135(6) . . .
144(7) . . .
132(6) . . .
137(6) . . .
129(6) . . .
140(7) . . .
145(7) . . .
126(6) . . .
143(6) . . .
132(6) . . .
124(6) . . .
139(6) . . .
152(6) . . .
133(6) . . .
139(6) . . .
138(7) . . .
122(6) . . .
148(6) . . .
137(6) . . .
142(6) . . .
135(6) . . .
139(6) . . .
139(6) . . .
131(6) . . .
117(6) . . .
133(6) . . .
140(7) . . .
129(6) . . .
154(7) . . .
133(6) . . .
150(7) . . .
136(6) . . .
135(6) . . .
117(6) . . .
126(6) . . .
128(6) . . .
154(7) . . .
133(6) . . .
135(6) . . .
124(6) . . .
143(7) . . .
139(6) . . .
141(6) . . .
129(6) . . .
128(6) . . .
146(7) . . .
122(6) . . .
137(6) . . .
117(6) . . .
116(6) . . .
123(6) . . .
132(6) . . .
136(6) . . .
116(6) . . .
132(6) . . .
112(5) . . .
136(6) . . .
139(6) . . .
119(6) . . .
123(6) . . .
136(6) . . .
122(6) . . .
126(6) . . .
125(6) . . .
123(6) . . .
147(7) . . .
134(6) . . .
136(6) . . .
133(6) . . .
140(7) . . .
125(6) . . .
137(6) . . .
147(6) . . .
144(6) . . .
127(6) . . .
126(6) . . .
115(6) . . .
127(6) . . .
129(6) . . .
129(6) . . .
130(6) . . .
130(6) . . .
139(6) . . .
125(6) . . .
124(6) . . .
122(6) . . .
148(6) . . .
136(6) . . .
104(6) . . .
125(6) . . .
138(6) . . .
140(6) . . .
139(6) . . .
142(7) . . .
139(6) . . .
156(7) . . .
133(6) . . .
132(6) . . .
138(6) . . .
136(6) . . .
124(6) . . .
146(6) . . .
131(6) . . .
144(7) . . .
130(6) . . .
140(6) . . .
128(6) . . .
136(6) . . .
142(7) . . .
142(6) . . .
132(6) . . .
135(6) . . .
143(6) . . .
155(7) . . .
134(6) . . .
130(6) . . .
124(6) . . .
156(7) . . .
125(6) . . .
119(6) . . .
135(6) . . .
128(6) . . .
133(6) . . .
125(6) . . .
137(6) . . .
146(6) . . .
137(6) . . .
120(6) . . .
115(6) . . .
121(6) . . .
112(6) . . .
124(6) . . .
135(6) . . .
144(7) . . .
122(6) . . .
121(6) . . .
129(6) . . .
114(6) . . .
120(6) . . .
120(6) . . .
133(6) . . .
116(6) . . .
104(6) . . .
118(6) . . .
126(6) . . .
127(6) . . .
132(6) . . .
140(6) . . .
137(7) . . .
121(6) . . .
121(6) . . .
136(7) . . .
135(6) . . .
132(6) . . .
124(6) . . .
131(6) . . .
130(6) . . .
135(6) . . .
139(6) . . .
120(6) . . .
121(6) . . .
128(6) . . .
112(6) . . .
122(6) . . .
125(6) . . .
132(6) . . .
129(6) . . .
128(6) . . .
123(6) . . .
140(6) . . .
147(6) . . .
124(6) . . .
132(6) . . .
133(6) . . .
112(5) . . .
139(6) . . .
113(6) . . .
126(6) . . .
126(6) . . .
131(6) . . .
136(6) . . .
137(6) . . .
128(6) . . .
125(6) . . .
118(6) . . .
124(6) . . .
140(6) . . .
128(6) . . .
125(6) . . .
120(6) . . .
116(6) . . .
133(6) . . .
132(6) . . .
138(6) . . .
135(6) . . .
136(6) . . .
120(6) . . .
135(6) . . .
129(6) . . .
125(6) . . .
137(6) . . .
128(6) . . .
134(6) . . .
134(6) . . .
115(6) . . .
114(6) . . .
129(6) . . .
141(6) . . .
124(6) . . .
116(6) . . .
125(6) . . .
121(6) . . .
128(6) . . .
132(6) . . .
120(6) . . .
124(6) . . .
136(7) . . .
135(6) . . .
123(6) . . .
130(6) . . .
138(6) . . .
132(7) . . .
126(6) . . .
121(6) . . .
125(6) . . .
120(6) . . .
130(6) . . .
132(6) . . .
128(6) . . .
119(6) . . .
128(6) . . .
140(6) . . .
129(6) . . .
134(6) . . .
147(6) . . .
126(6) . . .
127(6) . . .
131(6) . . .
123(6) . . .
112(6) . . .
118(6) . . .
122(6) . . .
136(6) . . .
128(6) . . .
127(6) . . .
122(6) . . .
144(6) . . .
135(6) . . .
126(6) . . .
132(6) . . .
130(6) . . .
121(6) . . .
124(6) . . .
123(6) . . .
127(6) . . .
120(6) . . .
120(6) . . .
122(6) . . .
134(6) . . .
122(6) . . .
129(6) . . .
115(6) . . .
128(6) . . .
127(6) . . .
133(6) . . .
145(7) . . .
133(6) . . .
132(6) . . .
124(6) . . .
127(6) . . .
122(6) . . .
142(7) . . .
130(6) . . .
136(6) . . .
112(6) . . .
130(6) . . .
136(6) . . .
130(6) . . .
132(6) . . .
134(6) . . .
123(6) . . .
145(6) . . .
139(6) . . .
135(6) . . .
138(6) . . .
129(6) . . .
134(6) . . .
123(6) . . .
126(6) . . .
138(6) . . .
129(6) . . .
140(6) . . .
134(6) . . .
119(6) . . .
127(6) . . .
126(6) . . .
122(6) . . .
124(6) . . .
135(6) . . .
136(6) . . .
125(6) . . .
135(6) . . .
129(6) . . .
124(6) . . .
135(7) . . .
117(6) . . .
142(6) . . .
120(6) . . .
148(7) . . .
123(6) . . .
133(6) . . .
133(6) . . .
150(6) . . .
126(6) . . .
138(7) . . .
130(6) . . .
127(6) . . .
118(6) . . .
138(6) . . .
136(7) . . .
139(6) . . .
142(6) . . .
134(6) . . .
132(6) . . .
118(6) . . .
126(6) . . .
120(6) . . .
120(6) . . .
118(6) . . .
126(6) . . .
126(6) . . .
120(6) . . .
119(6) . . .
132(6) . . .
124(6) . . .
126(6) . . .
136(6) . . .
129(6) . . .
131(6) . . .
138(6) . . .
125(6) . . .
114(6) . . .
135(6) . . .
145(7) . . .
131(6) . . .
143(6) . . .
140(6) . . .
144(6) . . .
125(6) . . .
119(6) . . .
117(6) . . .
130(6) . . .
132(6) . . .
143(7) . . .
120(6) . . .
139(6) . . .
152(6) . . .
120(6) . . .
118(6) . . .
126(6) . . .
133(6) . . .
127(6) . . .
132(6) . . .
132(6) . . .
121(6) . . .
129(6) . . .
140(6) . . .
129(6) . . .
137(7) . . .
110(6) . . .
136(6) . . .
138(6) . . .
131(6) . . .
142(7) . . .
139(6) . . .
121(6) . . .
130(6) . . .
120(6) . . .
133(6) . . .
142(6) . . .
136(6) . . .
134(6) . . .
124(6) . . .
125(6) . . .
123(6) . . .
131(6) . . .
131(6) . . .
119(6) . . .
141(6) . . .
132(6) . . .
130(6) . . .
122(6) . . .
112(6) . . .
129(6) . . .
115(6) . . .
124(6) . . .
121(6) . . .
122(6) . . .
127(6) . . .
123(6) . . .
116(6) . . .
109(5) . . .
114(5) . . .
132(6) . . .
122(6) . . .
132(6) . . .
115(6) . . .
120(6) . . .
124(6) . . .
119(6) . . .
116(6) . . .
107(5) . . .
127(6) . . .
126(6) . . .
122(6) . . .
121(6) . . .
133(6) . . .
122(6) . . .
116(6) . . .
121(6) . . .
108(5) . . .
118(6) . . .
129(6) . . .
127(6) . . .
106(5) . . .
135(6) . . .
132(6) . . .
113(6) . . .
105(6) . . .
123(6) . . .
124(6) . . .
124(6) . . .
106(5) . . .
116(6) . . .
126(6) . . .
120(6) . . .
134(6) . . .
118(6) . . .
129(6) . . .
114(6) . . .
114(6) . . .
128(6) . . .
125(6) . . .
127(6) . . .
129(6) . . .
135(6) . . .
126(6) . . .
118(6) . . .
116(6) . . .
136(6) . . .
119(6) . . .
140(6) . . .
114(6) . . .
120(6) . . .
116(6) . . .
124(6) . . .
130(6) . . .
117(6) . . .
122(6) . . .
123(6) . . .
118(6) . . .
120(6) . . .
116(6) . . .
124(6) . . .
133(6) . . .
128(6) . . .
109(5) . . .
126(6) . . .
118(6) . . .
111(6) . . .
106(5) . . .
115(6) . . .
118(6) . . .
121(6) . . .
113(6) . . .
115(6) . . .
120(6) . . .
129(6) . . .
115(6) . . .
124(6) . . .
129(6) . . .
133(6) . . .
130(6) . . .
123(6) . . .
119(6) . . .
117(6) . . .
116(6) . . .
119(6) . . .
123(6) . . .
116(6) . . .
111(5) . . .
105(6) . . .
104(5) . . .
121(6) . . .
113(6) . . .
128(6) . . .
124(6) . . .
110(6) . . .
117(6) . . .
125(6) . . .
113(6) . . .
101(6) . . .
121(6) . . .
122(6) . . .
113(6) . . .
106(5) . . .
119(6) . . .
115(6) . . .
114(6) . . .
116(6) . . .
114(6) . . .
118(6) . . .
118(6) . . .
111(6) . . .
131(6) . . .
112(6) . . .
108(6) . . .
128(6) . . .
124(6) . . .
122(6) . . .
134(6) . . .
114(6) . . .
128(6) . . .
121(6) . . .
131(6) . . .
129(6) . . .
121(6) . . .
119(6) . . .
110(6) . . .
100(5) . . .
135(6) . . .
117(6) . . .
109(6) . . .
117(6) . . .
120(6) . . .
127(6) . . .
124(6) . . .
125(6) . . .
125(6) . . .
116(6) . . .
130(6) . . .
117(6) . . .
141(7) . . .
119(6) . . .
119(6) . . .
128(6) . . .
135(7) . . .
127(6) . . .
121(6) . . .
116(6) . . .
126(6) . . .
111(6) . . .
118(6) . . .
129(6) . . .
128(6) . . .
121(6) . . .
132(6) . . .
115(6) . . .
133(6) . . .
116(6) . . .
107(5) . . .
127(6) . . .
112(6) . . .
116(6) . . .
129(6) . . .
121(6) . . .
112(6) . . .
110(6) . . .
115(6) . . .
124(6) . . .
107(6) . . .
111(6) . . .
116(6) . . .
133(6) . . .
142(6) . . .
128(6) . . .
120(6) . . .
121(6) . . .
112(5) . . .
118(6) . . .
127(6) . . .
124(6) . . .
114(6) . . .
120(6) . . .
113(6) . . .
124(6) . . .
125(6) . . .
133(6) . . .
121(6) . . .
120(6) . . .
124(6) . . .
131(6) . . .
125(6) . . .
106(5) . . .
115(6) . . .
128(6) . . .
123(6) . . .
122(6) . . .
125(6) . . .
137(6) . . .
118(6) . . .
114(6) . . .
142(6) . . .
123(6) . . .
121(6) . . .
129(6) . . .
132(6) . . .
143(6) . . .
110(5) . . .
133(6) . . .
121(6) . . .
128(6) . . .
125(6) . . .
140(6) . . .
113(6) . . .
126(6) . . .
120(6) . . .
107(5) . . .
126(6) . . .
124(6) . . .
105(6) . . .
114(6) . . .
107(5) . . .
115(6) . . .
122(6) . . .
111(6) . . .
114(6) . . .
129(6) . . .
135(6) . . .
125(6) . . .
118(6) . . .
118(6) . . .
120(6) . . .
132(6) . . .
132(6) . . .
140(6) . . .
131(6) . . .
128(6) . . .
122(6) . . .
125(6) . . .
117(6) . . .
128(6) . . .
129(6) . . .
118(6) . . .
106(6) . . .
123(6) . . .
116(6) . . .
114(6) . . .
122(6) . . .
120(6) . . .
129(6) . . .
127(6) . . .
126(6) . . .
120(6) . . .
117(6) . . .
124(6) . . .
142(6) . . .
123(6) . . .
135(6) . . .
120(6) . . .
109(5) . . .
111(6) . . .
109(5) . . .
125(6) . . .
135(6) . . .
133(6) . . .
128(6) . . .
114(6) . . .
117(6) . . .
129(6) . . .
130(6) . . .
131(6) . . .
123(6) . . .
115(6) . . .
129(7) . . .
114(6) . . .
116(6) . . .
123(6) . . .
115(6) . . .
126(6) . . .
110(6) . . .
112(5) . . .
136(6) . . .
132(6) . . .
136(6) . . .
118(6) . . .
118(6) . . .
108(6) . . .
111(6) . . .
111(6) . . .
116(6) . . .
118(6) . . .
121(6) . . .
124(6) . . .
128(6) . . .
120(6) . . .
127(6) . . .
114(6) . . .
123(6) . . .
116(6) . . .
122(6) . . .
129(6) . . .
113(6) . . .
128(6) . . .
114(6) . . .
118(6) . . .
121(6) . . .
124(6) . . .
133(6) . . .
119(6) . . .
146(6) . . .
127(6) . . .
113(6) . . .
113(6) . . .
137(6) . . .
128(6) . . .
120(6) . . .
121(6) . . .
113(6) . . .
130(6) . . .
125(6) . . .
126(6) . . .
133(6) . . .
130(6) . . .
116(6) . . .
119(6) . . .
125(6) . . .
124(6) . . .
133(6) . . .
122(6) . . .
114(6) . . .
107(5) . . .
117(6) . . .
115(6) . . .
120(6) . . .
115(6) . . .
116(6) . . .
121(6) . . .
114(6) . . .
126(6) . . .
140(6) . . .
134(6) . . .
125(6) . . .
116(6) . . .
129(6) . . .
128(6) . . .
121(6) . . .
113(6) . . .
132(6) . . .
124(6) . . .
125(6) . . .
115(6) . . .
108(5) . . .
122(6) . . .
107(5) . . .
115(6) . . .
116(6) . . .
125(6) . . .
127(6) . . .
130(6) . . .
118(6) . . .
140(6) . . .
110(6) . . .
113(6) . . .
125(6) . . .
120(6) . . .
126(6) . . .
111(6) . . .
109(6) . . .
119(6) . . .
120(6) . . .
120(6) . . .
113(6) . . .
121(6) . . .
120(6) . . .
121(6) . . .
124(6) . . .
119(6) . . .
120(6) . . .
122(6) . . .
103(5) . . .
123(6) . . .
134(6) . . .
131(6) . . .
120(6) . . .
123(6) . . .
124(6) . . .
111(6) . . .
125(6) . . .
119(6) . . .
116(6) . . .
117(6) . . .
113(6) . . .
136(6) . . .
132(6) . . .
104(5) . . .
137(6) . . .
126(6) . . .
116(6) . . .
111(5) . . .
125(6) . . .
130(6) . . .
121(6) . . .
123(6) . . .
113(6) . . .
130(6) . . .
121(6) . . .
120(6) . . .
124(6) . . .
130(6) . . .
140(7) . . .
121(6) . . .
134(6) . . .
122(6) . . .
125(6) . . .
132(6) . . .
116(6) . . .
117(6) . . .
118(6) . . .
122(6) . . .
112(6) . . .
126(6) . . .
145(6) . . .
121(6) . . .
116(6) . . .
120(6) . . .
113(6) . . .
130(6) . . .
125(6) . . .
129(6) . . .
109(5) . . .
127(6) . . .
112(6) . . .
137(6) . . .
115(6) . . .
114(6) . . .
115(6) . . .
120(6) . . .
134(6) . . .
127(6) . . .
121(6) . . .
118(6) . . .
121(6) . . .
112(6) . . .
128(6) . . .
123(6) . . .
130(6) . . .
133(6) . . .
110(5) . . .
121(6) . . .
129(6) . . .
132(6) . . .
117(6) . . .
113(6) . . .
115(6) . . .
114(6) . . .
122(6) . . .
126(6) . . .
117(6) . . .
109(6) . . .
128(6) . . .
123(6) . . .
118(6) . . .
109(5) . . .
126(6) . . .
125(6) . . .
110(6) . . .
113(5) . . .
120(6) . . .
119(6) . . .
130(7) . . .
120(6) . . .
115(6) . . .
125(6) . . .
123(6) . . .
132(6) . . .
117(6) . . .
120(6) . . .
129(6) . . .
114(6) . . .
128(6) . . .
118(6) . . .
122(6) . . .
111(6) . . .
111(6) . . .
125(6) . . .
110(6) . . .
134(6) . . .
127(6) . . .
118(6) . . .
130(6) . . .
103(5) . . .
112(5) . . .
134(6) . . .
116(6) . . .
119(6) . . .
106(6) . . .
113(5) . . .
115(6) . . .
121(6) . . .
120(6) . . .
119(6) . . .
118(6) . . .
126(6) . . .
127(6) . . .
113(6) . . .
111(5) . . .
132(6) . . .
128(6) . . .
128(6) . . .
111(5) . . .
126(6) . . .
109(5) . . .
122(6) . . .
131(6) . . .
118(6) . . .
112(6) . . .
124(6) . . .
101(5) . . .
112(6) . . .
132(6) . . .
127(6) . . .
128(6) . . .
140(6) . . .
120(6) . . .
103(5) . . .
118(6) . . .
112(6) . . .
115(6) . . .
122(6) . . .
126(6) . . .
109(5) . . .
126(6) . . .
119(6) . . .
103(5) . . .
111(6) . . .
113(6) . . .
115(6) . . .
126(6) . . .
117(6) . . .
128(6) . . .
114(6) . . .
132(6) . . .
126(6) . . .
123(6) . . .
120(6) . . .
124(6) . . .
131(6) . . .
132(6) . . .
117(6) . . .
108(5) . . .
117(6) . . .
129(6) . . .
109(6) . . .
114(6) . . .
120(6) . . .
123(6) . . .
140(6) . . .
124(6) . . .
114(6) . . .
118(6) . . .
115(6) . . .
123(6) . . .
112(6) . . .
122(6) . . .
121(6) . . .
127(6) . . .
126(6) . . .
116(6) . . .
123(6) . . .
130(6) . . .
136(6) . . .
117(6) . . .
124(6) . . .
151(7) . . .
136(6) . . .
134(6) . . .
132(6) . . .
121(6) . . .
121(6) . . .
126(6) . . .
119(6) . . .
135(6) . . .
114(6) . . .
112(6) . . .
112(5) . . .
121(6) . . .
124(6) . . .
111(6) . . .
125(6) . . .
129(6) . . .
126(6) . . .
133(6) . . .
116(6) . . .
124(6) . . .
128(6) . . .
123(6) . . .
124(6) . . .
148(7) . . .
117(6) . . .
121(6) . . .
135(6) . . .
102(5) . . .
128(6) . . .
116(6) . . .
131(6) . . .
121(6) . . .
114(6) . . .
121(6) . . .
131(6) . . .
133(6) . . .
111(6) . . .
120(6) . . .
131(6) . . .
117(6) . . .
135(6) . . .
126(6) . . .
133(7) . . .
131(6) . . .
133(6) . . .
131(6) . . .
112(6) . . .
133(7) . . .
124(6) . . .
119(6) . . .
115(6) . . .
109(6) . . .
121(6) . . .
131(6) . . .
125(6) . . .
135(6) . . .
128(6) . . .
125(6) . . .
128(6) . . .
111(6) . . .
129(6) . . .
106(5) . . .
109(6) . . .
123(6) . . .
119(6) . . .
106(5) . . .
122(6) . . .
124(6) . . .
114(6) . . .
121(6) . . .
122(6) . . .
128(6) . . .
121(6) . . .
119(6) . . .
114(6) . . .
95(5) . . .
119(6) . . .
119(6) . . .
105(5) . . .
131(6) . . .
114(6) . . .
112(6) . . .
124(6) . . .
124(6) . . .
118(6) . . .
127(6) . . .
107(6) . . .
113(6) . . .
113(6) . . .
144(6) . . .
130(6) . . .
128(6) . . .
137(6) . . .
118(6) . . .
126(6) . . .
124(6) . . .
139(7) . . .
108(5) . . .
127(6) . . .
118(6) . . .
126(6) . . .
125(6) . . .
117(6) . . .
127(6) . . .
135(6) . . .
123(6) . . .
133(6) . . .
121(6) . . .
125(6) . . .
121(6) . . .
124(6) . . .
126(6) . . .
133(6) . . .
126(6) . . .
128(6) . . .
131(6) . . .
160(7) . . .
127(6) . . .
133(6) . . .
123(6) . . .
122(6) . . .
116(6) . . .
129(6) . . .
134(6) . . .
125(6) . . .
118(6) . . .
123(6) . . .
129(6) . . .
119(6) . . .
127(6) . . .
129(6) . . .
124(6) . . .
127(6) . . .
135(6) . . .
118(6) . . .
134(7) . . .
123(6) . . .
123(6) . . .
118(6) . . .
124(6) . . .
129(6) . . .
133(6) . . .
139(6) . . .
122(6) . . .
132(6) . . .
139(7) . . .
137(6) . . .
128(6) . . .
129(6) . . .
119(6) . . .
127(6) . . .
128(6) . . .
129(6) . . .
108(5) . . .
116(6) . . .
129(6) . . .
121(6) . . .
118(6) . . .
130(6) . . .
131(6) . . .
129(6) . . .
125(6) . . .
151(6) . . .
126(6) . . .
136(6) . . .
124(6) . . .
122(6) . . .
135(6) . . .
127(6) . . .
129(7) . . .
131(6) . . .
128(6) . . .
133(6) . . .
117(6) . . .
131(6) . . .
136(6) . . .
132(6) . . .
111(5) . . .
124(6) . . .
137(6) . . .
122(6) . . .
118(6) . . .
132(6) . . .
135(6) . . .
136(6) . . .
110(6) . . .
133(6) . . .
138(6) . . .
148(7) . . .
127(6) . . .
121(6) . . .
123(6) . . .
125(6) . . .
131(6) . . .
130(6) . . .
127(6) . . .
123(6) . . .
125(6) . . .
125(6) . . .
136(7) . . .
132(6) . . .
130(6) . . .
133(6) . . .
134(6) . . .
124(6) . . .
118(6) . . .
121(6) . . .
133(6) . . .
130(6) . . .
145(7) . . .
132(6) . . .
143(6) . . .
130(6) . . .
136(6) . . .
130(6) . . .
140(6) . . .
122(6) . . .
107(5) . . .
128(6) . . .
127(6) . . .
128(6) . . .
124(6) . . .
136(6) . . .
134(6) . . .
120(6) . . .
127(6) . . .
129(6) . . .
135(6) . . .
119(6) . . .
120(6) . . .
128(6) . . .
133(6) . . .
144(6) . . .
135(6) . . .
131(6) . . .
117(6) . . .
118(6) . . .
113(6) . . .
124(6) . . .
130(6) . . .
131(6) . . .
121(6) . . .
137(6) . . .
119(6) . . .
129(6) . . .
130(6) . . .
116(6) . . .
133(6) . . .
123(6) . . .
131(6) . . .
136(6) . . .
131(6) . . .
136(6) . . .
123(6) . . .
131(6) . . .
125(6) . . .
131(6) . . .
136(6) . . .
133(6) . . .
110(6) . . .
127(6) . . .
132(6) . . .
128(6) . . .
136(6) . . .
127(6) . . .
122(6) . . .
138(6) . . .
149(7) . . .
134(6) . . .
139(6) . . .
130(6) . . .
129(6) . . .
119(6) . . .
141(6) . . .
138(6) . . .
129(6) . . .
124(6) . . .
128(6) . . .
123(6) . . .
125(6) . . .
130(6) . . .
136(7) . . .
118(6) . . .
122(6) . . .
139(6) . . .
130(6) . . .
115(6) . . .
130(6) . . .
132(6) . . .
126(6) . . .
116(6) . . .
109(6) . . .
121(6) . . .
113(6) . . .
118(6) . . .
137(6) . . .
122(6) . . .
120(6) . . .
128(6) . . .
115(6) . . .
120(6) . . .
113(6) . . .
125(6) . . .
128(6) . . .
136(6) . . .
127(6) . . .
139(6) . . .
133(6) . . .
136(6) . . .
134(6) . . .
113(6) . . .
116(6) . . .
135(6) . . .
110(6) . . .
115(6) . . .
120(6) . . .
124(6) . . .
140(7) . . .
129(6) . . .
124(6) . . .
115(6) . . .
144(7) . . .
129(6) . . .
118(6) . . .
131(6) . . .
121(6) . . .
111(6) . . .
107(6) . . .
121(6) . . .
123(6) . . .
121(6) . . .
123(6) . . .
125(6) . . .
136(6) . . .
129(6) . . .
125(6) . . .
117(6) . . .
128(6) . . .
123(6) . . .
134(6) . . .
138(6) . . .
127(6) . . .
133(6) . . .
132(6) . . .
134(6) . . .
130(6) . . .
131(6) . . .
122(6) . . .
114(6) . . .
118(6) . . .
128(6) . . .
129(6) . . .
126(6) . . .
121(6) . . .
131(6) . . .
138(6) . . .
121(6) . . .
131(6) . . .
116(6) . . .
115(6) . . .
136(7) . . .
126(6) . . .
121(6) . . .
116(6) . . .
119(6) . . .
129(6) . . .
116(6) . . .
124(6) . . .
113(6) . . .
134(6) . . .
130(6) . . .
131(6) . . .
134(6) . . .
134(6) . . .
121(6) . . .
129(6) . . .
118(6) . . .
134(6) . . .
131(6) . . .
136(6) . . .
125(6) . . .
124(6) . . .
116(6) . . .
130(6) . . .
111(6) . . .
127(6) . . .
130(6) . . .
118(6) . . .
109(5) . . .
130(6) . . .
126(6) . . .
137(6) . . .
136(6) . . .
125(6) . . .
122(6) . . .
140(6) . . .
144(6) . . .
134(6) . . .
125(6) . . .
107(5) . . .
120(6) . . .
108(5) . . .
143(6) . . .
128(6) . . .
125(6) . . .
118(6) . . .
128(6) . . .
131(6) . . .
128(6) . . .
119(6) . . .
107(6) . . .
124(6) . . .
122(6) . . .
122(6) . . .
137(6) . . .
121(6) . . .
134(6) . . .
135(6) . . .
126(6) . . .
120(6) . . .
133(6) . . .
134(6) . . .
131(6) . . .
107(5) . . .
108(6) . . .
135(6) . . .
117(6) . . .
116(6) . . .
106(5) . . .
115(6) . . .
122(6) . . .
129(6) . . .
120(6) . . .
121(6) . . .
118(6) . . .
101(5) . . .
124(6) . . .
128(6) . . .
116(6) . . .
128(6) . . .
131(6) . . .
124(6) . . .
118(6) . . .
125(6) . . .
129(6) . . .
119(6) . . .
127(6) . . .
124(6) . . .
105(5) . . .
119(6) . . .
126(6) . . .
125(6) . . .
130(6) . . .
125(6) . . .
135(6) . . .
141(6) . . .
115(6) . . .
135(6) . . .
125(6) . . .
138(7) . . .
119(6) . . .
123(6) . . .
124(6) . . .
115(6) . . .
131(6) . . .
127(6) . . .
115(6) . . .
130(6) . . .
102(6) . . .
132(6) . . .
128(6) . . .
131(6) . . .
134(6) . . .
114(6) . . .
108(6) . . .
119(6) . . .
121(6) . . .
116(6) . . .
139(6) . . .
128(6) . . .
113(6) . . .
113(6) . . .
125(6) . . .
119(6) . . .
127(6) . . .
118(6) . . .
128(6) . . .
115(6) . . .
127(6) . . .
124(6) . . .
120(6) . . .
111(5) . . .
124(6) . . .
114(6) . . .
124(6) . . .
135(6) . . .
133(6) . . .
127(6) . . .
119(6) . . .
124(6) . . .
125(6) . . .
125(6) . . .
132(6) . . .
133(6) . . .
138(6) . . .
121(6) . . .
142(6) . . .
129(6) . . .
125(6) . . .
124(6) . . .
134(6) . . .
126(6) . . .
121(6) . . .
139(7) . . .
125(6) . . .
125(6) . . .
121(6) . . .
117(6) . . .
133(6) . . .
114(6) . . .
123(6) . . .
126(6) . . .
122(6) . . .
125(6) . . .
129(6) . . .
105(5) . . .
110(5) . . .
119(6) . . .
128(6) . . .
127(6) . . .
113(6) . . .
120(6) . . .
137(7) . . .
115(6) . . .
125(6) . . .
125(6) . . .
118(6) . . .
123(6) . . .
124(6) . . .
124(6) . . .
131(6) . . .
138(6) . . .
124(6) . . .
122(6) . . .
117(6) . . .
118(6) . . .
135(6) . . .
118(6) . . .
121(6) . . .
133(6) . . .
122(6) . . .
119(6) . . .
135(6) . . .
140(6) . . .
119(6) . . .
125(6) . . .
131(6) . . .
113(6) . . .
125(6) . . .
138(6) . . .
119(6) . . .
134(6) . . .
137(6) . . .
128(6) . . .
128(6) . . .
129(6) . . .
129(6) . . .
120(6) . . .
108(6) . . .
111(5) . . .
122(6) . . .
121(6) . . .
138(6) . . .
133(6) . . .
115(6) . . .
116(6) . . .
124(6) . . .
140(6) . . .
133(6) . . .
122(6) . . .
130(6) . . .
137(6) . . .
125(6) . . .
131(6) . . .
125(6) . . .
124(6) . . .
123(6) . . .
131(6) . . .
134(6) . . .
134(6) . . .
138(6) . . .
128(6) . . .
116(6) . . .
131(6) . . .
118(6) . . .
125(6) . . .
132(6) . . .
121(6) . . .
137(6) . . .
124(6) . . .
135(6) . . .
134(7) . . .
125(6) . . .
128(6) . . .
132(6) . . .
122(6) . . .
122(6) . . .
128(6) . . .
133(6) . . .
123(6) . . .
133(6) . . .
124(6) . . .
132(6) . . .
135(6) . . .
127(6) . . .
117(6) . . .
129(6) . . .
117(6) . . .
131(6) . . .
142(6) . . .
138(6) . . .
125(6) . . .
117(6) . . .
144(6) . . .
121(6) . . .
117(6) . . .
125(6) . . .
116(6) . . .
133(6) . . .
133(6) . . .
130(6) . . .
126(6) . . .
116(6) . . .
123(6) . . .
115(6) . . .
137(7) . . .
126(6) . . .
125(6) . . .
115(6) . . .
105(6) . . .
124(6) . . .
141(6) . . .
133(6) . . .
125(6) . . .
120(6) . . .
121(6) . . .
126(6) . . .
107(5) . . .
117(6) . . .
132(6) . . .
143(7) . . .
140(6) . . .
127(6) . . .
127(6) . . .
113(6) . . .
141(7) . . .
132(6) . . .
132(6) . . .
126(6) . . .
130(6) . . .
110(6) . . .
123(6) . . .
127(6) . . .
117(6) . . .
132(6) . . .
142(7) . . .
140(6) . . .
113(6) . . .
120(6) . . .
133(6) . . .
120(6) . . .
129(6) . . .
131(6) . . .
116(6) . . .
120(6) . . .
116(6) . . .
133(6) . . .
110(5) . . .
126(6) . . .
126(6) . . .
137(6) . . .
116(6) . . .
124(6) . . .
119(6) . . .
129(6) . . .
120(6) . . .
118(6) . . .
128(6) . . .
141(7) . . .
123(6) . . .
122(6) . . .
141(6) . . .
110(5) . . .
121(6) . . .
119(6) . . .
108(5) . . .
111(6) . . .
126(6) . . .
125(6) . . .
134(7) . . .
134(6) . . .
132(6) . . .
122(6) . . .
138(6) . . .
132(6) . . .
127(6) . . .
130(6) . . .
135(6) . . .
113(6) . . .
129(7) . . .
125(6) . . .
125(6) . . .
103(5) . . .
118(6) . . .
122(6) . . .
116(6) . . .
120(6) . . .
114(6) . . .
113(6) . . .
131(6) . . .
137(6) . . .
110(5) . . .
133(6) . . .
120(6) . . .
125(6) . . .
109(6) . . .
129(6) . . .
130(6) . . .
129(6) . . .
122(6) . . .
122(6) . . .
128(6) . . .
135(6) . . .
116(6) . . .
124(6) . . .
114(6) . . .
116(6) . . .
121(6) . . .
106(6) . . .
115(6) . . .
126(6) . . .
122(6) . . .
117(6) . . .
125(6) . . .
124(6) . . .
118(6) . . .
123(6) . . .
139(6) . . .
106(6) . . .
122(6) . . .
128(6) . . .
147(6) . . .
134(6) . . .
120(6) . . .
121(6) . . .
124(6) . . .
131(6) . . .
120(6) . . .
129(6) . . .
115(6) . . .
114(6) . . .
114(6) . . .
126(6) . . .
129(6) . . .
113(6) . . .
133(6) . . .
130(6) . . .
126(6) . . .
132(6) . . .
123(6) . . .
124(6) . . .
110(6) . . .
119(6) . . .
124(6) . . .
129(6) . . .
126(6) . . .
124(6) . . .
108(5) . . .
118(6) . . .
137(6) . . .
117(6) . . .
112(6) . . .
117(6) . . .
112(6) . . .
114(6) . . .
119(6) . . .
130(6) . . .
128(6) . . .
117(6) . . .
110(6) . . .
122(6) . . .
110(6) . . .
114(6) . . .
125(6) . . .
119(6) . . .
128(6) . . .
122(6) . . .
131(6) . . .
127(6) . . .
121(6) . . .
124(6) . . .
128(6) . . .
119(6) . . .
132(6) . . .
126(6) . . .
137(6) . . .
130(6) . . .
127(6) . . .
115(6) . . .
120(6) . . .
125(6) . . .
129(6) . . .
102(5) . . .
120(6) . . .
129(6) . . .
112(6) . . .
126(6) . . .
128(6) . . .
129(6) . . .
119(6) . . .
129(6) . . .
126(6) . . .
110(6) . . .
131(6) . . .
119(6) . . .
126(6) . . .
131(6) . . .
121(6) . . .
132(6) . . .
119(6) . . .
117(6) . . .
122(6) . . .
127(6) . . .
122(6) . . .
130(6) . . .
135(6) . . .
131(6) . . .
140(6) . . .
125(6) . . .
118(6) . . .
122(6) . . .
138(7) . . .
126(6) . . .
127(6) . . .
112(5) . . .
114(6) . . .
122(6) . . .
142(6) . . .
114(6) . . .
136(6) . . .
136(6) . . .
141(7) . . .
124(6) . . .
123(6) . . .
132(6) . . .
131(6) . . .
107(5) . . .
128(6) . . .
125(6) . . .
110(5) . . .
115(6) . . .
126(6) . . .
114(6) . . .
128(6) . . .
142(6) . . .
122(6) . . .
125(6) . . .
122(6) . . .
116(6) . . .
105(5) . . .
120(6) . . .
123(6) . . .
118(6) . . .
134(6) . . .
135(6) . . .
125(6) . . .
116(6) . . .
108(5) . . .
121(6) . . .
110(6) . . .
129(6) . . .
135(6) . . .
125(6) . . .
118(6) . . .
118(6) . . .
141(7) . . .
132(6) . . .
134(6) . . .
117(6) . . .
130(6) . . .
140(7) . . .
134(6) . . .
115(6) . . .
127(6) . . .
130(6) . . .
121(6) . . .
120(6) . . .
126(6) . . .
108(5) . . .
112(6) . . .
127(6) . . .
135(6) . . .
118(6) . . .
121(6) . . .
125(6) . . .
136(6) . . .
120(6) . . .
124(6) . . .
140(6) . . .
128(6) . . .
127(6) . . .
135(6) . . .
123(6) . . .
114(6) . . .
108(6) . . .
106(6) . . .
120(6) . . .
119(6) . . .
130(6) . . .
127(6) . . .
120(6) . . .
129(6) . . .
135(6) . . .
133(6) . . .
124(6) . . .
127(6) . . .
129(6) . . .
125(6) . . .
113(6) . . .
132(6) . . .
127(6) . . .
132(6) . . .
114(6) . . .
125(6) . . .
113(6) . . .
122(6) . . .
112(6) . . .
121(6) . . .
130(6) . . .
121(6) . . .
110(6) . . .
119(6) . . .
116(6) . . .
119(6) . . .
119(6) . . .
131(6) . . .
139(6) . . .
126(6) . . .
109(6) . . .
124(6) . . .
120(6) . . .
106(5) . . .
114(6) . . .
117(6) . . .
121(6) . . .
137(6) . . .
125(6) . . .
121(6) . . .
121(6) . . .
122(6) . . .
134(6) . . .
115(6) . . .
124(6) . . .
130(6) . . .
127(6) . . .
132(6) . . .
130(6) . . .
135(6) . . .
123(6) . . .
121(6) . . .
130(6) . . .
137(6) . . .
117(6) . . .
118(6) . . .
126(6) . . .
136(6) . . .
134(6) . . .
102(5) . . .
112(6) . . .
108(6) . . .
117(6) . . .
125(6) . . .
110(6) . . .
100(5) . . .
118(6) . . .
121(6) . . .
129(6) . . .
138(6) . . .
127(6) . . .
115(6) . . .
121(6) . . .
124(6) . . .
112(6) . . .
118(6) . . .
112(6) . . .
119(6) . . .
125(6) . . .
137(6) . . .
133(6) . . .
128(6) . . .
127(6) . . .
115(6) . . .
111(5) . . .
129(6) . . .
118(6) . . .
133(6) . . .
115(6) . . .
129(6) . . .
122(6) . . .
117(6) . . .
120(6) . . .
135(6) . . .
127(6) . . .
126(6) . . .
137(6) . . .
110(5) . . .
116(6) . . .
132(6) . . .
114(6) . . .
117(6) . . .
111(5) . . .
116(6) . . .
141(6) . . .
126(6) . . .
129(6) . . .
144(6) . . .
130(6) . . .
126(6) . . .
127(6) . . .
120(6) . . .
133(6) . . .
131(6) . . .
112(6) . . .
123(6) . . .
109(5) . . .
135(6) . . .
122(6) . . .
127(6) . . .
128(6) . . .
117(6) . . .
114(5) . . .
131(6) . . .
129(6) . . .
140(6) . . .
119(6) . . .
135(6) . . .
112(6) . . .
125(6) . . .
129(6) . . .
126(6) . . .
111(5) . . .
125(6) . . .
127(6) . . .
133(6) . . .
122(6) . . .
124(6) . . .
135(6) . . .
131(6) . . .
121(6) . . .
118(6) . . .
127(6) . . .
134(6) . . .
122(6) . . .
134(6) . . .
126(6) . . .
115(6) . . .
120(6) . . .
128(6) . . .
122(6) . . .
119(6) . . .
132(6) . . .
127(6) . . .
140(7) . . .
140(7) . . .
127(6) . . .
108(5) . . .
146(7) . . .
134(6) . . .
121(6) . . .
119(6) . . .
115(6) . . .
113(6) . . .
128(6) . . .
127(6) . . .
123(6) . . .
137(6) . . .
120(6) . . .
113(6) . . .
117(6) . . .
135(6) . . .
122(6) . . .
122(6) . . .
124(6) . . .
116(6) . . .
117(6) . . .
121(6) . . .
122(6) . . .
134(6) . . .
137(6) . . .
137(6) . . .
123(6) . . .
126(6) . . .
126(6) . . .
125(6) . . .
132(6) . . .
128(6) . . .
129(6) . . .
125(6) . . .
125(6) . . .
122(6) . . .
107(6) . . .
126(6) . . .
127(6) . . .
127(6) . . .
135(6) . . .
126(6) . . .
124(6) . . .
122(6) . . .
108(5) . . .
119(6) . . .
121(6) . . .
130(6) . . .
130(6) . . .
127(6) . . .
123(6) . . .
123(6) . . .
130(6) . . .
146(6) . . .
120(6) . . .
112(6) . . .
121(6) . . .
114(6) . . .
113(6) . . .
122(6) . . .
123(6) . . .
118(6) . . .
130(6) . . .
119(6) . . .
119(6) . . .
121(6) . . .
127(6) . . .
137(6) . . .
121(6) . . .
113(5) . . .
120(6) . . .
138(6) . . .
119(6) . . .
131(6) . . .
122(6) . . .
120(6) . . .
124(6) . . .
117(6) . . .
128(6) . . .
125(6) . . .
137(6) . . .
118(6) . . .
130(7) . . .
128(6) . . .
108(5) . . .
109(6) . . .
121(6) . . .
120(6) . . .
116(6) . . .
126(6) . . .
132(6) . . .
122(6) . . .
115(6) . . .
108(5) . . .
115(6) . . .
127(6) . . .
132(6) . . .
128(6) . . .
120(6) . . .
113(6) . . .
118(6) . . .
126(6) . . .
129(6) . . .
115(6) . . .
111(6) . . .
135(6) . . .
119(6) . . .
105(5) . . .
101(5) . . .
113(6) . . .
112(6) . . .
132(6) . . .
115(6) . . .
133(6) . . .
125(6) . . .
105(5) . . .
120(6) . . .
118(6) . . .
130(6) . . .
128(6) . . .
126(6) . . .
122(6) . . .
132(6) . . .
121(6) . . .
129(6) . . .
131(6) . . .
127(6) . . .
113(6) . . .
130(6) . . .
119(6) . . .
110(6) . . .
118(6) . . .
125(6) . . .
122(6) . . .
129(6) . . .
115(6) . . .
121(6) . . .
125(6) . . .
134(6) . . .
130(6) . . .
112(6) . . .
103(5) . . .
113(5) . . .
106(6) . . .
130(6) . . .
129(6) . . .
103(5) . . .
101(5) . . .
115(6) . . .
112(6) . . .
101(5) . . .
108(6) . . .
119(6) . . .
116(6) . . .
125(6) . . .
130(6) . . .
111(6) . . .
124(6) . . .
113(6) . . .
116(6) . . .
128(6) . . .
112(6) . . .
135(6) . . .
132(6) . . .
120(6) . . .
112(6) . . .
115(6) . . .
133(6) . . .
126(6) . . .
119(6) . . .
115(6) . . .
120(6) . . .
109(5) . . .
110(6) . . .
121(6) . . .
117(6) . . .
126(6) . . .
108(5) . . .
132(6) . . .
115(6) . . .
136(6) . . .
123(6) . . .
142(6) . . .
106(5) . . .
136(7) . . .
109(6) . . .
112(5) . . .
123(6) . . .
118(6) . . .
105(6) . . .
127(6) . . .
131(6) . . .
141(6) . . .
127(6) . . .
122(6) . . .
115(6) . . .
132(6) . . .
121(6) . . .
108(6) . . .
114(6) . . .
115(6) . . .
119(6) . . .
137(7) . . .
127(6) . . .
117(6) . . .
125(6) . . .
131(6) . . .
129(6) . . .
133(6) . . .
146(7) . . .
116(6) . . .
128(6) . . .
127(6) . . .
123(6) . . .
140(6) . . .
131(6) . . .
111(5) . . .
126(6) . . .
120(6) . . .
121(6) . . .
115(6) . . .
95(5) . . .
116(6) . . .
126(6) . . .
112(6) . . .
129(6) . . .
124(6) . . .
131(6) . . .
121(6) . . .
133(6) . . .
128(6) . . .
119(6) . . .
109(6) . . .
106(6) . . .
116(6) . . .
117(6) . . .
98(5) . . .
115(6) . . .
120(6) . . .
121(6) . . .
130(6) . . .
125(6) . . .
122(6) . . .
113(6) . . .
124(6) . . .
117(6) . . .
105(5) . . .
108(6) . . .
121(6) . . .
115(6) . . .
113(6) . . .
119(6) . . .
130(6) . . .
125(6) . . .
120(6) . . .
119(6) . . .
129(6) . . .
115(6) . . .
112(6) . . .
126(6) . . .
118(6) . . .
139(7) . . .
121(6) . . .
124(6) . . .
130(6) . . .
130(6) . . .
130(6) . . .
114(6) . . .
120(6) . . .
121(6) . . .
105(5) . . .
110(6) . . .
109(6) . . .
121(6) . . .
115(6) . . .
129(6) . . .
125(6) . . .
109(6) . . .
118(6) . . .
120(6) . . .
115(6) . . .
127(6) . . .
123(6) . . .
113(6) . . .
108(5) . . .
121(6) . . .
115(6) . . .
121(6) . . .
115(6) . . .
123(6) . . .
107(5) . . .
127(6) . . .
114(6) . . .
121(6) . . .
125(6) . . .
125(6) . . .
121(6) . . .
112(6) . . .
109(6) . . .
118(6) . . .
127(6) . . .
121(6) . . .
125(6) . . .
120(6) . . .
112(5) . . .
127(6) . . .
131(6) . . .
123(6) . . .
116(6) . . .
128(6) . . .
120(6) . . .
130(6) . . .
115(6) . . .
130(6) . . .
127(6) . . .
133(6) . . .
123(6) . . .
128(6) . . .
125(6) . . .
110(5) . . .
125(6) . . .
114(6) . . .
122(6) . . .
125(6) . . .
134(6) . . .
123(6) . . .
120(6) . . .
126(6) . . .
127(6) . . .
112(5) . . .
122(6) . . .
114(6) . . .
116(6) . . .
132(6) . . .
119(6) . . .
128(6) . . .
121(6) . . .
124(6) . . .
127(6) . . .
134(6) . . .
132(6) . . .
141(7) . . .
124(6) . . .
121(6) . . .
120(6) . . .
124(6) . . .
114(6) . . .
110(6) . . .
115(6) . . .
131(6) . . .
120(6) . . .
144(7) . . .
117(6) . . .
129(6) . . .
102(5) . . .
127(6) . . .
133(6) . . .
127(6) . . .
119(6) . . .
116(6) . . .
129(6) . . .
125(6) . . .
125(6) . . .
125(6) . . .
138(7) . . .
114(6) . . .
120(6) . . .
116(6) . . .
121(6) . . .
130(6) . . .
145(7) . . .
122(6) . . .
118(6) . . .
119(6) . . .
125(6) . . .
111(6) . . .
122(6) . . .
120(6) . . .
112(5) . . .
127(6) . . .
134(7) . . .
136(6) . . .
115(6) . . .
119(6) . . .
119(6) . . .
132(7) . . .
116(6) . . .
127(6) . . .
132(6) . . .
127(6) . . .
119(6) . . .
133(6) . . .
117(6) . . .
131(6) . . .
109(6) . . .
112(6) . . .
114(6) . . .
124(6) . . .
105(5) . . .
108(6) . . .
125(6) . . .
126(6) . . .
118(6) . . .
126(6) . . .
112(6) . . .
118(6) . . .
123(6) . . .
111(5) . . .
121(6) . . .
119(6) . . .
130(6) . . .
115(6) . . .
121(6) . . .
115(6) . . .
120(6) . . .
139(6) . . .
118(6) . . .
119(6) . . .
131(6) . . .
142(7) . . .
128(6) . . .
111(5) . . .
117(6) . . .
113(6) . . .
110(6) . . .
116(6) . . .
121(6) . . .
108(5) . . .
113(6) . . .
124(6) . . .
128(6) . . .
119(6) . . .
116(6) . . .
126(6) . . .
138(7) . . .
119(6) . . .
118(6) . . .
117(6) . . .
117(6) . . .
133(7) . . .
106(5) . . .
122(6) . . .
106(6) . . .
121(6) . . .
130(6) . . .
116(6) . . .
121(6) . . .
120(6) . . .
112(6) . . .
112(6) . . .
121(6) . . .
117(6) . . .
126(6) . . .
117(6) . . .
108(5) . . .
118(6) . . .
112(5) . . .
109(5) . . .
109(6) . . .
115(6) . . .
112(6) . . .
113(6) . . .
118(6) . . .
96(5) . . .
115(6) . . .
122(6) . . .
118(6) . . .
107(6) . . .
114(6) . . .
130(6) . . .
114(6) . . .
102(5) . . .
114(6) . . .
124(6) . . .
121(6) . . .
124(6) . . .
109(5) . . .
122(6) . . .
132(6) . . .
109(6) . . .
109(5) . . .
110(5) . . .
144(7) . . .
134(6) . . .
110(6) . . .
118(6) . . .
105(5) . . .
122(6) . . .
125(6) . . .
119(6) . . .
125(6) . . .
117(6) . . .
132(6) . . .
137(6) . . .
125(6) . . .
108(5) . . .
114(6) . . .
118(6) . . .
120(6) . . .
123(6) . . .
119(6) . . .
131(6) . . .
104(6) . . .
112(6) . . .
111(6) . . .
117(6) . . .
109(6) . . .
121(6) . . .
119(6) . . .
112(6) . . .
122(6) . . .
131(6) . . .
114(6) . . .
123(6) . . .
116(6) . . .
115(6) . . .
119(6) . . .
116(6) . . .
122(6) . . .
114(6) . . .
116(6) . . .
112(6) . . .
107(6) . . .
127(6) . . .
136(6) . . .
124(6) . . .
124(6) . . .
117(6) . . .
118(6) . . .
114(6) . . .
116(6) . . .
118(6) . . .
127(6) . . .
138(6) . . .
120(6) . . .
124(6) . . .
112(6) . . .
113(6) . . .
107(5) . . .
119(6) . . .
118(6) . . .
107(6) . . .
117(6) . . .
111(6) . . .
116(6) . . .
109(5) . . .
126(6) . . .
127(6) . . .
92(5) . . .
117(6) . . .
121(6) . . .
120(6) . . .
128(6) . . .
104(5) . . .
120(6) . . .
125(6) . . .
113(6) . . .
118(6) . . .
122(6) . . .
111(6) . . .
121(6) . . .
111(6) . . .
129(6) . . .
138(6) . . .
133(6) . . .
112(6) . . .
119(6) . . .
110(6) . . .
116(6) . . .
123(6) . . .
117(6) . . .
109(6) . . .
124(6) . . .
119(6) . . .
110(5) . . .
124(6) . . .
129(6) . . .
123(6) . . .
116(6) . . .
101(5) . . .
122(6) . . .
128(6) . . .
132(6) . . .
116(6) . . .
122(6) . . .
119(6) . . .
120(6) . . .
131(6) . . .
117(6) . . .
107(6) . . .
109(6) . . .
113(6) . . .
112(6) . . .
130(6) . . .
118(6) . . .
121(6) . . .
117(6) . . .
117(6) . . .
113(6) . . .
114(6) . . .
122(6) . . .
129(6) . . .
127(6) . . .
106(5) . . .
116(6) . . .
129(6) . . .
116(6) . . .
127(6) . . .
116(6) . . .
127(6) . . .
118(6) . . .
131(7) . . .
108(5) . . .
120(6) . . .
118(6) . . .
127(6) . . .
120(6) . . .
115(6) . . .
112(5) . . .
125(6) . . .
104(6) . . .
104(5) . . .
122(6) . . .
122(6) . . .
106(5) . . .
114(6) . . .
118(6) . . .
120(6) . . .
124(6) . . .
110(6) . . .
106(6) . . .
110(6) . . .
126(6) . . .
123(6) . . .
104(5) . . .
110(6) . . .
125(6) . . .
118(6) . . .
110(5) . . .
120(6) . . .
129(6) . . .
115(6) . . .
98(5) . . .
109(6) . . .
113(6) . . .
122(6) . . .
123(6) . . .
128(6) . . .
127(6) . . .
106(5) . . .
124(6) . . .
117(6) . . .
119(6) . . .
119(6) . . .
122(6) . . .
108(6) . . .
116(6) . . .
127(6) . . .
136(6) . . .
124(6) . . .
122(6) . . .
113(6) . . .
125(6) . . .
125(6) . . .
115(6) . . .
120(6) . . .
123(6) . . .
128(6) . . .
113(6) . . .
126(6) . . .
139(6) . . .
115(6) . . .
111(5) . . .
129(6) . . .
122(6) . . .
127(6) . . .
115(6) . . .
118(6) . . .
125(6) . . .
109(6) . . .
114(6) . . .
110(6) . . .
115(6) . . .
111(6) . . .
125(6) . . .
129(6) . . .
131(6) . . .
111(6) . . .
110(6) . . .
112(6) . . .
127(6) . . .
117(6) . . .
110(6) . . .
120(6) . . .
135(6) . . .
127(6) . . .
114(6) . . .
121(6) . . .
121(6) . . .
112(6) . . .
112(6) . . .
109(5) . . .
105(5) . . .
111(6) . . .
117(6) . . .
107(5) . . .
105(5) . . .
108(6) . . .
115(6) . . .
99(5) . . .
114(6) . . .
115(6) . . .
122(6) . . .
110(6) . . .
116(6) . . .
119(6) . . .
124(6) . . .
125(6) . . .
102(5) . . .
109(6) . . .
119(6) . . .
125(6) . . .
113(6) . . .
114(6) . . .
119(6) . . .
108(5) . . .
101(5) . . .
120(6) . . .
118(6) . . .
110(6) . . .
119(6) . . .
107(5) . . .
116(6) . . .
125(6) . . .
113(6) . . .
115(6) . . .
132(6) . . .
130(6) . . .
115(6) . . .
113(6) . . .
113(5) . . .
107(5) . . .
122(6) . . .
111(6) . . .
109(5) . . .
100(5) . . .
114(6) . . .
104(5) . . .
116(6) . . .
115(6) . . .
110(5) . . .
123(6) . . .
118(6) . . .
108(6) . . .
106(5) . . .
135(6) . . .
128(6) . . .
116(6) . . .
130(6) . . .
125(6) . . .
123(6) . . .
111(6) . . .
113(6) . . .
112(6) . . .
118(6) . . .
107(5) . . .
104(5) . . .
123(6) . . .
132(6) . . .
123(6) . . .
122(6) . . .
97(5) . . .
116(6) . . .
112(6) . . .
120(6) . . .
116(6) . . .
106(6) . . .
101(5) . . .
114(6) . . .
109(5) . . .
107(5) . . .
129(6) . . .
119(6) . . .
120(6) . . .
114(5) . . .
112(5) . . .
112(6) . . .
118(6) . . .
118(6) . . .
116(6) . . .
109(5) . . .
117(6) . . .
124(6) . . .
108(6) . . .
102(5) . . .
117(6) . . .
110(6) . . .
112(6) . . .
102(6) . . .
107(5) . . .
121(6) . . .
116(6) . . .
112(6) . . .
97(5) . . .
107(5) . . .
108(6) . . .
107(6) . . .
109(6) . . .
104(6) . . .
108(5) . . .
113(6) . . .
109(6) . . .
119(6) . . .
108(5) . . .
103(5) . . .
105(5) . . .
106(6) . . .
123(6) . . .
119(6) . . .
114(5) . . .
120(6) . . .
110(6) . . .
100(5) . . .
118(6) . . .
122(6) . . .
117(6) . . .
106(6) . . .
118(6) . . .
117(6) . . .
116(6) . . .
113(6) . . .
111(6) . . .
127(6) . . .
127(6) . . .
113(6) . . .
123(6) . . .
117(6) . . .
121(6) . . .
126(6) . . .
113(6) . . .
128(6) . . .
121(6) . . .
115(6) . . .
121(6) . . .
119(6) . . .
114(6) . . .
115(6) . . .
132(6) . . .
112(6) . . .
105(5) . . .
124(6) . . .
116(6) . . .
131(6) . . .
118(6) . . .
117(6) . . .
119(6) . . .
123(6) . . .
122(6) . . .
118(6) . . .
130(6) . . .
123(6) . . .
114(6) . . .
125(6) . . .
112(6) . . .
124(6) . . .
106(6) . . .
118(6) . . .
97(5) . . .
119(6) . . .
116(6) . . .
118(6) . . .
134(6) . . .
124(6) . . .
113(6) . . .
114(6) . . .
111(6) . . .
109(6) . . .
112(5) . . .
115(6) . . .
107(5) . . .
115(6) . . .
106(6) . . .
103(5) . . .
110(5) . . .
103(6) . . .
112(6) . . .
110(6) . . .
112(5) . . .
128(6) . . .
128(6) . . .
112(6) . . .
116(6) . . .
116(6) . . .
129(6) . . .
112(6) . . .
122(6) . . .
110(6) . . .
115(6) . . .
121(6) . . .
124(6) . . .
114(6) . . .
107(5) . . .
134(6) . . .
96(5) . . .
112(6) . . .
113(6) . . .
104(5) . . .
102(5) . . .
110(6) . . .
105(6) . . .
109(6) . . .
110(6) . . .
114(6) . . .
107(6) . . .
115(6) . . .
100(5) . . .
117(6) . . .
118(6) . . .
109(6) . . .
118(6) . . .
112(6) . . .
107(6) . . .
113(6) . . .
114(6) . . .
119(6) . . .
119(6) . . .
128(6) . . .
111(5) . . .
113(6) . . .
114(6) . . .
114(6) . . .
111(6) . . .
109(5) . . .
114(6) . . .
100(5) . . .
118(6) . . .
103(5) . . .
106(5) . . .
99(5) . . .
108(6) . . .
113(6) . . .
107(5) . . .
117(6) . . .
116(6) . . .
132(6) . . .
122(6) . . .
111(5) . . .
113(6) . . .
102(5) . . .
117(6) . . .
115(6) . . .
108(5) . . .
111(6) . . .
124(6) . . .
102(5) . . .
122(6) . . .
120(6) . . .
122(6) . . .
112(6) . . .
111(6) . . .
113(6) . . .
113(5) . . .
116(6) . . .
121(6) . . .
109(5) . . .
113(6) . . .
127(6) . . .
123(6) . . .
118(6) . . .
114(6) . . .
120(6) . . .
109(5) . . .
100(6) . . .
108(6) . . .
111(6) . . .
115(6) . . .
106(5) . . .
110(6) . . .
108(6) . . .
114(6) . . .
115(6) . . .
109(5) . . .
108(5) . . .
117(6) . . .
106(6) . . .
109(5) . . .
104(5) . . .
108(5) . . .
130(6) . . .
118(6) . . .
118(6) . . .
117(6) . . .
113(6) . . .
96(5) . . .
108(6) . . .
95(5) . . .
103(5) . . .
102(5) . . .
110(6) . . .
117(6) . . .
112(5) . . .
107(6) . . .
98(5) . . .
106(5) . . .
112(6) . . .
106(5) . . .
115(6) . . .
113(6) . . .
106(6) . . .
120(6) . . .
110(5) . . .
112(6) . . .
117(6) . . .
105(6) . . .
113(6) . . .
115(6) . . .
121(6) . . .
117(6) . . .
113(6) . . .
113(6) . . .
115(6) . . .
109(5) . . .
103(5) . . .
112(6) . . .
123(6) . . .
125(6) . . .
111(6) . . .
108(6) . . .
105(5) . . .
118(6) . . .
117(6) . . .
112(6) . . .
113(6) . . .
128(6) . . .
94(5) . . .
100(5) . . .
110(6) . . .
119(6) . . .
106(6) . . .
100(5) . . .
93(5) . . .
117(6) . . .
122(6) . . .
123(6) . . .
116(6) . . .
109(5) . . .
109(6) . . .
101(5) . . .
107(6) . . .
105(5) . . .
117(6) . . .
119(6) . . .
108(6) . . .
114(6) . . .
110(5) . . .
103(5) . . .
117(6) . . .
122(6) . . .
108(6) . . .
102(5) . . .
97(5) . . .
98(5) . . .
121(6) . . .
107(5) . . .
110(5) . . .
106(6) . . .
111(6) . . .
108(5) . . .
124(6) . . .
122(6) . . .
112(6) . . .
105(5) . . .
116(6) . . .
101(5) . . .
104(5) . . .
106(5) . . .
101(5) . . .
135(6) . . .
119(6) . . .
100(5) . . .
115(6) . . .
116(6) . . .
107(5) . . .
111(6) . . .
112(6) . . .
124(6) . . .
102(6) . . .
102(5) . . .
129(6) . . .
119(6) . . .
116(6) . . .
112(6) . . .
98(5) . . .
106(5) . . .
124(6) . . .
109(6) . . .
104(6) . . .
102(5) . . .
122(6) . . .
112(6) . . .
102(5) . . .
106(6) . . .
107(6) . . .
118(6) . . .
113(6) . . .
112(6) . . .
98(5) . . .
107(6) . . .
116(6) . . .
104(5) . . .
106(5) . . .
128(6) . . .
129(6) . . .
116(6) . . .
105(5) . . .
96(5) . . .
115(6) . . .
103(5) . . .
101(5) . . .
103(6) . . .
99(5) . . .
108(6) . . .
105(5) . . .
110(5) . . .
119(6) . . .
110(6) . . .
113(6) . . .
112(6) . . .
117(6) . . .
112(5) . . .
118(6) . . .
119(6) . . .
113(6) . . .
128(6) . . .
107(6) . . .
104(6) . . .
119(6) . . .
109(5) . . .
100(5) . . .
99(5) . . .
102(6) . . .
115(6) . . .
135(6) . . .
113(6) . . .
116(6) . . .
98(6) . . .
102(5) . . .
118(6) . . .
114(6) . . .
117(6) . . .
116(6) . . .
119(6) . . .
126(6) . . .
117(6) . . .
114(6) . . .
109(6) . . .
117(6) . . .
117(6) . . .
101(5) . . .
107(6) . . .
107(6) . . .
105(6) . . .
107(5) . . .
131(6) . . .
122(6) . . .
111(6) . . .
104(5) . . .
105(5) . . .
92(5) . . .
93(5) . . .
115(6) . . .
112(5) . . .
108(6) . . .
105(6) . . .
110(6) . . .
108(6) . . .
98(5) . . .
106(5) . . .
115(6) . . .
94(5) . . .
110(6) . . .
124(6) . . .
112(6) . . .
124(6) . . .
128(6) . . .
115(6) . . .
116(6) . . .
113(6) . . .
106(6) . . .
113(6) . . .
121(6) . . .
109(5) . . .
102(5) . . .
126(6) . . .
121(6) . . .
125(6) . . .
119(6) . . .
123(6) . . .
103(5) . . .
114(6) . . .
113(6) . . .
115(6) . . .
110(5) . . .
100(5) . . .
97(5) . . .
110(6) . . .
102(5) . . .
115(6) . . .
106(5) . . .
113(6) . . .
99(5) . . .
113(6) . . .
107(5) . . .
133(6) . . .
93(5) . . .
116(6) . . .
124(6) . . .
112(6) . . .
104(6) . . .
113(6) . . .
108(6) . . .
119(6) . . .
121(6) . . .
115(6) . . .
118(6) . . .
123(6) . . .
121(6) . . .
106(6) . . .
98(6) . . .
114(6) . . .
112(6) . . .
116(6) . . .
119(6) . . .
106(6) . . .
130(6) . . .
112(5) . . .
118(6) . . .
127(6) . . .
112(6) . . .
107(6) . . .
112(6) . . .
105(5) . . .
118(6) . . .
116(6) . . .
105(5) . . .
115(6) . . .
114(6) . . .
113(6) . . .
104(6) . . .
107(5) . . .
123(6) . . .
109(5) . . .
99(5) . . .
95(5) . . .
98(5) . . .
111(5) . . .
109(5) . . .
105(6) . . .
102(6) . . .
103(5) . . .
107(5) . . .
119(6) . . .
110(6) . . .
111(6) . . .
112(6) . . .
101(5) . . .
116(6) . . .
117(6) . . .
120(6) . . .
116(6) . . .
85(5) . . .
112(6) . . .
115(6) . . .
111(6) . . .
112(5) . . .
113(6) . . .
92(5) . . .
106(6) . . .
114(6) . . .
107(5) . . .
97(5) . . .
99(5) . . .
119(6) . . .
112(6) . . .
106(5) . . .
120(6) . . .
108(6) . . .
114(6) . . .
115(6) . . .
114(6) . . .
119(6) . . .
121(6) . . .
105(6) . . .
97(5) . . .
114(6) . . .
106(5) . . .
109(6) . . .
98(5) . . .
105(5) . . .
113(6) . . .
105(5) . . .
116(6) . . .
105(6) . . .
137(6) . . .
125(6) . . .
103(5) . . .
105(5) . . .
122(6) . . .
105(5) . . .
113(6) . . .
116(6) . . .
97(5) . . .
109(6) . . .
115(6) . . .
108(5) . . .
110(6) . . .
101(5) . . .
119(6) . . .
103(5) . . .
104(5) . . .
109(6) . . .
109(6) . . .
105(6) . . .
117(6) . . .
118(6) . . .
106(6) . . .
117(6) . . .
98(5) . . .
102(5) . . .
116(6) . . .
116(6) . . .
109(6) . . .
111(6) . . .
116(6) . . .
102(5) . . .
110(6) . . .
126(6) . . .
115(6) . . .
104(5) . . .
96(5) . . .
99(5) . . .
114(6) . . .
111(6) . . .
121(6) . . .
103(5) . . .
116(6) . . .
109(6) . . .
104(5) . . .
110(5) . . .
89(5) . . .
109(6) . . .
109(6) . . .
106(6) . . .
108(5) . . .
94(5) . . .
107(6) . . .
101(5) . . .
110(6) . . .
111(5) . . .
115(6) . . .
118(6) . . .
100(6) . . .
97(5) . . .
120(6) . . .
115(6) . . .
104(6) . . .
100(5) . . .
103(5) . . .
101(5) . . .
96(5) . . .
118(6) . . .
103(6) . . .
104(5) . . .
117(6) . . .
107(6) . . .
97(6) . . .
118(6) . . .
114(6) . . .
103(5) . . .
109(6) . . .
119(6) . . .
115(6) . . .
97(5) . . .
127(6) . . .
121(6) . . .
99(5) . . .
120(6) . . .
123(6) . . .
117(6) . . .
103(5) . . .
113(6) . . .
112(6) . . .
101(5) . . .
96(5) . . .
112(6) . . .
104(6) . . .
107(6) . . .
106(5) . . .
101(5) . . .
114(6) . . .
125(6) . . .
106(6) . . .
88(5) . . .
99(5) . . .
95(5) . . .
100(5) . . .
99(5) . . .
108(5) . . .
97(5) . . .
117(6) . . .
114(6) . . .
96(5) . . .
114(6) . . .
114(6) . . .
106(6) . . .
109(6) . . .
93(5) . . .
110(6) . . .
108(6) . . .
107(6) . . .
101(5) . . .
94(5) . . .
108(5) . . .
103(5) . . .
118(6) . . .
112(6) . . .
116(6) . . .
110(5) . . .
109(6) . . .
110(6) . . .
102(5) . . .
112(6) . . .
105(5) . . .
100(5) . . .
98(5) . . .
101(5) . . .
114(6) . . .
123(6) . . .
100(5) . . .
107(6) . . .
99(5) . . .
104(5) . . .
109(5) . . .
106(5) . . .
117(6) . . .
112(6) . . .
97(5) . . .
94(5) . . .
117(6) . . .
109(6) . . .
109(6) . . .
114(5) . . .
112(6) . . .
111(6) . . .
109(6) . . .
114(6) . . .
105(5) . . .
108(5) . . .
104(6) . . .
97(5) . . .
103(5) . . .
109(5) . . .
108(5) . . .
107(6) . . .
99(5) . . .
106(6) . . .
118(6) . . .
99(5) . . .
116(6) . . .
109(6) . . .
106(6) . . .
105(5) . . .
92(5) . . .
106(6) . . .
111(6) . . .
109(5) . . .
105(5) . . .
103(6) . . .
107(6) . . .
111(6) . . .
97(5) . . .
117(6) . . .
116(6) . . .
108(6) . . .
117(6) . . .
102(5) . . .
109(5) . . .
116(6) . . .
105(6) . . .
107(6) . . .
111(6) . . .
115(6) . . .
99(5) . . .
90(5) . . .
94(5) . . .
100(5) . . .
113(6) . . .
116(6) . . .
102(5) . . .
109(6) . . .
108(5) . . .
113(6) . . .
107(6) . . .
102(6) . . .
114(6) . . .
103(5) . . .
103(5) . . .
110(6) . . .
110(6) . . .
122(6) . . .
111(6) . . .
114(6) . . .
133(6) . . .
115(6) . . .
111(6) . . .
107(5) . . .
106(5) . . .
113(6) . . .
92(5) . . .
108(6) . . .
111(6) . . .
98(5) . . .
116(6) . . .
111(6) . . .
109(6) . . .
113(5) . . .
115(6) . . .
104(6) . . .
103(5) . . .
113(6) . . .
112(5) . . .
104(5) . . .
95(5) . . .
109(6) . . .
106(5) . . .
98(5) . . .
101(5) . . .
100(6) . . .
105(5) . . .
129(6) . . .
107(5) . . .
110(6) . . .
107(6) . . .
109(6) . . .
93(5) . . .
117(6) . . .
107(6) . . .
97(5) . . .
104(6) . . .
116(6) . . .
108(5) . . .
129(6) . . .
117(6) . . .
99(5) . . .
116(6) . . .
109(5) . . .
98(5) . . .
114(6) . . .
98(5) . . .
125(6) . . .
118(6) . . .
96(5) . . .
113(6) . . .
102(5) . . .
109(5) . . .
101(5) . . .
103(5) . . .
100(5) . . .
100(5) . . .
105(5) . . .
96(5) . . .
112(6) . . .
110(6) . . .
103(5) . . .
100(5) . . .
112(6) . . .
95(5) . . .
105(6) . . .
91(5) . . .
98(5) . . .
109(6) . . .
100(5) . . .
128(6) . . .
104(5) . . .
106(5) . . .
98(5) . . .
109(6) . . .
99(5) . . .
105(5) . . .
112(5) . . .
120(6) . . .
101(5) . . .
115(6) . . .
110(5) . . .
112(5) . . .
110(6) . . .
95(5) . . .
102(6) . . .
98(5) . . .
99(5) . . .
110(6) . . .
102(6) . . .
92(5) . . .
105(5) . . .
108(5) . . .
118(6) . . .
101(5) . . .
112(6) . . .
100(5) . . .
108(6) . . .
106(6) . . .
112(6) . . .
101(5) . . .
102(5) . . .
113(6) . . .
101(5) . . .
101(5) . . .
97(5) . . .
107(5) . . .
115(6) . . .
114(6) . . .
111(5) . . .
111(6) . . .
104(5) . . .
97(5) . . .
112(6) . . .
117(6) . . .
107(5) . . .
114(6) . . .
116(6) . . .
111(6) . . .
91(5) . . .
87(5) . . .
109(5) . . .
110(6) . . .
107(6) . . .
116(6) . . .
110(5) . . .
95(5) . . .
111(6) . . .
119(6) . . .
99(5) . . .
102(5) . . .
117(6) . . .
109(6) . . .
98(5) . . .
105(6) . . .
108(5) . . .
106(5) . . .
117(6) . . .
109(6) . . .
104(6) . . .
111(5) . . .
107(6) . . .
106(5) . . .
111(6) . . .
113(6) . . .
115(6) . . .
111(5) . . .
102(5) . . .
109(6) . . .
107(6) . . .
110(5) . . .
95(5) . . .
116(6) . . .
102(5) . . .
101(5) . . .
106(5) . . .
112(6) . . .
112(6) . . .
106(5) . . .
107(5) . . .
91(5) . . .
107(6) . . .
127(6) . . .
125(6) . . .
118(6) . . .
97(5) . . .
103(5) . . .
98(5) . . .
117(6) . . .
112(6) . . .
118(6) . . .
124(6) . . .
114(6) . . .
113(6) . . .
107(5) . . .
87(5) . . .
105(6) . . .
100(6) . . .
116(6) . . .
109(5) . . .
110(6) . . .
112(6) . . .
127(6) . . .
111(6) . . .
117(6) . . .
102(5) . . .
112(6) . . .
116(6) . . .
106(5) . . .
102(5) . . .
119(6) . . .
106(6) . . .
104(6) . . .
96(5) . . .
123(6) . . .
99(5) . . .
99(5) . . .
106(6) . . .
114(6) . . .
111(5) . . .
99(5) . . .
119(6) . . .
105(6) . . .
116(6) . . .
104(5) . . .
117(6) . . .
108(6) . . .
106(6) . . .
111(6) . . .
110(5) . . .
117(6) . . .
114(6) . . .
107(6) . . .
122(6) . . .
96(5) . . .
98(5) . . .
108(6) . . .
104(5) . . .
116(6) . . .
110(5) . . .
89(5) . . .
98(6) . . .
105(5) . . .
93(5) . . .
99(5) . . .
113(6) . . .
109(6) . . .
90(5) . . .
108(5) . . .
100(5) . . .
108(6) . . .
103(6) . . .
111(6) . . .
109(5) . . .
117(6) . . .
116(6) . . .
98(5) . . .
95(5) . . .
107(5) . . .
108(6) . . .
107(6) . . .
123(6) . . .
103(5) . . .
95(5) . . .
91(5) . . .
111(6) . . .
115(6) . . .
99(5) . . .
102(5) . . .
108(5) . . .
112(6) . . .
119(6) . . .
111(6) . . .
105(5) . . .
93(5) . . .
90(5) . . .
100(5) . . .
115(6) . . .
109(5) . . .
110(6) . . .
111(6) . . .
102(5) . . .
101(5) . . .
105(5) . . .
101(5) . . .
111(6) . . .
99(5) . . .
108(5) . . .
116(6) . . .
118(6) . . .
101(5) . . .
115(6) . . .
103(5) . . .
122(6) . . .
109(6) . . .
98(5) . . .
99(5) . . .
108(5) . . .
93(5) . . .
106(5) . . .
104(6) . . .
99(6) . . .
112(6) . . .
89(5) . . .
95(5) . . .
101(5) . . .
117(6) . . .
108(5) . . .
112(6) . . .
111(6) . . .
110(6) . . .
115(6) . . .
97(5) . . .
103(5) . . .
103(6) . . .
121(6) . . .
109(6) . . .
116(6) . . .
102(5) . . .
101(5) . . .
108(6) . . .
108(6) . . .
123(6) . . .
107(6) . . .
101(6) . . .
99(5) . . .
113(5) . . .
93(5) . . .
94(5) . . .
109(6) . . .
106(6) . . .
99(5) . . .
110(6) . . .
113(6) . . .
118(6) . . .
114(6) . . .
110(6) . . .
98(5) . . .
126(6) . . .
110(6) . . .
101(5) . . .
98(5) . . .
114(6) . . .
106(5) . . .
107(6) . . .
99(5) . . .
112(6) . . .
104(5) . . .
100(5) . . .
97(6) . . .
102(6) . . .
97(5) . . .
97(5) . . .
100(5) . . .
106(6) . . .
117(6) . . .
108(5) . . .
106(5) . . .
111(6) . . .
107(6) . . .
98(5) . . .
108(5) . . .
107(5) . . .
103(6) . . .
94(6) . . .
98(5) . . .
110(5) . . .
120(6) . . .
105(5) . . .
108(6) . . .
102(5) . . .
114(6) . . .
108(6) . . .
110(6) . . .
120(6) . . .
104(5) . . .
93(5) . . .
98(5) . . .
101(5) . . .
115(6) . . .
98(5) . . .
98(5) . . .
116(6) . . .
102(5) . . .
103(5) . . .
105(5) . . .
104(5) . . .
104(5) . . .
104(6) . . .
102(6) . . .
100(5) . . .
96(5) . . .
98(5) . . .
88(5) . . .
99(5) . . .
107(5) . . .
112(5) . . .
97(5) . . .
111(6) . . .
100(5) . . .
113(6) . . .
103(5) . . .
113(6) . . .
106(6) . . .
102(5) . . .
98(5) . . .
91(5) . . .
103(6) . . .
98(5) . . .
111(6) . . .
124(6) . . .
102(5) . . .
104(5) . . .
112(6) . . .
102(5) . . .
109(5) . . .
107(5) . . .
106(5) . . .
106(6) . . .
104(6) . . .
117(6) . . .
106(5) . . .
108(6) . . .
103(6) . . .
102(5) . . .
113(6) . . .
96(5) . . .
92(5) . . .
100(5) . . .
89(5) . . .
93(5) . . .
111(6) . . .
105(6) . . .
99(5) . . .
118(6) . . .
110(5) . . .
106(6) . . .
99(6) . . .
106(6) . . .
96(5) . . .
97(5) . . .
96(5) . . .
108(6) . . .
94(5) . . .
110(5) . . .
102(5) . . .
92(5) . . .
106(6) . . .
93(5) . . .
94(5) . . .
114(6) . . .
118(6) . . .
109(6) . . .
111(6) . . .
111(6) . . .
122(6) . . .
89(5) . . .
100(6) . . .
104(5) . . .
106(5) . . .
101(5) . . .
99(5) . . .
100(5) . . .
99(5) . . .
111(5) . . .
108(5) . . .
107(6) . . .
105(6) . . .
116(6) . . .
97(5) . . .
102(5) . . .
100(5) . . .
107(6) . . .
114(6) . . .
103(5) . . .
103(5) . . .
102(6) . . .
107(6) . . .
103(5) . . .
106(5) . . .
102(5) . . .
114(6) . . .
104(5) . . .
98(5) . . .
90(5) . . .
98(5) . . .
100(6) . . .
103(5) . . .
108(5) . . .
93(5) . . .
91(5) . . .
102(6) . . .
100(5) . . .
113(6) . . .
96(5) . . .
107(6) . . .
106(6) . . .
105(6) . . .
105(5) . . .
96(5) . . .
102(5) . . .
103(6) . . .
99(5) . . .
115(6) . . .
112(6) . . .
94(5) . . .
112(6) . . .
100(5) . . .
101(5) . . .
112(6) . . .
108(6) . . .
99(5) . . .
113(6) . . .
107(5) . . .
90(5) . . .
106(6) . . .
104(5) . . .
112(6) . . .
100(5) . . .
96(5) . . .
97(5) . . .
98(6) . . .
99(5) . . .
98(5) . . .
110(6) . . .
104(6) . . .
104(5) . . .
121(6) . . .
107(5) . . .
110(6) . . .
96(5) . . .
97(5) . . .
94(5) . . .
92(5) . . .
112(6) . . .
112(6) . . .
107(5) . . .
114(6) . . .
100(5) . . .
93(5) . . .
99(5) . . .
105(6) . . .
102(5) . . .
97(5) . . .
116(6) . . .
114(6) . . .
93(5) . . .
93(5) . . .
102(5) . . .
105(5) . . .
87(5) . . .
105(5) . . .
118(6) . . .
102(5) . . .
108(6) . . .
102(5) . . .
102(5) . . .
103(5) . . .
99(5) . . .
97(5) . . .
104(6) . . .
98(5) . . .
101(5) . . .
90(5) . . .
100(5) . . .
106(6) . . .
115(6) . . .
103(5) . . .
102(5) . . .
105(6) . . .
101(5) . . .
109(6) . . .
96(5) . . .
90(5) . . .
103(6) . . .
101(5) . . .
115(6) . . .
104(5) . . .
99(5) . . .
99(5) . . .
113(6) . . .
120(6) . . .
98(5) . . .
108(6) . . .
104(5) . . .
110(6) . . .
109(5) . . .
105(5) . . .
98(5) . . .
94(5) . . .
107(5) . . .
107(5) . . .
111(5) . . .
113(6) . . .
112(6) . . .
98(5) . . .
106(6) . . .
96(5) . . .
102(5) . . .
111(6) . . .
109(6) . . .
102(5) . . .
111(5) . . .
105(6) . . .
88(5) . . .
93(5) . . .
82(5) . . .
105(5) . . .
98(5) . . .
96(5) . . .
119(6) . . .
95(5) . . .
107(5) . . .
100(5) . . .
90(5) . . .
89(5) . . .
92(5) . . .
96(5) . . .
106(5) . . .
106(6) . . .
101(5) . . .
104(5) . . .
84(5) . . .
89(5) . . .
96(5) . . .
99(5) . . .
103(5) . . .
101(5) . . .
98(5) . . .
98(5) . . .
111(6) . . .
108(5) . . .
96(5) . . .
95(5) . . .
96(5) . . .
95(5) . . .
110(5) . . .
108(6) . . .
97(5) . . .
100(5) . . .
89(5) . . .
97(5) . . .
93(5) . . .
99(6) . . .
104(5) . . .
103(5) . . .
101(5) . . .
95(5) . . .
113(6) . . .
110(6) . . .
101(5) . . .
98(5) . . .
103(5) . . .
99(6) . . .
102(5) . . .
98(5) . . .
97(5) . . .
89(5) . . .
94(5) . . .
92(5) . . .
92(5) . . .
108(5) . . .
115(6) . . .
103(6) . . .
106(6) . . .
95(5) . . .
100(5) . . .
103(5) . . .
91(5) . . .
88(5) . . .
105(5) . . .
96(5) . . .
105(6) . . .
83(5) . . .
94(5) . . .
102(5) . . .
122(6) . . .
94(5) . . .
97(5) . . .
100(5) . . .
88(5) . . .
89(5) . . .
110(6) . . .
108(5) . . .
97(5) . . .
92(5) . . .
98(5) . . .
109(6) . . .
99(5) . . .
115(6) . . .
95(5) . . .
105(6) . . .
84(5) . . .
84(5) . . .
94(5) . . .
91(5) . . .
110(6) . . .
103(6) . . .
115(6) . . .
115(5) . . .
103(5) . . .
92(5) . . .
103(6) . . .
99(5) . . .
94(5) . . .
99(5) . . .
98(5) . . .
103(6) . . .
95(5) . . .
98(5) . . .
96(5) . . .
95(5) . . .
97(5) . . .
95(5) . . .
105(5) . . .
97(5) . . .
109(6) . . .
102(6) . . .
102(5) . . .
114(6) . . .
104(5) . . .
124(6) . . .
99(5) . . .
100(5) . . .
103(5) . . .
102(5) . . .
114(6) . . .
124(6) . . .
88(5) . . .
82(5) . . .
98(5) . . .
105(6) . . .
94(5) . . .
102(5) . . .
100(5) . . .
95(5) . . .
91(5) . . .
95(5) . . .
113(6) . . .
105(5) . . .
107(6) . . .
94(5) . . .
95(5) . . .
102(5) . . .
93(5) . . .
99(6) . . .
107(6) . . .
97(5) . . .
94(5) . . .
119(6) . . .
94(5) . . .
103(6) . . .
92(5) . . .
91(5) . . .
92(5) . . .
93(5) . . .
104(5) . . .
99(5) . . .
108(5) . . .
99(5) . . .
100(5) . . .
95(5) . . .
106(6) . . .
92(5) . . .
97(5) . . .
109(6) . . .
109(6) . . .
85(5) . . .
96(5) . . .
114(6) . . .
107(5) . . .
110(6) . . .
102(6) . . .
102(5) . . .
106(5) . . .
103(6) . . .
88(5) . . .
93(5) . . .
96(5) . . .
105(5) . . .
87(5) . . .
93(5) . . .
86(5) . . .
93(5) . . .
99(5) . . .
104(6) . . .
95(5) . . .
107(5) . . .
111(5) . . .
108(5) . . .
106(6) . . .
96(5) . . .
100(5) . . .
92(5) . . .
106(5) . . .
98(5) . . .
109(6) . . .
101(5) . . .
112(6) . . .
106(6) . . .
94(6) . . .
101(6) . . .
103(5) . . .
105(5) . . .
99(5) . . .
81(5) . . .
106(6) . . .
101(5) . . .
107(5) . . .
119(6) . . .
83(5) . . .
97(5) . . .
97(5) . . .
102(5) . . .
112(6) . . .
102(6) . . .
95(5) . . .
100(5) . . .
115(6) . . .
97(5) . . .
91(5) . . .
112(6) . . .
92(5) . . .
104(6) . . .
107(6) . . .
98(5) . . .
104(6) . . .
109(5) . . .
102(5) . . .
110(6) . . .
107(6) . . .
85(5) . . .
106(5) . . .
102(5) . . .
99(6) . . .
99(5) . . .
95(5) . . .
87(5) . . .
90(5) . . .
109(6) . . .
109(6) . . .
109(6) . . .
91(5) . . .
108(6) . . .
99(5) . . .
96(5) . . .
83(5) . . .
89(5) . . .
104(5) . . .
91(5) . . .
103(5) . . .
103(5) . . .
99(5) . . .
104(6) . . .
83(5) . . .
96(5) . . .
99(5) . . .
97(5) . . .
96(5) . . .
96(5) . . .
88(5) . . .
101(5) . . .
112(5) . . .
105(5) . . .
98(5) . . .
103(5) . . .
95(5) . . .
104(5) . . .
93(5) . . .
109(6) . . .
93(5) . . .
100(5) . . .
104(5) . . .
99(5) . . .
91(5) . . .
99(5) . . .
102(5) . . .
79(5) . . .
106(6) . . .
95(5) . . .
102(5) . . .
88(5) . . .
87(5) . . .
89(5) . . .
110(6) . . .
108(5) . . .
94(5) . . .
99(5) . . .
107(6) . . .
94(5) . . .
103(5) . . .
105(5) . . .
107(6) . . .
92(5) . . .
104(5) . . .
112(6) . . .
102(5) . . .
87(5) . . .
95(6) . . .
100(5) . . .
95(5) . . .
95(5) . . .
97(5) . . .
107(6) . . .
100(5) . . .
95(5) . . .
92(5) . . .
96(5) . . .
109(6) . . .
98(5) . . .
94(5) . . .
97(5) . . .
88(5) . . .
99(6) . . .
96(5) . . .
100(5) . . .
98(5) . . .
98(5) . . .
98(6) . . .
93(5) . . .
100(5) . . .
100(5) . . .
90(5) . . .
89(5) . . .
94(5) . . .
116(6) . . .
103(5) . . .
96(5) . . .
116(6) . . .
108(5) . . .
109(5) . . .
89(5) . . .
109(6) . . .
88(5) . . .
101(5) . . .
97(5) . . .
98(5) . . .
98(5) . . .
104(5) . . .
98(5) . . .
99(5) . . .
111(6) . . .
96(5) . . .
89(5) . . .
102(5) . . .
109(5) . . .
101(6) . . .
99(6) . . .
100(5) . . .
95(5) . . .
115(6) . . .
99(5) . . .
94(5) . . .
104(6) . . .
99(5) . . .
107(5) . . .
89(5) . . .
101(6) . . .
104(5) . . .
90(5) . . .
103(5) . . .
90(5) . . .
83(5) . . .
90(5) . . .
94(5) . . .
107(5) . . .
101(5) . . .
102(6) . . .
100(5) . . .
115(6) . . .
77(5) . . .
83(5) . . .
110(6) . . .
91(5) . . .
97(5) . . .
104(5) . . .
97(5) . . .
90(5) . . .
102(5) . . .
101(5) . . .
96(5) . . .
102(6) . . .
96(5) . . .
117(6) . . .
100(5) . . .
91(5) . . .
87(5) . . .
90(5) . . .
77(5) . . .
94(5) . . .
89(5) . . .
93(5) . . .
95(5) . . .
100(5) . . .
84(5) . . .
92(5) . . .
96(5) . . .
107(6) . . .
100(5) . . .
93(5) . . .
82(5) . . .
85(5) . . .
98(5) . . .
91(5) . . .
93(5) . . .
93(5) . . .
109(6) . . .
99(6) . . .
96(5) . . .
109(5) . . .
105(5) . . .
97(5) . . .
97(5) . . .
90(5) . . .
103(5) . . .
87(5) . . .
91(5) . . .
83(5) . . .
89(5) . . .
100(5) . . .
96(5) . . .
97(5) . . .
99(5) . . .
91(5) . . .
91(5) . . .
89(5) . . .
87(5) . . .
92(5) . . .
103(5) . . .
96(5) . . .
91(5) . . .
99(5) . . .
105(5) . . .
80(5) . . .
101(5) . . .
88(5) . . .
100(5) . . .
96(5) . . .
105(5) . . .
99(5) . . .
89(5) . . .
93(5) . . .
83(5) . . .
90(5) . . .
103(6) . . .
101(6) . . .
104(6) . . .
98(5) . . .
94(5) . . .
97(5) . . .
100(6) . . .
95(5) . . .
104(5) . . .
98(5) . . .
95(5) . . .
104(6) . . .
103(6) . . .
106(5) . . .
93(5) . . .
99(5) . . .
95(5) . . .
108(6) . . .
92(5) . . .
95(5) . . .
113(6) . . .
108(6) . . .
106(6) . . .
93(5) . . .
91(5) . . .
90(5) . . .
94(5) . . .
101(5) . . .
105(5) . . .
104(5) . . .
91(5) . . .
101(6) . . .
101(5) . . .
100(5) . . .
82(5) . . .
100(5) . . .
96(5) . . .
100(5) . . .
90(5) . . .
94(5) . . .
99(5) . . .
102(5) . . .
99(5) . . .
104(5) . . .
99(5) . . .
94(5) . . .
86(5) . . .
93(5) . . .
109(5) . . .
104(5) . . .
96(5) . . .
103(5) . . .
112(5) . . .
106(5) . . .
98(5) . . .
90(5) . . .
99(5) . . .
95(5) . . .
106(5) . . .
94(5) . . .
86(5) . . .
81(5) . . .
94(5) . . .
97(5) . . .
85(5) . . .
108(6) . . .
100(5) . . .
99(5) . . .
101(5) . . .
98(5) . . .
93(5) . . .
101(5) . . .
98(5) . . .
93(5) . . .
88(5) . . .
92(5) . . .
96(5) . . .
108(5) . . .
98(5) . . .
93(5) . . .
105(6) . . .
97(5) . . .
94(5) . . .
89(5) . . .
85(5) . . .
102(5) . . .
101(5) . . .
116(6) . . .
95(5) . . .
89(5) . . .
113(6) . . .
104(5) . . .
96(5) . . .
99(6) . . .
94(5) . . .
108(6) . . .
109(6) . . .
108(5) . . .
111(6) . . .
97(6) . . .
88(5) . . .
96(5) . . .
80(5) . . .
92(5) . . .
94(5) . . .
96(5) . . .
107(5) . . .
107(5) . . .
82(5) . . .
99(6) . . .
96(5) . . .
96(5) . . .
104(5) . . .
87(5) . . .
83(5) . . .
90(5) . . .
88(5) . . .
93(5) . . .
91(5) . . .
90(5) . . .
108(6) . . .
89(5) . . .
102(5) . . .
88(5) . . .
93(5) . . .
90(5) . . .
97(5) . . .
94(5) . . .
93(5) . . .
96(5) . . .
96(5) . . .
88(5) . . .
93(5) . . .
112(6) . . .
96(5) . . .
88(5) . . .
93(5) . . .
96(5) . . .
91(5) . . .
87(5) . . .
102(5) . . .
96(5) . . .
99(5) . . .
103(6) . . .
88(5) . . .
95(5) . . .
100(5) . . .
95(5) . . .
103(6) . . .
88(5) . . .
94(5) . . .
95(5) . . .
102(6) . . .
85(5) . . .
102(6) . . .
106(5) . . .
104(5) . . .
100(5) . . .
99(6) . . .
104(5) . . .
94(5) . . .
96(5) . . .
98(5) . . .
104(6) . . .
110(6) . . .
106(5) . . .
108(5) . . .
91(5) . . .
95(6) . . .
93(5) . . .
97(5) . . .
87(5) . . .
95(5) . . .
95(5) . . .
89(5) . . .
105(5) . . .
88(5) . . .
98(5) . . .
102(5) . . .
89(5) . . .
97(5) . . .
94(5) . . .
98(5) . . .
103(6) . . .
93(5) . . .
96(5) . . .
96(5) . . .
107(6) . . .
87(5) . . .
88(5) . . .
99(5) . . .
85(5) . . .
95(5) . . .
106(5) . . .
95(5) . . .
82(5) . . .
99(5) . . .
101(6) . . .
87(5) . . .
95(5) . . .
89(5) . . .
95(5) . . .
89(5) . . .
86(5) . . .
101(5) . . .
87(5) . . .
87(5) . . .
94(6) . . .
96(5) . . .
91(5) . . .
98(5) . . .
98(5) . . .
88(5) . . .
90(5) . . .
89(5) . . .
97(5) . . .
94(5) . . .
101(6) . . .
87(5) . . .
85(5) . . .
99(5) . . .
108(5) . . .
93(5) . . .
96(5) . . .
102(5) . . .
88(5) . . .
96(5) . . .
94(5) . . .
102(6) . . .
97(5) . . .
96(5) . . .
104(6) . . .
98(6) . . .
95(5) . . .
86(5) . . .
88(5) . . .
94(5) . . .
90(5) . . .
106(6) . . .
89(5) . . .
83(5) . . .
85(5) . . .
86(5) . . .
95(5) . . .
107(5) . . .
108(6) . . .
92(5) . . .
89(5) . . .
90(5) . . .
78(5) . . .
96(5) . . .
95(6) . . .
94(5) . . .
107(5) . . .
98(5) . . .
103(6) . . .
97(5) . . .
94(5) . . .
105(5) . . .
92(5) . . .
95(5) . . .
99(5) . . .
98(5) . . .
84(5) . . .
93(5) . . .
99(5) . . .
91(5) . . .
93(5) . . .
105(5) . . .
86(5) . . .
96(5) . . .
100(6) . . .
105(6) . . .
91(5) . . .
76(5) . . .
98(6) . . .
96(6) . . .
102(6) . . .
96(5) . . .
83(5) . . .
86(5) . . .
87(5) . . .
86(5) . . .
87(5) . . .
94(5) . . .
96(5) . . .
92(5) . . .
100(5) . . .
91(5) . . .
103(5) . . .
91(5) . . .
102(5) . . .
95(5) . . .
89(5) . . .
81(5) . . .
102(6) . . .
99(5) . . .
93(5) . . .
94(5) . . .
101(5) . . .
104(5) . . .
79(5) . . .
98(5) . . .
89(5) . . .
103(6) . . .
88(5) . . .
97(5) . . .
90(5) . . .
90(5) . . .
91(5) . . .
101(6) . . .
93(5) . . .
83(5) . . .
92(5) . . .
102(6) . . .
88(5) . . .
104(6) . . .
111(5) . . .
99(5) . . .
101(6) . . .
94(5) . . .
94(5) . . .
91(5) . . .
99(5) . . .
86(5) . . .
92(5) . . .
90(5) . . .
92(5) . . .
86(5) . . .
81(5) . . .
89(5) . . .
98(5) . . .
91(5) . . .
101(5) . . .
84(5) . . .
100(5) . . .
88(5) . . .
88(5) . . .
98(5) . . .
90(5) . . .
90(5) . . .
95(5) . . .
90(5) . . .
91(5) . . .
98(5) . . .
95(5) . . .
92(5) . . .
91(5) . . .
100(5) . . .
104(6) . . .
89(5) . . .
89(5) . . .
96(5) . . .
89(5) . . .
86(5) . . .
94(5) . . .
88(5) . . .
97(5) . . .
93(5) . . .
94(5) . . .
102(5) . . .
89(5) . . .
98(5) . . .
87(5) . . .
84(5) . . .
86(5) . . .
89(5) . . .
86(5) . . .
95(5) . . .
99(6) . . .
90(5) . . .
96(5) . . .
97(5) . . .
84(5) . . .
107(6) . . .
89(5) . . .
88(5) . . .
91(5) . . .
79(5) . . .
104(6) . . .
107(6) . . .
96(5) . . .
94(5) . . .
80(5) . . .
94(5) . . .
105(5) . . .
101(5) . . .
89(5) . . .
112(6) . . .
103(6) . . .
90(5) . . .
92(5) . . .
105(6) . . .
103(6) . . .
91(5) . . .
96(5) . . .
94(5) . . .
87(5) . . .
99(5) . . .
82(5) . . .
96(5) . . .
94(5) . . .
89(5) . . .
86(5) . . .
86(5) . . .
86(5) . . .
93(5) . . .
88(5) . . .
102(6) . . .
102(5) . . .
87(5) . . .
100(5) . . .
97(5) . . .
82(5) . . .
97(5) . . .
104(5) . . .
98(5) . . .
80(5) . . .
95(5) . . .
83(5) . . .
88(5) . . .
74(4) . . .
76(5) . . .
81(5) . . .
84(5) . . .
87(5) . . .
91(5) . . .
95(5) . . .
93(5) . . .
96(5) . . .
90(5) . . .
87(5) . . .
96(5) . . .
88(5) . . .
80(5) . . .
87(5) . . .
91(5) . . .
86(5) . . .
91(5) . . .
90(5) . . .
106(5) . . .
90(5) . . .
104(6) . . .
98(5) . . .
88(5) . . .
98(5) . . .
90(5) . . .
102(6) . . .
92(5) . . .
91(5) . . .
81(5) . . .
104(6) . . .
95(5) . . .
85(5) . . .
91(5) . . .
84(5) . . .
95(5) . . .
102(6) . . .
99(5) . . .
90(5) . . .
95(5) . . .
104(5) . . .
93(5) . . .
108(6) . . .
99(5) . . .
98(5) . . .
91(5) . . .
101(6) . . .
96(5) . . .
98(5) . . .
104(5) . . .
92(5) . . .
92(5) . . .
93(5) . . .
101(5) . . .
108(6) . . .
87(5) . . .
95(5) . . .
92(5) . . .
94(5) . . .
87(5) . . .
88(5) . . .
95(5) . . .
96(5) . . .
102(5) . . .
94(5) . . .
84(5) . . .
88(5) . . .
92(5) . . .
99(5) . . .
94(5) . . .
90(5) . . .
101(6) . . .
106(5) . . .
104(5) . . .
98(5) . . .
96(5) . . .
92(5) . . .
91(5) . . .
97(5) . . .
87(5) . . .
91(5) . . .
96(5) . . .
94(5) . . .
107(5) . . .
89(5) . . .
96(5) . . .
104(5) . . .
97(5) . . .
113(6) . . .
93(5) . . .
88(5) . . .
103(5) . . .
90(5) . . .
100(5) . . .
90(5) . . .
87(5) . . .
86(5) . . .
99(5) . . .
96(5) . . .
95(5) . . .
95(5) . . .
93(5) . . .
85(5) . . .
96(5) . . .
89(5) . . .
93(5) . . .
102(5) . . .
111(6) . . .
102(5) . . .
98(5) . . .
82(5) . . .
96(5) . . .
93(5) . . .
83(5) . . .
93(5) . . .
89(5) . . .
84(5) . . .
95(5) . . .
83(5) . . .
94(5) . . .
100(6) . . .
87(5) . . .
97(5) . . .
89(5) . . .
95(5) . . .
96(5) . . .
93(5) . . .
97(5) . . .
92(5) . . .
98(6) . . .
95(5) . . .
85(5) . . .
89(5) . . .
90(5) . . .
91(5) . . .
97(5) . . .
103(5) . . .
80(5) . . .
87(5) . . .
83(5) . . .
88(5) . . .
84(5) . . .
85(5) . . .
90(5) . . .
95(5) . . .
109(6) . . .
94(5) . . .
103(5) . . .
108(5) . . .
92(5) . . .
89(5) . . .
91(5) . . .
105(5) . . .
86(5) . . .
85(5) . . .
87(5) . . .
90(5) . . .
83(5) . . .
86(5) . . .
88(5) . . .
96(5) . . .
99(5) . . .
88(5) . . .
91(5) . . .
92(5) . . .
83(5) . . .
93(5) . . .
111(6) . . .
92(5) . . .
100(5) . . .
87(5) . . .
103(5) . . .
94(5) . . .
86(5) . . .
92(5) . . .
102(5) . . .
99(5) . . .
79(5) . . .
89(5) . . .
95(5) . . .
92(5) . . .
84(5) . . .
88(5) . . .
90(5) . . .
83(5) . . .
95(5) . . .
95(5) . . .
91(5) . . .
84(5) . . .
82(5) . . .
88(5) . . .
94(5) . . .
88(5) . . .
100(6) . . .
102(5) . . .
90(5) . . .
85(5) . . .
89(5) . . .
98(6) . . .
103(5) . . .
96(5) . . .
91(5) . . .
90(5) . . .
93(6) . . .
96(5) . . .
80(5) . . .
88(5) . . .
90(5) . . .
117(6) . . .
102(5) . . .
78(5) . . .
99(5) . . .
89(5) . . .
98(5) . . .
93(5) . . .
98(5) . . .
91(5) . . .
91(5) . . .
81(5) . . .
94(5) . . .
95(5) . . .
92(5) . . .
84(5) . . .
89(5) . . .
91(5) . . .
90(5) . . .
99(5) . . .
92(5) . . .
97(5) . . .
88(5) . . .
90(5) . . .
72(5) . . .
83(5) . . .
87(5) . . .
83(5) . . .
95(5) . . .
98(5) . . .
98(6) . . .
80(5) . . .
96(5) . . .
108(5) . . .
100(5) . . .
93(5) . . .
90(5) . . .
89(5) . . .
93(5) . . .
83(5) . . .
83(5) . . .
89(5) . . .
108(5) . . .
90(5) . . .
77(5) . . .
90(5) . . .
95(5) . . .
100(5) . . .
88(5) . . .
102(6) . . .
91(5) . . .
101(6) . . .
91(5) . . .
79(5) . . .
80(5) . . .
82(5) . . .
84(5) . . .
81(5) . . .
90(5) . . .
88(5) . . .
78(5) . . .
96(5) . . .
93(5) . . .
95(5) . . .
87(5) . . .
88(5) . . .
87(5) . . .
96(5) . . .
94(5) . . .
100(5) . . .
108(6) . . .
86(5) . . .
87(5) . . .
78(5) . . .
74(5) . . .
85(5) . . .
90(5) . . .
96(5) . . .
96(5) . . .
103(6) . . .
94(5) . . .
100(5) . . .
98(5) . . .
88(5) . . .
82(5) . . .
91(5) . . .
100(5) . . .
92(5) . . .
80(5) . . .
94(5) . . .
106(5) . . .
94(5) . . .
97(5) . . .
90(5) . . .
94(5) . . .
92(5) . . .
90(5) . . .
94(5) . . .
89(5) . . .
82(5) . . .
90(5) . . .
81(5) . . .
97(5) . . .
92(5) . . .
99(6) . . .
88(5) . . .
88(5) . . .
88(5) . . .
96(5) . . .
91(5) . . .
84(5) . . .
83(5) . . .
94(5) . . .
80(5) . . .
91(5) . . .
84(5) . . .
89(5) . . .
101(5) . . .
99(6) . . .
90(5) . . .
98(5) . . .
85(5) . . .
84(5) . . .
73(4) . . .
94(5) . . .
101(5) . . .
84(5) . . .
97(5) . . .
89(5) . . .
79(5) . . .
90(5) . . .
83(5) . . .
90(5) . . .
77(5) . . .
93(5) . . .
95(5) . . .
90(5) . . .
90(5) . . .
83(5) . . .
93(5) . . .
79(5) . . .
95(5) . . .
93(5) . . .
90(5) . . .
88(5) . . .
82(5) . . .
100(5) . . .
77(5) . . .
100(5) . . .
88(5) . . .
96(5) . . .
98(5) . . .
94(5) . . .
86(5) . . .
93(5) . . .
97(5) . . .
102(5) . . .
78(5) . . .
77(5) . . .
81(5) . . .
96(5) . . .
89(5) . . .
92(5) . . .
96(5) . . .
95(5) . . .
82(5) . . .
88(5) . . .
98(5) . . .
90(5) . . .
81(5) . . .
107(5) . . .
84(5) . . .
83(5) . . .
89(5) . . .
95(5) . . .
90(5) . . .
91(5) . . .
91(5) . . .
87(5) . . .
88(5) . . .
89(5) . . .
98(5) . . .
80(5) . . .
103(6) . . .
91(5) . . .
80(5) . . .
93(5) . . .
98(6) . . .
76(5) . . .
92(5) . . .
94(5) . . .
84(5) . . .
79(5) . . .
100(5) . . .
98(5) . . .
82(5) . . .
87(5) . . .
87(5) . . .
101(6) . . .
79(5) . . .
95(5) . . .
93(5) . . .
91(5) . . .
95(5) . . .
87(5) . . .
82(5) . . .
96(6) . . .
80(5) . . .
95(5) . . .
79(5) . . .
95(5) . . .
95(5) . . .
91(5) . . .
88(5) . . .
90(5) . . .
85(5) . . .
90(5) . . .
94(5) . . .
85(5) . . .
77(5) . . .
94(5) . . .
78(5) . . .
77(5) . . .
87(5) . . .
94(5) . . .
91(5) . . .
92(5) . . .
79(5) . . .
79(5) . . .
85(5) . . .
71(5) . . .
93(5) . . .
85(5) . . .
96(5) . . .
94(5) . . .
88(5) . . .
83(5) . . .
90(5) . . .
92(5) . . .
91(5) . . .
76(5) . . .
97(5) . . .
85(5) . . .
73(4) . . .
75(4) . . .
73(5) . . .
93(6) . . .
76(5) . . .
88(5) . . .
95(5) . . .
83(5) . . .
82(5) . . .
85(5) . . .
84(5) . . .
71(4) . . .
81(5) . . .
76(5) . . .
93(5) . . .
85(5) . . .
90(5) . . .
94(5) . . .
88(5) . . .
87(5) . . .
99(5) . . .
88(5) . . .
89(5) . . .
75(5) . . .
83(5) . . .
93(5) . . .
89(5) . . .
83(5) . . .
90(5) . . .
84(5) . . .
91(5) . . .
86(5) . . .
94(5) . . .
87(5) . . .
94(5) . . .
98(5) . . .
90(5) . . .
82(5) . . .
86(5) . . .
92(5) . . .
84(5) . . .
85(5) . . .
86(5) . . .
89(5) . . .
85(5) . . .
89(5) . . .
86(5) . . .
95(5) . . .
98(5) . . .
87(5) . . .
93(5) . . .
101(6) . . .
90(5) . . .
86(5) . . .
95(5) . . .
88(5) . . .
94(5) . . .
87(5) . . .
76(5) . . .
97(5) . . .
105(5) . . .
87(5) . . .
73(5) . . .
83(5) . . .
87(5) . . .
95(5) . . .
86(5) . . .
81(5) . . .
88(5) . . .
90(5) . . .
88(5) . . .
85(5) . . .
98(5) . . .
89(5) . . .
87(5) . . .
81(5) . . .
86(5) . . .
86(5) . . .
87(5) . . .
73(4) . . .
85(5) . . .
84(5) . . .
80(5) . . .
66(4) . . .
99(5) . . .
90(5) . . .
83(5) . . .
102(5) . . .
100(5) . . .
97(5) . . .
90(5) . . .
90(5) . . .
83(5) . . .
86(5) . . .
95(5) . . .
94(5) . . .
96(5) . . .
82(5) . . .
94(5) . . .
84(5) . . .
84(5) . . .
88(5) . . .
82(5) . . .
83(5) . . .
86(5) . . .
82(5) . . .
87(5) . . .
110(6) . . .
100(5) . . .
89(5) . . .
95(5) . . .
85(5) . . .
95(5) . . .
82(5) . . .
78(5) . . .
85(5) . . .
100(5) . . .
106(6) . . .
98(5) . . .
100(5) . . .
88(5) . . .
82(5) . . .
82(5) . . .
93(5) . . .
92(5) . . .
77(5) . . .
91(5) . . .
77(5) . . .
87(5) . . .
76(5) . . .
81(5) . . .
80(5) . . .
94(5) . . .
76(5) . . .
86(5) . . .
82(5) . . .
79(5) . . .
90(5) . . .
85(5) . . .
95(5) . . .
87(5) . . .
83(5) . . .
89(5) . . .
70(4) . . .
82(5) . . .
81(5) . . .
78(5) . . .
88(5) . . .
87(5) . . .
84(5) . . .
81(5) . . .
88(5) . . .
89(5) . . .
98(5) . . .
86(5) . . .
79(5) . . .
85(5) . . .
89(5) . . .
92(5) . . .
72(5) . . .
96(5) . . .
87(5) . . .
86(5) . . .
81(5) . . .
83(5) . . .
73(5) . . .
83(5) . . .
83(5) . . .
80(5) . . .
90(5) . . .
92(5) . . .
98(5) . . .
95(5) . . .
85(5) . . .
99(6) . . .
91(5) . . .
91(5) . . .
88(5) . . .
77(5) . . .
91(5) . . .
88(5) . . .
105(5) . . .
97(5) . . .
80(5) . . .
79(5) . . .
83(5) . . .
87(5) . . .
84(5) . . .
95(5) . . .
78(5) . . .
78(5) . . .
86(5) . . .
97(5) . . .
82(5) . . .
85(5) . . .
84(5) . . .
68(4) . . .
88(5) . . .
81(5) . . .
78(5) . . .
92(5) . . .
84(5) . . .
88(5) . . .
78(5) . . .
71(5) . . .
81(5) . . .
87(5) . . .
86(5) . . .
89(5) . . .
81(5) . . .
85(5) . . .
86(5) . . .
82(5) . . .
94(5) . . .
82(5) . . .
90(5) . . .
90(5) . . .
86(5) . . .
90(5) . . .
82(5) . . .
86(5) . . .
98(5) . . .
97(5) . . .
79(5) . . .
87(5) . . .
83(5) . . .
88(5) . . .
79(5) . . .
87(5) . . .
91(5) . . .
93(5) . . .
89(5) . . .
103(5) . . .
88(5) . . .
98(5) . . .
79(5) . . .
83(5) . . .
83(5) . . .
76(5) . . .
97(5) . . .
92(5) . . .
84(5) . . .
76(5) . . .
92(5) . . .
91(5) . . .
95(5) . . .
84(5) . . .
83(5) . . .
99(6) . . .
79(5) . . .
70(4) . . .
81(5) . . .
89(5) . . .
90(5) . . .
97(5) . . .
92(5) . . .
92(5) . . .
79(5) . . .
86(5) . . .
91(5) . . .
81(5) . . .
94(5) . . .
72(4) . . .
76(5) . . .
82(5) . . .
92(5) . . .
73(4) . . .
86(5) . . .
76(5) . . .
75(5) . . .
75(5) . . .
87(5) . . .
93(5) . . .
84(5) . . .
98(5) . . .
93(5) . . .
100(5) . . .
87(5) . . .
90(5) . . .
82(5) . . .
84(5) . . .
94(5) . . .
94(5) . . .
78(5) . . .
79(5) . . .
85(5) . . .
88(5) . . .
83(5) . . .
84(5) . . .
87(5) . . .
84(5) . . .
83(5) . . .
69(5) . . .
76(5) . . .
74(4) . . .
89(5) . . .
72(5) . . .
82(5) . . .
86(5) . . .
87(5) . . .
83(5) . . .
82(5) . . .
86(5) . . .
82(5) . . .
92(5) . . .
93(5) . . .
85(5) . . .
79(5) . . .
88(5) . . .
88(5) . . .
91(5) . . .
89(5) . . .
79(5) . . .
70(4) . . .
88(5) . . .
85(5) . . .
86(5) . . .
70(5) . . .
77(5) . . .
95(5) . . .
90(5) . . .
92(5) . . .
96(5) . . .
95(5) . . .
90(5) . . .
83(5) . . .
87(5) . . .
86(5) . . .
96(5) . . .
87(5) . . .
88(5) . . .
95(5) . . .
74(4) . . .
101(5) . . .
95(5) . . .
80(5) . . .
76(5) . . .
86(5) . . .
90(5) . . .
86(5) . . .
81(5) . . .
87(5) . . .
95(5) . . .
85(5) . . .
81(5) . . .
85(5) . . .
98(5) . . .
73(4) . . .
82(5) . . .
79(5) . . .
99(5) . . .
88(5) . . .
81(5) . . .
72(4) . . .
85(5) . . .
88(5) . . .
76(5) . . .
84(5) . . .
88(5) . . .
106(5) . . .
96(5) . . .
91(5) . . .
86(5) . . .
74(4) . . .
83(5) . . .
92(5) . . .
88(5) . . .
88(5) . . .
88(5) . . .
89(5) . . .
92(5) . . .
87(5) . . .
86(5) . . .
85(5) . . .
80(5) . . .
85(5) . . .
89(5) . . .
94(5) . . .
94(5) . . .
84(5) . . .
96(5) . . .
92(5) . . .
94(5) . . .
79(5) . . .
80(5) . . .
82(5) . . .
91(5) . . .
72(4) . . .
77(5) . . .
97(5) . . .
92(5) . . .
86(5) . . .
81(5) . . .
80(5) . . .
90(5) . . .
89(5) . . .
86(5) . . .
92(5) . . .
89(5) . . .
94(5) . . .
85(5) . . .
81(5) . . .
75(4) . . .
76(5) . . .
80(5) . . .
93(5) . . .
77(5) . . .
97(5) . . .
92(5) . . .
74(4) . . .
93(6) . . .
91(5) . . .
82(5) . . .
90(5) . . .
77(5) . . .
90(5) . . .
79(5) . . .
72(4) . . .
76(5) . . .
76(5) . . .
92(5) . . .
85(5) . . .
83(5) . . .
94(5) . . .
81(5) . . .
82(5) . . .
78(5) . . .
76(5) . . .
82(5) . . .
91(5) . . .
82(5) . . .
86(5) . . .
94(5) . . .
77(5) . . .
84(5) . . .
77(5) . . .
74(5) . . .
84(5) . . .
96(5) . . .
75(5) . . .
89(5) . . .
97(5) . . .
81(5) . . .
82(5) . . .
88(5) . . .
93(5) . . .
75(5) . . .
82(5) . . .
83(5) . . .
84(5) . . .
96(5) . . .
81(5) . . .
78(5) . . .
83(5) . . .
82(5) . . .
85(5) . . .
87(5) . . .
82(5) . . .
84(5) . . .
79(5) . . .
70(4) . . .
84(5) . . .
85(5) . . .
85(5) . . .
87(5) . . .
74(5) . . .
89(5) . . .
71(5) . . .
77(5) . . .
83(5) . . .
84(5) . . .
81(5) . . .
71(5) . . .
86(5) . . .
83(5) . . .
79(5) . . .
89(5) . . .
102(5) . . .
84(5) . . .
75(5) . . .
92(5) . . .
92(5) . . .
80(5) . . .
85(5) . . .
83(5) . . .
79(5) . . .
82(5) . . .
82(5) . . .
77(5) . . .
81(5) . . .
91(5) . . .
86(5) . . .
86(5) . . .
85(5) . . .
79(5) . . .
84(5) . . .
75(4) . . .
83(5) . . .
90(5) . . .
79(5) . . .
78(5) . . .
79(5) . . .
79(5) . . .
88(5) . . .
80(5) . . .
85(5) . . .
91(5) . . .
84(5) . . .
70(5) . . .
88(5) . . .
68(4) . . .
89(5) . . .
81(5) . . .
80(5) . . .
74(5) . . .
83(5) . . .
81(5) . . .
90(5) . . .
86(5) . . .
94(5) . . .
83(5) . . .
77(5) . . .
82(5) . . .
92(5) . . .
70(4) . . .
85(5) . . .
94(5) . . .
76(5) . . .
75(5) . . .
75(5) . . .
85(5) . . .
77(5) . . .
77(5) . . .
84(5) . . .
75(5) . . .
73(4) . . .
101(5) . . .
74(5) . . .
91(5) . . .
68(4) . . .
66(4) . . .
68(4) . . .
83(5) . . .
82(5) . . .
78(5) . . .
71(4) . . .
89(5) . . .
85(5) . . .
70(4) . . .
76(5) . . .
93(5) . . .
71(4) . . .
85(5) . . .
94(5) . . .
89(5) . . .
78(5) . . .
82(5) . . .
80(5) . . .
96(5) . . .
91(5) . . .
71(4) . . .
76(5) . . .
87(5) . . .
75(5) . . .
78(5) . . .
91(5) . . .
86(5) . . .
70(4) . . .
84(5) . . .
82(5) . . .
86(5) . . .
88(5) . . .
77(5) . . .
69(4) . . .
83(5) . . .
76(5) . . .
86(5) . . .
81(5) . . .
73(5) . . .
76(5) . . .
78(5) . . .
65(4) . . .
76(5) . . .
88(5) . . .
86(5) . . .
80(5) . . .
75(5) . . .
95(5) . . .
99(5) . . .
83(5) . . .
79(5) . . .
87(5) . . .
82(5) . . .
73(4) . . .
89(5) . . .
94(5) . . .
96(5) . . .
78(5) . . .
79(5) . . .
103(5) . . .
86(5) . . .
75(5) . . .
76(5) . . .
86(5) . . .
90(5) . . .
80(5) . . .
81(5) . . .
83(5) . . .
86(5) . . .
86(5) . . .
84(5) . . .
77(5) . . .
75(5) . . .
74(4) . . .
78(5) . . .
80(5) . . .
84(5) . . .
92(5) . . .
73(4) . . .
79(5) . . .
78(5) . . .
72(5) . . .
74(5) . . .
72(4) . . .
71(4) . . .
85(5) . . .
69(4) . . .
66(4) . . .
65(4) . . .
78(5) . . .
86(5) . . .
92(5) . . .
79(5) . . .
75(5) . . .
74(5) . . .
77(5) . . .
73(5) . . .
94(5) . . .
86(5) . . .
70(4) . . .
88(5) . . .
73(4) . . .
77(5) . . .
69(4) . . .
79(5) . . .
79(5) . . .
89(5) . . .
76(5) . . .
87(5) . . .
89(5) . . .
83(5) . . .
84(5) . . .
70(4) . . .
79(5) . . .
72(5) . . .
82(5) . . .
92(5) . . .
80(5) . . .
80(5) . . .
80(5) . . .
74(5) . . .
75(5) . . .
71(4) . . .
69(4) . . .
74(5) . . .
78(5) . . .
81(5) . . .
73(4) . . .
75(4) . . .
78(5) . . .
65(4) . . .
85(5) . . .
77(5) . . .
73(5) . . .
69(4) . . .
78(5) . . .
69(4) . . .
70(4) . . .
82(5) . . .
73(5) . . .
71(5) . . .
79(5) . . .
82(5) . . .
86(5) . . .
91(5) . . .
82(5) . . .
77(5) . . .
77(5) . . .
84(5) . . .
83(5) . . .
76(5) . . .
85(5) . . .
83(5) . . .
84(5) . . .
89(5) . . .
82(5) . . .
83(5) . . .
93(5) . . .
88(5) . . .
84(5) . . .
78(5) . . .
80(5) . . .
76(5) . . .
72(5) . . .
68(5) . . .
73(5) . . .
75(4) . . .
82(5) . . .
77(5) . . .
76(5) . . .
75(5) . . .
81(5) . . .
79(5) . . .
85(5) . . .
70(5) . . .
83(5) . . .
79(5) . . .
78(5) . . .
81(5) . . .
81(5) . . .
78(5) . . .
74(5) . . .
81(5) . . .
70(4) . . .
93(5) . . .
90(5) . . .
87(5) . . .
64(4) . . .
75(5) . . .
71(5) . . .
74(5) . . .
82(5) . . .
88(5) . . .
87(5) . . .
84(5) . . .
89(5) . . .
89(5) . . .
76(5) . . .
75(5) . . .
75(5) . . .
79(5) . . .
79(5) . . .
87(5) . . .
88(5) . . .
77(5) . . .
83(5) . . .
81(5) . . .
74(5) . . .
72(5) . . .
86(5) . . .
73(4) . . .
77(5) . . .
77(5) . . .
70(5) . . .
77(5) . . .
72(4) . . .
81(5) . . .
83(5) . . .
73(5) . . .
70(4) . . .
86(5) . . .
73(4) . . .
70(5) . . .
83(5) . . .
73(5) . . .
77(5) . . .
79(5) . . .
86(5) . . .
79(5) . . .
85(5) . . .
79(5) . . .
83(5) . . .
80(5) . . .
86(5) . . .
76(5) . . .
75(4) . . .
73(4) . . .
71(4) . . .
72(4) . . .
80(5) . . .
92(5) . . .
78(5) . . .
69(5) . . .
82(5) . . .
88(5) . . .
78(5) . . .
65(4) . . .
68(4) . . .
83(5) . . .
83(5) . . .
93(5) . . .
78(5) . . .
73(5) . . .
84(5) . . .
82(5) . . .
86(5) . . .
73(5) . . .
80(5) . . .
81(5) . . .
77(5) . . .
76(5) . . .
77(5) . . .
75(5) . . .
66(4) . . .
81(5) . . .
75(4) . . .
90(5) . . .
87(5) . . .
76(5) . . .
83(5) . . .
76(5) . . .
87(5) . . .
88(5) . . .
90(5) . . .
89(5) . . .
85(5) . . .
77(5) . . .
76(5) . . .
76(5) . . .
76(5) . . .
84(5) . . .
92(5) . . .
74(5) . . .
83(5) . . .
69(4) . . .
75(5) . . .
82(5) . . .
80(5) . . .
80(5) . . .
94(5) . . .
77(5) . . .
82(5) . . .
82(5) . . .
86(5) . . .
84(5) . . .
86(5) . . .
98(5) . . .
88(5) . . .
75(5) . . .
76(5) . . .
76(5) . . .
94(6) . . .
83(5) . . .
82(5) . . .
93(5) . . .
83(5) . . .
84(5) . . .
74(5) . . .
82(5) . . .
101(5) . . .
84(5) . . .
86(5) . . .
85(5) . . .
81(5) . . .
66(4) . . .
70(4) . . .
85(5) . . .
78(5) . . .
90(5) . . .
84(5) . . .
74(5) . . .
74(5) . . .
72(5) . . .
79(5) . . .
76(5) . . .
77(5) . . .
78(5) . . .
84(5) . . .
84(5) . . .
78(5) . . .
77(5) . . .
76(5) . . .
87(5) . . .
79(5) . . .
74(5) . . .
85(5) . . .
83(5) . . .
75(4) . . .
77(5) . . .
70(5) . . .
85(5) . . .
80(5) . . .
70(4) . . .
83(5) . . .
79(5) . . .
83(5) . . .
68(4) . . .
71(4) . . .
80(5) . . .
72(5) . . .
78(5) . . .
82(5) . . .
81(5) . . .
90(5) . . .
77(5) . . .
75(5) . . .
81(5) . . .
76(5) . . .
79(5) . . .
78(5) . . .
71(5) . . .
72(5) . . .
81(5) . . .
87(5) . . .
79(5) . . .
81(5) . . .
93(5) . . .
81(5) . . .
73(5) . . .
69(4) . . .
68(4) . . .
78(5) . . .
72(4) . . .
86(5) . . .
85(5) . . .
84(5) . . .
86(5) . . .
71(4) . . .
80(5) . . .
84(5) . . .
70(4) . . .
84(5) . . .
81(5) . . .
86(5) . . .
82(5) . . .
85(5) . . .
89(5) . . .
85(5) . . .
86(5) . . .
90(5) . . .
70(4) . . .
81(5) . . .
75(4) . . .
76(5) . . .
70(4) . . .
74(5) . . .
64(4) . . .
71(4) . . .
73(5) . . .
70(4) . . .
76(5) . . .
71(4) . . .
78(5) . . .
93(5) . . .
74(5) . . .
67(5) . . .
76(5) . . .
66(4) . . .
85(5) . . .
72(4) . . .
95(5) . . .
82(5) . . .
79(5) . . .
78(5) . . .
85(5) . . .
82(5) . . .
90(5) . . .
83(5) . . .
79(5) . . .
76(5) . . .
69(4) . . .
80(5) . . .
85(5) . . .
71(5) . . .
74(5) . . .
77(5) . . .
76(5) . . .
70(4) . . .
72(5) . . .
82(5) . . .
75(5) . . .
62(4) . . .
89(5) . . .
84(5) . . .
71(4) . . .
68(4) . . .
79(5) . . .
100(5) . . .
80(5) . . .
73(5) . . .
74(5) . . .
88(5) . . .
90(5) . . .
79(5) . . .
82(5) . . .
81(5) . . .
69(4) . . .
85(5) . . .
74(5) . . .
80(5) . . .
71(4) . . .
89(5) . . .
76(5) . . .
86(5) . . .
80(5) . . .
71(4) . . .
74(4) . . .
96(5) . . .
93(5) . . .
79(5) . . .
76(5) . . .
90(5) . . .
79(5) . . .
77(5) . . .
80(5) . . .
70(4) . . .
80(5) . . .
65(4) . . .
78(5) . . .
82(5) . . .
74(4) . . .
85(5) . . .
81(5) . . .
71(5) . . .
71(4) . . .
71(4) . . .
74(5) . . .
82(5) . . .
80(5) . . .
82(5) . . .
78(5) . . .
72(5) . . .
67(4) . . .
83(5) . . .
84(5) . . .
84(5) . . .
81(5) . . .
79(5) . . .
66(4) . . .
81(5) . . .
77(5) . . .
70(4) . . .
75(5) . . .
71(4) . . .
76(5) . . .
76(5) . . .
87(5) . . .
88(5) . . .
81(5) . . .
76(5) . . .
88(5) . . .
74(5) . . .
70(5) . . .
84(5) . . .
76(4) . . .
76(5) . . .
72(5) . . .
82(5) . . .
84(5) . . .
81(5) . . .
69(4) . . .
71(5) . . .
77(5) . . .
80(5) . . .
85(5) . . .
93(5) . . .
66(4) . . .
65(4) . . .
77(5) . . .
88(5) . . .
83(5) . . .
79(5) . . .
75(5) . . .
81(5) . . .
76(5) . . .
69(4) . . .
83(5) . . .
78(5) . . .
85(5) . . .
73(4) . . .
87(5) . . .
76(5) . . .
75(5) . . .
87(5) . . .
82(5) . . .
88(5) . . .
69(4) . . .
70(5) . . .
77(5) . . .
78(5) . . .
85(5) . . .
82(5) . . .
79(5) . . .
82(5) . . .
76(5) . . .
79(5) . . .
75(5) . . .
74(5) . . .
82(5) . . .
91(5) . . .
74(5) . . .
68(5) . . .
70(4) . . .
72(4) . . .
73(4) . . .
78(5) . . .
74(5) . . .
79(5) . . .
77(5) . . .
89(5) . . .
74(5) . . .
70(5) . . .
76(5) . . .
73(4) . . .
75(5) . . .
82(5) . . .
64(4) . . .
72(4) . . .
71(4) . . .
88(5) . . .
78(5) . . .
76(5) . . .
70(5) . . .
77(5) . . .
77(5) . . .
77(5) . . .
71(5) . . .
79(5) . . .
69(4) . . .
76(5) . . .
79(5) . . .
83(5) . . .
89(5) . . .
72(4) . . .
80(5) . . .
77(5) . . .
71(5) . . .
79(5) . . .
82(5) . . .
69(4) . . .
80(5) . . .
89(5) . . .
79(5) . . .
77(5) . . .
69(5) . . .
71(4) . . .
77(5) . . .
72(5) . . .
75(5) . . .
71(5) . . .
77(5) . . .
67(4) . . .
78(5) . . .
80(5) . . .
72(5) . . .
67(5) . . .
77(5) . . .
78(5) . . .
75(4) . . .
76(5) . . .
75(5) . . .
82(5) . . .
72(4) . . .
86(5) . . .
80(5) . . .
78(5) . . .
76(5) . . .
83(5) . . .
75(5) . . .
76(5) . . .
86(5) . . .
85(5) . . .
72(4) . . .
74(5) . . .
74(5) . . .
67(5) . . .
84(5) . . .
74(4) . . .
82(5) . . .
83(5) . . .
71(5) . . .
85(5) . . .
71(4) . . .
74(5) . . .
81(5) . . .
80(5) . . .
72(4) . . .
74(4) . . .
74(5) . . .
91(5) . . .
86(5) . . .
78(5) . . .
76(5) . . .
77(5) . . .
86(5) . . .
85(5) . . .
75(5) . . .
77(5) . . .
86(5) . . .
80(5) . . .
77(5) . . .
74(5) . . .
87(5) . . .
79(5) . . .
61(4) . . .
69(5) . . .
76(5) . . .
69(4) . . .
82(5) . . .
85(5) . . .
80(5) . . .
73(4) . . .
77(5) . . .
76(5) . . .
90(6) . . .
93(5) . . .
81(5) . . .
74(5) . . .
78(5) . . .
83(5) . . .
87(5) . . .
76(4) . . .
70(4) . . .
82(5) . . .
80(5) . . .
79(5) . . .
73(4) . . .
80(5) . . .
76(5) . . .
76(5) . . .
76(5) . . .
79(5) . . .
76(4) . . .
72(4) . . .
68(4) . . .
61(4) . . .
82(5) . . .
80(5) . . .
69(5) . . .
72(5) . . .
73(4) . . .
82(5) . . .
80(5) . . .
73(5) . . .
72(4) . . .
80(5) . . .
72(4) . . .
76(5) . . .
87(5) . . .
80(5) . . .
72(4) . . .
67(4) . . .
75(5) . . .
86(5) . . .
75(5) . . .
62(4) . . .
71(4) . . .
74(5) . . .
82(5) . . .
87(5) . . .
70(4) . . .
78(5) . . .
76(5) . . .
89(5) . . .
82(5) . . .
72(4) . . .
70(4) . . .
80(5) . . .
77(5) . . .
79(5) . . .
85(5) . . .
79(5) . . .
73(5) . . .
68(4) . . .
79(5) . . .
70(4) . . .
76(5) . . .
74(5) . . .
87(5) . . .
90(5) . . .
73(4) . . .
71(4) . . .
82(5) . . .
91(5) . . .
71(5) . . .
70(4) . . .
64(4) . . .
77(5) . . .
82(5) . . .
84(5) . . .
79(5) . . .
85(5) . . .
83(5) . . .
69(4) . . .
90(5) . . .
73(4) . . .
78(5) . . .
68(4) . . .
77(5) . . .
74(5) . . .
85(5) . . .
91(5) . . .
83(5) . . .
83(5) . . .
87(5) . . .
88(5) . . .
85(5) . . .
74(5) . . .
78(5) . . .
71(4) . . .
81(5) . . .
82(5) . . .
72(5) . . .
74(5) . . .
77(5) . . .
71(4) . . .
69(5) . . .
66(4) . . .
92(5) . . .
73(4) . . .
88(5) . . .
79(5) . . .
83(5) . . .
70(5) . . .
84(5) . . .
86(5) . . .
74(4) . . .
79(5) . . .
75(5) . . .
81(5) . . .
75(5) . . .
71(4) . . .
78(5) . . .
77(5) . . .
89(5) . . .
77(5) . . .
79(5) . . .
78(5) . . .
86(5) . . .
83(5) . . .
71(5) . . .
80(5) . . .
82(5) . . .
76(5) . . .
85(5) . . .
68(4) . . .
75(5) . . .
88(5) . . .
92(5) . . .
84(5) . . .
87(5) . . .
87(5) . . .
82(5) . . .
74(4) . . .
80(5) . . .
70(4) . . .
83(5) . . .
81(5) . . .
86(5) . . .
82(5) . . .
76(5) . . .
72(5) . . .
68(5) . . .
77(5) . . .
77(5) . . .
69(4) . . .
64(4) . . .
80(5) . . .
81(5) . . .
83(5) . . .
72(4) . . .
81(5) . . .
81(5) . . .
80(5) . . .
82(5) . . .
81(5) . . .
78(5) . . .
75(5) . . .
67(4) . . .
67(4) . . .
74(5) . . .
86(5) . . .
78(5) . . .
66(4) . . .
77(5) . . .
71(5) . . .
84(5) . . .
87(5) . . .
83(5) . . .
80(5) . . .
78(5) . . .
70(5) . . .
74(5) . . .
72(4) . . .
80(5) . . .
73(4) . . .
80(5) . . .
74(4) . . .
76(5) . . .
75(5) . . .
73(5) . . .
83(5) . . .
78(5) . . .
77(5) . . .
62(4) . . .
66(4) . . .
72(5) . . .
75(4) . . .
78(5) . . .
76(5) . . .
59(4) . . .
70(4) . . .
64(4) . . .
65(4) . . .
91(5) . . .
75(5) . . .
81(5) . . .
85(5) . . .
88(5) . . .
83(5) . . .
74(5) . . .
80(5) . . .
78(5) . . .
67(4) . . .
70(4) . . .
72(5) . . .
66(4) . . .
76(5) . . .
80(5) . . .
66(4) . . .
68(5) . . .
77(5) . . .
69(4) . . .
79(5) . . .
76(5) . . .
92(5) . . .
82(5) . . .
76(5) . . .
73(4) . . .
84(5) . . .
95(5) . . .
75(4) . . .
73(4) . . .
66(4) . . .
70(5) . . .
81(5) . . .
79(5) . . .
68(4) . . .
76(5) . . .
62(4) . . .
77(5) . . .
70(4) . . .
81(5) . . .
75(5) . . .
78(5) . . .
87(5) . . .
85(5) . . .
84(5) . . .
72(5) . . .
74(5) . . .
80(5) . . .
65(4) . . .
78(5) . . .
75(5) . . .
84(5) . . .
83(5) . . .
77(5) . . .
84(5) . . .
64(4) . . .
74(5) . . .
83(5) . . .
75(4) . . .
71(4) . . .
73(5) . . .
66(4) . . .
64(4) . . .
72(4) . . .
78(5) . . .
82(5) . . .
81(5) . . .
73(5) . . .
79(5) . . .
75(5) . . .
84(5) . . .
74(5) . . .
85(5) . . .
79(5) . . .
59(4) . . .
65(4) . . .
85(5) . . .
71(4) . . .
71(4) . . .
67(4) . . .
78(5) . . .
66(4) . . .
76(5) . . .
80(5) . . .
85(5) . . .
88(5) . . .
73(5) . . .
95(5) . . .
79(5) . . .
85(5) . . .
82(5) . . .
80(5) . . .
80(5) . . .
68(4) . . .
79(5) . . .
80(5) . . .
85(5) . . .
68(4) . . .
72(4) . . .
72(5) . . .
67(5) . . .
82(5) . . .
81(5) . . .
87(5) . . .
76(5) . . .
73(5) . . .
80(5) . . .
79(5) . . .
73(4) . . .
75(5) . . .
68(5) . . .
87(5) . . .
80(5) . . .
80(5) . . .
72(4) . . .
83(5) . . .
77(5) . . .
71(4) . . .
67(4) . . .
83(5) . . .
76(5) . . .
87(5) . . .
81(5) . . .
74(5) . . .
70(4) . . .
66(4) . . .
75(5) . . .
71(4) . . .
87(5) . . .
79(5) . . .
76(5) . . .
74(5) . . .
73(5) . . .
71(5) . . .
64(4) . . .
67(4) . . .
71(4) . . .
84(5) . . .
71(5) . . .
74(5) . . .
84(5) . . .
77(5) . . .
84(5) . . .
81(5) . . .
83(5) . . .
74(5) . . .
74(5) . . .
84(5) . . .
82(5) . . .
73(5) . . .
78(5) . . .
76(5) . . .
63(4) . . .
82(5) . . .
78(5) . . .
72(5) . . .
69(4) . . .
78(5) . . .
70(4) . . .
70(5) . . .
83(5) . . .
78(5) . . .
80(5) . . .
73(5) . . .
75(5) . . .
72(5) . . .
73(4) . . .
87(5) . . .
84(5) . . .
66(4) . . .
66(4) . . .
75(4) . . .
73(4) . . .
86(5) . . .
82(5) . . .
68(4) . . .
74(4) . . .
79(5) . . .
73(5) . . .
76(5) . . .
89(5) . . .
80(5) . . .
79(5) . . .
80(5) . . .
62(4) . . .
75(5) . . .
70(4) . . .
69(5) . . .
78(5) . . .
76(5) . . .
73(4) . . .
68(4) . . .
71(5) . . .
78(5) . . .
86(5) . . .
79(5) . . .
77(5) . . .
84(5) . . .
74(5) . . .
77(5) . . .
82(5) . . .
70(4) . . .
67(4) . . .
78(5) . . .
67(4) . . .
72(5) . . .
76(5) . . .
75(5) . . .
72(5) . . .
69(4) . . .
67(4) . . .
76(5) . . .
69(4) . . .
66(4) . . .
76(5) . . .
71(4) . . .
52(4) . . .
68(5) . . .
75(5) . . .
88(5) . . .
81(5) . . .
74(4) . . .
76(5) . . .
85(5) . . .
70(4) . . .
72(4) . . .
71(4) . . .
68(4) . . .
59(4) . . .
75(5) . . .
79(5) . . .
89(5) . . .
74(5) . . .
80(5) . . .
76(5) . . .
64(4) . . .
74(5) . . .
63(4) . . .
78(5) . . .
72(4) . . .
74(4) . . .
72(5) . . .
62(4) . . .
67(4) . . .
68(4) . . .
77(5) . . .
76(5) . . .
75(5) . . .
76(5) . . .
80(5) . . .
73(4) . . .
85(5) . . .
75(5) . . .
76(5) . . .
79(5) . . .
83(5) . . .
70(4) . . .
79(5) . . .
76(5) . . .
79(5) . . .
78(5) . . .
82(5) . . .
75(5) . . .
86(5) . . .
87(5) . . .
78(5) . . .
79(5) . . .
87(5) . . .
68(4) . . .
80(5) . . .
76(5) . . .
67(4) . . .
70(5) . . .
78(5) . . .
70(4) . . .
86(5) . . .
86(5) . . .
77(5) . . .
75(5) . . .
68(4) . . .
52(4) . . .
64(4) . . .
71(5) . . .
71(5) . . .
61(4) . . .
68(4) . . .
74(5) . . .
87(5) . . .
68(4) . . .
71(4) . . .
65(5) . . .
73(5) . . .
69(4) . . .
65(4) . . .
70(4) . . .
83(5) . . .
67(4) . . .
71(5) . . .
70(4) . . .
84(5) . . .
69(4) . . .
70(5) . . .
59(4) . . .
70(4) . . .
83(5) . . .
64(4) . . .
63(4) . . .
82(5) . . .
73(4) . . .
77(5) . . .
66(4) . . .
73(5) . . .
73(5) . . .
66(4) . . .
68(4) . . .
67(4) . . .
83(5) . . .
87(5) . . .
78(5) . . .
77(5) . . .
63(4) . . .
72(5) . . .
66(4) . . .
64(4) . . .
74(5) . . .
71(5) . . .
66(4) . . .
75(5) . . .
77(5) . . .
77(5) . . .
64(4) . . .
67(4) . . .
63(4) . . .
67(4) . . .
72(5) . . .
72(5) . . .
76(5) . . .
71(5) . . .
77(5) . . .
75(5) . . .
72(5) . . .
82(5) . . .
65(4) . . .
80(5) . . .
63(4) . . .
66(5) . . .
73(5) . . .
66(4) . . .
66(4) . . .
64(4) . . .
64(4) . . .
73(5) . . .
68(4) . . .
71(4) . . .
84(5) . . .
68(4) . . .
68(4) . . .
71(4) . . .
72(4) . . .
57(4) . . .
73(5) . . .
71(4) . . .
75(4) . . .
67(4) . . .
66(4) . . .
67(5) . . .
82(5) . . .
70(4) . . .
77(5) . . .
77(5) . . .
71(5) . . .
70(4) . . .
77(5) . . .
67(4) . . .
76(5) . . .
63(4) . . .
84(5) . . .
67(4) . . .
56(4) . . .
65(4) . . .
72(5) . . .
81(5) . . .
82(5) . . .
67(4) . . .
74(5) . . .
71(5) . . .
73(4) . . .
73(4) . . .
65(4) . . .
75(5) . . .
68(4) . . .
79(5) . . .
82(5) . . .
81(5) . . .
67(4) . . .
81(5) . . .
74(4) . . .
79(5) . . .
68(4) . . .
78(5) . . .
78(5) . . .
72(5) . . .
65(4) . . .
71(4) . . .
76(5) . . .
73(5) . . .
77(5) . . .
65(4) . . .
74(5) . . .
74(5) . . .
91(5) . . .
73(4) . . .
74(5) . . .
73(5) . . .
68(5) . . .
71(4) . . .
77(5) . . .
70(4) . . .
73(5) . . .
67(4) . . .
78(5) . . .
80(5) . . .
70(5) . . .
67(5) . . .
83(5) . . .
70(4) . . .
69(4) . . .
69(4) . . .
67(4) . . .
75(5) . . .
73(5) . . .
75(5) . . .
70(4) . . .
68(4) . . .
80(5) . . .
72(4) . . .
73(4) . . .
73(5) . . .
75(5) . . .
76(5) . . .
69(4) . . .
76(4) . . .
67(4) . . .
75(5) . . .
63(4) . . .
67(4) . . .
62(4) . . .
59(4) . . .
61(4) . . .
81(5) . . .
71(4) . . .
78(5) . . .
70(5) . . .
61(4) . . .
83(5) . . .
91(5) . . .
83(5) . . .
71(5) . . .
70(5) . . .
70(5) . . .
77(5) . . .
71(4) . . .
75(5) . . .
60(4) . . .
65(4) . . .
67(4) . . .
66(4) . . .
71(5) . . .
71(5) . . .
84(5) . . .
78(5) . . .
72(4) . . .
75(5) . . .
77(5) . . .
67(4) . . .
62(4) . . .
77(5) . . .
71(5) . . .
64(4) . . .
66(4) . . .
74(4) . . .
84(5) . . .
79(5) . . .
72(5) . . .
74(5) . . .
75(4) . . .
67(4) . . .
74(5) . . .
63(4) . . .
58(4) . . .
81(5) . . .
79(5) . . .
85(5) . . .
69(5) . . .
75(4) . . .
62(4) . . .
77(5) . . .
77(5) . . .
74(5) . . .
76(4) . . .
73(4) . . .
68(5) . . .
76(5) . . .
74(5) . . .
65(4) . . .
73(4) . . .
66(4) . . .
69(5) . . .
74(5) . . .
72(4) . . .
72(5) . . .
64(4) . . .
62(4) . . .
76(5) . . .
72(4) . . .
71(4) . . .
60(4) . . .
72(5) . . .
89(5) . . .
74(4) . . .
65(4) . . .
81(5) . . .
67(4) . . .
61(4) . . .
71(4) . . .
64(4) . . .
73(5) . . .
79(5) . . .
69(4) . . .
73(4) . . .
66(4) . . .
74(5) . . .
81(5) . . .
68(4) . . .
81(5) . . .
83(5) . . .
64(4) . . .
83(5) . . .
72(4) . . .
70(4) . . .
74(5) . . .
73(5) . . .
73(5) . . .
67(4) . . .
71(4) . . .
69(4) . . .
75(5) . . .
64(5) . . .
73(4) . . .
88(5) . . .
75(5) . . .
79(5) . . .
73(4) . . .
81(5) . . .
69(4) . . .
78(5) . . .
69(5) . . .
72(4) . . .
78(5) . . .
79(5) . . .
69(4) . . .
75(5) . . .
75(5) . . .
64(4) . . .
78(5) . . .
73(4) . . .
70(5) . . .
57(4) . . .
80(5) . . .
76(4) . . .
73(5) . . .
80(5) . . .
77(5) . . .
68(4) . . .
94(5) . . .
68(5) . . .
72(5) . . .
78(5) . . .
68(4) . . .
74(5) . . .
61(4) . . .
75(5) . . .
63(4) . . .
78(5) . . .
58(4) . . .
71(5) . . .
80(5) . . .
72(4) . . .
82(5) . . .
72(5) . . .
66(4) . . .
76(5) . . .
76(5) . . .
70(4) . . .
76(5) . . .
65(4) . . .
62(4) . . .
67(4) . . .
69(4) . . .
72(5) . . .
68(5) . . .
79(5) . . .
75(5) . . .
73(4) . . .
62(4) . . .
66(5) . . .
77(5) . . .
65(4) . . .
81(5) . . .
74(5) . . .
67(5) . . .
67(4) . . .
73(4) . . .
70(4) . . .
70(4) . . .
67(5) . . .
67(4) . . .
70(4) . . .
77(5) . . .
61(4) . . .
74(5) . . .
77(5) . . .
74(4) . . .
72(4) . . .
71(5) . . .
69(5) . . .
77(5) . . .
70(4) . . .
56(4) . . .
69(5) . . .
77(5) . . .
68(4) . . .
64(4) . . .
64(4) . . .
68(4) . . .
76(4) . . .
80(5) . . .
72(4) . . .
61(4) . . .
59(4) . . .
73(4) . . .
67(4) . . .
70(4) . . .
79(5) . . .
72(5) . . .
80(5) . . .
69(4) . . .
75(5) . . .
57(4) . . .
64(4) . . .
68(4) . . .
70(4) . . .
64(4) . . .
73(5) . . .
67(4) . . .
70(5) . . .
72(4) . . .
88(5) . . .
75(5) . . .
70(5) . . .
69(4) . . .
70(4) . . .
73(5) . . .
69(4) . . .
62(4) . . .
74(5) . . .
73(4) . . .
68(4) . . .
84(5) . . .
75(5) . . .
77(5) . . .
83(5) . . .
67(4) . . .
66(4) . . .
72(5) . . .
65(4) . . .
73(4) . . .
71(4) . . .
78(5) . . .
66(4) . . .
64(4) . . .
67(4) . . .
63(4) . . .
69(5) . . .
64(4) . . .
77(5) . . .
74(5) . . .
71(5) . . .
73(5) . . .
69(4) . . .
72(5) . . .
78(5) . . .
69(5) . . .
64(4) . . .
69(5) . . .
68(4) . . .
66(4) . . .
72(5) . . .
66(4) . . .
81(5) . . .
78(5) . . .
64(4) . . .
63(4) . . .
75(5) . . .
52(4) . . .
64(4) . . .
77(5) . . .
72(5) . . .
58(4) . . .
67(5) . . .
70(4) . . .
77(5) . . .
79(5) . . .
71(4) . . .
78(5) . . .
92(5) . . .
72(5) . . .
68(5) . . .
55(4) . . .
67(4) . . .
64(4) . . .
67(4) . . .
64(4) . . .
75(5) . . .
67(5) . . .
71(4) . . .
65(4) . . .
67(4) . . .
66(4) . . .
74(5) . . .
63(4) . . .
63(4) . . .
77(5) . . .
54(4) . . .
67(4) . . .
81(5) . . .
73(4) . . .
53(4) . . .
67(4) . . .
71(4) . . .
87(5) . . .
83(5) . . .
73(5) . . .
72(5) . . .
68(4) . . .
71(4) . . .
65(4) . . .
59(4) . . .
73(5) . . .
69(4) . . .
70(4) . . .
67(4) . . .
73(5) . . .
67(5) . . .
77(5) . . .
73(4) . . .
57(4) . . .
74(5) . . .
73(5) . . .
63(4) . . .
72(4) . . .
74(5) . . .
63(5) . . .
59(4) . . .
58(4) . . .
53(4) . . .
70(5) . . .
72(5) . . .
68(4) . . .
74(4) . . .
70(4) . . .
79(5) . . .
75(5) . . .
69(5) . . .
73(4) . . .
63(4) . . .
69(5) . . .
65(4) . . .
65(4) . . .
56(4) . . .
78(5) . . .
57(4) . . .
77(5) . . .
74(5) . . .
73(4) . . .
60(4) . . .
76(5) . . .
78(5) . . .
75(5) . . .
73(4) . . .
75(5) . . .
64(4) . . .
61(4) . . .
71(4) . . .
66(4) . . .
65(4) . . .
71(5) . . .
68(4) . . .
70(4) . . .
85(5) . . .
69(5) . . .
67(5) . . .
72(4) . . .
68(4) . . .
69(4) . . .
60(4) . . .
66(4) . . .
64(4) . . .
66(4) . . .
71(4) . . .
60(4) . . .
60(4) . . .
67(5) . . .
62(4) . . .
58(4) . . .
59(4) . . .
64(4) . . .
63(4) . . .
79(5) . . .
71(4) . . .
66(4) . . .
63(4) . . .
76(5) . . .
60(4) . . .
70(4) . . .
69(5) . . .
68(5) . . .
70(5) . . .
70(4) . . .
77(5) . . .
78(5) . . .
78(5) . . .
71(5) . . .
61(4) . . .
74(5) . . .
71(5) . . .
80(5) . . .
67(4) . . .
75(4) . . .
67(5) . . .
71(5) . . .
62(4) . . .
69(4) . . .
63(4) . . .
69(5) . . .
74(5) . . .
81(5) . . .
65(4) . . .
69(4) . . .
63(4) . . .
77(5) . . .
71(5) . . .
67(4) . . .
77(5) . . .
72(5) . . .
79(5) . . .
70(4) . . .
71(4) . . .
64(4) . . .
63(4) . . .
74(5) . . .
71(4) . . .
67(4) . . .
66(4) . . .
62(4) . . .
70(5) . . .
66(4) . . .
69(4) . . .
83(5) . . .
66(4) . . .
56(4) . . .
56(4) . . .
60(4) . . .
65(4) . . .
74(5) . . .
67(4) . . .
73(5) . . .
71(4) . . .
64(4) . . .
74(5) . . .
65(4) . . .
67(4) . . .
62(4) . . .
67(5) . . .
58(4) . . .
70(5) . . .
69(4) . . .
71(4) . . .
75(5) . . .
75(5) . . .
71(5) . . .
72(5) . . .
68(4) . . .
77(5) . . .
60(4) . . .
75(5) . . .
74(4) . . .
66(4) . . .
73(5) . . .
74(5) . . .
67(4) . . .
65(4) . . .
58(4) . . .
66(4) . . .
66(5) . . .
60(4) . . .
69(4) . . .
63(4) . . .
68(5) . . .
58(4) . . .
63(4) . . .
71(4) . . .
67(4) . . .
69(4) . . .
72(5) . . .
53(4) . . .
53(4) . . .
71(4) . . .
78(5) . . .
73(5) . . .
61(4) . . .
65(4) . . .
75(5) . . .
66(4) . . .
66(4) . . .
68(4) . . .
66(4) . . .
81(5) . . .
72(5) . . .
63(4) . . .
57(4) . . .
59(4) . . .
75(5) . . .
71(5) . . .
68(4) . . .
68(4) . . .
70(4) . . .
75(5) . . .
76(5) . . .
71(4) . . .
72(4) . . .
59(4) . . .
76(5) . . .
67(4) . . .
66(4) . . .
67(4) . . .
69(4) . . .
57(4) . . .
67(5) . . .
67(4) . . .
80(5) . . .
77(5) . . .
62(4) . . .
69(5) . . .
70(4) . . .
75(4) . . .
59(4) . . .
55(4) . . .
60(4) . . .
72(5) . . .
71(4) . . .
62(4) . . .
66(4) . . .
69(5) . . .
68(5) . . .
62(4) . . .
66(4) . . .
75(5) . . .
68(5) . . .
74(5) . . .
71(4) . . .
78(5) . . .
71(4) . . .
61(4) . . .
61(4) . . .
70(4) . . .
85(5) . . .
64(4) . . .
69(5) . . .
64(4) . . .
75(4) . . .
69(4) . . .
61(4) . . .
67(4) . . .
72(5) . . .
78(5) . . .
63(4) . . .
62(4) . . .
78(5) . . .
71(4) . . .
65(4) . . .
78(5) . . .
74(5) . . .
67(4) . . .
76(5) . . .
67(4) . . .
72(5) . . .
70(5) . . .
60(4) . . .
60(4) . . .
72(4) . . .
66(4) . . .
63(4) . . .
73(5) . . .
67(4) . . .
70(4) . . .
63(4) . . .
73(5) . . .
58(4) . . .
63(4) . . .
68(4) . . .
61(4) . . .
68(4) . . .
66(4) . . .
66(4) . . .
71(4) . . .
66(4) . . .
62(4) . . .
66(4) . . .
57(4) . . .
84(5) . . .
77(5) . . .
60(4) . . .
75(5) . . .
76(4) . . .
79(5) . . .
71(4) . . .
79(5) . . .
68(4) . . .
73(4) . . .
65(4) . . .
71(5) . . .
69(5) . . .
66(5) . . .
65(4) . . .
60(4) . . .
73(5) . . .
66(4) . . .
69(4) . . .
73(4) . . .
70(4) . . .
75(5) . . .
64(4) . . .
61(4) . . .
63(4) . . .
74(5) . . .
60(4) . . .
58(4) . . .
50(4) . . .
63(4) . . .
61(4) . . .
61(4) . . .
67(4) . . .
63(4) . . .
59(4) . . .
64(5) . . .
71(5) . . .
57(4) . . .
73(4) . . .
63(4) . . .
67(4) . . .
78(5) . . .
63(4) . . .
80(5) . . .
70(4) . . .
72(5) . . .
81(5) . . .
67(4) . . .
54(4) . . .
70(4) . . .
57(4) . . .
70(5) . . .
75(5) . . .
74(4) . . .
71(4) . . .
64(4) . . .
83(5) . . .
78(5) . . .
71(4) . . .
60(4) . . .
70(5) . . .
71(4) . . .
66(4) . . .
77(5) . . .
70(4) . . .
61(4) . . .
68(5) . . .
66(4) . . .
63(4) . . .
69(5) . . .
67(4) . . .
69(5) . . .
62(4) . . .
68(4) . . .
64(4) . . .
82(5) . . .
73(5) . . .
69(4) . . .
68(4) . . .
73(5) . . .
71(4) . . .
72(5) . . .
71(4) . . .
66(4) . . .
73(5) . . .
59(4) . . .
68(4) . . .
64(4) . . .
67(4) . . .
59(4) . . .
69(5) . . .
73(5) . . .
67(4) . . .
75(5) . . .
64(4) . . .
68(5) . . .
67(4) . . .
85(5) . . .
81(5) . . .
62(4) . . .
79(5) . . .
66(4) . . .
71(4) . . .
76(5) . . .
73(5) . . .
77(5) . . .
68(4) . . .
74(5) . . .
75(5) . . .
78(5) . . .
72(5) . . .
69(4) . . .
65(4) . . .
68(4) . . .
67(4) . . .
69(5) . . .
63(4) . . .
64(4) . . .
72(5) . . .
59(4) . . .
84(5) . . .
72(4) . . .
60(4) . . .
61(4) . . .
68(5) . . .
69(5) . . .
67(4) . . .
62(4) . . .
70(4) . . .
83(5) . . .
63(4) . . .
60(4) . . .
73(5) . . .
73(5) . . .
65(5) . . .
63(4) . . .
70(4) . . .
65(4) . . .
78(5) . . .
58(4) . . .
76(5) . . .
65(4) . . .
72(4) . . .
81(5) . . .
60(4) . . .
50(4) . . .
65(4) . . .
66(4) . . .
68(4) . . .
69(5) . . .
66(4) . . .
71(4) . . .
68(4) . . .
53(4) . . .
65(5) . . .
61(4) . . .
69(4) . . .
69(4) . . .
65(4) . . .
70(5) . . .
65(4) . . .
69(4) . . .
61(4) . . .
70(4) . . .
62(4) . . .
65(4) . . .
67(4) . . .
73(5) . . .
65(5) . . .
71(4) . . .
69(4) . . .
66(4) . . .
63(4) . . .
62(5) . . .
70(5) . . .
78(5) . . .
73(4) . . .
65(4) . . .
52(4) . . .
63(4) . . .
65(4) . . .
54(4) . . .
74(5) . . .
61(4) . . .
54(4) . . .
71(4) . . .
69(4) . . .
62(4) . . .
60(4) . . .
54(4) . . .
75(5) . . .
75(5) . . .
75(5) . . .
56(4) . . .
59(4) . . .
60(4) . . .
56(4) . . .
60(4) . . .
60(4) . . .
63(4) . . .
68(4) . . .
62(4) . . .
68(4) . . .
78(5) . . .
61(4) . . .
60(4) . . .
67(4) . . .
68(5) . . .
63(4) . . .
64(4) . . .
59(4) . . .
63(4) . . .
61(4) . . .
75(5) . . .
71(4) . . .
56(4) . . .
71(5) . . .
63(4) . . .
69(4) . . .
68(4) . . .
70(4) . . .
65(4) . . .
69(5) . . .
74(5) . . .
72(4) . . .
65(4) . . .
61(4) . . .
62(4) . . .
65(4) . . .
67(4) . . .
64(4) . . .
66(4) . . .
75(5) . . .
74(5) . . .
72(4) . . .
67(4) . . .
62(4) . . .
57(4) . . .
72(5) . . .
62(4) . . .
72(4) . . .
67(5) . . .
71(5) . . .
68(5) . . .
60(4) . . .
67(4) . . .
75(5) . . .
69(4) . . .
62(4) . . .
58(4) . . .
57(4) . . .
66(4) . . .
61(4) . . .
69(5) . . .
67(4) . . .
68(4) . . .
66(4) . . .
65(4) . . .
77(5) . . .
65(4) . . .
76(5) . . .
67(5) . . .
71(5) . . .
67(4) . . .
58(4) . . .
70(4) . . .
64(4) . . .
63(4) . . .
75(5) . . .
67(4) . . .
67(4) . . .
71(5) . . .
62(4) . . .
54(4) . . .
69(4) . . .
65(4) . . .
57(4) . . .
61(4) . . .
65(4) . . .
62(4) . . .
59(4) . . .
70(5) . . .
76(5) . . .
74(5) . . .
71(4) . . .
65(4) . . .
64(4) . . .
59(4) . . .
66(4) . . .
66(4) . . .
61(4) . . .
59(4) . . .
49(4) . . .
57(4) . . .
64(4) . . .
62(4) . . .
55(4) . . .
68(5) . . .
68(4) . . .
70(4) . . .
62(4) . . .
69(5) . . .
71(5) . . .
66(4) . . .
59(4) . . .
56(4) . . .
70(5) . . .
68(5) . . .
58(4) . . .
60(4) . . .
79(5) . . .
79(5) . . .
66(4) . . .
67(4) . . .
64(4) . . .
63(4) . . .
69(5) . . .
65(4) . . .
63(4) . . .
64(4) . . .
71(5) . . .
65(4) . . .
70(4) . . .
65(4) . . .
63(4) . . .
72(5) . . .
69(5) . . .
55(4) . . .
58(4) . . .
62(4) . . .
59(4) . . .
62(4) . . .
54(4) . . .
59(4) . . .
62(4) . . .
65(5) . . .
75(5) . . .
57(4) . . .
61(4) . . .
69(4) . . .
58(4) . . .
56(4) . . .
66(4) . . .
71(4) . . .
76(5) . . .
71(5) . . .
65(4) . . .
64(4) . . .
49(4) . . .
57(4) . . .
72(5) . . .
57(4) . . .
68(4) . . .
70(4) . . .
62(4) . . .
62(4) . . .
66(4) . . .
75(5) . . .
66(4) . . .
59(4) . . .
64(4) . . .
66(5) . . .
59(4) . . .
70(4) . . .
79(5) . . .
60(4) . . .
59(4) . . .
68(4) . . .
79(5) . . .
74(5) . . .
77(5) . . .
68(4) . . .
65(4) . . .
62(4) . . .
62(4) . . .
78(5) . . .
66(4) . . .
68(4) . . .
66(4) . . .
69(4) . . .
65(4) . . .
71(5) . . .
70(4) . . .
63(4) . . .
63(4) . . .
64(4) . . .
56(4) . . .
72(4) . . .
66(4) . . .
58(4) . . .
71(5) . . .
67(4) . . .
64(4) . . .
65(4) . . .
62(4) . . .
69(5) . . .
73(4) . . .
65(4) . . .
63(4) . . .
65(4) . . .
71(5) . . .
58(4) . . .
60(4) . . .
65(4) . . .
74(5) . . .
52(4) . . .
57(4) . . .
60(4) . . .
59(4) . . .
65(4) . . .
59(4) . . .
73(4) . . .
61(4) . . .
78(5) . . .
64(4) . . .
71(4) . . .
54(4) . . .
75(5) . . .
73(5) . . .
63(4) . . .
59(4) . . .
70(4) . . .
77(5) . . .
71(5) . . .
62(4) . . .
57(4) . . .
58(4) . . .
64(4) . . .
65(4) . . .
66(4) . . .
59(4) . . .
58(4) . . .
65(4) . . .
64(4) . . .
68(4) . . .
69(4) . . .
77(5) . . .
54(4) . . .
68(5) . . .
66(4) . . .
65(4) . . .
70(4) . . .
68(4) . . .
61(4) . . .
66(4) . . .
62(4) . . .
66(4) . . .
53(4) . . .
70(5) . . .
51(4) . . .
69(4) . . .
67(4) . . .
68(4) . . .
63(4) . . .
67(4) . . .
65(4) . . .
75(5) . . .
64(4) . . .
56(4) . . .
64(4) . . .
60(4) . . .
58(4) . . .
67(5) . . .
64(4) . . .
68(5) . . .
72(4) . . .
66(4) . . .
59(4) . . .
67(4) . . .
64(4) . . .
55(4) . . .
68(4) . . .
75(5) . . .
74(5) . . .
65(4) . . .
63(4) . . .
74(5) . . .
63(4) . . .
60(4) . . .
62(4) . . .
69(4) . . .
63(4) . . .
64(5) . . .
56(4) . . .
57(4) . . .
59(4) . . .
54(4) . . .
64(4) . . .
71(4) . . .
66(4) . . .
65(4) . . .
87(5) . . .
66(4) . . .
68(4) . . .
70(4) . . .
61(4) . . .
70(5) . . .
62(4) . . .
60(4) . . .
70(4) . . .
52(4) . . .
56(4) . . .
71(5) . . .
69(5) . . .
67(4) . . .
68(4) . . .
65(4) . . .
68(5) . . .
56(4) . . .
61(4) . . .
73(5) . . .
71(5) . . .
70(5) . . .
68(4) . . .
58(4) . . .
64(4) . . .
65(4) . . .
71(5) . . .
69(4) . . .
74(4) . . .
68(4) . . .
54(4) . . .
69(5) . . .
64(4) . . .
66(4) . . .
64(4) . . .
72(5) . . .
66(4) . . .
55(4) . . .
66(4) . . .
73(4) . . .
74(4) . . .
65(4) . . .
63(4) . . .
78(5) . . .
64(4) . . .
58(4) . . .
64(4) . . .
62(4) . . .
59(4) . . .
58(4) . . .
80(5) . . .
66(4) . . .
67(4) . . .
65(4) . . .
56(4) . . .
70(5) . . .
57(4) . . .
66(4) . . .
60(4) . . .
72(5) . . .
63(4) . . .
57(4) . . .
58(4) . . .
64(4) . . .
69(4) . . .
64(4) . . .
63(4) . . .
57(4) . . .
62(4) . . .
66(4) . . .
65(4) . . .
53(4) . . .
67(4) . . .
61(4) . . .
58(4) . . .
73(5) . . .
67(4) . . .
61(4) . . .
59(4) . . .
60(4) . . .
62(4) . . .
59(4) . . .
51(4) . . .
54(4) . . .
60(4) . . .
68(5) . . .
76(5) . . .
66(4) . . .
58(4) . . .
65(4) . . .
66(4) . . .
55(4) . . .
62(4) . . .
67(5) . . .
63(4) . . .
66(4) . . .
55(4) . . .
54(4) . . .
55(4) . . .
63(5) . . .
66(4) . . .
70(4) . . .
67(4) . . .
62(4) . . .
56(4) . . .
65(4) . . .
69(4) . . .
69(4) . . .
55(4) . . .
59(4) . . .
61(4) . . .
66(4) . . .
71(5) . . .
62(4) . . .
57(4) . . .
74(5) . . .
62(4) . . .
62(4) . . .
82(5) . . .
68(4) . . .
70(5) . . .
70(4) . . .
63(4) . . .
66(4) . . .
61(4) . . .
65(4) . . .
76(5) . . .
59(4) . . .
59(4) . . .
72(5) . . .
68(5) . . .
60(4) . . .
50(4) . . .
69(4) . . .
68(4) . . .
64(4) . . .
64(4) . . .
69(5) . . .
74(5) . . .
71(5) . . .
82(5) . . .
62(4) . . .
52(4) . . .
60(4) . . .
62(4) . . .
66(4) . . .
58(4) . . .
63(4) . . .
63(4) . . .
67(4) . . .
61(4) . . .
64(4) . . .
78(5) . . .
76(5) . . .
68(4) . . .
60(4) . . .
59(4) . . .
65(4) . . .
60(4) . . .
59(4) . . .
49(4) . . .
61(4) . . .
67(4) . . .
69(5) . . .
68(5) . . .
70(4) . . .
64(4) . . .
65(4) . . .
78(5) . . .
70(4) . . .
65(4) . . .
54(4) . . .
58(4) . . .
68(5) . . .
63(4) . . .
61(4) . . .
65(4) . . .
64(4) . . .
66(4) . . .
67(4) . . .
62(4) . . .
58(4) . . .
67(4) . . .
66(4) . . .
73(5) . . .
55(4) . . .
72(5) . . .
61(4) . . .
58(4) . . .
75(4) . . .
62(4) . . .
63(4) . . .
63(4) . . .
63(4) . . .
67(4) . . .
73(4) . . .
65(4) . . .
65(4) . . .
57(4) . . .
56(4) . . .
61(4) . . .
72(5) . . .
69(5) . . .
69(5) . . .
67(4) . . .
69(4) . . .
71(5) . . .
73(5) . . .
62(4) . . .
72(4) . . .
63(4) . . .
61(4) . . .
61(4) . . .
65(4) . . .
75(4) . . .
67(4) . . .
72(5) . . .
58(4) . . .
67(5) . . .
71(4) . . .
69(4) . . .
67(5) . . .
53(4) . . .
48(4) . . .
70(4) . . .
67(4) . . .
73(5) . . .
70(4) . . .
75(5) . . .
53(4) . . .
65(4) . . .
66(4) . . .
73(5) . . .
68(4) . . .
83(5) . . .
73(4) . . .
63(4) . . .
68(4) . . .
69(4) . . .
62(4) . . .
71(5) . . .
69(5) . . .
73(5) . . .
72(4) . . .
86(5) . . .
75(5) . . .
66(5) . . .
57(4) . . .
64(4) . . .
63(4) . . .
72(5) . . .
73(5) . . .
76(5) . . .
67(4) . . .
68(4) . . .
64(4) . . .
72(5) . . .
63(4) . . .
68(4) . . .
67(4) . . .
63(4) . . .
67(5) . . .
60(4) . . .
67(4) . . .
67(4) . . .
59(4) . . .
64(4) . . .
72(4) . . .
72(4) . . .
63(4) . . .
55(4) . . .
60(4) . . .
77(5) . . .
73(4) . . .
70(4) . . .
70(5) . . .
62(4) . . .
63(4) . . .
63(4) . . .
77(5) . . .
65(4) . . .
57(4) . . .
55(4) . . .
68(4) . . .
63(4) . . .
66(5) . . .
61(4) . . .
65(4) . . .
67(4) . . .
66(4) . . .
61(4) . . .
62(4) . . .
57(4) . . .
50(4) . . .
59(4) . . .
71(5) . . .
61(4) . . .
64(4) . . .
60(4) . . .
58(4) . . .
59(5) . . .
59(4) . . .
60(4) . . .
51(4) . . .
64(4) . . .
71(5) . . .
55(4) . . .
60(4) . . .
56(4) . . .
55(4) . . .
65(4) . . .
59(4) . . .
63(4) . . .
56(4) . . .
62(4) . . .
57(4) . . .
59(4) . . .
51(4) . . .
59(4) . . .
54(4) . . .
60(4) . . .
62(4) . . .
67(4) . . .
59(4) . . .
70(5) . . .
58(4) . . .
66(4) . . .
59(4) . . .
56(4) . . .
62(4) . . .
63(4) . . .
61(4) . . .
63(4) . . .
52(4) . . .
67(4) . . .
58(4) . . .
56(4) . . .
66(4) . . .
68(4) . . .
56(4) . . .
63(4) . . .
54(4) . . .
59(4) . . .
66(4) . . .
69(5) . . .
54(4) . . .
73(4) . . .
71(4) . . .
54(4) . . .
58(4) . . .
63(4) . . .
58(4) . . .
62(4) . . .
66(4) . . .
68(5) . . .
69(4) . . .
55(4) . . .
52(4) . . .
60(4) . . .
72(5) . . .
72(5) . . .
60(4) . . .
74(4) . . .
73(5) . . .
65(4) . . .
65(5) . . .
63(4) . . .
75(5) . . .
61(4) . . .
65(4) . . .
64(4) . . .
62(4) . . .
58(4) . . .
57(4) . . .
62(4) . . .
61(4) . . .
69(4) . . .
62(4) . . .
65(4) . . .
55(4) . . .
60(4) . . .
63(4) . . .
61(4) . . .
57(4) . . .
61(4) . . .
59(4) . . .
55(4) . . .
66(4) . . .
55(4) . . .
71(5) . . .
59(4) . . .
59(4) . . .
60(4) . . .
68(5) . . .
65(4) . . .
68(4) . . .
66(4) . . .
63(4) . . .
56(4) . . .
59(4) . . .
56(4) . . .
68(4) . . .
63(4) . . .
62(4) . . .
63(4) . . .
58(4) . . .
73(4) . . .
72(4) . . .
76(5) . . .
73(5) . . .
55(4) . . .
70(4) . . .
56(4) . . .
63(4) . . .
74(5) . . .
66(4) . . .
57(4) . . .
66(5) . . .
58(4) . . .
63(5) . . .
58(4) . . .
62(4) . . .
74(5) . . .
72(5) . . .
57(4) . . .
64(4) . . .
57(4) . . .
63(4) . . .
64(4) . . .
78(5) . . .
66(4) . . .
66(4) . . .
67(4) . . .
78(5) . . .
54(4) . . .
57(4) . . .
59(4) . . .
61(4) . . .
57(4) . . .
60(4) . . .
69(4) . . .
69(5) . . .
60(4) . . .
64(4) . . .
65(4) . . .
57(4) . . .
61(4) . . .
63(4) . . .
68(4) . . .
62(4) . . .
59(4) . . .
52(4) . . .
60(4) . . .
65(4) . . .
58(4) . . .
66(4) . . .
63(4) . . .
61(5) . . .
65(4) . . .
59(4) . . .
58(4) . . .
57(4) . . .
59(4) . . .
66(4) . . .
62(4) . . .
65(4) . . .
69(5) . . .
56(4) . . .
56(4) . . .
61(4) . . .
60(4) . . .
61(4) . . .
55(4) . . .
64(4) . . .
60(4) . . .
60(4) . . .
71(5) . . .
55(4) . . .
69(4) . . .
60(4) . . .
61(4) . . .
58(4) . . .
59(4) . . .
58(4) . . .
61(4) . . .
71(5) . . .
72(5) . . .
47(4) . . .
51(4) . . .
55(4) . . .
67(4) . . .
69(5) . . .
57(4) . . .
59(4) . . .
67(4) . . .
62(4) . . .
61(4) . . .
63(4) . . .
53(4) . . .
51(4) . . .
65(4) . . .
59(4) . . .
58(4) . . .
65(4) . . .
62(4) . . .
59(4) . . .
71(5) . . .
71(4) . . .
63(4) . . .
62(4) . . .
56(4) . . .
55(4) . . .
62(4) . . .
61(4) . . .
59(4) . . .
70(5) . . .
78(5) . . .
59(4) . . .
58(4) . . .
63(4) . . .
65(5) . . .
63(4) . . .
64(4) . . .
67(4) . . .
54(4) . . .
58(4) . . .
69(5) . . .
62(4) . . .
63(4) . . .
68(4) . . .
58(4) . . .
65(4) . . .
61(4) . . .
61(4) . . .
64(4) . . .
52(4) . . .
62(4) . . .
53(4) . . .
64(4) . . .
63(4) . . .
68(4) . . .
65(4) . . .
60(4) . . .
62(4) . . .
62(4) . . .
63(4) . . .
67(4) . . .
63(4) . . .
66(4) . . .
67(5) . . .
64(4) . . .
67(4) . . .
65(4) . . .
61(4) . . .
59(4) . . .
53(4) . . .
59(4) . . .
54(4) . . .
64(4) . . .
57(4) . . .
67(5) . . .
58(4) . . .
66(4) . . .
63(4) . . .
53(4) . . .
65(4) . . .
67(4) . . .
59(4) . . .
62(4) . . .
62(4) . . .
57(4) . . .
53(4) . . .
53(4) . . .
63(4) . . .
66(4) . . .
60(4) . . .
75(5) . . .
73(4) . . .
62(4) . . .
61(4) . . .
67(4) . . .
66(4) . . .
62(4) . . .
62(4) . . .
77(5) . . .
66(4) . . .
61(4) . . .
67(4) . . .
71(5) . . .
58(4) . . .
62(4) . . .
63(4) . . .
66(4) . . .
70(5) . . .
65(4) . . .
62(4) . . .
58(4) . . .
70(4) . . .
59(4) . . .
57(4) . . .
58(4) . . .
62(4) . . .
67(4) . . .
69(4) . . .
62(4) . . .
68(5) . . .
67(4) . . .
60(4) . . .
66(4) . . .
68(5) . . .
57(4) . . .
69(4) . . .
66(4) . . .
64(4) . . .
63(4) . . .
63(4) . . .
66(4) . . .
64(4) . . .
68(4) . . .
65(4) . . .
59(4) . . .
70(4) . . .
67(4) . . .
64(4) . . .
58(4) . . .
68(5) . . .
62(4) . . .
64(4) . . .
64(4) . . .
66(4) . . .
58(4) . . .
67(4) . . .
55(4) . . .
65(4) . . .
61(4) . . .
73(5) . . .
52(4) . . .
71(5) . . .
69(5) . . .
65(4) . . .
62(4) . . .
65(4) . . .
75(4) . . .
68(4) . . .
61(4) . . .
62(4) . . .
71(4) . . .
72(5) . . .
54(4) . . .
68(5) . . .
62(4) . . .
58(4) . . .
66(4) . . .
66(4) . . .
56(4) . . .
67(4) . . .
66(4) . . .
67(4) . . .
49(4) . . .
60(4) . . .
76(5) . . .
69(4) . . .
66(4) . . .
66(4) . . .
63(4) . . .
62(4) . . .
66(4) . . .
67(4) . . .
67(5) . . .
67(4) . . .
54(4) . . .
49(4) . . .
67(4) . . .
59(4) . . .
62(4) . . .
44.0(35) . . .
46(4) . . .
58(4) . . .
61(4) . . .
60(4) . . .
69(4) . . .
73(5) . . .
59(4) . . .
54(4) . . .
57(4) . . .
65(4) . . .
68(4) . . .
57(4) . . .
62(4) . . .
51(4) . . .
55(4) . . .
58(4) . . .
59(4) . . .
55(4) . . .
58(4) . . .
64(4) . . .
58(4) . . .
71(5) . . .
71(5) . . .
61(4) . . .
69(4) . . .
63(4) . . .
65(4) . . .
59(4) . . .
63(4) . . .
56(4) . . .
66(5) . . .
63(4) . . .
73(5) . . .
56(4) . . .
80(5) . . .
57(4) . . .
55(4) . . .
61(4) . . .
57(4) . . .
58(4) . . .
60(4) . . .
60(4) . . .
66(4) . . .
54(4) . . .
56(4) . . .
68(4) . . .
59(4) . . .
59(4) . . .
65(4) . . .
60(4) . . .
56(4) . . .
52(4) . . .
64(4) . . .
53(4) . . .
73(5) . . .
66(4) . . .
68(5) . . .
61(4) . . .
61(4) . . .
74(5) . . .
69(4) . . .
69(5) . . .
68(4) . . .
62(4) . . .
56(4) . . .
50(4) . . .
60(4) . . .
64(4) . . .
56(4) . . .
55(4) . . .
62(4) . . .
61(4) . . .
63(4) . . .
58(4) . . .
54(4) . . .
65(5) . . .
55(4) . . .
53(4) . . .
65(4) . . .
60(4) . . .
67(5) . . .
64(4) . . .
60(4) . . .
58(4) . . .
62(4) . . .
52(4) . . .
58(4) . . .
54(4) . . .
64(4) . . .
60(4) . . .
63(4) . . .
58(4) . . .
61(4) . . .
66(4) . . .
63(4) . . .
66(4) . . .
73(4) . . .
58(4) . . .
63(4) . . .
76(5) . . .
65(4) . . .
58(4) . . .
63(4) . . .
55(4) . . .
63(4) . . .
62(4) . . .
66(5) . . .
72(4) . . .
64(4) . . .
74(5) . . .
60(4) . . .
69(4) . . .
69(4) . . .
56(4) . . .
65(5) . . .
65(4) . . .
80(5) . . .
69(4) . . .
62(4) . . .
56(4) . . .
62(4) . . .
67(4) . . .
65(4) . . .
70(5) . . .
57(4) . . .
64(4) . . .
69(4) . . .
62(4) . . .
51(4) . . .
64(4) . . .
59(4) . . .
61(4) . . .
61(4) . . .
69(4) . . .
70(5) . . .
74(5) . . .
74(4) . . .
74(4) . . .
70(5) . . .
55(4) . . .
60(4) . . .
64(4) . . .
62(4) . . .
58(4) . . .
57(4) . . .
63(4) . . .
57(4) . . .
67(4) . . .
74(5) . . .
57(4) . . .
61(4) . . .
53(4) . . .
66(4) . . .
67(4) . . .
57(4) . . .
72(4) . . .
61(4) . . .
63(4) . . .
51(4) . . .
59(4) . . .
62(4) . . .
65(4) . . .
67(4) . . .
66(4) . . .
65(4) . . .
64(4) . . .
65(4) . . .
63(4) . . .
56(4) . . .
56(4) . . .
57(4) . . .
58(4) . . .
52(4) . . .
63(4) . . .
62(4) . . .
63(4) . . .
63(4) . . .
59(4) . . .
65(5) . . .
59(4) . . .
55(4) . . .
63(4) . . .
56(4) . . .
60(4) . . .
67(4) . . .
60(4) . . .
69(4) . . .
70(5) . . .
58(4) . . .
61(4) . . .
61(4) . . .
72(4) . . .
71(4) . . .
56(4) . . .
66(4) . . .
49(4) . . .
51(4) . . .
66(4) . . .
69(5) . . .
61(4) . . .
65(4) . . .
56(4) . . .
49(4) . . .
66(5) . . .
71(5) . . .
69(4) . . .
66(4) . . .
56(4) . . .
55(4) . . .
69(4) . . .
75(4) . . .
69(4) . . .
61(4) . . .
57(4) . . .
61(4) . . .
67(4) . . .
59(4) . . .
66(5) . . .
70(4) . . .
60(4) . . .
67(4) . . .
70(5) . . .
55(4) . . .
57(4) . . .
66(4) . . .
57(4) . . .
56(4) . . .
56(4) . . .
57(4) . . .
67(4) . . .
62(4) . . .
59(4) . . .
57(4) . . .
68(4) . . .
60(4) . . .
62(4) . . .
65(4) . . .
66(4) . . .
69(5) . . .
63(4) . . .
68(4) . . .
63(4) . . .
54(4) . . .
55(4) . . .
49(4) . . .
48(4) . . .
56(4) . . .
64(4) . . .
71(5) . . .
60(4) . . .
58(4) . . .
66(4) . . .
61(4) . . .
74(5) . . .
59(4) . . .
70(5) . . .
66(5) . . .
61(4) . . .
60(4) . . .
54(4) . . .
70(5) . . .
56(4) . . .
62(4) . . .
59(4) . . .
52(4) . . .
68(5) . . .
69(5) . . .
58(4) . . .
66(4) . . .
76(5) . . .
63(4) . . .
58(4) . . .
60(4) . . .
61(4) . . .
65(4) . . .
66(4) . . .
60(4) . . .
62(4) . . .
63(4) . . .
59(4) . . .
62(4) . . .
64(4) . . .
68(4) . . .
65(4) . . .
58(4) . . .
52(4) . . .
59(4) . . .
64(4) . . .
59(4) . . .
64(4) . . .
58(4) . . .
75(5) . . .
70(4) . . .
55(4) . . .
56(4) . . .
52(4) . . .
62(4) . . .
57(4) . . .
55(4) . . .
68(4) . . .
66(4) . . .
67(5) . . .
59(4) . . .
69(4) . . .
60(4) . . .
66(4) . . .
62(4) . . .
69(4) . . .
48(4) . . .
51(4) . . .
55(4) . . .
74(5) . . .
62(4) . . .
57(4) . . .
58(4) . . .
59(4) . . .
58(4) . . .
65(4) . . .
58(4) . . .
62(4) . . .
52(4) . . .
46(4) . . .
43.2(35) . . .
55(4) . . .
62(4) . . .
64(5) . . .
63(4) . . .
62(4) . . .
59(4) . . .
68(4) . . .
56(4) . . .
66(4) . . .
67(4) . . .
61(4) . . .
60(4) . . .
60(4) . . .
62(4) . . .
60(4) . . .
61(4) . . .
65(4) . . .
69(5) . . .
60(4) . . .
60(4) . . .
55(4) . . .
49(4) . . .
62(4) . . .
64(4) . . .
69(4) . . .
71(4) . . .
61(4) . . .
54(4) . . .
62(4) . . .
46(4) . . .
54(4) . . .
63(4) . . .
58(4) . . .
63(4) . . .
64(4) . . .
62(4) . . .
56(4) . . .
43.5(34) . . .
54(4) . . .
68(4) . . .
69(4) . . .
55(4) . . .
68(4) . . .
69(4) . . .
62(4) . . .
61(4) . . .
59(4) . . .
64(4) . . .
68(4) . . .
67(4) . . .
51(4) . . .
59(4) . . .
53(4) . . .
57(4) . . .
59(4) . . .
51(4) . . .
59(4) . . .
63(4) . . .
59(4) . . .
54(4) . . .
64(4) . . .
60(4) . . .
65(4) . . .
60(4) . . .
57(4) . . .
56(4) . . .
66(5) . . .
66(4) . . .
66(4) . . .
65(4) . . .
54(4) . . .
62(4) . . .
69(5) . . .
57(4) . . .
66(4) . . .
58(4) . . .
57(4) . . .
65(4) . . .
53(4) . . .
54(4) . . .
71(5) . . .
60(4) . . .
58(4) . . .
61(4) . . .
62(4) . . .
57(4) . . .
58(4) . . .
69(4) . . .
71(4) . . .
62(4) . . .
75(5) . . .
61(4) . . .
59(4) . . .
60(4) . . .
54(4) . . .
64(4) . . .
52(4) . . .
63(4) . . .
64(4) . . .
60(4) . . .
62(5) . . .
57(4) . . .
62(4) . . .
63(4) . . .
61(4) . . .
59(4) . . .
52(4) . . .
64(4) . . .
46(4) . . .
56(4) . . .
55(4) . . .
58(4) . . .
63(4) . . .
64(4) . . .
66(4) . . .
57(4) . . .
53(4) . . .
69(4) . . .
66(4) . . .
50(4) . . .
59(4) . . .
47(4) . . .
57(4) . . .
57(4) . . .
65(4) . . .
57(4) . . .
62(4) . . .
53(4) . . .
63(4) . . .
56(4) . . .
66(4) . . .
66(4) . . .
66(4) . . .
56(4) . . .
66(4) . . .
65(4) . . .
64(4) . . .
65(4) . . .
61(4) . . .
58(4) . . .
70(4) . . .
62(4) . . .
57(4) . . .
68(5) . . .
62(4) . . .
56(4) . . .
71(4) . . .
56(4) . . .
65(4) . . .
53(4) . . .
47(4) . . .
63(4) . . .
57(4) . . .
62(4) . . .
63(5) . . .
63(4) . . .
70(4) . . .
64(4) . . .
68(4) . . .
67(5) . . .
60(4) . . .
65(4) . . .
53(4) . . .
57(4) . . .
60(5) . . .
55(4) . . .
64(4) . . .
64(4) . . .
48(4) . . .
47(4) . . .
53(4) . . .
70(4) . . .
68(4) . . .
69(5) . . .
71(5) . . .
65(4) . . .
63(4) . . .
67(4) . . .
63(4) . . .
60(4) . . .
64(4) . . .
61(4) . . .
56(4) . . .
64(4) . . .
72(5) . . .
66(4) . . .
56(4) . . .
59(4) . . .
59(4) . . .
55(4) . . .
59(4) . . .
61(4) . . .
78(5) . . .
59(4) . . .
60(4) . . .
51(4) . . .
51(4) . . .
59(4) . . .
67(5) . . .
68(4) . . .
63(4) . . .
56(4) . . .
57(4) . . .
54(4) . . .
58(4) . . .
64(4) . . .
60(4) . . .
66(4) . . .
59(4) . . .
62(4) . . .
58(4) . . .
71(4) . . .
70(4) . . .
59(4) . . .
64(5) . . .
63(4) . . .
64(4) . . .
69(5) . . .
54(4) . . .
58(4) . . .
69(4) . . .
58(4) . . .
60(4) . . .
62(4) . . .
67(4) . . .
60(4) . . .
59(4) . . .
63(4) . . .
59(4) . . .
55(4) . . .
59(4) . . .
58(4) . . .
42.9(34) . . .
55(4) . . .
64(4) . . .
54(4) . . .
55(4) . . .
68(4) . . .
62(4) . . .
66(4) . . .
60(4) . . .
66(4) . . .
41.4(35) . . .
53(4) . . .
53(4) . . .
52(4) . . .
48(4) . . .
52(4) . . .
62(4) . . .
59(4) . . .
66(4) . . .
67(5) . . .
55(4) . . .
57(4) . . .
55(4) . . .
64(4) . . .
48(4) . . .
64(4) . . .
68(4) . . .
55(4) . . .
62(4) . . .
64(4) . . .
52(4) . . .
69(5) . . .
60(4) . . .
56(4) . . .
63(4) . . .
69(5) . . .
60(4) . . .
58(4) . . .
58(4) . . .
52(4) . . .
64(4) . . .
52(4) . . .
55(4) . . .
63(4) . . .
61(4) . . .
61(4) . . .
61(4) . . .
58(4) . . .
62(4) . . .
62(5) . . .
46(4) . . .
56(4) . . .
60(4) . . .
59(4) . . .
56(4) . . .
66(4) . . .
60(4) . . .
60(4) . . .
63(4) . . .
64(4) . . .
73(5) . . .
62(4) . . .
61(4) . . .
58(4) . . .
71(5) . . .
71(5) . . .
66(4) . . .
51(4) . . .
57(4) . . .
59(4) . . .
63(4) . . .
59(4) . . .
61(4) . . .
65(4) . . .
58(4) . . .
57(4) . . .
57(4) . . .
58(4) . . .
68(4) . . .
55(4) . . .
64(4) . . .
57(4) . . .
65(4) . . .
57(4) . . .
55(4) . . .
49(4) . . .
58(4) . . .
57(4) . . .
50(4) . . .
55(4) . . .
51(4) . . .
64(4) . . .
55(4) . . .
60(4) . . .
70(5) . . .
69(4) . . .
61(4) . . .
58(4) . . .
58(4) . . .
49(4) . . .
61(4) . . .
55(4) . . .
62(4) . . .
48(4) . . .
55(4) . . .
61(4) . . .
55(4) . . .
55(4) . . .
58(4) . . .
60(4) . . .
53(4) . . .
53(4) . . .
59(4) . . .
64(4) . . .
53(4) . . .
57(4) . . .
56(4) . . .
62(5) . . .
58(4) . . .
59(4) . . .
63(4) . . .
61(4) . . .
58(4) . . .
63(5) . . .
69(5) . . .
55(4) . . .
57(4) . . .
51(4) . . .
61(4) . . .
65(4) . . .
59(4) . . .
68(4) . . .
67(4) . . .
56(4) . . .
63(4) . . .
58(4) . . .
56(4) . . .
60(4) . . .
72(5) . . .
50(4) . . .
62(4) . . .
64(4) . . .
60(4) . . .
59(4) . . .
65(4) . . .
54(4) . . .
54(4) . . .
52(4) . . .
58(4) . . .
60(4) . . .
60(4) . . .
61(4) . . .
67(4) . . .
56(4) . . .
48(4) . . .
64(4) . . .
70(4) . . .
60(4) . . .
58(4) . . .
66(4) . . .
49(4) . . .
55(4) . . .
45(4) . . .
50(4) . . .
51(4) . . .
71(4) . . .
56(4) . . .
60(4) . . .
65(4) . . .
60(4) . . .
60(4) . . .
52(4) . . .
65(4) . . .
56(4) . . .
52(4) . . .
62(4) . . .
59(4) . . .
62(4) . . .
58(4) . . .
58(4) . . .
64(4) . . .
51(4) . . .
63(5) . . .
59(4) . . .
57(4) . . .
49(4) . . .
65(4) . . .
67(5) . . .
60(4) . . .
61(4) . . .
54(4) . . .
64(4) . . .
58(4) . . .
67(4) . . .
57(4) . . .
58(4) . . .
55(4) . . .
52(4) . . .
46(4) . . .
54(4) . . .
63(4) . . .
56(4) . . .
55(4) . . .
57(4) . . .
61(4) . . .
70(5) . . .
57(4) . . .
58(4) . . .
54(4) . . .
74(4) . . .
52(4) . . .
53(4) . . .
56(4) . . .
60(4) . . .
59(4) . . .
69(4) . . .
62(4) . . .
60(4) . . .
55(4) . . .
55(4) . . .
58(4) . . .
54(4) . . .
54(4) . . .
46(4) . . .
55(4) . . .
58(4) . . .
58(4) . . .
49(4) . . .
50(4) . . .
59(4) . . .
58(4) . . .
60(4) . . .
56(4) . . .
50(4) . . .
67(4) . . .
48(4) . . .
54(4) . . .
61(4) . . .
62(4) . . .
58(4) . . .
59(4) . . .
50(4) . . .
55(4) . . .
68(4) . . .
65(4) . . .
49(4) . . .
69(5) . . .
68(4) . . .
55(4) . . .
68(4) . . .
54(4) . . .
52(4) . . .
60(4) . . .
60(4) . . .
62(4) . . .
66(4) . . .
56(4) . . .
61(4) . . .
49(4) . . .
52(4) . . .
63(4) . . .
65(4) . . .
57(4) . . .
65(4) . . .
58(4) . . .
60(4) . . .
53(4) . . .
54(4) . . .
54(4) . . .
56(4) . . .
70(5) . . .
59(4) . . .
66(4) . . .
69(4) . . .
64(4) . . .
54(4) . . .
56(4) . . .
52(4) . . .
61(4) . . .
61(4) . . .
57(4) . . .
57(4) . . .
64(4) . . .
66(4) . . .
58(4) . . .
50(4) . . .
53(4) . . .
52(4) . . .
67(4) . . .
69(4) . . .
60(4) . . .
69(5) . . .
61(4) . . .
56(4) . . .
68(5) . . .
57(4) . . .
60(4) . . .
57(4) . . .
67(4) . . .
56(4) . . .
54(4) . . .
51(4) . . .
57(4) . . .
59(4) . . .
57(4) . . .
60(4) . . .
57(4) . . .
65(4) . . .
68(4) . . .
65(4) . . .
52(4) . . .
50(4) . . .
52(4) . . .
61(4) . . .
66(5) . . .
53(4) . . .
50(4) . . .
65(4) . . .
52(4) . . .
64(5) . . .
66(5) . . .
63(4) . . .
58(4) . . .
49(4) . . .
64(4) . . .
53(4) . . .
65(4) . . .
70(4) . . .
52(4) . . .
64(4) . . .
62(4) . . .
60(4) . . .
67(4) . . .
54(4) . . .
60(4) . . .
60(4) . . .
52(4) . . .
54(4) . . .
67(4) . . .
54(4) . . .
65(4) . . .
53(4) . . .
65(4) . . .
58(4) . . .
60(4) . . .
59(4) . . .
62(4) . . .
57(4) . . .
66(5) . . .
47(4) . . .
58(4) . . .
57(4) . . .
62(4) . . .
64(4) . . .
50(4) . . .
70(5) . . .
64(4) . . .
69(4) . . .
50(4) . . .
58(4) . . .
52(4) . . .
63(4) . . .
63(4) . . .
73(5) . . .
69(4) . . .
63(4) . . .
57(4) . . .
59(4) . . .
65(5) . . .
59(4) . . .
61(4) . . .
66(4) . . .
64(4) . . .
67(5) . . .
54(4) . . .
61(4) . . .
53(4) . . .
49(4) . . .
53(4) . . .
70(5) . . .
66(4) . . .
62(4) . . .
68(5) . . .
58(4) . . .
59(4) . . .
69(4) . . .
68(4) . . .
59(4) . . .
55(4) . . .
62(4) . . .
77(5) . . .
74(4) . . .
65(4) . . .
56(4) . . .
63(4) . . .
64(4) . . .
62(4) . . .
64(4) . . .
61(4) . . .
58(4) . . .
55(4) . . .
62(4) . . .
50(4) . . .
62(4) . . .
58(4) . . .
52(4) . . .
56(4) . . .
63(4) . . .
62(4) . . .
56(4) . . .
43.0(34) . . .
49(4) . . .
56(4) . . .
52(4) . . .
52(4) . . .
59(4) . . .
51(4) . . .
52(4) . . .
49(4) . . .
54(4) . . .
47(4) . . .
64(4) . . .
59(4) . . .
61(4) . . .
61(4) . . .
64(4) . . .
65(4) . . .
61(4) . . .
49(4) . . .
55(4) . . .
59(4) . . .
56(4) . . .
64(5) . . .
55(4) . . .
50(4) . . .
68(4) . . .
54(4) . . .
51(4) . . .
62(4) . . .
43.5(35) . . .
57(4) . . .
51(4) . . .
62(4) . . .
60(4) . . .
63(4) . . .
59(4) . . .
61(4) . . .
59(4) . . .
55(4) . . .
58(4) . . .
61(4) . . .
55(4) . . .
62(4) . . .
62(4) . . .
52(4) . . .
60(4) . . .
50(4) . . .
66(5) . . .
55(4) . . .
61(4) . . .
59(4) . . .
59(4) . . .
55(4) . . .
60(4) . . .
62(4) . . .
56(4) . . .
67(5) . . .
54(4) . . .
62(4) . . .
61(4) . . .
52(4) . . .
65(5) . . .
61(4) . . .
57(4) . . .
62(4) . . .
58(4) . . .
57(4) . . .
63(4) . . .
61(4) . . .
56(4) . . .
60(4) . . .
57(4) . . .
70(5) . . .
58(4) . . .
49(4) . . .
58(4) . . .
64(4) . . .
63(4) . . .
60(4) . . .
58(4) . . .
59(4) . . .
52(4) . . .
56(4) . . .
60(4) . . .
60(4) . . .
49(4) . . .
72(5) . . .
55(4) . . .
61(4) . . .
61(4) . . .
50(4) . . .
44(4) . . .
54(4) . . .
58(4) . . .
59(4) . . .
61(4) . . .
48(4) . . .
68(4) . . .
64(4) . . .
54(4) . . .
54(4) . . .
49(4) . . .
57(4) . . .
53(4) . . .
60(4) . . .
60(4) . . .
65(4) . . .
68(4) . . .
63(4) . . .
60(4) . . .
67(4) . . .
68(4) . . .
60(4) . . .
62(4) . . .
60(4) . . .
58(4) . . .
51(4) . . .
55(4) . . .
55(4) . . .
56(4) . . .
65(5) . . .
66(4) . . .
50(4) . . .
56(4) . . .
62(4) . . .
56(4) . . .
57(4) . . .
69(4) . . .
61(4) . . .
68(4) . . .
61(4) . . .
64(4) . . .
53(4) . . .
54(4) . . .
65(4) . . .
63(4) . . .
39.2(32) . . .
46.1(35) . . .
56(4) . . .
48(4) . . .
47(4) . . .
64(4) . . .
60(4) . . .
59(4) . . .
62(4) . . .
59(4) . . .
53(4) . . .
65(4) . . .
62(4) . . .
54(4) . . .
56(4) . . .
59(4) . . .
56(4) . . .
54(4) . . .
68(4) . . .
66(4) . . .
65(4) . . .
64(4) . . .
63(4) . . .
60(4) . . .
66(4) . . .
49(4) . . .
58(4) . . .
57(4) . . .
59(4) . . .
64(4) . . .
60(4) . . .
55(4) . . .
62(4) . . .
52(4) . . .
62(4) . . .
71(4) . . .
55(4) . . .
58(4) . . .
64(4) . . .
56(4) . . .
63(4) . . .
63(4) . . .
44(4) . . .
53(4) . . .
58(4) . . .
53(4) . . .
68(4) . . .
53(4) . . .
58(4) . . .
57(4) . . .
54(4) . . .
64(4) . . .
67(5) . . .
59(4) . . .
53(4) . . .
60(4) . . .
58(4) . . .
47(4) . . .
52(4) . . .
56(4) . . .
69(4) . . .
63(4) . . .
66(4) . . .
59(4) . . .
49(4) . . .
52(4) . . .
58(4) . . .
58(4) . . .
55(4) . . .
60(4) . . .
58(4) . . .
54(4) . . .
54(4) . . .
79(5) . . .
58(4) . . .
64(4) . . .
59(4) . . .
59(4) . . .
60(4) . . .
52(4) . . .
60(4) . . .
49(4) . . .
54(4) . . .
55(4) . . .
67(4) . . .
57(4) . . .
52(4) . . .
62(5) . . .
53(4) . . .
61(4) . . .
56(4) . . .
58(4) . . .
61(4) . . .
61(4) . . .
64(4) . . .
61(4) . . .
63(4) . . .
52(4) . . .
49(4) . . .
52(4) . . .
57(4) . . .
68(4) . . .
70(5) . . .
52(4) . . .
58(4) . . .
50(4) . . .
59(4) . . .
51(4) . . .
59(4) . . .
58(4) . . .
58(4) . . .
67(4) . . .
59(4) . . .
51(4) . . .
51(4) . . .
62(4) . . .
53(4) . . .
47(4) . . .
57(4) . . .
66(4) . . .
57(4) . . .
52(4) . . .
60(4) . . .
59(4) . . .
63(4) . . .
58(4) . . .
69(5) . . .
69(5) . . .
51(4) . . .
59(4) . . .
56(4) . . .
46(4) . . .
52(4) . . .
56(4) . . .
65(4) . . .
63(4) . . .
49(4) . . .
71(4) . . .
67(4) . . .
62(4) . . .
56(4) . . .
40.9(32) . . .
50(4) . . .
52(4) . . .
54(4) . . .
64(4) . . .
57(4) . . .
61(4) . . .
56(4) . . .
42.6(35) . . .
60(4) . . .
55(4) . . .
53(4) . . .
61(4) . . .
58(4) . . .
53(4) . . .
52(4) . . .
61(4) . . .
63(4) . . .
47(4) . . .
55(4) . . .
61(5) . . .
53(4) . . .
52(4) . . .
52(4) . . .
52(4) . . .
54(4) . . .
59(4) . . .
59(4) . . .
56(4) . . .
59(4) . . .
54(4) . . .
51(4) . . .
62(4) . . .
53(4) . . .
61(4) . . .
45(4) . . .
53(4) . . .
62(4) . . .
64(4) . . .
57(4) . . .
57(4) . . .
70(4) . . .
49(4) . . .
54(4) . . .
56(4) . . .
70(5) . . .
54(4) . . .
58(4) . . .
50(4) . . .
51(4) . . .
61(4) . . .
58(4) . . .
64(4) . . .
58(4) . . .
64(4) . . .
52(4) . . .
57(4) . . .
61(4) . . .
64(5) . . .
53(4) . . .
36.1(34) . . .
42.5(35) . . .
60(4) . . .
48(4) . . .
61(4) . . .
62(4) . . .
56(4) . . .
61(4) . . .
45(4) . . .
47(4) . . .
59(4) . . .
61(4) . . .
64(5) . . .
45(4) . . .
54(4) . . .
62(4) . . .
55(4) . . .
59(4) . . .
61(4) . . .
65(4) . . .
55(4) . . .
50(4) . . .
56(4) . . .
61(4) . . .
61(4) . . .
60(4) . . .
63(4) . . .
64(4) . . .
60(4) . . .
61(4) . . .
57(4) . . .
57(4) . . .
69(4) . . .
59(4) . . .
53(4) . . .
54(4) . . .
62(4) . . .
52(4) . . .
64(5) . . .
53(4) . . .
49(4) . . .
47(4) . . .
57(4) . . .
56(4) . . .
58(4) . . .
56(4) . . .
67(5) . . .
62(4) . . .
51(4) . . .
60(4) . . .
57(4) . . .
60(4) . . .
62(4) . . .
51(4) . . .
49(4) . . .
57(4) . . .
51(4) . . .
62(4) . . .
59(4) . . .
63(4) . . .
56(4) . . .
45(4) . . .
58(4) . . .
63(4) . . .
55(4) . . .
57(4) . . .
71(5) . . .
61(4) . . .
51(4) . . .
65(4) . . .
66(5) . . .
60(4) . . .
50(4) . . .
72(4) . . .
54(4) . . .
64(4) . . .
53(4) . . .
62(4) . . .
60(4) . . .
58(4) . . .
53(4) . . .
57(4) . . .
62(4) . . .
51(4) . . .
55(4) . . .
59(4) . . .
62(4) . . .
47(4) . . .
54(4) . . .
54(4) . . .
65(5) . . .
56(4) . . .
53(4) . . .
52(4) . . .
59(4) . . .
52(4) . . .
57(4) . . .
59(4) . . .
58(4) . . .
54(4) . . .
61(4) . . .
55(4) . . .
55(4) . . .
61(4) . . .
52(4) . . .
58(4) . . .
62(4) . . .
55(4) . . .
64(4) . . .
65(4) . . .
58(4) . . .
58(4) . . .
67(4) . . .
63(4) . . .
61(4) . . .
63(4) . . .
56(4) . . .
58(4) . . .
63(4) . . .
56(4) . . .
60(4) . . .
66(4) . . .
57(4) . . .
72(5) . . .
57(4) . . .
51(4) . . .
55(4) . . .
59(4) . . .
58(4) . . .
50(4) . . .
59(4) . . .
54(4) . . .
59(4) . . .
60(4) . . .
55(4) . . .
58(4) . . .
67(4) . . .
57(4) . . .
59(4) . . .
61(4) . . .
52(4) . . .
64(4) . . .
59(4) . . .
56(4) . . .
57(4) . . .
57(4) . . .
51(4) . . .
64(4) . . .
60(4) . . .
52(4) . . .
49(4) . . .
58(4) . . .
62(4) . . .
68(5) . . .
65(4) . . .
63(4) . . .
54(4) . . .
63(4) . . .
58(4) . . .
64(5) . . .
44(4) . . .
50(4) . . .
61(4) . . .
55(4) . . .
52(4) . . .
58(4) . . .
37.9(32) . . .
58(4) . . .
64(4) . . .
66(5) . . .
62(4) . . .
57(4) . . .
51(4) . . .
62(4) . . .
62(4) . . .
60(4) . . .
60(4) . . .
63(4) . . .
58(4) . . .
57(4) . . .
59(4) . . .
62(4) . . .
66(4) . . .
58(4) . . .
49(4) . . .
59(4) . . .
52(4) . . .
51(4) . . .
51(4) . . .
51(4) . . .
51(4) . . .
53(4) . . .
61(4) . . .
65(4) . . .
61(4) . . .
65(4) . . .
69(4) . . .
50(4) . . .
56(4) . . .
56(4) . . .
53(4) . . .
54(4) . . .
59(4) . . .
63(4) . . .
58(4) . . .
49(4) . . .
56(4) . . .
53(4) . . .
52(4) . . .
62(4) . . .
55(4) . . .
58(4) . . .
52(4) . . .
57(4) . . .
60(4) . . .
63(4) . . .
58(4) . . .
57(4) . . .
50(4) . . .
61(4) . . .
56(4) . . .
59(4) . . .
65(5) . . .
51(4) . . .
53(4) . . .
56(4) . . .
63(4) . . .
60(5) . . .
58(4) . . .
57(4) . . .
61(4) . . .
57(4) . . .
52(4) . . .
58(4) . . .
53(4) . . .
52(4) . . .
46(4) . . .
57(4) . . .
50(4) . . .
55(4) . . .
59(4) . . .
53(4) . . .
59(4) . . .
63(4) . . .
55(4) . . .
59(4) . . .
56(4) . . .
52(4) . . .
47(4) . . .
46(4) . . .
47(4) . . .
54(4) . . .
58(4) . . .
55(4) . . .
56(4) . . .
49(4) . . .
69(5) . . .
63(4) . . .
50(4) . . .
63(4) . . .
52(4) . . .
54(4) . . .
55(4) . . .
48(4) . . .
64(4) . . .
57(4) . . .
54(4) . . .
57(4) . . .
50(4) . . .
59(4) . . .
54(4) . . .
64(4) . . .
60(4) . . .
59(4) . . .
52(4) . . .
62(4) . . .
57(4) . . .
57(4) . . .
71(4) . . .
54(4) . . .
60(4) . . .
47(4) . . .
59(4) . . .
57(4) . . .
49(4) . . .
52(4) . . .
63(4) . . .
53(4) . . .
62(4) . . .
49(4) . . .
55(4) . . .
62(4) . . .
70(4) . . .
54(4) . . .
55(4) . . .
52(4) . . .
55(4) . . .
57(4) . . .
49(4) . . .
60(4) . . .
56(4) . . .
60(4) . . .
56(4) . . .
62(4) . . .
53(4) . . .
45(4) . . .
53(4) . . .
55(4) . . .
49(4) . . .
59(4) . . .
57(4) . . .
58(4) . . .
51(4) . . .
56(4) . . .
54(4) . . .
56(4) . . .
68(4) . . .
61(4) . . .
59(4) . . .
53(4) . . .
63(4) . . .
51(4) . . .
61(4) . . .
65(4) . . .
68(5) . . .
47(4) . . .
57(4) . . .
66(4) . . .
47(4) . . .
45(4) . . .
54(4) . . .
59(4) . . .
53(4) . . .
60(4) . . .
60(4) . . .
66(5) . . .
62(4) . . .
60(4) . . .
64(4) . . .
55(4) . . .
59(4) . . .
63(4) . . .
62(4) . . .
55(4) . . .
61(4) . . .
53(4) . . .
49(4) . . .
55(4) . . .
49(4) . . .
53(4) . . .
48(4) . . .
43.4(35) . . .
64(4) . . .
49(4) . . .
53(4) . . .
60(4) . . .
53(4) . . .
60(4) . . .
57(4) . . .
54(4) . . .
63(4) . . .
59(4) . . .
66(4) . . .
58(4) . . .
65(4) . . .
63(4) . . .
61(4) . . .
56(4) . . .
50(4) . . .
51(4) . . .
57(4) . . .
59(4) . . .
51(4) . . .
59(4) . . .
55(4) . . .
54(4) . . .
49(4) . . .
59(4) . . .
59(4) . . .
53(4) . . .
51(4) . . .
56(4) . . .
51(4) . . .
51(4) . . .
58(4) . . .
57(4) . . .
57(4) . . .
57(4) . . .
60(4) . . .
57(4) . . .
53(4) . . .
61(4) . . .
59(4) . . .
52(4) . . .
62(4) . . .
63(4) . . .
54(4) . . .
55(4) . . .
48(4) . . .
55(4) . . .
61(4) . . .
51(4) . . .
65(4) . . .
63(4) . . .
61(5) . . .
46(4) . . .
56(4) . . .
58(4) . . .
65(4) . . .
65(4) . . .
53(4) . . .
59(4) . . .
54(4) . . .
59(4) . . .
63(5) . . .
51(4) . . .
57(4) . . .
62(4) . . .
58(4) . . .
53(4) . . .
54(4) . . .
52(4) . . .
57(4) . . .
62(4) . . .
59(4) . . .
53(4) . . .
58(4) . . .
53(4) . . .
46(4) . . .
55(4) . . .
48(4) . . .
58(4) . . .
63(4) . . .
52(4) . . .
46(4) . . .
49(4) . . .
44.3(35) . . .
47(4) . . .
54(4) . . .
62(4) . . .
73(4) . . .
55(4) . . .
65(4) . . .
58(4) . . .
52(4) . . .
55(4) . . .
59(4) . . .
53(4) . . .
53(4) . . .
51(4) . . .
61(4) . . .
53(4) . . .
52(4) . . .
54(4) . . .
58(4) . . .
63(4) . . .
64(4) . . .
61(4) . . .
65(4) . . .
60(4) . . .
54(4) . . .
55(4) . . .
64(4) . . .
55(4) . . .
55(4) . . .
62(4) . . .
55(4) . . .
52(4) . . .
56(4) . . .
48(4) . . .
54(4) . . .
56(4) . . .
55(4) . . .
53(4) . . .
64(4) . . .
60(4) . . .
57(4) . . .
55(4) . . .
56(4) . . .
55(4) . . .
60(4) . . .
60(4) . . .
59(4) . . .
62(4) . . .
54(4) . . .
58(4) . . .
53(4) . . .
59(4) . . .
62(4) . . .
71(5) . . .
55(4) . . .
60(4) . . .
56(4) . . .
57(4) . . .
48(4) . . .
63(4) . . .
57(4) . . .
53(4) . . .
53(4) . . .
61(4) . . .
61(4) . . .
59(4) . . .
67(4) . . .
58(4) . . .
61(4) . . .
56(4) . . .
70(5) . . .
54(4) . . .
50(4) . . .
56(4) . . .
48(4) . . .
65(4) . . .
62(4) . . .
60(4) . . .
49(4) . . .
50(4) . . .
53(4) . . .
52(4) . . .
52(4) . . .
55(4) . . .
52(4) . . .
60(4) . . .
52(4) . . .
52(4) . . .
59(4) . . .
58(4) . . .
46(4) . . .
59(4) . . .
52(4) . . .
53(4) . . .
53(4) . . .
54(4) . . .
62(4) . . .
51(4) . . .
58(4) . . .
54(4) . . .
60(4) . . .
55(4) . . .
57(4) . . .
56(4) . . .
49(4) . . .
57(4) . . .
53(4) . . .
52(4) . . .
56(4) . . .
56(4) . . .
50(4) . . .
56(4) . . .
60(4) . . .
59(4) . . .
53(4) . . .
55(4) . . .
48(4) . . .
57(4) . . .
46(4) . . .
58(4) . . .
54(4) . . .
67(4) . . .
56(4) . . .
60(4) . . .
56(4) . . .
50(4) . . .
53(4) . . .
56(4) . . .
59(4) . . .
48(4) . . .
56(4) . . .
59(4) . . .
53(4) . . .
56(4) . . .
62(4) . . .
55(4) . . .
47(4) . . .
58(4) . . .
63(4) . . .
64(4) . . .
61(4) . . .
49(4) . . .
52(4) . . .
61(4) . . .
69(4) . . .
59(4) . . .
56(4) . . .
60(4) . . .
56(4) . . .
55(4) . . .
55(4) . . .
73(5) . . .
61(4) . . .
50(4) . . .
68(5) . . .
57(4) . . .
49(4) . . .
52(4) . . .
62(4) . . .
54(4) . . .
53(4) . . .
50(4) . . .
59(4) . . .
55(4) . . .
50(4) . . .
59(4) . . .
53(4) . . .
51(4) . . .
56(4) . . .
57(4) . . .
59(4) . . .
55(4) . . .
55(4) . . .
62(4) . . .
52(4) . . .
58(4) . . .
53(4) . . .
56(4) . . .
58(4) . . .
54(4) . . .
62(4) . . .
52(4) . . .
66(4) . . .
50(4) . . .
58(4) . . .
55(4) . . .
56(4) . . .
48(4) . . .
56(4) . . .
49(4) . . .
48(4) . . .
57(4) . . .
59(4) . . .
59(4) . . .
49(4) . . .
60(4) . . .
64(4) . . .
62(4) . . .
55(4) . . .
53(4) . . .
56(4) . . .
57(4) . . .
50(4) . . .
51(4) . . .
53(4) . . .
49(4) . . .
65(4) . . .
57(4) . . .
57(4) . . .
48(4) . . .
51(4) . . .
52(4) . . .
61(4) . . .
68(5) . . .
58(4) . . .
48(4) . . .
53(4) . . .
62(4) . . .
60(4) . . .
58(4) . . .
56(4) . . .
46(4) . . .
55(4) . . .
50(4) . . .
60(4) . . .
50(4) . . .
56(4) . . .
53(4) . . .
58(4) . . .
55(4) . . .
51(4) . . .
56(4) . . .
56(4) . . .
54(4) . . .
52(4) . . .
54(4) . . .
59(4) . . .
40.6(33) . . .
44.7(35) . . .
62(4) . . .
60(4) . . .
50(4) . . .
55(4) . . .
52(4) . . .
65(4) . . .
51(4) . . .
57(4) . . .
54(4) . . .
54(4) . . .
45(4) . . .
58(4) . . .
60(4) . . .
61(5) . . .
50(4) . . .
51(4) . . .
45.4(35) . . .
46(4) . . .
62(5) . . .
51(4) . . .
49(4) . . .
45.7(35) . . .
55(4) . . .
59(4) . . .
44(4) . . .
44(4) . . .
58(4) . . .
51(4) . . .
58(4) . . .
52(4) . . .
57(4) . . .
58(4) . . .
65(4) . . .
54(4) . . .
50(4) . . .
45.1(35) . . .
51(4) . . .
56(4) . . .
48(4) . . .
56(4) . . .
47(4) . . .
51(4) . . .
58(4) . . .
63(4) . . .
53(4) . . .
49(4) . . .
62(4) . . .
51(4) . . .
51(4) . . .
58(4) . . .
49(4) . . .
39.3(35) . . .
53(4) . . .
56(4) . . .
63(4) . . .
57(4) . . .
63(4) . . .
52(4) . . .
50(4) . . .
55(4) . . .
55(4) . . .
57(4) . . .
61(4) . . .
58(4) . . .
61(4) . . .
55(4) . . .
54(4) . . .
47(4) . . .
54(4) . . .
61(4) . . .
49(4) . . .
51(4) . . .
62(4) . . .
66(4) . . .
54(4) . . .
54(4) . . .
57(4) . . .
54(4) . . .
53(4) . . .
50(4) . . .
52(4) . . .
58(4) . . .
55(4) . . .
63(4) . . .
55(4) . . .
50(4) . . .
52(4) . . .
63(4) . . .
48(4) . . .
43.6(35) . . .
45(4) . . .
51(4) . . .
45(4) . . .
50(4) . . .
48(4) . . .
45(4) . . .
56(4) . . .
54(4) . . .
47(4) . . .
58(4) . . .
53(4) . . .
59(4) . . .
57(4) . . .
54(4) . . .
51(4) . . .
49(4) . . .
55(4) . . .
60(4) . . .
53(4) . . .
52(4) . . .
51(4) . . .
58(4) . . .
59(4) . . .
52(4) . . .
47(4) . . .
56(4) . . .
58(4) . . .
51(4) . . .
53(4) . . .
61(4) . . .
55(4) . . .
53(4) . . .
47(4) . . .
51(4) . . .
60(4) . . .
61(4) . . .
59(4) . . .
49(4) . . .
57(4) . . .
53(4) . . .
43.9(34) . . .
50(4) . . .
51(4) . . .
53(4) . . .
55(4) . . .
44.2(35) . . .
44(4) . . .
60(4) . . .
47(4) . . .
56(4) . . .
63(4) . . .
59(4) . . .
58(4) . . .
43.2(34) . . .
52(4) . . .
52(4) . . .
54(4) . . .
58(4) . . .
48(4) . . .
51(4) . . .
45(4) . . .
55(4) . . .
70(4) . . .
61(4) . . .
39.3(33) . . .
45(4) . . .
52(4) . . .
49(4) . . .
56(4) . . .
53(4) . . .
43(4) . . .
56(4) . . .
53(4) . . .
53(4) . . .
58(4) . . .
59(4) . . .
47(4) . . .
53(4) . . .
53(4) . . .
52(4) . . .
49(4) . . .
60(4) . . .
56(4) . . .
55(4) . . .
50(4) . . .
41(4) . . .
49(4) . . .
55(4) . . .
52(4) . . .
55(4) . . .
52(4) . . .
57(4) . . .
52(4) . . .
54(4) . . .
57(4) . . .
57(4) . . .
50(4) . . .
52(4) . . .
56(4) . . .
60(4) . . .
59(4) . . .
60(4) . . .
54(4) . . .
58(4) . . .
59(4) . . .
51(4) . . .
55(4) . . .
48(4) . . .
57(4) . . .
56(4) . . .
58(4) . . .
55(4) . . .
45(4) . . .
50(4) . . .
53(4) . . .
55(4) . . .
51(4) . . .
45.7(35) . . .
63(4) . . .
49(4) . . .
46(4) . . .
56(4) . . .
64(4) . . .
55(4) . . .
52(4) . . .
56(4) . . .
52(4) . . .
53(4) . . .
59(4) . . .
53(4) . . .
46(4) . . .
50(4) . . .
56(4) . . .
60(4) . . .
61(4) . . .
56(4) . . .
62(4) . . .
55(4) . . .
58(4) . . .
54(4) . . .
63(4) . . .
57(4) . . .
63(4) . . .
55(4) . . .
51(4) . . .
54(4) . . .
53(4) . . .
58(4) . . .
47(4) . . .
53(4) . . .
55(4) . . .
50(4) . . .
55(4) . . .
59(4) . . .
51(4) . . .
52(4) . . .
57(4) . . .
51(4) . . .
49(4) . . .
60(4) . . .
59(4) . . .
61(4) . . .
57(4) . . .
42.7(34) . . .
53(4) . . .
50(4) . . .
45.2(34) . . .
48(4) . . .
58(4) . . .
46(4) . . .
57(4) . . .
65(4) . . .
61(4) . . .
54(4) . . .
53(4) . . .
56(4) . . .
45.6(35) . . .
47(4) . . .
49(4) . . .
58(4) . . .
59(4) . . .
54(4) . . .
50(4) . . .
41.8(35) . . .
51(4) . . .
57(4) . . .
55(4) . . .
54(4) . . .
54(4) . . .
60(4) . . .
53(4) . . .
55(4) . . .
52(4) . . .
51(4) . . .
58(4) . . .
62(4) . . .
48(4) . . .
51(4) . . .
53(4) . . .
58(4) . . .
64(4) . . .
54(4) . . .
48(4) . . .
52(4) . . .
49(4) . . .
43.8(35) . . .
55(4) . . .
57(4) . . .
58(4) . . .
57(4) . . .
60(4) . . .
53(4) . . .
58(4) . . .
52(4) . . .
64(4) . . .
60(4) . . .
58(4) . . .
52(4) . . .
58(4) . . .
56(4) . . .
50(4) . . .
52(4) . . .
49(4) . . .
43.2(34) . . .
63(4) . . .
59(4) . . .
58(4) . . .
55(4) . . .
52(4) . . .
56(4) . . .
53(4) . . .
47(4) . . .
53(4) . . .
69(5) . . .
49(4) . . .
60(4) . . .
57(4) . . .
56(4) . . .
47(4) . . .
56(4) . . .
48(4) . . .
55(4) . . .
52(4) . . .
53(4) . . .
54(4) . . .
58(4) . . .
52(4) . . .
56(4) . . .
63(4) . . .
54(4) . . .
54(4) . . .
44.1(33) . . .
62(4) . . .
59(4) . . .
62(4) . . .
58(4) . . .
52(4) . . .
51(4) . . .
46(4) . . .
58(4) . . .
43.4(35) . . .
62(4) . . .
52(4) . . .
51(4) . . .
40.7(34) . . .
39.0(35) . . .
53(4) . . .
54(4) . . .
53(4) . . .
52(4) . . .
54(4) . . .
56(4) . . .
56(4) . . .
53(4) . . .
50(4) . . .
49(4) . . .
48(4) . . .
53(4) . . .
49(4) . . .
60(4) . . .
51(4) . . .
53(4) . . .
57(4) . . .
58(4) . . .
57(4) . . .
52(4) . . .
49(4) . . .
57(4) . . .
46(4) . . .
49(4) . . .
52(4) . . .
51(4) . . .
59(4) . . .
55(4) . . .
54(4) . . .
59(4) . . .
62(4) . . .
52(4) . . .
61(4) . . .
57(4) . . .
64(4) . . .
53(4) . . .
63(4) . . .
56(4) . . .
49(4) . . .
50(4) . . .
49(4) . . .
53(4) . . .
57(4) . . .
66(4) . . .
47(4) . . .
54(4) . . .
50(4) . . .
53(4) . . .
56(4) . . .
56(4) . . .
54(4) . . .
57(4) . . .
64(4) . . .
52(4) . . .
55(4) . . .
57(4) . . .
47(4) . . .
53(4) . . .
49(4) . . .
46(4) . . .
54(4) . . .
54(4) . . .
54(4) . . .
50(4) . . .
48(4) . . .
51(4) . . .
50(4) . . .
54(4) . . .
55(4) . . .
58(4) . . .
43.5(34) . . .
55(4) . . .
53(4) . . .
58(4) . . .
47(4) . . .
49(4) . . .
48(4) . . .
54(4) . . .
58(4) . . .
56(4) . . .
50(4) . . .
59(4) . . .
71(4) . . .
67(4) . . .
55(4) . . .
52(4) . . .
56(4) . . .
50(4) . . .
57(4) . . .
55(4) . . .
49(4) . . .
50(4) . . .
51(4) . . .
51(4) . . .
54(4) . . .
55(4) . . .
48(4) . . .
55(4) . . .
47(4) . . .
58(4) . . .
53(4) . . .
49(4) . . .
59(4) . . .
48(4) . . .
44.0(34) . . .
56(4) . . .
52(4) . . .
45(4) . . .
56(4) . . .
60(4) . . .
56(4) . . .
54(4) . . .
53(4) . . .
51(4) . . .
51(4) . . .
51(4) . . .
41.1(33) . . .
61(4) . . .
49(4) . . .
62(4) . . .
56(4) . . .
54(4) . . .
50(4) . . .
58(4) . . .
58(4) . . .
44.4(35) . . .
46(4) . . .
43.7(35) . . .
56(4) . . .
55(4) . . .
58(4) . . .
52(4) . . .
51(4) . . .
44(4) . . .
55(4) . . .
54(4) . . .
42.2(33) . . .
45(4) . . .
45(4) . . .
54(4) . . .
51(4) . . .
57(4) . . .
48(4) . . .
53(4) . . .
59(4) . . .
54(4) . . .
50(4) . . .
53(4) . . .
42.3(34) . . .
51(4) . . .
58(4) . . .
62(4) . . .
68(4) . . .
51(4) . . .
40.3(33) . . .
59(4) . . .
52(4) . . .
51(4) . . .
47(4) . . .
53(4) . . .
50(4) . . .
56(4) . . .
49(4) . . .
48(4) . . .
59(4) . . .
48(4) . . .
48(4) . . .
46(4) . . .
48(4) . . .
47(4) . . .
56(4) . . .
54(4) . . .
58(4) . . .
52(4) . . .
52(4) . . .
56(4) . . .
54(4) . . .
54(4) . . .
51(4) . . .
67(4) . . .
57(4) . . .
49(4) . . .
55(4) . . .
50(4) . . .
51(4) . . .
62(4) . . .
58(4) . . .
57(4) . . .
47(4) . . .
61(4) . . .
52(4) . . .
50(4) . . .
57(4) . . .
54(4) . . .
58(4) . . .
49(4) . . .
43.8(35) . . .
50(4) . . .
56(4) . . .
56(4) . . .
55(4) . . .
46(4) . . .
51(4) . . .
50(4) . . .
55(4) . . .
54(4) . . .
47(4) . . .
48(4) . . .
50(4) . . .
50(4) . . .
56(4) . . .
47(4) . . .
68(5) . . .
63(4) . . .
50(4) . . .
62(4) . . .
49(4) . . .
54(4) . . .
48(4) . . .
58(4) . . .
56(4) . . .
59(4) . . .
56(4) . . .
54(4) . . .
50(4) . . .
49(4) . . .
54(4) . . .
54(4) . . .
49(4) . . .
51(4) . . .
59(4) . . .
67(5) . . .
47(4) . . .
45.7(35) . . .
58(4) . . .
57(4) . . .
54(4) . . .
46(4) . . .
39.5(33) . . .
43(4) . . .
47(4) . . .
47(4) . . .
53(4) . . .
47(4) . . .
47(4) . . .
46(4) . . .
53(4) . . .
50(4) . . .
49(4) . . .
45(4) . . .
55(4) . . .
52(4) . . .
39.9(34) . . .
53(4) . . .
46(4) . . .
52(4) . . .
41.0(35) . . .
49(4) . . .
51(4) . . .
53(4) . . .
49(4) . . .
54(4) . . .
52(4) . . .
57(4) . . .
62(4) . . .
52(4) . . .
45(4) . . .
45.8(35) . . .
51(4) . . .
56(4) . . .
45(4) . . .
52(4) . . .
58(4) . . .
54(4) . . .
51(4) . . .
45(4) . . .
60(4) . . .
62(4) . . .
62(4) . . .
57(4) . . .
51(4) . . .
49(4) . . .
56(4) . . .
57(4) . . .
59(4) . . .
59(4) . . .
49(4) . . .
51(4) . . .
53(4) . . .
50(4) . . .
53(4) . . .
46(4) . . .
47(4) . . .
61(4) . . .
63(4) . . .
61(4) . . .
57(4) . . .
53(4) . . .
47(4) . . .
41.5(34) . . .
43.0(35) . . .
44.3(35) . . .
47(4) . . .
49(4) . . .
46(4) . . .
39.8(33) . . .
58(4) . . .
62(4) . . .
68(5) . . .
58(4) . . .
55(4) . . .
56(4) . . .
52(4) . . .
53(4) . . .
51(4) . . .
47(4) . . .
44.9(35) . . .
50(4) . . .
51(4) . . .
58(4) . . .
50(4) . . .
57(4) . . .
56(4) . . .
60(4) . . .
50(4) . . .
48(4) . . .
51(4) . . .
60(4) . . .
46(4) . . .
56(4) . . .
59(4) . . .
45(4) . . .
56(4) . . .
52(4) . . .
51(4) . . .
51(4) . . .
59(4) . . .
48(4) . . .
49(4) . . .
45(4) . . .
49(4) . . .
43.7(35) . . .
43(4) . . .
47(4) . . .
55(4) . . .
50(4) . . .
41.3(34) . . .
53(4) . . .
59(4) . . .
54(4) . . .
47(4) . . .
47(4) . . .
61(4) . . .
56(4) . . .
45(4) . . .
50(4) . . .
46(4) . . .
48(4) . . .
51(4) . . .
55(4) . . .
58(4) . . .
58(4) . . .
61(4) . . .
55(4) . . .
38.4(31) . . .
49(4) . . .
54(4) . . .
40.4(33) . . .
38.1(35) . . .
45(4) . . .
51(4) . . .
54(4) . . .
54(4) . . .
58(4) . . .
62(4) . . .
51(4) . . .
45(4) . . .
51(4) . . .
51(4) . . .
51(4) . . .
45(4) . . .
43.1(35) . . .
53(4) . . .
53(4) . . .
51(4) . . .
53(4) . . .
46(4) . . .
49(4) . . .
46(4) . . .
50(4) . . .
59(4) . . .
56(4) . . .
54(4) . . .
53(4) . . .
58(4) . . .
57(4) . . .
52(4) . . .
50(4) . . .
60(4) . . .
63(4) . . .
44.0(35) . . .
49(4) . . .
42.7(34) . . .
58(4) . . .
51(4) . . .
38.7(33) . . .
46(4) . . .
49(4) . . .
48(4) . . .
53(4) . . .
48(4) . . .
55(4) . . .
49(4) . . .
42.5(35) . . .
43.5(34) . . .
47(4) . . .
47(4) . . .
43(4) . . .
49(4) . . .
51(4) . . .
54(4) . . .
53(4) . . .
54(4) . . .
55(4) . . .
51(4) . . .
50(4) . . .
61(4) . . .
58(4) . . .
53(4) . . .
57(4) . . .
62(4) . . .
54(4) . . .
43(4) . . .
51(4) . . .
52(4) . . .
53(4) . . .
50(4) . . .
45(4) . . .
40.5(34) . . .
44.7(35) . . .
51(4) . . .
44(4) . . .
62(5) . . .
56(4) . . .
56(4) . . .
54(4) . . .
46(4) . . .
48(4) . . .
53(4) . . .
61(4) . . .
46.3(35) . . .
53(4) . . .
57(4) . . .
43.3(34) . . .
51(4) . . .
49(4) . . .
48(4) . . .
42.6(35) . . .
53(4) . . .
43.8(34) . . .
44.3(35) . . .
50(4) . . .
60(4) . . .
47(4) . . .
49(4) . . .
48(4) . . .
61(4) . . .
53(4) . . .
51(4) . . .
49(4) . . .
51(4) . . .
50(4) . . .
42.1(34) . . .
38.5(32) . . .
50(4) . . .
44(4) . . .
57(4) . . .
43.4(35) . . .
51(4) . . .
57(4) . . .
55(4) . . .
42.4(34) . . .
54(4) . . .
56(4) . . .
47(4) . . .
47(4) . . .
46(4) . . .
41.8(34) . . .
55(4) . . .
57(4) . . .
53(4) . . .
66(5) . . .
55(4) . . .
62(4) . . .
47(4) . . .
52(4) . . .
53(4) . . .
55(4) . . .
50(4) . . .
56(4) . . .
54(4) . . .
48(4) . . .
48(4) . . .
46(4) . . .
40(4) . . .
50(4) . . .
52(4) . . .
50(4) . . .
42.9(35) . . .
53(4) . . .
44(4) . . .
47(4) . . .
43.0(35) . . .
49(4) . . .
47(4) . . .
48(4) . . .
54(4) . . .
49(4) . . .
47(4) . . .
53(4) . . .
47(4) . . .
58(4) . . .
61(4) . . .
54(4) . . .
54(4) . . .
51(4) . . .
48(4) . . .
60(4) . . .
59(4) . . .
48(4) . . .
53(4) . . .
45(4) . . .
49(4) . . .
53(4) . . .
59(4) . . .
52(4) . . .
53(4) . . .
51(4) . . .
52(4) . . .
48(4) . . .
57(4) . . .
58(4) . . .
47(4) . . .
51(4) . . .
44(4) . . .
50(4) . . .
48(4) . . .
52(4) . . .
52(4) . . .
52(4) . . .
49(4) . . .
55(4) . . .
42.2(34) . . .
51(4) . . .
53(4) . . .
53(4) . . .
42.8(35) . . .
44.0(35) . . .
43.3(34) . . .
58(4) . . .
52(4) . . .
50(4) . . .
55(4) . . .
51(4) . . .
51(4) . . .
42.7(35) . . .
50(4) . . .
56(4) . . .
41.6(35) . . .
56(4) . . .
48(4) . . .
56(4) . . .
56(4) . . .
47(4) . . .
46(4) . . .
53(4) . . .
50(4) . . .
51(4) . . .
48(4) . . .
50(4) . . .
53(4) . . .
54(4) . . .
57(4) . . .
54(4) . . .
49(4) . . .
56(4) . . .
50(4) . . .
52(4) . . .
45(4) . . .
49(4) . . .
50(4) . . .
47(4) . . .
63(5) . . .
53(4) . . .
45(4) . . .
51(4) . . .
61(4) . . .
52(4) . . .
53(4) . . .
63(5) . . .
49(4) . . .
49(4) . . .
61(4) . . .
59(4) . . .
50(4) . . .
53(4) . . .
50(4) . . .
50(4) . . .
56(4) . . .
54(4) . . .
48(4) . . .
51(4) . . .
51(4) . . .
60(4) . . .
53(4) . . .
52(4) . . .
48(4) . . .
40.6(34) . . .
43(4) . . .
36.8(33) . . .
46(4) . . .
48(4) . . .
45(4) . . .
42(4) . . .
47(4) . . .
62(4) . . .
55(4) . . .
55(4) . . .
47(4) . . .
52(4) . . .
46(4) . . .
62(4) . . .
42.2(34) . . .
49(4) . . .
53(4) . . .
49(4) . . .
46(4) . . .
53(4) . . .
52(4) . . .
48(4) . . .
52(4) . . .
58(4) . . .
63(4) . . .
50(4) . . .
49(4) . . .
57(4) . . .
54(4) . . .
59(4) . . .
53(4) . . .
57(4) . . .
58(4) . . .
46(4) . . .
48(4) . . .
62(4) . . .
50(4) . . .
57(4) . . .
43(4) . . .
54(4) . . .
52(4) . . .
58(4) . . .
45.3(35) . . .
44(4) . . .
49(4) . . .
47(4) . . .
53(4) . . .
57(4) . . .
59(4) . . .
41.1(35) . . .
35.6(31) . . .
43.1(34) . . .
49(4) . . .
44(4) . . .
47(4) . . .
50(4) . . .
41.5(33) . . .
47(4) . . .
54(4) . . .
53(4) . . .
51(4) . . .
47(4) . . .
39.0(33) . . .
47(4) . . .
46(4) . . .
52(4) . . .
46(4) . . .
44(4) . . .
52(4) . . .
49(4) . . .
46(4) . . .
38.8(32) . . .
58(4) . . .
40.5(33) . . .
48(4) . . .
54(4) . . .
51(4) . . .
52(4) . . .
41.0(34) . . .
56(4) . . .
55(4) . . .
50(4) . . .
49(4) . . .
56(4) . . .
48(4) . . .
51(4) . . .
47(4) . . .
47(4) . . .
52(4) . . .
55(4) . . .
55(4) . . .
41.3(34) . . .
50(4) . . .
43(4) . . .
58(4) . . .
58(4) . . .
50(4) . . .
50(4) . . .
58(4) . . .
53(4) . . .
52(4) . . .
49(4) . . .
48(4) . . .
47(4) . . .
47(4) . . .
43.1(34) . . .
52(4) . . .
47(4) . . .
51(4) . . .
59(4) . . .
54(4) . . .
43.8(35) . . .
47(4) . . .
51(4) . . .
36.5(34) . . .
53(4) . . .
51(4) . . .
52(4) . . .
50(4) . . .
51(4) . . .
45.2(35) . . .
56(4) . . .
46(4) . . .
59(4) . . .
58(4) . . .
51(4) . . .
54(4) . . .
54(4) . . .
49(4) . . .
47(4) . . .
53(4) . . .
44.5(35) . . .
43(4) . . .
52(4) . . .
47(4) . . .
46(4) . . .
47(4) . . .
40.5(34) . . .
54(4) . . .
50(4) . . .
48(4) . . .
57(4) . . .
52(4) . . .
47(4) . . .
57(4) . . .
48(4) . . .
54(4) . . .
42(4) . . .
42.0(34) . . .
56(4) . . .
46(4) . . .
50(4) . . .
54(4) . . .
55(4) . . .
59(4) . . .
52(4) . . .
62(4) . . .
49(4) . . .
45(4) . . .
46.0(35) . . .
41.1(33) . . .
45(4) . . .
53(4) . . .
54(4) . . .
51(4) . . .
50(4) . . .
48(4) . . .
49(4) . . .
39.6(33) . . .
53(4) . . .
48(4) . . .
55(4) . . .
47(4) . . .
49(4) . . .
43.3(34) . . .
52(4) . . .
48(4) . . .
47(4) . . .
53(4) . . .
48(4) . . .
54(4) . . .
40.9(34) . . .
52(4) . . .
50(4) . . .
50(4) . . .
46(4) . . .
61(5) . . .
58(4) . . .
53(4) . . .
47(4) . . .
44.0(35) . . .
51(4) . . .
46(4) . . .
49(4) . . .
43.2(34) . . .
52(4) . . .
47(4) . . .
39.5(34) . . .
51(4) . . .
55(4) . . .
53(4) . . .
48(4) . . .
52(4) . . .
56(4) . . .
49(4) . . .
44(4) . . .
45(4) . . .
52(4) . . .
59(4) . . .
48(4) . . .
49(4) . . .
47(4) . . .
48(4) . . .
57(4) . . .
50(4) . . .
42.2(33) . . .
49(4) . . .
43.9(35) . . .
49(4) . . .
52(4) . . .
52(4) . . .
56(4) . . .
45(4) . . .
45(4) . . .
54(4) . . .
55(4) . . .
56(4) . . .
47(4) . . .
48(4) . . .
50(4) . . .
55(4) . . .
40.7(33) . . .
46(4) . . .
54(4) . . .
45(4) . . .
56(4) . . .
53(4) . . .
46(4) . . .
56(4) . . .
45(4) . . .
50(4) . . .
48(4) . . .
55(4) . . .
58(4) . . .
52(4) . . .
38.6(33) . . .
40.7(34) . . .
47(4) . . .
38.6(33) . . .
45(4) . . .
44(4) . . .
52(4) . . .
45.5(35) . . .
57(4) . . .
44(4) . . .
48(4) . . .
58(5) . . .
51(4) . . .
47(4) . . .
37.7(33) . . .
40.9(34) . . .
50(4) . . .
52(4) . . .
44.8(35) . . .
51(4) . . .
48(4) . . .
50(4) . . .
51(4) . . .
48(4) . . .
46(4) . . .
55(4) . . .
60(4) . . .
46(4) . . .
55(4) . . .
63(4) . . .
62(4) . . .
53(4) . . .
65(4) . . .
53(4) . . .
48(4) . . .
47(4) . . .
50(4) . . .
51(4) . . .
48(4) . . .
55(4) . . .
51(4) . . .
54(4) . . .
50(4) . . .
36.0(31) . . .
47(4) . . .
63(5) . . .
52(4) . . .
49(4) . . .
49(4) . . .
50(4) . . .
46(4) . . .
56(4) . . .
44.4(34) . . .
54(4) . . .
49(4) . . .
53(4) . . .
46(4) . . .
47(4) . . .
41.9(35) . . .
57(4) . . .
42.9(35) . . .
48(4) . . .
52(4) . . .
48(4) . . .
48(4) . . .
53(4) . . .
51(4) . . .
53(4) . . .
44(4) . . .
40.4(35) . . .
48(4) . . .
46(4) . . .
41.6(33) . . .
57(4) . . .
54(4) . . .
55(4) . . .
47(4) . . .
50(4) . . .
50(4) . . .
51(4) . . .
50(4) . . .
51(4) . . .
51(4) . . .
50(4) . . .
52(4) . . .
54(4) . . .
51(4) . . .
46(4) . . .
45(4) . . .
42.0(34) . . .
45(4) . . .
47(4) . . .
46(4) . . .
47(4) . . .
39.6(34) . . .
40.6(35) . . .
44.7(35) . . .
48(4) . . .
56(4) . . .
38.7(32) . . .
52(4) . . .
52(4) . . .
60(4) . . .
45(4) . . .
53(4) . . .
52(4) . . .
38.5(31) . . .
48(4) . . .
53(4) . . .
44(4) . . .
45.1(35) . . .
48(4) . . .
49(4) . . .
55(4) . . .
55(4) . . .
45.5(35) . . .
49(4) . . .
53(4) . . .
54(4) . . .
51(4) . . .
41.2(33) . . .
45.4(35) . . .
52(4) . . .
54(4) . . .
44(4) . . .
52(4) . . .
53(4) . . .
57(4) . . .
48(4) . . .
37.2(32) . . .
46(4) . . .
48(4) . . .
58(4) . . .
52(4) . . .
37.8(32) . . .
48(4) . . .
54(4) . . .
50(4) . . .
52(4) . . .
46(4) . . .
45.1(35) . . .
49(4) . . .
50(4) . . .
45(4) . . .
53(4) . . .
50(4) . . .
53(4) . . .
46(4) . . .
57(4) . . .
53(4) . . .
53(4) . . .
46(4) . . .
56(4) . . .
47(4) . . .
47(4) . . .
53(4) . . .
50(4) . . .
50(4) . . .
58(4) . . .
50(4) . . .
47(4) . . .
54(4) . . .
55(4) . . .
53(4) . . .
42.3(34) . . .
46(4) . . .
47(4) . . .
42.1(34) . . .
55(4) . . .
46(4) . . .
46(4) . . .
53(4) . . .
45(4) . . .
48(4) . . .
52(4) . . .
49(4) . . .
47(4) . . .
53(4) . . .
58(4) . . .
52(4) . . .
55(4) . . .
52(4) . . .
52(4) . . .
40.9(34) . . .
43.0(34) . . .
51(4) . . .
51(4) . . .
42.9(33) . . .
47(4) . . .
49(4) . . .
46(4) . . .
54(4) . . .
49(4) . . .
53(4) . . .
54(4) . . .
49(4) . . .
49(4) . . .
45(4) . . .
41.4(34) . . .
48(4) . . .
42.9(34) . . .
58(4) . . .
50(4) . . .
48(4) . . .
53(4) . . .
40.0(33) . . .
53(4) . . .
52(4) . . .
66(4) . . .
51(4) . . .
45(4) . . .
46(4) . . .
48(4) . . .
36.5(32) . . .
45.7(35) . . .
52(4) . . .
48(4) . . .
54(4) . . .
48(4) . . .
49(4) . . .
41.5(34) . . .
56(4) . . .
48(4) . . .
45(4) . . .
48(4) . . .
46(4) . . .
50(4) . . .
45.0(35) . . .
49(4) . . .
50(4) . . .
51(4) . . .
53(4) . . .
46(4) . . .
53(4) . . .
44(4) . . .
44(4) . . .
45(4) . . .
52(4) . . .
58(4) . . .
46(4) . . .
43(4) . . .
50(4) . . .
55(4) . . .
52(4) . . .
40.6(34) . . .
50(4) . . .
46(4) . . .
51(4) . . .
45.5(35) . . .
52(4) . . .
44(4) . . .
52(4) . . .
49(4) . . .
48(4) . . .
58(4) . . .
50(4) . . .
48(4) . . .
47(4) . . .
53(4) . . .
40.6(35) . . .
46(4) . . .
49(4) . . .
47(4) . . .
43.8(34) . . .
46(4) . . .
53(4) . . .
49(4) . . .
49(4) . . .
47(4) . . .
47(4) . . .
62(4) . . .
54(4) . . .
51(4) . . .
53(4) . . .
54(4) . . .
57(4) . . .
44(4) . . .
53(4) . . .
52(4) . . .
46(4) . . .
56(4) . . .
37.0(33) . . .
40.6(33) . . .
47(4) . . .
55(4) . . .
58(4) . . .
48(4) . . .
50(4) . . .
56(4) . . .
45(4) . . .
50(4) . . .
46(4) . . .
45(4) . . .
55(4) . . .
49(4) . . .
55(4) . . .
51(4) . . .
45(4) . . .
46.3(35) . . .
49(4) . . .
50(4) . . .
50(4) . . .
52(4) . . .
51(4) . . .
49(4) . . .
56(4) . . .
52(4) . . .
41.8(34) . . .
45(4) . . .
47(4) . . .
48(4) . . .
41.8(33) . . .
45(4) . . .
51(4) . . .
57(4) . . .
46(4) . . .
40.5(33) . . .
35.1(31) . . .
49(4) . . .
50(4) . . .
48(4) . . .
48(4) . . .
68(5) . . .
49(4) . . .
48(4) . . .
49(4) . . .
45.9(35) . . .
46(4) . . .
40.3(33) . . .
49(4) . . .
56(4) . . .
40.8(33) . . .
52(4) . . .
58(4) . . .
54(4) . . .
47(4) . . .
49(4) . . .
55(4) . . .
50(4) . . .
44(4) . . .
49(4) . . .
46(4) . . .
40.5(34) . . .
46(4) . . .
54(4) . . .
63(4) . . .
50(4) . . .
55(4) . . .
52(4) . . .
46(4) . . .
43(4) . . .
55(4) . . .
48(4) . . .
44(4) . . .
42(4) . . .
50(4) . . .
49(4) . . .
47(4) . . .
42(4) . . .
49(4) . . .
51(4) . . .
57(4) . . .
52(4) . . .
52(4) . . .
46(4) . . .
47(4) . . .
60(4) . . .
48(4) . . .
55(4) . . .
41.7(35) . . .
40.3(33) . . .
56(4) . . .
57(4) . . .
59(4) . . .
43.3(35) . . .
40.9(33) . . .
45(4) . . .
44.5(35) . . .
58(4) . . .
51(4) . . .
56(4) . . .
51(4) . . .
48(4) . . .
55(4) . . .
57(4) . . .
51(4) . . .
60(4) . . .
53(4) . . .
44.6(34) . . .
50(4) . . .
40.1(33) . . .
44(4) . . .
47(4) . . .
42.6(34) . . .
49(4) . . .
47(4) . . .
49(4) . . .
47(4) . . .
44(4) . . .
58(4) . . .
58(4) . . .
46(4) . . .
41.2(33) . . .
48(4) . . .
40.2(33) . . .
35.0(31) . . .
50(4) . . .
40(4) . . .
50(4) . . .
58(4) . . .
48(4) . . .
43.3(35) . . .
47(4) . . .
49(4) . . .
48(4) . . .
52(4) . . .
51(4) . . .
47(4) . . .
46(4) . . .
54(4) . . .
56(4) . . .
60(4) . . .
43.1(34) . . .
56(4) . . .
58(4) . . .
59(4) . . .
41.9(35) . . .
56(4) . . .
59(4) . . .
48(4) . . .
58(4) . . .
51(4) . . .
40.9(34) . . .
40.7(35) . . .
45.7(35) . . .
52(4) . . .
45.1(35) . . .
57(4) . . .
52(4) . . .
44.4(34) . . .
51(4) . . .
35.2(32) . . .
38.0(33) . . .
49(4) . . .
52(4) . . .
47(4) . . .
44(4) . . .
46(4) . . .
50(4) . . .
48(4) . . .
47(4) . . .
53(4) . . .
40.4(33) . . .
42.1(35) . . .
40.3(33) . . .
46(4) . . .
46(4) . . .
51(4) . . .
56(4) . . .
47(4) . . .
47(4) . . .
44(4) . . .
55(4) . . .
45.2(35) . . .
52(4) . . .
47(4) . . .
42.5(34) . . .
47(4) . . .
41.0(33) . . .
53(4) . . .
47(4) . . .
50(4) . . .
46(4) . . .
50(4) . . .
49(4) . . .
50(4) . . .
52(4) . . .
49(4) . . .
44.9(35) . . .
43.1(34) . . .
42.7(34) . . .
52(4) . . .
46(4) . . .
43.7(35) . . .
46(4) . . .
48(4) . . .
50(4) . . .
41.4(34) . . .
57(4) . . .
55(4) . . .
49(4) . . .
45(4) . . .
49(4) . . .
46(4) . . .
53(4) . . .
53(4) . . .
56(4) . . .
53(4) . . .
67(4) . . .
51(4) . . .
48(4) . . .
52(4) . . .
58(4) . . .
57(4) . . .
49(4) . . .
45(4) . . .
37.9(34) . . .
44.7(34) . . .
44.7(35) . . .
47(4) . . .
50(4) . . .
53(4) . . .
47(4) . . .
41.3(34) . . .
56(4) . . .
45(4) . . .
53(4) . . .
43.6(34) . . .
46(4) . . .
45(4) . . .
56(4) . . .
53(4) . . .
57(4) . . .
52(4) . . .
44(4) . . .
43(4) . . .
44(4) . . .
42.7(34) . . .
44.7(35) . . .
54(4) . . .
52(4) . . .
42.5(34) . . .
47(4) . . .
54(4) . . .
47(4) . . .
47(4) . . .
43.1(35) . . .
51(4) . . .
51(4) . . .
48(4) . . .
41(4) . . .
39.6(33) . . .
43.9(35) . . .
53(4) . . .
52(4) . . .
54(4) . . .
55(4) . . .
49(4) . . .
47(4) . . .
49(4) . . .
40(4) . . .
49(4) . . .
53(4) . . .
38.3(34) . . .
45(4) . . .
54(4) . . .
50(4) . . .
45(4) . . .
49(4) . . .
55(4) . . .
45(4) . . .
53(4) . . .
52(4) . . .
46(4) . . .
47(4) . . .
47(4) . . .
50(4) . . .
56(4) . . .
54(4) . . .
46(4) . . .
53(4) . . .
50(4) . . .
54(4) . . .
53(4) . . .
50(4) . . .
44(4) . . .
49(4) . . .
58(4) . . .
49(4) . . .
44(4) . . .
40.9(34) . . .
50(4) . . .
47(4) . . .
48(4) . . .
43.6(34) . . .
54(4) . . .
53(4) . . .
52(4) . . .
47(4) . . .
60(4) . . .
45(4) . . .
54(4) . . .
45(4) . . .
40(4) . . .
38.7(34) . . .
49(4) . . .
39.4(33) . . .
44(4) . . .
47(4) . . .
60(5) . . .
37.2(32) . . .
43.9(34) . . .
46(4) . . .
42(4) . . .
52(4) . . .
47(4) . . .
51(4) . . .
44(4) . . .
45(4) . . .
50(4) . . .
47(4) . . .
49(4) . . .
53(4) . . .
50(4) . . .
49(4) . . .
43.5(35) . . .
45(4) . . .
49(4) . . .
43.6(34) . . .
57(4) . . .
47(4) . . .
50(4) . . .
39.7(34) . . .
43(4) . . .
47(4) . . .
44.6(35) . . .
42.2(35) . . .
51(4) . . .
44(4) . . .
38.2(35) . . .
47(4) . . .
53(4) . . .
59(4) . . .
47(4) . . .
54(4) . . .
46(4) . . .
48(4) . . .
49(4) . . .
48(4) . . .
53(4) . . .
44.7(35) . . .
46(4) . . .
46(4) . . .
51(4) . . .
44(4) . . .
53(4) . . .
47(4) . . .
55(4) . . .
43.5(34) . . .
39.7(32) . . .
48(4) . . .
44.1(34) . . .
45(4) . . .
37.5(32) . . .
44(4) . . .
48(4) . . .
44(4) . . .
50(4) . . .
49(4) . . .
46(4) . . .
45.2(35) . . .
55(4) . . .
49(4) . . .
48(4) . . .
51(4) . . .
44.3(34) . . .
57(4) . . .
57(4) . . .
59(4) . . .
56(4) . . .
50(4) . . .
52(4) . . .
52(4) . . .
46(4) . . .
40.6(33) . . .
43.7(35) . . .
49(4) . . .
49(4) . . .
39.5(33) . . .
48(4) . . .
46(4) . . .
47(4) . . .
53(4) . . .
46(4) . . .
44.2(35) . . .
51(4) . . .
46(4) . . .
47(4) . . .
51(4) . . .
59(4) . . .
56(4) . . .
50(4) . . .
58(4) . . .
46(4) . . .
54(4) . . .
48(4) . . .
51(4) . . .
46(4) . . .
46(4) . . .
59(4) . . .
47(4) . . .
46(4) . . .
43(4) . . .
42.0(34) . . .
48(4) . . .
54(4) . . .
48(4) . . .
47(4) . . .
44.4(34) . . .
48(4) . . .
52(4) . . .
51(4) . . .
48(4) . . .
50(4) . . .
47(4) . . .
52(4) . . .
47(4) . . .
55(4) . . .
50(4) . . .
42.3(35) . . .
51(4) . . .
51(4) . . .
43.6(34) . . .
51(4) . . .
41.1(34) . . .
50(4) . . .
53(4) . . .
46(4) . . .
49(4) . . .
52(4) . . .
53(4) . . .
44(4) . . .
59(5) . . .
53(4) . . .
64(5) . . .
47(4) . . .
52(4) . . .
50(4) . . .
52(4) . . .
49(4) . . .
49(4) . . .
42.3(34) . . .
60(4) . . .
55(4) . . .
48(4) . . .
53(4) . . .
54(4) . . .
46(4) . . .
46(4) . . .
46(4) . . .
55(4) . . .
52(4) . . .
50(4) . . .
51(4) . . .
36.4(31) . . .
52(4) . . .
40.6(34) . . .
49(4) . . .
48(4) . . .
49(4) . . .
49(4) . . .
44(4) . . .
46.1(35) . . .
51(4) . . .
37.3(32) . . .
51(4) . . .
50(4) . . .
42.5(35) . . .
54(4) . . .
48(4) . . .
54(4) . . .
49(4) . . .
50(4) . . .
54(4) . . .
37.6(32) . . .
45(4) . . .
42(4) . . .
49(4) . . .
53(4) . . .
47(4) . . .
44(4) . . .
47(4) . . .
56(4) . . .
52(4) . . .
58(4) . . .
51(4) . . .
51(4) . . .
56(4) . . .
48(4) . . .
41.6(34) . . .
53(4) . . .
51(4) . . .
50(4) . . .
53(4) . . .
42(4) . . .
52(4) . . .
53(4) . . .
55(4) . . .
54(4) . . .
47(4) . . .
48(4) . . .
45(4) . . .
51(4) . . .
46(4) . . .
53(4) . . .
44(4) . . .
45.5(35) . . .
43(4) . . .
46(4) . . .
48(4) . . .
48(4) . . .
48(4) . . .
40.5(33) . . .
50(4) . . .
56(4) . . .
57(4) . . .
47(4) . . .
44(4) . . .
52(4) . . .
48(4) . . .
52(4) . . .
51(4) . . .
51(4) . . .
54(4) . . .
44(4) . . .
48(4) . . .
46(4) . . .
50(4) . . .
53(4) . . .
45.8(34) . . .
52(4) . . .
40.2(33) . . .
55(4) . . .
38.7(32) . . .
54(4) . . .
48(4) . . .
40.3(33) . . .
55(4) . . .
59(4) . . .
58(4) . . .
46(4) . . .
43.2(35) . . .
53(4) . . .
54(4) . . .
40.6(35) . . .
37.1(32) . . .
50(4) . . .
42(4) . . .
37.0(33) . . .
45(4) . . .
42.3(35) . . .
40.4(33) . . .
37.4(34) . . .
42(4) . . .
45(4) . . .
51(4) . . .
53(4) . . .
55(4) . . .
55(4) . . .
34.0(32) . . .
51(4) . . .
42.5(34) . . .
38.7(32) . . .
57(4) . . .
50(4) . . .
52(4) . . .
55(4) . . .
49(4) . . .
54(4) . . .
49(4) . . .
56(4) . . .
44.1(34) . . .
46(4) . . .
55(4) . . .
57(4) . . .
49(4) . . .
51(4) . . .
45.0(35) . . .
46(4) . . .
47(4) . . .
47(4) . . .
52(4) . . .
39.0(33) . . .
41(4) . . .
35.5(32) . . .
42.1(34) . . .
48(4) . . .
44(4) . . .
50(4) . . .
45(4) . . .
45.2(35) . . .
49(4) . . .
47(4) . . .
45(4) . . .
46(4) . . .
51(4) . . .
42.0(34) . . .
49(4) . . .
44.6(35) . . .
38.9(32) . . .
47(4) . . .
51(4) . . .
52(4) . . .
52(4) . . .
55(4) . . .
49(4) . . .
51(4) . . .
52(4) . . .
41.2(35) . . .
44(4) . . .
43.3(35) . . .
44.5(34) . . .
52(4) . . .
47(4) . . .
38.2(32) . . .
44.2(35) . . .
39.5(32) . . .
46(4) . . .
49(4) . . .
45(4) . . .
46(4) . . .
46(4) . . .
49(4) . . .
45(4) . . .
43.0(34) . . .
50(4) . . .
50(4) . . .
33.3(31) . . .
41.2(34) . . .
54(4) . . .
50(4) . . .
50(4) . . .
52(4) . . .
55(4) . . .
64(4) . . .
56(4) . . .
48(4) . . .
44(4) . . .
45(4) . . .
40.5(33) . . .
53(4) . . .
57(4) . . .
52(4) . . .
43.2(34) . . .
41.9(34) . . .
44(4) . . .
48(4) . . .
46.0(35) . . .
57(4) . . .
54(4) . . .
42(4) . . .
46(4) . . .
49(4) . . .
52(4) . . .
51(4) . . .
60(4) . . .
48(4) . . .
42.0(35) . . .
32.0(29) . . .
45(4) . . .
44(4) . . .
44(4) . . .
51(4) . . .
57(4) . . .
48(4) . . .
53(4) . . .
52(4) . . .
54(4) . . .
41.8(33) . . .
42.3(34) . . .
55(4) . . .
53(4) . . .
48(4) . . .
39.7(33) . . .
41.1(34) . . .
58(4) . . .
51(4) . . .
47(4) . . .
36.8(32) . . .
39.8(34) . . .
48(4) . . .
46(4) . . .
41.5(34) . . .
56(4) . . .
52(4) . . .
46(4) . . .
49(4) . . .
46(4) . . .
50(4) . . .
58(4) . . .
57(4) . . .
44(4) . . .
52(4) . . .
51(4) . . .
45(4) . . .
50(4) . . .
43.9(34) . . .
49(4) . . .
43.6(34) . . .
47(4) . . .
44(4) . . .
46(4) . . .
52(4) . . .
50(4) . . .
55(4) . . .
49(4) . . .
55(4) . . .
45.5(35) . . .
46(4) . . .
52(4) . . .
49(4) . . .
43.5(35) . . .
52(4) . . .
45.6(35) . . .
41.2(34) . . .
45(4) . . .
49(4) . . .
50(4) . . .
54(4) . . .
44(4) . . .
49(4) . . .
56(4) . . .
53(4) . . .
47(4) . . .
43.7(35) . . .
45(4) . . .
52(4) . . .
54(4) . . .
49(4) . . .
41.1(35) . . .
44(4) . . .
57(4) . . .
53(4) . . .
39.3(33) . . .
46(4) . . .
57(4) . . .
59(4) . . .
48(4) . . .
55(4) . . .
49(4) . . .
61(4) . . .
57(4) . . .
48(4) . . .
43.7(35) . . .
50(4) . . .
51(4) . . .
47(4) . . .
48(4) . . .
51(4) . . .
49(4) . . .
46(4) . . .
42.7(34) . . .
53(4) . . .
51(4) . . .
43(4) . . .
51(4) . . .
53(4) . . .
52(4) . . .
51(4) . . .
47(4) . . .
42(4) . . .
50(4) . . .
44.2(35) . . .
59(4) . . .
42.3(34) . . .
43(4) . . .
40.3(32) . . .
42.9(34) . . .
45.1(34) . . .
47(4) . . .
46(4) . . .
58(4) . . .
55(4) . . .
50(4) . . .
42(4) . . .
49(4) . . .
39.4(34) . . .
43.4(35) . . .
43.1(35) . . .
46(4) . . .
54(4) . . .
48(4) . . .
43.4(35) . . .
49(4) . . .
52(4) . . .
47(4) . . .
46(4) . . .
45.8(35) . . .
42.0(34) . . .
39.9(33) . . .
49(4) . . .
44.9(35) . . .
44(4) . . .
55(4) . . .
47(4) . . .
49(4) . . .
48(4) . . .
45(4) . . .
49(4) . . .
45(4) . . .
51(4) . . .
42.9(34) . . .
48(4) . . .
45(4) . . .
55(4) . . .
45(4) . . .
38.0(32) . . .
56(4) . . .
43(4) . . .
54(4) . . .
50(4) . . .
45.6(35) . . .
47(4) . . .
50(4) . . .
56(4) . . .
54(4) . . .
52(4) . . .
44.0(35) . . .
44(4) . . .
41.7(35) . . .
55(4) . . .
52(4) . . .
48(4) . . .
47(4) . . .
48(4) . . .
54(4) . . .
48(4) . . .
51(4) . . .
49(4) . . .
51(4) . . .
51(4) . . .
40.7(35) . . .
47(4) . . .
46(4) . . .
53(4) . . .
36.9(32) . . .
47(4) . . .
37.0(34) . . .
46(4) . . .
53(4) . . .
52(4) . . .
44.8(35) . . .
50(4) . . .
41.9(35) . . .
40.8(33) . . .
43.9(35) . . .
42.5(34) . . .
59(4) . . .
51(4) . . .
49(4) . . .
43.9(34) . . .
45(4) . . .
49(4) . . .
48(4) . . .
46(4) . . .
36.3(31) . . .
36.8(33) . . .
42(4) . . .
51(4) . . .
57(4) . . .
51(4) . . .
48(4) . . .
47(4) . . .
48(4) . . .
39.7(32) . . .
50(4) . . .
52(4) . . .
51(4) . . .
41.0(33) . . .
40.0(33) . . .
45.3(35) . . .
47(4) . . .
40.4(35) . . .
49(4) . . .
39.1(34) . . .
53(4) . . .
39.7(32) . . .
53(4) . . .
43.2(34) . . .
56(4) . . .
48(4) . . .
44(4) . . .
39.4(34) . . .
53(4) . . .
43.0(34) . . .
44.8(35) . . .
45(4) . . .
48(4) . . .
48(4) . . .
45(4) . . .
39.3(34) . . .
52(4) . . .
47(4) . . .
49(4) . . .
44.3(35) . . .
49(4) . . .
41.9(35) . . .
49(4) . . .
42.2(34) . . .
42.6(34) . . .
44(4) . . .
43(4) . . .
47(4) . . .
46(4) . . .
49(4) . . .
41.1(34) . . .
50(4) . . .
53(4) . . .
47(4) . . .
41.4(34) . . .
41.0(34) . . .
49(4) . . .
41.4(34) . . .
38.5(34) . . .
45.0(34) . . .
41.5(34) . . .
40(4) . . .
48(4) . . .
52(4) . . .
44.8(35) . . .
46(4) . . .
39(4) . . .
53(4) . . .
61(4) . . .
48(4) . . .
47(4) . . .
47(4) . . .
50(4) . . .
48(4) . . .
53(4) . . .
56(4) . . .
51(4) . . .
46(4) . . .
49(4) . . .
46(4) . . .
40(4) . . .
34.8(31) . . .
37.4(34) . . .
42.7(34) . . .
47(4) . . .
47(4) . . .
47(4) . . .
39.2(32) . . .
42.1(34) . . .
51(4) . . .
55(4) . . .
49(4) . . .
46(4) . . .
44.2(34) . . .
47(4) . . .
43(4) . . .
49(4) . . .
53(4) . . .
51(4) . . .
42.5(34) . . .
37.3(33) . . .
57(4) . . .
48(4) . . .
51(4) . . .
48(4) . . .
40(4) . . .
47(4) . . .
50(4) . . .
44.8(35) . . .
49(4) . . .
38.6(34) . . .
35.8(31) . . .
44(4) . . .
35.4(31) . . .
46(4) . . .
42(4) . . .
34.8(30) . . .
49(4) . . .
48(4) . . .
43(4) . . .
47(4) . . .
44.9(35) . . .
63(4) . . .
40.1(33) . . .
51(4) . . .
46(4) . . .
49(4) . . .
44(4) . . .
50(4) . . .
47(4) . . .
43(4) . . .
44(4) . . .
41.5(33) . . .
44.0(35) . . .
52(4) . . .
44(4) . . .
31.0(29) . . .
46(4) . . .
52(4) . . .
47(4) . . .
43.4(35) . . .
50(4) . . .
44.5(34) . . .
48(4) . . .
41.5(34) . . .
40.4(34) . . .
47(4) . . .
53(4) . . .
50(4) . . .
53(4) . . .
48(4) . . .
57(4) . . .
46(4) . . .
51(4) . . .
49(4) . . .
43.8(35) . . .
48(4) . . .
57(4) . . .
44(4) . . .
56(4) . . .
46(4) . . .
47(4) . . .
48(4) . . .
52(4) . . .
48(4) . . .
53(4) . . .
44.7(35) . . .
45(4) . . .
43.3(34) . . .
48(4) . . .
49(4) . . .
50(4) . . .
51(4) . . .
44(4) . . .
42(4) . . .
33.6(30) . . .
62(4) . . .
43.3(35) . . .
46(4) . . .
58(4) . . .
49(4) . . .
44.3(34) . . .
47(4) . . .
58(4) . . .
59(4) . . .
56(4) . . .
45(4) . . .
40.4(33) . . .
45(4) . . .
52(4) . . .
60(4) . . .
55(4) . . .
44(4) . . .
46(4) . . .
47(4) . . .
40.2(33) . . .
49(4) . . .
38.1(32) . . .
43(4) . . .
49(4) . . .
54(4) . . .
48(4) . . .
52(4) . . .
43(4) . . .
43(4) . . .
45(4) . . .
47(4) . . .
52(4) . . .
46(4) . . .
48(4) . . .
51(4) . . .
57(4) . . .
51(4) . . .
51(4) . . .
43(4) . . .
46(4) . . .
42.5(35) . . .
47(4) . . .
50(4) . . .
43(4) . . .
38.0(32) . . .
45(4) . . .
47(4) . . .
53(4) . . .
49(4) . . .
45.9(35) . . .
42.2(34) . . .
47(4) . . .
51(4) . . .
54(4) . . .
41.0(34) . . .
41.4(34) . . .
47(4) . . .
41(4) . . .
44(4) . . .
43.2(34) . . .
39.8(35) . . .
39.5(32) . . .
60(4) . . .
54(4) . . .
56(4) . . .
49(4) . . .
38.9(34) . . .
43(4) . . .
40.6(34) . . .
38.8(32) . . .
41.7(35) . . .
42(4) . . .
41.4(34) . . .
46(4) . . .
49(4) . . .
49(4) . . .
44.8(34) . . .
53(4) . . .
39.5(32) . . .
42.0(34) . . .
48(4) . . .
48(4) . . .
51(4) . . .
41.0(33) . . .
47(4) . . .
39.2(35) . . .
44(4) . . .
54(4) . . .
43.4(35) . . .
48(4) . . .
47(4) . . .
54(4) . . .
53(4) . . .
37.4(33) . . .
39.3(33) . . .
39.6(34) . . .
46(4) . . .
45(4) . . .
48(4) . . .
55(4) . . .
58(4) . . .
53(4) . . .
54(4) . . .
45.8(35) . . .
42.3(34) . . .
45(4) . . .
52(4) . . .
58(4) . . .
56(4) . . .
47(4) . . .
46(4) . . .
43.5(34) . . .
42.1(34) . . .
42.0(34) . . .
48(4) . . .
57(4) . . .
49(4) . . .
49(4) . . .
35.7(31) . . .
43(4) . . .
41.5(35) . . .
46(4) . . .
46(4) . . .
55(4) . . .
46(4) . . .
44(4) . . .
46(4) . . .
53(4) . . .
48(4) . . .
31.6(30) . . .
54(4) . . .
42.0(34) . . .
42.4(34) . . .
47(4) . . .
46(4) . . .
48(4) . . .
53(4) . . .
49(4) . . .
53(4) . . .
38.7(33) . . .
48(4) . . .
48(4) . . .
47(4) . . .
47(4) . . .
41.4(33) . . .
58(4) . . .
44.5(35) . . .
49(4) . . .
46(4) . . .
41.0(32) . . .
51(4) . . .
50(4) . . .
45(4) . . .
49(4) . . .
33.9(31) . . .
48(4) . . .
47(4) . . .
56(4) . . .
44.7(35) . . .
48(4) . . .
53(4) . . .
38.1(34) . . .
42.0(34) . . .
38.3(33) . . .
36.3(34) . . .
49(4) . . .
49(4) . . .
49(4) . . .
44(4) . . .
44(4) . . .
38.6(34) . . .
47(4) . . .
48(4) . . .
48(4) . . .
49(4) . . .
44.1(35) . . .
45(4) . . .
47(4) . . .
39.5(33) . . .
55(4) . . .
50(4) . . .
42.9(34) . . .
44.7(34) . . .
45(4) . . .
44(4) . . .
49(4) . . .
45.7(35) . . .
45.6(35) . . .
52(4) . . .
46(4) . . .
41.0(34) . . .
43.2(34) . . .
41.3(35) . . .
45(4) . . .
38.9(35) . . .
43(4) . . .
45.8(35) . . .
53(4) . . .
43(4) . . .
49(4) . . .
45(4) . . .
50(4) . . .
41.7(35) . . .
51(4) . . .
42(4) . . .
38.6(33) . . .
52(4) . . .
45(4) . . .
42.2(34) . . .
54(4) . . .
49(4) . . .
50(4) . . .
40.1(35) . . .
38(4) . . .
45(4) . . .
50(4) . . .
43.7(34) . . .
44(4) . . .
46(4) . . .
38.7(33) . . .
43.1(34) . . .
47(4) . . .
51(4) . . .
48(4) . . .
48(4) . . .
38.7(32) . . .
37.5(32) . . .
47(4) . . .
55(4) . . .
49(4) . . .
57(4) . . .
48(4) . . .
47(4) . . .
36.4(33) . . .
44(4) . . .
48(4) . . .
51(4) . . .
48(4) . . .
44(4) . . .
56(4) . . .
47(4) . . .
52(4) . . .
48(4) . . .
44(4) . . .
53(4) . . .
47(4) . . .
40.8(34) . . .
45(4) . . .
54(4) . . .
47(4) . . .
47(4) . . .
47(4) . . .
50(4) . . .
42.6(35) . . .
43.4(35) . . .
42.3(34) . . .
42.8(35) . . .
45(4) . . .
38.8(34) . . .
43.0(35) . . .
43.3(34) . . .
49(4) . . .
49(4) . . .
46.0(35) . . .
53(4) . . .
41.8(34) . . .
48(4) . . .
49(4) . . .
57(4) . . .
52(4) . . .
50(4) . . .
52(4) . . .
58(4) . . .
42.0(33) . . .
42.6(34) . . .
47(4) . . .
46(4) . . .
41.4(34) . . .
50(4) . . .
49(4) . . .
50(4) . . .
53(4) . . .
50(4) . . .
43.2(34) . . .
46(4) . . .
48(4) . . .
45(4) . . .
43(4) . . .
47(4) . . .
43.2(34) . . .
45(4) . . .
43(4) . . .
40.0(35) . . .
47(4) . . .
53(4) . . .
53(4) . . .
42(4) . . .
44(4) . . .
48(4) . . .
39.3(32) . . .
46(4) . . .
52(4) . . .
47(4) . . .
48(4) . . .
45.7(35) . . .
42.0(35) . . .
51(4) . . .
50(4) . . .
55(4) . . .
52(4) . . .
50(4) . . .
44(4) . . .
50(4) . . .
54(4) . . .
53(4) . . .
44(4) . . .
51(4) . . .
56(4) . . .
49(4) . . .
51(4) . . .
37.4(32) . . .
54(4) . . .
53(4) . . .
42.9(35) . . .
45.4(35) . . .
35.1(32) . . .
41(4) . . .
46(4) . . .
43.8(35) . . .
50(4) . . .
33.9(31) . . .
45(4) . . .
48(4) . . .
50(4) . . .
48(4) . . .
50(4) . . .
46(4) . . .
46(4) . . .
48(4) . . .
49(4) . . .
45(4) . . .
45(4) . . .
43.8(35) . . .
44.2(35) . . .
39.3(32) . . .
49(4) . . .
48(4) . . .
40.9(34) . . .
49(4) . . .
58(4) . . .
46(4) . . .
46(4) . . .
40.5(34) . . .
42.6(34) . . .
50(4) . . .
48(4) . . .
41.7(35) . . .
44.4(35) . . .
52(4) . . .
45(4) . . .
47(4) . . .
37.7(32) . . .
50(4) . . .
48(4) . . .
39.9(34) . . .
53(4) . . .
39.7(33) . . .
48(4) . . .
51(4) . . .
46(4) . . .
44(4) . . .
50(4) . . .
44.2(35) . . .
53(4) . . .
40.1(35) . . .
34.4(31) . . .
51(4) . . .
58(4) . . .
51(4) . . .
55(4) . . .
43(4) . . .
44(4) . . .
46(4) . . .
48(4) . . .
39.8(33) . . .
47(4) . . .
42.6(34) . . .
53(4) . . .
41.6(34) . . .
41.7(33) . . .
47(4) . . .
44(4) . . .
51(4) . . .
39.0(33) . . .
50(4) . . .
54(4) . . .
54(4) . . .
47(4) . . .
38.0(34) . . .
44(4) . . .
45(4) . . .
50(4) . . .
54(4) . . .
49(4) . . .
46(4) . . .
35.0(32) . . .
44(4) . . .
54(4) . . .
41.8(34) . . .
43(4) . . .
44(4) . . .
35.6(31) . . .
43.6(34) . . .
40.0(33) . . .
48(4) . . .
45(4) . . .
41.9(35) . . .
47(4) . . .
43(4) . . .
57(4) . . .
56(4) . . .
50(4) . . .
62(4) . . .
53(4) . . .
57(4) . . .
51(4) . . .
44.4(35) . . .
47(4) . . .
47(4) . . .
49(4) . . .
47(4) . . .
47(4) . . .
51(4) . . .
45(4) . . .
57(4) . . .
41.7(33) . . .
52(4) . . .
46(4) . . .
49(4) . . .
51(4) . . .
40(4) . . .
45.9(35) . . .
49(4) . . .
48(4) . . .
52(4) . . .
54(4) . . .
42.0(33) . . .
49(4) . . .
50(4) . . .
50(4) . . .
51(4) . . .
51(4) . . .
44.2(34) . . .
54(4) . . .
54(4) . . .
49(4) . . .
40.2(33) . . .
59(4) . . .
52(4) . . .
41.5(35) . . .
47(4) . . .
46(4) . . .
42.2(34) . . .
44(4) . . .
54(4) . . .
51(4) . . .
45.4(35) . . .
49(4) . . .
43(4) . . .
38.0(33) . . .
51(4) . . .
55(4) . . .
50(4) . . .
37.6(33) . . .
45(4) . . .
48(4) . . .
46(4) . . .
40(4) . . .
44(4) . . .
46(4) . . .
38.7(32) . . .
38.1(32) . . .
59(4) . . .
52(4) . . .
41.6(34) . . .
48(4) . . .
39.9(33) . . .
46(4) . . .
43(4) . . .
39.7(34) . . .
48(4) . . .
43.9(35) . . .
53(4) . . .
39.3(35) . . .
40(4) . . .
42.0(34) . . .
56(4) . . .
45(4) . . .
49(4) . . .
52(4) . . .
40.6(33) . . .
45.3(35) . . .
44(4) . . .
33.2(33) . . .
37.3(34) . . .
39.3(32) . . .
48(4) . . .
42(4) . . .
42(4) . . .
44(4) . . .
47(4) . . .
51(4) . . .
50(4) . . .
45.5(34) . . .
50(4) . . .
42.9(34) . . .
51(4) . . .
47(4) . . .
48(4) . . .
33.6(32) . . .
48(4) . . .
43.7(35) . . .
40.3(34) . . .
44(4) . . .
40.1(33) . . .
49(4) . . .
48(4) . . .
43(4) . . .
54(4) . . .
48(4) . . .
46.7(35) . . .
44(4) . . .
47(4) . . .
44(4) . . .
52(4) . . .
42.7(34) . . .
58(4) . . .
47(4) . . .
39.3(33) . . .
40.9(33) . . .
56(4) . . .
49(4) . . .
48(4) . . .
43.0(34) . . .
43.0(34) . . .
56(4) . . .
50(4) . . .
45(4) . . .
41(4) . . .
38.9(32) . . .
39.4(33) . . .
45(4) . . .
53(4) . . .
52(4) . . .
52(4) . . .
45(4) . . .
45(4) . . .
43(4) . . .
40.5(34) . . .
55(4) . . .
48(4) . . .
51(4) . . .
42.3(34) . . .
54(4) . . .
49(4) . . .
53(4) . . .
47(4) . . .
49(4) . . .
53(4) . . .
47(4) . . .
52(4) . . .
47(4) . . .
52(4) . . .
50(4) . . .
45.4(35) . . .
52(4) . . .
42(4) . . .
51(4) . . .
49(4) . . .
46(4) . . .
56(4) . . .
54(4) . . .
54(4) . . .
54(4) . . .
50(4) . . .
40.4(34) . . .
47(4) . . .
41.6(34) . . .
48(4) . . .
48(4) . . .
48(4) . . .
42.9(35) . . .
49(4) . . .
51(4) . . .
42.6(34) . . .
45(4) . . .
47(4) . . .
51(4) . . .
45(4) . . .
47(4) . . .
42.2(34) . . .
46(4) . . .
44(4) . . .
41.6(33) . . .
44(4) . . .
59(4) . . .
52(4) . . .
46(4) . . .
48(4) . . .
51(4) . . .
47(4) . . .
55(4) . . .
52(4) . . .
42.4(34) . . .
39.4(33) . . .
49(4) . . .
55(4) . . .
38.4(32) . . .
51(4) . . .
33.8(31) . . .
35.2(31) . . .
43.4(34) . . .
52(4) . . .
45(4) . . .
48(4) . . .
38.1(33) . . .
57(4) . . .
49(4) . . .
44.9(34) . . .
38.4(34) . . .
44(4) . . .
44.1(34) . . .
40.2(33) . . .
40.6(33) . . .
50(4) . . .
46(4) . . .
49(4) . . .
53(4) . . .
44.7(34) . . .
48(4) . . .
52(4) . . .
48(4) . . .
48(4) . . .
47(4) . . .
45(4) . . .
53(4) . . .
46(4) . . .
51(4) . . .
34.9(31) . . .
39.6(32) . . .
45(4) . . .
59(4) . . .
44.3(35) . . .
39.1(33) . . .
45(4) . . .
54(4) . . .
54(4) . . .
49(4) . . .
47(4) . . .
39.2(34) . . .
42(4) . . .
46(4) . . .
41.2(33) . . .
46(4) . . .
46(4) . . .
32.8(30) . . .
42.5(33) . . .
38.0(33) . . .
43(4) . . .
47(4) . . .
41.7(34) . . .
36.0(32) . . .
42.9(34) . . .
43.6(35) . . .
42(4) . . .
39.1(32) . . .
42.8(33) . . .
48(4) . . .
53(4) . . .
49(4) . . .
41.6(34) . . .
43(4) . . .
42.6(35) . . .
40.8(34) . . .
39.7(35) . . .
45(4) . . .
48(4) . . .
52(4) . . .
39.5(33) . . .
42(4) . . .
38.0(33) . . .
50(4) . . .
48(4) . . .
54(4) . . .
47(4) . . .
42.2(34) . . .
55(4) . . .
46(4) . . .
42(4) . . .
56(4) . . .
49(4) . . .
52(4) . . .
52(4) . . .
45(4) . . .
43(4) . . .
40.9(35) . . .
46(4) . . .
49(4) . . .
45(4) . . .
45(4) . . .
46(4) . . .
39.2(33) . . .
44(4) . . .
35.5(33) . . .
40.4(34) . . .
51(4) . . .
43.9(34) . . .
56(4) . . .
41.3(33) . . .
55(4) . . .
48(4) . . .
40.4(33) . . .
46(4) . . .
47(4) . . .
49(4) . . .
47(4) . . .
46(4) . . .
52(4) . . .
50(4) . . .
55(4) . . .
43.7(35) . . .
47(4) . . .
45(4) . . .
47(4) . . .
49(4) . . .
44.9(35) . . .
51(4) . . .
38.9(35) . . .
47(4) . . .
55(4) . . .
49(4) . . .
47(4) . . .
47(4) . . .
48(4) . . .
51(4) . . .
44.5(35) . . .
54(4) . . .
53(4) . . .
52(4) . . .
46(4) . . .
35.0(31) . . .
48(4) . . .
51(4) . . .
39.5(35) . . .
48(4) . . .
52(4) . . .
47(4) . . .
47(4) . . .
52(4) . . .
47(4) . . .
48(4) . . .
48(4) . . .
37.1(34) . . .
49(4) . . .
40.8(34) . . .
35.0(32) . . .
40.7(34) . . .
42(4) . . .
55(4) . . .
51(4) . . .
53(4) . . .
44(4) . . .
32.2(31) . . .
44(4) . . .
41.5(34) . . .
46(4) . . .
54(4) . . .
50(4) . . .
49(4) . . .
51(4) . . .
39.1(33) . . .
54(4) . . .
48(4) . . .
47(4) . . .
55(4) . . .
44.9(34) . . .
49(4) . . .
46(4) . . .
40.7(34) . . .
49(4) . . .
39.8(33) . . .
37.9(32) . . .
47(4) . . .
48(4) . . .
47(4) . . .
40.0(33) . . .
43.2(34) . . .
52(4) . . .
53(4) . . .
43.6(35) . . .
50(4) . . .
49(4) . . .
43(4) . . .
46(4) . . .
40.2(34) . . .
34.3(31) . . .
50(4) . . .
46(4) . . .
49(4) . . .
50(4) . . .
51(4) . . .
48(4) . . .
48(4) . . .
57(4) . . .
56(4) . . .
44(4) . . .
49(4) . . .
49(4) . . .
43.2(35) . . .
51(4) . . .
42.2(34) . . .
38.8(33) . . .
38.0(33) . . .
39.3(33) . . .
48(4) . . .
43(4) . . .
36.3(34) . . .
41(4) . . .
41.0(34) . . .
41.2(33) . . .
48(4) . . .
45(4) . . .
37.3(32) . . .
48(4) . . .
45(4) . . .
38.2(33) . . .
43(4) . . .
42.4(35) . . .
45(4) . . .
52(4) . . .
57(4) . . .
52(4) . . .
45(4) . . .
45.3(35) . . .
45.8(35) . . .
49(4) . . .
41.1(35) . . .
53(4) . . .
41.2(33) . . .
45(4) . . .
39.1(34) . . .
45(4) . . .
53(4) . . .
45.0(35) . . .
40.2(33) . . .
49(4) . . .
56(4) . . .
42.2(34) . . .
43.8(35) . . .
55(4) . . .
41.7(35) . . .
40(4) . . .
52(4) . . .
37.0(32) . . .
50(4) . . .
51(4) . . .
42(4) . . .
46(4) . . .
48(4) . . .
41(4) . . .
45(4) . . .
47(4) . . .
49(4) . . .
48(4) . . .
54(4) . . .
45(4) . . .
52(4) . . .
49(4) . . .
50(4) . . .
52(4) . . .
40.7(34) . . .
45(4) . . .
55(4) . . .
47(4) . . .
39.9(34) . . .
37.8(33) . . .
49(4) . . .
52(4) . . .
46.0(35) . . .
45(4) . . .
56(4) . . .
50(4) . . .
55(4) . . .
62(4) . . .
53(4) . . .
48(4) . . .
49(4) . . .
45(4) . . .
48(4) . . .
42.2(34) . . .
48(4) . . .
48(4) . . .
52(4) . . .
52(4) . . .
43.1(34) . . .
34.5(30) . . .
50(4) . . .
51(4) . . .
43.5(35) . . .
48(4) . . .
43(4) . . .
51(4) . . .
51(4) . . .
42(4) . . .
47(4) . . .
48(4) . . .
50(4) . . .
41.7(34) . . .
39.0(35) . . .
45(4) . . .
60(4) . . .
51(4) . . .
44.0(35) . . .
47(4) . . .
41(4) . . .
43(4) . . .
50(4) . . .
48(4) . . .
52(4) . . .
60(4) . . .
46(4) . . .
41.2(34) . . .
53(4) . . .
41.6(33) . . .
43(4) . . .
44(4) . . .
33.9(30) . . .
52(4) . . .
36.8(32) . . .
37.1(33) . . .
45(4) . . .
42.0(34) . . .
42.2(34) . . .
51(4) . . .
40.3(35) . . .
39.3(33) . . .
56(4) . . .
49(4) . . .
53(4) . . .
54(4) . . .
47.0(35) . . .
53(4) . . .
45(4) . . .
44(4) . . .
47(4) . . .
44(4) . . .
49(4) . . .
49(4) . . .
48(4) . . .
47(4) . . .
43.6(35) . . .
37.7(32) . . .
46(4) . . .
44(4) . . .
49(4) . . .
51(4) . . .
49(4) . . .
48(4) . . .
41.0(33) . . .
48(4) . . .
49(4) . . .
48(4) . . .
47(4) . . .
47(4) . . .
44(4) . . .
49(4) . . .
51(4) . . .
42(4) . . .
43(4) . . .
42.0(35) . . .
39.6(33) . . .
51(4) . . .
49(4) . . .
51(4) . . .
40.8(33) . . .
43(4) . . .
40.6(33) . . .
42.2(34) . . .
47(4) . . .
47(4) . . .
48(4) . . .
49(4) . . .
49(4) . . .
43(4) . . .
40.8(33) . . .
52(4) . . .
47(4) . . .
49(4) . . .
51(4) . . .
44(4) . . .
50(4) . . .
41.4(33) . . .
45(4) . . .
50(4) . . .
43(4) . . .
48(4) . . .
52(4) . . .
48(4) . . .
49(4) . . .
45(4) . . .
40.0(33) . . .
50(4) . . .
45(4) . . .
39.6(34) . . .
49(4) . . .
39.6(33) . . .
45(4) . . .
40(4) . . .
56(4) . . .
44.5(35) . . .
46(4) . . .
44(4) . . .
50(4) . . .
55(4) . . .
43.4(34) . . .
44.6(35) . . .
58(4) . . .
50(4) . . .
57(4) . . .
43.9(34) . . .
49(4) . . .
40.6(34) . . .
51(4) . . .
52(4) . . .
46(4) . . .
56(4) . . .
51(4) . . .
57(5) . . .
50(4) . . .
46(4) . . .
46(4) . . .
55(4) . . .
56(4) . . .
39.7(32) . . .
46(4) . . .
50(4) . . .
49(4) . . .
53(4) . . .
50(4) . . .
50(4) . . .
47(4) . . .
55(4) . . .
36.7(32) . . .
51(4) . . .
49(4) . . .
45.9(35) . . .
48(4) . . .
55(4) . . .
46(4) . . .
50(4) . . .
45.2(34) . . .
51(4) . . .
45.2(35) . . .
55(4) . . .
46(4) . . .
34.9(31) . . .
44(4) . . .
44(4) . . .
48(4) . . .
57(4) . . .
51(4) . . .
43(4) . . .
48(4) . . .
39.2(32) . . .
46(4) . . .
53(4) . . .
48(4) . . .
51(4) . . .
42.1(35) . . .
40.9(33) . . .
52(4) . . .
45(4) . . .
39.5(34) . . .
41.0(33) . . .
42.9(34) . . .
48(4) . . .
45(4) . . .
50(4) . . .
47(4) . . .
47(4) . . .
47(4) . . .
45(4) . . .
51(4) . . .
44.2(35) . . .
42.5(33) . . .
47(4) . . .
42(4) . . .
39.8(33) . . .
46(4) . . .
45.2(35) . . .
49(4) . . .
52(4) . . .
56(4) . . .
48(4) . . .
43.1(34) . . .
58(4) . . .
49(4) . . .
44(4) . . .
45(4) . . .
42.4(35) . . .
52(4) . . .
48(4) . . .
49(4) . . .
43.6(35) . . .
38.4(32) . . .
46(4) . . .
41.7(34) . . .
45(4) . . .
51(4) . . .
45(4) . . .
44(4) . . .
45(4) . . .
40.5(34) . . .
38.0(32) . . .
47(4) . . .
40.9(34) . . .
39.8(34) . . .
42.6(35) . . .
46(4) . . .
51(4) . . .
40.4(33) . . .
47(4) . . .
48(4) . . .
47.1(35) . . .
44(4) . . .
39(4) . . .
46(4) . . .
46(4) . . .
48(4) . . .
49(4) . . .
46(4) . . .
50(4) . . .
53(4) . . .
40.0(33) . . .
45(4) . . .
49(4) . . .
43(4) . . .
46(4) . . .
50(4) . . .
44.3(35) . . .
49(4) . . .
45(4) . . .
41.5(35) . . .
45.1(35) . . .
55(4) . . .
54(4) . . .
50(4) . . .
48(4) . . .
51(4) . . .
46(4) . . .
36.3(31) . . .
47(4) . . .
46(4) . . .
54(4) . . .
48(4) . . .
45(4) . . .
51(4) . . .
40.3(33) . . .
41.4(34) . . .
41.7(33) . . .
48(4) . . .
47(4) . . .
42.3(35) . . .
46(4) . . .
46(4) . . .
45(4) . . .
46(4) . . .
55(4) . . .
43.9(35) . . .
48(4) . . .
42.8(35) . . .
39.3(34) . . .
50(4) . . .
48(4) . . .
49(4) . . .
46(4) . . .
43(4) . . .
49(4) . . .
45(4) . . .
40(4) . . .
43.8(35) . . .
51(4) . . .
51(4) . . .
53(4) . . .
48(4) . . .
43(4) . . .
37.4(32) . . .
39.5(33) . . .
51(4) . . .
52(4) . . .
46(4) . . .
45.7(35) . . .
40.2(33) . . .
41.4(35) . . .
52(4) . . .
46(4) . . .
47(4) . . .
37.2(32) . . .
46(4) . . .
43.1(35) . . .
51(4) . . .
49(4) . . .
43(4) . . .
51(4) . . .
38.9(35) . . .
37.7(35) . . .
38.6(33) . . .
40.4(33) . . .
41.0(34) . . .
50(4) . . .
60(4) . . .
55(4) . . .
51(4) . . .
46(4) . . .
52(4) . . .
51(4) . . .
41.5(34) . . .
38.4(35) . . .
46(4) . . .
53(4) . . .
58(4) . . .
46(4) . . .
44(4) . . .
49(4) . . .
46(4) . . .
45.4(35) . . .
55(4) . . .
42.6(34) . . .
48(4) . . .
46(4) . . .
40.9(33) . . .
51(4) . . .
45(4) . . .
46(4) . . .
50(4) . . .
44.8(34) . . .
47(4) . . .
54(4) . . .
44(4) . . .
43.2(35) . . .
48(4) . . .
47(4) . . .
46(4) . . .
47(4) . . .
46(4) . . .
42.3(33) . . .
42(4) . . .
54(4) . . .
48(4) . . .
37.2(32) . . .
43.3(34) . . .
57(4) . . .
53(4) . . .
56(4) . . .
43.6(34) . . .
43.5(34) . . .
38.2(33) . . .
45.1(35) . . .
45(4) . . .
53(4) . . .
47(4) . . .
47(4) . . .
54(4) . . .
39.5(33) . . .
46(4) . . .
43.7(35) . . .
44.9(34) . . .
53(4) . . .
50(4) . . .
43(4) . . .
44.0(34) . . .
42(4) . . .
47(4) . . .
52(4) . . .
47(4) . . .
47(4) . . .
43(4) . . .
49(4) . . .
44.3(34) . . .
43.0(34) . . .
45.4(35) . . .
53(4) . . .
46(4) . . .
42(4) . . .
49(4) . . .
46(4) . . .
43.4(34) . . .
41.7(35) . . .
44(4) . . .
60(4) . . .
51(4) . . .
53(4) . . .
44(4) . . .
43(4) . . .
43.8(35) . . .
49(4) . . .
48(4) . . .
48(4) . . .
38.0(32) . . .
46.2(35) . . .
47(4) . . .
41.3(33) . . .
57(4) . . .
40.5(33) . . .
51(4) . . .
48(4) . . .
44(4) . . .
46(4) . . .
38.3(34) . . .
49(4) . . .
44(4) . . .
47(4) . . .
61(4) . . .
45.4(35) . . .
51(4) . . .
39.1(35) . . .
52(4) . . .
44(4) . . .
42.9(34) . . .
49(4) . . .
43.4(35) . . .
43.5(35) . . .
46(4) . . .
45(4) . . .
44.5(35) . . .
47(4) . . .
46(4) . . .
47(4) . . .
40.2(33) . . .
45(4) . . .
55(4) . . .
60(4) . . .
49(4) . . .
38.3(32) . . .
40.9(34) . . .
42.0(34) . . .
57(4) . . .
50(4) . . .
48(4) . . .
52(4) . . .
41.5(35) . . .
49(4) . . .
54(4) . . .
47(4) . . .
47(4) . . .
48(4) . . .
46(4) . . .
45(4) . . .
43.0(35) . . .
46.6(35) . . .
56(4) . . .
40.0(32) . . .
47(4) . . .
43.4(34) . . .
35.0(32) . . .
52(4) . . .
47(4) . . .
44(4) . . .
40.8(33) . . .
46(4) . . .
49(4) . . .
43(4) . . .
39.2(33) . . .
57(4) . . .
46(4) . . .
46(4) . . .
45(4) . . .
58(4) . . .
47(4) . . .
51(4) . . .
52(4) . . .
58(4) . . .
41.8(34) . . .
54(4) . . .
52(4) . . .
49(4) . . .
42(4) . . .
46(4) . . .
50(4) . . .
40.9(34) . . .
48(4) . . .
50(4) . . .
52(4) . . .
39.7(34) . . .
50(4) . . .
45(4) . . .
51(4) . . .
48(4) . . .
57(4) . . .
54(4) . . .
43(4) . . .
41.2(34) . . .
52(4) . . .
46(4) . . .
49(4) . . .
44(4) . . .
46(4) . . .
48(4) . . .
37.1(32) . . .
50(4) . . .
44(4) . . .
41.4(34) . . .
55(4) . . .
47(4) . . .
42(4) . . .
49(4) . . .
31.8(29) . . .
43.2(34) . . .
48(4) . . .
50(4) . . .
51(4) . . .
42.3(34) . . .
49(4) . . .
48(4) . . .
47(4) . . .
37.2(34) . . .
44(4) . . .
48(4) . . .
49(4) . . .
49(4) . . .
45(4) . . .
40.1(33) . . .
53(4) . . .
52(4) . . .
45(4) . . .
45(4) . . .
46(4) . . .
57(4) . . .
48(4) . . .
38.6(34) . . .
49(4) . . .
41.7(34) . . .
46(4) . . .
51(4) . . .
53(4) . . .
57(4) . . .
49(4) . . .
47(4) . . .
45(4) . . .
49(4) . . .
46(4) . . .
52(4) . . .
39.3(33) . . .
40(4) . . .
54(4) . . .
61(4) . . .
42.9(34) . . .
42.7(34) . . .
35.1(30) . . .
48(4) . . .
45(4) . . .
47(4) . . .
41.9(34) . . .
38.7(33) . . .
46(4) . . .
47(4) . . .
34.2(31) . . .
41.1(35) . . .
43(4) . . .
48(4) . . .
54(4) . . .
42.1(34) . . .
35.6(33) . . .
45(4) . . .
41.5(35) . . .
47(4) . . .
53(4) . . .
56(4) . . .
48(4) . . .
51(4) . . .
56(4) . . .
61(4) . . .
47(4) . . .
43(4) . . .
51(4) . . .
41.8(33) . . .
47(4) . . .
42.8(34) . . .
43(4) . . .
49(4) . . .
53(4) . . .
51(4) . . .
52(4) . . .
51(4) . . .
52(4) . . .
43.4(35) . . .
40.2(32) . . .
46(4) . . .
48(4) . . .
48(4) . . .
45.1(35) . . .
48(4) . . .
47(4) . . .
36.1(34) . . .
51(4) . . .
37.7(32) . . .
48(4) . . .
42.3(34) . . .
47(4) . . .
40.0(33) . . .
46(4) . . .
47(4) . . .
41.6(34) . . .
46(4) . . .
50(4) . . .
56(4) . . .
50(4) . . .
40.8(33) . . .
45(4) . . .
55(4) . . .
52(4) . . .
51(4) . . .
52(4) . . .
52(4) . . .
48(4) . . .
46(4) . . .
42.0(34) . . .
54(4) . . .
51(4) . . .
56(4) . . .
42.5(33) . . .
49(4) . . .
57(4) . . .
50(4) . . .
54(4) . . .
41.0(34) . . .
41.3(34) . . .
41(4) . . .
49(4) . . .
38.5(33) . . .
41.8(33) . . .
43.0(35) . . .
46(4) . . .
54(4) . . .
46.1(35) . . .
37.8(32) . . .
46(4) . . .
45(4) . . .
52(4) . . .
48(4) . . .
54(4) . . .
47(4) . . .
43(4) . . .
45(4) . . .
52(4) . . .
45(4) . . .
44(4) . . .
38.5(33) . . .
42(4) . . .
44.5(34) . . .
46(4) . . .
44(4) . . .
44(4) . . .
39.3(33) . . .
36.6(31) . . .
41(4) . . .
47(4) . . .
46(4) . . .
39.2(33) . . .
41.2(34) . . .
45(4) . . .
41(4) . . .
43(4) . . .
45.5(35) . . .
53(4) . . .
52(4) . . .
53(4) . . .
46(4) . . .
42.5(34) . . .
46(4) . . .
43(4) . . .
54(4) . . .
48(4) . . .
41.8(33) . . .
43.2(34) . . .
39.4(33) . . .
44(4) . . .
44(4) . . .
45.3(35) . . .
41.5(34) . . .
43.3(34) . . .
45(4) . . .
45(4) . . .
46(4) . . .
50(4) . . .
46(4) . . .
42(4) . . .
52(4) . . .
53(4) . . .
53(4) . . .
44.9(35) . . .
42.1(35) . . .
53(4) . . .
45(4) . . .
43.8(34) . . .
48(4) . . .
49(4) . . .
52(4) . . .
48(4) . . .
41.3(34) . . .
48(4) . . .
49(4) . . .
51(4) . . .
46(4) . . .
46(4) . . .
46(4) . . .
42.1(34) . . .
53(4) . . .
48(4) . . .
45.3(35) . . .
51(4) . . .
49(4) . . .
51(4) . . .
52(4) . . .
46(4) . . .
44(4) . . .
42.6(35) . . .
50(4) . . .
47(4) . . .
48(4) . . .
51(4) . . .
42.9(35) . . .
43.5(35) . . .
48(4) . . .
51(4) . . .
53(4) . . .
41.3(34) . . .
52(4) . . .
49(4) . . .
56(4) . . .
49(4) . . .
54(4) . . .
46(4) . . .
39.4(33) . . .
44(4) . . .
42(4) . . .
35.2(31) . . .
50(4) . . .
45(4) . . .
40.0(33) . . .
35.8(32) . . .
47(4) . . .
50(4) . . .
34.5(32) . . .
48(4) . . .
54(4) . . .
50(4) . . .
54(4) . . .
52(4) . . .
47(4) . . .
37.2(34) . . .
44(4) . . .
42.3(34) . . .
45(4) . . .
46(4) . . .
53(4) . . .
35.8(33) . . .
43.6(34) . . .
43.8(34) . . .
48(4) . . .
45.1(35) . . .
50(4) . . .
41.6(34) . . .
53(4) . . .
47(4) . . .
43(4) . . .
47(4) . . .
44(4) . . .
50(4) . . .
51(4) . . .
46(4) . . .
47(4) . . .
49(4) . . .
47(4) . . .
48(4) . . .
53(4) . . .
56(4) . . .
40.2(33) . . .
43.6(35) . . .
44(4) . . .
47(4) . . .
52(4) . . .
48(4) . . .
41.7(34) . . .
53(4) . . .
47(4) . . .
42.8(34) . . .
56(4) . . .
39(4) . . .
45(4) . . .
45.8(35) . . .
57(4) . . .
52(4) . . .
53(4) . . .
53(4) . . .
52(4) . . .
51(4) . . .
45.7(35) . . .
42.5(33) . . .
46(4) . . .
48(4) . . .
42.0(34) . . .
59(4) . . .
47(4) . . .
48(4) . . .
53(4) . . .
45(4) . . .
52(4) . . .
42(4) . . .
53(4) . . .
46(4) . . .
50(4) . . .
50(4) . . .
34.7(33) . . .
45(4) . . .
56(4) . . .
45(4) . . .
51(4) . . .
51(4) . . .
48(4) . . .
35.7(31) . . .
44.4(35) . . .
31.7(30) . . .
47(4) . . .
46(4) . . .
49(4) . . .
44.7(35) . . .
48(4) . . .
41(4) . . .
54(4) . . .
54(4) . . .
55(4) . . .
53(4) . . .
42(4) . . .
51(4) . . .
52(4) . . .
50(4) . . .
43(4) . . .
38.3(35) . . .
45(4) . . .
46(4) . . .
40.2(35) . . .
39.4(34) . . .
43(4) . . .
47(4) . . .
42.7(34) . . .
43.8(35) . . .
53(4) . . .
43(4) . . .
39.7(34) . . .
46(4) . . .
51(4) . . .
49(4) . . .
45(4) . . .
50(4) . . .
42.5(34) . . .
37.8(33) . . .
47(4) . . .
45(4) . . .
47(4) . . .
49(4) . . .
42(4) . . .
43(4) . . .
32.0(29) . . .
47(4) . . .
49(4) . . .
48(4) . . .
49(4) . . .
41.6(34) . . .
52(4) . . .
43.7(34) . . .
43.9(35) . . .
56(4) . . .
53(4) . . .
41.9(34) . . .
44.6(35) . . .
46(4) . . .
47(4) . . .
46(4) . . .
44.9(35) . . .
50(4) . . .
39.6(33) . . .
46(4) . . .
69(4) . . .
50(4) . . .
52(4) . . .
47(4) . . .
46(4) . . .
42.7(35) . . .
40.1(33) . . .
42(4) . . .
42(4) . . .
44(4) . . .
45(4) . . .
39.4(32) . . .
35.3(32) . . .
42.1(35) . . .
47(4) . . .
36.0(32) . . .
47(4) . . .
46(4) . . .
42.9(35) . . .
46(4) . . .
46(4) . . .
49(4) . . .
37.1(32) . . .
36.2(32) . . .
54(4) . . .
47(4) . . .
47(4) . . .
52(4) . . .
42(4) . . .
43(4) . . .
50(4) . . .
48(4) . . .
49(4) . . .
48(4) . . .
44.7(35) . . .
44(4) . . .
35.1(31) . . .
39(4) . . .
45(4) . . .
50(4) . . .
47(4) . . .
48(4) . . .
43.2(35) . . .
59(4) . . .
44.5(35) . . .
45.0(35) . . .
47(4) . . .
46(4) . . .
46(4) . . .
51(4) . . .
46(4) . . .
45.7(35) . . .
41(4) . . .
40(4) . . .
42(4) . . .
37.7(33) . . .
47(4) . . .
49(4) . . .
46(4) . . .
53(4) . . .
59(4) . . .
50(4) . . .
46(4) . . .
46(4) . . .
49(4) . . .
42.7(34) . . .
47(4) . . .
54(4) . . .
45(4) . . .
61(4) . . .
42.8(35) . . .
47(4) . . .
40.9(33) . . .
55(4) . . .
52(4) . . .
52(4) . . .
38.7(33) . . .
50(4) . . .
45(4) . . .
41.3(34) . . .
43.9(34) . . .
45.8(35) . . .
39.7(34) . . .
46(4) . . .
48(4) . . .
38.8(32) . . .
49(4) . . .
44(4) . . .
41.7(35) . . .
35.6(31) . . .
42.8(34) . . .
42.7(34) . . .
45(4) . . .
54(4) . . .
51(4) . . .
51(4) . . .
44.8(35) . . .
41(4) . . .
49(4) . . .
48(4) . . .
51(4) . . .
45(4) . . .
44(4) . . .
42.2(34) . . .
45.3(35) . . .
43.0(34) . . .
44.7(34) . . .
50(4) . . .
40.3(33) . . .
51(4) . . .
44.3(35) . . .
54(4) . . .
41(4) . . .
39(4) . . .
44.4(34) . . .
44.0(35) . . .
43(4) . . .
50(4) . . .
47(4) . . .
43.8(35) . . .
55(4) . . .
38.7(32) . . .
55(4) . . .
47(4) . . .
50(4) . . .
61(4) . . .
41.4(34) . . .
53(4) . . .
49(4) . . .
41.9(34) . . .
49(4) . . .
46(4) . . .
42.2(34) . . .
47(4) . . .
39.9(34) . . .
53(4) . . .
48(4) . . .
51(4) . . .
43.0(34) . . .
52(4) . . .
33.5(30) . . .
44(4) . . .
41.1(35) . . .
42.1(35) . . .
36.4(32) . . .
45(4) . . .
50(4) . . .
38.4(32) . . .
42.4(34) . . .
51(4) . . .
40.6(33) . . .
40(4) . . .
43.5(35) . . .
43.3(34) . . .
43.7(35) . . .
50(4) . . .
48(4) . . .
44(4) . . .
46(4) . . .
39.1(33) . . .
46(4) . . .
52(4) . . .
41.4(33) . . .
52(4) . . .
39.3(32) . . .
43(4) . . .
39.7(34) . . .
42.1(34) . . .
49(4) . . .
47(4) . . .
60(4) . . .
53(4) . . .
49(4) . . .
52(4) . . .
48(4) . . .
50(4) . . .
46(4) . . .
52(4) . . .
37.1(32) . . .
53(4) . . .
40.2(34) . . .
50(4) . . .
44.6(34) . . .
48(4) . . .
50(4) . . .
51(4) . . .
53(4) . . .
53(4) . . .
44.3(34) . . .
40.7(35) . . .
41(4) . . .
48(4) . . .
45(4) . . .
37.5(32) . . .
50(4) . . .
40.1(34) . . .
41(4) . . .
36.2(32) . . .
46(4) . . .
47(4) . . .
48(4) . . .
40.0(33) . . .
40.9(34) . . .
48(4) . . .
51(4) . . .
49(4) . . .
41.6(34) . . .
50(4) . . .
43.5(35) . . .
49(4) . . .
47(4) . . .
43.7(34) . . .
48(4) . . .
45(4) . . .
48(4) . . .
46(4) . . .
42.3(34) . . .
56(4) . . .
45.7(35) . . .
56(4) . . .
37.9(32) . . .
42(4) . . .
42.6(34) . . .
38.4(34) . . .
38.3(34) . . .
45(4) . . .
43(4) . . .
49(4) . . .
50(4) . . .
41.5(35) . . .
53(4) . . .
55(4) . . .
51(4) . . .
54(4) . . .
42.5(34) . . .
40.7(34) . . .
42.6(34) . . .
52(4) . . .
39.3(32) . . .
46(4) . . .
40.6(35) . . .
45(4) . . .
47(4) . . .
55(4) . . .
58(4) . . .
47(4) . . .
45.4(35) . . .
50(4) . . .
53(4) . . .
41.1(34) . . .
39.6(34) . . .
45(4) . . .
56(4) . . .
47(4) . . .
45(4) . . .
58(4) . . .
56(4) . . .
56(4) . . .
47(4) . . .
44(4) . . .
46(4) . . .
47(4) . . .
53(4) . . .
54(4) . . .
51(4) . . .
45(4) . . .
41.5(33) . . .
57(4) . . .
51(4) . . .
55(4) . . .
47(4) . . .
45(4) . . .
47(4) . . .
54(4) . . .
53(4) . . .
62(4) . . .
48(4) . . .
42.3(34) . . .
51(4) . . .
54(4) . . .
48(4) . . .
43.8(35) . . .
37.6(32) . . .
53(4) . . .
50(4) . . .
49(4) . . .
44.8(35) . . .
40.0(33) . . .
56(4) . . .
51(4) . . .
53(4) . . .
44.4(34) . . .
50(4) . . .
46(4) . . .
35.7(34) . . .
42.7(35) . . .
48(4) . . .
56(4) . . .
40(4) . . .
50(4) . . .
43.0(34) . . .
52(4) . . .
45(4) . . .
40(4) . . .
46(4) . . .
49(4) . . .
47(4) . . .
50(4) . . .
62(4) . . .
44(4) . . .
50(4) . . .
50(4) . . .
39.7(33) . . .
46(4) . . .
57(4) . . .
45.3(35) . . .
45(4) . . .
43.3(34) . . .
45(4) . . .
45(4) . . .
56(4) . . .
50(4) . . .
53(4) . . .
46(4) . . .
45(4) . . .
49(4) . . .
52(4) . . .
42(4) . . .
30.6(31) . . .
46(4) . . .
51(4) . . .
53(4) . . .
46(4) . . .
48(4) . . .
52(4) . . .
49(4) . . .
41.0(34) . . .
44.1(35) . . .
54(4) . . .
40.4(32) . . .
52(4) . . .
48(4) . . .
40.6(34) . . .
55(4) . . .
47(4) . . .
41.3(34) . . .
44(4) . . .
38.3(33) . . .
41.0(33) . . .
35.0(30) . . .
44.4(35) . . .
46(4) . . .
41.5(35) . . .
56(4) . . .
48(4) . . .
39.7(33) . . .
49(4) . . .
35.4(31) . . .
51(4) . . .
49(4) . . .
46(4) . . .
49(4) . . .
38.3(34) . . .
43(4) . . .
48(4) . . .
41.3(33) . . .
44.2(35) . . .
45(4) . . .
42.1(34) . . .
44.1(35) . . .
48(4) . . .
41.3(35) . . .
44(4) . . .
55(4) . . .
60(4) . . .
46(4) . . .
45(4) . . .
38.8(33) . . .
45(4) . . .
54(4) . . .
43.2(34) . . .
46(4) . . .
46(4) . . .
40(4) . . .
42.5(34) . . .
46(4) . . .
50(4) . . .
44(4) . . .
39.6(34) . . .
48(4) . . .
51(4) . . .
47(4) . . .
48(4) . . .
45(4) . . .
59(4) . . .
47(4) . . .
49(4) . . .
46(4) . . .
52(4) . . .
40.5(33) . . .
40.3(33) . . .
44(4) . . .
44(4) . . .
50(4) . . .
39.6(34) . . .
37.3(33) . . .
42(4) . . .
51(4) . . .
44.3(35) . . .
39.3(33) . . .
41.2(35) . . .
39.7(35) . . .
42.7(34) . . .
42.7(34) . . .
48(4) . . .
53(4) . . .
48(4) . . .
51(4) . . .
43.7(35) . . .
44.7(35) . . .
52(4) . . .
49(4) . . .
45(4) . . .
49(4) . . .
47(4) . . .
40.9(35) . . .
41.1(33) . . .
51(4) . . .
38.8(32) . . .
44.7(35) . . .
49(4) . . .
43.2(35) . . .
42.8(34) . . .
42.8(34) . . .
50(4) . . .
50(4) . . .
47(4) . . .
57(4) . . .
43.3(34) . . .
51(4) . . .
42.8(35) . . .
55(4) . . .
46(4) . . .
46(4) . . .
41.7(34) . . .
51(4) . . .
40.3(34) . . .
47(4) . . .
52(4) . . .
48(4) . . .
45(4) . . .
49(4) . . .
48(4) . . .
40.9(34) . . .
54(4) . . .
52(4) . . .
41.5(34) . . .
48(4) . . .
53(4) . . .
38.2(33) . . .
41(4) . . .
47(4) . . .
55(4) . . .
45.3(34) . . .
47(4) . . .
40(4) . . .
40.7(33) . . .
45.2(34) . . .
42(4) . . .
38.9(33) . . .
49(4) . . .
37.5(33) . . .
40.4(33) . . .
59(4) . . .
48(4) . . .
33.5(30) . . .
49(4) . . .
43.3(34) . . .
39.0(34) . . .
39.1(34) . . .
48(4) . . .
46(4) . . .
42.0(34) . . .
40.5(34) . . .
41.1(34) . . .
55(4) . . .
53(4) . . .
40.8(33) . . .
43(4) . . .
48(4) . . .
51(4) . . .
58(4) . . .
41.7(33) . . .
48(4) . . .
50(4) . . .
41.3(33) . . .
45.6(35) . . .
54(4) . . .
42.2(34) . . .
48(4) . . .
43.1(34) . . .
43(4) . . .
45(4) . . .
53(4) . . .
60(4) . . .
41.2(35) . . .
44(4) . . .
46(4) . . .
39.3(33) . . .
49(4) . . .
34.8(31) . . .
44.1(34) . . .
41.5(34) . . .
45(4) . . .
40(4) . . .
45(4) . . .
49(4) . . .
45.7(35) . . .
41.9(33) . . .
39.3(33) . . .
41.4(33) . . .
50(4) . . .
45(4) . . .
53(4) . . .
44(4) . . .
44(4) . . .
41.0(33) . . .
44.3(35) . . .
43(4) . . .
43(4) . . .
45(4) . . .
44.6(35) . . .
45(4) . . .
52(4) . . .
48(4) . . .
41.1(35) . . .
48(4) . . .
51(4) . . .
43.4(35) . . .
55(4) . . .
55(4) . . .
47(4) . . .
48(4) . . .
39.9(34) . . .
40.7(34) . . .
40.3(33) . . .
44.2(34) . . .
42.3(35) . . .
44(4) . . .
45(4) . . .
56(4) . . .
42.2(35) . . .
47(4) . . .
50(4) . . .
45(4) . . .
53(4) . . .
42.2(35) . . .
42.9(34) . . .
46(4) . . .
40(4) . . .
44.6(35) . . .
46(4) . . .
50(4) . . .
44(4) . . .
45(4) . . .
42.3(34) . . .
44.4(34) . . .
46(4) . . .
42(4) . . .
42.3(34) . . .
48(4) . . .
42.3(34) . . .
49(4) . . .
46(4) . . .
51(4) . . .
48(4) . . .
51(4) . . .
43(4) . . .
38(4) . . .
50(4) . . .
50(4) . . .
42.3(34) . . .
44(4) . . .
52(4) . . .
52(4) . . .
42.2(34) . . .
46(4) . . .
51(4) . . .
52(4) . . .
41(4) . . .
53(4) . . .
42.1(34) . . .
48(4) . . .
51(4) . . .
49(4) . . .
41.7(34) . . .
52(4) . . .
57(4) . . .
53(4) . . .
50(4) . . .
47(4) . . .
56(4) . . .
44(4) . . .
57(4) . . .
47(4) . . .
39.3(33) . . .
47(4) . . .
53(4) . . .
46(4) . . .
48(4) . . .
48(4) . . .
53(4) . . .
56(4) . . .
51(4) . . .
51(4) . . .
45(4) . . .
43(4) . . .
45(4) . . .
50(4) . . .
40.6(33) . . .
51(4) . . .
47(4) . . .
39.6(35) . . .
34.7(31) . . .
45(4) . . .
33.5(33) . . .
40(4) . . .
51(4) . . .
47(4) . . .
46(4) . . .
55(4) . . .
40.2(32) . . .
50(4) . . .
41.9(35) . . .
52(4) . . .
50(4) . . .
42(4) . . .
41(4) . . .
48(4) . . .
53(4) . . .
48(4) . . .
49(4) . . .
51(4) . . .
55(4) . . .
47(4) . . .
49(4) . . .
43(4) . . .
46(4) . . .
50(4) . . .
49(4) . . .
43(4) . . .
36.2(34) . . .
41(4) . . .
39.2(33) . . .
51(4) . . .
54(4) . . .
47(4) . . .
47(4) . . .
42.1(33) . . .
43.7(34) . . .
53(4) . . .
49(4) . . .
44.0(34) . . .
44.8(35) . . .
41.7(33) . . .
44(4) . . .
50(4) . . .
44(4) . . .
55(4) . . .
39.0(32) . . .
40.0(35) . . .
43(4) . . .
47(4) . . .
45.1(35) . . .
41.6(34) . . .
50(4) . . .
44.8(35) . . .
57(4) . . .
46(4) . . .
46.0(35) . . .
54(4) . . .
56(4) . . .
41.1(34) . . .
35.3(31) . . .
45(4) . . .
47(4) . . .
48(4) . . .
53(4) . . .
48(4) . . .
40.5(34) . . .
43(4) . . .
48(4) . . .
44(4) . . .
41.0(33) . . .
55(4) . . .
48(4) . . .
47(4) . . .
47(4) . . .
47(4) . . .
48(4) . . .
46(4) . . .
49(4) . . .
43.3(35) . . .
42.0(33) . . .
41.0(33) . . .
55(4) . . .
56(4) . . .
47(4) . . .
44.8(35) . . .
55(4) . . .
46(4) . . .
45(4) . . .
48(4) . . .
41.8(33) . . .
54(4) . . .
54(4) . . .
46(4) . . .
50(4) . . .
49(4) . . .
42.7(34) . . .
54(4) . . .
37.0(35) . . .
43.9(35) . . .
38.5(32) . . .
39.5(34) . . .
44(4) . . .
44(4) . . .
38.0(32) . . .
46(4) . . .
46(4) . . .
41.6(34) . . .
45(4) . . .
51(4) . . .
46(4) . . .
50(4) . . .
58(4) . . .
47(4) . . .
47(4) . . .
63(4) . . .
45(4) . . .
43(4) . . .
48(4) . . .
45(4) . . .
48(4) . . .
48(4) . . .
38.2(32) . . .
54(4) . . .
44.9(35) . . .
44.3(35) . . .
50(4) . . .
45.0(34) . . .
54(4) . . .
55(4) . . .
47(4) . . .
42(4) . . .
52(4) . . .
41.0(33) . . .
43.5(34) . . .
40.5(34) . . .
43(4) . . .
43.1(34) . . .
49(4) . . .
47(4) . . .
43(4) . . .
34.5(31) . . .
48(4) . . .
50(4) . . .
42.9(34) . . .
45(4) . . .
52(4) . . .
45(4) . . .
48(4) . . .
42.3(35) . . .
50(4) . . .
44(4) . . .
47(4) . . .
47(4) . . .
43(4) . . .
39.2(35) . . .
43(4) . . .
43.8(35) . . .
41.6(34) . . .
51(4) . . .
51(4) . . .
47(4) . . .
49(4) . . .
49(4) . . .
52(4) . . .
51(4) . . .
42.9(33) . . .
61(4) . . .
46(4) . . .
52(4) . . .
50(4) . . .
44(4) . . .
43(4) . . .
56(4) . . .
57(4) . . .
42(4) . . .
45(4) . . .
48(4) . . .
54(4) . . .
48(4) . . .
50(4) . . .
47(4) . . .
47(4) . . .
42.9(34) . . .
40.3(33) . . .
50(4) . . .
52(4) . . .
48(4) . . .
46.2(35) . . .
53(4) . . .
51(4) . . .
45(4) . . .
45(4) . . .
40.0(35) . . .
46(4) . . .
42(4) . . .
49(4) . . .
49(4) . . .
41.4(34) . . .
52(4) . . .
47(4) . . .
49(4) . . .
53(4) . . .
61(4) . . .
56(4) . . .
54(4) . . .
42(4) . . .
49(4) . . .
49(4) . . .
47(4) . . .
49(4) . . .
45.8(35) . . .
53(4) . . .
50(4) . . .
47(4) . . .
43(4) . . .
44(4) . . .
37.8(31) . . .
44(4) . . .
38.3(34) . . .
43(4) . . .
43.5(34) . . .
48(4) . . .
37.7(33) . . .
46(4) . . .
51(4) . . .
37.9(32) . . .
49(4) . . .
47(4) . . .
46(4) . . .
43.5(34) . . .
45.8(35) . . .
47(4) . . .
48(4) . . .
59(5) . . .
50(4) . . .
43.0(35) . . .
44.8(35) . . .
43.9(35) . . .
46(4) . . .
39.4(34) . . .
50(4) . . .
36.4(32) . . .
54(4) . . .
48(4) . . .
47(4) . . .
49(4) . . .
56(4) . . .
44.1(34) . . .
53(4) . . .
46(4) . . .
54(4) . . .
53(4) . . .
52(4) . . .
48(4) . . .
48(4) . . .
50(4) . . .
46(4) . . .
39.7(34) . . .
33.8(31) . . .
40.1(34) . . .
60(4) . . .
42(4) . . .
49(4) . . .
47(4) . . .
41(4) . . .
53(4) . . .
53(4) . . .
55(4) . . .
46(4) . . .
46(4) . . .
45.2(35) . . .
38.5(32) . . .
38.7(34) . . .
53(4) . . .
48(4) . . .
48(4) . . .
44(4) . . .
49(4) . . .
50(4) . . .
46(4) . . .
47(4) . . .
46(4) . . .
42(4) . . .
45(4) . . .
45(4) . . .
42.8(34) . . .
41.8(33) . . .
40.5(35) . . .
57(4) . . .
35.8(32) . . .
39.8(33) . . .
44.6(34) . . .
48(4) . . .
52(4) . . .
51(4) . . .
42.8(34) . . .
47(4) . . .
38.5(33) . . .
43.2(35) . . .
41.6(34) . . .
44.8(35) . . .
53(4) . . .
50(4) . . .
42.5(35) . . .
48(4) . . .
46(4) . . .
45(4) . . .
47(4) . . .
46(4) . . .
42.8(34) . . .
47(4) . . .
48(4) . . .
43(4) . . .
42.2(34) . . .
43.0(34) . . .
48(4) . . .
52(4) . . .
43.6(35) . . .
40.3(34) . . .
44.6(35) . . .
46(4) . . .
52(4) . . .
44(4) . . .
35.7(31) . . .
44.9(34) . . .
51(4) . . .
43(4) . . .
50(4) . . .
44(4) . . .
46(4) . . .
48(4) . . .
51(4) . . .
52(4) . . .
46(4) . . .
44.2(35) . . .
39.8(35) . . .
45(4) . . .
41.1(34) . . .
41.5(33) . . .
48(4) . . .
35.9(32) . . .
43(4) . . .
54(4) . . .
49(4) . . .
46(4) . . .
47(4) . . .
44(4) . . .
47(4) . . .
52(4) . . .
55(4) . . .
44(4) . . .
48(4) . . .
50(4) . . .
52(4) . . .
42.5(34) . . .
48(4) . . .
46(4) . . .
39.5(33) . . .
50(4) . . .
47(4) . . .
43(4) . . .
39.8(34) . . .
41.9(34) . . .
50(4) . . .
48(4) . . .
45(4) . . .
45(4) . . .
46(4) . . .
40.6(33) . . .
50(4) . . .
49(4) . . .
39.8(35) . . .
40(4) . . .
46(4) . . .
46(4) . . .
43(4) . . .
51(4) . . .
52(4) . . .
51(4) . . .
39.4(32) . . .
50(4) . . .
47(4) . . .
44(4) . . .
35.5(31) . . .
42.5(35) . . .
48(4) . . .
46(4) . . .
49(4) . . .
48(4) . . .
52(4) . . .
55(4) . . .
49(4) . . .
47(4) . . .
42.4(33) . . .
39.1(33) . . .
44(4) . . .
46(4) . . .
40.3(34) . . .
58(4) . . .
52(4) . . .
44(4) . . .
42(4) . . .
42.2(34) . . .
35.8(32) . . .
52(4) . . .
45(4) . . .
48(4) . . .
44.7(35) . . .
47(4) . . .
52(4) . . .
45(4) . . .
42.3(35) . . .
50(4) . . .
51(4) . . .
46(4) . . .
48(4) . . .
58(4) . . .
39.5(32) . . .
57(4) . . .
50(4) . . .
47(4) . . .
41(4) . . .
44.8(35) . . .
46(4) . . .
40.4(34) . . .
49(4) . . .
55(4) . . .
41.8(33) . . .
49(4) . . .
48(4) . . .
38.5(34) . . .
42.7(34) . . .
48(4) . . .
53(4) . . .
50(4) . . .
51(4) . . .
43.0(35) . . .
52(4) . . .
41.3(34) . . .
42(4) . . .
57(4) . . .
58(4) . . .
51(4) . . .
55(4) . . .
56(4) . . .
41.4(35) . . .
48(4) . . .
35.6(35) . . .
47(4) . . .
47(4) . . .
43(4) . . .
48(4) . . .
36.1(31) . . .
43(4) . . .
39.4(34) . . .
42.3(35) . . .
47(4) . . .
54(4) . . .
45.2(35) . . .
49(4) . . .
61(4) . . .
53(4) . . .
44(4) . . .
44(4) . . .
44(4) . . .
53(4) . . .
48(4) . . .
47(4) . . .
49(4) . . .
51(4) . . .
40.9(33) . . .
49(4) . . .
46(4) . . .
52(4) . . .
52(4) . . .
41.4(34) . . .
43.2(34) . . .
40.1(35) . . .
44(4) . . .
45(4) . . .
42.4(34) . . .
48(4) . . .
43.0(34) . . .
53(4) . . .
49(4) . . .
43.7(34) . . .
49(4) . . .
54(4) . . .
45(4) . . .
51(4) . . .
49(4) . . .
49(4) . . .
42.0(35) . . .
39.7(33) . . .
49(4) . . .
36.7(31) . . .
49(4) . . .
46(4) . . .
41(4) . . .
47(4) . . .
46(4) . . .
44.2(34) . . .
49(4) . . .
43.3(34) . . .
51(4) . . .
39.2(33) . . .
54(4) . . .
47(4) . . .
52(4) . . .
46(4) . . .
42.0(34) . . .
46(4) . . .
38.0(32) . . .
43(4) . . .
48(4) . . .
48(4) . . .
47(4) . . .
45(4) . . .
46(4) . . .
46(4) . . .
48(4) . . .
45(4) . . .
54(4) . . .
42(4) . . .
55(4) . . .
56(4) . . .
46(4) . . .
44(4) . . .
34.3(32) . . .
44(4) . . .
40.9(33) . . .
42.3(35) . . .
43(4) . . .
43(4) . . .
42.7(34) . . .
48(4) . . .
41.7(34) . . .
50(4) . . .
47(4) . . .
50(4) . . .
49(4) . . .
54(4) . . .
39.9(35) . . .
54(4) . . .
60(4) . . .
40.0(34) . . .
44(4) . . .
49(4) . . .
51(4) . . .
38.7(33) . . .
45(4) . . .
44(4) . . .
38.9(33) . . .
48(4) . . .
48(4) . . .
55(4) . . .
50(4) . . .
55(4) . . .
44(4) . . .
44.5(34) . . .
41.1(34) . . .
48(4) . . .
41.8(35) . . .
46(4) . . .
42.4(35) . . .
40.2(34) . . .
45(4) . . .
35.1(31) . . .
53(4) . . .
52(4) . . .
38.4(33) . . .
46(4) . . .
50(4) . . .
44.2(35) . . .
44.7(35) . . .
48(4) . . .
51(4) . . .
56(4) . . .
44(4) . . .
54(4) . . .
50(4) . . .
52(4) . . .
53(4) . . .
52(4) . . .
37.7(32) . . .
50(4) . . .
43(4) . . .
47(4) . . .
34.9(31) . . .
44.1(35) . . .
42.3(34) . . .
45(4) . . .
47(4) . . .
52(4) . . .
37.3(32) . . .
52(4) . . .
37.9(34) . . .
41.7(35) . . .
50(4) . . .
42.7(34) . . .
45(4) . . .
46(4) . . .
40.3(34) . . .
47(4) . . .
40.0(34) . . .
36.4(32) . . .
45(4) . . .
44.4(35) . . .
43.9(34) . . .
50(4) . . .
46(4) . . .
46(4) . . .
42.7(35) . . .
36.0(31) . . .
46(4) . . .
51(4) . . .
46(4) . . .
46(4) . . .
46(4) . . .
45(4) . . .
47(4) . . .
48(4) . . .
41.4(35) . . .
42.8(34) . . .
47(4) . . .
43(4) . . .
40(4) . . .
45.1(35) . . .
39.7(32) . . .
41.6(35) . . .
51(4) . . .
52(4) . . .
53(4) . . .
47(4) . . .
53(4) . . .
49(4) . . .
52(4) . . .
39.2(32) . . .
44(4) . . .
48(4) . . .
54(4) . . .
50(4) . . .
41.0(33) . . .
48(4) . . .
42.1(34) . . .
47(4) . . .
52(4) . . .
46(4) . . .
49(4) . . .
42(4) . . .
42.4(34) . . .
54(4) . . .
49(4) . . .
50(4) . . .
45(4) . . .
45(4) . . .
48(4) . . .
50(4) . . .
50(4) . . .
39.7(35) . . .
34.7(30) . . .
48(4) . . .
43.0(34) . . .
44(4) . . .
51(4) . . .
41.9(35) . . .
48(4) . . .
46(4) . . .
45(4) . . .
41(4) . . .
56(4) . . .
53(4) . . .
47(4) . . .
41(4) . . .
37.0(34) . . .
51(4) . . .
47(4) . . .
47(4) . . .
37.3(33) . . .
46(4) . . .
48(4) . . .
42.2(34) . . .
38.9(33) . . .
44.0(35) . . .
42(4) . . .
46(4) . . .
51(4) . . .
41.4(33) . . .
49(4) . . .
42(4) . . .
48(4) . . .
42.7(34) . . .
50(4) . . .
41.3(33) . . .
45(4) . . .
42(4) . . .
52(4) . . .
46.6(35) . . .
50(4) . . .
51(4) . . .
48(4) . . .
40.2(33) . . .
38.3(32) . . .
49(4) . . .
57(4) . . .
42.2(34) . . .
49(4) . . .
50(4) . . .
47(4) . . .
47(4) . . .
39.6(34) . . .
53(4) . . .
51(4) . . .
43(4) . . .
42(4) . . .
47(4) . . .
45(4) . . .
43(4) . . .
39.1(34) . . .
38.5(33) . . .
38.1(34) . . .
39.3(33) . . .
40.0(33) . . .
50(4) . . .
45(4) . . .
44(4) . . .
49(4) . . .
45.7(35) . . .
49(4) . . .
41.7(34) . . .
42.3(34) . . .
40.5(33) . . .
44(4) . . .
50(4) . . .
39.2(35) . . .
51(4) . . .
48(4) . . .
45(4) . . .
46(4) . . .
46(4) . . .
37.6(32) . . .
56(4) . . .
51(4) . . .
47(4) . . .
45(4) . . .
47(4) . . .
47(4) . . .
52(4) . . .
54(4) . . .
41.9(34) . . .
45.1(35) . . .
46(4) . . .
50(4) . . .
35.9(32) . . .
46(4) . . .
48(4) . . .
40.3(35) . . .
46(4) . . .
47(4) . . .
52(4) . . .
42.8(34) . . .
47(4) . . .
46(4) . . .
41.0(34) . . .
52(4) . . .
43.9(34) . . .
40.5(34) . . .
42.2(35) . . .
44.2(35) . . .
43.2(35) . . .
45(4) . . .
49(4) . . .
46(4) . . .
49(4) . . .
38.8(32) . . .
45(4) . . .
42.4(34) . . .
45(4) . . .
35.9(31) . . .
50(4) . . .
49(4) . . .
44(4) . . .
43(4) . . .
51(4) . . .
47(4) . . .
42.5(34) . . .
42.8(33) . . .
49(4) . . .
46(4) . . .
49(4) . . .
36.6(32) . . .
43.2(35) . . .
54(4) . . .
47(4) . . .
39.7(33) . . .
44.4(35) . . .
49(4) . . .
42(4) . . .
31.8(31) . . .
48(4) . . .
51(4) . . .
45.3(35) . . .
48(4) . . .
49(4) . . .
50(4) . . .
51(4) . . .
38.6(32) . . .
53(4) . . .
57(4) . . .
43.6(34) . . .
50(4) . . .
39.8(33) . . .
43(4) . . .
45(4) . . .
54(4) . . .
31.7(30) . . .
38.4(34) . . .
43(4) . . .
40.4(33) . . .
44.0(34) . . .
37.5(35) . . .
41(4) . . .
46(4) . . .
57(4) . . .
42.8(34) . . .
39.0(34) . . .
50(4) . . .
50(4) . . .
45.2(34) . . .
43.6(35) . . .
50(4) . . .
45(4) . . .
44.0(35) . . .
43.9(35) . . .
48(4) . . .
39.5(32) . . .
40.6(34) . . .
46(4) . . .
49(4) . . .
45.6(35) . . .
52(4) . . .
49(4) . . .
40.0(35) . . .
39.9(32) . . .
45.4(35) . . .
47(4) . . .
44(4) . . .
46(4) . . .
40.8(33) . . .
43(4) . . .
48(4) . . .
42(4) . . .
39.5(34) . . .
47(4) . . .
38.4(33) . . .
34.4(31) . . .
36.2(32) . . .
42.0(34) . . .
48(4) . . .
43(4) . . .
44(4) . . .
43(4) . . .
48(4) . . .
46(4) . . .
57(4) . . .
45(4) . . .
51(4) . . .
46(4) . . .
49(4) . . .
42.6(35) . . .
44(4) . . .
45(4) . . .
50(4) . . .
38.3(32) . . .
44(4) . . .
42(4) . . .
58(4) . . .
50(4) . . .
40.7(33) . . .
40.0(34) . . .
47(4) . . .
54(4) . . .
47(4) . . .
46(4) . . .
51(4) . . .
52(4) . . .
52(4) . . .
45.2(35) . . .
51(4) . . .
48(4) . . .
52(4) . . .
41.2(35) . . .
56(4) . . .
43.9(34) . . .
50(4) . . .
47(4) . . .
40.4(33) . . .
56(4) . . .
51(4) . . .
39.4(35) . . .
47(4) . . .
51(4) . . .
42.3(34) . . .
41.3(34) . . .
50(4) . . .
43(4) . . .
42.2(35) . . .
34.4(30) . . .
47(4) . . .
51(4) . . .
51(4) . . .
42.7(34) . . .
37.2(32) . . .
44(4) . . .
50(4) . . .
51(4) . . .
49(4) . . .
49(4) . . .
46(4) . . .
41.6(35) . . .
37.3(33) . . .
40.7(35) . . .
44.1(34) . . .
47(4) . . .
39(4) . . .
44(4) . . .
45(4) . . .
47(4) . . .
53(4) . . .
40.7(35) . . .
39.1(33) . . .
40.6(33) . . .
54(4) . . .
40.6(33) . . .
42(4) . . .
55(4) . . .
48(4) . . .
57(4) . . .
51(4) . . .
45(4) . . .
38.7(33) . . .
44.1(34) . . .
48(4) . . .
41.3(34) . . .
51(4) . . .
38.9(32) . . .
46(4) . . .
38.3(32) . . .
37.7(34) . . .
43(4) . . .
40.3(33) . . .
38.8(32) . . .
37.8(32) . . .
46(4) . . .
42.0(33) . . .
50(4) . . .
55(4) . . .
50(4) . . .
41.3(35) . . .
51(4) . . .
46(4) . . .
41.6(33) . . .
49(4) . . .
49(4) . . .
50(4) . . .
40.7(34) . . .
54(4) . . .
46(4) . . .
42(4) . . .
52(4) . . .
49(4) . . .
41.9(33) . . .
41(4) . . .
50(4) . . .
50(4) . . .
41.6(33) . . .
36.9(33) . . .
41.0(34) . . .
53(4) . . .
55(4) . . .
50(4) . . .
40.7(34) . . .
40.0(34) . . .
49(4) . . .
49(4) . . .
49(4) . . .
50(4) . . .
37.8(33) . . .
44(4) . . .
46(4) . . .
49(4) . . .
47(4) . . .
43(4) . . .
42.9(34) . . .
40.4(33) . . .
33.8(31) . . .
43.1(34) . . .
39.9(33) . . .
35.9(31) . . .
47(4) . . .
47(4) . . .
48(4) . . .
44(4) . . .
38.7(34) . . .
39.6(34) . . .
50(4) . . .
46(4) . . .
42(4) . . .
43.1(35) . . .
48(4) . . .
50(4) . . .
40.2(35) . . .
41(4) . . .
41.2(34) . . .
37.7(32) . . .
41.6(34) . . .
47(4) . . .
44(4) . . .
51(4) . . .
48(4) . . .
52(4) . . .
52(4) . . .
52(4) . . .
47(4) . . .
51(4) . . .
47(4) . . .
44.5(35) . . .
52(4) . . .
49(4) . . .
39.3(33) . . .
39.1(33) . . .
53(4) . . .
52(4) . . .
45(4) . . .
46(4) . . .
50(4) . . .
51(4) . . .
43.8(35) . . .
54(4) . . .
47(4) . . .
42.9(35) . . .
41.6(34) . . .
53(4) . . .
47(4) . . .
46(4) . . .
36.7(32) . . .
38.1(33) . . .
48(4) . . .
38.3(32) . . .
47(4) . . .
44(4) . . .
51(4) . . .
43(4) . . .
41(4) . . .
53(4) . . .
40.7(33) . . .
53(4) . . .
43(4) . . .
47(4) . . .
48(4) . . .
44(4) . . .
46(4) . . .
41.1(35) . . .
45(4) . . .
47(4) . . .
46(4) . . .
48(4) . . .
41.4(34) . . .
42.6(34) . . .
38.4(32) . . .
43(4) . . .
46(4) . . .
49(4) . . .
51(4) . . .
43.5(34) . . .
54(4) . . .
45(4) . . .
41.0(35) . . .
47(4) . . .
48(4) . . .
50(4) . . .
52(4) . . .
43(4) . . .
50(4) . . .
40.2(33) . . .
42(4) . . .
41(4) . . .
38.2(32) . . .
42.9(34) . . .
40.1(33) . . .
51(4) . . .
51(4) . . .
37.4(31) . . .
50(4) . . .
46(4) . . .
35.6(31) . . .
36.4(35) . . .
41.4(34) . . .
36.0(31) . . .
45.2(35) . . .
44(4) . . .
44(4) . . .
47(4) . . .
49(4) . . .
44(4) . . .
34.1(32) . . .
44(4) . . .
47(4) . . .
50(4) . . .
45(4) . . .
50(4) . . .
47(4) . . .
48(4) . . .
40.5(33) . . .
46(4) . . .
58(4) . . .
52(4) . . .
45(4) . . .
43.7(34) . . .
54(4) . . .
53(4) . . .
50(4) . . .
36.9(31) . . .
44(4) . . .
44(4) . . .
48(4) . . .
43.9(34) . . .
44(4) . . .
35.6(32) . . .
48(4) . . .
46(4) . . .
56(4) . . .
41.5(35) . . .
39.3(32) . . .
39.8(34) . . .
45(4) . . .
44(4) . . .
47(4) . . .
47(4) . . .
51(4) . . .
42(4) . . .
45(4) . . .
43.4(34) . . .
46(4) . . .
54(4) . . .
46(4) . . .
47(4) . . .
38.7(32) . . .
39.3(32) . . .
49(4) . . .
48(4) . . .
53(4) . . .
40.6(34) . . .
47(4) . . .
46(4) . . .
40.2(35) . . .
48(4) . . .
48(4) . . .
48(4) . . .
51(4) . . .
50(4) . . .
41.3(34) . . .
41.7(34) . . .
36.8(32) . . .
48(4) . . .
46(4) . . .
40.2(33) . . .
47(4) . . .
44(4) . . .
47(4) . . .
49(4) . . .
42.3(34) . . .
53(4) . . .
44(4) . . .
45(4) . . .
46(4) . . .
48(4) . . .
40.2(33) . . .
44(4) . . .
43(4) . . .
45(4) . . .
47(4) . . .
46(4) . . .
38.9(32) . . .
42.6(35) . . .
44(4) . . .
38.3(34) . . .
38.8(32) . . .
54(4) . . .
60(4) . . .
46(4) . . .
28.4(28) . . .
41.7(34) . . .
28.2(29) . . .
46(4) . . .
48(4) . . .
43.4(35) . . .
39.3(33) . . .
43.2(34) . . .
45(4) . . .
41.7(33) . . .
38.8(33) . . .
45(4) . . .
48(4) . . .
44(4) . . .
46(4) . . .
51(4) . . .
48(4) . . .
45(4) . . .
39.0(33) . . .
47(4) . . .
43.8(34) . . .
43(4) . . .
47(4) . . .
48(4) . . .
52(4) . . .
47(4) . . .
52(4) . . .
43.6(34) . . .
55(4) . . .
43(4) . . .
41.3(34) . . .
51(4) . . .
45(4) . . .
48(4) . . .
51(4) . . .
49(4) . . .
51(4) . . .
42(4) . . .
45(4) . . .
36.6(33) . . .
47(4) . . .
42.1(34) . . .
37.0(33) . . .
50(4) . . .
45.9(35) . . .
50(4) . . .
39.6(32) . . .
61(5) . . .
52(4) . . .
54(4) . . .
41.3(34) . . .
42(4) . . .
43(4) . . .
46(4) . . .
52(4) . . .
53(4) . . .
43(4) . . .
45(4) . . .
39.9(33) . . .
47(4) . . .
42(4) . . .
38.9(32) . . .
49(4) . . .
44(4) . . .
46(4) . . .
45(4) . . .
51(4) . . .
50(4) . . .
39.0(34) . . .
42.8(34) . . .
46(4) . . .
51(4) . . .
43(4) . . .
39.9(33) . . .
38.1(32) . . .
41.1(34) . . .
41.6(35) . . .
41.1(35) . . .
48(4) . . .
44.3(34) . . .
56(4) . . .
44(4) . . .
43(4) . . .
40.1(34) . . .
39.1(33) . . .
43.8(34) . . .
45(4) . . .
40.8(33) . . .
47(4) . . .
37.7(31) . . .
45(4) . . .
40.9(34) . . .
44.3(35) . . .
53(4) . . .
53(4) . . .
46(4) . . .
45(4) . . .
39.4(32) . . .
47(4) . . .
48(4) . . .
50(4) . . .
43(4) . . .
50(4) . . .
48(4) . . .
47(4) . . .
38(4) . . .
42(4) . . .
45(4) . . .
38.2(32) . . .
48(4) . . .
42.5(34) . . .
46(4) . . .
41.2(34) . . .
36.6(32) . . .
51(4) . . .
40.3(35) . . .
45(4) . . .
48(4) . . .
42.1(34) . . .
48(4) . . .
42.0(34) . . .
44(4) . . .
47(4) . . .
41.4(33) . . .
47(4) . . .
48(4) . . .
51(4) . . .
51(4) . . .
44.9(35) . . .
41.6(35) . . .
37.6(33) . . .
45(4) . . .
33.3(30) . . .
37.4(32) . . .
48(4) . . .
39.4(35) . . .
36.2(32) . . .
44.1(35) . . .
49(4) . . .
38.5(34) . . .
48(4) . . .
45(4) . . .
52(4) . . .
38.4(32) . . .
54(4) . . .
45(4) . . .
41(4) . . .
39.1(33) . . .
34.6(30) . . .
59(4) . . .
41.9(34) . . .
51(4) . . .
36.2(31) . . .
38.1(33) . . .
48(4) . . .
49(4) . . .
53(4) . . .
48(4) . . .
58(4) . . .
53(4) . . .
42(4) . . .
48(4) . . .
41.0(33) . . .
45.2(35) . . .
47(4) . . .
46(4) . . .
49(4) . . .
50(4) . . .
50(4) . . .
49(4) . . .
45(4) . . .
44(4) . . .
46(4) . . .
44(4) . . .
44(4) . . .
42.2(34) . . .
54(4) . . .
44.7(35) . . .
39.2(33) . . .
43(4) . . .
44(4) . . .
46(4) . . .
48(4) . . .
50(4) . . .
35.2(32) . . .
41.0(33) . . .
50(4) . . .
38.1(32) . . .
54(4) . . .
51(4) . . .
50(4) . . .
46(4) . . .
45(4) . . .
43(4) . . .
49(4) . . .
46(4) . . .
43.6(34) . . .
38.5(32) . . .
51(4) . . .
51(4) . . .
53(4) . . .
42.2(34) . . .
40.3(33) . . .
44(4) . . .
48(4) . . .
42.5(34) . . .
40.2(33) . . .
57(4) . . .
44.5(35) . . .
46(4) . . .
55(4) . . .
44.0(35) . . .
34.0(31) . . .
45(4) . . .
40.4(34) . . .
39.2(33) . . .
51(4) . . .
49(4) . . .
46(4) . . .
40.0(34) . . .
47(4) . . .
42.6(34) . . .
48(4) . . .
38.6(33) . . .
45(4) . . .
51(4) . . .
46(4) . . .
44(4) . . .
45(4) . . .
42.8(35) . . .
38.1(32) . . .
42.1(34) . . .
48(4) . . .
41(4) . . .
41.1(35) . . .
43.2(34) . . .
50(4) . . .
47(4) . . .
41(4) . . .
43.2(35) . . .
41.4(34) . . .
45.0(35) . . .
55(4) . . .
46(4) . . .
44(4) . . .
46(4) . . .
47(4) . . .
37.5(35) . . .
30.0(29) . . .
38.1(32) . . .
51(4) . . .
34.7(30) . . .
44(4) . . .
46(4) . . .
43(4) . . .
39.4(32) . . .
41.6(34) . . .
37.4(32) . . .
33.7(31) . . .
48(4) . . .
50(4) . . .
46(4) . . .
46(4) . . .
52(4) . . .
45(4) . . .
47(4) . . .
45.3(35) . . .
50(4) . . .
44(4) . . .
52(4) . . .
47(4) . . .
44.3(35) . . .
50(4) . . .
39(4) . . .
46(4) . . .
39.6(32) . . .
44(4) . . .
46(4) . . .
39.5(32) . . .
48(4) . . .
36.2(32) . . .
35.6(32) . . .
45(4) . . .
47(4) . . .
51(4) . . .
50(4) . . .
47(4) . . .
44(4) . . .
47(4) . . .
40.1(33) . . .
40.8(33) . . .
50(4) . . .
38.1(33) . . .
42.0(34) . . .
45.5(35) . . .
44.5(35) . . .
41(4) . . .
40(4) . . .
53(4) . . .
43.9(35) . . .
38.7(33) . . .
41(4) . . .
35.3(32) . . .
45(4) . . .
45.0(35) . . .
42.6(34) . . .
49(4) . . .
48(4) . . .
34.5(33) . . .
42.2(34) . . .
52(4) . . .
36.1(31) . . .
41(4) . . .
46(4) . . .
47(4) . . .
50(4) . . .
40(4) . . .
38.3(35) . . .
31.7(30) . . .
39.8(33) . . .
43.0(34) . . .
46(4) . . .
44(4) . . .
39.8(33) . . .
35.5(31) . . .
50(4) . . .
45(4) . . .
40.6(34) . . .
39.8(33) . . .
49(4) . . .
47(4) . . .
56(4) . . .
40.8(34) . . .
44(4) . . .
40.3(33) . . .
45(4) . . .
46(4) . . .
37.8(33) . . .
38.4(32) . . .
45(4) . . .
44(4) . . .
47(4) . . .
40.0(32) . . .
42.4(35) . . .
46(4) . . .
39.4(33) . . .
45(4) . . .
40.8(34) . . .
41.6(34) . . .
47(4) . . .
48(4) . . .
43.2(35) . . .
48(4) . . .
43.9(35) . . .
39.6(33) . . .
36.3(32) . . .
42(4) . . .
50(4) . . .
45(4) . . .
41.3(33) . . .
43.0(34) . . .
41.8(34) . . .
45(4) . . .
40.9(34) . . .
47(4) . . .
50(4) . . .
46(4) . . .
42.4(35) . . .
50(4) . . .
42(4) . . .
33.7(33) . . .
40.8(35) . . .
41.5(34) . . .
35.5(31) . . .
42.8(35) . . .
39.1(33) . . .
43(4) . . .
41.4(34) . . .
39.6(33) . . .
45(4) . . .
42(4) . . .
46(4) . . .
44.1(35) . . .
49(4) . . .
37.0(34) . . .
45(4) . . .
45.4(35) . . .
35.8(31) . . .
43.3(35) . . .
48(4) . . .
54(4) . . .
53(4) . . .
47(4) . . .
50(4) . . .
48(4) . . .
50(4) . . .
37.9(33) . . .
43.8(35) . . .
40.3(33) . . .
46(4) . . .
41(4) . . .
37.8(32) . . .
53(4) . . .
44.6(34) . . .
44(4) . . .
32.5(30) . . .
45(4) . . .
50(4) . . .
44.0(34) . . .
46(4) . . .
41.7(35) . . .
47(4) . . .
37.9(32) . . .
44.5(34) . . .
43(4) . . .
44(4) . . .
45(4) . . .
48(4) . . .
46(4) . . .
40.1(34) . . .
48(4) . . .
58(4) . . .
47(4) . . .
53(4) . . .
48(4) . . .
45(4) . . .
39.0(32) . . .
38.3(32) . . .
45(4) . . .
50(4) . . .
43(4) . . .
41.0(33) . . .
54(4) . . .
37.7(33) . . .
36.1(31) . . .
43.8(35) . . .
51(4) . . .
48(4) . . .
51(4) . . .
51(4) . . .
39.1(33) . . .
41.2(35) . . .
51(4) . . .
43(4) . . .
39.0(34) . . .
39.8(33) . . .
41.5(33) . . .
44(4) . . .
35.7(31) . . .
45(4) . . .
37.8(31) . . .
43.6(34) . . .
44.3(34) . . .
50(4) . . .
43.9(35) . . .
40.1(35) . . .
42.4(35) . . .
45(4) . . .
45(4) . . .
47(4) . . .
51(4) . . .
42.0(34) . . .
50(4) . . .
40.8(34) . . .
38(4) . . .
42(4) . . .
45.8(35) . . .
42.0(34) . . .
41.8(34) . . .
52(4) . . .
44(4) . . .
37.0(31) . . .
45.3(35) . . .
52(4) . . .
51(4) . . .
43.9(35) . . .
42.2(34) . . .
39.8(34) . . .
42(4) . . .
44(4) . . .
39.1(34) . . .
39.7(33) . . .
45(4) . . .
46(4) . . .
50(4) . . .
47(4) . . .
52(4) . . .
52(4) . . .
36.8(33) . . .
37.2(34) . . .
48(4) . . .
40.0(33) . . .
38.8(32) . . .
45(4) . . .
48(4) . . .
40.7(34) . . .
39.2(32) . . .
41.6(34) . . .
48(4) . . .
49(4) . . .
51(4) . . .
42.3(34) . . .
48(4) . . .
47(4) . . .
55(4) . . .
46(4) . . .
47(4) . . .
46(4) . . .
39(4) . . .
42(4) . . .
49(4) . . .
46(4) . . .
39.3(34) . . .
35.1(33) . . .
33.6(31) . . .
40.7(33) . . .
55(4) . . .
52(4) . . .
51(4) . . .
42(4) . . .
51(4) . . .
38.7(33) . . .
37.7(32) . . .
39.9(34) . . .
46(4) . . .
29.5(28) . . .
44(4) . . .
40.9(33) . . .
42.0(34) . . .
50(4) . . .
56(4) . . .
47(4) . . .
41.3(33) . . .
52(4) . . .
39.0(32) . . .
41.9(35) . . .
46(4) . . .
46(4) . . .
51(4) . . .
53(4) . . .
50(4) . . .
47(4) . . .
38.0(33) . . .
39.5(34) . . .
48(4) . . .
48(4) . . .
39.9(35) . . .
51(4) . . .
45(4) . . .
43.5(34) . . .
39.8(33) . . .
46(4) . . .
38(4) . . .
39.4(34) . . .
41.7(34) . . .
43.2(34) . . .
44(4) . . .
46(4) . . .
46(4) . . .
41.3(33) . . .
44.1(35) . . .
44(4) . . .
45(4) . . .
44(4) . . .
40.0(33) . . .
41.4(33) . . .
42.1(33) . . .
51(4) . . .
45.6(35) . . .
50(4) . . .
40.2(34) . . .
49(4) . . .
47(4) . . .
37.3(34) . . .
35.7(31) . . .
45(4) . . .
42.0(33) . . .
55(4) . . .
46(4) . . .
47(4) . . .
47(4) . . .
46(4) . . .
48(4) . . .
31.9(29) . . .
46(4) . . .
43.7(35) . . .
36.8(34) . . .
47(4) . . .
46.8(35) . . .
49(4) . . .
53(4) . . .
62(4) . . .
43.9(35) . . .
46(4) . . .
46(4) . . .
47(4) . . .
43.8(35) . . .
34.5(31) . . .
40.3(33) . . .
40.5(33) . . .
34.3(30) . . .
35.2(33) . . .
45(4) . . .
47(4) . . .
44.4(35) . . .
41.5(33) . . .
44(4) . . .
45(4) . . .
42.4(34) . . .
40.5(33) . . .
43.5(34) . . .
46(4) . . .
47(4) . . .
44.9(35) . . .
40.4(34) . . .
42.6(35) . . .
46(4) . . .
43(4) . . .
34.8(31) . . .
44.5(35) . . .
44.0(35) . . .
58(4) . . .
49(4) . . .
31.2(29) . . .
44(4) . . .
43.4(35) . . .
45(4) . . .
38.0(32) . . .
45(4) . . .
55(4) . . .
38.2(32) . . .
48(4) . . .
52(4) . . .
36.9(32) . . .
42.7(35) . . .
34.7(32) . . .
36.4(33) . . .
38.7(32) . . .
42.4(34) . . .
51(4) . . .
50(4) . . .
47(4) . . .
40.1(33) . . .
40.3(33) . . .
43.5(35) . . .
48(4) . . .
47(4) . . .
43.6(34) . . .
49(4) . . .
48(4) . . .
47(4) . . .
45(4) . . .
40.9(34) . . .
41.1(34) . . .
45(4) . . .
45(4) . . .
53(4) . . .
43.4(35) . . .
35.1(31) . . .
41(4) . . .
46(4) . . .
41.4(34) . . .
45(4) . . .
36.1(31) . . .
50(4) . . .
50(4) . . .
48(4) . . .
56(4) . . .
44(4) . . .
46(4) . . .
40(4) . . .
42(4) . . .
36.3(32) . . .
43(4) . . .
40.3(34) . . .
46(4) . . .
47(4) . . .
47(4) . . .
49(4) . . .
35.4(34) . . .
39.7(34) . . .
38.9(32) . . .
47(4) . . .
43(4) . . .
43(4) . . .
44(4) . . .
50(4) . . .
53(4) . . .
45(4) . . .
36.4(34) . . .
35.0(31) . . .
50(4) . . .
54(4) . . .
47(4) . . .
48(4) . . .
44(4) . . .
49(4) . . .
44.3(35) . . .
38.1(33) . . .
39(4) . . .
41.8(35) . . .
52(4) . . .
45(4) . . .
34.1(31) . . .
35.3(33) . . .
46(4) . . .
52(4) . . .
56(4) . . .
42(4) . . .
40(4) . . .
44(4) . . .
42.5(34) . . .
47(4) . . .
46(4) . . .
44(4) . . .
47(4) . . .
49(4) . . .
42.0(34) . . .
47(4) . . .
42(4) . . .
42(4) . . .
48(4) . . .
39.1(33) . . .
47(4) . . .
50(4) . . .
44(4) . . .
45.0(35) . . .
41(4) . . .
51(4) . . .
48(4) . . .
35.5(31) . . .
45(4) . . .
45(4) . . .
38.5(34) . . .
38.1(33) . . .
42.0(34) . . .
48(4) . . .
43.8(35) . . .
50(4) . . .
45(4) . . .
39.7(34) . . .
42.8(34) . . .
40.3(35) . . .
44(4) . . .
46(4) . . .
42.2(33) . . .
42.7(34) . . .
37.4(31) . . .
42(4) . . .
39.8(33) . . .
44.0(34) . . .
40.0(33) . . .
40(4) . . .
37.0(34) . . .
47(4) . . .
51(4) . . .
40.8(35) . . .
41.9(34) . . .
48(4) . . .
45(4) . . .
45.7(35) . . .
50(4) . . .
46(4) . . .
43(4) . . .
44(4) . . .
36.1(31) . . .
43.7(35) . . .
41.7(35) . . .
39(4) . . .
45(4) . . .
40.1(33) . . .
55(4) . . .
46(4) . . .
39.8(34) . . .
39.7(34) . . .
47(4) . . .
50(4) . . .
48(4) . . .
37.5(33) . . .
43.9(35) . . .
51(4) . . .
50(4) . . .
46(4) . . .
39.8(34) . . .
40.0(33) . . .
42.7(34) . . .
38.5(33) . . .
39(4) . . .
41(4) . . .
38.0(34) . . .
49(4) . . .
46(4) . . .
38.0(34) . . .
41.9(34) . . .
45.4(35) . . .
46(4) . . .
33.2(34) . . .
40(4) . . .
38.2(33) . . .
39.3(32) . . .
46(4) . . .
39.3(34) . . .
42(4) . . .
47(4) . . .
51(4) . . .
39.2(33) . . .
44(4) . . .
48(4) . . .
47(4) . . .
43.4(34) . . .
51(4) . . .
43.6(34) . . .
57(4) . . .
40.8(34) . . .
41.5(33) . . .
39(4) . . .
40(4) . . .
47(4) . . .
43.0(35) . . .
50(4) . . .
49(4) . . .
37.3(33) . . .
47(4) . . .
55(4) . . .
47(4) . . .
39.4(34) . . .
31.4(32) . . .
47(4) . . .
42(4) . . .
38.1(32) . . .
41.4(34) . . .
48(4) . . .
44(4) . . .
46(4) . . .
45(4) . . .
41.5(35) . . .
38.4(32) . . .
36.8(32) . . .
42(4) . . .
40.0(33) . . .
44(4) . . .
45(4) . . .
45(4) . . .
37.6(32) . . .
43.7(34) . . .
48(4) . . .
37.3(33) . . .
40.3(34) . . .
43.2(35) . . .
48(4) . . .
39.2(34) . . .
36.2(33) . . .
42(4) . . .
39.9(33) . . .
42.6(34) . . .
44.4(35) . . .
40.5(35) . . .
49(4) . . .
45(4) . . .
42.8(34) . . .
41(4) . . .
44(4) . . .
46(4) . . .
42.5(34) . . .
50(4) . . .
53(4) . . .
46(4) . . .
42.5(35) . . .
45(4) . . .
49(4) . . .
45(4) . . .
44(4) . . .
43(4) . . .
52(4) . . .
51(4) . . .
47(4) . . .
46(4) . . .
39.2(33) . . .
42.4(33) . . .
44(4) . . .
34.7(31) . . .
42(4) . . .
42.8(35) . . .
49(4) . . .
39.9(34) . . .
39.2(33) . . .
40.0(33) . . .
52(4) . . .
38.6(32) . . .
35.3(32) . . .
48(4) . . .
40.6(33) . . .
43.6(35) . . .
39.6(32) . . .
44(4) . . .
42(4) . . .
37.7(33) . . .
42.6(35) . . .
40.0(33) . . .
52(4) . . .
43(4) . . .
48(4) . . .
57(4) . . .
43.1(34) . . .
47(4) . . .
42(4) . . .
48(4) . . .
43.1(34) . . .
47(4) . . .
41.7(35) . . .
46(4) . . .
41(4) . . .
38.7(32) . . .
44.5(35) . . .
50(4) . . .
45(4) . . .
42(4) . . .
42.6(34) . . .
46(4) . . .
40.9(34) . . .
42(4) . . .
49(4) . . .
47(4) . . .
43.6(35) . . .
39.6(34) . . .
42(4) . . .
54(4) . . .
56(4) . . .
51(4) . . .
51(4) . . .
48(4) . . .
45(4) . . .
46(4) . . .
51(4) . . .
42.2(35) . . .
43(4) . . .
42.7(34) . . .
35.9(32) . . .
43.7(35) . . .
50(4) . . .
51(4) . . .
43.7(34) . . .
41.0(33) . . .
39.1(33) . . .
38.0(32) . . .
51(4) . . .
43.4(35) . . .
43.1(34) . . .
38.9(33) . . .
44(4) . . .
38.5(33) . . .
48(4) . . .
46(4) . . .
38.4(35) . . .
44(4) . . .
40.4(34) . . .
40.9(33) . . .
46.0(35) . . .
55(4) . . .
45(4) . . .
37.3(33) . . .
42.8(34) . . .
43.9(34) . . .
38.0(32) . . .
44(4) . . .
51(4) . . .
42.3(34) . . .
37.0(32) . . .
46(4) . . .
42(4) . . .
42(4) . . .
38.3(33) . . .
42(4) . . .
45(4) . . .
43(4) . . .
36.3(32) . . .
48(4) . . .
40.5(33) . . .
49(4) . . .
48(4) . . .
35.4(31) . . .
47(4) . . .
42.0(33) . . .
52(4) . . .
42.8(34) . . .
43.2(34) . . .
40.3(33) . . .
53(4) . . .
40(4) . . .
38.7(33) . . .
45(4) . . .
43.7(34) . . .
42.0(34) . . .
41.0(34) . . .
41.5(34) . . .
38.6(33) . . .
39.1(32) . . .
44(4) . . .
44(4) . . .
37.8(34) . . .
44.0(35) . . .
36.9(31) . . .
38(4) . . .
31.6(32) . . .
42(4) . . .
33.1(30) . . .
42.7(35) . . .
46(4) . . .
38(4) . . .
43(4) . . .
41.9(34) . . .
40.9(33) . . .
44(4) . . .
42(4) . . .
40.1(35) . . .
43.1(34) . . .
38.3(32) . . .
49(4) . . .
47(4) . . .
47(4) . . .
43.3(34) . . .
44(4) . . .
35.4(33) . . .
44(4) . . .
44(4) . . .
37.9(31) . . .
52(4) . . .
39.7(35) . . .
44(4) . . .
42.5(35) . . .
48(4) . . .
45.1(35) . . .
37.5(33) . . .
42(4) . . .
34.7(31) . . .
42.5(34) . . .
53(4) . . .
38.8(32) . . .
48(4) . . .
62(4) . . .
42.9(34) . . .
38.7(34) . . .
45(4) . . .
48(4) . . .
40.5(35) . . .
47(4) . . .
32.7(31) . . .
42(4) . . .
35.5(32) . . .
45(4) . . .
45.4(35) . . .
40.7(34) . . .
48(4) . . .
50(4) . . .
42.8(34) . . .
37.4(32) . . .
38.2(33) . . .
40.3(35) . . .
47(4) . . .
37.7(32) . . .
52(4) . . .
40.1(34) . . .
51(4) . . .
56(4) . . .
36.3(32) . . .
51(4) . . .
37.1(33) . . .
41(4) . . .
40.0(34) . . .
42.1(34) . . .
41.5(35) . . .
36.1(32) . . .
43(4) . . .
43(4) . . .
40.6(33) . . .
40.4(34) . . .
46(4) . . .
43.8(35) . . .
40.8(34) . . .
42.5(34) . . .
43.2(34) . . .
43(4) . . .
51(4) . . .
43.3(34) . . .
41.7(34) . . .
42.6(34) . . .
38.7(34) . . .
46(4) . . .
44.9(35) . . .
38.5(32) . . .
56(4) . . .
43(4) . . .
44(4) . . .
42.3(35) . . .
33.8(30) . . .
48(4) . . .
45(4) . . .
46(4) . . .
40.5(33) . . .
41.9(34) . . .
44(4) . . .
31.2(31) . . .
42(4) . . .
38.6(32) . . .
34.6(31) . . .
44(4) . . .
44(4) . . .
36.9(33) . . .
42.3(34) . . .
49(4) . . .
55(4) . . .
50(4) . . .
45(4) . . .
39.2(32) . . .
46(4) . . .
42.2(34) . . .
37.8(33) . . .
45(4) . . .
46(4) . . .
39.7(33) . . .
43(4) . . .
42(4) . . .
41(4) . . .
51(4) . . .
43.1(34) . . .
42.5(34) . . .
43.5(35) . . .
40.5(35) . . .
40.6(34) . . .
39.8(35) . . .
43(4) . . .
52(4) . . .
52(4) . . .
39.7(33) . . .
49(4) . . .
55(4) . . .
44.5(35) . . .
36.5(31) . . .
44(4) . . .
37.2(33) . . .
50(4) . . .
40.3(33) . . .
41.2(33) . . .
49(4) . . .
50(4) . . .
42(4) . . .
47(4) . . .
36.8(31) . . .
37.9(32) . . .
39.8(33) . . .
48(4) . . .
53(4) . . .
47(4) . . .
43.5(35) . . .
40.4(33) . . .
39(4) . . .
34.8(31) . . .
46.5(35) . . .
50(4) . . .
53(4) . . .
37.5(31) . . .
47(4) . . .
40.8(33) . . .
41.8(34) . . .
36.5(33) . . .
40.8(35) . . .
45(4) . . .
39.1(33) . . .
43.4(34) . . .
43(4) . . .
39(4) . . .
45(4) . . .
37.7(32) . . .
40.7(33) . . .
42.0(34) . . .
37.3(33) . . .
47(4) . . .
51(4) . . .
46(4) . . .
50(4) . . .
37.9(32) . . .
40.1(34) . . .
42.7(34) . . .
45(4) . . .
36.2(31) . . .
47(4) . . .
49(4) . . .
37.5(32) . . .
49(4) . . .
39.1(32) . . .
45.6(35) . . .
48(4) . . .
38.2(32) . . .
52(4) . . .
44.1(35) . . .
53(4) . . .
43.3(34) . . .
41.7(33) . . .
46(4) . . .
47(4) . . .
43.4(35) . . .
41.6(33) . . .
45.9(35) . . .
51(4) . . .
49(4) . . .
43(4) . . .
48(4) . . .
43.4(34) . . .
53(4) . . .
45(4) . . .
47(4) . . .
45.0(35) . . .
52(4) . . .
41.2(33) . . .
48(4) . . .
39.2(34) . . .
35.5(30) . . .
47(4) . . .
41.9(34) . . .
45(4) . . .
35.2(32) . . .
51(4) . . .
42.3(34) . . .
44(4) . . .
42(4) . . .
35.9(31) . . .
42.1(34) . . .
36.0(31) . . .
42(4) . . .
47(4) . . .
47(4) . . .
36.3(31) . . .
43(4) . . .
46(4) . . .
42(4) . . .
38.8(33) . . .
41.2(34) . . .
46(4) . . .
34.8(32) . . .
34.8(33) . . .
47(4) . . .
33.8(30) . . .
43(4) . . .
39.8(34) . . .
52(4) . . .
45.6(35) . . .
46(4) . . .
39.8(35) . . .
41(4) . . .
44(4) . . .
42.5(35) . . .
41.4(33) . . .
41.2(34) . . .
44(4) . . .
43(4) . . .
46(4) . . .
33.9(31) . . .
41(4) . . .
47(4) . . .
48(4) . . .
43.5(34) . . .
45(4) . . .
46(4) . . .
35.6(35) . . .
37.3(32) . . .
44.8(35) . . .
41.8(35) . . .
49(4) . . .
44(4) . . .
44(4) . . .
44.3(34) . . .
41.1(35) . . .
32.6(30) . . .
46(4) . . .
43(4) . . .
40.2(33) . . .
39.7(33) . . .
38.5(35) . . .
35.8(34) . . .
42.4(35) . . .
40.7(33) . . .
48(4) . . .
37.3(33) . . .
37.7(33) . . .
48(4) . . .
46(4) . . .
42.0(34) . . .
40.5(34) . . .
51(4) . . .
47(4) . . .
45.3(35) . . .
44(4) . . .
46(4) . . .
39.2(33) . . .
41.0(33) . . .
49(4) . . .
48(4) . . .
46(4) . . .
43.4(34) . . .
38.3(33) . . .
46(4) . . .
42.2(34) . . .
39.5(34) . . .
46(4) . . .
43.6(34) . . .
50(4) . . .
42.4(35) . . .
43.7(35) . . .
39.8(34) . . .
40.7(33) . . .
40.5(33) . . .
42.5(34) . . .
41.1(35) . . .
40.3(33) . . .
39.8(33) . . .
39.7(32) . . .
44(4) . . .
42(4) . . .
40.4(35) . . .
41.3(34) . . .
39.1(33) . . .
47(4) . . .
47(4) . . .
53(4) . . .
51(4) . . .
40.8(34) . . .
36.3(32) . . .
52(4) . . .
48(4) . . .
48(4) . . .
42.9(35) . . .
50(4) . . .
38.1(31) . . .
46(4) . . .
46(4) . . .
46(4) . . .
45(4) . . .
42.2(35) . . .
42(4) . . .
47(4) . . .
46(4) . . .
36.8(33) . . .
37.7(32) . . .
43.9(34) . . .
39.7(33) . . .
37.4(33) . . .
34.1(32) . . .
37.6(35) . . .
41.3(33) . . .
37.3(33) . . .
49(4) . . .
51(4) . . .
41.2(34) . . .
47(4) . . .
40.6(34) . . .
34.3(32) . . .
40(4) . . .
43(4) . . .
44.8(35) . . .
41.5(34) . . .
42(4) . . .
50(4) . . .
44.2(35) . . .
41.1(33) . . .
54(4) . . .
48(4) . . .
36.4(31) . . .
46(4) . . .
45(4) . . .
42.1(35) . . .
39.7(34) . . .
32.0(30) . . .
48(4) . . .
49(4) . . .
43.6(35) . . .
43(4) . . .
40.2(34) . . .
42.8(34) . . .
36.5(31) . . .
43.1(34) . . .
50(4) . . .
41(4) . . .
32.2(32) . . .
32.6(31) . . .
42.6(34) . . .
49(4) . . .
46(4) . . .
47(4) . . .
43.9(34) . . .
40.7(34) . . .
38.7(34) . . .
34.0(30) . . .
42.7(34) . . .
43.6(35) . . .
44(4) . . .
41(4) . . .
36.7(32) . . .
30.4(29) . . .
38.3(32) . . .
44(4) . . .
48(4) . . .
43(4) . . .
47(4) . . .
39.7(33) . . .
49(4) . . .
47(4) . . .
48(4) . . .
49(4) . . .
41.8(33) . . .
37.8(32) . . .
45(4) . . .
44.9(35) . . .
48(4) . . .
55(4) . . .
47(4) . . .
45(4) . . .
43(4) . . .
35.8(31) . . .
38.9(33) . . .
39.1(35) . . .
39.1(34) . . .
39.1(33) . . .
41.7(34) . . .
42.1(34) . . .
40.3(33) . . .
35.8(32) . . .
46(4) . . .
43.2(34) . . .
49(4) . . .
39.6(33) . . .
41.5(34) . . .
48(4) . . .
46(4) . . .
40.4(33) . . .
33.7(30) . . .
36.9(33) . . .
38.8(33) . . .
51(4) . . .
43(4) . . .
44(4) . . .
37.5(33) . . .
48(4) . . .
47(4) . . .
36.8(33) . . .
46(4) . . .
38.8(32) . . .
43.6(34) . . .
51(4) . . .
47(4) . . .
36.5(34) . . .
43(4) . . .
47(4) . . .
42.3(34) . . .
42.0(34) . . .
34.8(33) . . .
41.5(34) . . .
47(4) . . .
49(4) . . .
42(4) . . .
40(4) . . .
45(4) . . .
48(4) . . .
41.2(34) . . .
49(4) . . .
46(4) . . .
44(4) . . .
44(4) . . .
37.4(33) . . .
42(4) . . .
35.6(33) . . .
35.8(33) . . .
32.3(29) . . .
40.6(33) . . .
43(4) . . .
31.0(31) . . .
37.5(33) . . .
41.5(33) . . .
36.7(31) . . .
43(4) . . .
52(4) . . .
59(4) . . .
34.2(31) . . .
38.7(33) . . .
34.3(32) . . .
26.9(26) . . .
29.8(28) . . .
40.8(33) . . .
39.0(33) . . .
49(4) . . .
40(4) . . .
47(4) . . .
43.3(34) . . .
48(4) . . .
43(4) . . .
42(4) . . .
35.3(31) . . .
31.2(29) . . .
34.0(30) . . .
41(4) . . .
40.5(35) . . .
38.7(32) . . .
50(4) . . .
55(4) . . .
45(4) . . .
47(4) . . .
42.9(35) . . .
45(4) . . .
41(4) . . .
35.5(34) . . .
36.4(32) . . .
44.0(35) . . .
35.0(31) . . .
43(4) . . .
35.9(35) . . .
37.9(34) . . .
48(4) . . .
52(4) . . .
42.1(34) . . .
46(4) . . .
42(4) . . .
44.9(35) . . .
44.4(35) . . .
45(4) . . .
37.4(33) . . .
48(4) . . .
38.0(33) . . .
49(4) . . .
35.3(32) . . .
46(4) . . .
44.0(35) . . .
47(4) . . .
52(4) . . .
39.2(32) . . .
44(4) . . .
47(4) . . .
39.9(33) . . .
36.4(32) . . .
48(4) . . .
49(4) . . .
48(4) . . .
46(4) . . .
38.7(34) . . .
46(4) . . .
45(4) . . .
41.9(34) . . .
42.8(34) . . .
48(4) . . .
39.5(34) . . .
44(4) . . .
37.6(32) . . .
48(4) . . .
42.0(34) . . .
44(4) . . .
46(4) . . .
34.6(30) . . .
39.6(35) . . .
44.2(35) . . .
36.0(33) . . .
36.5(32) . . .
40.4(33) . . .
51(4) . . .
38.6(33) . . .
36.3(32) . . .
44(4) . . .
38.2(33) . . .
40.9(33) . . .
50(4) . . .
42(4) . . .
42.3(34) . . .
39.7(33) . . .
41.3(34) . . .
36.5(34) . . .
39(4) . . .
35.3(31) . . .
39.6(33) . . .
43(4) . . .
41.8(34) . . .
45(4) . . .
46(4) . . .
36.0(31) . . .
39.6(34) . . .
39.0(33) . . .
45(4) . . .
41.9(34) . . .
38.6(33) . . .
46(4) . . .
48(4) . . .
42.1(35) . . .
38.3(33) . . .
54(4) . . .
47(4) . . .
46(4) . . .
39.3(33) . . .
39.6(33) . . .
47(4) . . .
50(4) . . .
42(4) . . .
44(4) . . .
46(4) . . .
43.4(34) . . .
37.2(33) . . .
42(4) . . .
39.7(35) . . .
40.4(34) . . .
30.2(29) . . .
45(4) . . .
41(4) . . .
36.2(33) . . .
38.8(33) . . .
41.0(34) . . .
45(4) . . .
40(4) . . .
42(4) . . .
36.5(31) . . .
43.2(35) . . .
39.0(33) . . .
41.1(34) . . .
47(4) . . .
38.9(32) . . .
30.1(28) . . .
39.8(33) . . .
36.2(33) . . .
44(4) . . .
42.3(34) . . .
37.4(33) . . .
41(4) . . .
44(4) . . .
42.7(34) . . .
43.7(34) . . .
42.8(34) . . .
35.1(32) . . .
37.6(33) . . .
39.0(32) . . .
46(4) . . .
38.5(32) . . .
40.9(34) . . .
41.7(34) . . .
45(4) . . .
42.2(34) . . .
34.5(32) . . .
43(4) . . .
46(4) . . .
50(4) . . .
46(4) . . .
48(4) . . .
35.3(33) . . .
39.2(35) . . .
48(4) . . .
38.3(32) . . .
40.7(34) . . .
41(4) . . .
43(4) . . .
42.8(33) . . .
36.3(32) . . .
37.5(33) . . .
39.0(34) . . .
47(4) . . .
42.3(33) . . .
48(4) . . .
48(4) . . .
46(4) . . .
53(4) . . .
40.4(34) . . .
44.2(34) . . .
45(4) . . .
37.8(33) . . .
38.2(32) . . .
35.3(31) . . .
37.5(32) . . .
49(4) . . .
38.8(33) . . .
39.0(33) . . .
39.1(33) . . .
36.6(31) . . .
44(4) . . .
44(4) . . .
40.0(33) . . .
45(4) . . .
49(4) . . .
41.2(34) . . .
44(4) . . .
47(4) . . .
47(4) . . .
49(4) . . .
35.3(33) . . .
41(4) . . .
43.4(35) . . .
40.6(34) . . .
36.0(32) . . .
45(4) . . .
48(4) . . .
56(4) . . .
42.7(35) . . .
36.6(32) . . .
41(4) . . .
45(4) . . .
42.9(34) . . .
57(4) . . .
47(4) . . .
40.3(35) . . .
46(4) . . .
34.9(31) . . .
45.6(35) . . .
47(4) . . .
39.6(34) . . .
39.2(33) . . .
41.8(34) . . .
34.8(31) . . .
38.2(33) . . .
37.9(35) . . .
46(4) . . .
46.2(35) . . .
43.4(34) . . .
42.3(34) . . .
36.0(32) . . .
32.5(30) . . .
32.5(30) . . .
41.0(33) . . .
42(4) . . .
46(4) . . .
50(4) . . .
37.0(32) . . .
34.6(31) . . .
44(4) . . .
34.7(33) . . .
41(4) . . .
36.8(32) . . .
26.6(27) . . .
37.2(33) . . .
42.0(35) . . .
45(4) . . .
40.7(34) . . .
39.9(34) . . .
41.7(35) . . .
44.9(35) . . .
44(4) . . .
36.0(31) . . .
41(4) . . .
38.5(35) . . .
35.0(32) . . .
41.4(35) . . .
41.6(34) . . .
43(4) . . .
37.0(34) . . .
47(4) . . .
39.3(34) . . .
45.3(35) . . .
36.2(32) . . .
42.7(35) . . .
53(4) . . .
45(4) . . .
39.6(32) . . .
48(4) . . .
46(4) . . .
40.5(34) . . .
47(4) . . .
44.0(35) . . .
48(4) . . .
44(4) . . .
40.7(34) . . .
43.2(34) . . .
37.9(32) . . .
40(4) . . .
39.3(34) . . .
41.1(34) . . .
34.6(31) . . .
34.3(31) . . .
46(4) . . .
46(4) . . .
41(4) . . .
45(4) . . .
41.9(33) . . .
43(4) . . .
44(4) . . .
47(4) . . .
44.8(34) . . .
46(4) . . .
42.3(35) . . .
51(4) . . .
43.5(35) . . .
43.7(35) . . .
41.0(34) . . .
35.4(32) . . .
36.7(34) . . .
44(4) . . .
53(4) . . .
43(4) . . .
51(4) . . .
40.2(32) . . .
44(4) . . .
41.1(34) . . .
48(4) . . .
39.4(33) . . .
38.1(32) . . .
46(4) . . .
39.4(32) . . .
38.4(33) . . .
52(4) . . .
43(4) . . .
40.8(33) . . .
42.2(34) . . .
33.9(31) . . .
26.7(28) . . .
44(4) . . .
39.8(33) . . .
44.0(35) . . .
50(4) . . .
44(4) . . .
38.2(32) . . .
33.3(30) . . .
37.1(31) . . .
35.2(31) . . .
43(4) . . .
39.9(34) . . .
40.9(33) . . .
45(4) . . .
35.9(33) . . .
36.4(34) . . .
41.3(34) . . .
37.4(32) . . .
38.4(32) . . .
54(4) . . .
44(4) . . .
34.8(33) . . .
43.3(34) . . .
46(4) . . .
47(4) . . .
32.8(30) . . .
53(4) . . .
45.0(35) . . .
40.3(34) . . .
39(4) . . .
35.5(33) . . .
49(4) . . .
44.8(35) . . .
41.1(33) . . .
40.4(35) . . .
45(4) . . .
42.4(34) . . .
49(4) . . .
35.7(31) . . .
38.5(33) . . .
44(4) . . .
41.8(34) . . .
39.0(32) . . .
50(4) . . .
46(4) . . .
39.7(35) . . .
47(4) . . .
42.4(34) . . .
46(4) . . .
38.0(34) . . .
41(4) . . .
38.9(32) . . .
38.4(33) . . .
40.5(33) . . .
33.8(32) . . .
27.4(27) . . .
42(4) . . .
40.3(33) . . .
39.0(33) . . .
38.5(34) . . .
33.8(31) . . .
36.1(31) . . .
41.9(34) . . .
36.0(34) . . .
39.5(34) . . .
38.0(33) . . .
38.1(32) . . .
39.1(33) . . .
38.8(32) . . .
41(4) . . .
32.7(31) . . .
44.7(35) . . .
47(4) . . .
42.1(35) . . .
42.6(35) . . .
45(4) . . .
38.9(33) . . .
40(4) . . .
40.5(33) . . .
34.1(30) . . .
35.9(31) . . .
46(4) . . .
45(4) . . .
38.4(35) . . .
47(4) . . .
47(4) . . .
47(4) . . .
47(4) . . .
44(4) . . .
44(4) . . .
46(4) . . .
43.8(34) . . .
39.6(35) . . .
41.3(35) . . .
45(4) . . .
41.9(34) . . .
44.0(34) . . .
38.9(33) . . .
44(4) . . .
39.0(35) . . .
42.4(34) . . .
44.3(35) . . .
39.2(34) . . .
37.0(34) . . .
45(4) . . .
41.3(33) . . .
42.1(33) . . .
33.4(30) . . .
41(4) . . .
34.5(34) . . .
35.0(31) . . .
46(4) . . .
37.1(33) . . .
41.0(34) . . .
41.6(33) . . .
37.8(33) . . .
37.7(32) . . .
33.7(32) . . .
40(4) . . .
42(4) . . .
49(4) . . .
43(4) . . .
47(4) . . .
37.0(31) . . .
48(4) . . .
45(4) . . .
43.0(34) . . .
44(4) . . .
34.2(31) . . .
38.9(33) . . .
43.5(34) . . .
44(4) . . .
36.1(33) . . .
45(4) . . .
42.6(35) . . .
46(4) . . .
38.4(33) . . .
42(4) . . .
37.9(33) . . .
34.5(31) . . .
39.6(33) . . .
37.6(33) . . .
38.6(33) . . .
39.3(33) . . .
49(4) . . .
44.1(35) . . .
46(4) . . .
34.1(32) . . .
35.4(31) . . .
47(4) . . .
47(4) . . .
38.2(32) . . .
37.4(33) . . .
38.4(33) . . .
42.0(34) . . .
33.0(30) . . .
41.6(34) . . .
47(4) . . .
43(4) . . .
44(4) . . .
41.0(33) . . .
48(4) . . .
40(4) . . .
44(4) . . .
44(4) . . .
41.7(34) . . .
40.7(34) . . .
35.7(32) . . .
37.3(33) . . .
37.5(32) . . .
37.4(32) . . .
40.2(33) . . .
49(4) . . .
37.5(33) . . .
50(4) . . .
47(4) . . .
42(4) . . .
36.6(34) . . .
33.3(34) . . .
36.9(32) . . .
44(4) . . .
38.7(33) . . .
41.9(34) . . .
50(4) . . .
40.9(34) . . .
34.2(31) . . .
50(4) . . .
38.4(32) . . .
39.4(33) . . .
41.6(34) . . .
42.4(34) . . .
48(4) . . .
44(4) . . .
46(4) . . .
51(4) . . .
41.7(34) . . .
49(4) . . .
39.0(34) . . .
45(4) . . .
40.7(34) . . .
44(4) . . .
45(4) . . .
42(4) . . .
44.3(35) . . .
35.3(31) . . .
44(4) . . .
45(4) . . .
36.8(31) . . .
33.7(30) . . .
42.4(34) . . .
36.4(32) . . .
44(4) . . .
37.4(33) . . .
38.0(32) . . .
38.8(33) . . .
46(4) . . .
37.4(34) . . .
42.4(35) . . .
42.2(34) . . .
38.2(32) . . .
49(4) . . .
46.0(35) . . .
44(4) . . .
36.0(32) . . .
42.7(34) . . .
38.7(34) . . .
50(4) . . .
42.7(34) . . .
32.8(30) . . .
35.6(32) . . .
35.7(32) . . .
38.5(33) . . .
38.2(33) . . .
33.0(30) . . .
43(4) . . .
34.4(32) . . .
53(4) . . .
38.6(32) . . .
39.8(34) . . .
45(4) . . .
37.4(35) . . .
37.5(34) . . .
43.4(34) . . .
44.0(34) . . .
41.9(35) . . .
42(4) . . .
42(4) . . .
31.4(29) . . .
42.4(34) . . .
45(4) . . .
34.6(32) . . .
32.5(31) . . .
41.0(34) . . .
40.5(34) . . .
46(4) . . .
34.6(33) . . .
35.0(32) . . .
39.8(33) . . .
31.3(29) . . .
47(4) . . .
36.4(35) . . .
40.4(35) . . .
46(4) . . .
48(4) . . .
40.5(34) . . .
43(4) . . .
43(4) . . .
50(4) . . .
45.3(35) . . .
43(4) . . .
41(4) . . .
40.3(33) . . .
37.6(32) . . .
33.7(31) . . .
39.3(34) . . .
43(4) . . .
38.7(34) . . .
42.0(34) . . .
42.3(34) . . .
37.0(33) . . .
37.5(34) . . .
45(4) . . .
40.1(33) . . .
35.9(31) . . .
33.4(30) . . .
41(4) . . .
52(4) . . .
43.4(35) . . .
30.7(30) . . .
30.4(29) . . .
33.2(30) . . .
37.2(31) . . .
42.7(34) . . .
39.9(34) . . .
40.3(34) . . .
38.8(33) . . .
42.1(34) . . .
36.4(32) . . .
40.6(34) . . .
40(4) . . .
39.0(34) . . .
34.5(31) . . .
47(4) . . .
45(4) . . .
40.1(34) . . .
51(4) . . .
44.6(35) . . .
40.0(33) . . .
44.4(35) . . .
50(4) . . .
45(4) . . .
42.1(34) . . .
42.4(34) . . .
44(4) . . .
35.4(35) . . .
38.6(35) . . .
42.0(33) . . .
47(4) . . .
42(4) . . .
44(4) . . .
42.8(35) . . .
48(4) . . .
48(4) . . .
46(4) . . .
47(4) . . .
46(4) . . .
39.5(33) . . .
37.6(31) . . .
40.4(33) . . .
35.0(31) . . .
39(4) . . .
38.2(32) . . .
40.4(34) . . .
45(4) . . .
45(4) . . .
41.2(34) . . .
48(4) . . .
48(4) . . .
44(4) . . .
40(4) . . .
40.0(33) . . .
42.6(33) . . .
41.4(34) . . .
51(4) . . .
43.3(35) . . .
39(4) . . .
34.5(30) . . .
40.3(34) . . .
41.8(35) . . .
46(4) . . .
30.9(30) . . .
43.0(34) . . .
40.8(33) . . .
42(4) . . .
37.4(33) . . .
45(4) . . .
32.1(29) . . .
35.0(32) . . .
37.9(33) . . .
39.7(34) . . .
44(4) . . .
36.8(33) . . .
40.8(34) . . .
47(4) . . .
40.8(33) . . .
43.7(35) . . .
36.6(31) . . .
44(4) . . .
37.6(34) . . .
36.7(32) . . .
41.0(34) . . .
47(4) . . .
38.0(32) . . .
35.8(32) . . .
49(4) . . .
41.8(34) . . .
38.0(32) . . .
48(4) . . .
43(4) . . .
41.6(34) . . .
46(4) . . .
47(4) . . .
42(4) . . .
37.3(34) . . .
40.3(35) . . .
45(4) . . .
47(4) . . .
45(4) . . .
51(4) . . .
37.3(32) . . .
35.9(31) . . .
46(4) . . .
33.0(31) . . .
40(4) . . .
43.7(34) . . .
38.4(33) . . .
48(4) . . .
33.3(30) . . .
32.9(31) . . .
34.9(31) . . .
40.2(33) . . .
43(4) . . .
45(4) . . .
44(4) . . .
41.9(33) . . .
40.0(35) . . .
42.0(35) . . .
35.9(33) . . .
42.8(35) . . .
35.8(31) . . .
36.8(31) . . .
39.5(34) . . .
39.2(35) . . .
38.3(33) . . .
40.5(33) . . .
32.8(29) . . .
44(4) . . .
48(4) . . .
30.3(29) . . .
30.4(29) . . .
41.1(34) . . .
41.6(34) . . .
38.3(33) . . .
37.3(34) . . .
39.2(33) . . .
41.0(35) . . .
36.4(33) . . .
37.5(35) . . .
38.1(33) . . .
48(4) . . .
49(4) . . .
40.7(34) . . .
43(4) . . .
41.6(34) . . .
41.8(34) . . .
34.8(31) . . .
43(4) . . .
38.5(33) . . .
40.0(34) . . .
50(4) . . .
41(4) . . .
39.4(34) . . .
32.3(32) . . .
43(4) . . .
35.6(31) . . .
43(4) . . .
39(4) . . .
45(4) . . .
44.5(35) . . .
33.9(31) . . .
38.4(33) . . .
34.0(32) . . .
38.6(34) . . .
34.0(30) . . .
40.3(34) . . .
39.2(35) . . .
32.5(33) . . .
47(4) . . .
46(4) . . .
44.5(34) . . .
42(4) . . .
38.4(34) . . .
33.3(29) . . .
40.5(33) . . .
37.3(32) . . .
40.3(34) . . .
32.6(32) . . .
39.0(34) . . .
39.8(33) . . .
42.5(34) . . .
36.5(32) . . .
41(4) . . .
40.8(34) . . .
44.1(35) . . .
38.8(33) . . .
41(4) . . .
44(4) . . .
42(4) . . .
53(4) . . .
51(4) . . .
43(4) . . .
46(4) . . .
38.1(32) . . .
36.7(31) . . .
44.1(35) . . .
41(4) . . .
41(4) . . .
46(4) . . .
30.5(29) . . .
32.7(30) . . .
42(4) . . .
45(4) . . .
32.6(31) . . .
36.9(32) . . .
35.2(31) . . .
34.4(34) . . .
34.4(32) . . .
35.6(31) . . .
39.2(33) . . .
49(4) . . .
39.3(34) . . .
43(4) . . .
33.7(31) . . .
41.1(33) . . .
41.4(35) . . .
34.7(33) . . .
33.2(30) . . .
38.5(33) . . .
40.5(33) . . .
32.2(31) . . .
40(4) . . .
41.8(35) . . .
43.4(34) . . .
42.9(34) . . .
35.8(31) . . .
33.6(32) . . .
35.6(31) . . .
42.6(34) . . .
37.8(33) . . .
47(4) . . .
44(4) . . .
42.4(34) . . .
40.6(33) . . .
35.4(32) . . .
39.1(34) . . .
43(4) . . .
37.6(33) . . .
47(4) . . .
29.6(29) . . .
44(4) . . .
46(4) . . .
28.6(29) . . .
43.6(34) . . .
44(4) . . .
42.8(35) . . .
45(4) . . .
39.0(33) . . .
29.6(28) . . .
45(4) . . .
33.1(31) . . .
32.7(30) . . .
43.0(34) . . .
35.1(31) . . .
31.0(30) . . .
31.9(29) . . .
42(4) . . .
42(4) . . .
47(4) . . .
46(4) . . .
44(4) . . .
43.4(35) . . .
43.1(34) . . .
46(4) . . .
50(4) . . .
41(4) . . .
36.3(33) . . .
43.3(34) . . .
44(4) . . .
34.0(30) . . .
45(4) . . .
40.9(35) . . .
40.2(34) . . .
40.9(33) . . .
44(4) . . .
43(4) . . .
32.9(30) . . .
44.9(35) . . .
38.8(34) . . .
48(4) . . .
49(4) . . .
38.1(33) . . .
36.9(32) . . .
46(4) . . .
36.6(31) . . .
38.7(33) . . .
37.6(33) . . .
38.8(32) . . .
49(4) . . .
36.1(31) . . .
39.3(34) . . .
44(4) . . .
41.7(33) . . .
38.3(32) . . .
37.6(33) . . .
37.1(33) . . .
38.2(32) . . .
43.6(34) . . .
33.0(30) . . .
36.7(33) . . .
37.9(33) . . .
43(4) . . .
45.5(35) . . .
41.8(33) . . .
48(4) . . .
38.5(32) . . .
47(4) . . .
46(4) . . .
44(4) . . .
35.0(33) . . .
39.7(34) . . .
43(4) . . .
39.2(33) . . .
35.3(31) . . .
48(4) . . .
42.5(33) . . .
41.0(34) . . .
28.4(28) . . .
31.8(30) . . .
42(4) . . .
37.0(33) . . .
44(4) . . .
39.8(33) . . .
43.2(35) . . .
35.4(32) . . .
43(4) . . .
29.1(29) . . .
37.0(31) . . .
42(4) . . .
37(4) . . .
32.9(30) . . .
34.8(31) . . .
42.1(34) . . .
52(4) . . .
55(4) . . .
35.1(32) . . .
35.0(31) . . .
35.6(31) . . .
44(4) . . .
41(4) . . .
42.5(34) . . .
42.6(34) . . .
36.8(31) . . .
38.0(32) . . .
40.4(34) . . .
37.7(33) . . .
45.3(35) . . .
42.9(35) . . .
41.4(35) . . .
36.1(32) . . .
43.4(35) . . .
43.2(34) . . .
42(4) . . .
29.9(28) . . .
37.2(34) . . .
35.0(32) . . .
34.0(30) . . .
33.8(32) . . .
37.3(34) . . .
36.6(33) . . .
32.9(30) . . .
34.5(31) . . .
38.6(33) . . .
37.6(34) . . .
34.5(32) . . .
38.9(32) . . .
49(4) . . .
48(4) . . .
33.6(31) . . .
43(4) . . .
42.4(34) . . .
36.3(32) . . .
45(4) . . .
35.3(34) . . .
38.1(33) . . .
29.7(29) . . .
31.7(29) . . .
50(4) . . .
37.8(32) . . .
49(4) . . .
33.3(30) . . .
40.1(33) . . .
35.3(32) . . .
41(4) . . .
38.3(32) . . .
47(4) . . .
42(4) . . .
31.9(33) . . .
39.7(35) . . .
39.7(35) . . .
33.1(31) . . .
38.8(33) . . .
35.1(33) . . .
39.1(35) . . .
36.2(33) . . .
38.5(32) . . .
39.2(34) . . .
42(4) . . .
36.8(34) . . .
33.7(31) . . .
30.7(29) . . .
33.7(31) . . .
31.6(30) . . .
37.0(33) . . .
43(4) . . .
39.1(32) . . .
43.0(35) . . .
39.8(34) . . .
38.8(33) . . .
39.8(34) . . .
32.8(30) . . .
37.0(34) . . .
45(4) . . .
42.6(35) . . .
48(4) . . .
33.7(31) . . .
37.4(32) . . .
43(4) . . .
36.5(32) . . .
39.3(32) . . .
37.3(31) . . .
41(4) . . .
42.4(33) . . .
37.4(31) . . .
32.8(31) . . .
35.8(31) . . .
38.4(32) . . .
45(4) . . .
42(4) . . .
31.4(29) . . .
43.9(34) . . .
39.6(33) . . .
34.7(31) . . .
39.7(33) . . .
38.4(32) . . .
35.1(31) . . .
36.4(33) . . .
37.5(34) . . .
43(4) . . .
34.1(31) . . .
43.0(34) . . .
43.5(35) . . .
37.4(32) . . .
34.4(32) . . .
48(4) . . .
33.1(30) . . .
33.3(31) . . .
45(4) . . .
46(4) . . .
40.4(33) . . .
37.0(34) . . .
39(4) . . .
40.0(34) . . .
33.3(31) . . .
40.5(33) . . .
32.9(31) . . .
33.3(31) . . .
38.8(34) . . .
36.1(32) . . .
34.0(30) . . .
40.9(33) . . .
37.5(33) . . .
37.2(33) . . .
41.7(33) . . .
39.9(34) . . .
31.4(30) . . .
38(4) . . .
38(4) . . .
32.8(31) . . .
42.0(33) . . .
34.7(31) . . .
40(4) . . .
33.5(32) . . .
33.1(30) . . .
36.1(31) . . .
35.5(32) . . .
42(4) . . .
36.9(33) . . .
39.5(33) . . .
36.0(32) . . .
35.8(33) . . .
31.9(30) . . .
38.2(35) . . .
35.9(31) . . .
45(4) . . .
25.1(25) . . .
30.6(30) . . .
32.1(30) . . .
35.4(31) . . .
43(4) . . .
35.5(32) . . .
43(4) . . .
39.0(34) . . .
41.5(34) . . .
37.6(32) . . .
37.8(34) . . .
31.7(31) . . .
32.0(30) . . .
35.4(31) . . .
27.6(27) . . .
32.7(30) . . .
35.1(32) . . .
33.0(29) . . .
33.1(30) . . .
45(4) . . .
41.3(34) . . .
40.8(35) . . .
30.9(29) . . .
30.7(29) . . .
30.3(28) . . .
39.9(35) . . .
44(4) . . .
39.8(33) . . .
43.1(34) . . .
51(4) . . .
39(4) . . .
29.3(30) . . .
36.3(32) . . .
51(4) . . .
41.1(34) . . .
38.1(34) . . .
35.2(33) . . .
42.1(34) . . .
45.5(35) . . .
38.9(33) . . .
30.5(31) . . .
37.8(33) . . .
37.0(32) . . .
37.5(32) . . .
49(4) . . .
45(4) . . .
47(4) . . .
36.7(31) . . .
44.7(34) . . .
31.8(29) . . .
36.5(33) . . .
38.2(34) . . .
31.3(30) . . .
33.3(30) . . .
35.3(31) . . .
42(4) . . .
36.5(32) . . .
51(4) . . .
43.1(35) . . .
36.2(32) . . .
37.6(33) . . .
43(4) . . .
37.9(32) . . .
45(4) . . .
41.6(35) . . .
42.0(34) . . .
46(4) . . .
35.8(31) . . .
36.3(33) . . .
41(4) . . .
42(4) . . .
41.3(33) . . .
37.5(32) . . .
34.2(33) . . .
41(4) . . .
37.3(32) . . .
32.5(30) . . .
36.4(32) . . .
40.3(35) . . .
38.7(33) . . .
44.3(35) . . .
34.2(30) . . .
40.9(34) . . .
43.8(35) . . .
38.4(34) . . .
46(4) . . .
39.2(33) . . .
37.5(32) . . .
30.2(30) . . .
44(4) . . .
35.2(32) . . .
30.7(29) . . .
32.7(30) . . .
35.5(31) . . .
47(4) . . .
37.2(33) . . .
41.0(34) . . .
38.8(33) . . .
31.0(30) . . .
36.9(34) . . .
33.6(32) . . .
41.0(33) . . .
41(4) . . .
35.0(33) . . .
37.8(35) . . .
36.9(32) . . .
33.8(31) . . .
36.5(33) . . .
35.0(33) . . .
28.1(28) . . .
40.0(34) . . .
34.6(31) . . .
47(4) . . .
39.0(33) . . .
45(4) . . .
38.6(33) . . .
34.3(31) . . .
42(4) . . .
36.8(33) . . .
36.9(32) . . .
35.8(31) . . .
34.5(31) . . .
35.1(33) . . .
30.4(30) . . .
36.3(32) . . .
37.3(31) . . .
45.7(35) . . .
35.9(32) . . .
34.3(30) . . .
39.0(34) . . .
33.8(30) . . .
36.6(32) . . .
39.1(34) . . .
28.6(31) . . .
35.1(33) . . .
37.5(32) . . .
31.8(29) . . .
37.1(32) . . .
41(4) . . .
39.9(34) . . .
43.4(35) . . .
41.0(34) . . .
40.3(34) . . .
37.8(34) . . .
30.3(29) . . .
32.8(30) . . .
34.9(32) . . .
32.9(31) . . .
37.2(34) . . .
53(4) . . .
33.0(30) . . .
31.8(30) . . .
37.2(34) . . .
30.6(30) . . .
39.9(35) . . .
41.3(35) . . .
42.0(33) . . .
39.2(33) . . .
44(4) . . .
39.4(34) . . .
40.7(33) . . .
37.9(34) . . .
40.6(34) . . .
39.1(35) . . .
36.4(34) . . .
36.8(32) . . .
34.3(31) . . .
34.9(32) . . .
38.2(33) . . .
46(4) . . .
36.7(31) . . .
36.7(32) . . .
49(4) . . .
37.4(32) . . .
34.2(30) . . .
35.9(31) . . .
33.9(32) . . .
35.1(33) . . .
37.7(32) . . .
39.4(34) . . .
36.5(31) . . .
34.4(30) . . .
33.3(32) . . .
29.6(32) . . .
34.7(32) . . .
35.6(30) . . .
33.9(31) . . .
42(4) . . .
38.3(32) . . .
26.9(27) . . .
32.4(30) . . .
37.6(32) . . .
44(4) . . .
36.7(33) . . .
38.0(33) . . .
39.8(33) . . .
45(4) . . .
48(4) . . .
39.3(32) . . .
39.4(33) . . .
33.7(30) . . .
43.8(35) . . .
35.7(31) . . .
46(4) . . .
51(4) . . .
39.8(34) . . .
32.7(31) . . .
39.6(34) . . .
37.8(32) . . .
40.6(33) . . .
39.3(33) . . .
40.3(34) . . .
40.5(33) . . .
40.4(33) . . .
33.4(30) . . .
48(4) . . .
48(4) . . .
38.7(33) . . .
34.8(31) . . .
45.2(35) . . .
43.7(35) . . .
29.4(29) . . .
40(4) . . .
39.7(32) . . .
36.5(33) . . .
30.6(29) . . .
42(4) . . .
43.5(34) . . .
47(4) . . .
39.0(33) . . .
38.8(33) . . .
38(4) . . .
37.0(32) . . .
36.1(31) . . .
32.0(29) . . .
39.0(33) . . .
37.5(34) . . .
39.8(33) . . .
46(4) . . .
37.7(33) . . .
42(4) . . .
33.8(31) . . .
46(4) . . .
46(4) . . .
38.5(34) . . .
26.8(28) . . .
31.1(31) . . .
45(4) . . .
37.9(32) . . .
48(4) . . .
34.2(32) . . .
33.4(31) . . .
37.0(33) . . .
42.5(34) . . .
44.8(35) . . .
43(4) . . .
32.2(29) . . .
39.1(34) . . .
36.0(32) . . .
35.2(31) . . .
37.4(32) . . .
42.0(35) . . .
40.7(35) . . .
39.7(33) . . .
35.9(32) . . .
47(4) . . .
35.4(31) . . .
29.7(28) . . .
34.4(30) . . .
29.7(28) . . .
40.1(34) . . .
28.5(27) . . .
35.5(34) . . .
43.3(34) . . .
35.4(31) . . .
34.8(33) . . .
45(4) . . .
44(4) . . .
39.0(32) . . .
29.1(31) . . .
34.7(32) . . .
40.6(35) . . .
37.3(33) . . .
41.2(34) . . .
49(4) . . .
51(4) . . .
44(4) . . .
37.7(32) . . .
39.4(33) . . .
34.5(31) . . .
35.3(34) . . .
41.0(34) . . .
43.5(34) . . .
37.0(33) . . .
38.1(35) . . .
30.3(28) . . .
39.1(33) . . .
33.3(30) . . .
34.3(32) . . .
34.5(32) . . .
45(4) . . .
40.5(34) . . .
35.4(31) . . .
35.2(31) . . .
39.9(33) . . .
44(4) . . .
43(4) . . .
35.5(31) . . .
42.8(35) . . .
46(4) . . .
37.3(32) . . .
35.1(31) . . .
37.3(32) . . .
33.7(30) . . .
38.0(32) . . .
39.2(35) . . .
45(4) . . .
42.8(34) . . .
47(4) . . .
39.2(33) . . .
32.3(29) . . .
39.9(34) . . .
40.7(33) . . .
41.1(33) . . .
41.1(34) . . .
40.9(34) . . .
35.3(31) . . .
36.4(32) . . .
35.5(31) . . .
42(4) . . .
38.3(33) . . .
38.2(33) . . .
40.7(33) . . .
45(4) . . .
38.8(33) . . .
29.2(28) . . .
41.4(34) . . .
39.1(32) . . .
45(4) . . .
47(4) . . .
41.3(35) . . .
40.7(33) . . .
35.2(31) . . .
35.5(32) . . .
36.1(34) . . .
36.4(34) . . .
33.1(30) . . .
38.4(32) . . .
41.9(34) . . .
40.9(34) . . .
41.9(34) . . .
32.7(29) . . .
37.4(32) . . .
39.3(33) . . .
37.8(35) . . .
31.7(31) . . .
38.8(33) . . .
37.6(33) . . .
34.5(34) . . .
37(4) . . .
50(4) . . .
38.6(32) . . .
43.5(34) . . .
42.6(35) . . .
35.0(32) . . .
43(4) . . .
35.2(31) . . .
42.0(34) . . .
43.3(34) . . .
35.8(31) . . .
29.0(30) . . .
35.7(30) . . .
43(4) . . .
39.4(34) . . .
39.0(33) . . .
35.0(31) . . .
45(4) . . .
46(4) . . .
39.0(33) . . .
33.8(30) . . .
43.7(34) . . .
48(4) . . .
37.8(33) . . .
43(4) . . .
34.6(34) . . .
28.5(29) . . .
43.5(34) . . .
41.1(35) . . .
41(4) . . .
37.1(33) . . .
40.0(33) . . .
29.6(29) . . .
37.9(34) . . .
43(4) . . .
33.2(30) . . .
36.9(32) . . .
39.9(33) . . .
38.0(32) . . .
45(4) . . .
44(4) . . .
35.5(31) . . .
40.8(33) . . .
41.0(35) . . .
41(4) . . .
41.3(34) . . .
39.6(33) . . .
35.5(32) . . .
38.7(34) . . .
35.5(33) . . .
38(4) . . .
28.6(28) . . .
36.2(32) . . .
38.6(33) . . .
44(4) . . .
29.5(28) . . .
33.9(30) . . .
33.0(30) . . .
31.8(30) . . .
37.5(31) . . .
46(4) . . .
37.1(32) . . .
33.4(30) . . .
36.4(32) . . .
31.7(29) . . .
41.1(34) . . .
41.1(33) . . .
44(4) . . .
39.6(34) . . .
35.6(32) . . .
35.2(33) . . .
40.3(34) . . .
38.4(35) . . .
42(4) . . .
42(4) . . .
43.2(34) . . .
37.5(32) . . .
36.2(32) . . .
38.9(34) . . .
35.5(31) . . .
45(4) . . .
37.5(31) . . .
44(4) . . .
45(4) . . .
37.8(32) . . .
41.8(34) . . .
43.8(34) . . .
35.3(31) . . .
37.5(34) . . .
45(4) . . .
39.4(32) . . .
37.3(33) . . .
36.1(35) . . .
37(4) . . .
36.7(33) . . .
42.4(34) . . .
33.5(31) . . .
38(4) . . .
35.3(33) . . .
43.2(34) . . .
42.6(34) . . .
44(4) . . .
39.8(33) . . .
47(4) . . .
38.4(35) . . .
43.0(34) . . .
39.4(33) . . .
46(4) . . .
43.8(35) . . .
43.0(34) . . .
46(4) . . .
42(4) . . .
34.8(31) . . .
36.4(31) . . .
41.4(35) . . .
44.8(34) . . .
30.4(29) . . .
35.3(31) . . .
42(4) . . .
32.0(30) . . .
32.2(30) . . .
40.4(34) . . .
38.1(34) . . .
39.5(33) . . .
37.5(33) . . .
38.7(32) . . .
47(4) . . .
42.0(35) . . .
39.3(34) . . .
38.3(33) . . .
38.9(33) . . .
42.8(34) . . .
41.9(35) . . .
40.5(34) . . .
42.7(34) . . .
48(4) . . .
42.4(35) . . .
35.2(33) . . .
38.8(33) . . .
36.8(32) . . .
43(4) . . .
46(4) . . .
36.7(35) . . .
41(4) . . .
45(4) . . .
44.7(34) . . .
42.1(34) . . .
42(4) . . .
39(4) . . .
33.8(31) . . .
45(4) . . .
38.2(33) . . .
38.5(35) . . .
35.5(33) . . .
36.5(32) . . .
41.8(34) . . .
33.0(30) . . .
44(4) . . .
43.6(35) . . .
34.0(30) . . .
32.7(30) . . .
34.0(30) . . .
42.4(34) . . .
43.3(34) . . .
42.5(34) . . .
40.5(33) . . .
42(4) . . .
44(4) . . .
41.1(34) . . .
39.7(32) . . .
41.1(35) . . .
29.6(29) . . .
38.0(33) . . .
36.8(31) . . .
36.0(31) . . .
36.1(31) . . .
45(4) . . .
34.8(32) . . .
42.0(34) . . .
43.8(35) . . .
31.1(29) . . .
38(4) . . .
33.5(31) . . .
32.0(30) . . .
41.3(33) . . .
40.2(34) . . .
32.7(32) . . .
42.5(35) . . .
42.6(34) . . .
41.9(33) . . .
35.5(31) . . .
43(4) . . .
41.0(35) . . .
29.4(28) . . .
31.6(30) . . .
42.2(35) . . .
44(4) . . .
52(4) . . .
40.5(33) . . .
31.7(32) . . .
33.8(34) . . .
34.8(33) . . .
37.0(33) . . .
40.4(33) . . .
47(4) . . .
30.3(29) . . .
31.4(31) . . .
48(4) . . .
40.2(33) . . .
37.4(32) . . .
40(4) . . .
37.0(34) . . .
32.6(30) . . .
39.8(33) . . .
34.2(31) . . .
36.4(35) . . .
37.2(33) . . .
40.1(34) . . .
35.3(31) . . .
46(4) . . .
39.2(34) . . .
43(4) . . .
35.2(31) . . .
34.0(30) . . .
33.6(31) . . .
40.1(35) . . .
36.7(33) . . .
33.7(30) . . .
37.1(32) . . .
34.5(32) . . .
30.1(29) . . .
38.8(34) . . .
46(4) . . .
40.1(33) . . .
40.0(33) . . .
37.7(34) . . .
43(4) . . .
30.5(29) . . .
32.3(29) . . .
40.2(34) . . .
34.5(31) . . .
39.6(33) . . .
47(4) . . .
40.2(33) . . .
32.0(30) . . .
41(4) . . .
42(4) . . .
40.8(34) . . .
39.5(33) . . .
44(4) . . .
40.5(34) . . .
32.9(29) . . .
49(4) . . .
41(4) . . .
34.6(30) . . .
40.6(34) . . .
40.8(35) . . .
45(4) . . .
33.2(32) . . .
45(4) . . .
43(4) . . .
41.7(34) . . .
45(4) . . .
35.4(32) . . .
38.1(33) . . .
39.8(35) . . .
34.1(31) . . .
42.9(34) . . .
41.8(34) . . .
35.3(33) . . .
35.6(31) . . .
40.3(33) . . .
37.3(32) . . .
43.0(35) . . .
46(4) . . .
37.5(31) . . .
42.0(34) . . .
37.2(32) . . .
42(4) . . .
34.6(34) . . .
33.2(30) . . .
32.5(30) . . .
42.2(35) . . .
37.5(32) . . .
47(4) . . .
32.5(30) . . .
46(4) . . .
41.0(33) . . .
28.9(28) . . .
33.1(32) . . .
38.1(33) . . .
34.6(31) . . .
42.1(34) . . .
34.6(31) . . .
43(4) . . .
39.7(33) . . .
36.6(31) . . .
31.1(30) . . .
36.5(33) . . .
41(4) . . .
36.0(32) . . .
36.8(32) . . .
28.3(28) . . .
41(4) . . .
34.5(32) . . .
34.1(33) . . .
30.0(28) . . .
35.5(31) . . .
39.3(34) . . .
42.6(35) . . .
36.2(31) . . .
37.1(32) . . .
36.6(32) . . .
39.7(33) . . .
38.6(32) . . .
28.9(28) . . .
36.7(31) . . .
29.4(32) . . .
37.5(34) . . .
42(4) . . .
41.7(33) . . .
35.1(31) . . .
29.7(28) . . .
39.6(34) . . .
40.5(33) . . .
42.7(34) . . .
37.8(32) . . .
36.9(32) . . .
37.2(33) . . .
48(4) . . .
31.3(29) . . .
36.5(32) . . .
42.1(35) . . .
38.4(34) . . .
39.6(34) . . .
37.6(32) . . .
43.3(35) . . .
39.8(35) . . .
31.1(29) . . .
38.4(32) . . .
40.1(33) . . .
33.4(30) . . .
36.8(33) . . .
35.8(34) . . .
36.3(33) . . .
38.8(33) . . .
45.9(35) . . .
36.3(32) . . .
37.5(33) . . .
41(4) . . .
42.1(34) . . .
36.9(32) . . .
39.8(34) . . .
37(4) . . .
34.8(32) . . .
28.3(28) . . .
30.4(30) . . .
29.5(31) . . .
41(4) . . .
42.9(35) . . .
31.7(29) . . .
32.8(31) . . .
32.0(29) . . .
40.5(34) . . .
42(4) . . .
39.8(33) . . .
46(4) . . .
28.1(27) . . .
32.1(31) . . .
38.7(34) . . .
35.8(31) . . .
37.7(33) . . .
40.2(34) . . .
34.8(32) . . .
38.2(34) . . .
38.0(32) . . .
36.8(34) . . .
48(4) . . .
39.1(34) . . .
36.6(31) . . .
30.6(29) . . .
37.6(32) . . .
35.5(30) . . .
35.8(31) . . .
34.0(30) . . .
34.3(31) . . .
37.4(33) . . .
43(4) . . .
31.0(30) . . .
29.4(28) . . .
40.2(33) . . .
37.4(34) . . .
35.2(33) . . .
46(4) . . .
34.3(30) . . .
42.3(35) . . .
32.1(31) . . .
34.0(32) . . .
34.7(33) . . .
39.2(33) . . .
40.1(35) . . .
46(4) . . .
45(4) . . .
37.0(33) . . .
36.7(32) . . .
29.5(28) . . .
39.5(34) . . .
34.9(32) . . .
35.5(33) . . .
29.3(29) . . .
29.6(30) . . .
34(4) . . .
29.1(29) . . .
32.8(31) . . .
33.4(30) . . .
32.7(30) . . .
34.9(34) . . .
37(4) . . .
40.1(33) . . .
43.2(34) . . .
33.1(31) . . .
40(4) . . .
35.8(32) . . .
30.4(30) . . .
35.8(31) . . .
39.6(34) . . .
35.2(34) . . .
34.6(31) . . .
36.8(32) . . .
44(4) . . .
45(4) . . .
32.0(32) . . .
32.1(30) . . .
38.2(33) . . .
39.9(34) . . .
39.9(34) . . .
40(4) . . .
44(4) . . .
41.7(34) . . .
29.8(29) . . .
38.0(32) . . .
38.3(35) . . .
30.9(30) . . .
40.7(33) . . .
29.6(29) . . .
36.5(31) . . .
39.3(34) . . .
35.3(32) . . .
41.1(33) . . .
39.7(32) . . .
34.9(31) . . .
35.4(33) . . .
38.8(33) . . .
42.2(34) . . .
32.5(30) . . .
33.9(32) . . .
27.3(28) . . .
32.8(29) . . .
41.2(34) . . .
44(4) . . .
41(4) . . .
41(4) . . .
40.9(33) . . .
36.3(31) . . .
35.5(32) . . .
35.8(32) . . .
43.2(34) . . .
33.1(31) . . .
27.8(28) . . .
43(4) . . .
40.0(34) . . .
32.1(30) . . .
35.0(33) . . .
41.9(34) . . .
32.0(30) . . .
41.3(35) . . .
41.2(34) . . .
37.9(32) . . .
36.2(31) . . .
29.6(31) . . .
32.2(33) . . .
28.9(28) . . .
33.3(30) . . .
43.2(34) . . .
42(4) . . .
29.8(30) . . .
29.6(29) . . .
35.8(31) . . .
36.3(31) . . .
33.2(31) . . .
37.5(34) . . .
40.9(35) . . .
35.7(31) . . .
44(4) . . .
36.3(32) . . .
34.0(32) . . .
37.3(33) . . .
30.0(28) . . .
45(4) . . .
37.4(33) . . .
45(4) . . .
35.8(32) . . .
37.6(32) . . .
38.5(34) . . .
34.5(32) . . .
42.3(35) . . .
35.9(34) . . .
42.6(34) . . .
33.7(32) . . .
38.2(35) . . .
32.5(31) . . .
27.0(27) . . .
34.1(30) . . .
33.8(32) . . .
31.9(31) . . .
29.3(28) . . .
33.4(31) . . .
34.0(30) . . .
41.7(35) . . .
29.1(28) . . .
44(4) . . .
38.9(33) . . .
39.9(33) . . .
33.9(32) . . .
29.5(30) . . .
30.8(30) . . .
41.3(33) . . .
37.0(32) . . .
45(4) . . .
34.6(33) . . .
36.4(34) . . .
32.3(30) . . .
37.3(33) . . .
36.4(32) . . .
40(4) . . .
35.0(33) . . .
40.8(34) . . .
28.1(27) . . .
30.6(29) . . .
36.9(34) . . .
38.7(35) . . .
35.3(31) . . .
29.0(28) . . .
36.1(32) . . .
41(4) . . .
33.7(30) . . .
31.6(31) . . .
36.5(32) . . .
40.5(35) . . .
35.3(33) . . .
34.2(31) . . .
40.4(33) . . .
38.7(33) . . .
33.4(34) . . .
35.6(34) . . .
39.6(34) . . .
42.8(34) . . .
38.0(33) . . .
29.9(30) . . .
35.8(33) . . .
34.0(30) . . .
40.2(33) . . .
37.2(32) . . .
33.4(31) . . .
45(4) . . .
39.7(34) . . .
34.4(30) . . .
33.2(31) . . .
37.7(34) . . .
34.5(31) . . .
32.4(31) . . .
29.1(28) . . .
33.8(33) . . .
40(4) . . .
35.3(31) . . .
29.8(30) . . .
29.0(28) . . .
36.4(34) . . .
38(4) . . .
35.5(32) . . .
40.7(33) . . .
40.8(34) . . .
31.5(31) . . .
35.1(32) . . .
33.6(33) . . .
35.6(31) . . .
27.5(28) . . .
36.1(31) . . .
33.1(31) . . .
30.4(29) . . .
31.3(30) . . .
32.8(30) . . .
34.3(31) . . .
39(4) . . .
34.2(31) . . .
33.0(30) . . .
28.0(28) . . .
38.0(31) . . .
45(4) . . .
31.7(30) . . .
44(4) . . .
33.6(31) . . .
35.3(33) . . .
30.8(29) . . .
38.9(34) . . .
39.5(33) . . .
36.8(31) . . .
29.2(28) . . .
32.3(31) . . .
40.7(35) . . .
34.7(30) . . .
39.3(33) . . .
37.3(33) . . .
32.0(32) . . .
36.0(32) . . .
40.0(33) . . .
32.3(30) . . .
35.4(33) . . .
38(4) . . .
30.0(28) . . .
28.5(28) . . .
35.2(33) . . .
32.2(31) . . .
38.6(32) . . .
38.4(33) . . .
32.7(30) . . .
35.4(31) . . .
37.1(34) . . .
38.2(33) . . .
37.3(32) . . .
35.0(31) . . .
48(4) . . .
42(4) . . .
35.9(31) . . .
42.4(35) . . .
41.3(34) . . .
33.9(30) . . .
33.1(33) . . .
37.8(34) . . .
36.2(31) . . .
41.2(33) . . .
40.9(34) . . .
31.5(30) . . .
29.4(28) . . .
40.7(33) . . .
41.6(34) . . .
32.0(30) . . .
30.9(31) . . .
27.8(28) . . .
36.2(31) . . .
27.7(28) . . .
33.5(30) . . .
35.6(33) . . .
35.3(31) . . .
33.6(31) . . .
34.4(31) . . .
33.7(30) . . .
32.3(32) . . .
22.6(26) . . .
40.0(33) . . .
39.4(34) . . .
31.3(31) . . .
33.2(31) . . .
34.3(32) . . .
40.0(33) . . .
34.7(33) . . .
36.1(33) . . .
35.5(32) . . .
41.7(34) . . .
34.4(31) . . .
36.3(32) . . .
35.0(31) . . .
41(4) . . .
39.1(33) . . .
36.4(31) . . .
30.7(30) . . .
44(4) . . .
39.5(35) . . .
33.9(31) . . .
35.0(31) . . .
40(4) . . .
37.7(34) . . .
35.5(31) . . .
36.2(31) . . .
25.7(26) . . .
37.8(33) . . .
41(4) . . .
32.6(30) . . .
34.5(30) . . .
40.9(33) . . .
45(4) . . .
33.6(31) . . .
33.3(30) . . .
32.6(30) . . .
37.8(33) . . .
42(4) . . .
31.5(30) . . .
29.8(29) . . .
32.6(30) . . .
31.7(29) . . .
40.2(34) . . .
26.8(28) . . .
28.2(29) . . .
32.2(29) . . .
35.3(32) . . .
51(4) . . .
35.1(31) . . .
38.0(33) . . .
32.7(30) . . .
39.0(33) . . .
36.1(32) . . .
39.5(34) . . .
46(4) . . .
42.3(34) . . .
38.8(32) . . .
53(4) . . .
41(4) . . .
29.5(28) . . .
34.5(31) . . .
28.8(29) . . .
37.2(34) . . .
33.7(32) . . .
35.7(33) . . .
33.0(30) . . .
44(4) . . .
31.2(30) . . .
36.0(31) . . .
36.1(31) . . .
39.1(32) . . .
44(4) . . .
31.6(32) . . .
35.6(34) . . .
36.3(31) . . .
33.6(30) . . .
40.4(35) . . .
39(4) . . .
40.0(33) . . .
39.6(33) . . .
45.2(35) . . .
44(4) . . .
44(4) . . .
40.0(33) . . .
33.8(30) . . .
36.0(31) . . .
37.5(31) . . .
36.7(33) . . .
34.3(31) . . .
42.7(34) . . .
32.1(29) . . .
24.3(25) . . .
34.7(33) . . .
32.0(31) . . .
27.7(27) . . .
35.2(32) . . .
27.8(28) . . .
29.0(30) . . .
33.2(32) . . .
33.7(30) . . .
32.4(31) . . .
32.6(31) . . .
36.1(33) . . .
37.7(34) . . .
32.3(30) . . .
28.6(28) . . .
30.5(30) . . .
30.8(31) . . .
28.2(29) . . .
32.8(30) . . .
33.1(32) . . .
42(4) . . .
27.6(28) . . .
28.3(28) . . .
35.0(31) . . .
41.8(34) . . .
43(4) . . .
33.2(31) . . .
34.4(32) . . .
34.7(31) . . .
32.8(31) . . .
29.4(31) . . .
40(4) . . .
36.7(32) . . .
33.7(30) . . .
37.7(33) . . .
38.8(34) . . .
45(4) . . .
30.5(28) . . .
21.6(24) . . .
29.4(29) . . .
42(4) . . .
36.7(32) . . .
39.9(33) . . .
45(4) . . .
36.3(32) . . .
35.3(32) . . .
40.9(34) . . .
38.0(32) . . .
37.8(32) . . .
31.9(30) . . .
33.9(32) . . .
42(4) . . .
36.0(31) . . .
35.7(31) . . .
39.2(33) . . .
37.7(34) . . .
35.8(32) . . .
38.6(32) . . .
33.7(30) . . .
35.7(34) . . .
40.5(35) . . .
36.7(32) . . .
31.6(30) . . .
41.9(34) . . .
36.5(33) . . .
33.6(33) . . .
35.0(31) . . .
26.6(27) . . .
33.1(31) . . .
35.4(34) . . .
34.9(31) . . .
38.0(34) . . .
33.1(30) . . .
40(4) . . .
31.5(30) . . .
41(4) . . .
44.3(35) . . .
35.7(31) . . .
42(4) . . .
39.3(34) . . .
33.3(30) . . .
39.3(33) . . .
27.5(27) . . .
30.2(29) . . .
33.1(32) . . .
34.3(31) . . .
39.8(33) . . .
33.3(30) . . .
37.9(33) . . .
30.4(30) . . .
34.6(31) . . .
36.9(31) . . .
42.4(34) . . .
32.4(29) . . .
27.9(28) . . .
35.6(34) . . .
31.8(29) . . .
41.4(34) . . .
31.9(30) . . .
35.1(34) . . .
34.1(31) . . .
39.5(32) . . .
37.7(33) . . .
37.1(33) . . .
38.9(35) . . .
32.8(30) . . .
43.3(34) . . .
40.5(33) . . .
37.0(35) . . .
30.9(31) . . .
37.0(32) . . .
35.8(31) . . .
32.5(31) . . .
38.3(33) . . .
46(4) . . .
42.6(34) . . .
38.1(32) . . .
36.5(35) . . .
24.0(26) . . .
34.9(33) . . .
32.8(30) . . .
36.3(31) . . .
39.2(34) . . .
39.6(33) . . .
35.2(30) . . .
47(4) . . .
37.1(32) . . .
41(4) . . .
37.0(34) . . .
30.4(28) . . .
35.5(31) . . .
35.7(32) . . .
34.6(30) . . .
41.3(34) . . .
33.2(30) . . .
32.3(29) . . .
37.0(32) . . .
30.4(29) . . .
38(4) . . .
38.1(34) . . .
34.5(30) . . .
33.5(30) . . .
35.1(33) . . .
33.6(34) . . .
35.1(31) . . .
41.6(34) . . .
39.1(34) . . .
32.8(30) . . .
33.7(33) . . .
32.9(31) . . .
38.5(32) . . .
35.3(32) . . .
40.4(35) . . .
31.0(30) . . .
34.3(32) . . .
39.5(33) . . .
37.5(32) . . .
37.1(33) . . .
30.8(29) . . .
41.5(34) . . .
39.4(34) . . .
34.0(30) . . .
42(4) . . .
43(4) . . .
29.6(28) . . .
39.1(33) . . .
36.3(32) . . .
36.1(31) . . .
37.2(32) . . .
36.8(34) . . .
32.5(30) . . .
36.7(34) . . .
29.6(29) . . .
30.3(29) . . .
33.3(30) . . .
32.0(30) . . .
30.2(29) . . .
36.0(32) . . .
27.1(27) . . .
24.8(26) . . .
31.0(30) . . .
40.3(34) . . .
36.1(31) . . .
32.3(31) . . .
39.4(34) . . .
42.0(33) . . .
27.3(27) . . .
35.0(34) . . .
38.0(35) . . .
35.2(31) . . .
39.4(33) . . .
33.7(30) . . .
36.9(34) . . .
38.4(32) . . .
35.7(33) . . .
37.1(32) . . .
29.3(30) . . .
42(4) . . .
35.6(31) . . .
39.3(33) . . .
39.2(33) . . .
31.9(29) . . .
36.7(34) . . .
36.7(32) . . .
36.1(31) . . .
34.3(30) . . .
32.1(30) . . .
46(4) . . .
39.8(35) . . .
21.8(24) . . .
37.1(33) . . .
37.2(33) . . .
38.5(33) . . .
37.2(33) . . .
41.0(33) . . .
48(4) . . .
38.5(34) . . .
33.6(32) . . .
32.9(31) . . .
38.6(33) . . .
31.7(30) . . .
33.6(32) . . .
34.7(31) . . .
40.4(34) . . .
39.4(33) . . .
42(4) . . .
32.6(31) . . .
31.9(31) . . .
34.7(30) . . .
33.1(31) . . .
35.5(32) . . .
42(4) . . .
38.2(35) . . .
27.0(27) . . .
34.8(31) . . .
39.8(33) . . .
34.4(32) . . .
36.1(31) . . .
49(4) . . .
38.2(32) . . .
39.8(34) . . .
37.9(35) . . .
38.8(34) . . .
30.8(29) . . .
30.9(29) . . .
38.6(34) . . .
29.3(29) . . .
35.5(31) . . .
43.0(35) . . .
38.6(32) . . .
46(4) . . .
34.5(32) . . .
35.2(31) . . .
36.8(32) . . .
34.4(31) . . .
32.9(30) . . .
43(4) . . .
39.1(33) . . .
43.5(35) . . .
34.2(30) . . .
49(4) . . .
48(4) . . .
31.4(30) . . .
30.3(29) . . .
33.4(31) . . .
36.6(35) . . .
41(4) . . .
39.9(34) . . .
33.1(30) . . .
30.4(29) . . .
35.9(32) . . .
34.8(33) . . .
28.2(28) . . .
33.8(30) . . .
39.2(34) . . .
42(4) . . .
30.8(31) . . .
30.4(28) . . .
30.5(29) . . .
42(4) . . .
37.8(34) . . .
30.0(29) . . .
33.2(31) . . .
40.2(34) . . .
35.5(34) . . .
33.3(31) . . .
39.6(34) . . .
40.2(33) . . .
37.6(32) . . .
34.5(31) . . .
31.0(33) . . .
44(4) . . .
42.7(34) . . .
38.6(33) . . .
32.0(30) . . .
39(4) . . .
33.8(32) . . .
37.6(32) . . .
35.9(31) . . .
31.4(30) . . .
43(4) . . .
41(4) . . .
33.2(30) . . .
35.8(32) . . .
34.9(31) . . .
28.2(28) . . .
39(4) . . .
37.7(32) . . .
37.5(33) . . .
36.5(35) . . .
24.1(26) . . .
28.1(28) . . .
31.7(30) . . .
44(4) . . .
34.3(32) . . .
25.9(27) . . .
32.1(30) . . .
41.6(34) . . .
43.0(35) . . .
37(4) . . .
29.9(31) . . .
25.1(27) . . .
25.4(26) . . .
32.7(32) . . .
35.3(33) . . .
34.7(32) . . .
33.3(30) . . .
28.7(28) . . .
30.8(30) . . .
36.0(31) . . .
45(4) . . .
35.4(32) . . .
31.6(29) . . .
31.1(30) . . .
33.4(32) . . .
39(4) . . .
29.1(29) . . .
33.9(31) . . .
34.6(32) . . .
31.4(30) . . .
38.8(34) . . .
34.9(30) . . .
33.0(30) . . .
36.2(32) . . .
46(4) . . .
35.9(32) . . .
35.7(31) . . .
34.0(30) . . .
37.3(33) . . .
40.8(34) . . .
35.8(31) . . .
42.3(34) . . .
39.0(33) . . .
36.6(34) . . .
35.3(33) . . .
37.6(32) . . .
39.3(33) . . .
37.4(32) . . .
34.7(32) . . .
41(4) . . .
30.9(29) . . .
28.7(28) . . .
38.8(33) . . .
38.3(32) . . .
42(4) . . .
30.0(28) . . .
27.0(28) . . .
31.6(31) . . .
38.5(34) . . .
39.4(34) . . .
31.0(29) . . .
30.1(28) . . .
40.0(34) . . .
39(4) . . .
38.7(34) . . .
39.0(32) . . .
42.6(34) . . .
40.2(34) . . .
39.3(34) . . .
34.3(33) . . .
35.3(31) . . .
43.7(34) . . .
31.0(31) . . .
34.7(33) . . .
35.4(32) . . .
34.9(31) . . .
34.4(31) . . .
38.3(33) . . .
30.4(29) . . .
38.0(33) . . .
43.5(34) . . .
32.3(30) . . .
33.0(30) . . .
43(4) . . .
35.1(31) . . .
31.4(29) . . .
34.5(31) . . .
38.4(35) . . .
41(4) . . .
35.4(32) . . .
33.8(30) . . .
44.6(35) . . .
46(4) . . .
39.6(34) . . .
39(4) . . .
41.3(34) . . .
32.7(30) . . .
37.7(34) . . .
26.2(27) . . .
47(4) . . .
34.5(30) . . .
41.1(34) . . .
35.2(33) . . .
30.8(29) . . .
36.7(31) . . .
34.8(31) . . .
30.5(30) . . .
39.7(34) . . .
34.2(31) . . .
32.7(30) . . .
34.7(31) . . .
35.7(33) . . .
32.0(32) . . .
34.4(32) . . .
34.6(33) . . .
38.5(32) . . .
35.1(32) . . .
31.6(29) . . .
29.4(29) . . .
37.3(32) . . .
37.8(33) . . .
40.3(34) . . .
32.5(32) . . .
35.1(32) . . .
33.4(31) . . .
32.4(29) . . .
30.3(28) . . .
33.5(33) . . .
38.0(33) . . .
43.5(35) . . .
32.7(30) . . .
41(4) . . .
30.2(29) . . .
33.7(31) . . .
34.5(31) . . .
29.8(28) . . .
34.7(31) . . .
33.2(32) . . .
35.7(34) . . .
35.0(31) . . .
30.2(29) . . .
31.4(30) . . .
30.8(31) . . .
45(4) . . .
40.9(33) . . .
33.9(31) . . .
37.1(33) . . .
34.1(32) . . .
28.5(28) . . .
36.8(32) . . .
33.6(31) . . .
39.0(34) . . .
42(4) . . .
26.1(27) . . .
35.2(31) . . .
34.7(31) . . .
32.9(32) . . .
37.4(34) . . .
35.6(32) . . .
33.8(30) . . .
35.4(32) . . .
30.1(30) . . .
35.7(33) . . .
32.8(30) . . .
35.0(31) . . .
32.8(30) . . .
37.6(33) . . .
42.5(35) . . .
37.1(32) . . .
34.3(31) . . .
40(4) . . .
35.3(31) . . .
41(4) . . .
37.1(32) . . .
36.1(32) . . .
41(4) . . .
33.5(33) . . .
28.2(28) . . .
30.2(28) . . .
40.6(33) . . .
40.2(33) . . .
39.2(34) . . .
32.5(30) . . .
23.1(25) . . .
35.6(31) . . .
32.2(31) . . .
29.2(28) . . .
44(4) . . .
35.2(32) . . .
40.9(35) . . .
37.1(31) . . .
30.0(30) . . .
35.4(32) . . .
28.3(29) . . .
33.2(30) . . .
32.3(31) . . .
35.6(35) . . .
36.1(32) . . .
39.1(33) . . .
34.3(31) . . .
42.4(35) . . .
30.2(28) . . .
35.5(32) . . .
34.2(30) . . .
30.0(29) . . .
33.9(32) . . .
31.0(30) . . .
41(4) . . .
35.0(31) . . .
33.7(32) . . .
35.6(32) . . .
39.8(33) . . .
39.5(33) . . .
40.2(33) . . .
28.1(27) . . .
39.3(34) . . .
37.1(32) . . .
33.7(30) . . .
30.5(29) . . .
25.9(29) . . .
39(4) . . .
32.5(31) . . .
27.1(27) . . .
27.5(27) . . .
34.0(32) . . .
30.6(31) . . .
28.4(28) . . .
33.2(30) . . .
33.2(30) . . .
38.8(34) . . .
28.8(30) . . .
45(4) . . .
40.3(33) . . .
36.1(31) . . .
27.8(28) . . .
31.0(30) . . .
32.3(31) . . .
32.4(30) . . .
28.1(28) . . .
37.7(33) . . .
34.1(31) . . .
33.8(31) . . .
33.1(29) . . .
34.4(32) . . .
44(4) . . .
34.8(34) . . .
36.1(32) . . .
40.0(34) . . .
34.8(31) . . .
32.5(31) . . .
41(4) . . .
36.0(32) . . .
36.3(32) . . .
36.3(32) . . .
33.9(32) . . .
38(4) . . .
28.1(28) . . .
35.4(32) . . .
33.3(30) . . .
33.7(34) . . .
35(4) . . .
32.9(30) . . .
38.9(33) . . .
37.3(33) . . .
43(4) . . .
37.8(33) . . .
34.0(30) . . .
44.1(35) . . .
37.0(32) . . .
33.3(30) . . .
33.1(31) . . .
37.9(33) . . .
35.6(31) . . .
41.8(34) . . .
32.4(30) . . .
33.4(31) . . .
38.5(33) . . .
30.6(28) . . .
36.4(34) . . .
28.1(31) . . .
30.9(29) . . .
42.2(34) . . .
32.8(30) . . .
36.1(31) . . .
43(4) . . .
33.1(31) . . .
24.9(27) . . .
35.2(31) . . .
36.7(32) . . .
39(4) . . .
33.6(31) . . .
29.4(28) . . .
32.8(30) . . .
35.6(32) . . .
33.0(31) . . .
34.5(32) . . .
36.3(32) . . .
34.5(30) . . .
35.6(32) . . .
35.4(34) . . .
31.8(30) . . .
41.2(34) . . .
35.9(33) . . .
34.1(34) . . .
30.2(30) . . .
30.3(30) . . .
36.5(31) . . .
33.1(31) . . .
33.0(31) . . .
33.7(32) . . .
40(4) . . .
35.8(32) . . .
34.6(32) . . .
35.2(33) . . .
38.8(34) . . .
35.4(31) . . .
36.6(32) . . .
39.4(34) . . .
28.2(29) . . .
43(4) . . .
38.5(32) . . .
33.1(30) . . .
41(4) . . .
27.7(27) . . .
33.6(31) . . .
36.6(32) . . .
31.1(29) . . .
31.9(31) . . .
34.0(34) . . .
37.3(33) . . .
36.0(31) . . .
28.8(28) . . .
31.2(30) . . .
38(4) . . .
35.8(33) . . .
43.2(34) . . .
43.1(34) . . .
40.8(34) . . .
27.1(27) . . .
31.1(30) . . .
36.3(31) . . .
42(4) . . .
37.8(34) . . .
34.9(33) . . .
35.2(32) . . .
37.7(32) . . .
33.6(30) . . .
37.6(34) . . .
38(4) . . .
35(4) . . .
30.0(29) . . .
30.6(29) . . .
39.1(34) . . .
34.7(33) . . .
35.1(31) . . .
28.8(28) . . .
37.6(34) . . .
25.0(27) . . .
29.3(31) . . .
32.1(32) . . .
33.5(30) . . .
34.0(31) . . .
27.9(28) . . .
36.4(33) . . .
29.5(28) . . .
38.2(32) . . .
36.3(32) . . .
35.3(34) . . .
30.7(30) . . .
30.6(30) . . .
25.7(26) . . .
34.4(33) . . .
41(4) . . .
43(4) . . .
30.0(29) . . .
33.7(30) . . .
37.1(32) . . .
30.2(30) . . .
36.9(33) . . .
39.0(32) . . .
41.3(34) . . .
36.0(32) . . .
29.5(30) . . .
28.6(30) . . .
31.4(30) . . .
34.8(31) . . .
39(4) . . .
34.3(32) . . .
49(4) . . .
44(4) . . .
36.2(31) . . .
46(4) . . .
36.7(34) . . .
32.2(32) . . .
40.5(35) . . .
39.5(33) . . .
38.1(32) . . .
34.3(32) . . .
27.9(29) . . .
30.4(29) . . .
30.3(28) . . .
37.2(33) . . .
38(4) . . .
25.5(28) . . .
34.3(31) . . .
35.8(31) . . .
35.2(32) . . .
34.2(33) . . .
27.8(27) . . .
40.1(33) . . .
29.1(28) . . .
35.1(32) . . .
39.7(34) . . .
36.0(33) . . .
39.7(33) . . .
32.5(30) . . .
31.7(30) . . .
32.8(32) . . .
38.0(33) . . .
28.0(27) . . .
37.5(34) . . .
38.2(32) . . .
44(4) . . .
35.5(32) . . .
41.0(34) . . .
35.6(33) . . .
35.9(32) . . .
34.0(31) . . .
29.7(28) . . .
29.1(28) . . .
31.2(32) . . .
31.0(31) . . .
34.1(31) . . .
41.1(33) . . .
32.2(30) . . .
35.0(33) . . .
34.8(34) . . .
27.2(27) . . .
32.3(30) . . .
36.6(31) . . .
39.5(33) . . .
43(4) . . .
30.9(31) . . .
44.5(34) . . .
41.4(34) . . .
45(4) . . .
33.3(32) . . .
35.9(32) . . .
38.4(33) . . .
33.6(30) . . .
37.5(33) . . .
38.4(33) . . .
40.3(35) . . .
40.9(34) . . .
38.3(32) . . .
32.8(31) . . .
29.4(30) . . .
31.5(31) . . .
40.9(34) . . .
33.2(32) . . .
36.6(32) . . .
39.0(34) . . .
40.5(34) . . .
37.6(32) . . .
35.3(31) . . .
25.4(26) . . .
26.8(28) . . .
24.2(26) . . .
33.7(30) . . .
30.8(33) . . .
25.0(28) . . .
33.7(31) . . .
36.6(33) . . .
35.0(31) . . .
32.4(30) . . .
37.8(34) . . .
36.8(33) . . .
28.9(29) . . .
39.7(33) . . .
37.9(33) . . .
39.8(34) . . .
35.5(31) . . .
37.5(32) . . .
38.7(32) . . .
31.1(30) . . .
26.7(28) . . .
33.5(31) . . .
42.0(35) . . .
30.3(29) . . .
32.0(31) . . .
27.8(31) . . .
31.5(29) . . .
33.2(30) . . .
32.5(30) . . .
34.1(32) . . .
38(4) . . .
34.9(31) . . .
37.0(31) . . .
33.2(30) . . .
34.6(31) . . .
29.2(28) . . .
37.9(34) . . .
33.0(30) . . .
31.3(32) . . .
25.6(26) . . .
30.1(30) . . .
34.0(31) . . .
30.6(30) . . .
34.9(32) . . .
44(4) . . .
32.0(31) . . .
41.8(34) . . .
36.8(31) . . .
33.9(32) . . .
38.8(34) . . .
31.3(30) . . .
25.4(26) . . .
31.4(29) . . .
28.2(27) . . .
38(4) . . .
34.0(32) . . .
39.0(33) . . .
48(4) . . .
39.6(33) . . .
43(4) . . .
30.0(30) . . .
32.0(29) . . .
32.5(31) . . .
31.9(29) . . .
39.9(35) . . .
34.1(32) . . .
40.1(34) . . .
33.7(30) . . .
36.6(33) . . .
33.2(31) . . .
26.0(26) . . .
28.9(28) . . .
43.3(34) . . .
41.5(34) . . .
31.7(31) . . .
30.6(30) . . .
21.6(24) . . .
31.4(29) . . .
40.3(33) . . .
31.1(30) . . .
33.4(31) . . .
34.3(32) . . .
33.9(30) . . .
37.1(33) . . .
41(4) . . .
36(4) . . .
29.9(29) . . .
33.0(31) . . .
38.8(34) . . .
34.2(33) . . .
34.4(31) . . .
28.9(28) . . .
24.2(25) . . .
39(4) . . .
36.1(33) . . .
30.8(31) . . .
30.6(29) . . .
35.4(32) . . .
41(4) . . .
31.1(30) . . .
32.0(30) . . .
37.4(32) . . .
42.1(35) . . .
31.3(33) . . .
34.6(33) . . .
27.5(28) . . .
30.3(29) . . .
38.6(35) . . .
35.8(35) . . .
29.0(28) . . .
39.5(34) . . .
35.4(31) . . .
37.9(35) . . .
33.9(35) . . .
31.4(31) . . .
27.0(27) . . .
32.9(30) . . .
34.0(32) . . .
28.9(31) . . .
27.1(27) . . .
35.7(31) . . .
36.9(32) . . .
36.2(33) . . .
36(4) . . .
39.8(34) . . .
36.6(32) . . .
29.2(28) . . .
33.3(32) . . .
30.7(31) . . .
37.8(32) . . .
46(4) . . .
34.5(30) . . .
35.2(33) . . .
33.5(32) . . .
42(4) . . .
34.7(32) . . .
35.2(31) . . .
33.5(31) . . .
36.0(33) . . .
29.8(29) . . .
32.1(29) . . .
39.7(34) . . .
32.3(31) . . .
38.7(34) . . .
29.9(29) . . .
27.9(27) . . .
34.2(33) . . .
29.0(29) . . .
36.2(33) . . .
32.6(30) . . .
34.1(30) . . .
33.9(33) . . .
30.6(31) . . .
28.8(28) . . .
31.2(30) . . .
32.2(30) . . .
33.3(31) . . .
34.0(33) . . .
40(4) . . .
38.0(31) . . .
33.2(31) . . .
41.1(35) . . .
40.3(33) . . .
33.5(30) . . .
30.5(30) . . .
27.3(29) . . .
32.5(31) . . .
33.9(33) . . .
32.6(31) . . .
30.0(29) . . .
36.0(32) . . .
35.2(31) . . .
47(4) . . .
31.6(31) . . .
34.7(31) . . .
34.7(31) . . .
38.9(35) . . .
33.6(32) . . .
39.6(35) . . .
33.6(30) . . .
39.6(34) . . .
29.9(29) . . .
31.9(32) . . .
26.5(28) . . .
36.3(31) . . .
39(4) . . .
34.7(32) . . .
44(4) . . .
35.5(33) . . .
31.5(30) . . .
36.8(32) . . .
42.3(35) . . .
30.1(28) . . .
32.2(30) . . .
35.0(32) . . .
23.5(25) . . .
38.3(33) . . .
44(4) . . .
31.2(29) . . .
29.8(29) . . .
25.0(26) . . .
30.7(30) . . .
33.9(32) . . .
33.1(30) . . .
35.8(31) . . .
30.3(29) . . .
34.9(33) . . .
30.4(29) . . .
37.8(32) . . .
33.3(31) . . .
34.2(30) . . .
34.6(32) . . .
31.1(30) . . .
39.5(33) . . .
42.0(34) . . .
30.9(30) . . .
36.7(34) . . .
30.2(29) . . .
35.4(32) . . .
27.8(27) . . .
39.2(34) . . .
39(4) . . .
36.4(34) . . .
32.9(30) . . .
36.9(33) . . .
29.6(29) . . .
29.6(31) . . .
36.6(35) . . .
32.7(30) . . .
26.5(27) . . .
37.0(33) . . .
31.8(30) . . .
34.0(31) . . .
49(4) . . .
33.2(30) . . .
35.0(32) . . .
30.4(29) . . .
35.2(32) . . .
30.9(29) . . .
29.0(28) . . .
37.8(34) . . .
35.3(32) . . .
42(4) . . .
41.8(33) . . .
33.3(31) . . .
32.6(33) . . .
27.1(27) . . .
38.3(32) . . .
38.6(33) . . .
35.0(33) . . .
36.2(32) . . .
43(4) . . .
25.8(26) . . .
29.6(29) . . .
33.4(31) . . .
33.7(30) . . .
41.0(34) . . .
44(4) . . .
36.3(31) . . .
36.8(32) . . .
37.3(34) . . .
35.8(31) . . .
32.4(30) . . .
37.0(31) . . .
32.6(30) . . .
28.4(30) . . .
25.5(26) . . .
27.5(29) . . .
38.2(33) . . .
39.2(34) . . .
41(4) . . .
34.9(33) . . .
29.6(29) . . .
31.8(30) . . .
41(4) . . .
37.6(34) . . .
33.8(31) . . .
26.4(27) . . .
39.2(33) . . .
40.1(35) . . .
38(4) . . .
31.1(31) . . .
37.7(32) . . .
36.5(34) . . .
34.4(32) . . .
33.6(33) . . .
29.2(28) . . .
43.5(34) . . .
29.6(28) . . .
38.4(33) . . .
37.7(35) . . .
31.0(31) . . .
33.6(30) . . .
39.7(34) . . .
31.4(29) . . .
29.5(29) . . .
35.4(33) . . .
30.5(29) . . .
25.8(26) . . .
30.6(32) . . .
26.7(29) . . .
36.8(33) . . .
42.4(34) . . .
32.5(31) . . .
26.8(29) . . .
29.8(30) . . .
35.2(31) . . .
35.0(32) . . .
41(4) . . .
37.5(35) . . .
30.7(30) . . .
29.1(29) . . .
29.1(29) . . .
30.0(30) . . .
29.4(30) . . .
32.3(32) . . .
28.6(28) . . .
32.2(30) . . .
38.2(33) . . .
40(4) . . .
33.2(30) . . .
36.1(31) . . .
27.5(27) . . .
29.8(31) . . .
35(4) . . .
34.6(31) . . .
42.1(33) . . .
38.7(33) . . .
31.1(30) . . .
37.2(34) . . .
45(4) . . .
31.1(29) . . .
29.2(28) . . .
30.1(30) . . .
32.9(30) . . .
36.3(32) . . .
42.5(34) . . .
27.8(28) . . .
32.6(31) . . .
41(4) . . .
35.5(31) . . .
34.2(31) . . .
27.1(27) . . .
35.0(33) . . .
31.1(30) . . .
29.2(29) . . .
30.3(29) . . .
39.1(33) . . .
40(4) . . .
33.0(32) . . .
35.3(32) . . .
32.2(30) . . .
30.5(29) . . .
33.4(33) . . .
31.4(31) . . .
30.5(30) . . .
33.9(31) . . .
31.9(30) . . .
35.7(34) . . .
31.8(31) . . .
35.0(32) . . .
28.1(27) . . .
33.7(32) . . .
40(4) . . .
35.0(31) . . .
36.5(33) . . .
30.7(29) . . .
32.5(32) . . .
26.5(29) . . .
37.4(33) . . .
31.5(29) . . .
31.5(29) . . .
29.3(28) . . .
39(4) . . .
37.2(33) . . .
39.3(33) . . .
36.0(32) . . .
36.4(32) . . .
35.8(33) . . .
29.9(28) . . .
36.9(32) . . .
27.5(28) . . .
30.2(30) . . .
27.7(29) . . .
42.5(34) . . .
41.0(33) . . .
35.0(32) . . .
38(4) . . .
33.8(32) . . .
34.0(31) . . .
35.7(31) . . .
30.7(32) . . .
29.4(29) . . .
33.4(32) . . .
38.0(33) . . .
35.5(30) . . .
22.7(26) . . .
33.0(31) . . .
39.1(33) . . .
33.2(30) . . .
33.5(31) . . .
28.7(29) . . .
34.6(33) . . .
34.4(33) . . .
29.0(30) . . .
38.2(32) . . .
35.8(32) . . .
35.7(33) . . .
34.5(32) . . .
34.9(31) . . .
27.5(27) . . .
39.3(35) . . .
36.8(32) . . .
38.0(33) . . .
39.8(33) . . .
33.4(30) . . .
35.2(31) . . .
37.3(34) . . .
40(4) . . .
31.3(29) . . .
37.3(32) . . .
35.6(31) . . .
35.6(34) . . .
28.7(29) . . .
34.7(30) . . .
30.4(29) . . .
30.9(29) . . .
33.7(32) . . .
32.9(30) . . .
32.3(30) . . .
28.5(28) . . .
30.3(30) . . .
33.7(32) . . .
28.4(28) . . .
30.5(29) . . .
29.2(29) . . .
34.0(31) . . .
32.9(33) . . .
36.8(33) . . .
26.0(28) . . .
31.1(30) . . .
31.4(31) . . .
29.4(30) . . .
35.4(32) . . .
32.0(30) . . .
37.4(31) . . .
43(4) . . .
29.7(30) . . .
38.1(35) . . .
32.9(30) . . .
32.3(31) . . .
29.9(30) . . .
41(4) . . .
36.4(31) . . .
36.8(33) . . .
32.1(31) . . .
32.4(33) . . .
36.0(34) . . .
28.2(27) . . .
29.9(28) . . .
35.6(33) . . .
30.8(29) . . .
31.1(30) . . .
33.2(31) . . .
27.8(27) . . .
32.5(30) . . .
40(4) . . .
39.9(35) . . .
29.0(28) . . .
30.6(29) . . .
32.7(32) . . .
28.1(29) . . .
20.5(24) . . .
27.0(27) . . .
29.9(29) . . .
31.4(30) . . .
31.0(31) . . .
34.9(31) . . .
36.8(31) . . .
26.5(27) . . .
26.4(26) . . .
36.5(33) . . .
33.3(31) . . .
34.7(31) . . .
34.8(30) . . .
35.5(31) . . .
30.0(32) . . .
34.4(32) . . .
35.7(31) . . .
35.2(32) . . .
29.5(30) . . .
39(4) . . .
34.8(31) . . .
34.7(30) . . .
33.8(31) . . .
21.3(25) . . .
34.0(33) . . .
34.9(31) . . .
32.3(30) . . .
31.4(29) . . .
31.3(29) . . .
32.3(30) . . .
34.3(31) . . .
34.8(31) . . .
30.5(29) . . .
28.4(29) . . .
31.8(32) . . .
36.3(31) . . .
42.5(34) . . .
37.6(33) . . .
23.8(26) . . .
28.3(30) . . .
30.6(28) . . .
35.7(33) . . .
36(4) . . .
35.5(33) . . .
29.8(29) . . .
26.4(27) . . .
37.0(32) . . .
26.7(28) . . .
30.2(31) . . .
34.8(32) . . .
36.3(32) . . .
34.7(31) . . .
29.7(28) . . .
32.4(32) . . .
29.3(29) . . .
34.9(30) . . .
31.4(30) . . .
25.6(26) . . .
41(4) . . .
30.3(31) . . .
30.4(29) . . .
33.9(31) . . .
31.5(30) . . .
36.9(33) . . .
37.8(33) . . .
31.6(29) . . .
36.8(32) . . .
29.8(28) . . .
33.6(31) . . .
31.9(30) . . .
34.8(31) . . .
27.1(27) . . .
30.3(30) . . .
35.2(31) . . .
37.8(32) . . .
29.8(29) . . .
28.9(29) . . .
32.5(31) . . .
32.5(30) . . .
38.6(33) . . .
39.5(33) . . .
32.0(30) . . .
36.5(34) . . .
25.2(25) . . .
34.3(30) . . .
32.9(30) . . .
30.9(30) . . .
26.8(29) . . .
38.1(34) . . .
36.0(31) . . .
30.0(28) . . .
31.8(32) . . .
33.7(32) . . .
28.8(28) . . .
33.9(31) . . .
35.1(31) . . .
32.7(30) . . .
39(4) . . .
32.9(32) . . .
31.8(30) . . .
32.6(29) . . .
28.5(29) . . .
35.4(35) . . .
28.5(29) . . .
34.5(32) . . .
17.2(22) . . .
29.7(30) . . .
35.2(35) . . .
24.3(27) . . .
29.7(28) . . .
38.6(33) . . .
31.5(30) . . .
33.8(32) . . .
28.4(28) . . .
30.5(29) . . .
31.4(29) . . .
32.7(31) . . .
33.2(32) . . .
33.3(31) . . .
33.3(31) . . .
32.3(29) . . .
33.8(30) . . .
32.7(29) . . .
36.7(33) . . .
31.5(30) . . .
38.4(34) . . .
34.5(34) . . .
32.3(31) . . .
29.5(30) . . .
35.5(31) . . .
38.9(34) . . .
26.3(26) . . .
36.3(33) . . .
28.5(27) . . .
37.3(32) . . .
33.5(34) . . .
27.2(27) . . .
37.5(34) . . .
26.2(27) . . .
27.9(28) . . .
31.5(32) . . .
23.1(27) . . .
38.8(32) . . .
38.4(32) . . .
36.0(31) . . .
29.5(31) . . .
29.1(31) . . .
31.2(30) . . .
35.1(31) . . .
41.0(33) . . .
29.6(28) . . .
31.8(31) . . .
37.4(34) . . .
35.5(31) . . .
33.6(31) . . .
30.4(31) . . .
33.1(35) . . .
29.5(29) . . .
33.4(30) . . .
33.7(30) . . .
32.3(30) . . .
42(4) . . .
24.0(27) . . .
35.4(30) . . .
30.6(29) . . .
38.7(34) . . .
36.7(33) . . .
45(4) . . .
35.3(31) . . .
32.7(31) . . .
38(4) . . .
34.0(32) . . .
25.5(26) . . .
27.8(28) . . .
31.1(29) . . .
29.3(29) . . .
36.7(34) . . .
33.8(31) . . .
35.4(31) . . .
28.8(29) . . .
33.6(32) . . .
35.5(33) . . .
32.3(30) . . .
33.1(30) . . .
26.9(32) . . .
27.2(31) . . .
40(4) . . .
28.7(28) . . .
35.1(31) . . .
32.1(30) . . .
37.7(34) . . .
38.8(33) . . .
44.0(34) . . .
32.1(30) . . .
30.9(30) . . .
36.0(32) . . .
36.3(31) . . .
30.6(29) . . .
35.3(31) . . .
43(4) . . .
43(4) . . .
31.3(31) . . .
38.6(33) . . .
34.3(30) . . .
36.2(34) . . .
34.2(34) . . .
32.3(31) . . .
33.7(30) . . .
30.5(28) . . .
36(4) . . .
30.2(32) . . .
37.1(35) . . .
29.3(28) . . .
32.5(31) . . .
31.9(30) . . .
27.7(28) . . .
27.4(28) . . .
40.8(33) . . .
32.7(29) . . .
38.4(34) . . .
28.8(28) . . .
33.2(31) . . .
30.1(29) . . .
30.8(29) . . .
28.7(28) . . .
28.5(28) . . .
37.3(34) . . .
44.4(35) . . .
31.3(30) . . .
32.0(31) . . .
35.8(33) . . .
38.0(33) . . .
24.3(26) . . .
32.5(32) . . .
30.3(29) . . .
38.8(34) . . .
38.1(32) . . .
33.6(30) . . .
42(4) . . .
34.1(32) . . .
31.4(32) . . .
29.7(29) . . .
27.9(27) . . .
29.3(29) . . .
32.5(31) . . .
32.3(33) . . .
25.9(26) . . .
30.1(30) . . .
33.8(31) . . .
29.8(29) . . .
33.8(31) . . .
37.9(32) . . .
25.1(26) . . .
31.5(30) . . .
29.5(30) . . .
35.7(33) . . .
32.1(29) . . .
37.2(32) . . .
31.9(31) . . .
28.1(28) . . .
39.9(35) . . .
36.8(31) . . .
42.8(34) . . .
38(4) . . .
33.4(32) . . .
31.8(31) . . .
34.5(31) . . .
44(4) . . .
37.2(34) . . .
34.6(34) . . .
28.8(29) . . .
33.5(30) . . .
31.1(31) . . .
28.0(28) . . .
35.2(35) . . .
39(4) . . .
33.1(30) . . .
42.5(34) . . .
33.5(31) . . .
35.1(32) . . .
30.6(30) . . .
35.8(31) . . .
31.0(30) . . .
34.7(32) . . .
26.7(26) . . .
36.2(33) . . .
36.6(32) . . .
35.2(32) . . .
35.2(31) . . .
31.2(29) . . .
27.8(27) . . .
33.0(30) . . .
35.9(32) . . .
32.9(31) . . .
30.9(29) . . .
35.3(33) . . .
30.7(28) . . .
34.1(32) . . .
37.0(34) . . .
35.0(32) . . .
28.0(28) . . .
32.9(30) . . .
29.8(28) . . .
37.5(33) . . .
35.6(32) . . .
43.5(34) . . .
31.1(30) . . .
33.9(31) . . .
32.5(32) . . .
31.8(30) . . .
32.2(30) . . .
26.4(27) . . .
29.1(28) . . .
31.2(31) . . .
30.8(31) . . .
35.4(30) . . .
45(4) . . .
26.7(27) . . .
25.2(27) . . .
32.3(31) . . .
33.0(30) . . .
40.5(34) . . .
39.2(34) . . .
36.8(32) . . .
33.9(31) . . .
30.2(29) . . .
34.3(32) . . .
24.5(26) . . .
26.7(30) . . .
26.4(29) . . .
30.7(29) . . .
37.9(34) . . .
41(4) . . .
29.6(29) . . .
42(4) . . .
32.2(30) . . .
32.5(30) . . .
37(4) . . .
37.9(33) . . .
36.5(32) . . .
31.0(29) . . .
25.1(25) . . .
41(4) . . .
36.7(33) . . .
26.9(27) . . .
34.0(31) . . .
37.3(32) . . .
31.5(30) . . .
37.8(33) . . .
30.0(28) . . .
30.7(29) . . .
24.7(25) . . .
37.1(33) . . .
38.0(34) . . .
31.3(29) . . .
32.9(30) . . .
31.3(31) . . .
28.9(32) . . .
30.4(30) . . .
29.4(28) . . .
31.9(30) . . .
31.9(30) . . .
33.1(31) . . .
26.9(28) . . .
28.4(28) . . .
34.7(32) . . .
35.1(34) . . .
31.4(31) . . .
27.3(27) . . .
34.4(31) . . .
34.2(31) . . .
37.1(32) . . .
42.1(34) . . .
32.6(31) . . .
32.4(30) . . .
37.9(32) . . .
28.2(27) . . .
25.6(27) . . .
30.2(30) . . .
26.5(26) . . .
29.9(29) . . .
33.0(33) . . .
25.3(27) . . .
29.2(29) . . .
28.4(29) . . .
48(4) . . .
35.9(31) . . .
37.6(32) . . .
35.3(31) . . .
35.2(31) . . .
41.1(35) . . .
38.4(34) . . .
38.0(33) . . .
36.1(31) . . .
27.9(28) . . .
31.8(30) . . .
31.6(30) . . .
38.4(33) . . .
32.4(29) . . .
34.5(31) . . .
38.2(35) . . .
28.4(28) . . .
32.3(33) . . .
27.4(27) . . .
35.1(31) . . .
33.2(31) . . .
35.4(34) . . .
30.5(29) . . .
40.3(33) . . .
40.6(33) . . .
42(4) . . .
33.7(31) . . .
34.7(31) . . .
28.8(28) . . .
30.3(29) . . .
39.6(33) . . .
35.1(31) . . .
30.7(29) . . .
27.9(29) . . .
35.2(32) . . .
29.7(29) . . .
27.2(28) . . .
42(4) . . .
32.1(30) . . .
37.2(32) . . .
24.5(26) . . .
40(4) . . .
30.9(30) . . .
25.2(26) . . .
28.5(28) . . .
31.8(31) . . .
37(4) . . .
34.2(31) . . .
32.8(30) . . .
37.8(32) . . .
33.2(30) . . .
33.4(33) . . .
32.2(30) . . .
33.3(30) . . .
43(4) . . .
31.7(31) . . .
28.9(29) . . .
33.7(31) . . .
36.0(31) . . .
30.5(31) . . .
28.0(31) . . .
43(4) . . .
39.4(34) . . .
32.7(30) . . .
30.5(29) . . .
28.1(28) . . .
36.4(32) . . .
34.9(31) . . .
36.6(32) . . .
28.1(29) . . .
28.7(30) . . .
29.6(28) . . .
30.7(30) . . .
30.9(29) . . .
31.7(29) . . .
31.5(31) . . .
36(4) . . .
36.7(32) . . .
29.0(30) . . .
32.0(30) . . .
23.5(24) . . .
31.4(30) . . .
35.8(31) . . .
34.6(30) . . .
33.2(30) . . .
34.5(33) . . .
28.8(29) . . .
35.2(31) . . .
37.4(32) . . .
33.0(31) . . .
35.1(33) . . .
27.4(30) . . .
36.2(31) . . .
32.0(30) . . .
36.5(35) . . .
34.4(31) . . .
31.6(29) . . .
37.3(32) . . .
26.2(28) . . .
32.9(31) . . .
32.3(32) . . .
32.1(29) . . .
39.3(33) . . .
30.3(31) . . .
31.1(31) . . .
33.3(31) . . .
34.0(33) . . .
36.2(31) . . .
37.0(32) . . .
44(4) . . .
37.2(32) . . .
43.8(34) . . .
37.6(32) . . .
31.6(29) . . .
35.3(33) . . .
45(4) . . .
31.6(29) . . .
30.5(28) . . .
27.9(27) . . .
27.7(30) . . .
29.8(29) . . .
33.1(30) . . .
30.2(29) . . .
32.6(30) . . .
27.7(28) . . .
33.3(30) . . .
26.8(27) . . .
37.7(34) . . .
42(4) . . .
35.5(33) . . .
30.0(30) . . .
28.7(27) . . .
26.8(28) . . .
23.5(25) . . .
40(4) . . .
31.4(30) . . .
31.3(29) . . .
31.4(29) . . .
32.5(31) . . .
40(4) . . .
31.0(30) . . .
35.9(31) . . .
31.1(30) . . .
41(4) . . .
40(4) . . .
33.5(31) . . .
32.4(30) . . .
31.3(29) . . .
35.0(32) . . .
30.8(31) . . .
34.5(31) . . .
31.0(29) . . .
25.6(26) . . .
45(4) . . .
39(4) . . .
30.3(29) . . .
22.5(24) . . .
30.7(32) . . .
35.6(34) . . .
33.1(31) . . .
34.0(32) . . .
35.1(31) . . .
30.1(29) . . .
34.3(33) . . .
35.5(31) . . .
36.5(32) . . .
27.6(28) . . .
31.0(30) . . .
30.5(30) . . .
45(4) . . .
33.3(31) . . .
29.0(28) . . .
32.0(30) . . .
38(4) . . .
38(4) . . .
35.0(31) . . .
26.5(27) . . .
32.9(31) . . .
31.6(32) . . .
35.0(33) . . .
29.8(29) . . .
24.1(26) . . .
36.1(33) . . .
27.5(28) . . .
29.6(29) . . .
35.4(31) . . .
30.3(30) . . .
30.1(31) . . .
33.2(33) . . .
29.5(29) . . .
32.9(30) . . .
35.8(32) . . .
30.5(31) . . .
34.0(32) . . .
35.6(32) . . .
32.5(30) . . .
37.5(33) . . .
42(4) . . .
34.1(30) . . .
29.6(29) . . .
27.2(27) . . .
29.7(30) . . .
25.6(29) . . .
24.8(29) . . .
25.3(27) . . .
30.5(29) . . .
37.2(33) . . .
30.4(29) . . .
32.3(31) . . .
34.7(31) . . .
30.9(29) . . .
40.0(33) . . .
36.7(35) . . .
29.5(31) . . .
33.6(30) . . .
44(4) . . .
27.4(27) . . .
31.6(31) . . .
30.5(30) . . .
34.7(31) . . .
39.4(33) . . .
42(4) . . .
31.5(32) . . .
30.6(30) . . .
35.3(31) . . .
29.8(28) . . .
38.0(33) . . .
24.7(27) . . .
34.0(33) . . .
41.0(33) . . .
40.3(33) . . .
36.5(32) . . .
31.3(31) . . .
31.0(31) . . .
43.8(34) . . .
38.3(32) . . .
30.2(30) . . .
35.0(34) . . .
30.2(30) . . .
25.8(26) . . .
24.5(27) . . .
32.4(31) . . .
33.4(33) . . .
28.5(28) . . .
31.8(29) . . .
34.6(31) . . .
38.9(33) . . .
33.6(30) . . .
36.4(32) . . .
32.3(30) . . .
31.2(30) . . .
35.5(32) . . .
31.1(30) . . .
33.7(32) . . .
28.2(28) . . .
31.6(32) . . .
29.4(31) . . .
31.6(30) . . .
33.2(31) . . .
30.8(29) . . .
29.7(28) . . .
32.4(31) . . .
36.9(35) . . .
30.3(29) . . .
31.8(30) . . .
33.1(29) . . .
28.8(29) . . .
30.2(29) . . .
36.7(31) . . .
29.6(28) . . .
42(4) . . .
31.9(33) . . .
39(4) . . .
35.7(31) . . .
38.1(32) . . .
37.9(34) . . .
34.0(32) . . .
33.8(31) . . .
37.9(33) . . .
31.5(29) . . .
36.8(35) . . .
38.0(33) . . .
34.2(32) . . .
32.2(30) . . .
32.0(30) . . .
28.5(27) . . .
32.2(31) . . .
31.6(30) . . .
34.0(30) . . .
34.0(31) . . .
32.9(31) . . .
45(4) . . .
35.4(33) . . .
28.2(28) . . .
29.8(29) . . .
33.4(31) . . .
37.7(33) . . .
29.1(29) . . .
26.1(27) . . .
35.3(32) . . .
30.8(31) . . .
36.4(34) . . .
37.2(33) . . .
38.4(32) . . .
30.0(29) . . .
29.4(30) . . .
37.9(34) . . .
32.2(29) . . .
30.0(28) . . .
29.9(30) . . .
28.9(30) . . .
35.0(32) . . .
38.4(33) . . .
32.0(30) . . .
26.1(27) . . .
26.4(26) . . .
37.0(33) . . .
38.8(32) . . .
34.9(31) . . .
32.4(30) . . .
34.4(35) . . .
27.9(28) . . .
38.4(33) . . .
28.5(29) . . .
34.9(32) . . .
39.0(35) . . .
33.8(30) . . .
30.0(28) . . .
28.4(28) . . .
28.1(30) . . .
39.9(35) . . .
34.5(31) . . .
32.2(29) . . .
31.4(30) . . .
32.4(30) . . .
32.6(31) . . .
31.1(30) . . .
33.3(30) . . .
28.2(28) . . .
32.4(31) . . .
35.2(34) . . .
28.0(28) . . .
36.1(31) . . .
32.2(31) . . .
28.3(29) . . .
34.9(33) . . .
45(4) . . .
28.7(28) . . .
27.4(28) . . .
33.9(34) . . .
31.3(30) . . .
36.8(32) . . .
34.1(30) . . .
32.9(31) . . .
36.8(35) . . .
28.2(28) . . .
31.5(29) . . .
29.7(29) . . .
36.2(34) . . .
37.4(34) . . .
31.0(30) . . .
38.7(33) . . .
29.1(28) . . .
31.3(29) . . .
28.0(29) . . .
27.4(28) . . .
32.1(30) . . .
44.3(34) . . .
31.1(30) . . .
35(4) . . .
25.9(28) . . .
26.4(27) . . .
36.3(31) . . .
36.1(35) . . .
41(4) . . .
39.7(35) . . .
32.8(30) . . .
34.9(30) . . .
38.6(33) . . .
31.1(32) . . .
32.4(31) . . .
43.6(35) . . .
21.8(24) . . .
35.7(33) . . .
33.3(33) . . .
23.5(26) . . .
35.0(31) . . .
31.7(29) . . .
32.0(29) . . .
36.0(31) . . .
40.7(34) . . .
34.3(30) . . .
41.2(34) . . .
44(4) . . .
29.3(29) . . .
28.8(28) . . .
29.5(28) . . .
30.3(29) . . .
24.7(26) . . .
34.9(32) . . .
39.0(34) . . .
24.5(26) . . .
33.3(34) . . .
30.3(30) . . .
30.8(30) . . .
28.0(28) . . .
31.6(30) . . .
30.3(30) . . .
33.3(32) . . .
38.3(34) . . .
32.4(30) . . .
31.1(29) . . .
31.7(31) . . .
36(4) . . .
32.9(30) . . .
34.3(30) . . .
34.8(32) . . .
32.7(31) . . .
32.7(32) . . .
30.5(28) . . .
36.6(32) . . .
29.1(28) . . .
33.7(31) . . .
31.7(30) . . .
36.7(32) . . .
42.9(34) . . .
43.1(34) . . .
31.2(31) . . .
35.4(33) . . .
37.6(35) . . .
30.4(29) . . .
31.3(29) . . .
30.9(30) . . .
30.3(32) . . .
29.2(29) . . .
28.7(29) . . .
35.9(31) . . .
33.6(31) . . .
42(4) . . .
26.1(27) . . .
35.4(31) . . .
31.4(30) . . .
29.4(29) . . .
35.9(32) . . .
31.1(29) . . .
31.9(29) . . .
25.9(26) . . .
33.5(33) . . .
33.5(30) . . .
37.1(32) . . .
37.7(32) . . .
29.3(31) . . .
29.7(31) . . .
27.1(28) . . .
39.0(33) . . .
32.7(29) . . .
32.2(30) . . .
32.6(31) . . .
29.7(29) . . .
28.8(28) . . .
28.0(28) . . .
37.8(33) . . .
35.4(30) . . .
37.0(33) . . .
31.6(29) . . .
26.2(27) . . .
28.8(28) . . .
31.3(30) . . .
36.4(32) . . .
34.1(30) . . .
29.4(28) . . .
28.2(29) . . .
27.0(28) . . .
33.6(30) . . .
30.3(29) . . .
35.2(32) . . .
35.6(31) . . .
34.2(34) . . .
31(4) . . .
32.2(30) . . .
35.9(32) . . .
33.5(30) . . .
26.9(27) . . .
35.1(31) . . .
30.0(29) . . .
28.5(28) . . .
33.2(30) . . .
33.8(32) . . .
36(4) . . .
26.9(27) . . .
39.8(34) . . .
28.8(29) . . .
25.2(27) . . .
37.3(33) . . .
28.9(29) . . .
33.2(30) . . .
21.4(24) . . .
28.3(28) . . .
32.5(30) . . .
39.0(32) . . .
34.0(33) . . .
34.8(34) . . .
33.3(32) . . .
37.0(32) . . .
29.5(28) . . .
34.2(31) . . .
37.0(34) . . .
35.9(32) . . .
36.1(31) . . .
28.6(28) . . .
27.8(28) . . .
36.7(34) . . .
36.3(32) . . .
30.9(29) . . .
31.8(30) . . .
31.2(32) . . .
27.2(29) . . .
33.0(33) . . .
33.8(31) . . .
29.6(28) . . .
39.1(35) . . .
39.8(35) . . .
41.0(34) . . .
31.3(29) . . .
27.9(28) . . .
22.0(24) . . .
32.4(31) . . .
29.7(28) . . .
27.4(28) . . .
33.1(31) . . .
32.6(31) . . .
33.1(32) . . .
32.3(30) . . .
36.7(31) . . .
32.8(29) . . .
26.8(28) . . .
27.4(28) . . .
34.8(31) . . .
38.3(33) . . .
31.7(29) . . .
39.1(33) . . .
35.7(30) . . .
38.3(33) . . .
29.8(29) . . .
31.8(31) . . .
25.6(27) . . .
31.9(32) . . .
28.4(28) . . .
34.4(31) . . .
30.8(30) . . .
35.3(34) . . .
32.6(32) . . .
25.0(28) . . .
40.3(33) . . .
39.7(35) . . .
36.0(31) . . .
28.4(27) . . .
33.1(31) . . .
41.4(33) . . .
32.3(32) . . .
28.9(31) . . .
26.3(28) . . .
33.8(32) . . .
32.8(30) . . .
31.9(30) . . .
30.0(31) . . .
30.7(30) . . .
29.9(29) . . .
30.3(30) . . .
34.0(32) . . .
22.6(25) . . .
36.0(34) . . .
27.2(28) . . .
34.4(30) . . .
33.1(31) . . .
23.3(26) . . .
35.3(33) . . .
31.5(29) . . .
31.1(29) . . .
35.6(32) . . .
28.2(29) . . .
22.6(25) . . .
30.6(29) . . .
34.2(32) . . .
27.8(29) . . .
28.9(30) . . .
34.4(31) . . .
35.2(31) . . .
32.3(30) . . .
34.4(33) . . .
29.0(28) . . .
35.5(31) . . .
32.7(30) . . .
37.1(32) . . .
34.9(32) . . .
35.3(33) . . .
30.0(28) . . .
35.1(31) . . .
38.6(33) . . .
32.7(32) . . .
33.6(33) . . .
26.3(27) . . .
30.9(29) . . .
35.1(31) . . .
38.4(33) . . .
32.4(30) . . .
31.8(31) . . .
26.6(27) . . .
28.5(30) . . .
29.7(28) . . .
41.2(35) . . .
32.1(31) . . .
34.4(31) . . .
30.9(29) . . .
39(4) . . .
27.8(29) . . .
30.4(30) . . .
33.0(30) . . .
31.4(30) . . .
39.4(35) . . .
31.1(29) . . .
40.0(33) . . .
32.4(31) . . .
26.0(28) . . .
33.0(31) . . .
26.3(26) . . .
24.5(26) . . .
28.9(30) . . .
31.4(31) . . .
29.2(30) . . .
28.6(28) . . .
34.7(31) . . .
34.5(31) . . .
33.9(30) . . .
30.2(29) . . .
26.8(32) . . .
37.6(33) . . .
42.6(34) . . .
31.9(29) . . .
39.3(34) . . .
28.9(28) . . .
34.7(31) . . .
31.4(29) . . .
33.0(31) . . .
29.6(30) . . .
29.7(30) . . .
32.1(29) . . .
28.0(27) . . .
28.7(27) . . .
34.2(31) . . .
35.9(33) . . .
36.1(31) . . .
32.8(31) . . .
38(4) . . .
30.0(29) . . .
29.7(30) . . .
26.1(28) . . .
21.9(25) . . .
31.0(32) . . .
39(4) . . .
41.9(34) . . .
32.3(30) . . .
35.6(32) . . .
37.3(35) . . .
33.8(32) . . .
34.4(31) . . .
32.3(30) . . .
35.2(32) . . .
42(4) . . .
42(4) . . .
25.4(26) . . .
34.4(31) . . .
33.4(31) . . .
33.2(33) . . .
31.1(30) . . .
36.6(31) . . .
34.9(32) . . .
31.9(31) . . .
34.0(34) . . .
33.5(31) . . .
33.5(31) . . .
31.8(29) . . .
28.5(28) . . .
36.3(34) . . .
31.5(31) . . .
33.9(30) . . .
32.6(30) . . .
26.3(29) . . .
26.5(28) . . .
29.0(28) . . .
30.5(29) . . .
25.0(26) . . .
33.8(32) . . .
28.4(28) . . .
29.9(30) . . .
35.8(32) . . .
34.2(31) . . .
26.0(28) . . .
31.8(31) . . .
34.1(31) . . .
44.9(35) . . .
35.1(33) . . .
34.5(32) . . .
32.4(31) . . .
34.0(31) . . .
38.5(33) . . .
33.7(31) . . .
29.8(29) . . .
37.8(35) . . .
31.0(29) . . .
32.4(30) . . .
30.1(30) . . .
30.5(30) . . .
34.9(32) . . .
40.6(33) . . .
43.4(34) . . .
30.5(29) . . .
39.5(35) . . .
36.0(32) . . .
28.5(28) . . .
23.5(25) . . .
35.3(33) . . .
31.6(32) . . .
31.8(29) . . .
38.8(32) . . .
30.5(29) . . .
32.3(31) . . .
35.1(32) . . .
34.0(30) . . .
37.4(31) . . .
31.2(30) . . .
35.8(33) . . .
31.2(32) . . .
26.0(29) . . .
28.0(28) . . .
24.9(26) . . .
25.6(27) . . .
33.2(33) . . .
32.4(31) . . .
24.3(26) . . .
29.1(31) . . .
29.9(30) . . .
28.6(30) . . .
29.8(29) . . .
34.6(31) . . .
43(4) . . .
25.8(29) . . .
25.7(29) . . .
30.8(30) . . .
30.5(29) . . .
31.1(29) . . .
36.3(34) . . .
27.9(29) . . .
26.9(28) . . .
38.9(33) . . .
30.2(31) . . .
30.2(31) . . .
38(4) . . .
27.2(27) . . .
35.6(32) . . .
32.4(31) . . .
32.2(32) . . .
30.3(30) . . .
31.3(29) . . .
31.2(30) . . .
32.8(30) . . .
29.8(31) . . .
27.0(29) . . .
26.7(27) . . .
34.1(31) . . .
26.9(27) . . .
35.3(33) . . .
44(4) . . .
39.3(32) . . .
34.3(33) . . .
32.4(31) . . .
34.0(31) . . .
28.5(28) . . .
31.7(30) . . .
36.4(32) . . .
25.1(27) . . .
26.9(27) . . .
27.4(29) . . .
30.2(29) . . .
28.4(29) . . .
29.0(30) . . .
23.8(28) . . .
23.8(27) . . .
33.5(30) . . .
29.7(30) . . .
30.0(30) . . .
32.7(32) . . .
34.0(32) . . .
29.0(28) . . .
26.2(27) . . .
29.6(28) . . .
36.4(33) . . .
38.5(33) . . .
34.6(30) . . .
32.5(31) . . .
36.2(33) . . .
29.6(28) . . .
29.3(28) . . .
31.3(29) . . .
32.9(30) . . .
32.4(30) . . .
26.9(27) . . .
26.1(27) . . .
37.2(32) . . .
29.6(29) . . .
28.5(32) . . .
27.8(32) . . .
32.5(30) . . .
33.2(30) . . .
29.1(30) . . .
33.3(32) . . .
33.9(31) . . .
26.0(26) . . .
30.3(28) . . .
29.2(30) . . .
34.2(33) . . .
44(4) . . .
42.3(34) . . .
40.2(33) . . .
37.3(31) . . .
39.6(35) . . .
30.2(29) . . .
37.6(32) . . .
33.5(30) . . .
28.1(28) . . .
23.9(25) . . .
41(4) . . .
26.5(28) . . .
28.9(28) . . .
34.2(32) . . .
28.4(31) . . .
27.5(28) . . .
30.1(28) . . .
37.0(34) . . .
33.8(33) . . .
28.4(28) . . .
36.1(32) . . .
33.5(30) . . .
32.6(30) . . .
35.0(34) . . .
25.0(29) . . .
26.9(28) . . .
39.1(33) . . .
30.2(28) . . .
29.4(29) . . .
30.6(29) . . .
30.5(30) . . .
36.7(32) . . .
34.3(31) . . .
30.3(29) . . .
34.6(32) . . .
33.7(31) . . .
35.7(31) . . .
30.0(29) . . .
35.8(34) . . .
34.2(33) . . .
36.0(31) . . .
31.5(29) . . .
30.0(31) . . .
32.0(33) . . .
35.4(31) . . .
31.7(31) . . .
34.0(30) . . .
27.2(27) . . .
29.3(30) . . .
30.2(30) . . .
33.8(31) . . .
35.1(30) . . .
36.1(34) . . .
32.5(33) . . .
39.0(34) . . .
33.8(30) . . .
31.2(29) . . .
32.6(30) . . .
43(4) . . .
29.6(30) . . .
31.1(30) . . .
34.1(31) . . .
32.0(29) . . .
30.6(29) . . .
33.0(31) . . .
31.1(29) . . .
36.1(32) . . .
46(4) . . .
40(4) . . .
35.8(31) . . .
29.7(29) . . .
28.6(28) . . .
31.1(31) . . .
28.2(28) . . .
31.3(30) . . .
28.2(28) . . .
37.5(33) . . .
30.5(28) . . .
32.7(33) . . .
32.4(30) . . .
31.4(30) . . .
31.0(30) . . .
36.4(33) . . .
22.9(25) . . .
22.7(26) . . .
28.3(28) . . .
34.3(33) . . .
29.9(29) . . .
32.7(31) . . .
34.5(31) . . .
26.8(27) . . .
23.8(26) . . .
30.7(31) . . .
27.0(27) . . .
32.4(30) . . .
31.9(29) . . .
31.2(30) . . .
35.2(34) . . .
21.9(24) . . .
33.7(30) . . .
33.5(30) . . .
29.0(28) . . .
33.4(34) . . .
35.9(32) . . .
35.8(32) . . .
30.6(28) . . .
34.2(32) . . .
32.9(34) . . .
33.7(33) . . .
33.7(30) . . .
27.8(28) . . .
28.9(28) . . .
32.9(31) . . .
34.1(30) . . .
28.1(28) . . .
24.9(27) . . .
34.1(33) . . .
40.1(35) . . .
34.8(33) . . .
38.4(33) . . .
26.7(27) . . .
28.5(26) . . .
31.5(29) . . .
31.0(30) . . .
35.1(31) . . .
33.7(32) . . .
33.2(32) . . .
30.6(30) . . .
38.3(35) . . .
31.4(29) . . .
30.0(30) . . .
42(4) . . .
34.9(31) . . .
36.7(32) . . .
27.4(27) . . .
32.2(30) . . .
34.1(32) . . .
24.4(25) . . .
29.3(28) . . .
29.4(28) . . .
35.5(32) . . .
41(4) . . .
28.6(28) . . .
28.9(28) . . .
34.0(30) . . .
33.3(31) . . .
25.4(27) . . .
34.9(33) . . .
33.4(31) . . .
32.8(30) . . .
42.2(35) . . .
37.0(34) . . .
40.2(33) . . .
42.3(34) . . .
36.3(31) . . .
28.7(28) . . .
25.0(27) . . .
29.1(29) . . .
32.5(29) . . .
30.8(29) . . .
30.4(30) . . .
21.2(24) . . .
32.6(31) . . .
27.8(27) . . .
32.7(30) . . .
31.2(30) . . .
28.4(31) . . .
33.9(34) . . .
35.5(31) . . .
31.9(32) . . .
34.3(33) . . .
38.6(34) . . .
33.4(31) . . .
29.5(29) . . .
29.8(30) . . .
32.5(33) . . .
31.5(30) . . .
38.8(33) . . .
32.4(29) . . .
35.7(33) . . .
38.2(33) . . .
31.2(30) . . .
26.1(32) . . .
24.8(25) . . .
28.0(29) . . .
28.8(29) . . .
27.0(27) . . .
37.8(34) . . .
36.0(32) . . .
35.1(33) . . .
38.4(34) . . .
30.3(28) . . .
32.5(30) . . .
25.7(28) . . .
28.0(27) . . .
25.9(28) . . .
31.6(30) . . .
35.5(31) . . .
31.1(29) . . .
25.4(27) . . .
30.3(31) . . .
32.2(31) . . .
32.0(29) . . .
42.7(35) . . .
36.4(33) . . .
31.7(31) . . .
40.3(35) . . .
30.1(29) . . .
36.9(31) . . .
32.8(31) . . .
29.4(30) . . .
29.1(29) . . .
35.2(31) . . .
37.7(32) . . .
27.5(28) . . .
27.6(28) . . .
27.3(28) . . .
29.5(30) . . .
31.7(30) . . .
29.6(29) . . .
32.7(31) . . .
33.6(31) . . .
36.2(31) . . .
37.6(32) . . .
35.5(31) . . .
34.1(32) . . .
35.9(32) . . .
46(4) . . .
32.2(31) . . .
32.1(32) . . .
29.6(29) . . .
30.4(30) . . .
31.9(31) . . .
27.5(27) . . .
36.1(33) . . .
30.5(30) . . .
30.2(29) . . .
30.8(29) . . .
32.3(30) . . .
27.7(28) . . .
33.3(31) . . .
30.7(30) . . .
29.3(28) . . .
29.7(30) . . .
42(4) . . .
32.3(31) . . .
44(4) . . .
38.0(33) . . .
26.2(28) . . .
32.0(32) . . .
30.9(30) . . .
30.0(30) . . .
28.3(28) . . .
36.8(33) . . .
35.1(34) . . .
25.6(27) . . .
31.7(29) . . .
30.7(30) . . .
27.9(29) . . .
39(4) . . .
30.6(29) . . .
32.8(30) . . .
31.5(30) . . .
29.4(29) . . .
26.7(29) . . .
34.9(32) . . .
37.4(32) . . .
24.7(27) . . .
30.8(31) . . .
32.1(32) . . .
39.6(35) . . .
26.8(28) . . .
29.7(29) . . .
37.2(33) . . .
28.9(29) . . .
36.8(33) . . .
35.2(31) . . .
28.4(28) . . .
28.7(29) . . .
40(4) . . .
31.8(29) . . .
39.2(32) . . .
31.7(31) . . .
32.4(32) . . .
23.4(26) . . .
26.8(28) . . .
37.5(32) . . .
30.8(30) . . .
27.6(28) . . .
41.4(35) . . .
34.6(31) . . .
31.7(29) . . .
36.7(33) . . .
33.3(32) . . .
38.4(34) . . .
40.0(34) . . .
30.6(29) . . .
33.1(31) . . .
26.9(30) . . .
29.0(32) . . .
30.5(30) . . .
37.0(31) . . .
34.3(31) . . .
30.3(30) . . .
37.2(32) . . .
31.2(29) . . .
33.1(30) . . .
31.9(29) . . .
35.4(33) . . .
33.5(31) . . .
31.3(29) . . .
32.9(31) . . .
26.0(28) . . .
34.4(32) . . .
26.1(26) . . .
36.8(32) . . .
29.6(30) . . .
29.6(30) . . .
40(4) . . .
35.9(32) . . .
31.7(29) . . .
27.4(27) . . .
29.0(28) . . .
29.5(28) . . .
37.9(35) . . .
29.5(29) . . .
33.1(31) . . .
31.4(32) . . .
28.2(29) . . .
32.3(30) . . .
34.0(30) . . .
27.4(29) . . .
33.8(33) . . .
33.7(31) . . .
26.1(28) . . .
36.0(32) . . .
36.0(33) . . .
31.7(31) . . .
39.3(33) . . .
31.0(29) . . .
35.2(31) . . .
23.9(26) . . .
28.5(30) . . .
35.1(34) . . .
26.1(27) . . .
27.5(27) . . .
37.8(35) . . .
35.1(32) . . .
30.3(29) . . .
29.4(28) . . .
37.7(32) . . .
29.5(29) . . .
27.3(30) . . .
22.4(26) . . .
38.8(33) . . .
38.4(32) . . .
32.5(30) . . .
35.5(34) . . .
32.0(32) . . .
30.9(30) . . .
28.0(29) . . .
35.7(33) . . .
31.2(32) . . .
39.2(33) . . .
35.4(31) . . .
25.4(26) . . .
29.4(29) . . .
35.6(34) . . .
38.1(33) . . .
33.3(31) . . .
28.9(28) . . .
36.7(33) . . .
31.8(30) . . .
31.3(29) . . .
30.5(31) . . .
30.7(29) . . .
35.4(34) . . .
35.3(33) . . .
27.1(28) . . .
31.4(29) . . .
31.2(30) . . .
38(4) . . .
26.0(27) . . .
30.6(30) . . .
29.7(29) . . .
30.0(29) . . .
37.3(34) . . .
38.7(32) . . .
32.6(30) . . .
29.7(29) . . .
31.4(30) . . .
29.4(30) . . .
31.4(30) . . .
30.5(29) . . .
41.7(34) . . .
44(4) . . .
33.1(32) . . .
27.9(28) . . .
27.0(27) . . .
35.5(31) . . .
29.7(28) . . .
28.8(29) . . .
26.6(27) . . .
26.2(27) . . .
28.2(28) . . .
27.9(28) . . .
37(4) . . .
40.0(33) . . .
31.7(29) . . .
33.6(31) . . .
26.0(26) . . .
35.2(34) . . .
28.3(28) . . .
38.8(32) . . .
28.3(28) . . .
32.0(33) . . .
32.5(32) . . .
28.0(28) . . .
27.5(27) . . .
26.4(27) . . .
26.3(29) . . .
23.7(27) . . .
32.0(32) . . .
23.1(25) . . .
35.8(31) . . .
34.0(30) . . .
34.7(33) . . .
36.3(33) . . .
33.7(30) . . .
28.0(30) . . .
26.5(27) . . .
37.2(34) . . .
33.3(31) . . .
34.0(30) . . .
34.7(33) . . .
35.3(34) . . .
32.1(31) . . .
39.1(33) . . .
33.0(30) . . .
29.0(28) . . .
34.7(32) . . .
34.5(32) . . .
29.8(29) . . .
38.2(33) . . .
40.5(34) . . .
32.2(31) . . .
31.2(31) . . .
34.5(31) . . .
32.1(30) . . .
40(4) . . .
31.4(30) . . .
27.9(28) . . .
28.7(27) . . .
33.6(30) . . .
32.0(32) . . .
29.4(29) . . .
26.9(28) . . .
34.0(32) . . .
30.8(29) . . .
29.2(28) . . .
44(4) . . .
40(4) . . .
31.3(29) . . .
31.5(29) . . .
32.0(31) . . .
28.6(29) . . .
28.4(29) . . .
32.2(30) . . .
31.2(29) . . .
32.7(31) . . .
30.8(30) . . .
27.2(30) . . .
29.4(28) . . .
37.2(33) . . .
33.8(31) . . .
31.9(33) . . .
35.7(35) . . .
33.7(30) . . .
26.8(28) . . .
29.3(30) . . .
32.4(30) . . .
26.7(27) . . .
32.7(30) . . .
32.3(30) . . .
23.7(25) . . .
28.0(28) . . .
35.3(32) . . .
27.9(28) . . .
22.9(25) . . .
31.3(33) . . .
33.2(31) . . .
38.9(32) . . .
31.1(29) . . .
28.9(30) . . .
34.8(33) . . .
31.3(30) . . .
28.2(28) . . .
28.4(28) . . .
26.3(27) . . .
30.6(31) . . .
29.1(28) . . .
34.3(31) . . .
32.1(29) . . .
33.0(29) . . .
33.4(31) . . .
31.9(30) . . .
30.1(30) . . .
28.3(28) . . .
33.0(32) . . .
29.4(32) . . .
26.5(27) . . .
34.2(30) . . .
25.6(27) . . .
30.0(30) . . .
30.1(30) . . .
36.2(33) . . .
35.2(31) . . .
29.0(28) . . .
34.0(33) . . .
31.9(34) . . .
36.6(33) . . .
31.1(29) . . .
21.8(25) . . .
29.5(29) . . .
30.0(29) . . .
33.8(33) . . .
38.3(32) . . .
36.2(32) . . .
39.3(34) . . .
32.3(32) . . .
28.2(30) . . .
34.1(31) . . .
34.0(32) . . .
40(4) . . .
41(4) . . .
32.3(30) . . .
37.0(32) . . .
31.3(31) . . .
30.8(30) . . .
31.2(30) . . .
26.7(27) . . .
35.2(31) . . .
25.6(27) . . .
25.7(29) . . .
34.2(32) . . .
35.1(31) . . .
39.9(33) . . .
36.2(32) . . .
18.5(22) . . .
33.3(31) . . .
29.5(28) . . .
33.4(30) . . .
28.6(28) . . .
36.8(34) . . .
35.6(34) . . .
29.1(28) . . .
30.1(28) . . .
31.5(32) . . .
28.8(29) . . .
32.8(30) . . .
38.6(32) . . .
33.5(31) . . .
36.8(32) . . .
41(4) . . .
32.8(30) . . .
35.9(31) . . .
40.6(33) . . .
38(4) . . .
31.2(31) . . .
23.9(26) . . .
27.6(28) . . .
31.5(30) . . .
34.1(33) . . .
21.3(24) . . .
22.2(26) . . .
28.4(28) . . .
32.7(30) . . .
34.3(32) . . .
26.8(30) . . .
31.8(30) . . .
30.6(29) . . .
30.3(30) . . .
32.2(29) . . .
29.5(30) . . .
32.1(30) . . .
34.1(31) . . .
26.3(27) . . .
39.7(34) . . .
37.8(35) . . .
36.1(33) . . .
31.4(29) . . .
28.9(30) . . .
21.5(24) . . .
30.9(32) . . .
29.5(28) . . .
38.4(33) . . .
33.4(32) . . .
30.7(31) . . .
31.9(29) . . .
28.4(29) . . .
28.6(28) . . .
36.5(33) . . .
29.4(31) . . .
30.2(31) . . .
28.3(27) . . .
27.5(27) . . .
30.7(29) . . .
30.5(32) . . .
30.2(29) . . .
33.8(31) . . .
29.8(29) . . .
34.3(33) . . .
28.4(31) . . .
30.2(29) . . .
36.2(31) . . .
35.8(32) . . .
32.5(32) . . .
34.2(33) . . .
30.7(29) . . .
23.5(25) . . .
30.6(30) . . .
28.5(28) . . .
32.7(31) . . .
32.3(30) . . .
31.8(29) . . .
33.1(31) . . .
37.6(33) . . .
34.3(33) . . .
31.4(30) . . .
24.8(26) . . .
29.7(33) . . .
27.0(28) . . .
35.6(32) . . .
33.3(32) . . .
33.5(30) . . .
39(4) . . .
40(4) . . .
32.6(30) . . .
27.5(27) . . .
36.7(32) . . .
29.5(29) . . .
33.1(32) . . .
26.3(29) . . .
35.2(31) . . .
29.7(28) . . .
29.7(30) . . .
38(4) . . .
39.2(34) . . .
28.4(28) . . .
30.3(29) . . .
35.8(32) . . .
39(4) . . .
32.7(29) . . .
36.4(31) . . .
39.8(34) . . .
33.9(32) . . .
25.3(30) . . .
26.0(30) . . .
26.2(26) . . .
36.4(31) . . .
28.8(30) . . .
25.3(26) . . .
32.2(30) . . .
36.6(31) . . .
27.2(27) . . .
34.6(32) . . .
35.6(31) . . .
37.3(32) . . .
23.5(26) . . .
35.5(33) . . .
31.2(29) . . .
30.3(31) . . .
25.6(26) . . .
35.8(32) . . .
31.5(29) . . .
28.1(28) . . .
21.8(26) . . .
34.0(34) . . .
32.5(31) . . .
31.1(29) . . .
30.2(31) . . .
24.2(26) . . .
31.1(31) . . .
31.6(29) . . .
36.8(34) . . .
37.2(34) . . .
30.0(29) . . .
29.9(30) . . .
32.7(30) . . .
31.3(31) . . .
31.7(31) . . .
33.9(31) . . .
37.6(32) . . .
31.5(29) . . .
33.2(32) . . .
30.7(32) . . .
23.5(26) . . .
31.5(30) . . .
23.1(25) . . .
35.4(34) . . .
34.6(32) . . .
32.9(29) . . .
37.2(32) . . .
26.9(27) . . .
28.6(29) . . .
31.5(30) . . .
36.0(32) . . .
34.8(31) . . .
33.6(30) . . .
31.3(30) . . .
34.9(35) . . .
30.9(32) . . .
24.9(26) . . .
28.1(28) . . .
34.8(32) . . .
29.9(29) . . .
33.0(31) . . .
35.0(31) . . .
29.3(28) . . .
32.4(31) . . .
27.8(29) . . .
24.3(27) . . .
30.6(29) . . .
32.6(31) . . .
32.4(33) . . .
27.3(30) . . .
33.1(31) . . .
38.3(32) . . .
30.0(28) . . .
27.9(29) . . .
34.5(35) . . .
32.5(30) . . .
31.4(29) . . .
36.2(33) . . .
34.6(32) . . .
32.1(30) . . .
26.9(29) . . .
26.3(27) . . .
27.5(29) . . .
30.0(33) . . .
24.5(26) . . .
35.5(33) . . .
33.1(30) . . .
29.0(29) . . .
28.7(31) . . .
26.0(27) . . .
31.6(30) . . .
43.8(35) . . .
28.4(30) . . .
29.0(30) . . .
32.1(30) . . .
30.1(28) . . .
28.0(28) . . .
27.0(27) . . .
38.5(33) . . .
37.6(32) . . .
29.1(28) . . .
30.0(29) . . .
29.1(29) . . .
31.9(32) . . .
35.3(32) . . .
32.2(30) . . .
26.5(28) . . .
31.0(31) . . .
31.7(31) . . .
25.7(26) . . .
34.5(31) . . .
31.1(29) . . .
27.3(29) . . .
31.7(31) . . .
33.7(35) . . .
35.1(32) . . .
32.8(29) . . .
31.5(30) . . .
29.6(31) . . .
26.0(29) . . .
33.9(31) . . .
38.9(34) . . .
35.0(32) . . .
30.4(29) . . .
28.1(27) . . .
39.0(32) . . .
32.4(30) . . .
25.7(27) . . .
24.0(26) . . .
27.9(27) . . .
34.9(31) . . .
30.7(29) . . .
34.8(31) . . .
26.1(27) . . .
28.9(28) . . .
36.6(32) . . .
29.3(28) . . .
27.4(28) . . .
28.0(29) . . .
31.0(30) . . .
37.9(32) . . .
38.0(33) . . .
39(4) . . .
28.2(28) . . .
31.1(29) . . .
30.3(29) . . .
31.3(31) . . .
24.9(30) . . .
28.0(29) . . .
32.1(29) . . .
31.8(30) . . .
33.0(31) . . .
41(4) . . .
27.8(28) . . .
28.9(28) . . .
27.1(27) . . .
28.1(30) . . .
30.7(32) . . .
31.6(31) . . .
33.2(31) . . .
32.9(31) . . .
30.1(29) . . .
36.5(35) . . .
33.4(30) . . .
34.8(31) . . .
34.8(32) . . .
28.2(29) . . .
29.9(31) . . .
28.4(29) . . .
33.5(30) . . .
40.4(33) . . .
39.3(32) . . .
40.3(34) . . .
31.0(30) . . .
30.9(29) . . .
33.3(31) . . .
37.4(34) . . .
32.6(33) . . .
32.3(29) . . .
28.0(28) . . .
27.2(27) . . .
31.1(30) . . .
40(4) . . .
33.3(31) . . .
37.3(32) . . .
37.3(33) . . .
37.2(33) . . .
31.8(29) . . .
30.4(29) . . .
29.6(29) . . .
34.5(32) . . .
36.5(34) . . .
28.2(28) . . .
37.2(32) . . .
33.1(30) . . .
33.3(35) . . .
34.3(32) . . .
29.6(30) . . .
31.8(30) . . .
41.4(33) . . .
38.0(35) . . .
36(4) . . .
32.5(30) . . .
37.6(33) . . .
38.9(33) . . .
30.8(28) . . .
41(4) . . .
32.5(31) . . .
35.8(31) . . .
29.3(28) . . .
32.8(32) . . .
32.1(32) . . .
32.9(31) . . .
33.4(30) . . .
32.8(30) . . .
34.7(32) . . .
35.5(34) . . .
33.6(32) . . .
25.8(26) . . .
29.3(30) . . .
33.1(31) . . .
26.9(28) . . .
37.7(34) . . .
29.9(29) . . .
33.0(32) . . .
28.1(28) . . .
30.3(29) . . .
29.6(28) . . .
30.1(29) . . .
28.0(30) . . .
39(4) . . .
36.1(32) . . .
26.7(28) . . .
31.7(30) . . .
34.2(32) . . .
39.9(35) . . .
26.2(26) . . .
38.8(34) . . .
32.3(30) . . .
31.8(33) . . .
33.7(31) . . .
33.9(31) . . .
31.7(30) . . .
32.4(30) . . .
30.1(32) . . .
39.2(34) . . .
37.5(33) . . .
26.2(27) . . .
31.5(30) . . .
28.5(27) . . .
45(4) . . .
34.0(32) . . .
32.3(29) . . .
32.5(31) . . .
36.2(33) . . .
40.0(34) . . .
33.5(32) . . .
29.5(28) . . .
25.7(26) . . .
34.2(32) . . .
26.8(27) . . .
34.5(33) . . .
27.3(27) . . .
33.7(30) . . .
32.4(32) . . .
36.4(35) . . .
35.4(33) . . .
30.8(29) . . .
26.2(27) . . .
35.0(33) . . .
31.1(31) . . .
32.3(31) . . .
25.2(26) . . .
23.6(26) . . .
26.7(28) . . .
27.6(29) . . .
25.4(28) . . .
30.3(29) . . .
31.0(31) . . .
24.7(27) . . .
31.8(32) . . .
30.0(30) . . .
38.5(32) . . .
36.9(33) . . .
24.2(26) . . .
23.0(25) . . .
37.9(33) . . .
38.7(33) . . .
23.0(25) . . .
30.2(33) . . .
33.0(31) . . .
34.8(31) . . .
30.6(29) . . .
30.0(29) . . .
27.3(27) . . .
33.4(32) . . .
35.1(32) . . .
32.2(30) . . .
26.1(27) . . .
32.1(31) . . .
34.0(32) . . .
34.4(31) . . .
25.1(26) . . .
37.4(34) . . .
33.3(31) . . .
29.5(29) . . .
29.9(28) . . .
25.1(26) . . .
32.9(30) . . .
32.4(31) . . .
26.1(27) . . .
36.3(32) . . .
35.4(33) . . .
31.4(31) . . .
28.9(30) . . .
30.5(31) . . .
27.7(28) . . .
29.8(29) . . .
30.1(30) . . .
28.6(30) . . .
27.6(30) . . .
26.7(28) . . .
32.0(30) . . .
22.1(25) . . .
35.4(33) . . .
25.8(28) . . .
27.1(27) . . .
27.7(30) . . .
34.1(33) . . .
29.1(29) . . .
34.5(31) . . .
30.1(29) . . .
35.8(32) . . .
28.9(29) . . .
27.4(28) . . .
25.3(27) . . .
34.0(31) . . .
29.9(30) . . .
36(4) . . .
34.0(34) . . .
30.6(29) . . .
23.0(25) . . .
26.5(27) . . .
25.6(31) . . .
26.2(29) . . .
29.3(29) . . .
30.5(29) . . .
29.3(29) . . .
28.8(31) . . .
28.2(29) . . .
40.4(33) . . .
34.1(31) . . .
28.4(29) . . .
30.8(31) . . .
27.5(29) . . .
24.3(26) . . .
24.3(26) . . .
29.8(30) . . .
34.5(34) . . .
32.2(30) . . .
29.1(28) . . .
31.3(30) . . .
28.0(28) . . .
34.5(33) . . .
33.4(34) . . .
24.9(26) . . .
30.8(29) . . .
26.3(27) . . .
32.4(32) . . .
30.5(30) . . .
31.7(30) . . .
33.0(30) . . .
29.1(29) . . .
26.6(28) . . .
24.7(26) . . .
34.0(30) . . .
27.8(29) . . .
35.9(33) . . .
38.9(34) . . .
26.1(26) . . .
24.6(26) . . .
28.9(29) . . .
32.0(31) . . .
31.9(31) . . .
29.4(28) . . .
34.9(32) . . .
29.7(30) . . .
33.0(32) . . .
34.0(32) . . .
35.3(31) . . .
27.7(28) . . .
36.8(33) . . .
30.5(31) . . .
27.0(28) . . .
29.3(28) . . .
37.4(32) . . .
26.5(27) . . .
34.5(32) . . .
28.6(28) . . .
41.2(34) . . .
30.0(30) . . .
32.9(29) . . .
35.0(33) . . .
26.0(28) . . .
22.0(25) . . .
32.5(30) . . .
40.7(33) . . .
27.9(29) . . .
33.4(32) . . .
28.7(29) . . .
29.4(28) . . .
32.3(32) . . .
38(4) . . .
36.3(33) . . .
29.4(29) . . .
38.7(33) . . .
36.3(32) . . .
34.2(33) . . .
27.5(28) . . .
27.2(28) . . .
25.4(28) . . .
34.4(34) . . .
29.8(30) . . .
30.9(29) . . .
37.0(32) . . .
38.1(33) . . .
29.5(28) . . .
31.6(29) . . .
30.5(28) . . .
33.9(31) . . .
24.9(26) . . .
28.0(31) . . .
29.3(31) . . .
26.6(27) . . .
34.7(31) . . .
36.3(32) . . .
35.4(33) . . .
27.0(27) . . .
29.0(28) . . .
32.6(29) . . .
28.4(28) . . .
28.9(28) . . .
36.2(34) . . .
26.0(26) . . .
27.7(27) . . .
24.1(26) . . .
25.5(27) . . .
38.0(33) . . .
33.4(30) . . .
30.9(28) . . .
31.5(30) . . .
27.3(30) . . .
27.6(29) . . .
32.8(31) . . .
32.8(31) . . .
32.8(30) . . .
33.5(32) . . .
35.5(31) . . .
32.8(30) . . .
32.2(30) . . .
32.1(29) . . .
37.4(35) . . .
27.4(28) . . .
32.2(30) . . .
35.4(31) . . .
32.2(30) . . .
32.4(31) . . .
37.3(33) . . .
26.5(27) . . .
28.0(29) . . .
36.1(34) . . .
25.8(27) . . .
29.2(29) . . .
34.1(30) . . .
37.1(32) . . .
28.2(27) . . .
27.5(29) . . .
32.6(30) . . .
33.0(30) . . .
30.6(29) . . .
29.3(29) . . .
22.8(25) . . .
33.2(32) . . .
29.0(28) . . .
30.1(30) . . .
33.9(33) . . .
27.6(28) . . .
27.3(27) . . .
26.7(27) . . .
34.8(31) . . .
31.0(30) . . .
34.7(32) . . .
34.2(31) . . .
25.0(26) . . .
25.3(27) . . .
27.9(29) . . .
29.3(29) . . .
28.4(29) . . .
31.4(29) . . .
32.8(32) . . .
27.1(28) . . .
29.4(28) . . .
29.4(29) . . .
37.6(32) . . .
35.3(30) . . .
40.1(34) . . .
39.3(32) . . .
34.3(31) . . .
30.1(28) . . .
37.5(33) . . .
31.0(30) . . .
28.7(28) . . .
30.7(29) . . .
24.1(26) . . .
38.8(33) . . .
33.4(31) . . .
35.3(34) . . .
34.7(31) . . .
23.2(27) . . .
21.1(24) . . .
38.1(34) . . .
36.4(32) . . .
33.7(30) . . .
31.3(29) . . .
28.4(31) . . .
25.1(28) . . .
31.9(31) . . .
31.4(30) . . .
27.2(28) . . .
30.3(29) . . .
27.2(26) . . .
28.8(29) . . .
24.9(25) . . .
31.2(30) . . .
29.6(32) . . .
31.1(30) . . .
29.8(29) . . .
33.1(30) . . .
33.4(31) . . .
31.1(30) . . .
30.3(29) . . .
31.9(29) . . .
30.5(29) . . .
29.0(31) . . .
35.1(33) . . .
34.9(33) . . .
26.7(27) . . .
35.9(31) . . .
28.0(29) . . .
33.0(31) . . .
37.0(32) . . .
40.8(33) . . .
34.6(31) . . .
39.0(35) . . .
36.2(33) . . .
35.2(31) . . .
34.0(30) . . .
42.4(34) . . .
36.7(31) . . .
42(4) . . .
29.2(29) . . .
35.8(31) . . .
29.9(29) . . .
28.5(29) . . .
31.7(32) . . .
30.9(29) . . .
28.3(28) . . .
32.1(30) . . .
28.3(28) . . .
47(4) . . .
38.1(33) . . .
31.7(29) . . .
37.3(32) . . .
28.0(28) . . .
25.3(27) . . .
28.2(29) . . .
28.9(28) . . .
26.2(27) . . .
30.9(30) . . .
28.5(29) . . .
35.2(31) . . .
33.5(30) . . .
29.7(29) . . .
35.8(34) . . .
33.0(32) . . .
33.1(31) . . .
32.9(30) . . .
34.2(33) . . .
25.4(27) . . .
33.6(33) . . .
30.9(30) . . .
38.0(32) . . .
40.0(34) . . .
37.1(35) . . .
32.1(33) . . .
30.6(29) . . .
32.9(30) . . .
29.6(29) . . .
28.7(30) . . .
31.3(31) . . .
26.0(27) . . .
25.3(26) . . .
29.9(29) . . .
33.3(33) . . .
29.2(30) . . .
31.9(30) . . .
34.1(30) . . .
24.2(27) . . .
23.9(26) . . .
32.3(30) . . .
31.4(29) . . .
29.1(28) . . .
28.7(29) . . .
29.8(30) . . .
35.5(32) . . .
35.4(31) . . .
24.5(25) . . .
35.3(33) . . .
31.6(32) . . .
33.5(32) . . .
30.8(29) . . .
29.3(30) . . .
29.8(30) . . .
26.6(27) . . .
32.3(29) . . .
29.2(28) . . .
42.8(35) . . .
34.6(33) . . .
28.8(30) . . .
34.9(32) . . .
34.0(30) . . .
25.6(30) . . .
35.1(34) . . .
32.0(30) . . .
32.0(29) . . .
39.2(32) . . .
37.9(35) . . .
32.5(32) . . .
32.8(30) . . .
33.4(30) . . .
29.3(28) . . .
30.7(30) . . .
35.4(33) . . .
31.8(30) . . .
25.5(26) . . .
36.9(31) . . .
20.4(23) . . .
34.2(34) . . .
27.6(27) . . .
25.9(28) . . .
29.8(28) . . .
32.0(29) . . .
32.2(33) . . .
27.9(29) . . .
31.2(29) . . .
33.7(31) . . .
26.7(27) . . .
29.2(30) . . .
33.6(33) . . .
33.8(30) . . .
30.5(29) . . .
28.1(29) . . .
23.7(27) . . .
30.2(32) . . .
30.1(28) . . .
31.1(30) . . .
24.5(26) . . .
30.8(31) . . .
37.3(33) . . .
28.7(28) . . .
33.3(31) . . .
27.6(29) . . .
35.2(34) . . .
28.4(29) . . .
28.2(28) . . .
35.7(32) . . .
30.9(29) . . .
27.7(29) . . .
33.1(31) . . .
32.3(30) . . .
29.5(31) . . .
25.6(26) . . .
36.5(34) . . .
31.5(31) . . .
30.9(29) . . .
32.0(31) . . .
32.9(30) . . .
33.0(31) . . .
30.1(28) . . .
40.0(33) . . .
34.7(32) . . .
27.5(28) . . .
29.8(30) . . .
26.7(27) . . .
26.4(27) . . .
28.8(28) . . .
28.0(30) . . .
31.7(30) . . .
31.4(29) . . .
32.6(30) . . .
39.4(33) . . .
34.8(33) . . .
36.9(32) . . .
38.2(32) . . .
35.3(31) . . .
28.9(27) . . .
35.0(34) . . .
24.7(25) . . .
30.5(29) . . .
33.4(30) . . .
31.4(30) . . .
27.3(28) . . .
26.3(29) . . .
30.1(29) . . .
35.6(31) . . .
34.9(31) . . .
31.1(31) . . .
28.0(31) . . .
36.8(32) . . .
30.3(28) . . .
34.7(31) . . .
35.8(33) . . .
26.9(28) . . .
29.9(28) . . .
22.8(25) . . .
31.8(32) . . .
31.8(31) . . .
28.8(28) . . .
35.4(31) . . .
32.7(30) . . .
30.6(30) . . .
31.4(31) . . .
32.8(30) . . .
32.9(30) . . .
31.0(30) . . .
33.8(31) . . .
29.8(29) . . .
32.3(31) . . .
35.7(31) . . .
26.3(28) . . .
30.8(33) . . .
26.3(27) . . .
25.3(26) . . .
25.8(27) . . .
28.9(30) . . .
28.0(31) . . .
29.7(30) . . .
29.0(28) . . .
29.3(28) . . .
24.0(27) . . .
27.2(28) . . .
26.5(26) . . .
36.2(32) . . .
31.1(29) . . .
27.6(29) . . .
30.2(32) . . .
31.8(32) . . .
36.3(32) . . .
32.0(30) . . .
28.6(29) . . .
35.8(33) . . .
34.2(30) . . .
26.5(27) . . .
31.5(29) . . .
32.3(30) . . .
28.8(28) . . .
33.7(31) . . .
28.5(28) . . .
37.0(32) . . .
23.3(25) . . .
29.4(30) . . .
23.5(25) . . .
28.1(27) . . .
31.3(31) . . .
25.6(26) . . .
33.0(35) . . .
31.0(30) . . .
32.4(30) . . .
31.5(30) . . .
30.1(30) . . .
38.5(35) . . .
33.7(30) . . .
31.8(30) . . .
20.7(24) . . .
29.5(33) . . .
28.0(31) . . .
34.4(31) . . .
38.9(33) . . .
32.3(33) . . .
36.0(33) . . .
28.5(28) . . .
22.8(25) . . .
26.9(27) . . .
32.2(30) . . .
26.8(29) . . .
27.1(29) . . .
26.3(27) . . .
27.9(27) . . .
34.9(32) . . .
33.6(33) . . .
31.7(31) . . .
27.9(28) . . .
19.4(23) . . .
24.9(28) . . .
31.5(33) . . .
21.4(26) . . .
23.9(26) . . .
35.3(31) . . .
33.6(31) . . .
30.2(30) . . .
31.5(30) . . .
42.6(34) . . .
23.2(25) . . .
31.5(30) . . .
33.4(32) . . .
32.9(31) . . .
35.3(31) . . .
31.4(29) . . .
30.4(29) . . .
32.0(31) . . .
31.3(31) . . .
32.6(29) . . .
34.8(32) . . .
28.3(30) . . .
25.7(28) . . .
28.1(28) . . .
38.3(33) . . .
30.4(29) . . .
27.3(28) . . .
30.3(31) . . .
28.6(28) . . .
36.5(31) . . .
29.9(29) . . .
34.3(32) . . .
32.3(31) . . .
30.0(28) . . .
44.1(35) . . .
34.4(31) . . .
37.3(33) . . .
27.7(27) . . .
29.5(30) . . .
36.8(31) . . .
33.6(30) . . .
29.0(29) . . .
26.0(28) . . .
35.5(32) . . .
23.6(25) . . .
27.9(29) . . .
32.7(33) . . .
28.8(28) . . .
32.8(30) . . .
30.5(29) . . .
25.2(26) . . .
30.9(31) . . .
28.0(28) . . .
31.3(29) . . .
29.6(28) . . .
34.9(31) . . .
33.1(31) . . .
27.3(27) . . .
33.2(30) . . .
28.3(28) . . .
28.8(29) . . .
23.7(26) . . .
22.5(28) . . .
36.3(32) . . .
33.1(30) . . .
34.1(31) . . .
25.8(27) . . .
25.6(28) . . .
22.0(25) . . .
36.4(32) . . .
28.0(28) . . .
27.9(30) . . .
26.8(28) . . .
34.0(30) . . .
29.6(29) . . .
26.0(27) . . .
31.3(31) . . .
27.2(27) . . .
34.0(31) . . .
33.4(31) . . .
33.6(32) . . .
23.2(26) . . .
27.9(28) . . .
25.8(27) . . .
41.7(34) . . .
30.6(31) . . .
35.2(32) . . .
29.3(28) . . .
28.1(28) . . .
31.8(30) . . .
32.7(32) . . .
23.1(26) . . .
28.8(29) . . .
19.1(24) . . .
30.5(30) . . .
35.8(34) . . .
31.6(30) . . .
26.2(27) . . .
29.8(28) . . .
34.7(31) . . .
28.7(30) . . .
25.9(27) . . .
32.1(30) . . .
23.9(27) . . .
29.6(31) . . .
26.1(29) . . .
29.7(31) . . .
31.4(29) . . .
33.7(30) . . .
35.0(31) . . .
34.3(32) . . .
26.8(28) . . .
36.3(32) . . .
26.1(27) . . .
26.2(27) . . .
29.4(31) . . .
24.4(29) . . .
27.7(27) . . .
32.6(30) . . .
33.0(31) . . .
29.5(29) . . .
31.9(31) . . .
22.1(25) . . .
29.0(29) . . .
24.6(26) . . .
21.0(23) . . .
30.1(29) . . .
34.5(31) . . .
35.5(32) . . .
38.1(34) . . .
29.5(29) . . .
29.2(29) . . .
27.8(27) . . .
34.3(32) . . .
32.3(33) . . .
30.2(29) . . .
39.8(33) . . .
30.6(29) . . .
26.2(27) . . .
38(4) . . .
34.9(31) . . .
31.1(30) . . .
28.4(28) . . .
26.9(28) . . .
25.0(27) . . .
32.8(30) . . .
37.2(32) . . .
32.6(29) . . .
40.7(34) . . .
33.7(33) . . .
34.7(31) . . .
29.0(30) . . .
37.7(32) . . .
30.5(29) . . .
29.5(30) . . .
38.4(35) . . .
31.9(30) . . .
29.2(28) . . .
27.9(30) . . .
32.0(31) . . .
36.9(33) . . .
34.0(31) . . .
34.6(31) . . .
28.6(31) . . .
33.8(35) . . .
33.3(31) . . .
37.8(32) . . .
32.9(31) . . .
28.8(28) . . .
38(4) . . .
33.1(30) . . .
37.0(32) . . .
27.0(27) . . .
38(4) . . .
23.1(25) . . .
35.5(32) . . .
34.8(31) . . .
30.9(30) . . .
31.7(30) . . .
30.7(29) . . .
28.1(28) . . .
36.2(31) . . .
33.3(30) . . .
39.1(33) . . .
39.6(34) . . .
27.3(28) . . .
35.2(31) . . .
34.4(32) . . .
29.9(31) . . .
26.5(29) . . .
25.7(27) . . .
29.8(28) . . .
32.5(31) . . .
33.9(31) . . .
33.5(31) . . .
33.3(31) . . .
32.0(30) . . .
26.8(28) . . .
21.6(24) . . .
30.5(31) . . .
32.5(30) . . .
37.1(31) . . .
39.3(34) . . .
30.6(31) . . .
26.6(26) . . .
21.6(25) . . .
31.3(29) . . .
35.0(33) . . .
34.3(33) . . .
30.4(29) . . .
26.0(26) . . .
27.5(27) . . .
27.2(28) . . .
30.0(29) . . .
23.4(26) . . .
26.2(27) . . .
31.9(29) . . .
29.0(29) . . .
33.8(32) . . .
29.5(29) . . .
28.1(28) . . .
33.7(30) . . .
28.3(27) . . .
28.6(28) . . .
31.1(29) . . .
40.0(33) . . .
27.8(27) . . .
34.8(31) . . .
29.9(29) . . .
26.8(29) . . .
34.0(31) . . .
36.8(34) . . .
30.3(29) . . .
39.2(35) . . .
30.0(29) . . .
36.4(32) . . .
29.6(30) . . .
25.7(27) . . .
37.1(31) . . .
35.8(31) . . .
24.7(26) . . .
30.5(30) . . .
25.1(27) . . .
33.5(31) . . .
30.8(29) . . .
33.4(30) . . .
34.2(32) . . .
28.3(28) . . .
26.9(28) . . .
34.5(32) . . .
33.4(31) . . .
38.9(33) . . .
32.3(29) . . .
34.9(31) . . .
36.4(32) . . .
34.6(30) . . .
29.2(30) . . .
26.8(28) . . .
32.5(29) . . .
25.4(26) . . .
32.9(30) . . .
35.5(31) . . .
26.0(29) . . .
29.2(30) . . .
27.4(28) . . .
29.4(30) . . .
29.6(30) . . .
32.8(31) . . .
28.6(29) . . .
37.8(33) . . .
28.7(29) . . .
25.4(27) . . .
27.9(29) . . .
23.3(25) . . .
27.1(28) . . .
31.3(29) . . .
29.8(29) . . .
26.8(28) . . .
31.9(31) . . .
29.3(29) . . .
32.4(32) . . .
26.4(29) . . .
30.0(30) . . .
30.5(29) . . .
27.8(27) . . .
35.3(33) . . .
42(4) . . .
33.4(30) . . .
36.8(32) . . .
37.0(32) . . .
40.8(34) . . .
34.4(32) . . .
33.6(31) . . .
29.4(28) . . .
32.3(30) . . .
28.1(29) . . .
32.4(33) . . .
31.1(31) . . .
25.1(26) . . .
28.5(29) . . .
25.7(29) . . .
30.7(30) . . .
29.9(30) . . .
24.1(25) . . .
25.7(27) . . .
31.8(30) . . .
26.1(27) . . .
29.9(29) . . .
33.2(30) . . .
35.9(31) . . .
32.9(31) . . .
24.2(26) . . .
24.4(27) . . .
33.5(30) . . .
32.6(30) . . .
32.1(31) . . .
27.1(29) . . .
30.1(29) . . .
33.8(31) . . .
29.9(28) . . .
29.5(29) . . .
36.4(33) . . .
29.1(29) . . .
29.6(28) . . .
35.0(31) . . .
31.3(32) . . .
31.9(32) . . .
34.2(32) . . .
28.6(27) . . .
29.2(29) . . .
30.3(30) . . .
31.9(31) . . .
25.8(26) . . .
32.7(30) . . .
28.0(27) . . .
31.6(31) . . .
34.8(32) . . .
31.0(31) . . .
37.0(32) . . .
42.3(35) . . .
26.9(30) . . .
24.8(27) . . .
28.4(28) . . .
23.1(25) . . .
28.9(30) . . .
28.8(31) . . .
33.3(33) . . .
31.8(29) . . .
35.9(32) . . .
26.5(27) . . .
38.6(34) . . .
28.6(28) . . .
34.1(31) . . .
36.0(31) . . .
29.1(28) . . .
29.0(29) . . .
31.3(30) . . .
33.3(30) . . .
28.0(28) . . .
33.3(31) . . .
24.4(26) . . .
23.9(26) . . .
37.1(31) . . .
24.9(27) . . .
27.3(27) . . .
38(4) . . .
28.1(27) . . .
32.1(29) . . .
26.3(28) . . .
25.2(29) . . .
31.5(31) . . .
30.1(29) . . .
29.4(28) . . .
26.1(28) . . .
29.6(28) . . .
29.7(30) . . .
25.1(28) . . .
27.3(28) . . .
29.2(29) . . .
30.8(30) . . .
39(4) . . .
35.1(32) . . .
32.2(30) . . .
27.1(29) . . .
22.2(27) . . .
33.2(31) . . .
34.8(30) . . .
28.5(28) . . .
38.3(34) . . .
39(4) . . .
30.4(29) . . .
32.9(30) . . .
41.4(33) . . .
32.2(32) . . .
29.3(33) . . .
31.3(31) . . .
41.0(34) . . .
31.5(29) . . .
32.4(31) . . .
37(4) . . .
27.0(27) . . .
30.2(28) . . .
28.7(28) . . .
23.9(27) . . .
21.5(25) . . .
25.6(26) . . .
30.1(28) . . .
29.1(28) . . .
27.5(28) . . .
30.8(33) . . .
23.7(26) . . .
24.9(27) . . .
22.7(25) . . .
25.0(25) . . .
33.2(32) . . .
35.1(31) . . .
32.1(30) . . .
33.6(31) . . .
36.5(32) . . .
23.6(24) . . .
28.0(28) . . .
27.2(27) . . .
27.6(28) . . .
27.5(28) . . .
28.8(29) . . .
34.0(32) . . .
28.2(28) . . .
30.2(30) . . .
30.8(29) . . .
26.9(28) . . .
26.5(28) . . .
24.0(26) . . .
20.0(24) . . .
25.9(28) . . .
28.6(30) . . .
31.1(30) . . .
29.2(28) . . .
27.5(28) . . .
31.5(31) . . .
27.1(29) . . .
29.7(30) . . .
33.6(30) . . .
32.9(32) . . .
30.4(29) . . .
35.0(33) . . .
29.4(30) . . .
33.3(30) . . .
32.7(32) . . .
30.4(30) . . .
35.9(35) . . .
35.4(31) . . .
35.0(31) . . .
35.3(31) . . .
33.2(33) . . .
35.4(32) . . .
31.0(29) . . .
28.0(28) . . .
37.0(33) . . .
45(4) . . .
29.7(31) . . .
29.4(28) . . .
26.4(27) . . .
31.3(31) . . .
36.9(34) . . .
35.9(32) . . .
43.2(34) . . .
32.3(30) . . .
38.0(33) . . .
27.7(27) . . .
31.7(31) . . .
31.9(30) . . .
31.1(29) . . .
33.2(31) . . .
39(4) . . .
36.4(35) . . .
29.7(30) . . .
31.2(30) . . .
35.4(32) . . .
29.9(30) . . .
36.6(33) . . .
32.7(30) . . .
34.9(31) . . .
30.1(29) . . .
31.9(30) . . .
26.8(28) . . .
26.7(26) . . .
30.6(28) . . .
34.9(32) . . .
32.9(32) . . .
27.3(29) . . .
27.9(28) . . .
30.5(30) . . .
34.6(32) . . .
32.9(32) . . .
30.5(30) . . .
28.6(28) . . .
32.6(31) . . .
29.6(29) . . .
26.8(28) . . .
38.1(33) . . .
42.3(34) . . .
31.7(33) . . .
28.1(28) . . .
29.2(32) . . .
29.3(29) . . .
33.9(31) . . .
26.3(28) . . .
35.5(32) . . .
34.3(30) . . .
34.0(30) . . .
32.0(29) . . .
41(4) . . .
31.6(29) . . .
31.0(30) . . .
24.1(25) . . .
34.2(31) . . .
25.8(27) . . .
34.3(34) . . .
21.4(24) . . .
34.9(31) . . .
34.5(31) . . .
33.4(31) . . .
33.7(32) . . .
27.0(29) . . .
27.1(29) . . .
24.2(25) . . .
34.4(33) . . .
28.9(31) . . .
26.6(28) . . .
25.1(27) . . .
26.8(29) . . .
30.0(30) . . .
30.2(30) . . .
31.6(30) . . .
29.9(29) . . .
26.3(27) . . .
23.1(26) . . .
28.0(28) . . .
23.2(26) . . .
28.9(28) . . .
21.8(24) . . .
30.7(31) . . .
33.9(32) . . .
31.6(31) . . .
25.8(26) . . .
30.2(32) . . .
32.0(31) . . .
39(4) . . .
37.1(31) . . .
37.4(31) . . .
36.2(33) . . .
34.4(33) . . .
26.8(28) . . .
28.0(28) . . .
28.1(28) . . .
39(4) . . .
39(4) . . .
37.1(34) . . .
29.9(28) . . .
25.9(26) . . .
28.1(29) . . .
31.6(34) . . .
30.8(32) . . .
31.7(29) . . .
27.5(27) . . .
34.8(32) . . .
35.1(34) . . .
31.6(31) . . .
30.1(30) . . .
38.3(32) . . .
30.1(29) . . .
27.4(29) . . .
32.1(30) . . .
31.1(29) . . .
24.8(28) . . .
32.5(31) . . .
30.0(30) . . .
31.9(31) . . .
37.3(32) . . .
25.8(26) . . .
30.6(31) . . .
32.9(32) . . .
30.9(29) . . .
35.0(31) . . .
33.9(32) . . .
20.5(25) . . .
32.4(31) . . .
32.5(30) . . .
33.0(30) . . .
32.7(30) . . .
31.8(30) . . .
31.1(30) . . .
28.6(28) . . .
31.9(29) . . .
38.6(34) . . .
30.0(30) . . .
24.9(30) . . .
27.0(28) . . .
28.9(28) . . .
31.6(31) . . .
24.5(26) . . .
30.9(30) . . .
34.5(31) . . .
29.5(28) . . .
31.2(31) . . .
30.5(31) . . .
28.8(28) . . .
32.0(29) . . .
38.3(32) . . .
37.8(34) . . .
26.3(29) . . .
25.7(28) . . .
30.7(30) . . .
40.2(33) . . .
35.9(33) . . .
34.2(32) . . .
38.2(35) . . .
27.7(28) . . .
32.6(30) . . .
28.4(28) . . .
27.1(29) . . .
29.2(31) . . .
30.8(29) . . .
27.2(29) . . .
37.6(34) . . .
32.9(31) . . .
26.6(31) . . .
26.5(27) . . .
38.0(33) . . .
34.7(34) . . .
26.4(29) . . .
31.1(30) . . .
30.6(29) . . .
25.8(26) . . .
23.5(25) . . .
29.8(30) . . .
29.4(29) . . .
32.3(30) . . .
32.5(30) . . .
36.1(34) . . .
35.2(33) . . .
35.9(33) . . .
38.3(32) . . .
19.1(24) . . .
25.3(30) . . .
29.6(29) . . .
34.3(32) . . .
31.4(29) . . .
29.5(29) . . .
37(4) . . .
27.1(27) . . .
33.7(30) . . .
32.2(30) . . .
34.7(31) . . .
26.1(27) . . .
25.3(26) . . .
37.2(33) . . .
29.3(29) . . .
34.5(33) . . .
31.2(31) . . .
31.3(30) . . .
28.7(28) . . .
31.4(30) . . .
28.3(30) . . .
27.8(31) . . .
23.9(26) . . .
34.5(31) . . .
24.7(27) . . .
29.5(29) . . .
34.5(33) . . .
40.4(34) . . .
26.0(27) . . .
23.8(27) . . .
28.9(30) . . .
33.5(32) . . .
28.9(28) . . .
31.8(30) . . .
31.9(31) . . .
37.1(34) . . .
30.3(30) . . .
25.9(28) . . .
26.0(26) . . .
26.8(28) . . .
32.6(32) . . .
32.2(34) . . .
34.0(33) . . .
27.5(27) . . .
29.6(29) . . .
35.1(32) . . .
39.6(34) . . .
37.0(31) . . .
33.5(30) . . .
32.2(33) . . .
32.7(34) . . .
25.6(27) . . .
29.0(30) . . .
27.3(28) . . .
24.0(28) . . .
27.9(28) . . .
28.5(29) . . .
32.2(29) . . .
28.0(27) . . .
40.8(35) . . .
25.2(28) . . .
25.7(28) . . .
29.4(29) . . .
35.0(31) . . .
25.8(27) . . .
24.9(28) . . .
25.9(27) . . .
30.6(30) . . .
20.7(23) . . .
32.3(30) . . .
37.2(35) . . .
32.0(29) . . .
37.9(32) . . .
31.5(29) . . .
34.3(31) . . .
33.9(32) . . .
41(4) . . .
25.9(27) . . .
33.0(31) . . .
33.2(31) . . .
34.6(33) . . .
34.2(31) . . .
25.5(27) . . .
38.4(33) . . .
34.0(31) . . .
27.5(27) . . .
31.3(30) . . .
33.6(30) . . .
32.4(30) . . .
30.5(30) . . .
28.2(30) . . .
31.6(31) . . .
36.9(32) . . .
31.7(30) . . .
29.1(30) . . .
25.7(29) . . .
22.3(24) . . .
33.3(30) . . .
29.3(29) . . .
40(4) . . .
34.5(32) . . .
24.3(26) . . .
31.3(29) . . .
32.1(30) . . .
25.2(26) . . .
22.4(26) . . .
35.8(32) . . .
27.3(27) . . .
35.3(32) . . .
37.1(34) . . .
34.1(31) . . .
34.0(30) . . .
29.0(28) . . .
33.0(31) . . .
32.3(32) . . .
35.8(33) . . .
35.2(31) . . .
28.0(27) . . .
35.6(32) . . .
33.8(33) . . .
29.2(30) . . .
32.3(31) . . .
27.1(27) . . .
23.1(27) . . .
38(4) . . .
37.7(34) . . .
25.6(27) . . .
32.3(30) . . .
24.3(27) . . .
24.2(28) . . .
21.4(24) . . .
25.6(26) . . .
31.5(31) . . .
38.7(34) . . .
33.2(31) . . .
33.3(31) . . .
33.9(30) . . .
26.9(27) . . .
23.9(25) . . .
25.9(29) . . .
24.9(27) . . .
28.9(28) . . .
32.6(32) . . .
32.5(33) . . .
29.7(30) . . .
30.6(29) . . .
28.8(28) . . .
28.8(29) . . .
25.7(28) . . .
36.8(34) . . .
32.5(30) . . .
28.4(29) . . .
29.0(31) . . .
25.2(26) . . .
35.7(31) . . .
28.1(27) . . .
27.5(28) . . .
26.3(28) . . .
26.0(26) . . .
33.9(32) . . .
43(4) . . .
38.5(32) . . .
24.8(28) . . .
24.8(30) . . .
27.3(28) . . .
25.3(26) . . .
33.4(31) . . .
28.9(28) . . .
30.0(30) . . .
33.2(31) . . .
24.0(26) . . .
21.7(24) . . .
27.1(28) . . .
27.3(29) . . .
33.9(31) . . .
22.1(25) . . .
24.0(26) . . .
24.9(25) . . .
33.7(33) . . .
24.1(28) . . .
29.5(28) . . .
22.5(25) . . .
32.0(30) . . .
29.9(29) . . .
29.0(28) . . .
38.8(32) . . .
29.5(29) . . .
25.0(26) . . .
22.4(25) . . .
28.8(29) . . .
32.0(29) . . .
33.5(31) . . .
29.4(32) . . .
24.9(27) . . .
30.6(30) . . .
35.8(31) . . .
27.8(29) . . .
23.0(25) . . .
32.8(34) . . .
28.4(28) . . .
28.3(28) . . .
23.4(27) . . .
21.8(25) . . .
25.7(27) . . .
32.3(30) . . .
22.5(25) . . .
29.4(31) . . .
34.8(34) . . .
32.0(30) . . .
34.0(30) . . .
24.6(26) . . .
24.4(25) . . .
29.6(31) . . .
18.9(22) . . .
20.9(25) . . .
23.3(25) . . .
32.1(31) . . .
29.6(31) . . .
36.3(33) . . .
31.9(30) . . .
30.0(28) . . .
32.1(31) . . .
24.1(26) . . .
30.0(29) . . .
29.2(29) . . .
35.6(31) . . .
35.3(32) . . .
29.5(31) . . .
21.4(24) . . .
28.3(27) . . .
29.1(28) . . .
28.4(28) . . .
33.0(32) . . .
29.5(28) . . .
35.1(31) . . .
28.5(28) . . .
33.0(30) . . .
38.0(33) . . .
32.0(29) . . .
35.3(32) . . .
32.8(31) . . .
27.5(29) . . .
26.0(26) . . .
27.5(29) . . .
28.2(28) . . .
25.2(27) . . .
31.4(32) . . .
27.0(28) . . .
22.1(24) . . .
29.3(28) . . .
30.1(31) . . .
22.1(24) . . .
27.0(28) . . .
30.9(29) . . .
31.5(29) . . .
23.8(27) . . .
28.5(29) . . .
28.6(27) . . .
29.3(28) . . .
30.3(29) . . .
21.9(26) . . .
25.0(30) . . .
23.2(27) . . .
39.4(34) . . .
24.8(26) . . .
32.4(31) . . .
34.0(34) . . .
32.0(31) . . .
33.4(31) . . .
27.0(27) . . .
27.7(27) . . .
31.1(31) . . .
27.6(28) . . .
27.2(28) . . .
26.1(28) . . .
28.0(28) . . .
27.5(28) . . .
28.5(29) . . .
30.4(29) . . .
34.1(31) . . .
34.2(33) . . .
31.4(32) . . .
37.1(33) . . .
32.5(31) . . .
22.1(24) . . .
26.0(28) . . .
27.4(30) . . .
24.3(26) . . .
30.7(29) . . .
30.8(31) . . .
28.8(29) . . .
26.0(27) . . .
29.2(31) . . .
20.3(24) . . .
34.0(32) . . .
28.2(28) . . .
34.2(32) . . .
25.0(26) . . .
32.2(29) . . .
32(4) . . .
27.6(30) . . .
30.8(32) . . .
36.2(32) . . .
29.7(28) . . .
33.1(32) . . .
37(4) . . .
28.0(27) . . .
32.3(30) . . .
31.3(29) . . .
29.1(28) . . .
23.4(25) . . .
30.3(30) . . .
28.3(28) . . .
31.8(30) . . .
27.6(29) . . .
30.9(31) . . .
40.5(34) . . .
39.4(32) . . .
29.7(28) . . .
31.9(32) . . .
23.1(26) . . .
30.2(31) . . .
32.0(29) . . .
30.1(28) . . .
31.5(30) . . .
38(4) . . .
30.4(29) . . .
27.6(27) . . .
29.0(29) . . .
23.9(26) . . .
32.2(32) . . .
29.4(29) . . .
26.4(27) . . .
29.1(28) . . .
33.7(30) . . .
30.5(30) . . .
36.4(32) . . .
36.0(31) . . .
28.0(27) . . .
28.5(30) . . .
26.7(28) . . .
27.8(28) . . .
27.5(28) . . .
28.3(28) . . .
27.2(29) . . .
30.1(30) . . .
26.3(26) . . .
29.2(28) . . .
23.5(26) . . .
32.5(32) . . .
30.5(32) . . .
30.7(29) . . .
36.2(31) . . .
27.4(29) . . .
31.0(32) . . .
32.2(31) . . .
26.8(27) . . .
25.2(26) . . .
29.8(29) . . .
33.8(31) . . .
25.2(27) . . .
23.9(26) . . .
28.1(27) . . .
28.6(29) . . .
24.7(28) . . .
25.4(26) . . .
33.0(30) . . .
31.6(30) . . .
30.3(29) . . .
36.1(35) . . .
24.6(26) . . .
33.9(30) . . .
26.7(28) . . .
32.9(31) . . .
23.6(24) . . .
34.1(31) . . .
29.3(29) . . .
30.2(29) . . .
33.2(32) . . .
38.8(33) . . .
29.4(28) . . .
29.0(28) . . .
30.4(30) . . .
32.9(33) . . .
33.6(32) . . .
29.1(29) . . .
25.3(26) . . .
24.0(26) . . .
29.3(29) . . .
28.0(29) . . .
31.4(30) . . .
26.8(27) . . .
23.0(28) . . .
24.0(27) . . .
35.7(33) . . .
34.8(32) . . .
31.3(29) . . .
29.4(30) . . .
32.8(30) . . .
29.2(29) . . .
23.0(26) . . .
27.1(27) . . .
29.5(31) . . .
28.8(29) . . .
27.6(29) . . .
37.3(32) . . .
32.5(29) . . .
28.6(34) . . .
30.4(31) . . .
35.6(34) . . .
21.8(24) . . .
29.3(29) . . .
36.0(33) . . .
37(4) . . .
26.6(27) . . .
30.0(28) . . .
30.8(29) . . .
28.0(28) . . .
29.2(31) . . .
34.6(31) . . .
32.0(30) . . .
25.9(26) . . .
26.7(27) . . .
27.3(29) . . .
28.5(32) . . .
21.9(24) . . .
26.9(27) . . .
32.1(33) . . .
28.2(30) . . .
33.8(34) . . .
28.1(28) . . .
32.0(29) . . .
22.6(27) . . .
33.8(35) . . .
34.1(33) . . .
34.4(31) . . .
27.6(27) . . .
34.0(32) . . .
32.8(31) . . .
30.5(28) . . .
31.2(30) . . .
24.9(27) . . .
34.7(32) . . .
25.6(27) . . .
24.8(27) . . .
30.4(29) . . .
32.7(31) . . .
28.7(29) . . .
28.5(29) . . .
29.2(28) . . .
30.1(29) . . .
31.4(31) . . .
19.4(22) . . .
28.6(29) . . .
27.0(27) . . .
21.3(24) . . .
25.4(26) . . .
28.8(29) . . .
33.7(31) . . .
35.5(31) . . .
31.9(29) . . .
31.9(31) . . .
32.3(33) . . .
27.1(27) . . .
30.6(28) . . .
27.2(28) . . .
29.3(28) . . .
29.6(31) . . .
26.4(31) . . .
26.9(28) . . .
32.6(31) . . .
36.0(32) . . .
30.8(29) . . .
30.3(31) . . .
25.1(27) . . .
29.8(28) . . .
31.2(30) . . .
28.0(29) . . .
28.9(29) . . .
27.7(28) . . .
30.5(29) . . .
23.4(26) . . .
24.9(27) . . .
26.0(27) . . .
30.2(29) . . .
23.6(26) . . .
19.3(23) . . .
31.2(32) . . .
30.8(29) . . .
30.2(29) . . .
31.2(30) . . .
31.3(29) . . .
33.2(29) . . .
44(4) . . .
27.6(27) . . .
30.1(29) . . .
31.1(30) . . .
25.1(27) . . .
38.3(34) . . .
32.5(30) . . .
25.4(27) . . .
33.7(33) . . .
28.2(30) . . .
22.7(25) . . .
29.5(29) . . .
15.8(21) . . .
30.9(35) . . .
32.7(31) . . .
28.2(27) . . .
24.7(26) . . .
37.4(34) . . .
33.7(31) . . .
38.3(33) . . .
33.4(31) . . .
28.8(28) . . .
29.9(28) . . .
30.5(28) . . .
29.2(28) . . .
28.3(28) . . .
29.2(29) . . .
31.0(30) . . .
28.3(30) . . .
38.0(34) . . .
31.8(29) . . .
29.7(29) . . .
29.7(29) . . .
34.0(32) . . .
33.1(32) . . .
27.7(27) . . .
28.7(28) . . .
34.3(31) . . .
36.2(33) . . .
30.5(30) . . .
29.7(28) . . .
28.7(30) . . .
26.9(27) . . .
41(4) . . .
32.7(30) . . .
33.5(30) . . .
31.0(31) . . .
29.6(29) . . .
30.0(30) . . .
28.5(32) . . .
35.2(31) . . .
38.1(34) . . .
30.7(33) . . .
25.6(28) . . .
28.4(29) . . .
31.5(30) . . .
30.0(30) . . .
30.1(31) . . .
19.7(25) . . .
22.4(25) . . .
29.7(28) . . .
23.6(26) . . .
21.1(27) . . .
25.6(27) . . .
28.5(28) . . .
33.2(30) . . .
27.9(28) . . .
21.1(23) . . .
30.0(29) . . .
32.2(30) . . .
35.0(31) . . .
32.7(33) . . .
27.8(30) . . .
28.5(30) . . .
33.2(30) . . .
27.5(27) . . .
26.4(27) . . .
28.3(29) . . .
31.8(30) . . .
32.8(30) . . .
30.4(28) . . .
36.0(32) . . .
28.3(28) . . .
33.8(32) . . .
23.3(26) . . .
25.5(27) . . .
21.8(24) . . .
30.0(30) . . .
35.5(32) . . .
23.4(26) . . .
30.5(29) . . .
26.4(28) . . .
27.7(28) . . .
32.9(31) . . .
30.4(29) . . .
24.8(26) . . .
23.2(27) . . .
25.6(29) . . .
29.8(32) . . .
22.7(26) . . .
26.0(28) . . .
33.1(32) . . .
30.5(31) . . .
28.3(29) . . .
32.7(30) . . .
24.9(26) . . .
22.4(25) . . .
29.4(29) . . .
37.3(33) . . .
31.6(29) . . .
39.2(34) . . .
31.3(31) . . .
24.3(25) . . .
26.9(27) . . .
29.1(28) . . .
28.1(28) . . .
31.2(31) . . .
30.4(30) . . .
30.9(29) . . .
28.7(28) . . .
28.6(28) . . .
29.6(30) . . .
33.5(33) . . .
31.8(29) . . .
31.4(29) . . .
40.2(33) . . .
28.9(29) . . .
26.4(27) . . .
28.0(27) . . .
38.0(33) . . .
30.8(31) . . .
24.0(26) . . .
29.5(30) . . .
22.4(25) . . .
31.6(29) . . .
29.6(28) . . .
32.2(31) . . .
36.1(31) . . .
27.0(27) . . .
26.5(28) . . .
30.6(29) . . .
27.5(27) . . .
24.2(26) . . .
26.1(27) . . .
26.0(27) . . .
31.5(30) . . .
31.8(30) . . .
27.8(28) . . .
23.7(26) . . .
33.5(30) . . .
36.8(34) . . .
26.0(28) . . .
26.0(27) . . .
29.6(28) . . .
33.5(31) . . .
23.4(26) . . .
23.9(29) . . .
38.3(34) . . .
37.2(32) . . .
32.6(32) . . .
26.1(29) . . .
28.0(29) . . .
37.1(33) . . .
31.4(29) . . .
29.9(30) . . .
30.7(29) . . .
30.1(28) . . .
30.7(29) . . .
26.5(26) . . .
28.1(27) . . .
29.4(29) . . .
31.4(30) . . .
30.9(29) . . .
28.9(29) . . .
21.5(25) . . .
26.6(30) . . .
31.3(32) . . .
28.8(29) . . .
25.9(27) . . .
36.0(32) . . .
31.9(32) . . .
24.4(26) . . .
30.9(29) . . .
29.1(28) . . .
27.3(27) . . .
33.5(32) . . .
36.6(31) . . .
31.5(29) . . .
29.2(29) . . .
30.2(31) . . .
32.7(32) . . .
32.8(31) . . .
31.8(29) . . .
39.3(34) . . .
28.3(29) . . .
29.5(28) . . .
29.8(29) . . .
33.5(30) . . .
33.4(30) . . .
32.2(31) . . .
30.8(29) . . .
34.1(31) . . .
29.0(28) . . .
30.1(30) . . .
29.0(30) . . .
27.1(28) . . .
26.7(29) . . .
31.5(29) . . .
26.8(29) . . .
33.3(33) . . .
26.6(28) . . .
36.0(32) . . .
37.1(32) . . .
36.9(33) . . .
35.0(33) . . .
28.0(29) . . .
25.7(26) . . .
30.4(29) . . .
25.5(27) . . .
26.2(29) . . .
34.9(34) . . .
23.9(26) . . .
27.5(27) . . .
22.7(24) . . .
27.2(28) . . .
31.6(30) . . .
25.4(26) . . .
26.5(27) . . .
29.1(29) . . .
35.8(35) . . .
28.1(28) . . .
28.4(28) . . .
29.2(28) . . .
28.8(30) . . .
33.2(32) . . .
30.0(29) . . .
40.6(33) . . .
27.8(27) . . .
40(4) . . .
32.7(32) . . .
26.5(28) . . .
25.8(27) . . .
22.8(25) . . .
30.6(31) . . .
33.1(33) . . .
32.1(30) . . .
34.4(31) . . .
30.5(29) . . .
28.3(28) . . .
27.6(28) . . .
32.8(31) . . .
29.1(28) . . .
28.3(30) . . .
25.7(28) . . .
32.0(32) . . .
30.3(30) . . .
25.8(27) . . .
23.5(26) . . .
27.9(28) . . .
35.6(32) . . .
34.4(30) . . .
36.7(32) . . .
27.3(28) . . .
32.6(33) . . .
28.5(29) . . .
30.6(29) . . .
33.1(30) . . .
30.3(28) . . .
37.0(34) . . .
31.7(31) . . .
27.2(27) . . .
34.2(31) . . .
28.6(29) . . .
26.3(28) . . .
32.4(30) . . .
27.2(27) . . .
27.0(28) . . .
31.1(30) . . .
27.9(28) . . .
36.7(32) . . .
26.5(27) . . .
27.4(27) . . .
23.0(25) . . .
20.0(23) . . .
34.3(34) . . .
30.8(29) . . .
31.6(29) . . .
35.8(33) . . .
25.5(28) . . .
29.4(31) . . .
40.1(33) . . .
26.8(27) . . .
26.6(28) . . .
32.2(32) . . .
25.7(28) . . .
24.1(25) . . .
36.0(33) . . .
31.4(29) . . .
29.0(28) . . .
31.9(31) . . .
30.1(28) . . .
21.0(25) . . .
28.4(30) . . .
28.3(28) . . .
34.8(31) . . .
33.3(30) . . .
29.1(29) . . .
25.7(29) . . .
26.9(27) . . .
32.1(31) . . .
32.9(30) . . .
29.7(31) . . .
20.7(26) . . .
24.1(28) . . .
27.9(27) . . .
27.4(27) . . .
33.3(31) . . .
22.4(24) . . .
38(4) . . .
35.7(32) . . .
36.7(32) . . .
27.7(27) . . .
32.8(33) . . .
33.6(30) . . .
23.9(26) . . .
33.4(30) . . .
35.0(34) . . .
25.6(27) . . .
24.3(26) . . .
32.0(29) . . .
35.9(31) . . .
30.7(29) . . .
32.9(33) . . .
37.1(33) . . .
29.3(29) . . .
32.5(29) . . .
36.5(32) . . .
29.4(30) . . .
30.4(30) . . .
28.0(28) . . .
29.0(29) . . .
25.2(27) . . .
22.8(26) . . .
29.2(29) . . .
41.6(34) . . .
21.0(24) . . .
26.4(28) . . .
30.6(31) . . .
27.1(27) . . .
31.3(30) . . .
38.3(33) . . .
21.1(25) . . .
31.7(32) . . .
28.3(28) . . .
28.9(29) . . .
31.1(32) . . .
27.9(30) . . .
26.1(28) . . .
27.2(27) . . .
38.8(33) . . .
38.5(33) . . .
32.5(32) . . .
26.6(29) . . .
26.5(28) . . .
28.0(28) . . .
20.8(25) . . .
31.0(31) . . .
35.0(32) . . .
27.3(27) . . .
31.8(29) . . .
26.0(27) . . .
30.6(31) . . .
30.7(31) . . .
24.6(26) . . .
28.3(28) . . .
32.8(32) . . .
33.4(33) . . .
43(4) . . .
30.1(28) . . .
31.3(30) . . .
33.2(32) . . .
33.6(33) . . .
22.2(25) . . .
24.5(26) . . .
30.7(29) . . .
32.4(30) . . .
37(4) . . .
30.4(29) . . .
24.5(26) . . .
32.2(30) . . .
34.0(33) . . .
27.4(28) . . .
32.2(33) . . .
26.0(27) . . .
24.5(27) . . .
31.6(31) . . .
26.4(28) . . .
29.7(30) . . .
30.0(28) . . .
32.4(30) . . .
36.9(32) . . .
32.0(30) . . .
25.8(28) . . .
35.6(31) . . .
29.4(30) . . .
28.7(30) . . .
28.1(29) . . .
29.1(29) . . .
19.9(24) . . .
36.9(34) . . .
36.3(33) . . .
26.7(29) . . .
29.8(29) . . .
28.5(28) . . .
35.1(35) . . .
38(4) . . .
29.3(28) . . .
31.6(29) . . .
29.0(28) . . .
30.4(31) . . .
25.8(30) . . .
25.6(28) . . .
30.3(29) . . .
26.9(27) . . .
36.5(31) . . .
25.8(29) . . .
26.1(27) . . .
38.4(33) . . .
31.7(29) . . .
26.3(27) . . .
30.8(31) . . .
31.5(31) . . .
34.3(31) . . .
35.0(30) . . .
29.6(28) . . .
30.5(32) . . .
22.9(26) . . .
29.1(28) . . .
39.1(33) . . .
30.3(30) . . .
27.1(27) . . .
24.5(28) . . .
29.3(28) . . .
30.5(28) . . .
30.6(28) . . .
32.5(30) . . .
30.6(29) . . .
33.4(30) . . .
34.3(30) . . .
28.8(28) . . .
34.1(31) . . .
28.9(29) . . .
30.8(29) . . .
28.9(29) . . .
27.8(29) . . .
28.8(30) . . .
23.2(27) . . .
29.5(28) . . .
38.5(34) . . .
34.8(34) . . .
30.3(29) . . .
32.6(30) . . .
26.5(27) . . .
31.4(30) . . .
17.6(23) . . .
29.6(30) . . .
30.7(30) . . .
26.9(27) . . .
29.5(32) . . .
31.6(31) . . .
34.0(31) . . .
21.6(24) . . .
29.7(28) . . .
30.9(29) . . .
23.0(27) . . .
29.4(31) . . .
21.2(24) . . .
34.2(31) . . .
29.3(29) . . .
28.6(31) . . .
33.6(31) . . .
26.5(27) . . .
21.0(24) . . .
34.8(32) . . .
31.3(31) . . .
31.2(29) . . .
33.1(30) . . .
30.1(28) . . .
28.6(28) . . .
28.9(29) . . .
31.9(32) . . .
33.5(30) . . .
30.6(31) . . .
25.7(26) . . .
24.5(25) . . .
29.9(30) . . .
35.1(31) . . .
33.6(31) . . .
29.6(32) . . .
23.5(27) . . .
22.1(25) . . .
30.9(29) . . .
31.1(30) . . .
27.7(29) . . .
29.9(29) . . .
36.2(33) . . .
24.3(26) . . .
25.5(26) . . .
30.4(30) . . .
31.7(31) . . .
28.6(28) . . .
33.3(30) . . .
28.9(30) . . .
25.7(29) . . .
29.5(30) . . .
28.4(28) . . .
36.6(31) . . .
38.5(32) . . .
32.4(30) . . .
35.6(33) . . .
37.0(33) . . .
34.0(30) . . .
27.7(28) . . .
26.0(28) . . .
34.7(32) . . .
34.7(30) . . .
25.8(27) . . .
29.0(29) . . .
26.8(30) . . .
27.6(29) . . .
28.1(27) . . .
31.3(30) . . .
27.3(27) . . .
30.4(31) . . .
25.4(26) . . .
30.6(29) . . .
33.4(32) . . .
32.7(32) . . .
30.8(31) . . .
30.1(29) . . .
35.3(31) . . .
30.6(28) . . .
31.7(31) . . .
21.5(25) . . .
22.6(25) . . .
29.5(29) . . .
23.8(25) . . .
36.6(34) . . .
30.1(31) . . .
29.9(29) . . .
34.5(31) . . .
33.2(31) . . .
26.9(28) . . .
30.3(30) . . .
37.8(34) . . .
30.5(30) . . .
34.4(33) . . .
30.8(31) . . .
33.0(32) . . .
29.3(28) . . .
27.9(27) . . .
28.2(28) . . .
29.6(29) . . .
28.2(27) . . .
30.6(29) . . .
26.3(27) . . .
32.9(33) . . .
28.6(30) . . .
30.2(31) . . .
27.1(28) . . .
29.3(28) . . .
27.8(28) . . .
23.8(26) . . .
28.8(30) . . .
27.5(27) . . .
32.6(30) . . .
38.3(33) . . .
33.2(33) . . .
36.4(33) . . .
38.9(33) . . .
29.6(28) . . .
28.1(29) . . .
38(4) . . .
33.1(32) . . .
23.6(25) . . .
20.8(24) . . .
26.7(27) . . .
40(4) . . .
29.3(29) . . .
27.7(27) . . .
31.1(29) . . .
35.2(33) . . .
31.2(30) . . .
30.0(29) . . .
27.2(28) . . .
27.1(28) . . .
25.3(30) . . .
26.8(30) . . .
36.4(32) . . .
27.6(27) . . .
28.3(29) . . .
32.2(30) . . .
28.2(29) . . .
30.3(28) . . .
29.3(29) . . .
25.6(27) . . .
29.5(30) . . .
28.4(29) . . .
28.7(28) . . .
30.2(29) . . .
26.7(26) . . .
31.1(31) . . .
29.2(29) . . .
26.4(27) . . .
25.6(26) . . .
32.3(31) . . .
30.6(31) . . .
28.5(27) . . .
31.1(29) . . .
39.3(33) . . .
34.0(31) . . .
25.2(27) . . .
36.2(32) . . .
23.4(25) . . .
25.2(27) . . .
23.0(28) . . .
22.7(28) . . .
29.6(30) . . .
24.6(26) . . .
30.0(28) . . .
30.4(30) . . .
27.5(30) . . .
31.3(32) . . .
29.8(30) . . .
29.9(29) . . .
27.8(28) . . .
28.4(28) . . .
35.7(32) . . .
26.0(27) . . .
38.7(33) . . .
33.7(30) . . .
35.1(31) . . .
31.6(29) . . .
31.4(29) . . .
27.5(27) . . .
23.4(26) . . .
22.9(27) . . .
31.5(32) . . .
30.5(29) . . .
27.6(27) . . .
32.5(29) . . .
25.2(25) . . .
30.5(30) . . .
25.4(26) . . .
33.8(32) . . .
28.9(28) . . .
23.0(25) . . .
29.0(29) . . .
36.4(32) . . .
28.9(29) . . .
23.4(25) . . .
32.8(30) . . .
22.7(26) . . .
21.6(24) . . .
26.1(27) . . .
31.7(33) . . .
35(4) . . .
31.2(30) . . .
32.0(29) . . .
24.7(26) . . .
32.4(35) . . .
29.9(29) . . .
25.9(26) . . .
33.7(31) . . .
33.9(32) . . .
33.8(34) . . .
30.9(31) . . .
39.3(32) . . .
31.0(29) . . .
27.2(29) . . .
29.0(30) . . .
25.7(28) . . .
31.2(31) . . .
29.3(28) . . .
30.0(30) . . .
31.2(30) . . .
27.7(29) . . .
32.3(30) . . .
29.4(29) . . .
30.2(33) . . .
32.5(32) . . .
31.4(31) . . .
42.0(35) . . .
30.5(29) . . .
33.1(32) . . .
24.9(30) . . .
34.6(32) . . .
34.8(31) . . .
32.1(30) . . .
32.8(31) . . .
31.1(30) . . .
21.5(24) . . .
38.2(32) . . .
28.9(30) . . .
27.4(29) . . .
29.3(29) . . .
32.3(31) . . .
28.5(28) . . .
33.3(31) . . .
30.2(29) . . .
30.5(30) . . .
24.6(26) . . .
26.9(27) . . .
32.8(32) . . .
24.6(26) . . .
28.5(29) . . .
25.9(27) . . .
36.1(32) . . .
27.1(30) . . .
30.4(32) . . .
38.7(34) . . .
30.6(29) . . .
33.2(31) . . .
36.3(32) . . .
27.3(27) . . .
34.5(33) . . .
29.7(29) . . .
32.6(30) . . .
24.5(25) . . .
27.0(29) . . .
23.5(26) . . .
32.1(29) . . .
28.9(29) . . .
23.8(25) . . .
29.9(31) . . .
31.6(31) . . .
24.0(25) . . .
21.7(24) . . .
28.5(29) . . .
34.1(33) . . .
26.9(28) . . .
36.2(31) . . .
34.2(30) . . .
29.4(30) . . .
27.5(28) . . .
32.9(32) . . .
27.9(27) . . .
26.8(27) . . .
31.5(31) . . .
26.6(28) . . .
24.9(26) . . .
28.4(28) . . .
31.6(30) . . .
30.8(30) . . .
26.5(27) . . .
25.1(26) . . .
27.1(27) . . .
35.5(31) . . .
36.2(34) . . .
31.1(31) . . .
33.0(30) . . .
32.2(30) . . .
35.2(35) . . .
31.7(31) . . .
38.7(34) . . .
32.9(31) . . .
38.3(32) . . .
26.8(27) . . .
46(4) . . .
31.6(32) . . .
27.0(27) . . .
25.9(26) . . .
24.9(26) . . .
34.4(34) . . .
32.6(32) . . .
24.5(26) . . .
25.2(27) . . .
31.0(30) . . .
23.3(27) . . .
32.1(33) . . .
30.6(31) . . .
31.9(29) . . .
38.8(33) . . .
30.6(32) . . .
27.1(28) . . .
27.8(28) . . .
27.1(27) . . .
25.9(29) . . .
27.2(27) . . .
30.4(29) . . .
35.1(30) . . .
33.4(30) . . .
34.8(35) . . .
22.0(25) . . .
33.0(33) . . .
26.3(27) . . .
26.6(26) . . .
29.5(28) . . .
27.5(28) . . .
30.1(30) . . .
30.1(28) . . .
26.2(28) . . .
27.0(28) . . .
38.0(34) . . .
25.3(28) . . .
31.5(29) . . .
27.6(28) . . .
24.6(26) . . .
30.8(29) . . .
26.2(27) . . .
27.1(27) . . .
25.2(28) . . .
24.5(29) . . .
32.6(31) . . .
36.0(31) . . .
32.2(30) . . .
32.5(30) . . .
30.9(29) . . .
32.4(32) . . .
22.4(26) . . .
35.8(31) . . .
34.1(31) . . .
31.4(31) . . .
30.2(30) . . .
28.2(29) . . .
40.5(33) . . .
22.7(25) . . .
26.6(28) . . .
29.7(29) . . .
34.0(31) . . .
28.9(28) . . .
30.9(31) . . .
23.0(27) . . .
29.4(29) . . .
32.5(30) . . .
34.7(31) . . .
31.5(30) . . .
34.4(33) . . .
27.4(27) . . .
26.2(27) . . .
25.6(27) . . .
33.4(34) . . .
28.9(32) . . .
30.5(31) . . .
29.0(28) . . .
39.1(33) . . .
29.6(29) . . .
28.0(28) . . .
31.2(30) . . .
29.7(29) . . .
29.1(29) . . .
32.0(31) . . .
28.6(29) . . .
30.0(29) . . .
35.8(32) . . .
25.7(28) . . .
27.8(31) . . .
29.6(30) . . .
29.0(29) . . .
28.5(28) . . .
29.1(30) . . .
23.8(26) . . .
26.2(28) . . .
33.5(30) . . .
38.5(32) . . .
25.0(26) . . .
30.7(32) . . .
34.7(34) . . .
26.5(27) . . .
28.9(28) . . .
23.3(26) . . .
32.7(32) . . .
32.0(32) . . .
30.2(29) . . .
28.3(28) . . .
27.4(28) . . .
27.2(27) . . .
30.5(29) . . .
33.5(30) . . .
33.3(29) . . .
24.3(25) . . .
29.8(33) . . .
28.4(30) . . .
40.3(33) . . .
28.6(28) . . .
27.5(28) . . .
26.0(28) . . .
31.3(31) . . .
29.0(28) . . .
33.4(30) . . .
34.5(33) . . .
27.9(28) . . .
29.4(30) . . .
22.8(25) . . .
26.0(27) . . .
22.1(26) . . .
31.5(32) . . .
29.8(30) . . .
31.9(30) . . .
27.4(28) . . .
23.3(26) . . .
32.3(33) . . .
30.2(29) . . .
37.8(32) . . .
35.9(32) . . .
28.5(27) . . .
31.4(31) . . .
42(4) . . .
27.9(28) . . .
25.7(27) . . .
28.8(29) . . .
36.6(32) . . .
35.5(32) . . .
25.8(28) . . .
29.7(30) . . .
27.5(28) . . .
30.6(29) . . .
28.0(27) . . .
22.9(25) . . .
22.9(25) . . .
26.7(29) . . .
18.7(23) . . .
30.0(30) . . .
29.4(28) . . .
27.0(27) . . .
31.4(30) . . .
31.4(29) . . .
28.1(28) . . .
36.3(32) . . .
29.1(28) . . .
31.2(31) . . .
29.5(31) . . .
26.4(27) . . .
32.2(30) . . .
27.1(27) . . .
29.9(30) . . .
30.1(29) . . .
21.0(24) . . .
33.6(31) . . .
28.3(28) . . .
25.1(28) . . .
22.9(25) . . .
27.0(26) . . .
30.9(30) . . .
34.4(32) . . .
32.3(32) . . .
24.7(29) . . .
32.9(30) . . .
33.9(30) . . .
33.2(32) . . .
26.7(28) . . .
25.3(27) . . .
38.1(32) . . .
30.0(28) . . .
24.6(25) . . .
21.3(23) . . .
30.2(28) . . .
35.8(31) . . .
32.6(31) . . .
36.2(34) . . .
29.0(29) . . .
35.5(31) . . .
33.6(30) . . .
30.9(29) . . .
36.2(34) . . .
28.6(29) . . .
33.4(31) . . .
30.2(28) . . .
25.6(26) . . .
34.7(33) . . .
29.1(27) . . .
29.2(28) . . .
29.5(28) . . .
29.8(28) . . .
29.1(30) . . .
32.9(30) . . .
26.3(27) . . .
32.1(30) . . .
29.6(30) . . .
29.4(29) . . .
30.2(31) . . .
26.7(27) . . .
28.3(27) . . .
29.3(32) . . .
29.4(30) . . .
27.1(30) . . .
31.0(28) . . .
27.6(27) . . .
30.0(29) . . .
28.5(31) . . .
26.8(28) . . .
26.5(27) . . .
34.5(31) . . .
29.5(31) . . .
23.1(30) . . .
28.0(31) . . .
29.5(28) . . .
29.1(28) . . .
27.6(27) . . .
30.4(31) . . .
25.5(27) . . .
22.7(25) . . .
27.1(28) . . .
26.5(29) . . .
25.4(26) . . .
37.6(33) . . .
30.4(29) . . .
31.4(30) . . .
25.0(28) . . .
36.3(35) . . .
28.3(28) . . .
31.1(29) . . .
28.4(28) . . .
38.2(32) . . .
36.9(33) . . .
27.6(28) . . .
37.6(32) . . .
28.9(30) . . .
29.8(32) . . .
31.5(30) . . .
32.4(30) . . .
30.4(29) . . .
39(4) . . .
32.3(32) . . .
26.3(31) . . .
28.9(29) . . .
25.2(27) . . .
31.4(29) . . .
25.2(27) . . .
25.1(27) . . .
31.0(29) . . .
29.4(29) . . .
22.2(26) . . .
27.8(31) . . .
34.1(32) . . .
27.0(27) . . .
27.7(27) . . .
26.6(27) . . .
22.5(26) . . .
24.4(27) . . .
26.8(27) . . .
25.7(27) . . .
33.2(30) . . .
29.6(28) . . .
29.5(29) . . .
30.4(28) . . .
26.3(28) . . .
28.3(29) . . .
29.3(29) . . .
30.1(29) . . .
29.7(28) . . .
29.8(28) . . .
32.5(30) . . .
28.3(29) . . .
27.5(28) . . .
29.8(29) . . .
30.6(30) . . .
31.7(30) . . .
25.8(26) . . .
29.6(30) . . .
26.1(26) . . .
25.2(27) . . .
23.0(27) . . .
23.7(28) . . .
36.5(31) . . .
40.5(33) . . .
34.4(32) . . .
35.9(34) . . .
36.2(31) . . .
29.1(29) . . .
24.2(26) . . .
28.2(27) . . .
30.1(29) . . .
27.1(27) . . .
26.8(28) . . .
30.6(28) . . .
25.0(27) . . .
32.2(32) . . .
29.2(28) . . .
22.6(25) . . .
30.6(29) . . .
24.6(26) . . .
33.8(32) . . .
30.3(30) . . .
26.2(27) . . .
34.5(32) . . .
31.1(29) . . .
29.0(30) . . .
26.2(27) . . .
29.5(29) . . .
26.1(27) . . .
26.2(29) . . .
35(4) . . .
28.2(28) . . .
34.2(30) . . .
34.3(32) . . .
29.0(29) . . .
28.3(32) . . .
31.1(31) . . .
32.6(30) . . .
27.3(27) . . .
31.0(30) . . .
27.9(28) . . .
28.6(29) . . .
25.4(25) . . .
28.6(29) . . .
25.1(27) . . .
19.6(23) . . .
33.3(32) . . .
29.8(28) . . .
27.9(29) . . .
32.4(32) . . .
24.2(26) . . .
23.7(25) . . .
26.3(27) . . .
35.9(33) . . .
32.6(33) . . .
26.0(27) . . .
27.0(28) . . .
28.1(28) . . .
28.2(28) . . .
25.7(27) . . .
32.7(31) . . .
32.1(29) . . .
35.8(32) . . .
29.9(29) . . .
27.4(31) . . .
26.7(27) . . .
27.6(27) . . .
32.6(30) . . .
28.4(30) . . .
23.5(28) . . .
32.0(31) . . .
32.9(30) . . .
30.1(28) . . .
28.3(28) . . .
32.3(33) . . .
31.4(30) . . .
30.6(29) . . .
28.0(28) . . .
27.8(29) . . .
29.6(31) . . .
34.1(32) . . .
25.5(27) . . .
40.7(34) . . .
26.1(27) . . .
27.0(28) . . .
38.3(34) . . .
28.4(28) . . .
32.2(30) . . .
24.1(26) . . .
29.9(30) . . .
32.3(30) . . .
23.4(25) . . .
24.2(25) . . .
27.7(29) . . .
26.0(28) . . .
25.3(26) . . .
30.6(30) . . .
30.4(29) . . .
30.2(30) . . .
30.9(30) . . .
27.1(28) . . .
26.8(27) . . .
24.7(26) . . .
25.6(28) . . .
28.3(29) . . .
28.5(29) . . .
31.6(30) . . .
32.3(31) . . .
29.5(29) . . .
25.9(28) . . .
31.0(29) . . .
34.9(31) . . .
26.3(29) . . .
26.0(28) . . .
29.4(30) . . .
29.4(28) . . .
27.7(29) . . .
35.6(33) . . .
23.3(25) . . .
32.1(30) . . .
26.3(26) . . .
28.9(28) . . .
30.8(29) . . .
29.6(32) . . .
27.8(30) . . .
29.6(28) . . .
25.5(27) . . .
31.6(32) . . .
25.0(28) . . .
29.2(31) . . .
25.9(28) . . .
33.4(30) . . .
32.7(32) . . .
24.1(27) . . .
23.9(26) . . .
35.9(32) . . .
24.5(26) . . .
27.1(28) . . .
34.7(32) . . .
34.3(31) . . .
26.9(27) . . .
22.7(25) . . .
30.8(30) . . .
29.0(29) . . .
31.3(29) . . .
21.6(25) . . .
25.1(27) . . .
28.6(30) . . .
23.2(25) . . .
28.7(28) . . .
27.3(26) . . .
32.1(31) . . .
31.1(30) . . .
32.9(31) . . .
27.0(27) . . .
26.7(27) . . .
27.6(30) . . .
24.5(27) . . .
33.8(32) . . .
28.3(29) . . .
32.2(30) . . .
32.2(30) . . .
33.5(32) . . .
34.5(31) . . .
31.0(29) . . .
27.9(28) . . .
25.0(26) . . .
36.4(32) . . .
37.9(33) . . .
33.9(30) . . .
33.7(30) . . .
30.6(29) . . .
26.8(27) . . .
28.0(28) . . .
25.7(26) . . .
31.9(29) . . .
31.0(30) . . .
28.2(29) . . .
25.1(28) . . .
34.2(30) . . .
23.6(25) . . .
23.6(27) . . .
24.9(28) . . .
27.8(28) . . .
25.4(26) . . .
26.5(27) . . .
32.2(30) . . .
36.3(34) . . .
33.4(33) . . .
30.0(29) . . .
25.2(28) . . .
29.2(29) . . .
29.1(29) . . .
27.4(27) . . .
26.1(27) . . .
30.1(29) . . .
29.9(30) . . .
30.5(30) . . .
27.9(30) . . .
30.4(29) . . .
35.4(32) . . .
34.0(32) . . .
25.8(28) . . .
24.3(26) . . .
33.2(30) . . .
31.4(31) . . .
31.3(33) . . .
27.0(29) . . .
28.8(28) . . .
26.4(27) . . .
33.2(30) . . .
29.0(31) . . .
26.9(29) . . .
30.0(29) . . .
27.3(27) . . .
30.8(30) . . .
26.0(29) . . .
30.0(28) . . .
24.3(26) . . .
23.1(25) . . .
26.0(28) . . .
24.3(28) . . .
20.6(24) . . .
31.9(30) . . .
28.1(29) . . .
31.1(31) . . .
28.1(31) . . .
31.8(31) . . .
27.6(28) . . .
28.5(28) . . .
31.5(32) . . .
26.0(29) . . .
30.5(30) . . .
22.7(25) . . .
37.1(32) . . .
30.7(29) . . .
34.0(33) . . .
24.7(26) . . .
33.8(31) . . .
31.9(30) . . .
34.4(32) . . .
34.5(32) . . .
29.5(29) . . .
32.3(30) . . .
28.9(29) . . .
27.9(29) . . .
24.2(28) . . .
28.8(28) . . .
34.3(31) . . .
25.3(26) . . .
27.7(29) . . .
27.8(28) . . .
23.9(28) . . .
25.8(27) . . .
31.7(30) . . .
28.8(29) . . .
29.9(29) . . .
29.8(28) . . .
25.0(26) . . .
24.6(26) . . .
26.8(28) . . .
29.5(32) . . .
26.0(26) . . .
27.2(27) . . .
31.8(30) . . .
34.1(33) . . .
39.5(35) . . .
23.4(25) . . .
24.6(26) . . .
31.6(30) . . .
28.9(31) . . .
19.9(24) . . .
29.8(28) . . .
33.1(32) . . .
25.6(28) . . .
30.5(31) . . .
30.7(29) . . .
27.6(28) . . .
20.2(25) . . .
31.6(31) . . .
32.2(34) . . .
30.8(29) . . .
28.1(28) . . .
29.9(30) . . .
28.5(28) . . .
26.6(28) . . .
25.0(26) . . .
28.4(27) . . .
31.6(29) . . .
27.3(29) . . .
32.3(31) . . .
30.4(30) . . .
27.2(27) . . .
28.8(28) . . .
27.9(28) . . .
33.5(32) . . .
28.5(28) . . .
26.6(26) . . .
25.4(27) . . .
32.6(31) . . .
28.2(29) . . .
28.5(30) . . .
32.9(30) . . .
28.1(28) . . .
30.3(30) . . .
27.8(26) . . .
32.8(30) . . .
32.2(29) . . .
28.8(29) . . .
33.6(32) . . .
27.1(27) . . .
34.4(30) . . .
28.9(28) . . .
29.5(30) . . .
33.9(32) . . .
30.2(29) . . .
33.5(30) . . .
29.8(28) . . .
29.9(30) . . .
25.9(28) . . .
31.8(33) . . .
29.5(30) . . .
25.3(26) . . .
34.8(31) . . .
35.2(31) . . .
27.9(28) . . .
31.4(29) . . .
32.0(30) . . .
29.5(29) . . .
28.1(29) . . .
29.4(29) . . .
21.5(24) . . .
22.7(25) . . .
31.5(31) . . .
30.0(29) . . .
29.5(30) . . .
30.9(29) . . .
33.3(30) . . .
20.2(23) . . .
28.5(31) . . .
27.2(29) . . .
31.0(30) . . .
24.2(26) . . .
29.6(32) . . .
30.5(30) . . .
31.0(30) . . .
33.4(30) . . .
31.8(30) . . .
29.4(28) . . .
29.2(29) . . .
31.9(30) . . .
26.8(27) . . .
30.6(30) . . .
27.8(31) . . .
21.0(25) . . .
33.3(32) . . .
32.2(31) . . .
26.6(28) . . .
26.1(29) . . .
27.6(29) . . .
26.7(27) . . .
27.1(27) . . .
26.5(27) . . .
24.8(26) . . .
31.1(29) . . .
26.9(28) . . .
30.1(28) . . .
31.3(31) . . .
30.0(31) . . .
23.4(26) . . .
27.8(28) . . .
29.4(27) . . .
33.3(30) . . .
41(4) . . .
32.1(32) . . .
29.1(29) . . .
27.0(28) . . .
31.1(31) . . .
35.5(34) . . .
31.2(31) . . .
30.3(28) . . .
33.9(30) . . .
34.5(31) . . .
30.5(29) . . .
22.9(24) . . .
23.1(25) . . .
31.8(30) . . .
27.3(29) . . .
28.5(29) . . .
27.3(27) . . .
27.8(27) . . .
25.6(27) . . .
31.0(31) . . .
29.9(30) . . .
25.2(26) . . .
34.0(30) . . .
34.4(32) . . .
23.4(25) . . .
28.0(29) . . .
29.9(29) . . .
25.5(26) . . .
27.1(27) . . .
32.7(30) . . .
36.0(32) . . .
30.7(30) . . .
24.7(26) . . .
24.1(26) . . .
33.7(32) . . .
27.3(29) . . .
31.4(30) . . .
28.8(28) . . .
30.2(30) . . .
27.8(28) . . .
28.8(30) . . .
30.9(30) . . .
23.3(25) . . .
29.1(30) . . .
28.4(29) . . .
30.2(29) . . .
26.3(26) . . .
28.2(30) . . .
36.4(33) . . .
30.6(31) . . .
33.1(31) . . .
29.7(28) . . .
30.4(29) . . .
20.8(24) . . .
29.8(31) . . .
24.2(27) . . .
27.8(27) . . .
27.7(27) . . .
25.0(27) . . .
30.7(31) . . .
24.4(26) . . .
29.9(28) . . .
26.1(29) . . .
20.3(24) . . .
31.5(32) . . .
23.0(26) . . .
32.6(30) . . .
29.2(28) . . .
25.9(27) . . .
28.2(29) . . .
25.6(26) . . .
24.0(27) . . .
27.9(27) . . .
38.2(35) . . .
27.5(26) . . .
30.4(31) . . .
32.8(30) . . .
23.8(25) . . .
26.5(28) . . .
31.2(30) . . .
31.5(30) . . .
25.3(26) . . .
27.4(30) . . .
23.5(27) . . .
20.8(24) . . .
30.9(29) . . .
29.6(28) . . .
33.9(32) . . .
31.7(31) . . .
25.9(27) . . .
28.5(28) . . .
26.7(28) . . .
34.4(32) . . .
33.8(32) . . .
30.8(29) . . .
30.8(30) . . .
25.0(27) . . .
31.5(30) . . .
31.0(31) . . .
27.2(28) . . .
30.0(29) . . .
23.1(29) . . .
28.0(30) . . .
26.3(28) . . .
25.2(26) . . .
25.0(27) . . .
32.1(31) . . .
24.5(26) . . .
31.4(31) . . .
37.6(33) . . .
35.6(30) . . .
27.4(28) . . .
29.2(29) . . .
27.5(30) . . .
23.4(26) . . .
29.2(29) . . .
36.6(32) . . .
33.5(33) . . .
29.2(31) . . .
31.1(29) . . .
34.1(31) . . .
27.4(28) . . .
29.9(31) . . .
28.0(28) . . .
31.5(31) . . .
30.0(28) . . .
30.0(29) . . .
37.0(33) . . .
30.6(31) . . .
31.9(31) . . .
31.8(29) . . .
31.3(29) . . .
35.8(33) . . .
31.0(30) . . .
29.2(28) . . .
25.8(26) . . .
24.5(27) . . .
25.5(27) . . .
35.4(34) . . .
28.3(28) . . .
32.0(30) . . .
26.5(26) . . .
27.7(30) . . .
25.0(26) . . .
32.9(30) . . .
39.6(32) . . .
34.5(30) . . .
31.1(29) . . .
26.4(27) . . .
22.5(25) . . .
36.1(31) . . .
26.9(27) . . .
25.5(27) . . .
35.1(33) . . .
28.2(28) . . .
27.2(27) . . .
25.7(26) . . .
29.7(30) . . .
27.8(28) . . .
22.5(25) . . .
27.5(27) . . .
26.0(27) . . .
29.6(29) . . .
28.9(28) . . .
21.0(24) . . .
27.7(27) . . .
35.4(33) . . .
26.7(27) . . .
29.6(29) . . .
25.9(27) . . .
38.6(33) . . .
35.4(32) . . .
30.1(29) . . .
29.9(30) . . .
18.5(23) . . .
27.5(30) . . .
27.9(28) . . .
27.3(28) . . .
24.3(26) . . .
30.7(29) . . .
30.6(30) . . .
39(4) . . .
38.4(33) . . .
30.2(29) . . .
30.6(29) . . .
24.6(27) . . .
25.6(26) . . .
29.9(29) . . .
29.1(29) . . .
23.0(25) . . .
34.8(33) . . .
35.1(33) . . .
35.4(33) . . .
20.6(24) . . .
29.2(28) . . .
30.9(30) . . .
31.3(33) . . .
24.8(27) . . .
32.4(30) . . .
23.1(25) . . .
32.1(32) . . .
29.8(30) . . .
32.4(30) . . .
28.0(27) . . .
31.9(29) . . .
29.7(29) . . .
31.2(32) . . .
32.3(32) . . .
22.4(25) . . .
29.8(30) . . .
31.9(32) . . .
26.9(28) . . .
27.0(29) . . .
27.7(28) . . .
29.6(29) . . .
27.4(26) . . .
26.9(28) . . .
36.1(34) . . .
27.8(28) . . .
26.5(27) . . .
31.4(32) . . .
33.7(32) . . .
23.0(25) . . .
28.3(28) . . .
29.4(29) . . .
25.3(25) . . .
31.6(31) . . .
26.9(29) . . .
30.1(29) . . .
29.3(30) . . .
24.5(28) . . .
29.8(32) . . .
30.4(29) . . .
26.0(26) . . .
21.3(24) . . .
25.3(28) . . .
27.9(31) . . .
25.5(26) . . .
28.7(28) . . .
22.5(26) . . .
26.1(29) . . .
33.5(32) . . .
26.7(28) . . .
30.3(28) . . .
35.7(34) . . .
35.9(33) . . .
28.7(29) . . .
25.0(26) . . .
29.0(29) . . .
24.6(28) . . .
32.6(31) . . .
33.7(32) . . .
29.6(28) . . .
29.7(28) . . .
26.8(28) . . .
26.1(28) . . .
26.9(28) . . .
34.3(31) . . .
28.1(28) . . .
25.7(28) . . .
28.8(29) . . .
27.6(28) . . .
23.0(26) . . .
25.6(26) . . .
25.4(28) . . .
30.6(32) . . .
29.8(30) . . .
35.0(31) . . .
21.7(25) . . .
26.4(29) . . .
27.8(29) . . .
28.8(29) . . .
22.8(27) . . .
26.0(27) . . .
30.6(31) . . .
30.9(33) . . .
28.2(28) . . .
31.3(29) . . .
26.0(27) . . .
24.1(27) . . .
34.3(33) . . .
33.3(31) . . .
28.4(28) . . .
27.3(28) . . .
23.9(26) . . .
30.8(31) . . .
19.4(25) . . .
27.8(27) . . .
37.2(33) . . .
34.0(31) . . .
30.8(30) . . .
32.4(30) . . .
29.3(28) . . .
22.3(24) . . .
27.1(30) . . .
26.2(28) . . .
31.1(29) . . .
25.6(26) . . .
31.2(30) . . .
32.0(32) . . .
23.0(26) . . .
27.1(28) . . .
30.2(28) . . .
27.8(28) . . .
27.6(30) . . .
35.1(34) . . .
29.1(29) . . .
27.4(27) . . .
37.5(34) . . .
22.2(25) . . .
32.8(31) . . .
32.0(30) . . .
30.4(29) . . .
39.0(34) . . .
36.2(34) . . .
26.6(27) . . .
22.6(25) . . .
23.3(26) . . .
27.4(28) . . .
24.9(26) . . .
35.5(32) . . .
27.0(28) . . .
32.0(30) . . .
33.4(32) . . .
32.5(30) . . .
30.0(29) . . .
29.7(28) . . .
20.8(26) . . .
20.0(24) . . .
22.3(24) . . .
31.7(30) . . .
24.8(26) . . .
26.1(27) . . .
22.5(28) . . .
32.3(30) . . .
36.1(35) . . .
31.2(29) . . .
21.6(26) . . .
25.8(29) . . .
30.9(30) . . .
29.0(28) . . .
34.6(31) . . .
29.5(29) . . .
25.4(27) . . .
29.6(30) . . .
31.8(29) . . .
33.0(30) . . .
30.4(32) . . .
36(4) . . .
30.4(30) . . .
37.0(32) . . .
29.9(29) . . .
28.4(30) . . .
30.3(32) . . .
27.3(29) . . .
24.2(26) . . .
28.7(28) . . .
31.0(29) . . .
31.0(31) . . .
29.0(28) . . .
37.8(32) . . .
28.1(28) . . .
29.6(30) . . .
32.9(33) . . .
28.0(28) . . .
29.6(29) . . .
30.3(30) . . .
32.3(31) . . .
20.8(25) . . .
28.4(30) . . .
21.3(24) . . .
24.8(29) . . .
27.0(29) . . .
31.0(31) . . .
31.2(30) . . .
31.8(29) . . .
24.3(26) . . .
26.9(27) . . .
23.5(26) . . .
29.4(31) . . .
34.2(30) . . .
29.6(30) . . .
29.8(29) . . .
37.6(33) . . .
32.6(30) . . .
27.5(27) . . .
27.3(29) . . .
36.4(34) . . .
26.4(27) . . .
33.3(30) . . .
29.9(28) . . .
28.2(28) . . .
26.2(26) . . .
27.0(28) . . .
30.8(29) . . .
38.0(32) . . .
26.2(27) . . .
24.5(26) . . .
28.3(28) . . .
23.9(25) . . .
26.1(27) . . .
31.2(30) . . .
31.3(31) . . .
32.1(30) . . .
33.8(30) . . .
37.0(31) . . .
41(4) . . .
27.1(28) . . .
26.9(27) . . .
24.1(26) . . .
28.5(28) . . .
27.6(28) . . .
28.7(30) . . .
28.8(30) . . .
23.1(25) . . .
28.4(28) . . .
24.9(27) . . .
29.0(29) . . .
32.9(30) . . .
33.3(30) . . .
24.4(26) . . .
27.5(29) . . .
33.7(33) . . .
26.2(28) . . .
31.6(29) . . .
34.5(33) . . .
42(4) . . .
29.4(28) . . .
31.2(29) . . .
30.2(29) . . .
31.7(29) . . .
27.8(28) . . .
31.3(32) . . .
15.2(22) . . .
27.5(27) . . .
31.7(30) . . .
24.5(27) . . .
24.8(28) . . .
30.7(29) . . .
22.0(24) . . .
32.9(32) . . .
32.4(31) . . .
33.0(30) . . .
33.1(30) . . .
29.0(28) . . .
28.1(27) . . .
29.1(28) . . .
30.4(29) . . .
25.0(26) . . .
19.6(23) . . .
25.1(27) . . .
31.7(32) . . .
27.1(27) . . .
32.8(30) . . .
29.5(28) . . .
33.3(31) . . .
29.3(30) . . .
20.2(24) . . .
25.3(26) . . .
26.3(27) . . .
34.1(32) . . .
23.5(25) . . .
22.8(25) . . .
31.7(29) . . .
25.5(26) . . .
25.0(26) . . .
26.4(27) . . .
30.6(32) . . .
25.6(26) . . .
31.8(29) . . .
29.3(29) . . .
26.5(29) . . .
29.5(29) . . .
29.9(29) . . .
26.8(27) . . .
27.5(27) . . .
36.7(33) . . .
32.0(29) . . .
28.5(28) . . .
27.7(28) . . .
27.5(28) . . .
38.5(34) . . .
32.1(32) . . .
28.4(28) . . .
29.6(31) . . .
27.7(30) . . .
31.0(31) . . .
29.9(29) . . .
36.8(31) . . .
30.7(28) . . .
26.2(27) . . .
27.8(31) . . .
20.4(24) . . .
20.0(23) . . .
26.0(27) . . .
27.5(30) . . .
31.3(31) . . .
30.3(29) . . .
26.8(27) . . .
31.1(32) . . .
35(4) . . .
33.5(33) . . .
24.2(26) . . .
28.5(28) . . .
23.5(25) . . .
23.8(26) . . .
27.6(27) . . .
27.4(27) . . .
30.0(30) . . .
29.8(30) . . .
37.4(34) . . .
25.1(27) . . .
25.9(26) . . .
33.8(30) . . .
28.5(28) . . .
30.5(32) . . .
37.5(33) . . .
37.8(32) . . .
31.7(30) . . .
33.0(31) . . .
33.2(33) . . .
34.4(32) . . .
26.8(27) . . .
25.8(26) . . .
29.5(28) . . .
32.3(31) . . .
21.0(25) . . .
31.6(29) . . .
28.3(28) . . .
25.4(28) . . .
22.7(25) . . .
33.6(31) . . .
25.4(26) . . .
32.6(32) . . .
32.1(32) . . .
24.0(27) . . .
26.4(28) . . .
32.2(29) . . .
39(4) . . .
35.1(33) . . .
30.8(29) . . .
29.1(28) . . .
29.4(28) . . .
32.7(30) . . .
37.1(34) . . .
33.3(33) . . .
31.9(30) . . .
28.0(28) . . .
30.8(30) . . .
36(4) . . .
24.5(26) . . .
25.2(26) . . .
28.7(28) . . .
19.2(23) . . .
25.0(30) . . .
30.1(32) . . .
24.5(26) . . .
28.2(28) . . .
31.4(29) . . .
24.9(26) . . .
31.3(32) . . .
31.7(29) . . .
37.8(33) . . .
38.0(33) . . .
29.7(29) . . .
28.9(28) . . .
29.7(29) . . .
27.8(28) . . .
28.7(30) . . .
25.9(29) . . .
27.3(30) . . .
31.0(30) . . .
31.2(30) . . .
31.8(32) . . .
29.1(29) . . .
27.1(28) . . .
29.5(29) . . .
26.3(27) . . .
29.6(29) . . .
32.9(31) . . .
35.6(32) . . .
20.4(24) . . .
32.4(30) . . .
32.0(31) . . .
28.9(28) . . .
29.6(29) . . .
32.6(30) . . .
30.3(29) . . .
36(4) . . .
31.3(31) . . .
29.7(29) . . .
28.0(28) . . .
42.9(34) . . .
30.6(28) . . .
37.7(31) . . .
32.1(30) . . .
38.0(31) . . .
27.8(30) . . .
31.4(32) . . .
21.8(23) . . .
40.7(34) . . .
34.8(31) . . .
33.2(30) . . .
32.6(32) . . .
20.8(24) . . .
23.2(25) . . .
20.8(24) . . .
28.7(29) . . .
22.5(26) . . .
29.7(30) . . .
25.4(26) . . .
31.1(29) . . .
34.2(31) . . .
28.5(28) . . .
30.4(31) . . .
34.0(31) . . .
39.2(32) . . .
34.7(32) . . .
30.0(30) . . .
29.0(31) . . .
23.0(25) . . .
24.6(28) . . .
24.8(26) . . .
27.2(28) . . .
34.3(31) . . .
34.3(31) . . .
23.8(25) . . .
26.2(26) . . .
27.8(30) . . .
27.7(27) . . .
21.6(25) . . .
22.8(26) . . .
30.6(31) . . .
28.5(29) . . .
29.6(29) . . .
28.3(28) . . .
29.6(29) . . .
32.5(32) . . .
30.1(30) . . .
28.3(27) . . .
28.3(29) . . .
29.9(30) . . .
24.9(28) . . .
27.6(31) . . .
34.7(32) . . .
29.1(29) . . .
28.1(29) . . .
40(4) . . .
26.2(27) . . .
34.3(30) . . .
30.0(28) . . .
26.1(26) . . .
23.8(27) . . .
28.0(28) . . .
31.5(30) . . .
22.7(25) . . .
31.4(31) . . .
21.1(25) . . .
20.6(25) . . .
28.5(27) . . .
30.6(29) . . .
32.6(33) . . .
32.0(32) . . .
31.7(30) . . .
25.9(27) . . .
30.5(28) . . .
31.7(29) . . .
30.9(30) . . .
38(4) . . .
26.6(27) . . .
33.6(32) . . .
28.0(29) . . .
25.9(28) . . .
25.4(27) . . .
29.3(29) . . .
28.7(29) . . .
21.7(27) . . .
26.3(29) . . .
22.1(27) . . .
33.5(29) . . .
27.6(28) . . .
29.7(30) . . .
29.5(30) . . .
36.2(35) . . .
37.6(32) . . .
23.8(28) . . .
30.9(32) . . .
32.1(31) . . .
32.5(31) . . .
30.1(29) . . .
30.1(29) . . .
24.4(26) . . .
34.0(32) . . .
29.3(29) . . .
25.3(26) . . .
36.5(33) . . .
30.0(30) . . .
23.3(26) . . .
31.8(31) . . .
30.0(28) . . .
30.5(29) . . .
37(4) . . .
28.1(29) . . .
27.8(28) . . .
28.1(28) . . .
33.6(32) . . .
32.3(31) . . .
29.0(29) . . .
31.5(30) . . .
25.2(26) . . .
32.4(33) . . .
27.8(29) . . .
31.9(30) . . .
36.5(32) . . .
38.0(32) . . .
30.1(29) . . .
29.5(30) . . .
35.0(33) . . .
27.8(27) . . .
31.8(33) . . .
27.7(28) . . .
29.0(28) . . .
33.6(31) . . .
31.1(29) . . .
26.1(26) . . .
26.5(27) . . .
28.9(29) . . .
24.0(27) . . .
24.1(26) . . .
31.4(31) . . .
24.6(26) . . .
30.8(30) . . .
25.0(29) . . .
35.9(32) . . .
34.2(30) . . .
27.4(27) . . .
29.6(29) . . .
30.6(28) . . .
31.3(30) . . .
32.5(31) . . .
32.8(34) . . .
33.0(31) . . .
27.6(27) . . .
28.4(27) . . .
33.7(33) . . .
32.2(32) . . .
30.2(30) . . .
21.5(25) . . .
31.8(30) . . .
22.3(28) . . .
27.2(31) . . .
19.7(24) . . .
26.8(28) . . .
30.9(29) . . .
27.3(28) . . .
26.0(29) . . .
28.1(29) . . .
23.4(25) . . .
32.3(30) . . .
28.3(29) . . .
28.1(32) . . .
24.2(27) . . .
28.8(29) . . .
25.3(27) . . .
35.9(35) . . .
25.8(28) . . .
25.1(29) . . .
29.9(29) . . .
30.4(29) . . .
28.4(30) . . .
22.7(26) . . .
24.6(27) . . .
28.6(28) . . .
25.6(26) . . .
24.7(26) . . .
29.0(31) . . .
24.7(28) . . .
24.9(27) . . .
28.4(28) . . .
21.1(24) . . .
36.6(33) . . .
31.9(29) . . .
28.9(28) . . .
25.6(28) . . .
24.5(27) . . .
24.2(28) . . .
32.7(31) . . .
28.2(28) . . .
38.9(33) . . .
30.1(29) . . .
29.4(30) . . .
32.4(30) . . .
29.1(28) . . .
31.7(31) . . .
23.6(26) . . .
28.9(30) . . .
34.3(31) . . .
29.4(29) . . .
25.9(28) . . .
24.3(29) . . .
26.8(28) . . .
29.3(28) . . .
30.2(29) . . .
28.1(28) . . .
24.0(27) . . .
28.3(28) . . .
32.6(30) . . .
27.4(28) . . .
28.3(29) . . .
24.4(28) . . .
24.7(27) . . .
26.9(27) . . .
31.9(30) . . .
22.7(28) . . .
25.3(29) . . .
30.0(31) . . .
29.4(29) . . .
30.8(30) . . .
29.5(29) . . .
34.0(32) . . .
29.0(28) . . .
31.0(29) . . .
31.1(30) . . .
30.9(30) . . .
29.0(31) . . .
28.1(28) . . .
29.3(28) . . .
32.4(31) . . .
29.6(31) . . .
31.6(30) . . .
29.7(28) . . .
30.3(29) . . .
25.9(28) . . .
25.8(29) . . .
28.0(30) . . .
21.4(24) . . .
31.8(29) . . .
30.1(29) . . .
27.0(29) . . .
28.4(30) . . .
29.1(29) . . .
32.5(30) . . .
25.5(27) . . .
27.8(31) . . .
26.4(30) . . .
29.8(28) . . .
23.5(26) . . .
21.4(26) . . .
27.4(27) . . .
32.5(30) . . .
24.6(27) . . .
20.1(23) . . .
28.1(29) . . .
29.3(31) . . .
34.3(32) . . .
30.8(28) . . .
33.9(30) . . .
32.9(32) . . .
25.6(28) . . .
28.4(27) . . .
31.8(30) . . .
24.4(27) . . .
31.0(30) . . .
34.2(32) . . .
29.9(31) . . .
37.5(32) . . .
39.0(33) . . .
32.1(31) . . .
23.2(27) . . .
25.7(27) . . .
24.0(26) . . .
31.3(30) . . .
23.1(25) . . .
35.8(33) . . .
28.8(29) . . .
28.7(28) . . .
33.0(32) . . .
26.5(27) . . .
31.5(31) . . .
25.8(27) . . .
29.0(28) . . .
27.7(27) . . .
24.3(25) . . .
32.0(31) . . .
31.5(30) . . .
33.0(30) . . .
34.7(31) . . .
24.5(25) . . .
30.4(30) . . .
25.9(27) . . .
27.9(27) . . .
31.9(29) . . .
31.1(30) . . .
29.7(30) . . .
32.0(30) . . .
23.5(26) . . .
27.9(28) . . .
27.8(30) . . .
30.0(30) . . .
33.8(30) . . .
34.3(32) . . .
23.2(25) . . .
34.2(34) . . .
35.7(31) . . .
26.4(27) . . .
30.9(29) . . .
31.6(30) . . .
33.5(33) . . .
28.1(28) . . .
26.9(27) . . .
32.1(30) . . .
26.5(27) . . .
29.8(30) . . .
23.9(26) . . .
22.9(25) . . .
29.9(28) . . .
30.9(31) . . .
26.8(31) . . .
34.3(32) . . .
30.7(29) . . .
30.8(29) . . .
32.7(31) . . .
33.5(32) . . .
32.8(31) . . .
28.9(28) . . .
32.0(31) . . .
35.9(34) . . .
30.3(30) . . .
38.3(33) . . .
25.8(27) . . .
32.4(31) . . .
29.3(32) . . .
24.1(28) . . .
21.0(24) . . .
28.4(27) . . .
27.8(29) . . .
31.4(31) . . .
26.1(28) . . .
31.3(30) . . .
34.2(31) . . .
31.3(30) . . .
24.6(28) . . .
23.3(26) . . .
21.9(24) . . .
19.9(23) . . .
22.4(26) . . .
29.4(30) . . .
29.9(30) . . .
24.8(27) . . .
25.5(26) . . .
35.3(31) . . .
34.8(32) . . .
27.6(28) . . .
27.7(28) . . .
23.5(25) . . .
28.4(30) . . .
32.8(32) . . .
34.5(32) . . .
31.5(29) . . .
22.0(25) . . .
30.0(29) . . .
29.1(31) . . .
31.9(30) . . .
29.5(28) . . .
31.5(29) . . .
25.5(27) . . .
28.0(30) . . .
33.7(32) . . .
30.7(29) . . .
28.5(28) . . .
39.6(34) . . .
25.6(25) . . .
28.5(28) . . .
28.7(28) . . .
30.0(29) . . .
28.9(28) . . .
25.2(28) . . .
25.7(28) . . .
31.5(29) . . .
30.0(28) . . .
33.4(31) . . .
32.9(32) . . .
30.5(29) . . .
32.9(31) . . .
35.3(31) . . .
30.3(28) . . .
27.9(28) . . .
34.3(31) . . .
34.8(31) . . .
30.5(30) . . .
31.0(31) . . .
24.7(28) . . .
29.3(28) . . .
27.0(27) . . .
29.3(31) . . .
26.4(29) . . .
18.8(23) . . .
29.9(28) . . .
32.6(30) . . .
33.5(31) . . .
28.2(31) . . .
21.9(26) . . .
22.2(25) . . .
32.1(30) . . .
33.6(33) . . .
23.0(26) . . .
26.6(28) . . .
24.9(26) . . .
29.6(29) . . .
27.7(29) . . .
30.3(31) . . .
36.3(32) . . .
30.1(28) . . .
29.7(30) . . .
27.1(27) . . .
28.7(29) . . .
27.6(27) . . .
36.3(31) . . .
31.9(29) . . .
27.8(27) . . .
31.4(31) . . .
35.9(31) . . .
37.5(32) . . .
27.0(29) . . .
26.4(29) . . .
28.0(30) . . .
33.7(31) . . .
31.9(30) . . .
30.1(29) . . .
24.5(26) . . .
27.7(28) . . .
30.2(29) . . .
27.8(27) . . .
30.6(30) . . .
31.4(31) . . .
28.8(29) . . .
32.3(30) . . .
28.3(28) . . .
27.7(27) . . .
29.2(29) . . .
29.0(28) . . .
27.9(28) . . .
24.2(26) . . .
23.6(25) . . .
32.0(34) . . .
30.7(31) . . .
29.7(30) . . .
25.1(26) . . .
25.4(27) . . .
40(4) . . .
25.8(28) . . .
28.2(29) . . .
35.5(31) . . .
28.4(29) . . .
29.3(31) . . .
28.9(28) . . .
33.5(30) . . .
28.1(27) . . .
23.6(27) . . .
23.5(26) . . .
25.8(27) . . .
30.9(29) . . .
27.6(30) . . .
29.0(30) . . .
30.6(31) . . .
22.8(26) . . .
27.0(27) . . .
23.4(26) . . .
29.9(29) . . .
36.6(33) . . .
30.3(30) . . .
32.8(31) . . .
23.5(26) . . .
26.7(28) . . .
23.6(25) . . .
25.0(26) . . .
29.7(28) . . .
27.7(27) . . .
35.5(33) . . .
28.4(28) . . .
32.5(31) . . .
31.6(29) . . .
23.6(25) . . .
31.0(32) . . .
30.2(30) . . .
39.0(34) . . .
38.8(33) . . .
28.7(27) . . .
33.6(32) . . .
28.6(28) . . .
32.3(30) . . .
30.6(29) . . .
29.9(29) . . .
27.3(28) . . .
25.5(28) . . .
23.0(25) . . .
30.5(29) . . .
27.3(28) . . .
31.1(30) . . .
29.7(29) . . .
29.9(28) . . .
26.8(27) . . .
33.2(32) . . .
31.7(32) . . .
28.2(28) . . .
27.3(28) . . .
24.5(26) . . .
28.8(29) . . .
25.5(26) . . .
23.8(25) . . .
33.2(31) . . .
25.4(26) . . .
27.7(32) . . .
27.3(31) . . .
35.6(33) . . .
37.9(32) . . .
32.6(30) . . .
29.7(28) . . .
29.8(29) . . .
26.2(26) . . .
35.5(31) . . .
25.5(26) . . .
37(4) . . .
27.5(29) . . .
29.8(29) . . .
31.5(30) . . .
32.3(30) . . .
24.4(26) . . .
35.1(33) . . .
30.7(31) . . .
27.2(27) . . .
36.7(33) . . .
32.0(31) . . .
31.1(31) . . .
30.2(30) . . .
23.8(26) . . .
24.3(26) . . .
38(4) . . .
27.2(28) . . .
28.7(29) . . .
29.4(29) . . .
27.0(29) . . .
34.3(34) . . .
26.3(28) . . .
29.0(30) . . .
22.8(25) . . .
27.2(29) . . .
28.2(28) . . .
28.1(27) . . .
27.5(27) . . .
27.7(28) . . .
30.0(30) . . .
35.8(34) . . .
31.4(30) . . .
34.3(30) . . .
34.3(30) . . .
30.7(29) . . .
27.4(29) . . .
25.4(26) . . .
25.9(26) . . .
28.3(29) . . .
28.8(29) . . .
28.4(30) . . .
28.6(28) . . .
31.3(29) . . .
30.9(30) . . .
27.9(28) . . .
24.9(26) . . .
22.8(25) . . .
25.7(26) . . .
34.4(30) . . .
33.0(31) . . .
32.7(33) . . .
30.4(30) . . .
31.9(30) . . .
32.8(30) . . .
28.5(29) . . .
22.3(26) . . .
27.1(27) . . .
32.3(30) . . .
22.2(25) . . .
29.5(30) . . .
29.5(32) . . .
24.4(28) . . .
32.5(30) . . .
24.4(27) . . .
23.5(25) . . .
26.4(29) . . .
25.3(27) . . .
24.1(25) . . .
27.7(29) . . .
29.4(31) . . .
32.1(31) . . .
21.3(26) . . .
30.3(28) . . .
27.2(29) . . .
26.9(27) . . .
31.2(29) . . .
25.3(26) . . .
27.3(27) . . .
33.3(32) . . .
33.3(32) . . .
33.6(31) . . .
35.4(32) . . .
36.1(31) . . .
29.4(29) . . .
25.3(28) . . .
33.5(33) . . .
21.4(24) . . .
28.2(28) . . .
32.8(33) . . .
25.6(29) . . .
36.6(34) . . .
26.2(27) . . .
26.7(28) . . .
30.8(31) . . .
26.4(28) . . .
29.0(30) . . .
26.2(27) . . .
30.5(30) . . .
30.9(31) . . .
32.0(31) . . .
25.8(29) . . .
27.3(27) . . .
22.1(25) . . .
27.7(30) . . .
25.2(27) . . .
36.8(32) . . .
31.0(29) . . .
41.3(34) . . .
31.7(31) . . .
27.0(28) . . .
29.5(31) . . .
35.5(32) . . .
28.4(27) . . .
26.4(27) . . .
25.2(28) . . .
33.6(30) . . .
27.7(28) . . .
33.2(31) . . .
34.4(33) . . .
21.2(22) . . .
33.0(31) . . .
35.6(31) . . .
31.8(29) . . .
31.7(30) . . .
35.4(33) . . .
30.2(30) . . .
27.1(27) . . .
24.0(26) . . .
31.4(32) . . .
27.6(27) . . .
29.4(29) . . .
27.8(28) . . .
29.9(31) . . .
28.2(29) . . .
31.3(30) . . .
27.9(28) . . .
30.5(28) . . .
33.1(32) . . .
28.6(29) . . .
23.1(25) . . .
24.6(26) . . .
43(4) . . .
28.4(29) . . .
26.0(28) . . .
28.7(28) . . .
33.7(31) . . .
38.5(32) . . .
32.0(30) . . .
30.5(31) . . .
28.6(30) . . .
32.4(30) . . .
28.5(28) . . .
25.4(27) . . .
28.1(30) . . .
28.1(28) . . .
36.5(32) . . .
29.9(29) . . .
19.5(22) . . .
30.1(29) . . .
28.1(27) . . .
26.2(27) . . .
28.3(28) . . .
33.2(31) . . .
33.8(31) . . .
27.1(27) . . .
28.7(28) . . .
32.8(31) . . .
30.1(28) . . .
31.2(29) . . .
25.7(26) . . .
29.8(28) . . .
28.5(29) . . .
30.4(30) . . .
29.5(29) . . .
27.7(27) . . .
32.3(29) . . .
27.0(27) . . .
29.9(30) . . .
37.6(35) . . .
32.5(29) . . .
30.1(28) . . .
28.5(29) . . .
19.6(23) . . .
26.1(27) . . .
33.8(30) . . .
24.8(27) . . .
27.4(28) . . .
24.1(28) . . .
20.7(25) . . .
23.0(25) . . .
34.1(33) . . .
28.6(30) . . .
21.0(25) . . .
30.9(30) . . .
23.6(26) . . .
32.7(29) . . .
30.0(28) . . .
32.2(32) . . .
29.3(28) . . .
31.1(29) . . .
31.3(31) . . .
23.7(26) . . .
20.2(23) . . .
27.2(28) . . .
33.9(31) . . .
26.0(27) . . .
32.0(33) . . .
28.9(30) . . .
19.4(24) . . .
27.0(27) . . .
28.5(28) . . .
24.3(26) . . .
29.0(30) . . .
24.8(25) . . .
33.3(30) . . .
26.7(27) . . .
32.1(30) . . .
38.5(34) . . .
30.1(29) . . .
29.2(29) . . .
32.0(32) . . .
34.5(34) . . .
21.0(24) . . .
20.8(23) . . .
34.7(31) . . .
31.8(31) . . .
22.4(27) . . .
30.2(30) . . .
28.0(28) . . .
26.3(27) . . .
31.8(30) . . .
32.9(32) . . .
26.9(28) . . .
20.9(23) . . .
32.0(30) . . .
32.7(31) . . .
22.3(25) . . .
32.3(31) . . .
29.7(29) . . .
27.9(28) . . .
20.3(24) . . .
33.1(31) . . .
33.3(30) . . .
24.7(26) . . .
18.8(22) . . .
28.4(28) . . .
36.0(33) . . .
21.0(24) . . .
23.1(25) . . .
26.5(26) . . .
27.9(28) . . .
29.8(29) . . .
24.4(26) . . .
26.0(26) . . .
34.4(30) . . .
27.2(27) . . .
20.2(23) . . .
29.5(29) . . .
29.8(28) . . .
37.5(32) . . .
32.7(31) . . .
30.5(29) . . .
27.5(27) . . .
25.2(27) . . .
29.9(29) . . .
35.6(34) . . .
29.9(30) . . .
29.1(29) . . .
29.3(28) . . .
20.8(25) . . .
24.8(28) . . .
25.1(25) . . .
34.5(31) . . .
25.0(26) . . .
23.8(27) . . .
35.3(34) . . .
23.4(26) . . .
27.5(27) . . .
31.3(29) . . .
29.8(29) . . .
31.1(31) . . .
29.8(29) . . .
33.5(31) . . .
26.7(27) . . .
29.1(29) . . .
28.7(30) . . .
36.1(33) . . .
26.8(27) . . .
35.6(32) . . .
26.9(28) . . .
25.4(29) . . .
30.5(31) . . .
28.0(28) . . .
28.5(28) . . .
22.4(25) . . .
31.5(31) . . .
29.6(29) . . .
31.8(29) . . .
27.9(28) . . .
30.1(30) . . .
31.0(32) . . .
23.7(27) . . .
32.0(29) . . .
23.6(26) . . .
18.7(24) . . .
25.4(28) . . .
27.5(27) . . .
33.7(30) . . .
32.9(31) . . .
20.4(23) . . .
20.0(25) . . .
29.1(30) . . .
27.0(27) . . .
21.9(26) . . .
27.6(29) . . .
20.9(24) . . .
30.9(30) . . .
31.0(29) . . .
27.7(28) . . .
22.4(25) . . .
29.4(30) . . .
26.8(27) . . .
34.4(30) . . .
31.8(30) . . .
24.8(27) . . .
29.0(29) . . .
30.3(30) . . .
25.8(26) . . .
28.3(29) . . .
25.9(28) . . .
29.2(30) . . .
26.3(27) . . .
21.9(24) . . .
27.4(28) . . .
26.4(28) . . .
31.6(30) . . .
27.3(28) . . .
27.5(28) . . .
26.0(28) . . .
25.5(27) . . .
29.2(28) . . .
30.1(29) . . .
32.2(30) . . .
26.7(28) . . .
23.6(27) . . .
33.6(32) . . .
27.7(27) . . .
25.4(26) . . .
26.4(27) . . .
27.3(29) . . .
27.7(29) . . .
34.6(30) . . .
31.4(31) . . .
24.3(26) . . .
28.2(30) . . .
30.9(30) . . .
25.7(26) . . .
31.1(30) . . .
30.0(30) . . .
28.2(28) . . .
22.3(24) . . .
31.1(29) . . .
32.0(30) . . .
34.5(32) . . .
34.5(32) . . .
35.8(31) . . .
26.7(28) . . .
31.6(30) . . .
23.1(26) . . .
31.8(31) . . .
25.6(26) . . .
25.5(27) . . .
29.1(30) . . .
26.0(28) . . .
30.9(32) . . .
36.2(33) . . .
30.1(29) . . .
32.5(33) . . .
28.7(30) . . .
32.4(32) . . .
28.6(28) . . .
30.9(29) . . .
24.4(26) . . .
27.7(28) . . .
25.2(26) . . .
28.1(28) . . .
24.5(26) . . .
27.2(27) . . .
29.8(30) . . .
25.3(26) . . .
27.4(27) . . .
32.1(30) . . .
32.9(30) . . .
32.7(32) . . .
26.7(28) . . .
26.1(27) . . .
33.2(30) . . .
25.9(28) . . .
28.2(32) . . .
24.7(27) . . .
20.6(23) . . .
27.0(28) . . .
28.7(29) . . .
29.8(30) . . .
29.9(29) . . .
30.1(29) . . .
23.1(25) . . .
30.9(30) . . .
27.5(27) . . .
36.0(33) . . .
26.5(28) . . .
30.4(29) . . .
22.9(26) . . .
25.7(30) . . .
26.1(26) . . .
28.9(29) . . .
33.2(31) . . .
35.0(33) . . .
28.4(29) . . .
30.5(31) . . .
30.3(29) . . .
24.0(25) . . .
29.7(32) . . .
32.6(31) . . .
31.9(30) . . .
23.5(26) . . .
27.7(27) . . .
32.2(31) . . .
26.0(26) . . .
31.5(29) . . .
25.5(27) . . .
25.9(26) . . .
29.0(31) . . .
22.1(27) . . .
28.2(28) . . .
34.0(30) . . .
27.1(29) . . .
23.0(28) . . .
27.5(30) . . .
26.7(26) . . .
25.9(27) . . .
34.3(31) . . .
25.3(28) . . .
29.9(31) . . .
28.2(28) . . .
36.8(31) . . .
32.9(31) . . .
33.8(32) . . .
26.8(26) . . .
34.0(30) . . .
33.7(30) . . .
27.8(28) . . .
22.9(25) . . .
36.8(33) . . .
34.3(31) . . .
29.0(29) . . .
28.6(31) . . .
30.2(30) . . .
30.7(30) . . .
23.5(25) . . .
29.9(29) . . .
27.7(28) . . .
30.9(32) . . .
29.8(29) . . .
30.5(28) . . .
23.2(25) . . .
25.5(27) . . .
28.6(30) . . .
20.7(23) . . .
28.1(28) . . .
30.1(29) . . .
25.3(26) . . .
27.6(27) . . .
31.6(30) . . .
25.5(26) . . .
30.2(30) . . .
27.6(32) . . .
25.8(29) . . .
26.8(27) . . .
29.1(29) . . .
37.1(32) . . .
37.8(34) . . .
26.4(29) . . .
22.1(25) . . .
25.0(26) . . .
31.3(30) . . .
34.5(34) . . .
29.2(29) . . .
21.5(25) . . .
24.8(27) . . .
29.6(29) . . .
34.8(34) . . .
26.9(28) . . .
31.4(31) . . .
28.2(28) . . .
36.7(34) . . .
28.7(27) . . .
32.2(30) . . .
26.5(27) . . .
25.5(27) . . .
27.0(31) . . .
28.4(30) . . .
31.4(31) . . .
32.0(29) . . .
30.6(29) . . .
29.0(28) . . .
33.9(32) . . .
25.7(26) . . .
30.5(30) . . .
22.4(25) . . .
28.0(29) . . .
30.8(28) . . .
24.3(26) . . .
21.3(24) . . .
24.7(27) . . .
22.4(25) . . .
18.1(22) . . .
30.9(30) . . .
29.0(28) . . .
27.6(29) . . .
30.8(31) . . .
28.2(28) . . .
23.5(27) . . .
24.5(26) . . .
23.7(27) . . .
33.3(33) . . .
31.8(30) . . .
29.0(28) . . .
24.9(27) . . .
30.6(30) . . .
32.4(31) . . .
34.9(32) . . .
28.2(28) . . .
26.8(27) . . .
23.9(29) . . .
21.7(28) . . .
26.3(28) . . .
37.3(32) . . .
26.1(26) . . .
31.5(32) . . .
30.9(33) . . .
27.5(28) . . .
25.0(26) . . .
32.2(29) . . .
23.8(26) . . .
29.8(32) . . .
32.1(31) . . .
29.8(28) . . .
26.4(27) . . .
25.4(27) . . .
31.6(32) . . .
18.9(22) . . .
29.7(28) . . .
17.4(22) . . .
24.0(26) . . .
29.9(30) . . .
28.6(28) . . .
31.0(29) . . .
22.0(24) . . .
31.6(30) . . .
27.1(28) . . .
29.3(29) . . .
28.4(28) . . .
25.6(26) . . .
37.8(33) . . .
30.0(28) . . .
37.8(33) . . .
32.1(30) . . .
29.9(29) . . .
25.4(26) . . .
28.6(29) . . .
22.6(26) . . .
25.8(26) . . .
27.1(28) . . .
24.3(27) . . .
33.3(31) . . .
37.6(32) . . .
22.9(25) . . .
30.3(32) . . .
24.0(28) . . .
22.5(25) . . .
21.4(24) . . .
38.4(32) . . .
24.9(27) . . .
38(4) . . .
29.6(28) . . .
30.9(29) . . .
30.7(29) . . .
29.8(30) . . .
22.4(26) . . .
26.2(28) . . .
30.2(29) . . .
32.8(31) . . .
29.0(29) . . .
22.3(26) . . .
30.9(29) . . .
28.4(27) . . .
38.0(32) . . .
28.0(28) . . .
25.9(27) . . .
38.1(33) . . .
31.6(30) . . .
32.3(30) . . .
31.8(31) . . .
32.4(31) . . .
27.6(27) . . .
28.1(28) . . .
27.8(29) . . .
35.7(32) . . .
23.0(24) . . .
26.6(28) . . .
30.6(29) . . .
32.3(32) . . .
30.4(32) . . .
24.5(26) . . .
32.9(31) . . .
27.8(28) . . .
32.6(31) . . .
21.7(24) . . .
32.7(32) . . .
29.3(28) . . .
30.8(30) . . .
27.0(28) . . .
29.9(30) . . .
24.4(26) . . .
27.3(27) . . .
23.7(26) . . .
23.4(25) . . .
24.4(28) . . .
34.9(34) . . .
35.5(31) . . .
25.5(26) . . .
28.7(30) . . .
27.5(29) . . .
24.5(25) . . .
30.6(29) . . .
38.5(32) . . .
34.0(31) . . .
25.0(28) . . .
23.3(27) . . .
28.1(29) . . .
27.7(27) . . .
27.3(29) . . .
29.0(31) . . .
31.1(29) . . .
30.6(29) . . .
24.0(26) . . .
27.5(29) . . .
25.7(27) . . .
34.7(33) . . .
27.6(27) . . .
33.9(30) . . .
29.8(29) . . .
28.0(31) . . .
40(4) . . .
31.0(29) . . .
25.6(26) . . .
23.3(27) . . .
22.9(26) . . .
27.0(28) . . .
25.0(26) . . .
33.2(30) . . .
35.4(33) . . .
29.6(28) . . .
36.0(32) . . .
24.3(26) . . .
30.7(29) . . .
28.2(29) . . .
27.9(30) . . .
22.3(25) . . .
29.4(29) . . .
26.5(27) . . .
27.8(28) . . .
27.0(27) . . .
31.1(29) . . .
38.3(32) . . .
31.7(30) . . .
26.6(28) . . .
25.5(27) . . .
22.7(25) . . .
27.8(27) . . .
26.1(28) . . .
28.3(29) . . .
30.2(29) . . .
32.4(29) . . .
27.3(27) . . .
34.2(33) . . .
25.8(27) . . .
30.1(28) . . .
33.6(30) . . .
29.7(29) . . .
24.8(27) . . .
20.8(26) . . .
22.1(24) . . .
23.3(25) . . .
27.1(27) . . .
21.2(26) . . .
23.1(26) . . .
22.1(24) . . .
34.5(30) . . .
31.4(29) . . .
24.5(25) . . .
23.1(26) . . .
26.3(29) . . .
34.4(31) . . .
37.8(32) . . .
35.4(32) . . .
29.0(29) . . .
30.0(30) . . .
25.2(26) . . .
28.3(28) . . .
23.0(25) . . .
29.7(29) . . .
28.4(29) . . .
26.1(27) . . .
27.2(27) . . .
37(4) . . .
27.2(29) . . .
27.8(30) . . .
32.3(29) . . .
33.4(31) . . .
31.6(31) . . .
28.2(28) . . .
28.4(28) . . .
23.9(26) . . .
21.8(26) . . .
30.0(32) . . .
21.9(25) . . .
27.5(29) . . .
27.2(28) . . .
31.6(30) . . .
28.5(29) . . .
26.6(28) . . .
24.5(26) . . .
24.9(25) . . .
33.2(33) . . .
31.1(30) . . .
27.6(28) . . .
31.3(30) . . .
30.9(29) . . .
31.1(32) . . .
25.7(31) . . .
25.4(27) . . .
27.2(27) . . .
27.6(27) . . .
24.5(25) . . .
24.0(27) . . .
29.2(28) . . .
25.2(26) . . .
26.2(26) . . .
22.5(25) . . .
36.1(33) . . .
29.6(30) . . .
30.9(29) . . .
44.0(35) . . .
34.4(32) . . .
28.5(30) . . .
28.9(29) . . .
29.3(28) . . .
27.9(28) . . .
25.3(27) . . .
20.6(24) . . .
26.2(28) . . .
35.9(31) . . .
25.9(27) . . .
28.1(29) . . .
27.0(28) . . .
25.8(28) . . .
31.7(30) . . .
29.8(31) . . .
27.9(29) . . .
30.8(32) . . .
30.5(30) . . .
30.8(30) . . .
30.1(28) . . .
36.9(32) . . .
26.8(26) . . .
23.9(27) . . .
30.5(29) . . .
33.0(30) . . .
31.0(30) . . .
33.3(32) . . .
24.6(26) . . .
32.7(29) . . .
24.6(25) . . .
26.9(28) . . .
36.0(33) . . .
28.6(28) . . .
24.9(26) . . .
25.5(28) . . .
29.2(30) . . .
26.7(26) . . .
28.0(27) . . .
39.2(33) . . .
29.3(30) . . .
21.6(24) . . .
34.1(33) . . .
29.6(29) . . .
25.4(26) . . .
29.5(29) . . .
21.4(24) . . .
27.0(28) . . .
25.1(27) . . .
28.8(28) . . .
18.6(24) . . .
23.6(27) . . .
24.1(26) . . .
19.5(23) . . .
24.9(26) . . .
27.3(28) . . .
34.0(31) . . .
34.1(30) . . .
30.8(29) . . .
32.7(30) . . .
25.7(26) . . .
35.2(32) . . .
30.8(30) . . .
33.8(31) . . .
29.7(28) . . .
32.6(30) . . .
29.0(30) . . .
27.1(27) . . .
29.4(28) . . .
23.3(25) . . .
31.8(32) . . .
27.7(28) . . .
29.4(28) . . .
34.4(30) . . .
29.1(29) . . .
37.0(34) . . .
29.2(29) . . .
28.3(30) . . .
21.7(24) . . .
22.1(26) . . .
27.2(29) . . .
31.7(29) . . .
27.4(28) . . .
31.6(29) . . .
30.9(29) . . .
29.6(31) . . .
26.1(30) . . .
26.0(27) . . .
31.8(29) . . .
27.5(27) . . .
28.2(30) . . .
26.6(29) . . .
25.5(29) . . .
28.1(27) . . .
34.5(32) . . .
23.1(27) . . .
34.3(32) . . .
26.6(28) . . .
23.5(26) . . .
30.0(29) . . .
25.0(26) . . .
24.2(26) . . .
29.1(28) . . .
34.3(34) . . .
27.0(27) . . .
22.8(25) . . .
29.4(32) . . .
32.1(29) . . .
21.2(24) . . .
28.5(29) . . .
29.7(29) . . .
29.5(29) . . .
26.8(27) . . .
22.6(25) . . .
35.5(33) . . .
27.2(29) . . .
29.1(30) . . .
29.9(29) . . .
22.4(27) . . .
35.0(34) . . .
29.5(32) . . .
24.4(26) . . .
26.6(27) . . .
35.2(33) . . .
27.8(27) . . .
26.6(26) . . .
35.3(31) . . .
27.0(27) . . .
30.0(30) . . .
33.0(34) . . .
27.5(30) . . .
21.0(24) . . .
25.4(27) . . .
28.6(30) . . .
23.3(26) . . .
36.5(33) . . .
30.3(29) . . .
19.9(23) . . .
30.5(29) . . .
29.9(31) . . .
29.2(29) . . .
28.9(28) . . .
33.8(30) . . .
20.5(23) . . .
21.8(26) . . .
28.6(29) . . .
26.6(27) . . .
33.6(30) . . .
31.7(31) . . .
19.6(23) . . .
20.1(25) . . .
25.5(27) . . .
36.2(34) . . .
33.1(32) . . .
21.9(24) . . .
31.4(33) . . .
26.4(27) . . .
25.4(27) . . .
25.1(27) . . .
27.3(27) . . .
32.0(30) . . .
26.2(28) . . .
31.1(30) . . .
20.3(24) . . .
29.5(29) . . .
31.8(30) . . .
26.0(28) . . .
25.3(26) . . .
29.4(32) . . .
30.2(31) . . .
23.0(25) . . .
25.9(27) . . .
34.5(32) . . .
31.8(32) . . .
32.0(31) . . .
30.4(29) . . .
31.0(29) . . .
27.1(28) . . .
27.5(28) . . .
31.1(29) . . .
33.3(30) . . .
21.6(24) . . .
29.6(29) . . .
26.1(29) . . .
25.2(27) . . .
18.9(23) . . .
28.7(28) . . .
29.8(30) . . .
33.5(35) . . .
27.9(29) . . .
24.4(26) . . .
29.1(28) . . .
29.5(29) . . .
29.2(35) . . .
23.6(26) . . .
33.8(30) . . .
28.7(30) . . .
29.9(29) . . .
26.3(30) . . .
30.4(30) . . .
26.0(27) . . .
23.8(25) . . .
29.7(30) . . .
29.4(30) . . .
26.0(29) . . .
37.1(31) . . .
38.7(34) . . .
26.6(27) . . .
30.6(29) . . .
16.9(21) . . .
25.1(26) . . .
28.1(27) . . .
34.6(32) . . .
36.7(33) . . .
28.4(29) . . .
29.9(28) . . .
28.3(28) . . .
33.9(32) . . .
29.6(27) . . .
34.2(32) . . .
19.8(23) . . .
30.5(30) . . .
28.0(29) . . .
26.7(27) . . .
30.7(30) . . .
22.8(25) . . .
26.0(27) . . .
30.5(33) . . .
21.5(26) . . .
27.8(29) . . .
23.1(25) . . .
21.1(24) . . .
32.7(32) . . .
27.6(29) . . .
26.7(27) . . .
31.2(28) . . .
29.9(28) . . .
25.4(29) . . .
22.7(28) . . .
28.6(29) . . .
31.9(29) . . .
23.7(25) . . .
28.1(32) . . .
24.5(30) . . .
26.5(27) . . .
26.7(27) . . .
34.1(33) . . .
28.1(29) . . .
25.4(26) . . .
28.3(28) . . .
28.4(29) . . .
33.7(31) . . .
39.8(35) . . .
29.6(30) . . .
23.9(25) . . .
25.3(29) . . .
23.2(26) . . .
31.7(31) . . .
28.4(28) . . .
32.9(30) . . .
25.6(26) . . .
32.9(34) . . .
24.5(29) . . .
30.9(30) . . .
29.9(28) . . .
26.3(28) . . .
33.3(32) . . .
33.9(31) . . .
29.5(28) . . .
28.3(28) . . .
27.8(28) . . .
24.7(29) . . .
19.2(23) . . .
27.5(27) . . .
31.8(29) . . .
24.4(26) . . .
25.2(29) . . .
26.7(29) . . .
27.4(28) . . .
29.6(28) . . .
30.5(28) . . .
36.9(34) . . .
26.8(28) . . .
34.9(32) . . .
30.9(29) . . .
29.3(29) . . .
34.1(33) . . .
34.1(32) . . .
29.7(28) . . .
24.4(26) . . .
36.3(32) . . .
31.4(31) . . .
28.5(28) . . .
27.9(27) . . .
29.5(28) . . .
36.8(34) . . .
29.6(30) . . .
31.2(30) . . .
19.8(24) . . .
31.8(30) . . .
23.6(25) . . .
20.4(24) . . .
24.1(26) . . .
30.9(29) . . .
28.0(30) . . .
19.0(23) . . .
23.6(28) . . .
36.1(33) . . .
35.7(31) . . .
27.5(27) . . .
32.2(31) . . .
32.4(30) . . .
32.3(32) . . .
29.2(28) . . .
29.7(30) . . .
29.1(29) . . .
28.2(27) . . .
26.3(26) . . .
30.3(28) . . .
22.9(27) . . .
25.4(28) . . .
34.5(33) . . .
32.6(31) . . .
27.2(26) . . .
22.9(25) . . .
36.8(34) . . .
29.3(29) . . .
29.6(28) . . .
22.7(25) . . .
30.0(29) . . .
34.5(32) . . .
33.8(31) . . .
28.6(28) . . .
28.4(28) . . .
23.5(28) . . .
25.6(29) . . .
29.8(30) . . .
27.6(27) . . .
22.9(25) . . .
28.1(30) . . .
31.1(34) . . .
24.3(29) . . .
32.9(31) . . .
24.6(26) . . .
28.1(28) . . .
33.1(31) . . .
26.0(27) . . .
37.0(32) . . .
21.1(24) . . .
27.1(28) . . .
26.3(27) . . .
29.3(29) . . .
29.4(28) . . .
25.8(27) . . .
20.4(25) . . .
27.1(27) . . .
25.9(27) . . .
33.2(30) . . .
29.7(29) . . .
31.0(31) . . .
33.2(30) . . .
41(4) . . .
29.3(28) . . .
28.5(28) . . .
27.2(28) . . .
28.8(29) . . .
32.9(30) . . .
32.1(30) . . .
33.4(31) . . .
29.3(29) . . .
33.4(34) . . .
21.1(25) . . .
26.8(27) . . .
29.9(30) . . .
33.0(33) . . .
27.7(29) . . .
23.6(25) . . .
32.3(30) . . .
30.0(29) . . .
32.5(31) . . .
27.1(27) . . .
31.4(29) . . .
28.7(28) . . .
30.9(30) . . .
38.0(35) . . .
24.4(26) . . .
32.8(30) . . .
20.7(23) . . .
24.0(28) . . .
30.5(33) . . .
30.2(30) . . .
24.2(28) . . .
29.0(28) . . .
28.9(27) . . .
34.9(33) . . .
27.6(28) . . .
33.6(30) . . .
37.2(33) . . .
26.1(30) . . .
24.0(29) . . .
32.0(32) . . .
32.4(29) . . .
35.8(31) . . .
28.9(29) . . .
26.0(29) . . .
23.7(26) . . .
27.3(27) . . .
28.1(28) . . .
27.9(30) . . .
23.2(26) . . .
24.4(26) . . .
14.9(20) . . .
23.2(26) . . .
24.4(26) . . .
30.4(30) . . .
37.9(34) . . .
31.7(30) . . .
26.9(28) . . .
29.8(31) . . .
28.8(28) . . .
35.1(34) . . .
21.1(24) . . .
33.0(33) . . .
26.2(30) . . .
27.8(32) . . .
30.2(28) . . .
33.8(30) . . .
31.4(30) . . .
30.2(30) . . .
34.5(31) . . .
32.1(29) . . .
27.9(27) . . .
32.5(29) . . .
34.0(29) . . .
24.2(26) . . .
29.8(28) . . .
30.6(29) . . .
24.6(27) . . .
32.1(31) . . .
28.0(29) . . .
33.4(30) . . .
24.6(26) . . .
41.0(35) . . .
34.7(31) . . .
35.9(33) . . .
36.4(31) . . .
28.8(28) . . .
24.4(26) . . .
38(4) . . .
33.7(32) . . .
32.0(30) . . .
27.1(27) . . .
26.5(27) . . .
25.5(28) . . .
22.3(26) . . .
22.4(25) . . .
29.9(30) . . .
25.8(25) . . .
32.2(31) . . .
26.4(26) . . .
30.8(29) . . .
30.9(30) . . .
24.8(28) . . .
26.5(30) . . .
31.9(32) . . .
37.4(32) . . .
31.9(30) . . .
27.9(30) . . .
21.7(26) . . .
32.5(30) . . .
35.7(31) . . .
29.2(28) . . .
31.7(31) . . .
27.4(27) . . .
26.7(27) . . .
28.0(27) . . .
23.6(25) . . .
23.6(27) . . .
23.3(26) . . .
23.9(26) . . .
23.6(26) . . .
30.5(31) . . .
24.0(26) . . .
35.4(32) . . .
23.8(25) . . .
30.7(29) . . .
30.7(31) . . .
22.3(27) . . .
29.1(29) . . .
31.2(30) . . .
25.5(27) . . .
28.8(29) . . .
32.4(32) . . .
27.5(27) . . .
28.9(28) . . .
22.0(25) . . .
22.6(26) . . .
30.8(31) . . .
27.4(29) . . .
30.8(29) . . .
30.5(28) . . .
40.5(34) . . .
34.3(33) . . .
27.5(29) . . .
28.4(29) . . .
27.4(27) . . .
24.9(27) . . .
35.7(34) . . .
28.1(27) . . .
23.8(26) . . .
33.9(31) . . .
24.8(28) . . .
22.6(26) . . .
28.6(30) . . .
27.9(29) . . .
25.0(27) . . .
32.3(30) . . .
27.1(29) . . .
25.9(27) . . .
26.9(27) . . .
29.6(29) . . .
29.3(30) . . .
25.5(27) . . .
23.7(25) . . .
31.3(29) . . .
24.9(28) . . .
24.7(28) . . .
27.1(29) . . .
26.6(29) . . .
27.6(28) . . .
22.9(25) . . .
25.8(28) . . .
35.8(32) . . .
30.6(29) . . .
24.9(26) . . .
34.0(31) . . .
37.4(34) . . .
27.6(27) . . .
28.9(28) . . .
26.7(27) . . .
31.0(31) . . .
29.7(32) . . .
32.4(32) . . .
24.8(26) . . .
35.8(31) . . .
24.7(26) . . .
23.7(26) . . .
19.1(26) . . .
27.7(28) . . .
35.3(33) . . .
28.9(30) . . .
24.6(29) . . .
26.5(28) . . .
28.4(28) . . .
26.2(27) . . .
32.1(31) . . .
34.0(31) . . .
27.5(30) . . .
25.4(27) . . .
36.0(32) . . .
30.8(28) . . .
25.6(26) . . .
26.7(28) . . .
29.6(29) . . .
33.5(30) . . .
33.2(31) . . .
27.7(28) . . .
28.1(29) . . .
31.5(29) . . .
22.3(25) . . .
26.5(30) . . .
32.2(32) . . .
26.4(28) . . .
32.2(30) . . .
30.5(30) . . .
34.7(31) . . .
30.5(28) . . .
33.1(30) . . .
30.3(29) . . .
30.8(30) . . .
19.1(24) . . .
23.7(29) . . .
29.1(30) . . .
28.2(28) . . .
23.9(25) . . .
31.5(32) . . .
26.2(27) . . .
33.0(31) . . .
29.7(28) . . .
33.0(32) . . .
22.8(26) . . .
22.6(25) . . .
28.6(27) . . .
32.0(30) . . .
33.7(30) . . .
29.7(30) . . .
20.1(24) . . .
25.6(26) . . .
31.0(29) . . .
29.7(30) . . .
44(4) . . .
22.4(25) . . .
23.2(26) . . .
24.1(26) . . .
23.0(26) . . .
25.7(29) . . .
28.8(31) . . .
37.5(33) . . .
23.8(25) . . .
33.9(33) . . .
23.5(26) . . .
22.9(26) . . .
28.0(27) . . .
28.4(28) . . .
28.2(28) . . .
25.5(27) . . .
35.0(31) . . .
27.1(27) . . .
27.1(29) . . .
33.0(32) . . .
21.4(25) . . .
29.9(29) . . .
28.9(28) . . .
26.3(27) . . .
28.9(28) . . .
35.2(32) . . .
29.7(30) . . .
28.6(28) . . .
25.6(27) . . .
23.2(26) . . .
27.4(29) . . .
24.9(27) . . .
29.0(28) . . .
26.3(28) . . .
25.8(28) . . .
33.6(32) . . .
28.6(28) . . .
29.9(28) . . .
26.7(27) . . .
27.2(30) . . .
19.9(24) . . .
25.8(26) . . .
24.3(26) . . .
31.7(31) . . .
25.5(28) . . .
30.0(30) . . .
25.2(27) . . .
22.0(24) . . .
23.3(25) . . .
28.0(29) . . .
25.0(26) . . .
23.8(25) . . .
32.1(32) . . .
35.2(33) . . .
16.2(22) . . .
23.4(29) . . .
25.5(27) . . .
26.1(27) . . .
24.5(27) . . .
25.9(29) . . .
29.3(32) . . .
36.6(32) . . .
29.8(29) . . .
27.0(28) . . .
27.4(28) . . .
23.5(26) . . .
20.3(24) . . .
19.4(23) . . .
24.5(29) . . .
30.4(31) . . .
34.7(32) . . .
28.4(29) . . .
30.2(29) . . .
28.4(31) . . .
31.0(31) . . .
26.2(27) . . .
28.7(28) . . .
29.8(29) . . .
32.6(30) . . .
31.3(30) . . .
29.8(29) . . .
29.1(28) . . .
25.5(27) . . .
32.4(32) . . .
29.8(28) . . .
32.5(29) . . .
27.0(27) . . .
30.5(32) . . .
23.8(27) . . .
28.1(28) . . .
30.8(29) . . .
24.4(26) . . .
18.6(25) . . .
24.4(28) . . .
38.5(35) . . .
38.1(32) . . .
33.0(29) . . .
32.9(30) . . .
32.2(30) . . .
35.9(32) . . .
35.0(31) . . .
26.0(26) . . .
25.5(26) . . .
26.2(28) . . .
26.3(28) . . .
27.1(27) . . .
22.0(26) . . .
30.4(30) . . .
22.8(24) . . .
30.1(30) . . .
26.2(27) . . .
23.7(26) . . .
25.9(29) . . .
31.6(32) . . .
36.2(33) . . .
24.2(26) . . .
25.0(27) . . .
26.3(28) . . .
34.7(32) . . .
25.7(27) . . .
21.7(24) . . .
27.6(27) . . .
23.2(27) . . .
28.2(29) . . .
28.1(27) . . .
27.3(27) . . .
26.4(27) . . .
30.8(32) . . .
26.2(26) . . .
32.7(29) . . .
36.3(31) . . .
25.0(27) . . .
20.9(24) . . .
37.1(34) . . .
28.4(28) . . .
19.9(24) . . .
31.7(31) . . .
24.8(29) . . .
18.8(23) . . .
31.6(29) . . .
31.2(29) . . .
26.4(28) . . .
32.5(33) . . .
26.8(27) . . .
31.9(29) . . .
27.0(27) . . .
27.1(29) . . .
26.4(29) . . .
25.0(27) . . .
21.0(24) . . .
24.4(27) . . .
30.7(30) . . .
22.7(25) . . .
34.3(33) . . .
26.9(28) . . .
31.1(30) . . .
32.4(33) . . .
29.9(29) . . .
36.2(32) . . .
31.9(29) . . .
24.2(26) . . .
28.3(29) . . .
29.0(30) . . .
34.1(32) . . .
29.3(28) . . .
34.4(31) . . .
30.6(29) . . .
21.9(25) . . .
22.9(25) . . .
28.2(28) . . .
30.4(30) . . .
33.8(32) . . .
32.1(30) . . .
29.9(29) . . .
30.3(28) . . .
31.9(30) . . .
26.8(29) . . .
34(4) . . .
34.0(33) . . .
27.4(27) . . .
32.6(30) . . .
31.5(32) . . .
22.8(26) . . .
31.3(30) . . .
30.9(30) . . .
32.8(30) . . .
28.4(28) . . .
28.5(28) . . .
19.8(23) . . .
27.6(28) . . .
33.1(32) . . .
31.2(31) . . .
29.2(29) . . .
29.4(29) . . .
34.4(31) . . .
23.9(27) . . .
29.0(34) . . .
27.2(28) . . .
32.8(31) . . .
32.1(29) . . .
36.9(34) . . .
19.5(23) . . .
26.9(28) . . .
17.5(22) . . .
26.9(30) . . .
22.1(26) . . .
31.3(31) . . .
26.6(27) . . .
22.8(25) . . .
32.1(31) . . .
28.7(28) . . .
20.7(23) . . .
30.7(31) . . .
30.3(30) . . .
30.8(29) . . .
30.8(31) . . .
22.9(27) . . .
25.5(27) . . .
30.0(29) . . .
22.4(26) . . .
24.3(28) . . .
25.2(27) . . .
34.8(31) . . .
26.8(27) . . .
30.0(30) . . .
24.9(27) . . .
23.9(27) . . .
33.0(30) . . .
26.0(27) . . .
25.9(27) . . .
27.8(29) . . .
26.3(28) . . .
28.1(28) . . .
28.8(28) . . .
29.4(28) . . .
23.8(27) . . .
24.2(28) . . .
21.9(24) . . .
32.0(29) . . .
28.8(28) . . .
26.8(28) . . .
33.6(31) . . .
28.4(29) . . .
30.9(29) . . .
32.8(31) . . .
22.4(26) . . .
23.4(26) . . .
30.6(29) . . .
31.0(29) . . .
25.8(26) . . .
29.9(31) . . .
30.6(30) . . .
30.7(30) . . .
33.3(31) . . .
42.2(34) . . .
42.2(35) . . .
24.3(26) . . .
26.6(27) . . .
27.5(29) . . .
29.1(31) . . .
23.3(26) . . .
23.0(26) . . .
24.7(26) . . .
24.3(26) . . .
28.4(28) . . .
30.9(29) . . .
22.9(25) . . .
34.2(31) . . .
28.9(30) . . .
30.0(31) . . .
26.2(26) . . .
31.9(30) . . .
24.2(26) . . .
22.4(25) . . .
25.0(29) . . .
27.3(29) . . .
29.2(29) . . .
25.1(26) . . .
27.6(28) . . .
23.3(25) . . .
30.4(31) . . .
29.3(29) . . .
28.6(27) . . .
26.3(27) . . .
24.2(26) . . .
29.5(30) . . .
36.8(34) . . .
29.9(30) . . .
30.5(29) . . .
26.7(29) . . .
32.1(32) . . .
27.3(27) . . .
28.6(27) . . .
29.0(29) . . .
30.1(31) . . .
33.6(31) . . .
19.1(22) . . .
24.0(26) . . .
24.7(28) . . .
36(4) . . .
26.0(27) . . .
27.3(27) . . .
35.8(33) . . .
25.8(29) . . .
35.0(33) . . .
27.1(27) . . .
28.2(28) . . .
27.6(29) . . .
32.7(31) . . .
26.5(27) . . .
29.2(30) . . .
28.4(28) . . .
23.0(26) . . .
28.7(30) . . .
21.5(25) . . .
23.9(27) . . .
31.8(29) . . .
33.6(32) . . .
28.2(31) . . .
26.4(27) . . .
27.1(27) . . .
32.6(29) . . .
24.3(27) . . .
30.5(30) . . .
37.1(33) . . .
26.5(27) . . .
21.3(24) . . .
26.2(29) . . .
28.3(29) . . .
21.0(23) . . .
29.3(28) . . .
31.8(29) . . .
24.2(26) . . .
30.7(32) . . .
26.5(26) . . .
34.9(33) . . .
26.5(27) . . .
34.7(32) . . .
27.7(28) . . .
31.1(31) . . .
29.3(28) . . .
27.8(27) . . .
24.4(29) . . .
28.4(31) . . .
24.9(28) . . .
26.6(27) . . .
38.3(33) . . .
21.7(23) . . .
31.9(34) . . .
34.2(33) . . .
30.6(29) . . .
29.6(29) . . .
27.4(28) . . .
31.2(31) . . .
26.9(27) . . .
18.0(22) . . .
22.7(25) . . .
27.0(29) . . .
28.4(30) . . .
36.8(33) . . .
25.8(26) . . .
28.0(28) . . .
31.9(29) . . .
24.7(27) . . .
24.1(27) . . .
29.7(29) . . .
26.7(27) . . .
29.2(29) . . .
26.5(26) . . .
23.0(25) . . .
24.4(26) . . .
35.2(31) . . .
30.7(30) . . .
30.6(31) . . .
29.9(29) . . .
24.6(26) . . .
29.6(30) . . .
33.8(32) . . .
27.9(28) . . .
28.8(29) . . .
24.9(27) . . .
23.7(26) . . .
23.8(26) . . .
29.9(29) . . .
40.0(35) . . .
34.1(31) . . .
32.2(31) . . .
24.6(28) . . .
28.2(28) . . .
19.8(23) . . .
29.0(29) . . .
29.0(29) . . .
32.3(33) . . .
26.9(28) . . .
28.5(27) . . .
26.6(27) . . .
20.9(24) . . .
23.7(28) . . .
27.5(28) . . .
33.8(30) . . .
21.1(27) . . .
22.0(26) . . .
32.4(33) . . .
27.0(27) . . .
34.2(30) . . .
20.2(25) . . .
31.2(31) . . .
29.0(30) . . .
28.3(28) . . .
35.3(31) . . .
25.5(28) . . .
28.9(30) . . .
28.3(28) . . .
32.0(30) . . .
34.4(31) . . .
29.5(30) . . .
28.8(30) . . .
31.7(33) . . .
23.3(26) . . .
30.3(29) . . .
27.2(28) . . .
33.7(33) . . .
22.8(25) . . .
21.2(24) . . .
35.2(32) . . .
35.7(34) . . .
36.8(33) . . .
36.3(33) . . .
27.6(27) . . .
27.9(28) . . .
25.2(28) . . .
29.2(29) . . .
30.6(30) . . .
31.1(29) . . .
22.0(24) . . .
26.4(27) . . .
26.7(28) . . .
24.6(28) . . .
30.0(29) . . .
31.0(29) . . .
21.6(24) . . .
18.9(24) . . .
20.5(24) . . .
32.6(29) . . .
27.7(28) . . .
26.1(27) . . .
22.7(25) . . .
25.8(29) . . .
35.2(31) . . .
26.4(26) . . .
22.4(25) . . .
21.9(25) . . .
27.0(30) . . .
22.8(25) . . .
26.9(29) . . .
27.2(29) . . .
31.9(31) . . .
31.7(33) . . .
32.2(30) . . .
26.6(28) . . .
32.4(31) . . .
27.2(26) . . .
30.6(30) . . .
31.7(29) . . .
34.1(31) . . .
36.3(32) . . .
35.0(31) . . .
32.7(30) . . .
39.9(33) . . .
35.2(31) . . .
22.3(25) . . .
31.9(32) . . .
33.1(31) . . .
36.4(32) . . .
28.6(28) . . .
35.2(32) . . .
28.7(28) . . .
27.8(29) . . .
35.6(32) . . .
30.8(30) . . .
32.0(32) . . .
30.6(31) . . .
31.4(29) . . .
39.2(32) . . .
24.5(27) . . .
22.7(25) . . .
27.3(27) . . .
29.3(28) . . .
26.3(26) . . .
29.0(28) . . .
30.1(30) . . .
31.3(30) . . .
25.8(27) . . .
19.7(23) . . .
22.6(25) . . .
20.0(23) . . .
29.1(29) . . .
28.1(28) . . .
31.1(29) . . .
31.9(31) . . .
27.5(30) . . .
24.4(26) . . .
28.8(28) . . .
27.0(27) . . .
26.0(26) . . .
30.1(29) . . .
31.3(31) . . .
22.7(24) . . .
25.9(27) . . .
29.7(29) . . .
30.3(30) . . .
27.8(30) . . .
22.3(24) . . .
21.4(26) . . .
26.7(28) . . .
25.6(27) . . .
32.1(31) . . .
27.5(28) . . .
22.0(24) . . .
27.4(29) . . .
28.4(31) . . .
26.2(29) . . .
27.7(27) . . .
27.1(29) . . .
22.4(26) . . .
27.9(30) . . .
21.3(25) . . .
30.7(29) . . .
32.5(31) . . .
30.7(29) . . .
23.8(26) . . .
24.6(27) . . .
31.5(29) . . .
31.6(29) . . .
32.7(32) . . .
20.3(24) . . .
29.4(29) . . .
23.0(25) . . .
30.4(31) . . .
28.3(28) . . .
32.9(31) . . .
28.9(28) . . .
27.9(28) . . .
35.3(34) . . .
31.4(31) . . .
31.6(30) . . .
31.6(29) . . .
32.1(30) . . .
25.2(27) . . .
26.4(29) . . .
26.5(27) . . .
30.6(29) . . .
26.9(27) . . .
18.2(22) . . .
30.0(30) . . .
26.7(28) . . .
28.9(28) . . .
27.1(28) . . .
28.8(31) . . .
25.9(28) . . .
34.9(32) . . .
30.2(29) . . .
25.8(27) . . .
27.6(28) . . .
27.9(28) . . .
34.1(31) . . .
36.3(32) . . .
28.9(29) . . .
27.3(29) . . .
23.0(25) . . .
loop_
_refln_index_h
_refln_index_k
_refln_index_l
_refln_observed_status
_refln_F_squared_meas
_refln_F_squared_calc
_refln_phase_calc
_refln_d_spacing
_gsas_i100_meas
0 0 2 o 52.153 365.379 180.00 6.58699 0.09
0 2 0 o 1161.229 1576.108 180.00 8.20183 2.93
0 1 3 o 163.411 46.109 180.00 4.24196 0.22
0 0 4 o 128.271 131.438 180.00 3.29350 0.05
1 0 1 o 13222.815 13439.829 0.00 5.87778 34.35
0 2 2 o 33514.586 33731.355 0.00 5.13577 66.50
0 3 1 o 1382.178 1643.734 180.00 5.05017 2.65
0 4 0 o 6199.407 1784.878 0.00 4.10092 3.93
1 1 2 o 4775.039 3972.281 0.00 4.47451 14.39
1 0 3 o 417.665 225.691 180.00 3.65051 0.42
1 2 1 o 1733.788 1782.048 0.00 4.77762 5.96
0 2 4 o 567.924 739.613 0.00 3.05629 0.40
0 1 5 o 1076.746 1466.578 180.00 2.60145 0.55
0 0 6 o 2038.202 2364.240 0.00 2.19566 0.37
1 1 4 o 56.916 74.443 0.00 2.89776 0.07
1 2 3 o 806.973 972.323 0.00 3.33508 1.35
1 0 5 o 170.247 671.953 180.00 2.44536 0.08
0 5 1 o 24.482 11.340 180.00 3.18350 0.02
1 4 1 o 769.502 769.420 180.00 3.36323 1.31
0 3 3 o 12920.906 13613.526 0.00 3.42385 11.42
0 6 0 o 1614.327 2194.953 0.00 2.73394 0.46
1 1 6 o 1123.273 1052.063 180.00 2.06580 0.73
0 1 7 o 757.755 1002.296 0.00 1.86973 0.20
1 2 5 o 464.541 482.390 0.00 2.34342 0.39
0 2 6 o 730.063 664.044 180.00 2.12098 0.25
0 4 2 o 0.000 5.348 0.00 3.48135 0.00
1 3 2 o 3558.521 3774.977 0.00 3.54267 6.73
1 0 7 o 1044.825 1102.148 0.00 1.80918 0.26
0 0 8 o 267.151 348.519 180.00 1.64675 0.03
0 3 5 o 35.729 134.424 0.00 2.37360 0.02
1 3 4 o 42.808 48.510 0.00 2.59220 0.04
1 6 1 o 523.229 935.257 0.00 2.47891 0.49
2 0 2 o 335.762 430.431 0.00 2.93889 0.22
2 0 0 o 2253.022 2156.511 180.00 3.28386 0.92
0 7 1 o 270.065 315.290 0.00 2.30716 0.11
2 1 1 o 829.141 911.169 180.00 3.12789 1.22
1 2 7 o 1503.676 1460.802 180.00 1.76671 0.72
0 2 8 o 910.133 949.912 180.00 1.61453 0.18
2 0 4 o 1907.572 1665.054 180.00 2.32544 0.78
2 2 0 o 63.303 74.603 0.00 3.04858 0.04
1 3 6 o 1327.288 1068.872 0.00 1.94603 0.77
1 1 8 o 1172.722 1240.789 0.00 1.58978 0.46
0 1 9 o 1497.843 1308.786 0.00 1.45798 0.25
0 3 7 o 1325.477 1357.696 0.00 1.77954 0.32
2 1 3 o 1160.912 1261.039 0.00 2.59669 1.18
0 6 2 o 102.492 468.102 0.00 2.52509 0.05
0 4 4 o 10020.698 12054.321 0.00 2.56788 5.00
1 5 2 o 2558.192 2824.362 180.00 2.68086 2.78
1 0 9 o 1733.618 1221.055 180.00 1.42872 0.27
0 8 0 o 119.954 108.711 0.00 2.05046 0.02
2 2 2 o 2017.216 2073.984 180.00 2.76664 2.33
2 1 5 o 261.677 209.147 180.00 2.03913 0.17
2 3 1 o 602.026 627.378 0.00 2.75302 0.69
2 4 0 o 1457.785 1783.818 180.00 2.56331 0.72
1 4 3 o 4967.883 5537.164 0.00 2.72669 5.59
0 4 6 o 3551.390 2922.009 180.00 1.93568 1.01
2 0 6 o 0.007 0.008 0.00 1.82525 0.00
2 2 4 o 16.656 50.791 0.00 2.23725 0.01
0 0 10 o 4214.194 6287.450 180.00 1.31740 0.28
1 4 5 o 179.711 156.664 180.00 2.10030 0.12
0 2 10 o 2.254 2.744 0.00 1.30073 0.00
1 2 9 o 28.378 25.007 180.00 1.40753 0.01
2 2 6 o 784.972 820.967 180.00 1.78167 0.38
1 1 10 o 1.594 1.927 0.00 1.28768 0.00
0 5 3 o 240.402 453.293 180.00 2.62825 0.13
1 7 2 o 3098.325 2877.216 0.00 2.09274 2.06
2 5 1 o 2.303 11.644 0.00 2.28573 0.00
0 9 1 o 3899.185 4102.759 0.00 1.80543 0.97
2 1 7 o 199.025 232.259 0.00 1.62482 0.08
1 8 1 o 761.227 624.005 180.00 1.93604 0.43
1 3 8 o 24.426 25.513 0.00 1.53322 0.01
0 3 9 o 43.957 37.521 0.00 1.41399 0.01
0 4 8 o 57.405 58.399 180.00 1.52815 0.01
2 6 0 o 2812.810 2424.041 180.00 2.10109 0.94
2 3 3 o 31.490 65.312 180.00 2.36998 0.03
0 8 2 o 2311.839 1910.756 180.00 1.95779 0.67
2 0 8 o 624.699 538.628 180.00 1.47203 0.10
2 3 5 o 999.676 840.191 0.00 1.92369 0.56
2 4 2 o 112.774 288.326 180.00 2.38881 0.10
1 4 7 o 104.854 145.662 180.00 1.65526 0.04
0 10 0 o 9027.285 10901.554 180.00 1.64037 0.93
0 5 5 o 24875.486 23904.752 0.00 2.05431 7.98
1 3 10 o 0.248 0.303 0.00 1.25707 0.00
2 3 7 o 1985.479 2213.469 180.00 1.56458 0.75
2 2 8 o 1735.851 1301.436 0.00 1.44888 0.56
1 5 4 o 6586.081 6764.783 0.00 2.19116 4.80
1 6 3 o 5052.641 5030.174 180.00 2.18829 3.67
0 5 7 o 20.960 26.461 180.00 1.63247 0.00
0 7 3 o 7615.994 7094.704 0.00 2.06743 2.48
2 1 9 o 1200.584 1549.174 180.00 1.33255 0.33
2 7 1 o 447.553 578.912 180.00 1.88781 0.24
1 5 6 o 918.634 862.820 0.00 1.75812 0.43
2 4 4 o 1252.758 964.491 180.00 2.02285 0.78
1 4 9 o 0.784 0.767 180.00 1.34919 0.00
0 4 10 o 47.886 58.018 180.00 1.25427 0.01
2 8 0 o 9.898 11.681 0.00 1.73925 0.00
2 6 2 o 399.867 449.635 180.00 2.00173 0.24
2 0 10 o 2286.981 2717.025 0.00 1.22268 0.27
1 9 2 o 15.157 15.124 0.00 1.69697 0.01
1 10 1 o 425.275 460.314 180.00 1.57999 0.16
2 2 10 o 979.349 1284.615 180.00 1.20931 0.22
2 4 6 o 2089.170 2593.666 0.00 1.66754 0.89
0 10 2 o 1158.715 1246.659 0.00 1.59175 0.23
3 0 1 o 2713.219 2561.615 180.00 2.15962 0.96
0 11 1 o 7797.768 5957.782 180.00 1.48178 1.32
3 1 2 o 3017.349 3077.806 180.00 2.06104 1.95
3 0 5 o 3634.188 3586.633 180.00 1.68384 0.79
3 0 3 o 4233.101 3725.162 0.00 1.95926 1.24
1 5 8 o 42.278 26.550 180.00 1.43613 0.01
3 1 4 o 4398.171 4401.857 0.00 1.81204 2.21
0 5 9 o 9.714 10.556 0.00 1.33676 0.00
3 2 1 o 41.484 43.209 0.00 2.08844 0.03
2 5 3 o 84.855 85.619 0.00 2.05196 0.05
2 3 9 o 1125.815 1334.605 0.00 1.29871 0.30
1 8 3 o 242.136 271.581 0.00 1.78775 0.12
0 9 3 o 86.175 84.866 180.00 1.68339 0.02
0 6 4 o 8700.638 7684.358 180.00 2.10361 2.93
3 1 6 o 243.409 248.641 180.00 1.54341 0.09
0 12 0 o 4472.070 4130.876 0.00 1.36697 0.32
3 0 7 o 477.547 331.204 180.00 1.42714 0.08
3 2 3 o 5790.913 4499.883 180.00 1.90564 3.21
3 2 5 o 328.643 501.655 0.00 1.64944 0.14
2 8 2 o 74.482 76.038 180.00 1.68162 0.03
2 9 1 o 26.046 28.838 180.00 1.58209 0.01
0 6 6 o 6402.633 7422.949 0.00 1.71192 1.44
2 4 8 o 2394.938 2193.253 180.00 1.38548 0.71
3 4 1 o 944.234 723.921 180.00 1.91085 0.53
2 10 0 o 49.853 45.849 0.00 1.46747 0.01
3 3 2 o 1092.293 793.294 0.00 1.94205 0.63
3 1 8 o 819.429 1140.310 180.00 1.31179 0.22
2 5 5 o 2365.197 2623.854 180.00 1.74160 1.10
1 6 5 o 679.277 807.114 0.00 1.82265 0.34
0 6 8 o 215.449 179.375 180.00 1.41062 0.03
3 2 7 o 29.733 26.995 0.00 1.40602 0.01
3 3 4 o 231.262 387.877 180.00 1.72958 0.11
2 5 7 o 3342.888 3077.958 0.00 1.46180 1.10
2 7 3 o 1473.152 1379.473 180.00 1.74957 0.69
1 6 7 o 493.970 377.926 0.00 1.50875 0.17
1 11 2 o 204.212 176.353 180.00 1.42003 0.06
1 12 1 o 5.254 7.402 180.00 1.33144 0.00
1 7 4 o 639.882 647.830 180.00 1.83347 0.33
1 10 3 o 14.238 10.642 180.00 1.49625 0.00
3 6 1 o 1920.042 1905.682 180.00 1.69467 0.84
3 0 9 o 1853.408 2274.794 0.00 1.21684 0.21
3 3 6 o 42.388 27.932 0.00 1.49150 0.01
0 8 4 o 1327.871 1504.893 0.00 1.74068 0.31
3 5 2 o 332.060 290.690 0.00 1.75518 0.16
0 12 2 o 4603.564 4675.481 180.00 1.33845 0.64
0 13 1 o 3051.157 3727.466 0.00 1.25607 0.38
3 4 3 o 297.352 261.995 180.00 1.76786 0.14
0 11 3 o 1348.747 1111.748 0.00 1.41204 0.21
2 6 4 o 1155.097 891.936 0.00 1.77134 0.55
2 11 1 o 313.118 316.149 0.00 1.35064 0.09
2 10 2 o 628.630 404.022 180.00 1.43235 0.20
1 6 9 o 106.607 132.838 180.00 1.26624 0.03
2 5 9 o 2149.403 2143.805 180.00 1.23811 0.51
3 3 8 o 34.800 51.033 180.00 1.27947 0.01
0 7 5 o 1654.016 1428.195 180.00 1.75102 0.39
3 4 5 o 14.274 16.455 180.00 1.55765 0.01
2 9 3 o 85.759 70.079 0.00 1.49803 0.03
0 7 7 o 6436.061 6106.600 0.00 1.46736 1.07
2 6 6 o 3350.802 3343.936 180.00 1.51803 1.19
2 12 0 o 562.827 719.868 180.00 1.26200 0.07
3 8 1 o 12.147 8.109 0.00 1.48699 0.00
3 7 2 o 1744.203 2082.847 180.00 1.55456 0.65
1 9 4 o 435.114 465.640 0.00 1.54969 0.16
3 4 7 o 393.410 368.987 0.00 1.34786 0.11
0 10 4 o 131.963 125.367 180.00 1.46832 0.02
1 13 2 o 25.063 30.672 180.00 1.21780 0.01
0 7 9 o 251.917 253.475 0.00 1.24148 0.03
1 7 6 o 651.997 774.746 0.00 1.55660 0.24
1 12 3 o 51.508 71.852 180.00 1.28016 0.01
2 6 8 o 3014.954 3467.250 0.00 1.29610 0.79
1 7 8 o 293.171 547.472 0.00 1.31986 0.08
3 5 4 o 552.117 596.111 180.00 1.59364 0.22
3 6 3 o 412.562 485.799 0.00 1.59254 0.16
2 12 2 o 950.897 951.626 0.00 1.23945 0.23
2 8 4 o 2043.437 2448.126 180.00 1.53797 0.74
4 0 0 o 2558.913 3182.408 0.00 1.64193 0.26
4 0 2 o 177.317 200.055 180.00 1.59318 0.03
4 1 1 o 1492.084 1305.991 0.00 1.62134 0.60
4 1 3 o 578.959 608.810 180.00 1.53122 0.21
4 0 4 o 1249.118 1192.635 0.00 1.46944 0.21
3 5 6 o 326.098 295.769 180.00 1.40168 0.10
4 2 0 o 373.057 371.709 180.00 1.60998 0.07
3 10 1 o 31.657 40.496 0.00 1.30627 0.01
3 9 2 o 52.562 49.943 180.00 1.37009 0.02
0 13 3 o 690.285 871.214 180.00 1.21275 0.08
4 1 5 o 1540.481 1456.709 0.00 1.38850 0.46
4 2 2 o 2000.297 2191.203 0.00 1.56395 0.75
2 11 3 o 1136.958 1286.685 180.00 1.29720 0.30
2 7 5 o 1842.545 1728.612 0.00 1.54509 0.68
4 0 6 o 1104.213 1651.120 180.00 1.31493 0.15
1 8 5 o 655.285 793.035 180.00 1.57120 0.25
3 5 8 o 579.240 733.592 0.00 1.22140 0.14
1 11 4 o 10.344 17.339 180.00 1.33032 0.00
4 3 1 o 917.412 1041.681 180.00 1.56147 0.34
4 4 0 o 1615.851 2017.579 0.00 1.52429 0.29
4 2 4 o 1325.201 867.489 180.00 1.44641 0.43
4 1 7 o 707.467 657.904 180.00 1.23374 0.17
4 2 6 o 453.208 510.380 0.00 1.29835 0.12
2 7 7 o 4301.191 4029.639 180.00 1.33970 1.20
3 8 3 o 940.276 911.380 180.00 1.41655 0.29
0 9 5 o 1574.043 1522.912 0.00 1.49894 0.27
0 8 6 o 1645.078 1608.607 180.00 1.49860 0.28
4 3 3 o 3401.565 2660.801 0.00 1.48049 1.15
0 8 8 o 1029.291 1190.997 0.00 1.28394 0.13
0 12 4 o 4.850 6.328 180.00 1.26254 0.00
4 5 1 o 2867.888 2881.097 0.00 1.45927 0.94
2 10 4 o 725.987 660.496 0.00 1.34043 0.20
3 6 5 o 81.278 55.644 180.00 1.43372 0.03
4 4 2 o 2315.462 1641.010 180.00 1.48505 0.79
4 3 5 o 176.709 186.860 180.00 1.35034 0.05
4 6 0 o 4530.964 4102.293 180.00 1.40759 0.69
1 8 7 o 266.348 267.934 0.00 1.35661 0.08
3 7 4 o 71.596 35.900 0.00 1.43898 0.02
3 11 2 o 360.788 460.420 0.00 1.21145 0.08
3 6 7 o 521.548 671.898 180.00 1.26514 0.13
3 10 3 o 428.103 517.939 180.00 1.25775 0.11
4 4 4 o 1358.262 1173.646 0.00 1.38332 0.40
1 10 5 o 340.247 317.466 0.00 1.36226 0.10
4 6 2 o 1641.624 1599.176 0.00 1.37651 0.48
4 7 1 o 2778.275 2782.462 180.00 1.33775 0.77
4 8 0 o 1731.092 2084.564 0.00 1.28165 0.22
0 11 5 o 505.272 550.987 0.00 1.29780 0.07
4 5 3 o 807.432 686.184 180.00 1.39253 0.24
4 4 6 o 51.407 65.724 180.00 1.25213 0.01
2 9 5 o 4278.485 3786.573 180.00 1.36360 1.23
2 8 6 o 3057.472 2738.607 0.00 1.36334 0.88
3 7 6 o 37.787 45.017 0.00 1.29296 0.01
4 8 2 o 1778.679 2148.707 180.00 1.25806 0.44
3 9 4 o 122.471 138.594 180.00 1.28899 0.03
1 9 6 o 355.654 413.579 180.00 1.37149 0.10
4 5 5 o 609.219 686.846 0.00 1.28259 0.16
4 9 1 o 1399.504 1785.317 0.00 1.21472 0.32
0 9 7 o 8.859 10.842 180.00 1.30928 0.00
3 8 5 o 76.688 95.894 180.00 1.30129 0.02
4 7 3 o 953.682 1077.904 0.00 1.28577 0.25
4 6 4 o 337.259 394.441 180.00 1.29433 0.09
0 10 6 o 0.703 1.336 0.00 1.31412 0.00
5 0 1 o 1953.272 2473.149 0.00 1.30706 0.26
5 1 2 o 509.337 560.543 0.00 1.28423 0.13
5 0 3 o 1.070 1.314 0.00 1.25845 0.00
5 1 4 o 12.411 14.781 0.00 1.21673 0.00
5 2 1 o 392.558 609.361 0.00 1.29077 0.10
5 2 3 o 471.130 402.648 0.00 1.24389 0.11
2 9 7 o 58.375 72.004 0.00 1.21618 0.01
5 3 2 o 498.033 657.629 0.00 1.25385 0.12
1 11 6 o 155.280 185.347 0.00 1.21242 0.04
5 4 1 o 4.471 4.718 180.00 1.24534 0.00
2 10 6 o 230.380 302.547 180.00 1.22006 0.05
1 10 7 o 136.951 191.573 180.00 1.21522 0.03
