#------------------------------------------------------------------------------
#$Date: 2016-03-21 01:21:50 +0200 (Mon, 21 Mar 2016) $
#$Revision: 178377 $
#$URL: svn://www.crystallography.net/cod/cif/4/00/21/4002125.cif $
#------------------------------------------------------------------------------
#
# This file is available in the Crystallography Open Database (COD),
# http://www.crystallography.net/
#
# All data on this site have been placed in the public domain by the
# contributors.
#
data_4002125
loop_
_publ_author_name
'Nanthamathee, Chompoonoot'
'Ling, Sanliang'
'Slater, Ben'
'Attfield, Martin P.'
_publ_section_title
;
 Contradistinct Thermoresponsive Behavior of Isostructural MIL-53 Type
 Metal--Organic Frameworks by Modifying the Framework Inorganic Anion
;
_journal_name_full               'Chemistry of Materials'
_journal_page_first              141223143002002
_journal_paper_doi               10.1021/cm503311x
_journal_year                    2014
_chemical_formula_sum            'C8 Al F O4'
_chemical_formula_weight         206.06
_chemical_name_systematic        ' ?'
_space_group_IT_number           15
_symmetry_cell_setting           monoclinic
_symmetry_space_group_name_Hall  '-I 2b'
_symmetry_space_group_name_H-M   'I 1 1 2/b'
_audit_creation_date             2014-08-28T12:44
_audit_creation_method           'from EXP file using GSAS2CIF'
_audit_update_record
' 2014-08-28T12:44  Initial CIF as created by GSAS2CIF'
_cell_angle_alpha                90.0
_cell_angle_beta                 90.0
_cell_angle_gamma                90.2748(18)
_cell_formula_units_Z            4
_cell_length_a                   6.56220(15)
_cell_length_b                   16.4151(5)
_cell_length_c                   13.1768(6)
_cell_volume                     1419.38(8)
_computing_structure_refinement  GSAS
_diffrn_radiation_polarisn_ratio 0.95
_diffrn_radiation_probe          x-ray
_diffrn_radiation_wavelength     0.827154
_exptl_absorpt_correction_T_max  1.00000
_exptl_absorpt_correction_T_min  1.00000
_exptl_absorpt_process_details
;   GSAS Absorption/surface roughness correction: function number 0
 No correction is applied.
;
_pd_block_id                     2014-08-28T12:44|150K||
_pd_calc_method                  'Rietveld Refinement'
_pd_instr_location               ' ?'
_pd_meas_2theta_range_inc        0.004
_pd_meas_2theta_range_max        150.01401
_pd_meas_2theta_range_min        0.002
_pd_meas_number_of_points        37504
_pd_phase_name                   11K
_pd_proc_2theta_range_inc        0.004
_pd_proc_2theta_range_max        150.06902
_pd_proc_2theta_range_min        0.05702
_pd_proc_info_datetime           2014-08-28T12:44:05
_pd_proc_info_excluded_regions   ' ?'
_pd_proc_ls_background_function
;   GSAS Background function number 1 with  2 terms.
 Shifted Chebyshev function of 1st kind
      1:    0.00000     2:    0.00000    
;
_pd_proc_ls_peak_cutoff          0.00050
_pd_proc_ls_profile_function
;
 CW Profile function number 4 with  21 terms
 Pseudovoigt profile coefficients as parameterized in
 P. Thompson, D.E. Cox & J.B. Hastings (1987). J. Appl. Cryst.,20,79-83.
 Asymmetry correction of L.W. Finger, D.E. Cox & A. P. Jephcoat (1994).
 J. Appl. Cryst.,27,892-900.
 Microstrain broadening by P.W. Stephens,  (1999). J. Appl. Cryst.,32,281-289.
 Peak tails are ignored  where the intensity is below 0.0005 times the peak
   Aniso. broadening axis   0.0   2.0   2.0
;
_pd_proc_ls_prof_R_factor        0.0815
_pd_proc_ls_prof_wR_expected     0.0464
_pd_proc_ls_prof_wR_factor       0.1075
_pd_proc_number_of_points        37504
_pd_spec_mounting                ' ?'
_refine_ls_goodness_of_fit_all   2.32
_refine_ls_matrix_type           full
_refine_ls_number_parameters     40
_refine_ls_number_restraints     0
_refine_ls_R_Fsqd_factor         0.32016
_refine_ls_shift/su_max          0.01
_refine_ls_shift/su_mean         0.00
_reflns_d_resolution_high        1.080
_reflns_d_resolution_low         8.207
_reflns_limit_h_max              6
_reflns_limit_h_min              -6
_reflns_limit_k_max              15
_reflns_limit_k_min              0
_reflns_limit_l_max              12
_reflns_limit_l_min              0
_reflns_number_total             527
_cod_data_source_file            alf150K.cif
_cod_data_source_block           150K_publ
_cod_depositor_comments
;
The following automatic conversions were performed:

'_geom_bond_publ_flag' value 'N' changed to 'n' according to
/home/saulius/struct/COD-crude-data--automatic-downloads/rss-feeds/ACS/lib/dictionaries/cif_core.dic
dictionary named 'cif_core.dic' version 2.4.2 from 2011-04-26 (22
times).

'_geom_angle_publ_flag' value 'N' changed to 'n' according
to
/home/saulius/struct/COD-crude-data--automatic-downloads/rss-feeds/ACS/lib/dictionaries/cif_core.dic
dictionary named 'cif_core.dic' version 2.4.2 from 2011-04-26 (26
times).

Automatic conversion script
Id: cif_fix_values 2935 2014-11-11 08:27:57Z andrius 
;
_cod_original_cell_volume        1419.37(8)
_cod_database_code               4002125
#BEGIN Tags that were not found in dictionaries:
_gsas_exptl_extinct_corr_t_min   1.00000
_gsas_exptl_extinct_corr_t_max   1.00000
#END Tags that were not found in dictionaries
loop_
_symmetry_equiv_pos_site_id
_symmetry_equiv_pos_as_xyz
1 +x,+y,+z
2 -x,-y+1/2,+z
-1 -x,-y,-z
-2 +x,+y+1/2,-z
101 +x+1/2,+y+1/2,+z+1/2
102 -x+1/2,-y,+z+1/2
-101 -x+1/2,-y+1/2,-z+1/2
-102 +x+1/2,+y,-z+1/2
loop_
_atom_site_type_symbol
_atom_site_label
_atom_site_fract_x
_atom_site_fract_y
_atom_site_fract_z
_atom_site_occupancy
_atom_site_thermal_displace_type
_atom_site_U_iso_or_equiv
_atom_site_symmetry_multiplicity
Al Al1 0.25 0.25 0.75 1.0 Uiso 0.0463(17) 4
F F 0.0 0.25 0.6913(4) 1.0 Uiso 0.0248(10) 4
O O1 0.1669(9) 0.1699(4) 0.8499(7) 1.0 Uiso 0.0248(10) 8
O O2 -0.1764(10) 0.6634(4) -0.8360(6) 1.0 Uiso 0.0248(10) 8
C C3 -0.2013(19) 0.0293(8) -0.0419(10) 1.0 Uiso 0.0327(17) 8
C C2 0.0039(27) 0.0608(5) 0.9420(7) 1.0 Uiso 0.0327(17) 8
C C1 0.0000(20) 0.1386(5) 0.8687(7) 1.0 Uiso 0.0327(17) 8
C C4 0.1931(19) 0.5363(8) -0.9692(11) 1.0 Uiso 0.0327(17) 8
loop_
_atom_type_symbol
_atom_type_number_in_cell
_atom_type_scat_dispersion_real
_atom_type_scat_dispersion_imag
_atom_type_scat_Cromer_Mann_a1
_atom_type_scat_Cromer_Mann_a2
_atom_type_scat_Cromer_Mann_a3
_atom_type_scat_Cromer_Mann_a4
_atom_type_scat_Cromer_Mann_b1
_atom_type_scat_Cromer_Mann_b2
_atom_type_scat_Cromer_Mann_b3
_atom_type_scat_Cromer_Mann_b4
_atom_type_scat_Cromer_Mann_c
_atom_type_scat_source
Al 4.0 0.000 0.000 6.42020 3.03870 1.90020 0.74260 1.59360 31.5472 1.96460
85.0886 1.11510 International_Tables_Vol_C
F 4.0 0.000 0.000 3.53920 10.2825 2.64120 4.29440 1.51700 0.26150 1.02430
26.1476 0.27760 International_Tables_Vol_C
O 16.0 0.000 0.000 3.04850 13.2771 2.28680 5.70110 1.54630 0.32390 0.86700
32.9089 0.25080 International_Tables_Vol_C
C 32.0 0.000 0.000 2.31000 20.8439 1.02000 10.2075 1.58860 0.56870 0.86500
51.6512 0.21560 International_Tables_Vol_C
loop_
_geom_angle_atom_site_label_1
_geom_angle_atom_site_label_2
_geom_angle_atom_site_label_3
_geom_angle
_geom_angle_site_symmetry_1
_geom_angle_site_symmetry_3
_geom_angle_publ_flag
F Al1 F 180.0 1_555 -101_566 n
F Al1 O1 92.16(20) 1_555 1_555 n
F Al1 O1 87.84(20) 1_555 -101_445 n
F Al1 O2 91.21(22) 1_555 -1_565 n
F Al1 O2 88.79(22) 1_555 101_546 n
F Al1 O1 87.84(20) -101_445 1_555 n
F Al1 O1 92.16(20) -101_445 -101_445 n
F Al1 O2 88.79(22) -101_445 -1_565 n
F Al1 O2 91.21(22) -101_445 101_546 n
O1 Al1 O1 180.0 1_555 -101_445 n
O1 Al1 O2 91.79(23) 1_555 -1_565 n
O1 Al1 O2 88.21(23) 1_555 101_546 n
O1 Al1 O2 88.21(23) -101_445 -1_565 n
O1 Al1 O2 91.79(23) -101_445 101_546 n
O2 Al1 O2 180.0 -1_565 101_546 n
Al1 F Al1 129.55(32) 1_555 2_555 n
Al1 O1 C1 131.8(8) 1_555 1_555 n
Al1 O2 C1 131.8(7) -1_565 -2_565 n
C2 C3 C4 108.9(11) 1_554 2_556 n
C3 C2 C1 110.7(14) 1_556 1_555 n
C3 C2 C4 134.6(9) 1_556 -2_555 n
C1 C2 C4 114.5(14) 1_555 -2_555 n
O1 C1 O2 126.3(8) 1_555 -2_444 n
O1 C1 C2 115.9(12) 1_555 1_555 n
O2 C1 C2 117.8(11) -2_555 1_555 n
C3 C4 C2 115.8(11) 2_554 -2_565 n
loop_
_geom_bond_atom_site_label_1
_geom_bond_atom_site_label_2
_geom_bond_distance
_geom_bond_site_symmetry_2
_geom_bond_publ_flag
Al1 F 1.8135(24) 1_555 n
Al1 F 1.8135(24) -101_445 n
Al1 O1 1.937(7) 1_555 n
Al1 O1 1.937(7) -101_445 n
Al1 O2 1.883(7) -1_565 n
Al1 O2 1.883(7) 101_546 n
F Al1 1.8135(24) 1_555 n
F Al1 1.8135(24) 2_555 n
O1 Al1 1.937(7) 1_555 n
O1 C1 1.233(12) 1_555 n
O2 Al1 1.883(7) -1_565 n
O2 C1 1.303(11) -2_555 n
C3 C2 1.456(14) 1_554 n
C3 C4 1.441(9) 2_556 n
C2 C3 1.456(14) 1_556 n
C2 C1 1.601(8) 1_555 n
C2 C4 1.355(14) -2_545 n
C1 O1 1.233(12) 1_555 n
C1 O2 1.303(11) -2_545 n
C1 C2 1.601(8) 1_555 n
C4 C3 1.441(9) 2_554 n
C4 C2 1.355(14) -2_555 n
loop_
_pd_meas_intensity_total
_pd_proc_ls_weight
_pd_proc_intensity_bkg_calc
_pd_calc_intensity_total
13(4) 0.0 0.0 .
12.0(35) 0.0 0.00 .
15(4) 0.0 0.0 .
17(4) 0.0 0.0 .
21(5) 0.0 0.0 .
13(4) 0.0 0.0 .
12.0(35) 0.0 0.00 .
15(4) 0.0 0.0 .
9.0(30) 0.0 0.00 .
22(5) 0.0 0.0 .
20(4) 0.0 0.0 .
14(4) 0.0 0.0 .
11.0(33) 0.0 0.00 .
13(4) 0.0 0.0 .
14(4) 0.0 0.0 .
16(4) 0.0 0.0 .
12.0(35) 0.0 0.00 .
17(4) 0.0 0.0 .
14(4) 0.0 0.0 .
25(5) 0.0 0.0 .
17(4) 0.0 0.0 .
12.0(35) 0.0 0.00 .
21(5) 0.0 0.0 .
10.0(32) 0.0 0.00 .
18(4) 0.0 0.0 .
16(4) 0.0 0.0 .
9.0(30) 0.0 0.00 .
9.0(30) 0.0 0.00 .
10.0(32) 0.0 0.00 .
11.0(33) 0.0 0.00 .
18(4) 0.0 0.0 .
18(4) 0.0 0.0 .
18(4) 0.0 0.0 .
19(4) 0.0 0.0 .
19(4) 0.0 0.0 .
14(4) 0.0 0.0 .
14(4) 0.0 0.0 .
11.0(33) 0.0 0.00 .
10.0(32) 0.0 0.00 .
15(4) 0.0 0.0 .
16(4) 0.0 0.0 .
11.0(33) 0.0 0.00 .
19(4) 0.0 0.0 .
16(4) 0.0 0.0 .
19(4) 0.0 0.0 .
13(4) 0.0 0.0 .
13(4) 0.0 0.0 .
18(4) 0.0 0.0 .
13(4) 0.0 0.0 .
14(4) 0.0 0.0 .
14(4) 0.0 0.0 .
12.0(35) 0.0 0.00 .
8.0(28) 0.0 0.00 .
15(4) 0.0 0.0 .
18(4) 0.0 0.0 .
15(4) 0.0 0.0 .
18(4) 0.0 0.0 .
16(4) 0.0 0.0 .
17(4) 0.0 0.0 .
15(4) 0.0 0.0 .
6.0(24) 0.0 0.00 .
14(4) 0.0 0.0 .
14(4) 0.0 0.0 .
18(4) 0.0 0.0 .
15(4) 0.0 0.0 .
15(4) 0.0 0.0 .
11.0(33) 0.0 0.00 .
13(4) 0.0 0.0 .
18(4) 0.0 0.0 .
7.0(26) 0.0 0.00 .
11.0(33) 0.0 0.00 .
8.0(28) 0.0 0.00 .
11.0(33) 0.0 0.00 .
14(4) 0.0 0.0 .
17(4) 0.0 0.0 .
12.0(35) 0.0 0.00 .
16(4) 0.0 0.0 .
15(4) 0.0 0.0 .
15(4) 0.0 0.0 .
16(4) 0.0 0.0 .
17(4) 0.0 0.0 .
14(4) 0.0 0.0 .
20(4) 0.0 0.0 .
17(4) 0.0 0.0 .
10.0(32) 0.0 0.00 .
16(4) 0.0 0.0 .
15(4) 0.0 0.0 .
16(4) 0.0 0.0 .
12.0(35) 0.0 0.00 .
17(4) 0.0 0.0 .
19(4) 0.0 0.0 .
13(4) 0.0 0.0 .
14(4) 0.0 0.0 .
13(4) 0.0 0.0 .
11.0(33) 0.0 0.00 .
10.0(32) 0.0 0.00 .
18(4) 0.0 0.0 .
16(4) 0.0 0.0 .
18(4) 0.0 0.0 .
18(4) 0.0 0.0 .
15(4) 0.0 0.0 .
16(4) 0.0 0.0 .
26(5) 0.0 0.0 .
19(4) 0.0 0.0 .
25(5) 0.0 0.0 .
21(5) 0.0 0.0 .
29(5) 0.0 0.0 .
27(5) 0.0 0.0 .
47(7) 0.0 0.0 .
67(8) 0.0 0.0 .
88(9) 0.0 0.0 .
93(10) 0.0 0.0 .
134(12) 0.0 0.0 .
156(12) 0.0 0.0 .
210(14) 0.0 0.0 .
300(17) 0.0 0.0 .
380(19) 0.0 0.0 .
488(22) 0.0 0.0 .
616(25) 0.0 0.0 .
698(26) 0.0 0.0 .
827(29) 0.0 0.0 .
965(31) 0.0 0.0 .
1038(32) 0.0 0.0 .
1008(32) 0.0 0.0 .
999(32) 0.0 0.0 .
1009(32) 0.0 0.0 .
973(31) 0.0 0.0 .
940(31) 0.0 0.0 .
997(32) 0.0 0.0 .
955(31) 0.0 0.0 .
893(30) 0.0 0.0 .
964(31) 0.0 0.0 .
916(30) 0.0 0.0 .
850(29) 0.0 0.0 .
886(30) 0.0 0.0 .
836(29) 0.0 0.0 .
886(30) 0.0 0.0 .
810(28) 0.0 0.0 .
856(29) 0.0 0.0 .
733(27) 0.0 0.0 .
687(26) 0.0 0.0 .
680(26) 0.0 0.0 .
616(25) 0.0 0.0 .
640(25) 0.0 0.0 .
558(24) 0.0 0.0 .
560(24) 0.0 0.0 .
500(22) 0.0 0.0 .
456(21) 0.0 0.0 .
443(21) 0.0 0.0 .
448(21) 0.0 0.0 .
377(19) 0.0 0.0 .
419(20) 0.0 0.0 .
386(20) 0.0 0.0 .
397(20) 0.0 0.0 .
350(19) 0.0 0.0 .
375(19) 0.0 0.0 .
343(19) 0.0 0.0 .
344(19) 0.0 0.0 .
344(19) 0.0 0.0 .
350(19) 0.0 0.0 .
374(19) 0.0 0.0 .
340(18) 0.0 0.0 .
322(18) 0.0 0.0 .
354(19) 0.0 0.0 .
363(19) 0.0 0.0 .
346(19) 0.0 0.0 .
342(18) 0.0 0.0 .
353(19) 0.0 0.0 .
356(19) 0.0 0.0 .
353(19) 0.0 0.0 .
304(17) 0.0 0.0 .
345(19) 0.0 0.0 .
312(18) 0.0 0.0 .
336(18) 0.0 0.0 .
357(19) 0.0 0.0 .
336(18) 0.0 0.0 .
356(19) 0.0 0.0 .
361(19) 0.0 0.0 .
316(18) 0.0 0.0 .
393(20) 0.0 0.0 .
389(20) 0.0 0.0 .
370(19) 0.0 0.0 .
355(19) 0.0 0.0 .
355(19) 0.0 0.0 .
355(19) 0.0 0.0 .
393(20) 0.0 0.0 .
395(20) 0.0 0.0 .
388(20) 0.0 0.0 .
413(20) 0.0 0.0 .
381(20) 0.0 0.0 .
421(21) 0.0 0.0 .
368(19) 0.0 0.0 .
395(20) 0.0 0.0 .
373(19) 0.0 0.0 .
391(20) 0.0 0.0 .
401(20) 0.0 0.0 .
400(20) 0.0 0.0 .
401(20) 0.0 0.0 .
409(20) 0.0 0.0 .
413(20) 0.0 0.0 .
427(21) 0.0 0.0 .
426(21) 0.0 0.0 .
434(21) 0.0 0.0 .
422(21) 0.0 0.0 .
440(21) 0.0 0.0 .
458(21) 0.0 0.0 .
449(21) 0.0 0.0 .
472(22) 0.0 0.0 .
428(21) 0.0 0.0 .
472(22) 0.0 0.0 .
437(21) 0.0 0.0 .
453(21) 0.0 0.0 .
495(22) 0.0 0.0 .
480(22) 0.0 0.0 .
453(21) 0.0 0.0 .
479(22) 0.0 0.0 .
443(21) 0.0 0.0 .
467(22) 0.0 0.0 .
498(22) 0.0 0.0 .
468(22) 0.0 0.0 .
513(23) 0.0 0.0 .
509(23) 0.0 0.0 .
506(22) 0.0 0.0 .
529(23) 0.0 0.0 .
505(22) 0.0 0.0 .
564(24) 0.0 0.0 .
534(23) 0.0 0.0 .
576(24) 0.0 0.0 .
580(24) 0.0 0.0 .
600(24) 0.0 0.0 .
618(25) 0.0 0.0 .
682(26) 0.0 0.0 .
708(27) 0.0 0.0 .
790(28) 0.0 0.0 .
932(31) 0.0 0.0 .
1005(32) 0.0 0.0 .
1117(33) 0.0 0.0 .
1267(36) 0.0 0. .
1448(38) 0.0 0. .
1665(41) 0.0 0. .
1771(42) 0.0 0. .
1919(44) 0.0 0. .
2095(46) 0.0 0. .
2284(48) 0.0 0. .
2579(51) 0.0 0. .
2828(53) 0.0 0. .
2989(55) 0.0 0. .
3381(58) 0.0 0. .
3897(62) 0.0 0. .
3981(63) 0.0 0. .
4298(66) 0.0 0. .
4895(70) 0.0 0. .
5396(73) 0.0 0. .
6071(78) 0.0 0. .
6763(82) 0.0 0. .
7425(86) 0.0 0. .
8215(91) 0.0 0. .
9032(95) 0.0 0. .
9810(99) 0.0 0. .
10660(100) 0.0 0. .
11820(110) 0.0 0. .
12570(110) 0.0 0. .
13170(120) 0.0 0. .
13600(120) 0.0 0. .
14520(120) 0.0 0. .
14480(120) 0.0 0. .
14920(120) 0.0 0. .
15460(120) 0.0 0. .
16260(130) 0.0 0. .
16400(130) 0.0 0. .
16830(130) 0.0 0. .
16940(130) 0.0 0. .
16480(130) 0.0 0. .
16940(130) 0.0 0. .
16590(130) 0.0 0. .
16830(130) 0.0 0. .
16920(130) 0.0 0. .
17280(130) 0.0 0. .
17330(130) 0.0 0. .
17180(130) 0.0 0. .
17060(130) 0.0 0. .
17250(130) 0.0 0. .
16950(130) 0.0 0. .
16710(130) 0.0 0. .
17290(130) 0.0 0. .
17310(130) 0.0 0. .
16950(130) 0.0 0. .
17020(130) 0.0 0. .
16610(130) 0.0 0. .
17040(130) 0.0 0. .
17540(130) 0.0 0. .
16710(130) 0.0 0. .
17180(130) 0.0 0. .
17660(130) 0.0 0. .
16860(130) 0.0 0. .
17400(130) 0.0 0. .
16880(130) 0.0 0. .
16760(130) 0.0 0. .
17050(130) 0.0 0. .
16540(130) 0.0 0. .
16230(130) 0.0 0. .
16340(130) 0.0 0. .
15830(130) 0.0 0. .
15620(130) 0.0 0. .
15210(120) 0.0 0. .
14900(120) 0.0 0. .
15290(120) 0.0 0. .
14730(120) 0.0 0. .
14340(120) 0.0 0. .
14710(120) 0.0 0. .
14120(120) 0.0 0. .
14260(120) 0.0 0. .
14310(120) 0.0 0. .
14110(120) 0.0 0. .
14200(120) 0.0 0. .
13890(120) 0.0 0. .
13820(120) 0.0 0. .
13580(120) 0.0 0. .
13810(120) 0.0 0. .
13680(120) 0.0 0. .
13470(120) 0.0 0. .
13690(120) 0.0 0. .
13630(120) 0.0 0. .
13180(120) 0.0 0. .
13030(110) 0.0 0. .
12950(110) 0.0 0. .
12940(110) 0.0 0. .
12620(110) 0.0 0. .
12250(110) 0.0 0. .
12120(110) 0.0 0. .
11970(110) 0.0 0. .
11740(110) 0.0 0. .
11630(110) 0.0 0. .
11260(110) 0.0 0. .
11390(110) 0.0 0. .
11050(110) 0.0 0. .
11100(110) 0.0 0. .
10950(110) 0.0 0. .
10850(100) 0.0 0. .
11030(110) 0.0 0. .
11090(110) 0.0 0. .
10790(100) 0.0 0. .
10500(100) 0.0 0. .
10320(100) 0.0 0. .
10380(100) 0.0 0. .
10510(100) 0.0 0. .
10720(100) 0.0 0. .
10540(100) 0.0 0. .
10470(100) 0.0 0. .
10260(100) 0.0 0. .
10380(100) 0.0 0. .
10380(100) 0.0 0. .
10250(100) 0.0 0. .
10270(100) 0.0 0. .
10260(100) 0.0 0. .
9940(100) 0.0 0. .
9970(100) 0.0 0. .
9719(99) 0.0 0. .
9382(97) 0.0 0. .
9482(97) 0.0 0. .
9378(97) 0.0 0. .
9204(96) 0.0 0. .
8984(95) 0.0 0. .
8881(94) 0.0 0. .
8896(94) 0.0 0. .
8933(95) 0.0 0. .
8768(94) 0.0 0. .
8502(92) 0.0 0. .
8305(91) 0.0 0. .
8109(90) 0.0 0. .
8263(91) 0.0 0. .
8410(92) 0.0 0. .
8032(90) 0.0 0. .
8158(90) 0.0 0. .
8268(91) 0.0 0. .
8120(90) 0.0 0. .
8191(91) 0.0 0. .
8282(91) 0.0 0. .
8123(90) 0.0 0. .
8182(90) 0.0 0. .
7832(88) 0.0 0. .
7906(89) 0.0 0. .
7765(88) 0.0 0. .
7525(87) 0.0 0. .
7505(87) 0.0 0. .
7758(88) 0.0 0. .
7539(87) 0.0 0. .
7362(86) 0.0 0. .
7401(86) 0.0 0. .
7497(87) 0.0 0. .
7513(87) 0.0 0. .
7396(86) 0.0 0. .
7283(85) 0.0 0. .
7505(87) 0.0 0. .
7357(86) 0.0 0. .
7313(86) 0.0 0. .
7406(86) 0.0 0. .
6956(83) 0.0 0. .
7066(84) 0.0 0. .
6991(84) 0.0 0. .
6953(83) 0.0 0. .
7009(84) 0.0 0. .
7105(84) 0.0 0. .
6912(83) 0.0 0. .
6916(83) 0.0 0. .
6897(83) 0.0 0. .
6899(83) 0.0 0. .
6922(83) 0.0 0. .
6861(83) 0.0 0. .
6799(82) 0.0 0. .
6692(82) 0.0 0. .
6463(80) 0.0 0. .
6181(79) 0.0 0. .
6688(82) 0.0 0. .
6496(81) 0.0 0. .
6488(81) 0.0 0. .
6385(80) 0.0 0. .
6167(79) 0.0 0. .
6230(79) 0.0 0. .
6364(80) 0.0 0. .
5939(77) 0.0 0. .
5989(77) 0.0 0. .
5978(77) 0.0 0. .
5869(77) 0.0 0. .
6127(78) 0.0 0. .
5830(76) 0.0 0. .
5987(77) 0.0 0. .
6112(78) 0.0 0. .
5903(77) 0.0 0. .
5967(77) 0.0 0. .
5895(77) 0.0 0. .
5968(77) 0.0 0. .
6183(79) 0.0 0. .
5955(77) 0.0 0. .
6080(78) 0.0 0. .
6118(78) 0.0 0. .
5827(76) 0.0 0. .
5756(76) 0.0 0. .
5942(77) 0.0 0. .
5818(76) 0.0 0. .
5774(76) 0.0 0. .
5683(75) 0.0 0. .
5731(76) 0.0 0. .
5562(75) 0.0 0. .
5599(75) 0.0 0. .
5504(74) 0.0 0. .
5323(73) 0.0 0. .
5291(73) 0.0 0. .
5490(74) 0.0 0. .
5472(74) 0.0 0. .
5344(73) 0.0 0. .
5265(73) 0.0 0. .
5304(73) 0.0 0. .
5197(72) 0.0 0. .
5329(73) 0.0 0. .
5147(72) 0.0 0. .
5325(73) 0.0 0. .
5255(72) 0.0 0. .
5219(72) 0.0 0. .
5159(72) 0.0 0. .
5068(71) 0.0 0. .
5110(71) 0.0 0. .
5230(72) 0.0 0. .
5004(71) 0.0 0. .
5075(71) 0.0 0. .
5020(71) 0.0 0. .
4903(70) 0.0 0. .
4961(70) 0.0 0. .
4976(71) 0.0 0. .
4942(70) 0.0 0. .
4928(70) 0.0 0. .
4708(69) 0.0 0. .
4924(70) 0.0 0. .
4882(70) 0.0 0. .
4692(68) 0.0 0. .
4776(69) 0.0 0. .
4721(69) 0.0 0. .
4739(69) 0.0 0. .
4651(68) 0.0 0. .
4618(68) 0.0 0. .
4668(68) 0.0 0. .
4815(69) 0.0 0. .
4668(68) 0.0 0. .
4519(67) 0.0 0. .
4650(68) 0.0 0. .
4603(68) 0.0 0. .
4758(69) 0.0 0. .
4394(66) 0.0 0. .
4462(67) 0.0 0. .
4485(67) 0.0 0. .
4426(67) 0.0 0. .
4423(67) 0.0 0. .
4198(65) 0.0 0. .
4320(66) 0.0 0. .
4330(66) 0.0 0. .
4170(65) 0.0 0. .
4211(65) 0.0 0. .
4295(66) 0.0 0. .
4125(64) 0.0 0. .
3986(63) 0.0 0. .
4096(64) 0.0 0. .
3952(63) 0.0 0. .
3929(63) 0.0 0. .
3875(62) 0.0 0. .
3851(62) 0.0 0. .
3835(62) 0.0 0. .
3829(62) 0.0 0. .
3768(61) 0.0 0. .
3755(61) 0.0 0. .
3870(62) 0.0 0. .
3818(62) 0.0 0. .
3735(61) 0.0 0. .
3743(61) 0.0 0. .
3691(61) 0.0 0. .
3711(61) 0.0 0. .
3662(61) 0.0 0. .
3634(60) 0.0 0. .
3554(60) 0.0 0. .
3524(59) 0.0 0. .
3527(59) 0.0 0. .
3451(59) 0.0 0. .
3335(58) 0.0 0. .
3380(58) 0.0 0. .
3323(58) 0.0 0. .
3291(57) 0.0 0. .
3191(56) 0.0 0. .
3034(55) 0.0 0. .
2969(54) 0.0 0. .
2839(53) 0.0 0. .
2959(54) 0.0 0. .
2774(53) 0.0 0. .
2771(53) 0.0 0. .
2769(53) 0.0 0. .
2733(52) 0.0 0. .
2642(51) 0.0 0. .
2731(52) 0.0 0. .
2622(51) 0.0 0. .
2602(51) 0.0 0. .
2717(52) 0.0 0. .
2656(52) 0.0 0. .
2526(50) 0.0 0. .
2493(50) 0.0 0. .
2485(50) 0.0 0. .
2471(50) 0.0 0. .
2511(50) 0.0 0. .
2383(49) 0.0 0. .
2391(49) 0.0 0. .
2439(49) 0.0 0. .
2277(48) 0.0 0. .
2367(49) 0.0 0. .
2317(48) 0.0 0. .
2328(48) 0.0 0. .
2238(47) 0.0 0. .
2213(47) 0.0 0. .
2099(46) 0.0 0. .
2071(46) 0.0 0. .
2008(45) 0.0 0. .
2023(45) 0.0 0. .
2029(45) 0.0 0. .
1948(44) 0.0 0. .
1905(44) 0.0 0. .
1914(44) 0.0 0. .
1827(43) 0.0 0. .
1824(43) 0.0 0. .
1879(43) 0.0 0. .
1872(43) 0.0 0. .
1786(42) 0.0 0. .
1757(42) 0.0 0. .
1742(42) 0.0 0. .
1716(41) 0.0 0. .
1682(41) 0.0 0. .
1658(41) 0.0 0. .
1651(41) 0.0 0. .
1694(41) 0.0 0. .
1681(41) 0.0 0. .
1717(41) 0.0 0. .
1633(40) 0.0 0. .
1638(40) 0.0 0. .
1501(39) 0.0 0. .
1505(39) 0.0 0. .
1535(39) 0.0 0. .
1525(39) 0.0 0. .
1500(39) 0.0 0. .
1454(38) 0.0 0. .
1364(37) 0.0 0. .
1420(38) 0.0 0. .
1370(37) 0.0 0. .
1465(38) 0.0 0. .
1466(38) 0.0 0. .
1468(38) 0.0 0. .
1517(39) 0.0 0. .
1439(38) 0.0 0. .
1425(38) 0.0 0. .
1375(37) 0.0 0. .
1384(37) 0.0 0. .
1363(37) 0.0 0. .
1368(37) 0.0 0. .
1327(36) 0.0 0. .
1375(37) 0.0 0. .
1268(36) 0.0 0. .
1243(35) 0.0 0. .
1183(34) 0.0 0.0 .
1180(34) 0.0 0.0 .
1219(35) 0.0 0.0 .
1177(34) 0.0 0.0 .
1166(34) 0.0 0.0 .
1152(34) 0.0 0.0 .
1044(32) 0.0 0.0 .
1108(33) 0.0 0.0 .
1035(32) 0.0 0.0 .
1005(32) 0.0 0.0 .
1060(33) 0.0 0.0 .
1070(33) 0.0 0.0 .
1046(32) 0.0 0.0 .
1054(32) 0.0 0.0 .
1007(32) 0.0 0.0 .
992(31) 0.0 0.0 .
1032(32) 0.0 0.0 .
991(31) 0.0 0.0 .
1023(32) 0.0 0.0 .
1014(32) 0.0 0.0 .
992(31) 0.0 0.0 .
1004(32) 0.0 0.0 .
969(31) 0.0 0.0 .
948(31) 0.0 0.0 .
944(31) 0.0 0.0 .
931(31) 0.0 0.0 .
939(31) 0.0 0.0 .
1022(32) 0.0 0.0 .
862(29) 0.0 0.0 .
900(30) 0.0 0.0 .
906(30) 0.0 0.0 .
924(30) 0.0 0.0 .
875(30) 0.0 0.0 .
873(30) 0.0 0.0 .
900(30) 0.0 0.0 .
880(30) 0.0 0.0 .
863(29) 0.0 0.0 .
877(30) 0.0 0.0 .
804(28) 0.0 0.0 .
770(28) 0.0 0.0 .
767(28) 0.0 0.0 .
817(29) 0.0 0.0 .
741(27) 0.0 0.0 .
751(27) 0.0 0.0 .
801(28) 0.0 0.0 .
762(28) 0.0 0.0 .
754(27) 0.0 0.0 .
775(28) 0.0 0.0 .
801(28) 0.0 0.0 .
782(28) 0.0 0.0 .
734(27) 0.0 0.0 .
688(26) 0.0 0.0 .
769(28) 0.0 0.0 .
727(27) 0.0 0.0 .
703(27) 0.0 0.0 .
722(27) 0.0 0.0 .
712(27) 0.0 0.0 .
676(26) 0.0 0.0 .
717(27) 0.0 0.0 .
634(25) 0.0 0.0 .
653(26) 0.0 0.0 .
666(26) 0.0 0.0 .
608(25) 0.0 0.0 .
696(26) 0.0 0.0 .
696(26) 0.0 0.0 .
628(25) 0.0 0.0 .
661(26) 0.0 0.0 .
633(25) 0.0 0.0 .
642(25) 0.0 0.0 .
686(26) 0.0 0.0 .
733(27) 0.0 0.0 .
719(27) 0.0 0.0 .
674(26) 0.0 0.0 .
735(27) 0.0 0.0 .
700(26) 0.0 0.0 .
692(26) 0.0 0.0 .
674(26) 0.0 0.0 .
677(26) 0.0 0.0 .
676(26) 0.0 0.0 .
624(25) 0.0 0.0 .
625(25) 0.0 0.0 .
665(26) 0.0 0.0 .
612(25) 0.0 0.0 .
518(23) 0.0 0.0 .
570(24) 0.0 0.0 .
543(23) 0.0 0.0 .
573(24) 0.0 0.0 .
522(23) 0.0 0.0 .
502(22) 0.0 0.0 .
450(21) 0.0 0.0 .
470(22) 0.0 0.0 .
464(22) 0.0 0.0 .
473(22) 0.0 0.0 .
463(22) 0.0 0.0 .
435(21) 0.0 0.0 .
438(21) 0.0 0.0 .
428(21) 0.0 0.0 .
405(20) 0.0 0.0 .
404(20) 0.0 0.0 .
370(19) 0.0 0.0 .
366(19) 0.0 0.0 .
367(19) 0.0 0.0 .
318(18) 0.0 0.0 .
352(19) 0.0 0.0 .
333(18) 0.0 0.0 .
339(18) 0.0 0.0 .
317(18) 0.0 0.0 .
322(18) 0.0 0.0 .
293(17) 0.0 0.0 .
308(18) 0.0 0.0 .
289(17) 0.0 0.0 .
275(17) 0.0 0.0 .
262(16) 0.0 0.0 .
266(16) 0.0 0.0 .
274(17) 0.0 0.0 .
265(16) 0.0 0.0 .
256(16) 0.0 0.0 .
239(15) 0.0 0.0 .
246(16) 0.0 0.0 .
283(17) 0.0 0.0 .
265(16) 0.0 0.0 .
254(16) 0.0 0.0 .
302(17) 0.0 0.0 .
281(17) 0.0 0.0 .
268(16) 0.0 0.0 .
295(17) 0.0 0.0 .
299(17) 0.0 0.0 .
305(17) 0.0 0.0 .
278(17) 0.0 0.0 .
290(17) 0.0 0.0 .
308(18) 0.0 0.0 .
318(18) 0.0 0.0 .
350(19) 0.0 0.0 .
350(19) 0.0 0.0 .
359(19) 0.0 0.0 .
320(18) 0.0 0.0 .
339(18) 0.0 0.0 .
329(18) 0.0 0.0 .
289(17) 0.0 0.0 .
278(17) 0.0 0.0 .
317(18) 0.0 0.0 .
317(18) 0.0 0.0 .
285(17) 0.0 0.0 .
301(17) 0.0 0.0 .
253(16) 0.0 0.0 .
238(15) 0.0 0.0 .
270(16) 0.0 0.0 .
253(16) 0.0 0.0 .
259(16) 0.0 0.0 .
238(15) 0.0 0.0 .
265(16) 0.0 0.0 .
243(16) 0.0 0.0 .
247(16) 0.0 0.0 .
221(15) 0.0 0.0 .
238(15) 0.0 0.0 .
265(16) 0.0 0.0 .
252(16) 0.0 0.0 .
215(15) 0.0 0.0 .
248(16) 0.0 0.0 .
236(15) 0.0 0.0 .
234(15) 0.0 0.0 .
204(14) 0.0 0.0 .
219(15) 0.0 0.0 .
219(15) 0.0 0.0 .
200(14) 0.0 0.0 .
217(15) 0.0 0.0 .
228(15) 0.0 0.0 .
215(15) 0.0 0.0 .
216(15) 0.0 0.0 .
201(14) 0.0 0.0 .
203(14) 0.0 0.0 .
200(14) 0.0 0.0 .
199(14) 0.0 0.0 .
201(14) 0.0 0.0 .
179(13) 0.0 0.0 .
192(14) 0.0 0.0 .
180(13) 0.0 0.0 .
185(14) 0.0 0.0 .
175(13) 0.0 0.0 .
179(13) 0.0 0.0 .
186(14) 0.0 0.0 .
191(14) 0.0 0.0 .
190(14) 0.0 0.0 .
163(13) 0.0 0.0 .
158(13) 0.0 0.0 .
173(13) 0.0 0.0 .
175(13) 0.0 0.0 .
177(13) 0.0 0.0 .
170(13) 0.0 0.0 .
167(13) 0.0 0.0 .
165(13) 0.0 0.0 .
149(12) 0.0 0.0 .
162(13) 0.0 0.0 .
179(13) 0.0 0.0 .
173(13) 0.0 0.0 .
161(13) 0.0 0.0 .
171(13) 0.0 0.0 .
157(13) 0.0 0.0 .
173(13) 0.0 0.0 .
167(13) 0.0 0.0 .
153(12) 0.0 0.0 .
148(12) 0.0 0.0 .
182(13) 0.0 0.0 .
162(13) 0.0 0.0 .
135(12) 0.0 0.0 .
146(12) 0.0 0.0 .
155(12) 0.0 0.0 .
171(13) 0.0 0.0 .
159(13) 0.0 0.0 .
147(12) 0.0 0.0 .
165(13) 0.0 0.0 .
156(12) 0.0 0.0 .
182(13) 0.0 0.0 .
170(13) 0.0 0.0 .
146(12) 0.0 0.0 .
180(13) 0.0 0.0 .
170(13) 0.0 0.0 .
153(12) 0.0 0.0 .
171(13) 0.0 0.0 .
152(12) 0.0 0.0 .
149(12) 0.0 0.0 .
155(12) 0.0 0.0 .
154(12) 0.0 0.0 .
146(12) 0.0 0.0 .
155(12) 0.0 0.0 .
150(12) 0.0 0.0 .
170(13) 0.0 0.0 .
152(12) 0.0 0.0 .
149(12) 0.0 0.0 .
159(13) 0.0 0.0 .
156(12) 0.0 0.0 .
179(13) 0.0 0.0 .
155(12) 0.0 0.0 .
171(13) 0.0 0.0 .
169(13) 0.0 0.0 .
145(12) 0.0 0.0 .
157(13) 0.0 0.0 .
143(12) 0.0 0.0 .
142(12) 0.0 0.0 .
154(12) 0.0 0.0 .
150(12) 0.0 0.0 .
173(13) 0.0 0.0 .
157(13) 0.0 0.0 .
154(12) 0.0 0.0 .
144(12) 0.0 0.0 .
161(13) 0.0 0.0 .
160(13) 0.0 0.0 .
155(12) 0.0 0.0 .
164(13) 0.0 0.0 .
158(13) 0.0 0.0 .
154(12) 0.0 0.0 .
153(12) 0.0 0.0 .
167(13) 0.0 0.0 .
170(13) 0.0 0.0 .
147(12) 0.0 0.0 .
157(13) 0.0 0.0 .
186(14) 0.0 0.0 .
150(12) 0.0 0.0 .
153(12) 0.0 0.0 .
138(12) 0.0 0.0 .
160(13) 0.0 0.0 .
161(13) 0.0 0.0 .
166(13) 0.0 0.0 .
158(13) 0.0 0.0 .
169(13) 0.0 0.0 .
140(12) 0.0 0.0 .
158(13) 0.0 0.0 .
159(13) 0.0 0.0 .
152(12) 0.0 0.0 .
131(11) 0.0 0.0 .
133(12) 0.0 0.0 .
163(13) 0.0 0.0 .
147(12) 0.0 0.0 .
143(12) 0.0 0.0 .
155(12) 0.0 0.0 .
151(12) 0.0 0.0 .
144(12) 0.0 0.0 .
143(12) 0.0 0.0 .
135(12) 0.0 0.0 .
162(13) 0.0 0.0 .
150(12) 0.0 0.0 .
153(12) 0.0 0.0 .
157(13) 0.0 0.0 .
145(12) 0.0 0.0 .
138(12) 0.0 0.0 .
148(12) 0.0 0.0 .
148(12) 0.0 0.0 .
159(13) 0.0 0.0 .
161(13) 0.0 0.0 .
157(13) 0.0 0.0 .
140(12) 0.0 0.0 .
154(12) 0.0 0.0 .
178(13) 0.0 0.0 .
160(13) 0.0 0.0 .
165(13) 0.0 0.0 .
143(12) 0.0 0.0 .
143(12) 0.0 0.0 .
134(12) 0.0 0.0 .
143(12) 0.0 0.0 .
138(12) 0.0 0.0 .
140(12) 0.0 0.0 .
140(12) 0.0 0.0 .
149(12) 0.0 0.0 .
169(13) 0.0 0.0 .
161(13) 0.0 0.0 .
157(13) 0.0 0.0 .
156(12) 0.0 0.0 .
137(12) 0.0 0.0 .
154(12) 0.0 0.0 .
157(13) 0.0 0.0 .
157(13) 0.0 0.0 .
151(12) 0.0 0.0 .
157(13) 0.0 0.0 .
155(12) 0.0 0.0 .
153(12) 0.0 0.0 .
160(13) 0.0 0.0 .
148(12) 0.0 0.0 .
147(12) 0.0 0.0 .
143(12) 0.0 0.0 .
162(13) 0.0 0.0 .
151(12) 0.0 0.0 .
170(13) 0.0 0.0 .
149(12) 0.0 0.0 .
159(13) 0.0 0.0 .
130(11) 0.0 0.0 .
147(12) 0.0 0.0 .
164(13) 0.0 0.0 .
127(11) 0.0 0.0 .
154(12) 0.0 0.0 .
161(13) 0.0 0.0 .
151(12) 0.0 0.0 .
132(11) 0.0 0.0 .
142(12) 0.0 0.0 .
154(12) 0.0 0.0 .
161(13) 0.0 0.0 .
135(12) 0.0 0.0 .
155(12) 0.0 0.0 .
152(12) 0.0 0.0 .
131(11) 0.0 0.0 .
136(12) 0.0 0.0 .
135(12) 0.0 0.0 .
140(12) 0.0 0.0 .
156(12) 0.0 0.0 .
154(12) 0.0 0.0 .
146(12) 0.0 0.0 .
133(12) 0.0 0.0 .
148(12) 0.0 0.0 .
171(13) 0.0 0.0 .
143(12) 0.0 0.0 .
146(12) 0.0 0.0 .
143(12) 0.0 0.0 .
160(13) 0.0 0.0 .
141(12) 0.0 0.0 .
134(12) 0.0 0.0 .
143(12) 0.0 0.0 .
167(13) 0.0 0.0 .
147(12) 0.0 0.0 .
150(12) 0.0 0.0 .
126(11) 0.0 0.0 .
152(12) 0.0 0.0 .
134(12) 0.0 0.0 .
146(12) 0.0 0.0 .
156(12) 0.0 0.0 .
155(12) 0.0 0.0 .
154(12) 0.0 0.0 .
161(13) 0.0 0.0 .
150(12) 0.0 0.0 .
162(13) 0.0 0.0 .
144(12) 0.0 0.0 .
130(11) 0.0 0.0 .
142(12) 0.0 0.0 .
158(13) 0.0 0.0 .
168(13) 0.0 0.0 .
156(12) 0.0 0.0 .
137(12) 0.0 0.0 .
137(12) 0.0 0.0 .
137(12) 0.0 0.0 .
142(12) 0.0 0.0 .
152(12) 0.0 0.0 .
133(12) 0.0 0.0 .
149(12) 0.0 0.0 .
158(13) 0.0 0.0 .
184(14) 0.0 0.0 .
138(12) 0.0 0.0 .
160(13) 0.0 0.0 .
175(13) 0.0 0.0 .
170(13) 0.0 0.0 .
157(13) 0.0 0.0 .
164(13) 0.0 0.0 .
167(13) 0.0 0.0 .
175(13) 0.0 0.0 .
145(12) 0.0 0.0 .
150(12) 0.0 0.0 .
177(13) 0.0 0.0 .
161(13) 0.0 0.0 .
173(13) 0.0 0.0 .
179(13) 0.0 0.0 .
142(12) 0.0 0.0 .
174(13) 0.0 0.0 .
154(12) 0.0 0.0 .
152(12) 0.0 0.0 .
155(12) 0.0 0.0 .
167(13) 0.0 0.0 .
159(13) 0.0 0.0 .
175(13) 0.0 0.0 .
164(13) 0.0 0.0 .
171(13) 0.0 0.0 .
181(13) 0.0 0.0 .
185(14) 0.0 0.0 .
182(13) 0.0 0.0 .
199(14) 0.0 0.0 .
170(13) 0.0 0.0 .
168(13) 0.0 0.0 .
208(14) 0.0 0.0 .
180(13) 0.0 0.0 .
162(13) 0.0 0.0 .
194(14) 0.0 0.0 .
170(13) 0.0 0.0 .
208(14) 0.0 0.0 .
206(14) 0.0 0.0 .
209(14) 0.0 0.0 .
206(14) 0.0 0.0 .
206(14) 0.0 0.0 .
218(15) 0.0 0.0 .
206(14) 0.0 0.0 .
206(14) 0.0 0.0 .
216(15) 0.0 0.0 .
217(15) 0.0 0.0 .
215(15) 0.0 0.0 .
214(15) 0.0 0.0 .
207(14) 0.0 0.0 .
220(15) 0.0 0.0 .
234(15) 0.0 0.0 .
241(16) 0.0 0.0 .
264(16) 0.0 0.0 .
211(15) 0.0 0.0 .
253(16) 0.0 0.0 .
269(16) 0.0 0.0 .
234(15) 0.0 0.0 .
264(16) 0.0 0.0 .
254(16) 0.0 0.0 .
259(16) 0.0 0.0 .
248(16) 0.0 0.0 .
263(16) 0.0 0.0 .
260(16) 0.0 0.0 .
263(16) 0.0 0.0 .
300(17) 0.0 0.0 .
278(17) 0.0 0.0 .
281(17) 0.0 0.0 .
278(17) 0.0 0.0 .
272(16) 0.0 0.0 .
325(18) 0.0 0.0 .
309(18) 0.0 0.0 .
282(17) 0.0 0.0 .
303(17) 0.0 0.0 .
314(18) 0.0 0.0 .
321(18) 0.0 0.0 .
321(18) 0.0 0.0 .
324(18) 0.0 0.0 .
338(18) 0.0 0.0 .
343(19) 0.0 0.0 .
357(19) 0.0 0.0 .
384(20) 0.0 0.0 .
364(19) 0.0 0.0 .
383(20) 0.0 0.0 .
386(20) 0.0 0.0 .
421(21) 0.0 0.0 .
367(19) 0.0 0.0 .
413(20) 0.0 0.0 .
419(20) 0.0 0.0 .
425(21) 0.0 0.0 .
395(20) 0.0 0.0 .
427(21) 0.0 0.0 .
440(21) 0.0 0.0 .
479(22) 0.0 0.0 .
449(21) 0.0 0.0 .
521(23) 0.0 0.0 .
483(22) 0.0 0.0 .
505(22) 0.0 0.0 .
521(23) 0.0 0.0 .
565(24) 0.0 0.0 .
570(24) 0.0 0.0 .
571(24) 0.0 0.0 .
607(25) 0.0 0.0 .
588(24) 0.0 0.0 .
636(25) 0.0 0.0 .
665(26) 0.0 0.0 .
671(26) 0.0 0.0 .
681(26) 0.0 0.0 .
716(27) 0.0 0.0 .
740(27) 0.0 0.0 .
724(27) 0.0 0.0 .
750(27) 0.0 0.0 .
836(29) 0.0 0.0 .
849(29) 0.0 0.0 .
866(29) 0.0 0.0 .
884(30) 0.0 0.0 .
951(31) 0.0 0.0 .
988(31) 0.0 0.0 .
1095(33) 0.0 0.0 .
1142(34) 0.0 0.0 .
1253(35) 0.0 0. .
1316(36) 0.0 0. .
1428(38) 0.0 0. .
1550(39) 0.0 0. .
1704(41) 0.0 0. .
1938(44) 0.0 0. .
2080(46) 0.0 0. .
2373(49) 0.0 0. .
2594(51) 0.0 0. .
2937(54) 0.0 0. .
3202(57) 0.0 0. .
3637(60) 0.0 0. .
3768(61) 0.0 0. .
3968(63) 0.0 0. .
4237(65) 0.0 0. .
4655(68) 0.0 0. .
4982(71) 0.0 0. .
5376(73) 0.0 0. .
5883(77) 0.0 0. .
6559(81) 0.0 0. .
7299(85) 0.0 0. .
8236(91) 0.0 0. .
9464(97) 0.0 0. .
11100(110) 0.0 0. .
13150(120) 0.0 0. .
15760(130) 0.0 0. .
19450(140) 0.0 0. .
24890(160) 0.0 0. .
32000(180) 0.0 0. .
42390(210) 0.0 0. .
55940(240) 0.0 0. .
73370(270) 0.0 0. .
94770(310) 0.0 0. .
120440(350) 0.0 0. .
148800(390) 0.0 0. .
179590(420) 0.0 0. .
207750(460) 0.0 0. .
219460(470) 0.0 0. .
201290(450) 0.0 0. .
160280(400) 0.0 0. .
121490(350) 0.0 0. .
91410(300) 0.0 0. .
70150(270) 0.0 0. .
53460(230) 0.0 0. .
42180(210) 0.0 0. .
33560(180) 0.0 0. .
26520(160) 0.0 0. .
21900(150) 0.0 0. .
18180(140) 0.0 0. .
15210(120) 0.0 0. .
12850(110) 0.0 0. .
11130(110) 0.0 0. .
9581(98) 0.0 0. .
8343(91) 0.0 0. .
7331(86) 0.0 0. .
6334(80) 0.0 0. .
5710(76) 0.0 0. .
5170(72) 0.0 0. .
4595(68) 0.0 0. .
4250(65) 0.0 0. .
3792(62) 0.0 0. .
3393(58) 0.0 0. .
3168(56) 0.0 0. .
3011(55) 0.0 0. .
2630(51) 0.0 0. .
2536(50) 0.0 0. .
2325(48) 0.0 0. .
2245(47) 0.0 0. .
2075(46) 0.0 0. .
1908(44) 0.0 0. .
1838(43) 0.0 0. .
1786(42) 0.0 0. .
1632(40) 0.0 0. .
1528(39) 0.0 0. .
1476(38) 0.0 0. .
1450(38) 0.0 0. .
1369(37) 0.0 0. .
1363(37) 0.0 0. .
1271(36) 0.0 0. .
1232(35) 0.0 0. .
1127(34) 0.0 0.0 .
1102(33) 0.0 0.0 .
1046(32) 0.0 0.0 .
1056(32) 0.0 0.0 .
1004(32) 0.0 0.0 .
940(31) 0.0 0.0 .
922(30) 0.0 0.0 .
905(30) 0.0 0.0 .
869(29) 0.0 0.0 .
869(29) 0.0 0.0 .
818(29) 0.0 0.0 .
770(28) 0.0 0.0 .
738(27) 0.0 0.0 .
767(28) 0.0 0.0 .
733(27) 0.0 0.0 .
715(27) 0.0 0.0 .
744(27) 0.0 0.0 .
742(27) 0.0 0.0 .
723(27) 0.0 0.0 .
681(26) 0.0 0.0 .
675(26) 0.0 0.0 .
691(26) 0.0 0.0 .
608(25) 0.0 0.0 .
644(25) 0.0 0.0 .
601(25) 0.0 0.0 .
622(25) 0.0 0.0 .
636(25) 0.0 0.0 .
615(25) 0.0 0.0 .
610(25) 0.0 0.0 .
573(24) 0.0 0.0 .
579(24) 0.0 0.0 .
563(24) 0.0 0.0 .
580(24) 0.0 0.0 .
561(24) 0.0 0.0 .
534(23) 0.0 0.0 .
539(23) 0.0 0.0 .
525(23) 0.0 0.0 .
522(23) 0.0 0.0 .
572(24) 0.0 0.0 .
564(24) 0.0 0.0 .
524(23) 0.0 0.0 .
565(24) 0.0 0.0 .
557(24) 0.0 0.0 .
524(23) 0.0 0.0 .
518(23) 0.0 0.0 .
539(23) 0.0 0.0 .
562(24) 0.0 0.0 .
503(22) 0.0 0.0 .
509(23) 0.0 0.0 .
514(23) 0.0 0.0 .
561(24) 0.0 0.0 .
504(22) 0.0 0.0 .
546(23) 0.0 0.0 .
555(24) 0.0 0.0 .
534(23) 0.0 0.0 .
535(23) 0.0 0.0 .
532(23) 0.0 0.0 .
547(23) 0.0 0.0 .
548(23) 0.0 0.0 .
593(24) 0.0 0.0 .
557(24) 0.0 0.0 .
574(24) 0.0 0.0 .
595(24) 0.0 0.0 .
610(25) 0.0 0.0 .
625(25) 0.0 0.0 .
596(24) 0.0 0.0 .
625(25) 0.0 0.0 .
616(25) 0.0 0.0 .
664(26) 0.0 0.0 .
644(25) 0.0 0.0 .
647(25) 0.0 0.0 .
679(26) 0.0 0.0 .
691(26) 0.0 0.0 .
711(27) 0.0 0.0 .
679(26) 0.0 0.0 .
690(26) 0.0 0.0 .
693(26) 0.0 0.0 .
697(26) 0.0 0.0 .
687(26) 0.0 0.0 .
650(25) 0.0 0.0 .
673(26) 0.0 0.0 .
626(25) 0.0 0.0 .
613(25) 0.0 0.0 .
612(25) 0.0 0.0 .
587(24) 0.0 0.0 .
548(23) 0.0 0.0 .
497(22) 0.0 0.0 .
486(22) 0.0 0.0 .
493(22) 0.0 0.0 .
484(22) 0.0 0.0 .
465(22) 0.0 0.0 .
447(21) 0.0 0.0 .
409(20) 0.0 0.0 .
390(20) 0.0 0.0 .
383(20) 0.0 0.0 .
358(19) 0.0 0.0 .
367(19) 0.0 0.0 .
364(19) 0.0 0.0 .
338(18) 0.0 0.0 .
350(19) 0.0 0.0 .
326(18) 0.0 0.0 .
306(17) 0.0 0.0 .
323(18) 0.0 0.0 .
304(17) 0.0 0.0 .
310(18) 0.0 0.0 .
273(17) 0.0 0.0 .
303(17) 0.0 0.0 .
288(17) 0.0 0.0 .
299(17) 0.0 0.0 .
249(16) 0.0 0.0 .
263(16) 0.0 0.0 .
243(16) 0.0 0.0 .
259(16) 0.0 0.0 .
271(16) 0.0 0.0 .
240(15) 0.0 0.0 .
262(16) 0.0 0.0 .
257(16) 0.0 0.0 .
268(16) 0.0 0.0 .
236(15) 0.0 0.0 .
218(15) 0.0 0.0 .
252(16) 0.0 0.0 .
245(16) 0.0 0.0 .
244(16) 0.0 0.0 .
226(15) 0.0 0.0 .
240(15) 0.0 0.0 .
234(15) 0.0 0.0 .
245(16) 0.0 0.0 .
237(15) 0.0 0.0 .
254(16) 0.0 0.0 .
261(16) 0.0 0.0 .
235(15) 0.0 0.0 .
251(16) 0.0 0.0 .
236(15) 0.0 0.0 .
270(16) 0.00370 223.8 2.9
251(16) 0.00398 223.8 3.0
247(16) 0.00405 223.8 3.0
267(16) 0.00375 223.8 3.1
254(16) 0.00394 223.8 3.1
243(16) 0.00412 223.8 3.2
281(17) 0.00356 223.8 3.3
237(15) 0.00422 223.8 3.3
261(16) 0.00383 223.8 3.4
291(17) 0.003436 223.8 3.4
237(15) 0.00422 223.8 3.5
268(16) 0.00373 223.8 3.6
259(16) 0.00386 223.8 3.7
255(16) 0.00392 223.8 3.7
254(16) 0.00394 223.8 3.8
254(16) 0.00394 223.8 3.9
254(16) 0.00394 223.8 4.0
218(15) 0.00459 223.8 4.0
226(15) 0.00442 223.2 4.1
251(16) 0.00398 222.0 4.2
237(15) 0.00422 220.8 4.3
234(15) 0.00427 219.6 4.4
249(16) 0.00402 218.3 4.5
224(15) 0.00446 217.1 4.6
230(15) 0.00435 215.9 4.7
209(14) 0.00478 214.7 4.8
232(15) 0.00431 213.5 4.9
223(15) 0.00448 212.3 5.0
215(15) 0.00465 211.1 5.1
189(14) 0.00529 209.9 5.2
203(14) 0.00493 208.7 5.4
220(15) 0.00455 207.5 5.5
208(14) 0.00481 206.3 5.6
233(15) 0.00429 205.1 5.7
213(15) 0.00469 203.9 5.9
177(13) 0.00565 202.7 6.0
199(14) 0.00503 201.5 6.2
197(14) 0.00508 200.3 6.4
193(14) 0.00518 199.1 6.5
217(15) 0.00461 197.9 6.7
199(14) 0.00503 196.7 6.9
210(14) 0.00476 195.5 7.1
199(14) 0.00503 194.3 7.2
186(14) 0.00538 193.0 7.4
185(14) 0.00541 191.8 7.7
196(14) 0.00510 190.6 7.9
211(15) 0.00474 189.4 8.1
181(13) 0.00552 188.2 8.3
205(14) 0.00488 187.0 8.6
199(14) 0.00503 185.8 8.8
200(14) 0.00500 184.6 9.1
190(14) 0.00526 183.4 9.4
203(14) 0.00493 182.2 9.7
182(13) 0.00549 181.0 10.0
197(14) 0.00508 179.8 10.3
203(14) 0.00493 178.6 10.7
207(14) 0.00483 177.4 11.0
182(13) 0.00549 176.2 11.5
185(14) 0.00541 175.0 11.9
200(14) 0.00500 173.8 12.3
186(14) 0.00538 172.6 12.7
171(13) 0.00585 171.4 13.2
180(13) 0.00556 170.8 13.7
181(13) 0.00552 170.4 14.2
194(14) 0.00515 170.0 14.8
208(14) 0.00481 169.6 15.3
230(15) 0.00435 169.3 16.0
187(14) 0.00535 168.9 16.6
194(14) 0.00515 168.5 17.3
201(14) 0.00498 168.1 18.1
196(14) 0.00510 167.7 18.9
203(14) 0.00493 167.4 19.7
220(15) 0.00455 167.0 20.6
205(14) 0.00488 166.6 21.6
224(15) 0.00446 166.2 22.6
215(15) 0.00465 165.8 23.8
181(13) 0.00552 165.5 25.0
190(14) 0.00526 165.1 26.3
203(14) 0.00493 164.7 27.6
200(14) 0.00500 164.3 29.2
210(14) 0.00476 163.9 30.8
233(15) 0.00429 163.6 32.6
214(15) 0.00467 163.2 34.5
224(15) 0.00446 162.8 36.6
225(15) 0.00444 162.4 38.9
206(14) 0.00485 162.0 41.4
242(16) 0.00413 161.7 44.2
240(15) 0.00417 161.3 47.2
242(16) 0.00413 160.9 50.6
251(16) 0.00398 160.5 54.4
251(16) 0.00398 160.2 58.5
259(16) 0.00386 159.8 63.2
302(17) 0.003311 159.4 68.5
288(17) 0.003472 159.0 74.5
305(17) 0.003279 158.6 81.3
294(17) 0.003401 158.3 89.2
329(18) 0.003039 157.9 98.6
346(19) 0.002890 157.5 109.7
343(19) 0.002915 157.1 123.3
359(19) 0.002786 156.7 140.0
427(21) 0.002342 156.4 161.0
431(21) 0.002320 156.0 187.4
457(21) 0.002188 155.6 221.0
505(22) 0.001980 155.2 263.4
543(23) 0.001842 154.8 316.6
583(24) 0.001715 154.5 382.6
607(25) 0.001647 154.1 462.8
689(26) 0.001451 153.7 558.5
787(28) 0.001271 153.3 669.8
854(29) 0.001171 152.9 795.3
934(31) 0.001071 152.6 931.9
1020(32) 0.000980 152.2 1072.9
1091(33) 0.000917 151.8 1207.9
1203(35) 0.000831 151.4 1322.1
1201(35) 0.000833 151.0 1398.1
1238(35) 0.000808 151. 1422.
1250(35) 0.000800 150. 1388.
1233(35) 0.000811 150. 1304.
1143(34) 0.000875 149.5 1185.1
961(31) 0.001041 149.1 1048.0
849(29) 0.001178 148.8 907.1
676(26) 0.001479 148.4 772.2
589(24) 0.001698 148.0 648.9
506(22) 0.001976 147.6 540.4
479(22) 0.002088 147.3 447.5
409(20) 0.002445 146.9 369.9
397(20) 0.002519 146.5 306.3
359(19) 0.002786 146.1 255.2
347(19) 0.002882 145.7 214.4
346(19) 0.002890 145.4 182.3
309(18) 0.003236 145.0 156.9
305(17) 0.003279 144.6 136.8
314(18) 0.003185 144.2 120.7
289(17) 0.003460 143.8 107.6
310(18) 0.003226 143.5 96.8
289(17) 0.003460 143.1 87.7
283(17) 0.00353 142.7 80.0
297(17) 0.003367 142.3 73.3
254(16) 0.00394 141.9 67.5
292(17) 0.003425 141.6 62.4
267(16) 0.00375 141.2 57.8
264(16) 0.00379 140.8 53.7
264(16) 0.00379 140.4 50.0
259(16) 0.00386 140.0 46.7
223(15) 0.00448 139.7 43.7
261(16) 0.00383 139.3 41.0
237(15) 0.00422 138.9 38.5
258(16) 0.00388 138.5 36.2
233(15) 0.00429 138.1 34.2
227(15) 0.00441 137.8 32.3
234(15) 0.00427 137.4 30.5
231(15) 0.00433 137.0 28.9
241(16) 0.00415 136.6 27.4
220(15) 0.00455 136.3 26.0
239(15) 0.00418 135.9 24.8
232(15) 0.00431 135.5 23.6
237(15) 0.00422 135.1 22.5
230(15) 0.00435 134.7 21.4
223(15) 0.00448 134.4 20.5
213(15) 0.00469 134.0 19.6
213(15) 0.00469 133.6 18.7
197(14) 0.00508 133.2 18.0
203(14) 0.00493 132.8 17.2
222(15) 0.00450 132.5 16.5
191(14) 0.00524 132.1 15.9
182(13) 0.00549 131.7 15.3
193(14) 0.00518 131.3 14.7
165(13) 0.00606 130.9 14.1
183(14) 0.00546 130.6 13.6
166(13) 0.00602 130.2 13.1
198(14) 0.00505 129.8 12.7
176(13) 0.00568 129.4 12.2
179(13) 0.00559 129.0 11.8
158(13) 0.00633 128.7 11.4
158(13) 0.00633 128.3 11.0
184(14) 0.00543 127.9 10.7
137(12) 0.00730 127.5 10.3
145(12) 0.00690 127.1 10.0
129(11) 0.00775 126.8 9.7
146(12) 0.00685 126.4 9.4
148(12) 0.00676 126.0 9.1
149(12) 0.00671 125.6 8.9
164(13) 0.00610 125.2 8.6
143(12) 0.00699 124.9 8.3
144(12) 0.00694 124.5 8.1
157(13) 0.00637 124.1 7.9
130(11) 0.00769 123.7 7.7
125(11) 0.00800 123.4 7.5
132(11) 0.00758 123.0 7.3
152(12) 0.00658 122.6 7.1
131(11) 0.00763 122.2 6.9
132(11) 0.00758 121.8 6.7
123(11) 0.00813 121.5 6.5
138(12) 0.00725 121.1 6.4
116(11) 0.00862 120.7 6.2
132(11) 0.00758 120.3 6.1
117(11) 0.00855 119.9 5.9
108(10) 0.00926 119.6 5.8
121(11) 0.00826 119.2 5.6
122(11) 0.00820 118.8 5.5
119(11) 0.00840 118.4 5.4
113(11) 0.00885 118.0 5.3
102(10) 0.00980 117.7 5.1
122(11) 0.00820 117.3 5.0
114(11) 0.00877 116.9 4.9
109(10) 0.00917 116.5 4.8
113(11) 0.00885 116.1 4.7
141(12) 0.00709 115.8 4.6
101(10) 0.00990 115.4 4.5
110(10) 0.00909 115.0 4.4
97(10) 0.01031 114.6 4.3
110(10) 0.00909 114.2 4.2
99(10) 0.01010 113.9 4.2
109(10) 0.00917 113.5 4.1
101(10) 0.00990 113.1 4.0
101(10) 0.00990 112.7 3.9
108(10) 0.00926 112.3 3.8
110(10) 0.00909 112.0 3.8
112(11) 0.00893 111.6 3.7
116(11) 0.00862 111.2 3.6
124(11) 0.00806 110.8 3.6
127(11) 0.00787 110.5 3.5
83(9) 0.01205 110.1 3.4
105(10) 0.00952 109.7 3.4
111(11) 0.00901 109.3 3.3
113(11) 0.00885 108.9 3.3
103(10) 0.00971 108.6 3.2
110(10) 0.00909 108.2 3.2
95(10) 0.01053 107.8 3.1
102(10) 0.00980 107.4 3.0
108(10) 0.00926 107.0 3.0
101(10) 0.00990 106.7 2.9
103(10) 0.00971 106.3 2.9
111(11) 0.00901 105.9 2.9
111(11) 0.00901 105.5 2.8
113(11) 0.00885 105.1 2.8
93(10) 0.01075 105.1 2.7
103(10) 0.00971 105.1 2.7
104(10) 0.00962 105.1 2.6
108(10) 0.00926 105.1 2.6
102(10) 0.00980 105.1 2.6
108(10) 0.00926 105.1 2.5
109(10) 0.00917 105.0 2.5
95(10) 0.01053 105.0 2.4
98(10) 0.01020 105.0 2.4
109(10) 0.00917 105.0 2.4
111(11) 0.00901 105.0 2.3
88(9) 0.01136 105.0 2.3
107(10) 0.00935 105.0 2.3
95(10) 0.01053 105.0 2.2
96(10) 0.01042 104.9 2.2
90(9) 0.01111 104.9 2.2
106(10) 0.00943 104.9 2.2
102(10) 0.00980 104.9 2.1
100(10) 0.01000 104.9 2.1
103(10) 0.00971 104.9 2.1
103(10) 0.00971 104.9 2.0
131(11) 0.00763 104.8 2.0
117(11) 0.00855 104.8 2.0
103(10) 0.00971 104.8 2.0
94(10) 0.01064 104.8 1.9
110(10) 0.00909 104.8 1.9
102(10) 0.00980 104.8 1.9
95(10) 0.01053 104.8 1.9
99(10) 0.01010 104.8 1.8
105(10) 0.00952 104.7 1.8
93(10) 0.01075 104.7 1.8
115(11) 0.00870 104.7 1.8
110(10) 0.00909 104.7 1.8
110(10) 0.00909 104.7 1.7
111(11) 0.00901 104.7 1.7
96(10) 0.01042 104.7 1.7
107(10) 0.00935 104.7 1.7
113(11) 0.00885 104.6 1.7
109(10) 0.00917 104.6 1.6
101(10) 0.00990 104.6 1.6
88(9) 0.01136 104.6 1.6
86(9) 0.01163 104.6 1.6
104(10) 0.00962 104.6 1.6
88(9) 0.01136 104.6 1.6
104(10) 0.00962 104.5 1.5
94(10) 0.01064 104.5 1.5
116(11) 0.00862 104.5 1.5
114(11) 0.00877 104.5 1.5
94(10) 0.01064 104.5 1.5
112(11) 0.00893 104.5 1.5
105(10) 0.00952 104.5 1.5
96(10) 0.01042 104.5 1.4
108(10) 0.00926 104.4 1.4
112(11) 0.00893 104.4 1.4
94(10) 0.01064 104.4 1.4
97(10) 0.01031 104.4 1.4
101(10) 0.00990 104.4 1.4
107(10) 0.00935 104.4 1.4
87(9) 0.01149 104.4 1.3
101(10) 0.00990 104.3 1.3
94(10) 0.01064 104.3 1.3
112(11) 0.00893 104.3 1.3
95(10) 0.01053 104.3 1.3
103(10) 0.00971 104.3 1.3
104(10) 0.00962 104.3 1.3
101(10) 0.00990 104.3 1.3
105(10) 0.00952 104.3 1.3
89(9) 0.01124 104.2 1.2
105(10) 0.00952 104.2 1.2
92(10) 0.01087 104.2 1.2
92(10) 0.01087 104.2 1.2
100(10) 0.01000 104.2 1.2
95(10) 0.01053 104.2 1.2
97(10) 0.01031 104.2 1.2
102(10) 0.00980 104.2 1.2
88(9) 0.01136 104.1 1.2
99(10) 0.01010 104.1 1.2
105(10) 0.00952 104.1 1.2
86(9) 0.01163 104.1 1.2
100(10) 0.01000 104.1 1.1
97(10) 0.01031 104.1 1.1
99(10) 0.01010 104.1 1.1
97(10) 0.01031 104.0 1.1
81(9) 0.01235 104.0 1.1
113(11) 0.00885 104.0 1.1
110(10) 0.00909 104.0 1.1
106(10) 0.00943 104.0 1.1
86(9) 0.01163 104.0 1.1
92(10) 0.01087 104.0 1.1
94(10) 0.01064 104.0 1.1
94(10) 0.01064 103.9 1.1
89(9) 0.01124 103.9 1.1
91(10) 0.01099 103.9 1.1
97(10) 0.01031 103.9 1.1
94(10) 0.01064 103.9 1.1
95(10) 0.01053 103.9 1.1
90(9) 0.01111 103.9 1.0
90(9) 0.01111 103.8 1.0
109(10) 0.00917 103.8 1.0
104(10) 0.00962 103.8 1.0
106(10) 0.00943 103.8 1.0
104(10) 0.00962 103.8 1.0
102(10) 0.00980 103.8 1.0
98(10) 0.01020 103.8 1.0
91(10) 0.01099 103.8 1.0
105(10) 0.00952 103.7 1.0
101(10) 0.00990 103.7 1.0
105(10) 0.00952 103.7 1.0
101(10) 0.00990 103.7 1.0
95(10) 0.01053 103.7 1.0
105(10) 0.00952 103.7 1.0
102(10) 0.00980 103.7 1.0
95(10) 0.01053 103.6 1.0
87(9) 0.01149 103.6 1.0
100(10) 0.01000 103.6 1.0
103(10) 0.00971 103.6 1.0
103(10) 0.00971 103.6 1.0
94(10) 0.01064 103.6 1.0
92(10) 0.01087 103.6 1.0
98(10) 0.01020 103.6 1.0
96(10) 0.01042 103.5 1.0
105(10) 0.00952 103.5 1.0
104(10) 0.00962 103.5 1.0
92(10) 0.01087 103.5 1.0
93(10) 0.01075 103.5 1.0
100(10) 0.01000 103.5 1.0
92(10) 0.01087 103.5 1.0
104(10) 0.00962 103.5 1.0
85(9) 0.01176 103.4 1.0
112(11) 0.00893 103.4 1.0
110(10) 0.00909 103.4 1.0
101(10) 0.00990 103.4 1.0
105(10) 0.00952 103.4 1.0
99(10) 0.01010 103.4 1.0
114(11) 0.00877 103.4 1.0
98(10) 0.01020 103.3 1.0
83(9) 0.01205 103.3 1.0
108(10) 0.00926 103.3 1.0
100(10) 0.01000 103.3 1.0
97(10) 0.01031 103.3 1.0
84(9) 0.01190 103.3 1.0
85(9) 0.01176 103.3 1.1
101(10) 0.00990 103.3 1.1
100(10) 0.01000 103.2 1.1
89(9) 0.01124 103.2 1.1
84(9) 0.01190 103.2 1.1
88(9) 0.01136 103.2 1.1
104(10) 0.00962 103.2 1.1
106(10) 0.00943 103.2 1.1
77(9) 0.01299 103.2 1.1
107(10) 0.00935 103.1 1.1
98(10) 0.01020 103.1 1.1
79(9) 0.01266 103.1 1.1
96(10) 0.01042 103.1 1.2
95(10) 0.01053 103.1 1.2
93(10) 0.01075 103.1 1.2
98(10) 0.01020 103.1 1.2
85(9) 0.01176 103.1 1.2
88(9) 0.01136 103.0 1.2
99(10) 0.01010 103.0 1.2
91(10) 0.01099 103.0 1.3
80(9) 0.01250 103.0 0.8
104(10) 0.00962 103.0 0.8
110(10) 0.00909 103.0 0.8
111(11) 0.00901 103.0 0.9
104(10) 0.00962 102.9 0.9
101(10) 0.00990 102.9 0.9
95(10) 0.01053 102.9 0.9
102(10) 0.00980 102.9 1.0
82(9) 0.01220 102.9 1.0
110(10) 0.00909 102.9 1.0
81(9) 0.01235 102.9 1.1
107(10) 0.00935 102.9 1.1
106(10) 0.00943 102.8 1.1
95(10) 0.01053 102.8 1.2
108(10) 0.00926 102.8 1.2
98(10) 0.01020 102.8 1.2
96(10) 0.01042 102.8 1.3
91(10) 0.01099 102.8 1.3
96(10) 0.01042 102.8 1.4
91(10) 0.01099 102.8 1.4
90(9) 0.01111 102.7 1.5
111(11) 0.00901 102.7 1.5
100(10) 0.01000 102.7 1.6
107(10) 0.00935 102.7 1.6
100(10) 0.01000 102.7 1.7
93(10) 0.01075 102.7 1.8
111(11) 0.00901 102.7 1.8
100(10) 0.01000 102.6 1.9
109(10) 0.00917 102.6 2.0
100(10) 0.01000 102.6 2.1
94(10) 0.01064 102.6 2.2
99(10) 0.01010 102.6 2.3
100(10) 0.01000 102.6 2.4
87(9) 0.01149 102.6 2.5
112(11) 0.00893 102.6 2.6
100(10) 0.01000 102.5 2.7
97(10) 0.01031 102.7 2.9
106(10) 0.00943 102.8 3.0
101(10) 0.00990 102.9 3.2
113(11) 0.00885 103.0 3.4
98(10) 0.01020 103.1 3.6
106(10) 0.00943 103.3 3.8
119(11) 0.00840 103.4 4.0
95(10) 0.01053 103.5 4.3
107(10) 0.00935 103.6 4.6
121(11) 0.00826 103.8 5.0
109(10) 0.00917 103.9 5.4
117(11) 0.00855 104.0 5.8
104(10) 0.00962 104.1 6.4
88(9) 0.01136 104.2 7.0
114(11) 0.00877 104.4 7.7
104(10) 0.00962 104.5 8.5
124(11) 0.00806 104.6 9.5
111(11) 0.00901 104.7 10.6
113(11) 0.00885 104.8 12.0
96(10) 0.01042 105.0 13.5
116(11) 0.00862 105.1 15.2
107(10) 0.00935 105.2 17.1
124(11) 0.00806 105.3 19.3
104(10) 0.00962 105.4 21.8
104(10) 0.00962 105.6 24.5
108(10) 0.00926 105.7 27.5
128(11) 0.00781 105.8 30.7
129(11) 0.00775 105.9 34.2
136(12) 0.00735 106.1 37.8
108(10) 0.00926 106.2 41.6
109(10) 0.00917 106.3 45.5
129(11) 0.00775 106.4 49.3
123(11) 0.00813 106.5 53.0
146(12) 0.00685 106.7 56.4
119(11) 0.00840 106.8 59.4
117(11) 0.00855 106.9 61.8
117(11) 0.00855 107.0 63.3
134(12) 0.00746 107.1 64.0
117(11) 0.00855 107.3 63.8
125(11) 0.00800 107.4 62.6
130(11) 0.00769 107.5 60.6
107(10) 0.00935 107.6 57.9
105(10) 0.00952 107.7 54.7
109(10) 0.00917 107.9 51.1
114(11) 0.00877 108.0 47.3
130(11) 0.00769 108.1 43.4
116(11) 0.00862 108.2 39.6
106(10) 0.00943 108.3 35.9
114(11) 0.00877 108.5 32.3
107(10) 0.00935 108.6 29.0
87(9) 0.01149 108.7 25.9
95(10) 0.01053 108.8 23.0
120(11) 0.00833 109.0 20.4
113(11) 0.00885 109.1 18.1
122(11) 0.00820 109.2 16.1
108(10) 0.00926 109.3 14.2
100(10) 0.01000 109.4 12.6
108(10) 0.00926 109.6 11.2
120(11) 0.00833 109.7 10.0
111(11) 0.00901 109.8 9.0
112(11) 0.00893 109.9 8.1
119(11) 0.00840 110.0 7.3
111(11) 0.00901 110.2 6.7
110(10) 0.00909 110.3 6.1
95(10) 0.01053 110.4 5.6
121(11) 0.00826 110.5 5.2
120(11) 0.00833 110.6 4.8
114(11) 0.00877 110.8 4.5
112(11) 0.00893 110.9 4.2
97(10) 0.01031 111.0 3.9
100(10) 0.01000 111.1 3.7
107(10) 0.00935 111.3 3.5
121(11) 0.00826 111.4 3.3
112(11) 0.00893 111.5 3.1
95(10) 0.01053 111.6 3.0
105(10) 0.00952 111.7 2.8
118(11) 0.00847 111.9 2.7
113(11) 0.00885 112.0 2.5
126(11) 0.00794 112.1 2.4
142(12) 0.00704 112.2 2.3
104(10) 0.00962 112.3 9.8
102(10) 0.00980 112.5 9.8
109(10) 0.00917 112.6 9.8
99(10) 0.01010 112.7 9.8
130(11) 0.00769 112.8 9.8
92(10) 0.01087 112.9 9.8
109(10) 0.00917 113.1 9.9
113(11) 0.00885 113.2 9.9
124(11) 0.00806 113.3 9.9
108(10) 0.00926 113.4 10.0
100(10) 0.01000 113.6 10.0
112(11) 0.00893 113.7 10.1
103(10) 0.00971 113.8 10.1
103(10) 0.00971 113.9 10.2
104(10) 0.00962 114.0 10.2
110(10) 0.00909 114.2 10.3
111(11) 0.00901 114.3 10.4
112(11) 0.00893 114.4 10.4
119(11) 0.00840 114.5 10.5
118(11) 0.00847 114.6 10.6
109(10) 0.00917 114.8 10.7
103(10) 0.00971 114.9 10.8
116(11) 0.00862 115.0 10.9
104(10) 0.00962 115.1 11.0
113(11) 0.00885 115.2 11.1
116(11) 0.00862 115.4 11.2
127(11) 0.00787 115.5 11.3
121(11) 0.00826 115.6 11.4
120(11) 0.00833 115.7 11.5
98(10) 0.01020 115.9 11.7
127(11) 0.00787 116.0 11.8
113(11) 0.00885 116.1 11.9
115(11) 0.00870 116.2 12.1
106(10) 0.00943 116.3 12.2
133(12) 0.00752 116.5 12.3
129(11) 0.00775 116.6 12.5
107(10) 0.00935 116.7 12.6
105(10) 0.00952 116.8 12.8
121(11) 0.00826 116.9 13.0
130(11) 0.00769 117.1 13.1
113(11) 0.00885 117.2 13.3
109(10) 0.00917 117.3 13.5
110(10) 0.00909 117.4 13.6
111(11) 0.00901 117.5 13.8
116(11) 0.00862 117.7 14.0
132(11) 0.00758 117.8 14.2
136(12) 0.00735 117.9 14.4
144(12) 0.00694 118.0 14.6
135(12) 0.00741 118.2 14.8
131(11) 0.00763 118.3 15.0
131(11) 0.00763 118.4 15.2
136(12) 0.00735 118.5 15.5
136(12) 0.00735 118.6 15.7
149(12) 0.00671 118.8 15.9
127(11) 0.00787 118.9 16.2
144(12) 0.00694 119.0 16.4
148(12) 0.00676 119.1 16.7
146(12) 0.00685 119.2 17.0
129(11) 0.00775 119.4 17.2
145(12) 0.00690 119.5 17.5
133(12) 0.00752 119.6 17.8
142(12) 0.00704 119.7 18.1
126(11) 0.00794 119.8 18.4
131(11) 0.00763 120.0 18.7
129(11) 0.00775 120.1 19.0
141(12) 0.00709 120.2 19.3
134(12) 0.00746 120.3 19.7
134(12) 0.00746 120.5 20.0
143(12) 0.00699 120.6 20.4
132(11) 0.00758 120.7 20.8
172(13) 0.00581 120.8 21.1
113(11) 0.00885 120.9 21.5
129(11) 0.00775 121.1 21.9
155(12) 0.00645 121.2 22.3
149(12) 0.00671 121.3 22.8
132(11) 0.00758 121.4 23.2
130(11) 0.00769 121.5 23.7
147(12) 0.00680 121.7 24.1
154(12) 0.00649 121.8 24.6
122(11) 0.00820 121.9 25.1
139(12) 0.00719 122.0 25.6
136(12) 0.00735 122.1 26.1
123(11) 0.00813 122.3 26.7
132(11) 0.00758 122.4 27.3
131(11) 0.00763 122.5 27.8
142(12) 0.00704 122.6 28.4
135(12) 0.00741 122.8 29.1
143(12) 0.00699 122.9 29.7
143(12) 0.00699 123.0 30.4
132(11) 0.00758 123.1 31.1
133(12) 0.00752 123.2 31.8
126(11) 0.00794 123.4 32.5
123(11) 0.00813 123.5 33.3
144(12) 0.00694 124.8 34.1
131(11) 0.00763 127.2 34.9
127(11) 0.00787 129.6 35.7
116(11) 0.00862 132.0 36.6
121(11) 0.00826 134.5 37.5
139(12) 0.00719 135.1 38.5
145(12) 0.00690 135.2 39.5
134(12) 0.00746 135.3 40.5
143(12) 0.00699 135.4 41.6
139(12) 0.00719 135.5 42.7
135(12) 0.00741 135.6 43.8
130(11) 0.00769 135.7 45.0
147(12) 0.00680 135.9 46.3
139(12) 0.00719 136.0 47.6
128(11) 0.00781 136.1 49.0
136(12) 0.00735 136.2 50.4
139(12) 0.00719 136.3 51.9
155(12) 0.00645 136.4 53.5
136(12) 0.00735 136.5 55.1
155(12) 0.00645 136.6 56.8
151(12) 0.00662 136.7 58.6
146(12) 0.00685 136.8 60.5
139(12) 0.00719 136.9 62.4
137(12) 0.00730 137.0 64.5
152(12) 0.00658 137.1 66.7
176(13) 0.00568 137.2 69.0
171(13) 0.00585 137.3 71.4
151(12) 0.00662 137.4 73.9
164(13) 0.00610 137.5 76.6
168(13) 0.00595 137.6 79.4
187(14) 0.00535 137.7 82.4
167(13) 0.00599 137.8 85.5
182(13) 0.00549 137.9 88.8
171(13) 0.00585 138.0 92.4
185(14) 0.00541 138.1 96.1
196(14) 0.00510 138.2 100.1
173(13) 0.00578 138.3 104.3
207(14) 0.00483 138.4 108.8
197(14) 0.00508 138.5 113.6
192(14) 0.00521 138.6 118.7
218(15) 0.00459 138.7 124.2
200(14) 0.00500 138.8 130.1
215(15) 0.00465 138.9 136.4
208(14) 0.00481 139.0 143.1
223(15) 0.00448 139.1 150.4
216(15) 0.00463 139.2 158.2
228(15) 0.00439 139.3 166.7
238(15) 0.00420 139.4 175.9
239(15) 0.00418 139.5 185.8
264(16) 0.00379 139.6 196.6
261(16) 0.00383 139.7 208.4
283(17) 0.00353 139.8 221.2
302(17) 0.003311 139.9 235.3
287(17) 0.003484 140.0 250.7
312(18) 0.003205 140.1 267.7
330(18) 0.003030 140.2 286.5
336(18) 0.002976 140.3 307.4
351(19) 0.002849 140.4 330.5
364(19) 0.002747 140.5 356.4
401(20) 0.002494 140.6 385.4
431(21) 0.002320 140.7 418.1
472(22) 0.002119 140.8 455.0
517(23) 0.001934 140.9 497.1
532(23) 0.001880 141.1 545.1
582(24) 0.001718 141.2 600.4
714(27) 0.001401 141.3 664.4
739(27) 0.001353 141.4 739.0
841(29) 0.001189 141.5 826.6
898(30) 0.001114 141.6 930.6
1057(33) 0.000946 141.7 1055.1
1231(35) 0.000812 142. 1206.
1424(38) 0.000702 142. 1394.
1719(41) 0.000582 142. 1632.
2080(46) 0.000481 142. 1945.
2553(51) 0.000392 142. 2372.
3210(57) 0.0003115 142. 2976.
3944(63) 0.0002535 142. 3847.
5208(72) 0.0001920 142. 5097.
6956(83) 0.0001438 143. 6853.
9390(97) 0.0001065 143. 9214.
12580(110) 0.0000795 143. 12200.
16290(130) 0.0000614 143. 15627.
19760(140) 0.0000506 143. 18916.
21790(150) 0.0000459 143. 20981.
20630(140) 0.0000485 143. 20812.
17700(130) 0.0000565 143. 18501.
14380(120) 0.0000695 143. 15138.
11500(110) 0.0000870 143. 11749.
9167(96) 0.0001091 144. 8846.
7288(85) 0.0001372 144. 6573.
5677(75) 0.0001761 144. 4895.
4593(68) 0.0002177 144. 3705.
3779(61) 0.0002646 144. 2878.
3200(57) 0.0003125 144. 2304.
2651(51) 0.000377 144. 1895.
2226(47) 0.000449 144. 1595.
1881(43) 0.000532 144. 1365.
1628(40) 0.000614 145. 1183.
1388(37) 0.000720 145. 1036.
1285(36) 0.000778 145. 915.
1102(33) 0.000907 144.8 813.5
942(31) 0.001062 144.9 727.8
935(31) 0.001070 145.0 654.8
795(28) 0.001258 145.1 592.1
758(28) 0.001319 145.2 538.0
664(26) 0.001506 145.3 490.8
609(25) 0.001642 145.4 449.6
571(24) 0.001751 145.5 413.2
525(23) 0.001905 145.6 381.1
545(23) 0.001835 145.7 352.6
456(21) 0.002193 145.8 327.1
456(21) 0.002193 145.9 304.3
442(21) 0.002262 146.0 283.7
419(20) 0.002387 146.2 265.2
390(20) 0.002564 146.3 248.4
375(19) 0.002667 146.4 233.2
375(19) 0.002667 146.5 219.3
355(19) 0.002817 146.6 206.6
328(18) 0.003049 146.7 195.0
337(18) 0.002967 146.8 184.3
346(19) 0.002890 146.9 174.5
301(17) 0.003322 147.0 165.4
288(17) 0.003472 147.1 157.0
257(16) 0.00389 147.2 149.3
292(17) 0.003425 147.3 142.1
255(16) 0.00392 147.4 135.4
285(17) 0.00351 147.5 129.2
246(16) 0.00407 147.6 123.3
253(16) 0.00395 147.7 117.9
250(16) 0.00400 147.8 112.8
261(16) 0.00383 147.9 108.4
264(16) 0.00379 148.0 104.0
239(15) 0.00418 148.1 99.8
232(15) 0.00431 148.2 95.8
231(15) 0.00433 148.3 92.1
236(15) 0.00424 148.4 88.6
253(16) 0.00395 148.5 85.3
204(14) 0.00490 148.6 82.2
211(15) 0.00474 148.7 79.3
239(15) 0.00418 148.8 76.5
223(15) 0.00448 148.9 73.8
236(15) 0.00424 149.0 71.3
222(15) 0.00450 149.1 68.9
227(15) 0.00441 149.2 66.6
220(15) 0.00455 149.3 64.5
223(15) 0.00448 149.4 62.4
237(15) 0.00422 149.5 60.5
233(15) 0.00429 149.6 70.5
232(15) 0.00431 149.7 68.8
222(15) 0.00450 149.8 67.2
207(14) 0.00483 149.9 65.7
216(15) 0.00463 150.0 64.2
212(15) 0.00472 150.1 62.9
207(14) 0.00483 150.2 61.6
233(15) 0.00429 150.3 60.3
225(15) 0.00444 150.4 59.1
238(15) 0.00420 150.5 58.0
229(15) 0.00437 150.6 56.9
218(15) 0.00459 150.7 55.9
228(15) 0.00439 150.8 54.9
192(14) 0.00521 150.9 54.0
191(14) 0.00524 151.0 53.1
237(15) 0.00422 151.1 52.2
227(15) 0.00441 151.3 51.4
216(15) 0.00463 151.4 50.6
245(16) 0.00408 151.5 49.9
215(15) 0.00465 151.6 49.2
220(15) 0.00455 151.7 48.5
199(14) 0.00503 151.8 47.8
235(15) 0.00426 151.9 47.2
227(15) 0.00441 152.0 46.6
217(15) 0.00461 152.1 46.1
206(14) 0.00485 152.2 45.5
202(14) 0.00495 152.3 45.0
204(14) 0.00490 152.4 44.5
215(15) 0.00465 152.5 44.1
220(15) 0.00455 152.6 43.6
188(14) 0.00532 152.7 43.2
185(14) 0.00541 152.8 42.8
184(14) 0.00543 152.9 42.4
195(14) 0.00513 153.0 42.1
164(13) 0.00610 153.1 41.7
192(14) 0.00521 153.2 41.4
173(13) 0.00578 153.3 41.1
169(13) 0.00592 153.4 40.8
175(13) 0.00571 153.5 40.5
181(13) 0.00552 153.6 40.3
183(14) 0.00546 153.7 40.0
169(13) 0.00592 153.8 39.8
160(13) 0.00625 153.9 39.6
151(12) 0.00662 154.0 39.4
167(13) 0.00599 154.1 39.2
174(13) 0.00575 154.2 39.1
177(13) 0.00565 154.3 38.9
149(12) 0.00671 154.4 38.8
181(13) 0.00552 154.5 38.7
180(13) 0.00556 154.6 38.5
161(13) 0.00621 154.7 38.4
160(13) 0.00625 154.8 38.4
155(12) 0.00645 154.9 38.3
174(13) 0.00575 155.0 38.2
159(13) 0.00629 155.1 38.2
177(13) 0.00565 155.2 38.1
165(13) 0.00606 155.3 38.1
160(13) 0.00625 155.4 38.1
159(13) 0.00629 155.5 38.1
162(13) 0.00617 155.6 38.1
170(13) 0.00588 155.7 38.1
150(12) 0.00667 155.8 38.1
173(13) 0.00578 155.9 38.1
181(13) 0.00552 156.0 38.2
164(13) 0.00610 156.1 38.2
164(13) 0.00610 156.2 38.3
164(13) 0.00610 156.3 38.4
186(14) 0.00538 156.5 38.5
166(13) 0.00602 156.6 38.6
158(13) 0.00633 156.3 38.7
140(12) 0.00714 154.9 38.8
153(12) 0.00654 153.5 39.0
153(12) 0.00654 152.1 39.1
149(12) 0.00671 150.7 39.2
169(13) 0.00592 149.3 39.4
142(12) 0.00704 147.9 39.6
143(12) 0.00699 146.5 39.8
186(14) 0.00538 145.1 40.0
157(13) 0.00637 145.4 40.2
148(12) 0.00676 145.7 40.4
161(13) 0.00621 145.9 40.6
145(12) 0.00690 146.2 40.9
158(13) 0.00633 146.5 41.1
152(12) 0.00658 146.8 41.4
150(12) 0.00667 147.1 41.7
139(12) 0.00719 147.3 42.0
152(12) 0.00658 147.6 42.3
157(13) 0.00637 147.9 42.6
167(13) 0.00599 148.2 42.9
172(13) 0.00581 148.5 43.2
163(13) 0.00614 148.7 43.6
188(14) 0.00532 149.0 44.0
167(13) 0.00599 149.3 44.3
171(13) 0.00585 149.6 44.7
150(12) 0.00667 149.9 45.1
145(12) 0.00690 150.1 45.6
171(13) 0.00585 150.4 46.0
154(12) 0.00649 150.7 46.4
168(13) 0.00595 151.0 46.9
178(13) 0.00562 151.3 47.4
188(14) 0.00532 151.6 47.9
158(13) 0.00633 151.8 48.4
181(13) 0.00552 152.1 48.9
175(13) 0.00571 152.4 49.5
173(13) 0.00578 152.7 50.0
160(13) 0.00625 153.0 50.6
167(13) 0.00599 153.2 51.2
164(13) 0.00610 153.5 51.8
168(13) 0.00595 153.8 52.5
164(13) 0.00610 154.1 53.1
173(13) 0.00578 154.4 53.8
168(13) 0.00595 154.6 54.5
178(13) 0.00562 154.9 55.3
174(13) 0.00575 155.2 56.0
178(13) 0.00562 155.5 56.8
164(13) 0.00610 155.8 57.6
201(14) 0.00498 156.0 58.4
181(13) 0.00552 156.3 59.3
175(13) 0.00571 156.6 60.1
174(13) 0.00575 156.9 61.0
186(14) 0.00538 157.2 62.0
204(14) 0.00490 157.4 62.9
182(13) 0.00549 157.7 63.9
170(13) 0.00588 158.0 65.0
194(14) 0.00515 158.3 66.0
191(14) 0.00524 158.6 67.1
198(14) 0.00505 158.8 68.2
197(14) 0.00508 159.1 69.4
191(14) 0.00524 159.4 70.6
208(14) 0.00481 159.7 71.9
206(14) 0.00485 160.0 73.1
209(14) 0.00478 160.2 68.2
221(15) 0.00452 160.5 69.7
205(14) 0.00488 160.8 71.2
238(15) 0.00420 161.1 72.7
201(14) 0.00498 161.4 74.3
227(15) 0.00441 161.6 75.9
237(15) 0.00422 161.9 77.6
246(16) 0.00407 162.2 79.3
236(15) 0.00424 162.5 81.2
243(16) 0.00412 162.8 83.0
252(16) 0.00397 163.0 85.0
242(16) 0.00413 163.3 87.0
253(16) 0.00395 163.6 89.1
265(16) 0.00377 163.9 91.2
259(16) 0.00386 164.2 93.4
266(16) 0.00376 164.5 95.8
273(17) 0.00366 164.7 98.2
255(16) 0.00392 165.0 100.6
278(17) 0.00360 165.3 103.2
262(16) 0.00382 165.6 105.9
279(17) 0.00358 165.9 108.7
277(17) 0.00361 166.1 111.6
307(18) 0.003257 166.4 114.7
276(17) 0.00362 166.7 117.8
295(17) 0.003390 167.0 121.1
310(18) 0.003226 167.3 124.5
280(17) 0.00357 167.5 128.1
309(18) 0.003236 167.8 131.8
337(18) 0.002967 168.1 135.7
324(18) 0.003086 168.4 139.8
355(19) 0.002817 168.7 144.1
313(18) 0.003195 168.9 148.5
342(18) 0.002924 169.2 153.2
330(18) 0.003030 169.5 158.1
346(19) 0.002890 169.8 163.2
376(19) 0.002660 170.1 168.6
421(21) 0.002375 170.3 174.2
372(19) 0.002688 170.6 180.2
409(20) 0.002445 170.9 186.4
410(20) 0.002439 171.2 193.0
446(21) 0.002242 171.5 199.9
532(23) 0.001880 171.7 207.2
524(23) 0.001908 172.0 214.9
539(23) 0.001855 172.3 223.1
521(23) 0.001919 172.6 231.7
518(23) 0.001931 172.9 240.8
509(23) 0.001965 173.1 250.5
519(23) 0.001927 173.4 260.8
524(23) 0.001908 173.7 271.7
520(23) 0.001923 174.0 283.4
510(23) 0.001961 174.3 295.8
495(22) 0.002020 174.5 309.0
519(23) 0.001927 174.8 323.1
527(23) 0.001898 175.1 338.2
525(23) 0.001905 175.4 354.4
517(23) 0.001934 175.7 371.8
542(23) 0.001845 175.9 390.5
574(24) 0.001742 176.2 410.6
563(24) 0.001776 176.5 432.3
547(23) 0.001828 176.8 455.8
577(24) 0.001733 177.1 481.2
591(24) 0.001692 177.4 508.9
639(25) 0.001565 177.6 538.9
655(26) 0.001527 177.9 571.7
694(26) 0.001441 178.2 607.5
714(27) 0.001401 178.5 646.8
745(27) 0.001342 178.8 689.9
758(28) 0.001319 179.0 737.5
807(28) 0.001239 179.3 790.2
846(29) 0.001182 179.6 848.6
957(31) 0.001045 179.9 913.6
928(30) 0.001078 180.2 986.4
1057(33) 0.000946 180.4 1068.0
1177(34) 0.000850 180.7 1160.0
1220(35) 0.000820 181.0 1264.3
1384(37) 0.000723 181. 1383.
1509(39) 0.000663 182. 1520.
1625(40) 0.000615 182. 1678.
1738(42) 0.000575 182. 1864.
2075(46) 0.000482 182. 2086.
2364(49) 0.000423 183. 2355.
2656(52) 0.000377 183. 2688.
3151(56) 0.0003174 183. 3111.
3653(60) 0.0002737 184. 3656.
4439(67) 0.0002253 184. 4368.
5126(72) 0.0001951 184. 5302.
6215(79) 0.0001609 184. 6520.
7658(88) 0.0001306 185. 8089.
9679(98) 0.0001033 185. 10067.
12080(110) 0.0000828 185. 12494.
15770(130) 0.0000634 185. 15371.
20030(140) 0.0000499 186. 18632.
24620(160) 0.0000406 186. 22096.
29250(170) 0.0000342 186. 25411.
31640(180) 0.0000316 187. 28034.
31840(180) 0.0000314 187. 29351.
29250(170) 0.0000342 187. 28984.
25650(160) 0.0000390 187. 27045.
21880(150) 0.0000457 188. 24053.
18570(140) 0.0000539 188. 20620.
15850(130) 0.0000631 188. 17213.
13480(120) 0.0000742 189. 14104.
11530(110) 0.0000867 189. 11418.
9703(99) 0.0001031 189. 9187.
8397(92) 0.0001191 189. 7393.
7332(86) 0.0001364 190. 5984.
6382(80) 0.0001567 190. 4898.
5547(74) 0.0001803 190. 4068.
4809(69) 0.0002079 191. 3437.
4323(66) 0.0002313 191. 2952.
3893(62) 0.0002569 191. 2574.
3433(59) 0.0002913 191. 2275.
3137(56) 0.0003188 192. 2033.
2826(53) 0.000354 192. 1833.
2568(51) 0.000389 192. 1666.
2295(48) 0.000436 192. 1524.
2070(45) 0.000483 193. 1404.
1926(44) 0.000519 193. 1302.
1838(43) 0.000544 193. 1215.
1680(41) 0.000595 194. 1143.
1579(40) 0.000633 194. 1085.
1458(38) 0.000686 194. 1040.
1411(38) 0.000709 194. 1008.
1319(36) 0.000758 195. 988.
1304(36) 0.000767 195. 983.
1258(35) 0.000795 195. 990.
1225(35) 0.000816 195.6 1010.9
1276(36) 0.000784 196. 1044.
1249(35) 0.000801 196. 1089.
1343(37) 0.000745 196. 1142.
1344(37) 0.000744 197. 1199.
1413(38) 0.000708 197. 1255.
1453(38) 0.000688 197. 1299.
1482(38) 0.000675 198. 1324.
1523(39) 0.000657 198. 1319.
1507(39) 0.000664 198. 1283.
1564(40) 0.000639 198. 1218.
1372(37) 0.000729 199. 1132.
1231(35) 0.000812 199. 1034.
1047(32) 0.000955 199.2 933.4
950(31) 0.001053 199.5 835.4
837(29) 0.001195 199.8 743.9
762(28) 0.001312 200.1 661.2
624(25) 0.001603 200.3 588.2
612(25) 0.001634 200.6 524.8
556(24) 0.001799 200.9 470.7
531(23) 0.001883 201.2 425.0
503(22) 0.001988 201.5 386.7
488(22) 0.002049 201.8 354.7
479(22) 0.002088 202.0 327.9
435(21) 0.002299 202.3 305.3
425(21) 0.002353 202.6 286.1
427(21) 0.002342 202.9 269.5
377(19) 0.002653 203.2 255.1
376(19) 0.002660 203.4 243.3
362(19) 0.002762 203.7 231.9
343(19) 0.002915 204.0 221.6
350(19) 0.002857 204.3 212.2
322(18) 0.003106 204.6 203.6
353(19) 0.002833 204.8 195.6
293(17) 0.003413 205.1 188.2
301(17) 0.003322 205.4 181.4
305(17) 0.003279 205.7 174.9
317(18) 0.003155 206.0 168.9
300(17) 0.003333 206.2 163.3
305(17) 0.003279 206.5 157.9
284(17) 0.00352 206.8 152.9
254(16) 0.00394 207.1 148.2
281(17) 0.00356 207.4 143.7
271(16) 0.00369 207.6 139.5
265(16) 0.00377 207.9 135.5
299(17) 0.003344 208.2 131.7
248(16) 0.00403 208.5 128.1
256(16) 0.00391 208.8 124.7
264(16) 0.00379 209.0 121.5
260(16) 0.00385 209.3 118.4
244(16) 0.00410 209.6 115.4
253(16) 0.00395 209.9 112.6
269(16) 0.00372 210.2 109.9
258(16) 0.00388 210.4 107.4
255(16) 0.00392 210.7 104.9
243(16) 0.00412 211.0 102.6
241(16) 0.00415 211.3 100.4
224(15) 0.00446 211.6 98.2
248(16) 0.00403 211.8 96.2
265(16) 0.00377 212.1 94.2
246(16) 0.00407 212.4 92.4
239(15) 0.00418 212.7 90.6
246(16) 0.00407 213.0 88.9
224(15) 0.00446 213.2 87.2
204(14) 0.00490 214.4 85.7
219(15) 0.00457 216.4 84.2
212(15) 0.00472 218.4 82.8
235(15) 0.00426 220.4 81.4
232(15) 0.00431 222.3 80.1
250(16) 0.00400 224.3 78.9
213(15) 0.00469 226.3 77.7
242(16) 0.00413 227.8 76.6
213(15) 0.00469 227.6 75.5
190(14) 0.00526 227.4 74.5
217(15) 0.00461 227.3 73.5
212(15) 0.00472 227.1 72.6
205(14) 0.00488 226.9 71.7
195(14) 0.00513 226.7 70.9
211(15) 0.00474 226.6 70.1
207(14) 0.00483 226.4 69.4
215(15) 0.00465 226.2 68.7
228(15) 0.00439 226.0 68.1
205(14) 0.00488 225.9 67.5
236(15) 0.00424 225.7 67.0
209(14) 0.00478 225.5 66.5
222(15) 0.00450 225.3 66.0
257(16) 0.00389 225.2 65.6
282(17) 0.00355 225.0 65.3
321(18) 0.003115 224.8 65.0
331(18) 0.003021 224.7 64.8
321(18) 0.003115 224.5 64.6
326(18) 0.003067 224.3 64.5
251(16) 0.00398 224.1 64.5
253(16) 0.00395 224.0 64.5
246(16) 0.00407 223.8 64.5
255(16) 0.00392 223.6 64.7
225(15) 0.00444 223.4 64.9
215(15) 0.00465 223.3 65.1
239(15) 0.00418 223.1 65.5
224(15) 0.00446 222.9 66.0
209(14) 0.00478 222.7 66.5
236(15) 0.00424 222.6 67.1
203(14) 0.00493 222.4 67.9
243(16) 0.00412 222.2 68.7
231(15) 0.00433 222.0 69.7
242(16) 0.00413 221.9 70.9
221(15) 0.00452 221.7 72.2
217(15) 0.00461 221.5 73.6
230(15) 0.00435 221.4 75.3
229(15) 0.00437 221.2 77.1
245(16) 0.00408 221.0 79.2
250(16) 0.00400 220.8 81.6
245(16) 0.00408 220.7 84.2
243(16) 0.00412 220.5 87.2
263(16) 0.00380 220.3 90.6
251(16) 0.00398 220.1 94.5
272(16) 0.00368 220.0 98.9
247(16) 0.00405 219.8 103.8
295(17) 0.003390 219.6 109.5
278(17) 0.00360 219.4 116.1
274(17) 0.00365 219.3 123.6
306(17) 0.003268 219.1 132.3
324(18) 0.003086 218.9 142.5
328(18) 0.003049 218.8 154.5
357(19) 0.002801 218.6 168.7
367(19) 0.002725 218.4 185.6
410(20) 0.002439 218.2 206.2
453(21) 0.002208 218.1 231.7
535(23) 0.001869 217.9 264.1
511(23) 0.001957 217.7 306.6
608(25) 0.001645 217.5 364.4
770(28) 0.001299 217.4 445.0
849(29) 0.001178 217.2 558.6
1012(32) 0.000988 217.0 717.7
1190(34) 0.000840 216.8 934.4
1528(39) 0.000654 217. 1217.
1871(43) 0.000534 216. 1564.
2155(46) 0.000464 216. 1945.
2526(50) 0.000396 216. 2287.
2648(51) 0.000378 216. 2471.
2617(51) 0.000382 216. 2419.
2376(49) 0.000421 216. 2179.
2113(46) 0.000473 215. 1878.
1910(44) 0.000524 215. 1616.
1787(42) 0.000560 215. 1446.
1730(42) 0.000578 215. 1384.
1735(42) 0.000576 215. 1426.
1742(42) 0.000574 215. 1546.
1771(42) 0.000565 214. 1686.
1869(43) 0.000535 214. 1752.
1839(43) 0.000544 214. 1671.
1645(41) 0.000608 214. 1458.
1410(38) 0.000709 214. 1192.
1185(34) 0.000844 213.5 939.3
968(31) 0.001033 213.4 728.2
804(28) 0.001244 213.2 564.6
622(25) 0.001608 213.0 443.5
547(23) 0.001828 212.9 356.4
499(22) 0.002004 212.7 294.2
443(21) 0.002257 212.5 249.2
414(20) 0.002415 212.3 215.8
352(19) 0.002841 212.2 190.2
348(19) 0.002874 212.0 169.7
335(18) 0.002985 211.8 153.1
311(18) 0.003215 211.6 139.2
316(18) 0.003165 211.5 127.5
291(17) 0.003436 211.3 117.5
260(16) 0.00385 211.1 108.9
256(16) 0.00391 210.9 101.4
293(17) 0.003413 210.8 94.9
277(17) 0.00361 210.6 89.1
265(16) 0.00377 210.4 84.0
272(16) 0.00368 210.2 79.5
233(15) 0.00429 210.1 75.5
277(17) 0.00361 209.9 71.9
278(17) 0.00360 209.7 68.6
259(16) 0.00386 209.6 65.7
252(16) 0.00397 209.4 63.0
259(16) 0.00386 209.2 60.6
254(16) 0.00394 209.0 58.4
277(17) 0.00361 208.9 56.3
258(16) 0.00388 208.7 54.5
245(16) 0.00408 208.5 52.8
253(16) 0.00395 208.3 51.2
240(15) 0.00417 208.2 49.8
244(16) 0.00410 208.0 48.4
224(15) 0.00446 207.8 47.2
219(15) 0.00457 207.6 46.1
232(15) 0.00431 207.5 45.0
261(16) 0.00383 207.3 44.0
251(16) 0.00398 207.1 43.1
257(16) 0.00389 207.0 42.3
244(16) 0.00410 206.8 41.5
253(16) 0.00395 206.6 40.8
219(15) 0.00457 206.4 40.1
237(15) 0.00422 206.3 39.5
246(16) 0.00407 206.1 38.9
241(16) 0.00415 205.9 38.4
225(15) 0.00444 205.7 37.9
236(15) 0.00424 205.6 37.4
247(16) 0.00405 205.4 37.0
247(16) 0.00405 205.2 36.6
227(15) 0.00441 205.0 36.2
237(15) 0.00422 204.9 35.9
247(16) 0.00405 204.7 35.6
242(16) 0.00413 204.5 35.3
242(16) 0.00413 204.3 35.0
257(16) 0.00389 204.2 34.8
235(15) 0.00426 204.0 34.6
224(15) 0.00446 203.8 34.4
235(15) 0.00426 203.7 34.3
254(16) 0.00394 203.5 34.2
229(15) 0.00437 203.3 34.0
249(16) 0.00402 203.1 34.0
235(15) 0.00426 203.0 33.9
244(16) 0.00410 202.8 33.8
236(15) 0.00424 202.6 33.8
235(15) 0.00426 202.4 33.8
249(16) 0.00402 202.3 33.8
241(16) 0.00415 202.1 33.8
254(16) 0.00394 201.9 33.9
261(16) 0.00383 201.7 34.0
242(16) 0.00413 201.6 34.1
256(16) 0.00391 201.4 34.2
244(16) 0.00410 201.2 34.3
229(15) 0.00437 201.0 34.5
240(15) 0.00417 200.9 34.6
231(15) 0.00433 200.7 34.8
254(16) 0.00394 200.5 35.0
215(15) 0.00465 200.4 35.3
195(14) 0.00513 200.2 35.5
208(14) 0.00481 200.0 35.8
213(15) 0.00469 199.8 36.1
195(14) 0.00513 199.7 36.5
217(15) 0.00461 199.5 36.8
213(15) 0.00469 199.3 37.2
208(14) 0.00481 199.1 37.6
196(14) 0.00510 200.9 38.0
229(15) 0.00437 208.4 38.5
185(14) 0.00541 208.3 39.0
215(15) 0.00465 208.1 39.5
214(15) 0.00467 208.0 40.1
191(14) 0.00524 207.8 40.7
215(15) 0.00465 207.7 41.3
208(14) 0.00481 207.5 42.0
212(15) 0.00472 207.3 42.7
207(14) 0.00483 207.2 43.4
194(14) 0.00515 207.0 44.2
234(15) 0.00427 206.9 45.0
215(15) 0.00465 206.7 45.9
210(14) 0.00476 206.6 46.9
234(15) 0.00427 206.4 47.9
210(14) 0.00476 206.3 48.9
218(15) 0.00459 206.1 50.0
201(14) 0.00498 206.0 51.2
243(16) 0.00412 205.8 52.4
242(16) 0.00413 205.7 53.7
229(15) 0.00437 205.5 55.1
224(15) 0.00446 205.4 56.6
193(14) 0.00518 205.2 58.2
223(15) 0.00448 205.1 59.8
224(15) 0.00446 204.9 61.6
206(14) 0.00485 204.8 63.5
216(15) 0.00463 204.6 65.5
223(15) 0.00448 204.5 67.6
238(15) 0.00420 204.3 69.9
239(15) 0.00418 204.2 72.3
232(15) 0.00431 204.0 74.9
254(16) 0.00394 203.9 77.6
255(16) 0.00392 203.7 80.6
256(16) 0.00391 203.5 83.8
258(16) 0.00388 203.4 87.2
257(16) 0.00389 203.2 90.8
265(16) 0.00377 203.1 94.7
247(16) 0.00405 202.9 99.0
255(16) 0.00392 202.8 103.5
293(17) 0.003413 202.6 108.5
279(17) 0.00358 202.5 113.8
286(17) 0.003497 202.3 119.6
285(17) 0.00351 202.2 125.9
292(17) 0.003425 202.0 132.8
288(17) 0.003472 201.9 140.3
292(17) 0.003425 201.7 148.6
339(18) 0.002950 201.6 157.6
347(19) 0.002882 201.4 167.6
347(19) 0.002882 201.3 178.6
379(19) 0.002639 201.1 190.8
365(19) 0.002740 201.0 204.5
393(20) 0.002545 200.8 220.0
407(20) 0.002457 200.7 237.6
477(22) 0.002096 200.5 251.6
472(22) 0.002119 200.4 275.2
486(22) 0.002058 200.2 303.1
554(24) 0.001805 200.1 336.4
593(24) 0.001686 199.9 376.9
614(25) 0.001629 199.8 426.4
716(27) 0.001397 199.6 487.3
752(27) 0.001330 199.4 562.7
856(29) 0.001168 199.3 655.5
939(31) 0.001065 199.1 769.4
1023(32) 0.000978 199.0 907.8
1150(34) 0.000870 198.8 1073.5
1395(37) 0.000717 199. 1270.
1575(40) 0.000635 199. 1497.
1925(44) 0.000519 198. 1755.
2175(47) 0.000460 198. 2041.
2622(51) 0.000381 198. 2348.
3015(55) 0.0003317 198. 2664.
3497(59) 0.0002860 198. 2972.
3700(61) 0.0002703 198. 3247.
3797(62) 0.0002634 197. 3466.
3983(63) 0.0002511 197. 3608.
3940(63) 0.0002538 197. 3662.
3757(61) 0.0002662 197. 3630.
3648(60) 0.0002741 197. 3522.
3388(58) 0.0002952 197. 3351.
3105(56) 0.0003221 197. 3132.
2857(53) 0.0003500 196. 2877.
2596(51) 0.000385 196. 2602.
2357(49) 0.000424 196. 2320.
2106(46) 0.000475 196. 2045.
1921(44) 0.000521 196. 1785.
1662(41) 0.000602 196. 1547.
1562(40) 0.000640 195. 1334.
1472(38) 0.000679 195. 1146.
1348(37) 0.000742 195. 983.
1214(35) 0.000824 195.0 843.9
1081(33) 0.000925 194.9 725.8
961(31) 0.001041 194.7 626.5
980(31) 0.001020 194.6 543.5
840(29) 0.001190 194.4 474.5
857(29) 0.001167 194.3 417.2
803(28) 0.001245 194.1 369.6
685(26) 0.001460 194.0 330.0
625(25) 0.001600 193.8 296.8
635(25) 0.001575 193.7 269.0
627(25) 0.001595 193.5 245.3
583(24) 0.001715 193.4 225.0
547(23) 0.001828 193.2 207.5
540(23) 0.001852 193.1 192.2
506(22) 0.001976 192.9 178.6
475(22) 0.002105 192.8 166.6
437(21) 0.002288 192.6 155.8
412(20) 0.002427 192.5 146.1
399(20) 0.002506 192.3 137.3
365(19) 0.002740 192.2 129.3
367(19) 0.002725 192.0 122.0
366(19) 0.002732 191.9 115.3
338(18) 0.002959 191.7 109.1
326(18) 0.003067 191.5 103.4
318(18) 0.003145 191.4 98.2
338(18) 0.002959 191.2 93.3
301(17) 0.003322 191.1 88.8
305(17) 0.003279 190.9 84.6
279(17) 0.00358 190.8 80.7
310(18) 0.003226 190.6 77.1
281(17) 0.00356 190.5 73.7
294(17) 0.003401 190.3 70.5
298(17) 0.003356 190.2 67.6
275(17) 0.00364 190.0 64.8
287(17) 0.003484 189.9 62.2
258(16) 0.00388 189.7 59.7
260(16) 0.00385 189.6 57.4
274(17) 0.00365 189.4 55.2
243(16) 0.00412 189.3 53.2
246(16) 0.00407 189.1 51.2
245(16) 0.00408 189.0 49.4
249(16) 0.00402 188.8 47.6
248(16) 0.00403 188.7 46.0
231(15) 0.00433 188.5 44.4
229(15) 0.00437 188.4 43.0
225(15) 0.00444 188.2 41.6
223(15) 0.00448 188.1 40.2
217(15) 0.00461 187.9 38.9
224(15) 0.00446 187.8 37.7
213(15) 0.00469 187.6 36.6
193(14) 0.00518 187.4 35.5
224(15) 0.00446 187.3 34.4
190(14) 0.00526 187.1 33.4
208(14) 0.00481 187.0 32.5
212(15) 0.00472 186.8 31.6
207(14) 0.00483 186.7 30.7
184(14) 0.00543 186.5 29.8
179(13) 0.00559 186.4 29.0
200(14) 0.00500 186.2 28.3
225(15) 0.00444 186.1 27.5
216(15) 0.00463 185.9 26.8
210(14) 0.00476 185.8 26.2
189(14) 0.00529 185.6 25.5
219(15) 0.00457 185.5 24.9
193(14) 0.00518 185.3 24.3
181(13) 0.00552 185.2 23.7
207(14) 0.00483 185.0 23.1
172(13) 0.00581 184.9 22.6
188(14) 0.00532 184.7 22.1
186(14) 0.00538 184.6 21.6
185(14) 0.00541 184.4 21.1
190(14) 0.00526 184.3 20.6
191(14) 0.00524 184.1 20.2
190(14) 0.00526 184.0 19.8
188(14) 0.00532 183.8 19.3
192(14) 0.00521 183.6 18.9
191(14) 0.00524 183.5 18.5
198(14) 0.00505 183.3 18.2
196(14) 0.00510 183.2 17.8
196(14) 0.00510 183.0 17.5
201(14) 0.00498 182.9 17.1
183(14) 0.00546 182.7 16.8
199(14) 0.00503 182.6 16.5
188(14) 0.00532 182.4 16.2
206(14) 0.00485 182.3 15.9
173(13) 0.00578 182.1 15.6
166(13) 0.00602 182.0 15.3
180(13) 0.00556 181.8 15.0
176(13) 0.00568 181.7 14.8
187(14) 0.00535 181.5 14.5
192(14) 0.00521 181.4 14.3
198(14) 0.00505 178.9 14.0
183(14) 0.00546 176.4 13.8
195(14) 0.00513 174.0 13.6
197(14) 0.00508 171.5 13.4
172(13) 0.00581 170.5 13.2
180(13) 0.00556 170.9 12.9
180(13) 0.00556 171.3 12.7
184(14) 0.00543 171.8 12.6
179(13) 0.00559 172.2 12.4
168(13) 0.00595 172.7 12.2
187(14) 0.00535 173.1 12.0
178(13) 0.00562 173.5 11.9
193(14) 0.00518 174.0 11.7
184(14) 0.00543 174.4 11.6
194(14) 0.00515 174.8 11.4
193(14) 0.00518 175.3 11.3
205(14) 0.00488 175.7 11.1
176(13) 0.00568 176.1 11.0
179(13) 0.00559 176.6 10.8
199(14) 0.00503 177.0 10.7
186(14) 0.00538 177.4 10.6
201(14) 0.00498 177.9 10.5
203(14) 0.00493 178.3 10.4
195(14) 0.00513 178.7 10.3
177(13) 0.00565 179.2 10.2
170(13) 0.00588 179.6 10.1
184(14) 0.00543 180.0 10.0
175(13) 0.00571 180.5 9.9
195(14) 0.00513 180.9 9.8
192(14) 0.00521 181.3 9.7
191(14) 0.00524 181.8 9.7
189(14) 0.00529 182.2 9.6
188(14) 0.00532 182.7 9.5
206(14) 0.00485 183.1 9.4
185(14) 0.00541 183.5 9.4
185(14) 0.00541 184.0 9.3
196(14) 0.00510 184.4 9.2
167(13) 0.00599 184.8 9.2
191(14) 0.00524 185.3 9.1
174(13) 0.00575 185.7 9.1
181(13) 0.00552 186.1 9.0
176(13) 0.00568 186.6 8.9
187(14) 0.00535 187.0 8.9
189(14) 0.00529 187.4 8.8
187(14) 0.00535 187.9 8.7
171(13) 0.00585 188.3 8.7
195(14) 0.00513 188.7 8.6
175(13) 0.00571 189.2 8.6
166(13) 0.00602 189.6 8.5
182(13) 0.00549 190.0 8.4
215(15) 0.00465 190.5 8.4
181(13) 0.00552 190.9 8.3
183(14) 0.00546 191.3 8.3
188(14) 0.00532 191.8 8.2
196(14) 0.00510 192.2 8.2
179(13) 0.00559 192.7 8.2
192(14) 0.00521 193.1 8.1
195(14) 0.00513 193.5 8.1
206(14) 0.00485 194.0 8.1
236(15) 0.00424 194.4 8.0
408(20) 0.002451 194.8 8.0
655(26) 0.001527 195.3 8.0
572(24) 0.001748 195.7 8.0
480(22) 0.002083 196.1 8.0
365(19) 0.002740 196.6 8.0
332(18) 0.003012 197.0 8.0
259(16) 0.00386 197.4 8.0
230(15) 0.00435 197.9 8.0
205(14) 0.00488 198.3 8.0
198(14) 0.00505 198.7 8.0
219(15) 0.00457 199.2 8.1
190(14) 0.00526 199.6 8.1
184(14) 0.00543 200.0 8.2
190(14) 0.00526 200.5 8.2
192(14) 0.00521 200.9 8.2
178(13) 0.00562 201.3 8.3
209(14) 0.00478 201.8 8.4
221(15) 0.00452 202.2 8.4
191(14) 0.00524 202.7 8.5
184(14) 0.00543 203.1 8.6
205(14) 0.00488 203.5 8.7
204(14) 0.00490 200.9 8.8
202(14) 0.00495 197.2 8.9
191(14) 0.00524 195.5 9.0
212(15) 0.00472 195.5 9.2
193(14) 0.00518 195.6 9.3
218(15) 0.00459 195.6 9.4
202(14) 0.00495 195.7 9.6
203(14) 0.00493 195.8 9.8
218(15) 0.00459 195.8 10.0
202(14) 0.00495 195.9 10.2
193(14) 0.00518 195.9 10.4
180(13) 0.00556 196.0 10.6
200(14) 0.00500 196.1 10.9
201(14) 0.00498 196.1 11.2
210(14) 0.00476 196.2 11.5
226(15) 0.00442 196.3 11.8
212(15) 0.00472 196.3 12.2
215(15) 0.00465 196.4 12.6
230(15) 0.00435 196.4 13.0
217(15) 0.00461 196.5 13.5
214(15) 0.00467 196.6 14.0
190(14) 0.00526 196.6 14.6
216(15) 0.00463 196.7 15.3
227(15) 0.00441 196.7 16.0
216(15) 0.00463 196.8 16.9
222(15) 0.00450 196.9 17.9
218(15) 0.00459 196.9 19.0
226(15) 0.00442 197.0 20.3
214(15) 0.00467 197.1 21.7
252(16) 0.00397 197.1 23.4
228(15) 0.00439 197.2 25.4
245(16) 0.00408 197.2 27.6
230(15) 0.00435 197.3 30.2
246(16) 0.00407 197.4 33.1
221(15) 0.00452 197.4 36.4
254(16) 0.00394 197.5 40.2
249(16) 0.00402 197.5 44.5
249(16) 0.00402 197.6 49.3
220(15) 0.00455 197.7 54.6
229(15) 0.00437 197.7 60.5
253(16) 0.00395 197.8 67.0
256(16) 0.00391 197.8 74.0
275(17) 0.00364 197.9 81.6
283(17) 0.00353 198.0 89.7
296(17) 0.003378 198.0 98.2
294(17) 0.003401 198.1 107.1
286(17) 0.003497 198.2 116.3
302(17) 0.003311 198.2 125.5
310(18) 0.003226 198.3 134.6
315(18) 0.003175 198.3 143.4
332(18) 0.003012 198.4 151.5
325(18) 0.003077 198.5 158.7
311(18) 0.003215 198.5 164.7
336(18) 0.002976 198.6 169.1
333(18) 0.003003 198.6 171.6
379(19) 0.002639 198.7 172.2
404(20) 0.002475 198.8 170.8
358(19) 0.002793 198.8 167.5
331(18) 0.003021 198.9 162.4
389(20) 0.002571 199.0 155.9
347(19) 0.002882 199.0 148.2
378(19) 0.002646 199.1 139.7
349(19) 0.002865 199.1 130.8
338(18) 0.002959 199.2 121.5
287(17) 0.003484 199.3 112.3
269(16) 0.00372 199.3 103.2
278(17) 0.00360 199.4 94.4
291(17) 0.003436 199.4 86.0
251(16) 0.00398 199.5 78.0
272(16) 0.00368 199.6 70.6
256(16) 0.00391 199.6 63.8
288(17) 0.003472 199.7 57.5
279(17) 0.00358 199.8 51.8
253(16) 0.00395 199.8 46.6
266(16) 0.00376 199.9 42.0
266(16) 0.00376 199.9 37.8
262(16) 0.00382 200.0 34.2
266(16) 0.00376 200.1 31.0
262(16) 0.00382 200.1 28.1
244(16) 0.00410 200.2 25.7
232(15) 0.00431 200.2 23.5
235(15) 0.00426 200.3 21.6
250(16) 0.00400 200.4 20.0
254(16) 0.00394 200.4 18.5
272(16) 0.00368 200.5 17.3
237(15) 0.00422 200.6 16.2
244(16) 0.00410 200.6 15.2
251(16) 0.00398 200.7 14.3
269(16) 0.00372 200.7 13.6
241(16) 0.00415 200.8 12.9
256(16) 0.00391 200.9 12.3
305(17) 0.003279 200.9 11.7
278(17) 0.00360 201.0 11.2
277(17) 0.00361 201.0 10.7
283(17) 0.00353 201.1 10.3
281(17) 0.00356 201.2 9.9
258(16) 0.00388 201.2 9.5
254(16) 0.00394 201.3 9.2
305(17) 0.003279 201.4 8.8
278(17) 0.00360 201.4 8.5
269(16) 0.00372 201.5 8.3
277(17) 0.00361 201.5 8.0
274(17) 0.00365 201.6 7.7
281(17) 0.00356 201.7 7.5
308(18) 0.003247 201.7 7.3
309(18) 0.003236 201.8 7.1
308(18) 0.003247 201.8 6.9
291(17) 0.003436 201.9 6.7
303(17) 0.003300 202.0 6.5
307(18) 0.003257 202.0 6.3
296(17) 0.003378 202.1 6.2
317(18) 0.003155 202.2 6.0
366(19) 0.002732 202.2 5.9
340(18) 0.002941 202.3 5.7
287(17) 0.003484 202.3 5.6
304(17) 0.003289 202.4 5.4
327(18) 0.003058 202.5 5.3
293(17) 0.003413 202.5 5.2
315(18) 0.003175 202.6 5.1
337(18) 0.002967 202.6 5.0
303(17) 0.003300 202.7 4.9
314(18) 0.003185 202.8 4.8
289(17) 0.003460 202.8 4.7
320(18) 0.003125 202.9 4.6
322(18) 0.003106 203.0 4.5
312(18) 0.003205 203.0 4.4
311(18) 0.003215 203.1 4.3
342(18) 0.002924 203.1 4.2
320(18) 0.003125 203.2 4.2
301(17) 0.003322 203.3 4.1
321(18) 0.003115 203.3 4.0
317(18) 0.003155 203.4 3.9
318(18) 0.003145 203.4 3.9
300(17) 0.003333 203.5 3.8
310(18) 0.003226 203.6 3.8
298(17) 0.003356 203.6 3.7
300(17) 0.003333 203.7 3.6
333(18) 0.003003 203.8 3.6
301(17) 0.003322 203.8 3.5
296(17) 0.003378 203.9 3.5
278(17) 0.00360 203.9 3.4
303(17) 0.003300 204.0 3.4
288(17) 0.003472 204.1 3.3
285(17) 0.00351 204.1 3.3
294(17) 0.003401 204.2 3.2
311(18) 0.003215 204.2 3.2
280(17) 0.00357 204.3 3.1
284(17) 0.00352 204.4 3.1
241(16) 0.00415 204.4 3.0
308(18) 0.003247 204.5 3.0
286(17) 0.003497 204.6 3.0
289(17) 0.003460 204.6 2.9
302(17) 0.003311 204.7 2.9
337(18) 0.002967 204.7 2.9
336(18) 0.002976 204.8 2.8
333(18) 0.003003 204.9 2.8
356(19) 0.002809 204.9 2.8
397(20) 0.002519 205.0 2.7
352(19) 0.002841 205.0 2.7
334(18) 0.002994 205.1 2.7
360(19) 0.002778 205.2 2.6
316(18) 0.003165 205.2 2.6
273(17) 0.00366 205.3 2.6
298(17) 0.003356 205.4 2.5
292(17) 0.003425 205.4 2.5
275(17) 0.00364 205.5 2.5
255(16) 0.00392 205.5 2.5
261(16) 0.00383 205.6 2.4
250(16) 0.00400 205.7 2.4
260(16) 0.00385 205.7 2.4
239(15) 0.00418 205.8 2.4
237(15) 0.00422 205.8 2.3
238(15) 0.00420 205.9 2.3
248(16) 0.00403 206.0 2.3
215(15) 0.00465 206.0 2.3
231(15) 0.00433 206.1 2.3
207(14) 0.00483 206.2 2.2
225(15) 0.00444 206.3 2.2
196(14) 0.00510 206.6 2.2
247(16) 0.00405 206.9 2.2
232(15) 0.00431 207.3 2.1
213(15) 0.00469 207.6 2.1
223(15) 0.00448 207.9 2.1
223(15) 0.00448 208.2 2.1
234(15) 0.00427 208.6 2.1
225(15) 0.00444 208.9 2.1
226(15) 0.00442 209.2 2.0
235(15) 0.00426 209.5 2.0
207(14) 0.00483 209.9 2.0
206(14) 0.00485 210.2 2.0
226(15) 0.00442 210.5 2.0
211(15) 0.00474 210.9 2.0
235(15) 0.00426 211.2 1.9
228(15) 0.00439 211.5 1.9
215(15) 0.00465 211.8 1.9
189(14) 0.00529 212.2 1.9
197(14) 0.00508 212.5 1.9
205(14) 0.00488 212.8 1.9
210(14) 0.00476 213.1 1.9
199(14) 0.00503 213.5 1.8
216(15) 0.00463 213.8 1.8
232(15) 0.00431 214.1 1.8
218(15) 0.00459 214.5 1.8
212(15) 0.00472 214.8 1.8
208(14) 0.00481 215.1 1.8
223(15) 0.00448 215.4 1.8
190(14) 0.00526 215.8 1.8
205(14) 0.00488 215.7 1.7
174(13) 0.00575 215.5 1.7
225(15) 0.00444 215.3 1.7
229(15) 0.00437 215.1 1.7
219(15) 0.00457 214.9 1.7
209(14) 0.00478 214.7 1.7
207(14) 0.00483 214.5 1.7
228(15) 0.00439 214.4 1.7
215(15) 0.00465 214.2 1.7
200(14) 0.00500 214.0 1.6
193(14) 0.00518 213.8 1.6
196(14) 0.00510 213.6 1.6
188(14) 0.00532 213.4 1.6
202(14) 0.00495 213.2 1.6
216(15) 0.00463 213.0 1.6
216(15) 0.00463 212.8 1.6
202(14) 0.00495 212.6 1.6
226(15) 0.00442 212.4 1.6
186(14) 0.00538 212.2 1.6
185(14) 0.00541 212.1 1.5
207(14) 0.00483 211.9 1.5
211(15) 0.00474 211.7 1.5
202(14) 0.00495 211.5 1.5
219(15) 0.00457 211.3 1.5
211(15) 0.00474 211.1 1.5
209(14) 0.00478 210.9 1.5
218(15) 0.00459 210.7 1.5
184(14) 0.00543 210.5 1.5
204(14) 0.00490 210.3 1.5
218(15) 0.00459 210.1 1.5
235(15) 0.00426 209.9 1.5
213(15) 0.00469 209.8 1.5
225(15) 0.00444 209.6 1.4
223(15) 0.00448 209.4 1.4
211(15) 0.00474 209.2 1.4
204(14) 0.00490 209.0 1.4
203(14) 0.00493 208.8 1.4
203(14) 0.00493 208.6 1.4
197(14) 0.00508 208.4 1.4
219(15) 0.00457 208.2 1.4
195(14) 0.00513 208.0 1.4
207(14) 0.00483 207.8 1.4
205(14) 0.00488 207.6 1.4
177(13) 0.00565 207.5 1.4
195(14) 0.00513 207.3 1.4
219(15) 0.00457 207.1 1.4
218(15) 0.00459 206.9 1.4
204(14) 0.00490 206.7 1.4
211(15) 0.00474 206.5 1.4
207(14) 0.00483 206.3 1.3
205(14) 0.00488 206.1 1.3
210(14) 0.00476 205.9 1.3
225(15) 0.00444 205.7 1.3
225(15) 0.00444 205.5 1.3
212(15) 0.00472 205.3 1.3
209(14) 0.00478 205.2 1.3
218(15) 0.00459 205.0 1.3
189(14) 0.00529 204.8 1.3
231(15) 0.00433 204.6 1.3
205(14) 0.00488 204.4 1.3
214(15) 0.00467 204.2 1.3
195(14) 0.00513 204.0 1.3
208(14) 0.00481 203.8 1.3
223(15) 0.00448 203.6 1.3
213(15) 0.00469 203.4 1.3
222(15) 0.00450 203.2 1.3
218(15) 0.00459 203.0 1.3
198(14) 0.00505 202.9 1.3
199(14) 0.00503 202.7 1.3
174(13) 0.00575 202.5 1.3
207(14) 0.00483 202.3 1.3
207(14) 0.00483 202.1 1.3
217(15) 0.00461 201.9 1.3
223(15) 0.00448 201.7 1.3
209(14) 0.00478 201.5 1.3
196(14) 0.00510 201.3 1.3
195(14) 0.00513 201.1 1.3
215(15) 0.00465 200.9 1.3
203(14) 0.00493 200.7 1.3
199(14) 0.00503 200.6 1.3
200(14) 0.00500 200.4 1.3
192(14) 0.00521 200.2 1.3
194(14) 0.00515 200.0 1.3
201(14) 0.00498 199.8 1.3
207(14) 0.00483 199.6 1.3
202(14) 0.00495 199.4 1.3
204(14) 0.00490 199.2 1.3
187(14) 0.00535 199.0 1.3
210(14) 0.00476 198.8 1.3
192(14) 0.00521 198.6 1.3
204(14) 0.00490 198.4 1.3
200(14) 0.00500 198.3 1.3
186(14) 0.00538 198.1 1.3
186(14) 0.00538 197.9 1.3
186(14) 0.00538 197.7 1.3
202(14) 0.00495 197.5 1.3
208(14) 0.00481 197.3 1.3
224(15) 0.00446 197.1 1.3
196(14) 0.00510 196.9 1.3
205(14) 0.00488 196.7 1.3
207(14) 0.00483 196.5 1.4
220(15) 0.00455 196.3 1.4
216(15) 0.00463 196.1 1.4
179(13) 0.00559 196.0 1.4
191(14) 0.00524 195.8 1.5
193(14) 0.00518 195.6 1.5
206(14) 0.00485 195.4 1.5
194(14) 0.00515 195.2 1.5
186(14) 0.00538 195.0 1.5
183(14) 0.00546 194.8 1.5
206(14) 0.00485 194.7 1.5
190(14) 0.00526 194.6 1.5
202(14) 0.00495 194.4 1.5
198(14) 0.00505 194.3 1.5
180(13) 0.00556 194.2 1.5
183(14) 0.00546 194.0 1.5
216(15) 0.00463 193.9 1.6
218(15) 0.00459 193.7 1.6
207(14) 0.00483 193.6 1.6
173(13) 0.00578 193.5 1.6
199(14) 0.00503 193.3 1.6
179(13) 0.00559 193.2 1.6
172(13) 0.00581 193.1 1.6
195(14) 0.00513 192.9 1.6
190(14) 0.00526 192.8 1.6
202(14) 0.00495 192.7 1.6
208(14) 0.00481 192.5 2.7
180(13) 0.00556 192.4 2.8
197(14) 0.00508 192.3 2.8
197(14) 0.00508 192.1 2.8
184(14) 0.00543 192.0 2.8
207(14) 0.00483 191.9 2.9
204(14) 0.00490 191.7 2.9
187(14) 0.00535 191.6 2.9
179(13) 0.00559 191.4 3.0
168(13) 0.00595 191.3 3.0
201(14) 0.00498 191.2 3.0
190(14) 0.00526 191.0 3.9
180(13) 0.00556 190.9 3.9
177(13) 0.00565 190.8 4.0
188(14) 0.00532 190.6 4.0
187(14) 0.00535 190.5 5.8
177(13) 0.00565 190.4 5.8
200(14) 0.00500 190.2 5.9
189(14) 0.00529 190.1 5.9
205(14) 0.00488 190.0 6.0
191(14) 0.00524 189.8 6.1
194(14) 0.00515 189.7 6.2
217(15) 0.00461 189.6 6.2
214(15) 0.00467 189.4 6.4
218(15) 0.00459 189.3 6.5
223(15) 0.00448 189.1 6.6
203(14) 0.00493 189.0 6.6
204(14) 0.00490 188.9 6.7
170(13) 0.00588 188.7 6.8
187(14) 0.00535 188.6 6.9
189(14) 0.00529 188.5 7.0
204(14) 0.00490 188.3 7.1
184(14) 0.00543 188.3 7.2
183(14) 0.00546 188.6 7.3
187(14) 0.00535 188.9 7.4
203(14) 0.00493 189.2 7.6
195(14) 0.00513 189.4 7.7
186(14) 0.00538 189.7 7.8
193(14) 0.00518 190.0 8.0
188(14) 0.00532 190.3 8.1
199(14) 0.00503 190.6 8.3
182(13) 0.00549 190.9 8.4
204(14) 0.00490 191.1 8.6
207(14) 0.00483 191.4 8.8
166(13) 0.00602 191.7 9.0
187(14) 0.00535 192.0 9.2
205(14) 0.00488 192.3 9.4
205(14) 0.00488 192.6 9.6
192(14) 0.00521 192.8 9.9
192(14) 0.00521 193.1 10.2
191(14) 0.00524 193.4 10.5
201(14) 0.00498 193.7 10.9
201(14) 0.00498 194.0 11.3
189(14) 0.00529 194.3 11.7
183(14) 0.00546 194.6 12.2
239(15) 0.00418 194.8 12.7
199(14) 0.00503 195.1 13.3
186(14) 0.00538 195.4 14.0
195(14) 0.00513 195.7 14.7
218(15) 0.00459 196.0 15.6
192(14) 0.00521 196.3 16.5
195(14) 0.00513 196.5 17.5
211(15) 0.00474 196.8 18.6
209(14) 0.00478 197.1 19.8
195(14) 0.00513 197.4 21.2
178(13) 0.00562 197.7 22.6
215(15) 0.00465 198.0 24.1
202(14) 0.00495 198.2 25.8
220(15) 0.00455 198.5 27.6
201(14) 0.00498 198.8 29.4
216(15) 0.00463 199.1 31.4
243(16) 0.00412 199.4 33.4
232(15) 0.00431 199.7 35.5
235(15) 0.00426 200.0 37.6
232(15) 0.00431 200.2 39.8
229(15) 0.00437 200.5 41.9
238(15) 0.00420 200.8 43.9
240(15) 0.00417 201.1 45.9
225(15) 0.00444 201.4 47.6
252(16) 0.00397 201.7 49.2
259(16) 0.00386 201.9 50.5
284(17) 0.00352 202.2 51.4
249(16) 0.00402 202.5 52.0
273(17) 0.00366 202.8 52.3
229(15) 0.00437 203.1 52.1
262(16) 0.00382 203.4 51.6
239(15) 0.00418 203.6 50.8
239(15) 0.00418 203.9 49.6
241(16) 0.00415 204.2 48.3
220(15) 0.00455 204.5 46.7
229(15) 0.00437 204.8 45.0
235(15) 0.00426 205.1 43.2
211(15) 0.00474 205.3 41.4
214(15) 0.00467 205.6 39.6
226(15) 0.00442 205.9 37.8
210(14) 0.00476 206.2 36.1
210(14) 0.00476 206.5 34.5
200(14) 0.00500 206.8 32.9
219(15) 0.00457 207.1 31.5
219(15) 0.00457 207.3 30.1
236(15) 0.00424 207.6 28.9
217(15) 0.00461 207.9 27.8
201(14) 0.00498 208.2 26.8
216(15) 0.00463 208.5 25.9
212(15) 0.00472 208.8 25.2
204(14) 0.00490 209.0 24.5
216(15) 0.00463 209.3 24.0
242(16) 0.00413 209.6 23.6
195(14) 0.00513 209.9 23.2
259(16) 0.00386 210.2 23.0
255(16) 0.00392 210.5 22.8
245(16) 0.00408 210.7 22.7
236(15) 0.00424 211.0 22.7
243(16) 0.00412 211.3 22.8
229(15) 0.00437 211.6 22.9
226(15) 0.00442 211.9 23.0
245(16) 0.00408 212.2 23.3
235(15) 0.00426 212.5 23.5
223(15) 0.00448 212.7 23.9
235(15) 0.00426 213.0 24.2
200(14) 0.00500 213.3 24.6
245(16) 0.00408 213.6 25.1
221(15) 0.00452 213.9 25.6
207(14) 0.00483 214.2 26.2
244(16) 0.00410 214.4 26.7
234(15) 0.00427 214.7 27.4
227(15) 0.00441 215.0 28.1
213(15) 0.00469 215.3 28.8
227(15) 0.00441 215.6 29.6
219(15) 0.00457 215.9 30.5
224(15) 0.00446 216.1 31.4
209(14) 0.00478 216.4 32.4
224(15) 0.00446 216.7 33.4
212(15) 0.00472 217.0 34.5
239(15) 0.00418 217.3 35.7
209(14) 0.00478 217.6 37.0
222(15) 0.00450 217.9 38.4
225(15) 0.00444 218.1 39.9
219(15) 0.00457 218.4 41.5
225(15) 0.00444 218.7 43.2
223(15) 0.00448 219.0 45.0
244(16) 0.00410 219.3 47.0
235(15) 0.00426 219.6 49.2
245(16) 0.00408 219.8 51.6
232(15) 0.00431 220.1 54.1
221(15) 0.00452 220.4 56.9
246(16) 0.00407 220.7 60.0
250(16) 0.00400 221.0 63.3
236(15) 0.00424 221.3 67.0
244(16) 0.00410 221.5 71.1
242(16) 0.00413 221.8 75.6
259(16) 0.00386 222.1 80.6
255(16) 0.00392 222.4 86.2
270(16) 0.00370 222.7 92.4
265(16) 0.00377 223.0 99.5
306(17) 0.003268 223.2 107.4
305(17) 0.003279 223.5 116.5
274(17) 0.00365 223.8 126.8
318(18) 0.003145 224.1 138.8
304(17) 0.003289 224.4 152.6
341(18) 0.002933 224.7 168.8
363(19) 0.002755 225.0 188.0
393(20) 0.002545 225.2 210.8
459(21) 0.002179 225.5 238.6
433(21) 0.002309 225.8 272.9
496(22) 0.002016 226.1 316.6
589(24) 0.001698 226.4 374.1
600(24) 0.001667 226.7 452.4
736(27) 0.001359 226.9 562.0
884(30) 0.001131 227.2 716.8
1062(33) 0.000942 227.5 933.1
1311(36) 0.000763 228. 1227.
1711(41) 0.000584 228. 1609.
2095(46) 0.000477 228. 2068.
2685(52) 0.000372 229. 2551.
2966(54) 0.0003372 229. 2934.
3075(55) 0.0003252 229. 3057.
2830(53) 0.000353 230. 2871.
2511(50) 0.000398 230. 2497.
2231(47) 0.000448 230. 2101.
2039(45) 0.000490 230. 1783.
1893(44) 0.000528 231. 1580.
1791(42) 0.000558 231. 1498.
1782(42) 0.000561 231. 1524.
1736(42) 0.000576 231. 1634.
1839(43) 0.000544 232. 1786.
1967(44) 0.000508 232. 1918.
1944(44) 0.000514 232. 1956.
2047(45) 0.000489 233. 1859.
1791(42) 0.000558 233. 1650.
1500(39) 0.000667 233. 1390.
1397(37) 0.000716 233. 1132.
1120(33) 0.000893 233.8 904.5
990(31) 0.001010 234.0 717.3
837(29) 0.001195 234.3 570.4
750(27) 0.001333 234.6 458.7
635(25) 0.001575 234.9 375.2
534(23) 0.001873 235.2 313.8
489(22) 0.002045 235.5 268.0
443(21) 0.002257 235.8 233.4
431(21) 0.002320 236.0 206.4
390(20) 0.002564 236.3 184.9
343(19) 0.002915 236.6 167.2
358(19) 0.002793 236.9 152.5
355(19) 0.002817 237.2 140.1
311(18) 0.003215 237.5 129.4
322(18) 0.003106 237.7 120.2
329(18) 0.003039 238.0 112.2
327(18) 0.003058 238.3 105.3
287(17) 0.003484 238.6 99.2
307(18) 0.003257 238.9 93.8
288(17) 0.003472 239.2 89.0
282(17) 0.00355 239.4 84.9
263(16) 0.00380 239.7 81.2
279(17) 0.00358 240.0 77.9
268(16) 0.00373 240.3 75.0
259(16) 0.00386 240.6 72.4
271(16) 0.00369 240.9 70.1
253(16) 0.00395 241.2 68.1
270(16) 0.00370 241.4 66.3
280(17) 0.00357 241.7 64.7
274(17) 0.00365 242.0 63.4
246(16) 0.00407 242.3 62.2
245(16) 0.00408 242.6 61.2
271(16) 0.00369 242.9 60.4
270(16) 0.00370 243.1 59.7
253(16) 0.00395 243.4 59.2
239(15) 0.00418 243.7 58.8
241(16) 0.00415 243.5 58.7
245(16) 0.00408 242.9 58.7
237(15) 0.00422 242.2 58.9
232(15) 0.00431 241.6 59.3
237(15) 0.00422 240.9 60.0
248(16) 0.00403 240.3 60.9
241(16) 0.00415 239.6 62.1
251(16) 0.00398 239.0 63.4
231(15) 0.00433 238.3 64.9
234(15) 0.00427 237.7 66.5
264(16) 0.00379 237.1 67.9
241(16) 0.00415 236.4 69.0
273(17) 0.00366 235.8 69.6
242(16) 0.00413 235.1 69.9
247(16) 0.00405 235.0 69.9
255(16) 0.00392 235.2 69.9
233(15) 0.00429 235.3 70.1
244(16) 0.00410 235.4 70.4
214(15) 0.00467 235.6 71.0
243(16) 0.00412 235.7 71.9
265(16) 0.00377 235.8 73.1
255(16) 0.00392 236.0 74.6
263(16) 0.00380 236.1 76.3
256(16) 0.00391 236.2 78.2
255(16) 0.00392 236.3 80.4
250(16) 0.00400 236.5 82.8
259(16) 0.00386 236.6 85.5
269(16) 0.00372 236.7 88.4
270(16) 0.00370 236.9 91.6
266(16) 0.00376 237.0 95.1
326(18) 0.003067 237.1 98.8
306(17) 0.003268 237.2 102.9
303(17) 0.003300 237.4 107.3
289(17) 0.003460 237.5 112.2
301(17) 0.003322 237.6 117.4
342(18) 0.002924 237.8 123.1
352(19) 0.002841 237.9 129.3
372(19) 0.002688 238.0 136.1
386(20) 0.002591 238.2 143.6
364(19) 0.002747 238.3 151.7
367(19) 0.002725 238.4 160.7
383(20) 0.002611 238.5 170.6
397(20) 0.002519 238.7 181.5
382(20) 0.002618 238.8 193.7
400(20) 0.002500 238.9 207.4
440(21) 0.002273 239.1 222.8
465(22) 0.002151 239.2 240.3
444(21) 0.002252 239.3 260.3
513(23) 0.001949 239.5 283.7
550(23) 0.001818 239.6 311.2
592(24) 0.001689 239.7 344.0
634(25) 0.001577 239.8 383.5
639(25) 0.001565 240.0 431.7
714(27) 0.001401 240.1 490.7
814(29) 0.001228 240.2 563.1
883(30) 0.001133 240.4 652.1
931(31) 0.001074 240.5 760.8
1055(32) 0.000948 240.6 892.5
1182(34) 0.000846 240.7 1050.5
1353(37) 0.000739 241. 1237.
1593(40) 0.000628 241. 1454.
1932(44) 0.000518 241. 1702.
2182(47) 0.000458 241. 1979.
2664(52) 0.000375 241. 2281.
3150(56) 0.0003175 242. 2599.
3509(59) 0.0002850 242. 2920.
3912(63) 0.0002556 242. 3223.
4297(66) 0.0002327 242. 3483.
4383(66) 0.0002282 242. 3670.
4295(66) 0.0002328 242. 3758.
3879(62) 0.0002578 242. 3734.
3599(60) 0.0002779 242. 3601.
3362(58) 0.0002974 243. 3380.
2981(55) 0.0003355 243. 3098.
2648(51) 0.000378 243. 2785.
2381(49) 0.000420 243. 2464.
2164(47) 0.000462 243. 2151.
1934(44) 0.000517 243. 1860.
1697(41) 0.000589 243. 1595.
1545(39) 0.000647 243. 1361.
1465(38) 0.000683 244. 1157.
1406(37) 0.000711 244. 983.
1218(35) 0.000821 243.9 837.4
1184(34) 0.000845 244.0 716.3
1023(32) 0.000978 244.1 616.9
995(32) 0.001005 244.2 535.8
880(30) 0.001136 244.4 469.9
876(30) 0.001142 244.5 416.4
822(29) 0.001217 244.6 372.7
758(28) 0.001319 244.8 336.8
701(26) 0.001427 244.9 307.3
648(25) 0.001543 245.0 282.4
594(24) 0.001684 245.2 261.2
592(24) 0.001689 245.3 243.1
572(24) 0.001748 245.4 227.4
538(23) 0.001859 245.5 213.7
505(22) 0.001980 245.7 201.7
494(22) 0.002024 245.8 191.1
493(22) 0.002028 245.9 181.9
473(22) 0.002114 246.1 173.8
454(21) 0.002203 246.2 166.8
483(22) 0.002070 246.3 160.7
468(22) 0.002137 246.4 155.7
428(21) 0.002336 246.6 151.5
390(20) 0.002564 246.7 148.3
403(20) 0.002481 246.8 146.0
430(21) 0.002326 247.0 144.7
398(20) 0.002513 247.1 144.4
398(20) 0.002513 247.2 145.0
408(20) 0.002451 247.4 146.7
381(20) 0.002625 247.5 149.5
419(20) 0.002387 247.6 153.3
414(20) 0.002415 247.7 158.3
366(19) 0.002732 247.9 164.5
416(20) 0.002404 248.0 171.7
389(20) 0.002571 248.1 180.1
441(21) 0.002268 248.3 189.5
394(20) 0.002538 248.4 199.7
420(20) 0.002381 248.5 210.8
448(21) 0.002232 248.7 222.4
434(21) 0.002304 248.8 234.3
466(22) 0.002146 248.9 246.1
437(21) 0.002288 249.0 257.5
475(22) 0.002105 249.2 268.0
514(23) 0.001946 249.3 277.3
560(24) 0.001786 249.4 285.1
484(22) 0.002066 249.6 291.4
531(23) 0.001883 249.7 296.3
524(23) 0.001908 249.8 300.2
494(22) 0.002024 249.9 303.7
517(23) 0.001934 250.1 307.3
573(24) 0.001745 250.2 311.6
557(24) 0.001795 250.3 316.9
541(23) 0.001848 250.5 323.5
575(24) 0.001739 250.6 331.4
570(24) 0.001754 250.7 340.0
557(24) 0.001795 250.9 348.8
508(23) 0.001968 251.0 356.7
556(24) 0.001799 251.1 362.5
573(24) 0.001745 251.2 365.0
603(25) 0.001658 251.4 363.4
645(25) 0.001550 251.5 357.7
616(25) 0.001623 251.6 348.4
620(25) 0.001613 251.8 336.8
614(25) 0.001629 251.9 324.3
609(25) 0.001642 252.0 312.4
577(24) 0.001733 252.2 302.1
608(25) 0.001645 252.3 294.4
566(24) 0.001767 252.4 289.6
549(23) 0.001822 252.5 288.1
507(23) 0.001972 252.7 289.9
541(23) 0.001848 252.8 295.0
554(24) 0.001805 252.9 303.1
595(24) 0.001681 253.1 313.7
600(24) 0.001667 253.2 326.0
607(25) 0.001647 253.3 339.5
692(26) 0.001445 253.4 352.9
627(25) 0.001595 253.6 365.2
697(26) 0.001435 253.7 375.2
640(25) 0.001563 253.8 381.9
647(25) 0.001546 254.0 384.5
650(25) 0.001538 254.1 382.6
670(26) 0.001493 254.2 376.2
665(26) 0.001504 254.4 365.9
619(25) 0.001616 254.5 352.3
590(24) 0.001695 254.6 336.0
511(23) 0.001957 254.7 317.9
499(22) 0.002004 254.9 298.6
504(22) 0.001984 255.0 278.7
493(22) 0.002028 255.1 258.6
435(21) 0.002299 255.3 238.6
450(21) 0.002222 255.4 219.3
433(21) 0.002309 255.5 200.8
405(20) 0.002469 255.6 183.5
387(20) 0.002584 255.8 167.3
400(20) 0.002500 255.9 152.5
374(19) 0.002674 256.0 139.0
354(19) 0.002825 256.2 126.9
351(19) 0.002849 256.3 116.1
354(19) 0.002825 256.4 106.5
330(18) 0.003030 256.6 98.0
321(18) 0.003115 256.7 90.6
321(18) 0.003115 256.8 84.2
309(18) 0.003236 256.9 78.6
310(18) 0.003226 257.1 73.8
315(18) 0.003175 257.2 69.7
291(17) 0.003436 257.3 66.1
306(17) 0.003268 257.5 63.1
303(17) 0.003300 257.6 60.6
306(17) 0.003268 257.7 58.4
280(17) 0.00357 257.9 56.6
278(17) 0.00360 258.0 55.1
276(17) 0.00362 258.1 53.9
285(17) 0.00351 258.2 52.9
264(16) 0.00379 258.4 52.1
263(16) 0.00380 258.5 51.6
240(15) 0.00417 258.6 51.2
245(16) 0.00408 258.8 51.0
294(17) 0.003401 258.9 50.9
280(17) 0.00357 259.8 51.0
275(17) 0.00364 259.5 51.2
246(16) 0.00407 258.6 51.6
277(17) 0.00361 257.8 52.1
250(16) 0.00400 257.0 52.8
260(16) 0.00385 256.1 53.8
263(16) 0.00380 255.3 54.9
268(16) 0.00373 254.4 56.4
248(16) 0.00403 253.6 58.2
254(16) 0.00394 252.7 60.5
280(17) 0.00357 251.9 63.4
247(16) 0.00405 251.1 67.1
298(17) 0.003356 250.2 71.9
292(17) 0.003425 249.4 78.2
322(18) 0.003106 248.5 86.6
332(18) 0.003012 247.7 98.1
356(19) 0.002809 246.9 114.7
396(20) 0.002525 246.0 140.1
466(22) 0.002146 245.2 181.2
551(23) 0.001815 244.3 249.2
717(27) 0.001395 243.5 358.4
858(29) 0.001166 242.6 519.9
1002(32) 0.000998 241.8 721.1
1119(33) 0.000894 241.0 878.9
1124(34) 0.000890 240.1 861.8
958(31) 0.001044 239.3 686.1
713(27) 0.001403 238.4 486.5
581(24) 0.001721 237.6 331.9
479(22) 0.002088 236.8 228.7
403(20) 0.002481 235.9 164.4
372(19) 0.002688 235.1 124.9
324(18) 0.003086 234.2 99.8
291(17) 0.003436 233.4 83.0
296(17) 0.003378 232.5 70.6
288(17) 0.003472 231.7 61.3
253(16) 0.00395 230.9 54.0
226(15) 0.00442 230.0 48.2
259(16) 0.00386 229.2 43.5
239(15) 0.00418 228.3 39.6
253(16) 0.00395 227.5 36.3
220(15) 0.00455 226.7 33.5
216(15) 0.00463 225.8 31.1
212(15) 0.00472 225.0 29.1
229(15) 0.00437 224.1 27.3
216(15) 0.00463 223.3 25.7
223(15) 0.00448 222.5 24.3
221(15) 0.00452 221.6 23.0
217(15) 0.00461 220.8 21.9
228(15) 0.00439 219.9 20.9
219(15) 0.00457 219.1 20.0
218(15) 0.00459 218.2 19.2
218(15) 0.00459 217.4 18.4
233(15) 0.00429 216.9 17.7
213(15) 0.00469 216.7 17.1
215(15) 0.00465 216.5 16.5
206(14) 0.00485 216.3 16.0
253(16) 0.00395 216.1 15.5
247(16) 0.00405 215.9 15.0
215(15) 0.00465 215.7 14.6
201(14) 0.00498 215.6 14.2
241(16) 0.00415 215.4 13.8
235(15) 0.00426 215.2 13.4
211(15) 0.00474 215.0 13.1
202(14) 0.00495 214.8 12.8
235(15) 0.00426 214.6 12.5
230(15) 0.00435 214.4 12.2
221(15) 0.00452 214.2 12.0
229(15) 0.00437 214.0 11.7
205(14) 0.00488 213.8 11.5
263(16) 0.00380 213.6 11.5
244(16) 0.00410 213.5 11.3
234(15) 0.00427 213.3 11.1
224(15) 0.00446 213.1 10.9
230(15) 0.00435 212.9 10.7
228(15) 0.00439 212.7 10.5
234(15) 0.00427 212.5 10.4
247(16) 0.00405 212.3 10.2
215(15) 0.00465 212.1 10.1
212(15) 0.00472 211.9 9.9
228(15) 0.00439 211.7 9.8
221(15) 0.00452 211.6 9.7
216(15) 0.00463 211.4 9.5
214(15) 0.00467 211.2 9.4
212(15) 0.00472 211.0 9.3
223(15) 0.00448 210.8 9.2
223(15) 0.00448 210.6 9.1
222(15) 0.00450 210.4 9.0
214(15) 0.00467 210.2 8.9
228(15) 0.00439 210.0 8.8
235(15) 0.00426 209.8 8.7
236(15) 0.00424 209.7 8.7
235(15) 0.00426 209.5 8.6
216(15) 0.00463 209.3 8.5
224(15) 0.00446 209.1 8.5
212(15) 0.00472 208.9 8.4
216(15) 0.00463 208.7 8.4
230(15) 0.00435 208.5 8.3
225(15) 0.00444 208.3 8.3
238(15) 0.00420 208.1 8.2
233(15) 0.00429 207.9 8.2
218(15) 0.00459 207.7 8.2
233(15) 0.00429 207.6 8.1
226(15) 0.00442 207.4 8.1
219(15) 0.00457 207.2 8.1
220(15) 0.00455 207.0 8.1
213(15) 0.00469 206.8 8.1
218(15) 0.00459 206.6 8.2
224(15) 0.00446 206.4 8.2
229(15) 0.00437 206.2 8.2
230(15) 0.00435 206.0 8.3
251(16) 0.00398 205.8 8.4
258(16) 0.00388 205.7 8.4
233(15) 0.00429 205.5 8.5
219(15) 0.00457 205.3 8.7
210(14) 0.00476 205.1 8.8
221(15) 0.00452 204.9 8.9
205(14) 0.00488 204.7 9.1
212(15) 0.00472 204.5 9.3
200(14) 0.00500 204.3 9.5
235(15) 0.00426 204.1 9.7
196(14) 0.00510 203.9 10.0
203(14) 0.00493 203.7 10.2
221(15) 0.00452 203.6 10.5
240(15) 0.00417 203.4 10.8
225(15) 0.00444 203.2 11.0
245(16) 0.00408 203.0 11.3
218(15) 0.00459 202.8 11.6
200(14) 0.00500 202.6 11.9
204(14) 0.00490 202.4 12.1
205(14) 0.00488 202.2 12.3
190(14) 0.00526 202.0 12.5
208(14) 0.00481 201.8 12.6
215(15) 0.00465 201.7 12.6
243(16) 0.00412 201.5 12.7
207(14) 0.00483 201.3 12.6
214(15) 0.00467 201.1 12.5
199(14) 0.00503 200.9 12.4
196(14) 0.00510 200.7 12.2
239(15) 0.00418 200.5 12.0
200(14) 0.00500 200.3 11.8
226(15) 0.00442 200.1 11.6
242(16) 0.00413 199.9 11.3
216(15) 0.00463 199.8 11.1
201(14) 0.00498 199.6 10.9
194(14) 0.00515 199.4 10.6
201(14) 0.00498 199.2 10.4
202(14) 0.00495 199.0 10.2
209(14) 0.00478 198.8 10.0
186(14) 0.00538 198.6 9.9
220(15) 0.00455 198.4 9.7
200(14) 0.00500 198.2 9.6
208(14) 0.00481 198.0 9.5
204(14) 0.00490 197.8 9.5
211(15) 0.00474 197.7 9.4
212(15) 0.00472 197.5 9.4
200(14) 0.00500 197.3 9.4
217(15) 0.00461 197.1 9.4
192(14) 0.00521 196.9 9.4
173(13) 0.00578 196.7 9.5
199(14) 0.00503 196.5 9.6
223(15) 0.00448 196.3 9.7
210(14) 0.00476 196.1 9.8
182(13) 0.00549 195.9 9.9
210(14) 0.00476 195.8 10.1
207(14) 0.00483 195.6 10.3
212(15) 0.00472 213.7 10.5
217(15) 0.00461 213.8 10.8
208(14) 0.00481 213.9 11.0
207(14) 0.00483 213.9 11.3
221(15) 0.00452 214.0 11.6
205(14) 0.00488 214.1 12.0
210(14) 0.00476 214.2 12.4
185(14) 0.00541 214.3 12.8
215(15) 0.00465 214.3 13.3
204(14) 0.00490 214.4 13.8
198(14) 0.00505 214.5 14.4
189(14) 0.00529 214.6 15.1
220(15) 0.00455 214.7 15.8
229(15) 0.00437 214.8 16.6
216(15) 0.00463 214.8 17.6
217(15) 0.00461 214.9 18.6
217(15) 0.00461 215.0 19.8
230(15) 0.00435 215.1 21.1
198(14) 0.00505 215.2 22.7
221(15) 0.00452 215.3 24.4
206(14) 0.00485 215.3 26.5
215(15) 0.00465 215.4 28.9
207(14) 0.00483 215.5 31.8
244(16) 0.00410 215.6 35.2
251(16) 0.00398 215.7 39.3
260(16) 0.00385 215.8 44.3
266(16) 0.00376 215.8 50.6
304(17) 0.003289 215.9 58.7
318(18) 0.003145 216.0 69.3
321(18) 0.003115 216.1 84.1
380(19) 0.002632 216.2 105.7
398(20) 0.002513 216.2 138.7
463(22) 0.002160 216.3 189.5
539(23) 0.001855 216.4 264.8
603(25) 0.001658 216.5 368.2
689(26) 0.001451 216.6 487.0
800(28) 0.001250 216.7 574.1
819(29) 0.001221 216.7 578.2
760(28) 0.001316 216.8 523.5
753(27) 0.001328 216.9 469.7
807(28) 0.001239 217.0 442.6
831(29) 0.001203 217.1 438.4
748(27) 0.001337 217.2 440.7
761(28) 0.001314 217.2 430.5
717(27) 0.001395 217.3 397.9
674(26) 0.001484 217.4 347.3
569(24) 0.001757 217.5 289.7
509(23) 0.001965 217.6 234.4
442(21) 0.002262 217.6 186.3
394(20) 0.002538 217.7 147.0
341(18) 0.002933 217.8 116.4
346(19) 0.002890 217.9 93.2
315(18) 0.003175 218.0 76.1
315(18) 0.003175 218.1 63.6
291(17) 0.003436 218.1 54.4
272(16) 0.00368 218.2 47.5
264(16) 0.00379 218.3 42.2
242(16) 0.00413 218.4 38.1
265(16) 0.00377 218.5 34.7
245(16) 0.00408 218.6 31.9
263(16) 0.00380 218.6 29.6
229(15) 0.00437 218.7 27.6
222(15) 0.00450 218.8 25.9
211(15) 0.00474 218.9 24.5
199(14) 0.00503 219.0 23.3
244(16) 0.00410 219.0 22.2
233(15) 0.00429 219.1 21.3
241(16) 0.00415 219.2 20.6
255(16) 0.00392 219.3 19.9
261(16) 0.00383 219.4 19.4
220(15) 0.00455 219.5 18.9
215(15) 0.00465 219.5 18.5
217(15) 0.00461 219.6 18.2
246(16) 0.00407 219.7 18.0
213(15) 0.00469 219.8 17.8
226(15) 0.00442 219.9 17.7
230(15) 0.00435 220.0 17.6
202(14) 0.00495 220.0 17.6
214(15) 0.00467 220.1 17.7
234(15) 0.00427 220.2 17.8
212(15) 0.00472 220.3 18.0
248(16) 0.00403 220.4 18.3
219(15) 0.00457 220.5 18.6
223(15) 0.00448 220.5 19.0
234(15) 0.00427 220.6 19.5
231(15) 0.00433 220.7 20.0
211(15) 0.00474 220.8 20.7
225(15) 0.00444 220.9 21.4
250(16) 0.00400 220.9 22.3
252(16) 0.00397 221.0 23.3
231(15) 0.00433 221.1 24.3
219(15) 0.00457 221.2 25.6
241(16) 0.00415 221.3 26.9
208(14) 0.00481 221.4 28.5
240(15) 0.00417 221.4 30.2
230(15) 0.00435 221.5 32.0
225(15) 0.00444 221.6 34.1
266(16) 0.00376 221.7 36.3
244(16) 0.00410 221.8 38.8
234(15) 0.00427 221.9 41.5
222(15) 0.00450 221.9 44.4
258(16) 0.00388 222.0 47.5
254(16) 0.00394 222.1 50.9
267(16) 0.00375 222.2 54.5
236(15) 0.00424 222.3 58.4
264(16) 0.00379 222.3 62.4
277(17) 0.00361 222.4 66.8
278(17) 0.00360 222.5 71.3
289(17) 0.003460 222.6 76.0
287(17) 0.003484 222.7 81.0
261(16) 0.00383 222.8 86.1
301(17) 0.003322 222.8 91.3
303(17) 0.003300 222.9 96.7
293(17) 0.003413 223.0 102.1
315(18) 0.003175 223.1 107.5
334(18) 0.002994 223.2 112.9
340(18) 0.002941 223.3 118.2
327(18) 0.003058 223.3 123.4
309(18) 0.003236 223.4 128.3
329(18) 0.003039 223.5 132.9
332(18) 0.003012 223.6 137.1
360(19) 0.002778 223.7 140.8
338(18) 0.002959 223.7 144.1
365(19) 0.002740 223.8 146.8
335(18) 0.002985 223.9 149.0
364(19) 0.002747 224.0 150.9
394(20) 0.002538 224.1 152.4
318(18) 0.003145 224.2 153.8
336(18) 0.002976 224.2 155.1
374(19) 0.002674 224.3 156.3
344(19) 0.002907 224.4 157.1
348(19) 0.002874 224.5 156.9
355(19) 0.002817 224.6 154.4
348(19) 0.002874 224.7 148.9
346(19) 0.002890 224.7 141.0
357(19) 0.002801 224.8 131.9
321(18) 0.003115 224.9 122.6
308(18) 0.003247 225.0 113.8
312(18) 0.003205 225.1 105.7
284(17) 0.00352 225.2 98.3
288(17) 0.003472 225.2 91.5
296(17) 0.003378 225.3 85.4
307(18) 0.003257 225.4 79.7
271(16) 0.00369 225.5 74.3
306(17) 0.003268 225.6 69.3
285(17) 0.00351 225.6 64.6
274(17) 0.00365 225.7 60.1
284(17) 0.00352 225.8 55.9
309(18) 0.003236 225.9 51.9
252(16) 0.00397 226.0 48.1
256(16) 0.00391 226.1 44.6
265(16) 0.00377 226.1 41.4
267(16) 0.00375 226.2 38.4
272(16) 0.00368 226.3 35.6
255(16) 0.00392 226.4 33.1
269(16) 0.00372 226.5 30.8
230(15) 0.00435 226.6 28.7
261(16) 0.00383 226.6 26.7
243(16) 0.00412 226.7 25.0
234(15) 0.00427 226.8 23.4
245(16) 0.00408 226.9 21.9
266(16) 0.00376 227.0 20.6
235(15) 0.00426 227.0 19.4
249(16) 0.00402 227.1 18.3
230(15) 0.00435 227.2 17.3
257(16) 0.00389 227.3 16.4
261(16) 0.00383 227.4 15.6
257(16) 0.00389 227.5 14.8
244(16) 0.00410 227.5 14.1
223(15) 0.00448 227.6 13.5
225(15) 0.00444 227.7 12.9
224(15) 0.00446 227.8 12.4
232(15) 0.00431 227.9 11.9
246(16) 0.00407 228.0 11.5
253(16) 0.00395 228.0 11.1
233(15) 0.00429 228.1 10.7
247(16) 0.00405 228.2 10.4
245(16) 0.00408 228.3 10.0
241(16) 0.00415 228.4 9.7
244(16) 0.00410 228.4 9.5
254(16) 0.00394 228.5 9.2
238(15) 0.00420 228.6 8.9
222(15) 0.00450 228.7 8.7
238(15) 0.00420 228.8 8.5
244(16) 0.00410 228.9 8.2
225(15) 0.00444 228.9 8.0
219(15) 0.00457 229.0 7.9
217(15) 0.00461 229.1 7.7
216(15) 0.00463 229.2 7.5
264(16) 0.00379 229.3 7.3
230(15) 0.00435 229.4 7.2
251(16) 0.00398 229.4 7.0
237(15) 0.00422 229.5 6.9
222(15) 0.00450 229.6 6.7
249(16) 0.00402 229.7 6.6
229(15) 0.00437 229.8 6.5
227(15) 0.00441 229.8 6.3
213(15) 0.00469 229.9 6.2
244(16) 0.00410 230.0 6.1
232(15) 0.00431 230.1 6.0
220(15) 0.00455 230.2 5.9
252(16) 0.00397 229.9 5.8
249(16) 0.00402 229.5 5.7
232(15) 0.00431 229.1 5.6
228(15) 0.00439 228.7 5.5
227(15) 0.00441 228.3 5.4
225(15) 0.00444 227.8 5.3
240(15) 0.00417 227.4 5.3
228(15) 0.00439 227.0 5.2
225(15) 0.00444 226.6 5.1
217(15) 0.00461 226.2 5.0
216(15) 0.00463 225.8 5.0
217(15) 0.00461 225.4 4.9
242(16) 0.00413 225.0 4.9
242(16) 0.00413 224.6 4.8
224(15) 0.00446 224.2 4.7
220(15) 0.00455 223.7 4.7
208(14) 0.00481 223.3 4.6
213(15) 0.00469 222.9 4.6
221(15) 0.00452 222.5 4.5
209(14) 0.00478 222.1 4.5
232(15) 0.00431 221.7 4.4
239(15) 0.00418 221.3 4.4
220(15) 0.00455 220.9 4.4
214(15) 0.00467 220.5 4.3
229(15) 0.00437 220.1 4.3
223(15) 0.00448 219.6 4.3
227(15) 0.00441 219.2 4.2
184(14) 0.00543 218.8 4.2
223(15) 0.00448 218.4 4.2
234(15) 0.00427 218.0 4.1
217(15) 0.00461 217.6 4.1
211(15) 0.00474 217.2 4.1
233(15) 0.00429 216.8 4.1
216(15) 0.00463 216.4 4.1
210(14) 0.00476 216.0 4.0
202(14) 0.00495 215.5 4.0
214(15) 0.00467 215.1 4.0
226(15) 0.00442 214.7 4.0
242(16) 0.00413 214.3 4.0
231(15) 0.00433 213.9 4.0
217(15) 0.00461 213.5 4.0
223(15) 0.00448 213.5 4.0
219(15) 0.00457 213.6 4.0
219(15) 0.00457 213.7 4.0
244(16) 0.00410 213.7 4.0
215(15) 0.00465 213.8 4.0
235(15) 0.00426 213.9 4.1
238(15) 0.00420 214.0 4.1
212(15) 0.00472 214.1 4.1
200(14) 0.00500 214.2 4.1
202(14) 0.00495 214.3 4.2
232(15) 0.00431 214.4 4.2
181(13) 0.00552 214.5 4.4
209(14) 0.00478 214.6 4.5
242(16) 0.00413 214.7 4.6
238(15) 0.00420 214.8 4.6
225(15) 0.00444 214.9 4.7
238(15) 0.00420 215.0 4.8
230(15) 0.00435 215.1 4.9
236(15) 0.00424 215.2 5.0
258(16) 0.00388 215.3 5.2
255(16) 0.00392 215.4 5.5
243(16) 0.00412 215.4 5.7
263(16) 0.00380 215.5 5.9
245(16) 0.00408 215.6 6.1
209(14) 0.00478 215.7 6.4
230(15) 0.00435 215.8 6.7
245(16) 0.00408 215.9 7.2
254(16) 0.00394 216.0 7.7
252(16) 0.00397 216.1 8.3
251(16) 0.00398 216.2 9.1
258(16) 0.00388 216.3 10.1
263(16) 0.00380 216.4 11.4
269(16) 0.00372 216.5 12.9
254(16) 0.00394 216.6 14.9
290(17) 0.003448 216.7 17.2
258(16) 0.00388 216.8 20.0
262(16) 0.00382 216.9 23.2
299(17) 0.003344 217.0 26.8
281(17) 0.00356 217.1 30.7
287(17) 0.003484 217.2 34.8
312(18) 0.003205 217.2 38.8
317(18) 0.003155 217.3 42.3
307(18) 0.003257 217.4 44.9
318(18) 0.003145 217.5 46.1
316(18) 0.003165 217.6 45.7
326(18) 0.003067 217.7 43.9
312(18) 0.003205 217.8 40.8
280(17) 0.00357 217.9 37.1
284(17) 0.00352 218.0 33.1
268(16) 0.00373 218.1 29.1
280(17) 0.00357 218.2 25.4
263(16) 0.00380 218.3 22.1
270(16) 0.00370 218.4 19.2
255(16) 0.00392 218.5 16.7
259(16) 0.00386 218.6 14.7
262(16) 0.00382 218.7 13.1
235(15) 0.00426 218.8 11.8
277(17) 0.00361 218.9 10.8
244(16) 0.00410 219.0 10.0
262(16) 0.00382 219.0 9.5
264(16) 0.00379 219.1 9.1
257(16) 0.00389 219.2 8.8
255(16) 0.00392 219.3 8.6
260(16) 0.00385 219.4 8.5
248(16) 0.00403 219.5 8.5
236(15) 0.00424 219.6 8.5
239(15) 0.00418 219.7 8.6
236(15) 0.00424 219.8 8.8
256(16) 0.00391 219.9 8.9
248(16) 0.00403 220.0 9.2
226(15) 0.00442 220.1 9.4
231(15) 0.00433 220.2 9.7
242(16) 0.00413 220.3 10.1
236(15) 0.00424 220.4 10.5
222(15) 0.00450 220.5 10.9
271(16) 0.00369 220.6 11.4
254(16) 0.00394 220.7 11.9
242(16) 0.00413 220.8 12.5
250(16) 0.00400 220.8 13.1
274(17) 0.00365 220.9 13.7
267(16) 0.00375 221.0 14.4
253(16) 0.00395 221.1 15.0
243(16) 0.00412 221.2 15.8
218(15) 0.00459 221.3 16.5
240(15) 0.00417 221.4 17.3
245(16) 0.00408 221.5 18.1
237(15) 0.00422 221.6 18.8
244(16) 0.00410 221.7 19.6
245(16) 0.00408 221.8 20.4
275(17) 0.00364 221.9 21.2
233(15) 0.00429 222.0 21.9
230(15) 0.00435 222.1 22.6
238(15) 0.00420 222.2 23.3
264(16) 0.00379 222.3 23.9
249(16) 0.00402 222.4 24.6
263(16) 0.00380 222.5 25.0
241(16) 0.00415 222.6 25.3
268(16) 0.00373 222.6 25.6
268(16) 0.00373 222.7 25.7
271(16) 0.00369 222.8 25.7
244(16) 0.00410 222.9 25.7
253(16) 0.00395 223.0 25.5
272(16) 0.00368 223.1 25.2
280(17) 0.00357 223.2 24.8
269(16) 0.00372 223.3 24.3
279(17) 0.00358 223.4 23.7
237(15) 0.00422 223.5 23.1
279(17) 0.00358 223.6 22.4
242(16) 0.00413 223.7 21.7
253(16) 0.00395 223.8 20.9
249(16) 0.00402 223.9 20.1
272(16) 0.00368 224.0 19.3
270(16) 0.00370 224.1 18.5
233(15) 0.00429 224.2 17.6
259(16) 0.00386 224.3 17.0
258(16) 0.00388 224.4 16.2
247(16) 0.00405 224.4 15.5
264(16) 0.00379 224.5 14.7
253(16) 0.00395 224.6 14.0
248(16) 0.00403 224.7 13.3
249(16) 0.00402 224.8 12.6
246(16) 0.00407 224.9 12.0
257(16) 0.00389 225.0 11.4
254(16) 0.00394 225.1 10.8
224(15) 0.00446 225.2 10.3
252(16) 0.00397 225.3 9.8
259(16) 0.00386 225.4 9.3
232(15) 0.00431 225.5 8.9
246(16) 0.00407 225.6 8.5
214(15) 0.00467 225.7 8.1
238(15) 0.00420 225.8 7.8
246(16) 0.00407 225.9 7.5
233(15) 0.00429 226.0 7.2
225(15) 0.00444 226.1 7.0
233(15) 0.00429 226.2 6.7
236(15) 0.00424 226.2 6.5
237(15) 0.00422 226.3 6.8
230(15) 0.00435 226.4 6.6
214(15) 0.00467 226.5 6.5
238(15) 0.00420 226.6 6.3
241(16) 0.00415 226.7 6.2
235(15) 0.00426 226.8 6.1
227(15) 0.00441 226.9 6.0
264(16) 0.00379 227.0 5.9
239(15) 0.00418 227.1 5.8
243(16) 0.00412 227.2 5.7
244(16) 0.00410 227.3 5.7
269(16) 0.00372 227.4 5.6
256(16) 0.00391 227.5 5.6
224(15) 0.00446 227.6 5.5
217(15) 0.00461 227.7 5.5
230(15) 0.00435 227.8 5.5
225(15) 0.00444 229.0 5.4
238(15) 0.00420 230.2 5.4
214(15) 0.00467 231.4 5.4
237(15) 0.00422 232.6 5.4
216(15) 0.00463 233.8 5.4
203(14) 0.00493 235.0 5.4
244(16) 0.00410 236.2 5.4
220(15) 0.00455 237.4 5.3
262(16) 0.00382 238.6 5.3
231(15) 0.00433 239.8 5.3
217(15) 0.00461 241.1 5.3
237(15) 0.00422 242.3 5.4
236(15) 0.00424 243.5 5.4
246(16) 0.00407 244.7 5.4
237(15) 0.00422 245.3 5.4
218(15) 0.00459 245.3 5.4
228(15) 0.00439 245.3 5.4
228(15) 0.00439 245.3 5.5
262(16) 0.00382 245.3 5.5
235(15) 0.00426 245.3 5.6
234(15) 0.00427 245.3 5.6
245(16) 0.00408 245.3 5.6
211(15) 0.00474 245.3 5.6
223(15) 0.00448 245.3 6.6
238(15) 0.00420 245.3 6.6
237(15) 0.00422 245.3 6.7
221(15) 0.00452 245.3 6.7
218(15) 0.00459 245.4 6.7
250(16) 0.00400 245.4 6.8
246(16) 0.00407 245.4 6.8
236(15) 0.00424 245.4 6.9
234(15) 0.00427 245.4 6.9
246(16) 0.00407 245.4 7.0
260(16) 0.00385 245.4 7.1
250(16) 0.00400 245.4 7.1
255(16) 0.00392 245.4 7.2
237(15) 0.00422 245.4 7.2
243(16) 0.00412 245.4 7.3
244(16) 0.00410 245.4 7.4
241(16) 0.00415 245.4 7.4
231(15) 0.00433 245.4 7.5
229(15) 0.00437 245.4 7.6
228(15) 0.00439 245.4 7.7
240(15) 0.00417 245.4 7.7
223(15) 0.00448 245.4 7.8
247(16) 0.00405 245.4 7.9
258(16) 0.00388 245.5 8.0
263(16) 0.00380 245.5 8.1
231(15) 0.00433 245.5 8.2
219(15) 0.00457 245.5 8.3
225(15) 0.00444 245.5 8.4
241(16) 0.00415 245.5 8.5
230(15) 0.00435 245.5 8.6
259(16) 0.00386 245.5 8.7
243(16) 0.00412 245.5 8.8
240(15) 0.00417 245.5 8.9
230(15) 0.00435 245.5 9.0
227(15) 0.00441 245.5 9.1
220(15) 0.00455 245.5 9.2
258(16) 0.00388 245.5 9.4
238(15) 0.00420 245.5 9.5
242(16) 0.00413 245.5 9.6
251(16) 0.00398 245.5 10.3
231(15) 0.00433 245.5 10.5
260(16) 0.00385 245.5 10.6
236(15) 0.00424 245.5 10.8
232(15) 0.00431 245.6 11.0
240(15) 0.00417 245.6 11.1
257(16) 0.00389 245.6 11.3
254(16) 0.00394 245.6 11.5
249(16) 0.00402 245.6 11.7
265(16) 0.00377 245.6 11.9
248(16) 0.00403 245.6 12.1
253(16) 0.00395 245.6 12.3
235(15) 0.00426 245.6 12.5
246(16) 0.00407 245.6 12.7
267(16) 0.00375 245.6 12.9
265(16) 0.00377 245.6 13.2
272(16) 0.00368 245.6 13.4
283(17) 0.00353 245.6 13.7
255(16) 0.00392 245.6 13.9
267(16) 0.00375 245.6 14.2
245(16) 0.00408 245.6 14.5
273(17) 0.00366 245.6 14.8
238(15) 0.00420 245.6 15.1
273(17) 0.00366 245.7 15.4
242(16) 0.00413 245.7 15.7
261(16) 0.00383 245.7 16.1
268(16) 0.00373 245.7 16.4
296(17) 0.003378 245.7 16.8
272(16) 0.00368 245.7 17.2
258(16) 0.00388 245.7 17.6
245(16) 0.00408 245.7 18.1
250(16) 0.00400 245.7 18.5
254(16) 0.00394 245.7 19.0
275(17) 0.00364 245.7 19.5
253(16) 0.00395 245.7 20.0
248(16) 0.00403 245.7 20.6
235(15) 0.00426 245.7 21.2
277(17) 0.00361 245.7 21.8
252(16) 0.00397 245.8 22.5
244(16) 0.00410 246.0 23.2
242(16) 0.00413 246.2 23.9
278(17) 0.00360 246.4 24.7
292(17) 0.003425 246.6 25.5
276(17) 0.00362 246.8 26.4
240(15) 0.00417 247.0 27.3
245(16) 0.00408 247.2 28.3
258(16) 0.00388 247.4 29.4
272(16) 0.00368 247.6 30.6
248(16) 0.00403 247.7 31.8
251(16) 0.00398 247.9 33.2
264(16) 0.00379 248.1 34.6
252(16) 0.00397 248.3 36.2
257(16) 0.00389 248.5 38.0
265(16) 0.00377 248.7 39.9
280(17) 0.00357 248.9 41.9
263(16) 0.00380 249.1 44.2
270(16) 0.00370 249.3 46.7
283(17) 0.00353 249.5 49.6
287(17) 0.003484 249.7 52.7
284(17) 0.00352 249.9 56.2
278(17) 0.00360 250.1 60.2
329(18) 0.003039 250.2 64.8
301(17) 0.003322 250.4 70.1
308(18) 0.003247 250.6 76.3
336(18) 0.002976 250.8 83.8
339(18) 0.002950 251.0 93.0
330(18) 0.003030 251.2 104.6
346(19) 0.002890 251.4 119.8
432(21) 0.002315 251.6 139.8
459(21) 0.002179 251.8 166.6
518(23) 0.001931 252.0 201.8
548(23) 0.001825 252.2 247.4
633(25) 0.001580 252.4 304.3
769(28) 0.001300 252.6 372.1
861(29) 0.001161 252.7 446.8
977(31) 0.001024 252.9 519.4
1045(32) 0.000957 253.1 575.1
991(31) 0.001009 253.3 600.5
958(31) 0.001044 253.5 595.9
953(31) 0.001049 253.7 575.0
935(31) 0.001070 253.9 554.0
925(30) 0.001081 254.1 543.8
891(30) 0.001122 254.3 548.7
955(31) 0.001047 254.5 569.1
950(31) 0.001053 254.7 602.5
996(32) 0.001004 254.9 644.0
1060(33) 0.000943 255.1 686.9
1090(33) 0.000917 255.2 723.4
1134(34) 0.000882 255.4 746.1
1011(32) 0.000989 255.6 750.3
1082(33) 0.000924 255.8 735.8
1026(32) 0.000975 256.0 705.9
1001(32) 0.000999 256.2 665.7
936(31) 0.001068 256.4 619.2
866(29) 0.001155 256.6 569.4
839(29) 0.001192 256.8 517.5
799(28) 0.001252 257.0 465.1
747(27) 0.001339 257.2 414.0
667(26) 0.001499 257.4 366.6
610(25) 0.001639 257.6 324.5
615(25) 0.001626 257.7 288.9
578(24) 0.001730 257.9 260.2
575(24) 0.001739 258.1 238.3
529(23) 0.001890 258.3 222.9
501(22) 0.001996 258.5 213.5
518(23) 0.001931 258.7 209.6
514(23) 0.001946 258.9 210.6
530(23) 0.001887 259.1 215.8
494(22) 0.002024 259.3 224.3
508(23) 0.001968 259.5 235.1
511(23) 0.001957 259.7 246.7
488(22) 0.002049 259.9 257.3
518(23) 0.001931 260.1 264.8
515(23) 0.001942 260.2 268.1
531(23) 0.001883 260.4 267.3
497(22) 0.002012 260.6 263.8
535(23) 0.001869 260.8 259.3
517(23) 0.001934 261.0 255.6
515(23) 0.001942 261.2 253.7
521(23) 0.001919 261.4 254.4
516(23) 0.001938 261.6 258.2
509(23) 0.001965 261.8 265.5
514(23) 0.001946 262.0 276.5
556(24) 0.001799 262.2 291.8
606(25) 0.001650 262.4 312.0
617(25) 0.001621 262.5 338.6
644(25) 0.001553 262.7 373.5
718(27) 0.001393 262.9 420.3
777(28) 0.001287 263.1 484.2
849(29) 0.001178 263.3 572.7
986(31) 0.001014 263.5 694.8
1148(34) 0.000871 263.7 860.4
1362(37) 0.000734 264. 1078.
1649(41) 0.000606 264. 1351.
1891(43) 0.000529 264. 1671.
2233(47) 0.000448 264. 2003.
2486(50) 0.000402 265. 2274.
2487(50) 0.000402 265. 2390.
2370(49) 0.000422 265. 2310.
2218(47) 0.000451 265. 2091.
1997(45) 0.000501 265. 1831.
1900(44) 0.000526 266. 1601.
1742(42) 0.000574 266. 1434.
1713(41) 0.000584 266. 1339.
1648(41) 0.000607 266. 1309.
1634(40) 0.000612 266. 1329.
1661(41) 0.000602 267. 1379.
1607(40) 0.000622 267. 1429.
1632(40) 0.000613 267. 1452.
1569(40) 0.000637 267. 1423.
1542(39) 0.000649 267. 1339.
1408(38) 0.000710 268. 1211.
1237(35) 0.000808 268. 1063.
1115(33) 0.000897 267.9 911.1
984(31) 0.001016 268.1 769.3
937(31) 0.001067 268.3 643.4
817(29) 0.001224 268.5 536.1
804(28) 0.001244 268.7 447.4
735(27) 0.001361 268.9 375.6
630(25) 0.001587 269.1 318.7
606(25) 0.001650 269.3 274.0
535(23) 0.001869 269.5 239.0
525(23) 0.001905 269.7 211.7
526(23) 0.001901 269.9 190.0
493(22) 0.002028 270.0 172.6
478(22) 0.002092 270.2 158.5
426(21) 0.002347 270.4 146.7
410(20) 0.002439 270.6 136.8
396(20) 0.002525 270.8 128.3
400(20) 0.002500 271.0 121.1
416(20) 0.002404 271.2 114.8
393(20) 0.002545 271.4 109.4
381(20) 0.002625 271.6 104.8
433(21) 0.002309 271.8 100.8
373(19) 0.002681 272.0 97.4
380(19) 0.002632 272.2 94.5
389(20) 0.002571 272.4 92.1
358(19) 0.002793 272.5 90.1
356(19) 0.002809 272.7 88.6
337(18) 0.002967 272.9 87.5
332(18) 0.003012 273.1 86.7
342(18) 0.002924 273.3 86.5
374(19) 0.002674 273.5 86.6
364(19) 0.002747 273.7 87.2
377(19) 0.002653 273.9 88.3
349(19) 0.002865 274.1 90.0
344(19) 0.002907 274.3 92.3
364(19) 0.002747 274.5 95.4
403(20) 0.002481 274.7 99.2
396(20) 0.002525 274.9 104.1
382(20) 0.002618 275.0 110.0
392(20) 0.002551 275.2 117.2
407(20) 0.002457 275.4 125.8
433(21) 0.002309 275.6 136.1
437(21) 0.002288 275.8 148.1
471(22) 0.002123 276.0 162.0
472(22) 0.002119 276.2 178.0
502(22) 0.001992 276.4 196.1
506(22) 0.001976 276.6 216.5
561(24) 0.001783 276.8 239.2
548(23) 0.001825 277.0 264.0
547(23) 0.001828 277.2 290.9
598(24) 0.001672 277.4 319.6
654(26) 0.001529 277.5 349.6
670(26) 0.001493 277.7 380.4
690(26) 0.001449 277.9 411.3
746(27) 0.001340 278.1 441.3
805(28) 0.001242 278.3 469.3
847(29) 0.001181 278.5 494.1
845(29) 0.001183 278.7 514.7
891(30) 0.001122 278.9 530.3
923(30) 0.001083 279.1 540.8
926(30) 0.001080 279.3 546.6
902(30) 0.001109 279.5 549.0
874(30) 0.001144 279.7 549.2
895(30) 0.001117 279.9 548.9
850(29) 0.001176 280.0 549.4
838(29) 0.001193 280.2 551.8
825(29) 0.001212 280.4 556.5
851(29) 0.001175 280.6 563.5
837(29) 0.001195 280.8 572.0
811(28) 0.001233 281.0 580.4
821(29) 0.001218 281.2 586.5
759(28) 0.001318 281.4 587.5
841(29) 0.001189 281.6 580.8
831(29) 0.001203 281.8 564.7
822(29) 0.001217 282.0 539.1
778(28) 0.001285 282.2 505.4
711(27) 0.001406 282.3 465.9
714(27) 0.001401 282.5 423.4
692(26) 0.001445 282.7 380.2
655(26) 0.001527 282.9 338.4
573(24) 0.001745 283.1 299.0
547(23) 0.001828 283.3 263.0
492(22) 0.002033 283.5 230.6
509(23) 0.001965 283.7 202.1
406(20) 0.002463 283.9 177.2
403(20) 0.002481 284.1 155.9
394(20) 0.002538 284.3 137.9
383(20) 0.002611 284.5 122.7
349(19) 0.002865 284.7 109.9
375(19) 0.002667 284.8 99.4
346(19) 0.002890 285.0 90.6
300(17) 0.003333 285.2 83.2
338(18) 0.002959 285.4 77.0
312(18) 0.003205 285.6 71.8
339(18) 0.002950 285.8 67.4
296(17) 0.003378 286.0 63.6
319(18) 0.003135 286.2 60.2
299(17) 0.003344 286.4 57.3
322(18) 0.003106 286.6 54.7
294(17) 0.003401 286.8 52.4
293(17) 0.003413 287.0 50.3
331(18) 0.003021 287.2 48.4
264(16) 0.00379 287.3 46.6
264(16) 0.00379 287.5 45.1
276(17) 0.00362 287.7 43.6
326(18) 0.003067 287.9 42.3
312(18) 0.003205 288.1 41.1
297(17) 0.003367 288.3 40.0
285(17) 0.00351 288.5 39.0
291(17) 0.003436 288.7 38.1
281(17) 0.00356 288.9 37.3
282(17) 0.00355 289.1 36.5
282(17) 0.00355 289.3 35.8
304(17) 0.003289 289.5 35.1
284(17) 0.00352 289.7 34.6
291(17) 0.003436 289.8 34.0
274(17) 0.00365 290.0 33.5
282(17) 0.00355 290.2 33.1
283(17) 0.00353 290.4 32.7
275(17) 0.00364 290.6 32.4
272(16) 0.00368 290.8 32.1
283(17) 0.00353 291.0 31.9
306(17) 0.003268 291.2 31.7
281(17) 0.00356 289.0 31.5
283(17) 0.00353 286.0 31.4
278(17) 0.00360 283.0 31.3
281(17) 0.00356 279.9 31.3
291(17) 0.003436 276.9 31.3
279(17) 0.00358 273.9 31.4
296(17) 0.003378 270.9 31.5
287(17) 0.003484 271.0 31.6
276(17) 0.00362 271.1 31.8
296(17) 0.003378 271.2 32.1
266(16) 0.00376 271.2 32.5
281(17) 0.00356 271.3 32.9
295(17) 0.003390 271.4 33.4
275(17) 0.00364 271.5 34.0
272(16) 0.00368 271.6 34.7
297(17) 0.003367 271.7 35.5
291(17) 0.003436 271.8 36.5
264(16) 0.00379 271.8 37.7
280(17) 0.00357 271.9 39.2
280(17) 0.00357 272.0 40.9
256(16) 0.00391 272.1 43.1
304(17) 0.003289 272.2 45.9
312(18) 0.003205 272.3 49.5
286(17) 0.003497 272.4 54.5
281(17) 0.00356 272.5 61.5
329(18) 0.003039 272.5 71.3
314(18) 0.003185 272.6 85.0
304(17) 0.003289 272.7 103.4
364(19) 0.002747 272.8 126.7
373(19) 0.002681 272.9 153.4
429(21) 0.002331 273.0 178.2
451(21) 0.002217 273.1 191.7
436(21) 0.002294 273.2 186.7
452(21) 0.002212 273.2 166.9
350(19) 0.002857 273.3 141.9
355(19) 0.002817 273.4 118.9
324(18) 0.003086 273.5 100.5
319(18) 0.003135 273.6 87.1
329(18) 0.003039 273.7 77.9
304(17) 0.003289 273.8 72.0
313(18) 0.003195 273.9 68.4
334(18) 0.002994 273.9 66.4
336(18) 0.002976 274.0 65.6
290(17) 0.003448 274.1 65.4
299(17) 0.003344 274.2 65.9
311(18) 0.003215 274.3 66.7
344(19) 0.002907 274.4 67.9
318(18) 0.003145 274.5 69.4
318(18) 0.003145 274.6 71.2
309(18) 0.003236 274.6 73.2
325(18) 0.003077 274.7 75.4
340(18) 0.002941 274.8 77.7
317(18) 0.003155 274.9 80.3
332(18) 0.003012 275.0 83.0
350(19) 0.002857 275.1 85.9
345(19) 0.002899 275.2 89.0
330(18) 0.003030 275.2 92.3
356(19) 0.002809 275.3 95.7
362(19) 0.002762 275.4 99.3
337(18) 0.002967 275.5 103.0
365(19) 0.002740 275.6 106.9
386(20) 0.002591 275.7 111.1
386(20) 0.002591 275.8 115.4
356(19) 0.002809 275.9 119.9
343(19) 0.002915 275.9 124.7
415(20) 0.002410 276.0 129.7
410(20) 0.002439 276.1 135.1
405(20) 0.002469 276.2 140.7
422(21) 0.002370 276.3 146.8
414(20) 0.002415 276.4 153.3
421(21) 0.002375 276.5 160.3
433(21) 0.002309 276.6 167.8
456(21) 0.002193 276.6 176.0
464(22) 0.002155 276.7 184.8
472(22) 0.002119 276.8 194.4
480(22) 0.002083 276.9 204.8
497(22) 0.002012 277.0 216.0
554(24) 0.001805 277.1 228.1
519(23) 0.001927 277.2 241.0
530(23) 0.001887 277.3 254.8
575(24) 0.001739 277.3 269.3
603(25) 0.001658 277.4 284.4
635(25) 0.001575 277.5 300.0
631(25) 0.001585 277.6 315.9
684(26) 0.001462 277.7 331.7
704(27) 0.001420 277.8 347.0
745(27) 0.001342 277.9 361.3
761(28) 0.001314 277.9 374.2
743(27) 0.001346 278.0 385.2
735(27) 0.001361 278.1 393.9
762(28) 0.001312 278.2 399.9
780(28) 0.001282 278.3 402.9
737(27) 0.001357 278.4 403.0
719(27) 0.001391 278.5 400.0
709(27) 0.001410 278.6 394.2
691(26) 0.001447 278.6 385.8
639(25) 0.001565 278.7 375.1
606(25) 0.001650 278.8 362.7
622(25) 0.001608 278.9 349.1
605(25) 0.001653 279.0 334.6
562(24) 0.001779 279.1 319.9
572(24) 0.001748 279.2 305.4
575(24) 0.001739 279.3 291.3
525(23) 0.001905 279.3 278.0
551(23) 0.001815 279.4 265.7
581(24) 0.001721 279.5 254.6
536(23) 0.001866 279.6 244.7
486(22) 0.002058 279.7 236.3
523(23) 0.001912 279.8 229.3
489(22) 0.002045 279.9 223.9
484(22) 0.002066 280.0 220.2
522(23) 0.001916 280.0 218.2
490(22) 0.002041 280.1 218.1
538(23) 0.001859 280.2 220.0
514(23) 0.001946 280.3 224.1
507(23) 0.001972 280.4 230.7
530(23) 0.001887 280.5 240.1
523(23) 0.001912 280.6 252.7
544(23) 0.001838 280.7 268.9
557(24) 0.001795 280.7 289.2
618(25) 0.001618 280.8 314.4
602(25) 0.001661 280.9 344.9
684(26) 0.001462 281.0 381.5
743(27) 0.001346 281.1 424.9
751(27) 0.001332 281.2 475.8
774(28) 0.001292 281.3 534.6
859(29) 0.001164 281.3 601.8
886(30) 0.001129 281.4 677.6
948(31) 0.001055 281.5 762.2
1089(33) 0.000918 281.6 855.0
1170(34) 0.000855 281.7 955.4
1273(36) 0.000786 282. 1062.
1415(38) 0.000707 282. 1173.
1594(40) 0.000627 282. 1285.
1749(42) 0.000572 282. 1395.
1796(42) 0.000557 282. 1497.
1882(43) 0.000531 282. 1586.
1911(44) 0.000523 282. 1657.
1887(43) 0.000530 282. 1702.
1861(43) 0.000537 282. 1718.
1768(42) 0.000566 283. 1704.
1656(41) 0.000604 283. 1661.
1637(40) 0.000611 283. 1592.
1493(39) 0.000670 283. 1504.
1385(37) 0.000722 283. 1403.
1278(36) 0.000782 283. 1294.
1215(35) 0.000823 283.1 1182.5
1114(33) 0.000898 283.2 1072.7
1072(33) 0.000933 283.3 967.2
1031(32) 0.000970 283.4 868.4
929(30) 0.001076 283.4 777.5
865(29) 0.001156 283.5 695.4
905(30) 0.001105 283.6 622.6
786(28) 0.001272 283.7 559.0
745(27) 0.001342 283.8 504.3
758(28) 0.001319 283.9 457.9
762(28) 0.001312 284.0 419.0
732(27) 0.001366 284.1 386.6
656(26) 0.001524 284.1 359.6
638(25) 0.001567 284.2 336.5
667(26) 0.001499 284.3 316.1
636(25) 0.001572 284.4 297.2
613(25) 0.001631 284.5 278.9
575(24) 0.001739 284.6 260.6
594(24) 0.001684 284.7 242.4
583(24) 0.001715 284.7 224.4
568(24) 0.001761 284.8 207.0
501(22) 0.001996 284.9 190.5
553(24) 0.001808 285.0 175.0
472(22) 0.002119 285.1 160.8
469(22) 0.002132 285.2 147.8
450(21) 0.002222 285.3 136.1
434(21) 0.002304 285.4 125.6
414(20) 0.002415 285.4 116.3
401(20) 0.002494 285.5 108.0
415(20) 0.002410 285.6 100.7
397(20) 0.002519 285.7 94.3
371(19) 0.002695 285.8 88.7
361(19) 0.002770 285.9 83.7
371(19) 0.002695 286.0 79.3
395(20) 0.002532 286.1 75.5
369(19) 0.002710 286.1 72.0
365(19) 0.002740 286.2 68.9
356(19) 0.002809 286.3 66.1
325(18) 0.003077 286.4 63.5
321(18) 0.003115 286.5 61.2
360(19) 0.002778 286.6 59.2
358(19) 0.002793 286.7 57.3
328(18) 0.003049 286.8 55.6
311(18) 0.003215 286.8 54.0
327(18) 0.003058 286.9 52.6
322(18) 0.003106 287.0 51.4
290(17) 0.003448 287.1 50.3
303(17) 0.003300 287.2 49.4
296(17) 0.003378 287.3 48.7
334(18) 0.002994 287.4 48.0
299(17) 0.003344 287.4 47.6
284(17) 0.00352 287.5 47.3
304(17) 0.003289 287.6 47.2
302(17) 0.003311 287.7 47.2
291(17) 0.003436 287.8 47.4
297(17) 0.003367 287.9 47.7
298(17) 0.003356 288.0 48.3
307(18) 0.003257 288.1 48.9
316(18) 0.003165 288.1 49.7
288(17) 0.003472 288.2 50.7
250(16) 0.00400 288.3 51.7
257(16) 0.00389 288.4 52.9
300(17) 0.003333 288.5 54.1
272(16) 0.00368 288.6 55.4
277(17) 0.00361 288.7 56.7
306(17) 0.003268 288.8 57.9
271(16) 0.00369 288.8 59.1
289(17) 0.003460 288.9 60.1
257(16) 0.00389 289.0 60.9
305(17) 0.003279 289.1 61.4
298(17) 0.003356 289.2 61.6
274(17) 0.00365 289.3 61.5
267(16) 0.00375 289.4 61.0
283(17) 0.00353 289.5 60.1
270(16) 0.00370 289.5 58.8
310(18) 0.003226 289.6 57.3
285(17) 0.00351 289.7 55.6
286(17) 0.003497 289.8 53.6
281(17) 0.00356 289.9 51.5
304(17) 0.003289 290.0 49.4
273(17) 0.00366 290.1 47.2
273(17) 0.00366 290.2 45.0
266(16) 0.00376 290.2 42.9
274(17) 0.00365 290.3 40.9
273(17) 0.00366 290.4 38.9
287(17) 0.003484 290.5 37.1
278(17) 0.00360 290.6 35.3
287(17) 0.003484 290.7 33.7
282(17) 0.00355 290.8 32.2
252(16) 0.00397 290.8 30.9
262(16) 0.00382 290.9 29.6
271(16) 0.00369 291.0 28.5
312(18) 0.003205 291.1 27.5
267(16) 0.00375 291.2 26.6
292(17) 0.003425 291.3 25.8
285(17) 0.00351 291.4 25.1
276(17) 0.00362 291.5 24.5
290(17) 0.003448 291.5 23.9
266(16) 0.00376 291.6 23.5
254(16) 0.00394 291.7 23.1
285(17) 0.00351 291.8 22.7
267(16) 0.00375 291.9 22.5
269(16) 0.00372 289.8 22.3
269(16) 0.00372 281.0 22.1
271(16) 0.00369 274.5 22.0
260(16) 0.00385 274.4 21.9
287(17) 0.003484 274.3 21.9
291(17) 0.003436 274.2 21.9
282(17) 0.00355 274.1 22.0
265(16) 0.00377 274.1 22.1
286(17) 0.003497 274.0 22.3
279(17) 0.00358 273.9 22.5
270(16) 0.00370 273.8 22.7
276(17) 0.00362 273.7 23.1
281(17) 0.00356 273.6 23.5
279(17) 0.00358 273.6 23.9
268(16) 0.00373 273.5 24.4
286(17) 0.003497 273.4 25.1
282(17) 0.00355 273.3 25.8
266(16) 0.00376 273.2 26.6
288(17) 0.003472 273.2 27.5
286(17) 0.003497 273.1 28.5
286(17) 0.003497 273.0 29.6
304(17) 0.003289 272.9 30.8
271(16) 0.00369 272.8 32.3
280(17) 0.00357 272.7 33.8
289(17) 0.003460 272.7 35.5
280(17) 0.00357 272.6 37.4
296(17) 0.003378 272.5 39.4
320(18) 0.003125 272.4 41.6
296(17) 0.003378 272.3 44.0
292(17) 0.003425 272.3 46.6
291(17) 0.003436 272.2 49.3
327(18) 0.003058 272.1 52.3
310(18) 0.003226 272.0 55.4
309(18) 0.003236 271.9 58.7
330(18) 0.003030 271.8 62.2
339(18) 0.002950 271.8 65.9
333(18) 0.003003 271.7 69.7
325(18) 0.003077 271.6 73.6
310(18) 0.003226 271.5 77.7
296(17) 0.003378 271.4 81.8
342(18) 0.002924 271.3 86.0
311(18) 0.003215 271.3 90.2
323(18) 0.003096 271.2 94.4
331(18) 0.003021 271.1 98.5
341(18) 0.002933 271.0 102.5
345(19) 0.002899 270.9 106.3
347(19) 0.002882 270.9 109.8
352(19) 0.002841 270.8 113.0
365(19) 0.002740 270.7 115.9
386(20) 0.002591 270.6 118.3
364(19) 0.002747 270.5 120.3
366(19) 0.002732 270.4 121.8
353(19) 0.002833 270.4 122.8
343(19) 0.002915 270.3 123.3
389(20) 0.002571 270.2 123.4
336(18) 0.002976 270.1 123.0
370(19) 0.002703 270.0 122.3
364(19) 0.002747 270.0 121.2
363(19) 0.002755 269.9 119.9
343(19) 0.002915 269.8 118.2
369(19) 0.002710 269.7 116.4
328(18) 0.003049 269.6 114.3
345(19) 0.002899 269.5 112.0
369(19) 0.002710 269.5 109.5
337(18) 0.002967 269.4 106.7
362(19) 0.002762 269.3 103.8
334(18) 0.002994 269.2 100.6
321(18) 0.003115 269.1 97.2
313(18) 0.003195 269.0 93.7
311(18) 0.003215 269.0 89.9
324(18) 0.003086 268.9 86.1
312(18) 0.003205 268.8 82.1
326(18) 0.003067 268.7 78.2
320(18) 0.003125 268.6 74.2
294(17) 0.003401 268.6 70.3
336(18) 0.002976 268.5 66.5
293(17) 0.003413 268.4 62.9
293(17) 0.003413 268.3 59.4
311(18) 0.003215 268.2 56.1
294(17) 0.003401 268.1 53.0
304(17) 0.003289 268.1 50.1
256(16) 0.00391 268.0 47.4
291(17) 0.003436 267.9 45.0
295(17) 0.003390 267.8 42.7
275(17) 0.00364 267.7 40.7
277(17) 0.00361 267.6 39.0
322(18) 0.003106 267.6 37.4
304(17) 0.003289 267.5 36.0
285(17) 0.00351 267.4 34.9
247(16) 0.00405 267.3 33.9
287(17) 0.003484 267.2 33.1
263(16) 0.00380 267.1 32.4
272(16) 0.00368 267.0 31.9
294(17) 0.003401 267.0 31.6
264(16) 0.00379 266.9 31.4
261(16) 0.00383 266.8 31.3
253(16) 0.00395 266.7 31.4
274(17) 0.00365 266.6 31.5
308(18) 0.003247 266.5 31.8
304(17) 0.003289 266.4 32.1
305(17) 0.003279 266.3 32.6
314(18) 0.003185 266.2 33.1
296(17) 0.003378 266.1 33.7
286(17) 0.003497 266.0 34.3
297(17) 0.003367 265.9 35.0
296(17) 0.003378 265.9 35.8
285(17) 0.00351 265.8 36.6
261(16) 0.00383 265.7 37.5
281(17) 0.00356 265.6 38.3
312(18) 0.003205 265.5 39.3
311(18) 0.003215 265.4 40.2
278(17) 0.00360 265.3 41.1
265(16) 0.00377 265.2 42.1
310(18) 0.003226 265.1 43.0
286(17) 0.003497 265.0 44.0
279(17) 0.00358 264.9 44.9
314(18) 0.003185 264.8 45.8
252(16) 0.00397 264.8 46.6
290(17) 0.003448 264.7 47.4
298(17) 0.003356 264.6 48.2
287(17) 0.003484 264.5 48.8
303(17) 0.003300 264.4 49.4
278(17) 0.00360 264.3 49.9
302(17) 0.003311 264.2 50.3
285(17) 0.00351 264.1 50.6
309(18) 0.003236 264.0 50.8
275(17) 0.00364 263.9 50.9
299(17) 0.003344 263.8 50.8
311(18) 0.003215 263.7 50.6
294(17) 0.003401 263.7 50.4
297(17) 0.003367 263.6 49.9
313(18) 0.003195 263.5 49.4
281(17) 0.00356 263.4 48.8
297(17) 0.003367 263.3 48.1
302(17) 0.003311 263.2 47.3
302(17) 0.003311 263.1 46.3
309(18) 0.003236 263.0 45.4
296(17) 0.003378 262.9 44.3
302(17) 0.003311 262.8 43.2
276(17) 0.00362 262.7 42.1
284(17) 0.00352 262.6 41.0
296(17) 0.003378 262.6 39.8
295(17) 0.003390 262.5 38.5
283(17) 0.00353 262.4 37.3
292(17) 0.003425 262.3 36.1
323(18) 0.003096 262.2 34.9
278(17) 0.00360 262.1 33.6
272(16) 0.00368 262.0 32.4
280(17) 0.00357 261.9 31.3
288(17) 0.003472 261.8 30.1
284(17) 0.00352 261.7 28.9
272(16) 0.00368 261.6 27.8
291(17) 0.003436 261.5 26.7
278(17) 0.00360 261.5 25.7
282(17) 0.00355 261.4 24.7
288(17) 0.003472 261.3 23.7
299(17) 0.003344 261.2 22.7
270(16) 0.00370 261.1 21.8
272(16) 0.00368 261.0 21.0
266(16) 0.00376 260.9 20.1
298(17) 0.003356 260.8 19.3
295(17) 0.003390 260.7 18.6
279(17) 0.00358 260.6 17.8
279(17) 0.00358 260.5 17.2
275(17) 0.00364 260.4 16.5
283(17) 0.00353 260.4 15.9
263(16) 0.00380 260.3 15.3
313(18) 0.003195 260.2 14.8
273(17) 0.00366 260.1 14.3
294(17) 0.003401 260.0 13.8
270(16) 0.00370 259.9 13.3
297(17) 0.003367 259.8 12.9
255(16) 0.00392 259.7 12.5
280(17) 0.00357 259.6 12.1
264(16) 0.00379 259.5 11.8
263(16) 0.00380 259.4 11.5
286(17) 0.003497 259.3 11.2
286(17) 0.003497 259.2 10.9
273(17) 0.00366 259.2 10.7
269(16) 0.00372 259.1 10.4
270(16) 0.00370 259.0 10.2
287(17) 0.003484 258.9 10.0
247(16) 0.00405 258.8 9.8
264(16) 0.00379 258.7 9.7
267(16) 0.00375 258.6 9.5
258(16) 0.00388 258.5 9.4
256(16) 0.00391 258.4 9.3
252(16) 0.00397 258.3 9.2
271(16) 0.00369 258.2 9.1
253(16) 0.00395 258.1 9.0
252(16) 0.00397 258.1 8.9
281(17) 0.00356 258.0 8.8
279(17) 0.00358 257.9 8.8
268(16) 0.00373 257.8 8.7
262(16) 0.00382 257.7 8.7
267(16) 0.00375 257.6 8.6
281(17) 0.00356 257.5 8.6
240(15) 0.00417 257.4 8.6
279(17) 0.00358 257.3 8.6
259(16) 0.00386 257.2 8.6
257(16) 0.00389 257.1 8.6
268(16) 0.00373 257.0 8.6
250(16) 0.00400 257.0 8.7
264(16) 0.00379 256.9 8.7
270(16) 0.00370 256.8 8.8
249(16) 0.00402 256.7 8.8
259(16) 0.00386 256.6 8.9
261(16) 0.00383 260.5 9.0
268(16) 0.00373 276.2 9.1
256(16) 0.00391 284.0 9.2
268(16) 0.00373 284.0 9.4
266(16) 0.00376 283.9 9.5
271(16) 0.00369 283.9 9.7
253(16) 0.00395 283.8 9.9
284(17) 0.00352 283.8 10.2
259(16) 0.00386 283.7 10.5
255(16) 0.00392 283.7 10.8
273(17) 0.00366 283.6 11.2
272(16) 0.00368 283.6 11.8
284(17) 0.00352 283.5 12.4
243(16) 0.00412 283.5 13.2
293(17) 0.003413 283.4 14.2
249(16) 0.00402 283.4 15.4
265(16) 0.00377 283.3 16.9
265(16) 0.00377 283.3 18.7
270(16) 0.00370 283.2 20.9
264(16) 0.00379 283.2 23.4
255(16) 0.00392 283.1 26.4
301(17) 0.003322 283.1 29.7
288(17) 0.003472 283.0 33.4
273(17) 0.00366 283.0 37.2
266(16) 0.00376 282.9 41.0
290(17) 0.003448 282.9 44.4
322(18) 0.003106 282.8 47.2
313(18) 0.003195 282.8 48.8
308(18) 0.003247 282.7 49.1
296(17) 0.003378 282.7 48.2
281(17) 0.00356 282.6 46.2
293(17) 0.003413 282.6 43.7
323(18) 0.003096 282.5 41.0
280(17) 0.00357 282.5 38.4
302(17) 0.003311 282.4 36.4
276(17) 0.00362 282.4 34.9
300(17) 0.003333 282.3 34.2
291(17) 0.003436 282.3 34.3
276(17) 0.00362 282.2 35.4
283(17) 0.00353 282.2 37.4
290(17) 0.003448 282.1 40.3
309(18) 0.003236 282.1 44.2
288(17) 0.003472 282.0 48.9
297(17) 0.003367 282.0 54.3
285(17) 0.00351 281.9 59.9
308(18) 0.003247 281.9 65.4
326(18) 0.003067 281.8 70.1
303(17) 0.003300 281.8 73.3
314(18) 0.003185 281.7 74.3
319(18) 0.003135 281.7 73.0
327(18) 0.003058 281.6 69.7
318(18) 0.003145 281.6 65.0
324(18) 0.003086 281.5 59.5
338(18) 0.002959 281.5 53.9
315(18) 0.003175 281.4 48.6
319(18) 0.003135 281.4 43.9
284(17) 0.00352 281.3 39.7
312(18) 0.003205 281.3 36.2
321(18) 0.003115 281.2 33.4
301(17) 0.003322 281.2 31.2
306(17) 0.003268 281.1 29.6
313(18) 0.003195 281.1 28.4
304(17) 0.003289 281.0 27.7
318(18) 0.003145 281.0 27.3
295(17) 0.003390 280.9 27.2
289(17) 0.003460 280.9 27.3
291(17) 0.003436 280.8 27.6
317(18) 0.003155 280.8 28.0
307(18) 0.003257 280.7 28.6
322(18) 0.003106 280.7 29.3
285(17) 0.00351 280.6 30.0
326(18) 0.003067 280.6 30.7
324(18) 0.003086 280.5 31.5
266(16) 0.00376 280.5 32.3
309(18) 0.003236 280.4 33.3
331(18) 0.003021 280.4 34.5
337(18) 0.002967 280.3 35.9
326(18) 0.003067 280.3 37.4
327(18) 0.003058 280.2 39.2
296(17) 0.003378 280.2 41.1
299(17) 0.003344 280.1 43.1
303(17) 0.003300 280.1 45.0
308(18) 0.003247 280.0 46.9
317(18) 0.003155 279.9 48.5
333(18) 0.003003 279.9 49.7
343(19) 0.002915 279.8 50.4
328(18) 0.003049 279.8 50.4
349(19) 0.002865 279.7 49.8
353(19) 0.002833 279.7 48.6
322(18) 0.003106 279.6 47.1
356(19) 0.002809 279.6 45.2
331(18) 0.003021 279.5 43.1
348(19) 0.002874 279.5 41.1
326(18) 0.003067 279.4 39.1
342(18) 0.002924 279.4 37.2
348(19) 0.002874 279.3 35.6
329(18) 0.003039 279.3 34.1
348(19) 0.002874 279.2 33.0
351(19) 0.002849 279.2 32.0
354(19) 0.002825 279.1 31.4
390(20) 0.002564 279.1 30.9
374(19) 0.002674 279.0 30.7
380(19) 0.002632 279.0 30.8
372(19) 0.002688 278.9 31.0
347(19) 0.002882 278.9 31.5
361(19) 0.002770 278.8 32.1
367(19) 0.002725 278.8 32.9
390(20) 0.002564 278.7 33.8
359(19) 0.002786 278.7 34.9
433(21) 0.002309 278.6 36.1
393(20) 0.0 0.0 .
405(20) 0.0 0.0 .
406(20) 0.0 0.0 .
401(20) 0.0 0.0 .
435(21) 0.0 0.0 .
398(20) 0.0 0.0 .
428(21) 0.0 0.0 .
419(20) 0.0 0.0 .
432(21) 0.0 0.0 .
410(20) 0.0 0.0 .
465(22) 0.0 0.0 .
433(21) 0.0 0.0 .
447(21) 0.0 0.0 .
443(21) 0.0 0.0 .
513(23) 0.0 0.0 .
475(22) 0.0 0.0 .
524(23) 0.0 0.0 .
500(22) 0.0 0.0 .
512(23) 0.0 0.0 .
545(23) 0.0 0.0 .
534(23) 0.0 0.0 .
584(24) 0.0 0.0 .
594(24) 0.0 0.0 .
607(25) 0.0 0.0 .
614(25) 0.0 0.0 .
614(25) 0.0 0.0 .
649(25) 0.0 0.0 .
712(27) 0.0 0.0 .
700(26) 0.0 0.0 .
774(28) 0.0 0.0 .
817(29) 0.0 0.0 .
857(29) 0.0 0.0 .
912(30) 0.0 0.0 .
999(32) 0.0 0.0 .
1044(32) 0.0 0.0 .
1154(34) 0.0 0.0 .
1286(36) 0.0 0. .
1491(39) 0.0 0. .
1661(41) 0.0 0. .
1945(44) 0.0 0. .
2212(47) 0.0 0. .
2641(51) 0.0 0. .
3203(57) 0.0 0. .
3854(62) 0.0 0. .
4959(70) 0.0 0. .
6473(80) 0.0 0. .
8967(95) 0.0 0. .
12850(110) 0.0 0. .
19060(140) 0.0 0. .
29370(170) 0.0 0. .
49540(220) 0.0 0. .
83660(290) 0.0 0. .
127290(360) 0.0 0. .
143910(380) 0.0 0. .
115000(340) 0.0 0. .
70480(270) 0.0 0. .
40990(200) 0.0 0. .
25040(160) 0.0 0. .
16260(130) 0.0 0. .
11230(110) 0.0 0. .
8012(90) 0.0 0. .
6144(78) 0.0 0. .
4821(69) 0.0 0. .
3867(62) 0.0 0. .
3222(57) 0.0 0. .
2629(51) 0.0 0. .
2191(47) 0.0 0. .
1930(44) 0.0 0. .
1711(41) 0.0 0. .
1500(39) 0.0 0. .
1367(37) 0.0 0. .
1236(35) 0.0 0. .
1109(33) 0.0 0.0 .
1069(33) 0.0 0.0 .
970(31) 0.0 0.0 .
921(30) 0.0 0.0 .
869(29) 0.0 0.0 .
822(29) 0.0 0.0 .
750(27) 0.0 0.0 .
794(28) 0.0 0.0 .
672(26) 0.0 0.0 .
666(26) 0.0 0.0 .
622(25) 0.0 0.0 .
624(25) 0.0 0.0 .
578(24) 0.0 0.0 .
599(24) 0.0 0.0 .
550(23) 0.0 0.0 .
542(23) 0.0 0.0 .
542(23) 0.0 0.0 .
503(22) 0.0 0.0 .
487(22) 0.0 0.0 .
492(22) 0.0 0.0 .
475(22) 0.0 0.0 .
448(21) 0.0 0.0 .
455(21) 0.0 0.0 .
457(21) 0.0 0.0 .
419(20) 0.0 0.0 .
432(21) 0.0 0.0 .
420(20) 0.0 0.0 .
422(21) 0.0 0.0 .
417(20) 0.0 0.0 .
400(20) 0.0 0.0 .
394(20) 0.0 0.0 .
385(20) 0.0 0.0 .
378(19) 0.0 0.0 .
391(20) 0.0 0.0 .
393(20) 0.0 0.0 .
381(20) 0.0 0.0 .
346(19) 0.002890 273.1 25.2
358(19) 0.002793 273.1 24.4
339(18) 0.002950 273.0 23.6
373(19) 0.002681 273.0 23.1
381(20) 0.002625 272.9 22.3
363(19) 0.002755 272.9 21.6
364(19) 0.002747 272.8 20.9
355(19) 0.002817 272.8 20.2
365(19) 0.002740 272.7 19.5
364(19) 0.002747 272.7 18.8
350(19) 0.002857 272.6 18.2
365(19) 0.002740 272.6 17.6
363(19) 0.002755 272.5 17.0
356(19) 0.002809 272.5 16.4
362(19) 0.002762 272.4 15.9
348(19) 0.002874 272.4 15.4
336(18) 0.002976 272.3 15.0
334(18) 0.002994 272.3 14.5
334(18) 0.002994 272.2 14.1
362(19) 0.002762 272.2 13.7
318(18) 0.003145 272.1 13.3
328(18) 0.003049 272.1 13.0
309(18) 0.003236 272.0 12.7
318(18) 0.003145 272.0 12.4
341(18) 0.002933 271.9 12.2
330(18) 0.003030 271.9 12.0
317(18) 0.003155 271.8 11.8
315(18) 0.003175 271.8 11.6
326(18) 0.003067 271.7 11.4
302(17) 0.003311 271.7 11.3
332(18) 0.003012 271.6 11.1
310(18) 0.003226 271.6 11.0
342(18) 0.002924 271.5 10.9
310(18) 0.003226 271.5 10.8
348(19) 0.002874 271.4 10.7
327(18) 0.003058 271.4 10.7
307(18) 0.003257 271.3 10.7
330(18) 0.003030 271.3 10.7
344(19) 0.002907 271.2 10.7
331(18) 0.003021 271.2 10.7
322(18) 0.003106 271.1 11.3
334(18) 0.002994 271.1 11.4
334(18) 0.002994 271.0 11.6
335(18) 0.002985 271.0 11.9
317(18) 0.003155 270.9 12.2
327(18) 0.003058 270.9 12.6
291(17) 0.003436 270.8 13.1
322(18) 0.003106 270.8 13.7
287(17) 0.003484 270.7 14.3
321(18) 0.003115 270.7 15.1
330(18) 0.003030 270.6 15.9
326(18) 0.003067 270.6 16.7
295(17) 0.003390 270.5 17.6
311(18) 0.003215 270.5 18.5
319(18) 0.003135 270.4 19.4
316(18) 0.003165 270.4 20.2
308(18) 0.003247 270.3 20.9
299(17) 0.003344 270.3 21.3
311(18) 0.003215 270.2 21.6
302(17) 0.003311 270.2 21.5
320(18) 0.003125 270.1 21.2
315(18) 0.003175 270.1 20.7
300(17) 0.003333 270.0 20.0
309(18) 0.003236 270.0 19.1
308(18) 0.003247 269.9 18.1
329(18) 0.003039 269.9 17.1
320(18) 0.003125 269.8 16.1
308(18) 0.003247 269.8 15.1
331(18) 0.003021 269.7 14.1
298(17) 0.003356 269.7 13.3
299(17) 0.003344 269.6 12.5
309(18) 0.003236 269.6 11.7
286(17) 0.003497 269.5 11.1
277(17) 0.00361 269.5 10.5
310(18) 0.003226 269.4 10.0
309(18) 0.003236 269.4 9.6
304(17) 0.003289 269.3 9.2
291(17) 0.003436 269.3 8.9
329(18) 0.003039 269.2 8.6
313(18) 0.003195 269.2 8.4
316(18) 0.003165 269.1 8.2
317(18) 0.003155 269.1 8.0
285(17) 0.00351 269.0 7.9
312(18) 0.003205 269.0 7.8
250(16) 0.00400 268.9 7.7
296(17) 0.003378 268.9 7.6
283(17) 0.00353 268.8 7.5
284(17) 0.00352 268.8 7.5
308(18) 0.003247 268.7 7.4
279(17) 0.00358 268.7 7.4
290(17) 0.003448 268.6 7.3
279(17) 0.00358 268.6 7.3
288(17) 0.003472 268.5 7.3
282(17) 0.00355 268.5 7.3
280(17) 0.00357 268.4 7.3
265(16) 0.00377 268.4 7.2
279(17) 0.00358 268.3 7.2
291(17) 0.003436 268.2 7.2
264(16) 0.00379 268.2 7.2
293(17) 0.003413 268.1 7.2
286(17) 0.003497 268.1 7.2
275(17) 0.00364 268.0 7.2
289(17) 0.003460 268.0 7.2
290(17) 0.003448 267.9 7.3
285(17) 0.00351 267.9 7.3
271(16) 0.00369 267.8 7.3
303(17) 0.003300 267.8 7.3
278(17) 0.00360 267.7 7.3
294(17) 0.003401 267.7 7.4
286(17) 0.003497 267.6 7.4
256(16) 0.00391 267.6 7.4
267(16) 0.00375 267.5 7.4
280(17) 0.00357 267.5 7.5
284(17) 0.00352 267.4 7.5
275(17) 0.00364 267.4 7.6
262(16) 0.00382 268.4 7.6
273(17) 0.00366 269.8 7.6
282(17) 0.00355 271.2 7.7
301(17) 0.003322 272.6 7.7
253(16) 0.00395 274.0 7.8
284(17) 0.00352 275.4 7.8
280(17) 0.00357 276.7 7.9
256(16) 0.00391 278.1 8.0
261(16) 0.00383 279.5 8.0
262(16) 0.00382 280.9 8.1
288(17) 0.003472 282.3 8.2
274(17) 0.00365 283.7 8.2
274(17) 0.00365 285.1 8.3
271(16) 0.00369 286.4 8.4
253(16) 0.00395 287.8 8.5
280(17) 0.00357 289.2 8.6
276(17) 0.00362 290.6 8.7
259(16) 0.00386 291.1 8.8
294(17) 0.003401 291.3 8.9
281(17) 0.00356 291.6 9.1
274(17) 0.00365 291.8 9.2
299(17) 0.003344 292.0 9.4
264(16) 0.00379 292.2 9.5
269(16) 0.00372 292.4 9.7
260(16) 0.00385 292.6 9.9
270(16) 0.00370 292.9 10.1
252(16) 0.00397 293.1 10.3
313(18) 0.003195 293.3 10.5
262(16) 0.00382 293.5 10.7
288(17) 0.003472 293.7 11.0
277(17) 0.00361 294.0 11.2
266(16) 0.00376 294.2 11.5
298(17) 0.003356 294.4 11.7
290(17) 0.003448 294.6 12.0
277(17) 0.00361 294.8 12.3
299(17) 0.003344 295.1 13.1
273(17) 0.00366 295.3 13.4
291(17) 0.003436 295.5 13.7
281(17) 0.00356 295.7 13.9
299(17) 0.003344 295.9 14.2
332(18) 0.003012 296.2 14.4
308(18) 0.003247 296.4 14.6
344(19) 0.002907 296.6 14.8
367(19) 0.002725 296.8 15.0
338(18) 0.002959 297.0 15.1
327(18) 0.003058 297.2 15.3
341(18) 0.002933 297.5 15.4
289(17) 0.003460 297.7 15.5
293(17) 0.003413 297.9 15.5
297(17) 0.003367 298.1 15.6
293(17) 0.003413 298.3 15.7
312(18) 0.003205 298.6 15.7
314(18) 0.003185 298.8 15.8
290(17) 0.003448 299.0 15.8
295(17) 0.003390 299.2 15.9
285(17) 0.00351 299.4 15.9
283(17) 0.00353 299.7 16.0
293(17) 0.003413 299.9 16.1
313(18) 0.003195 300.1 16.2
273(17) 0.00366 300.3 16.3
287(17) 0.003484 300.5 16.4
275(17) 0.00364 300.8 16.5
245(16) 0.00408 301.0 16.7
313(18) 0.003195 301.2 16.8
313(18) 0.003195 301.4 17.0
287(17) 0.003484 301.6 17.2
269(16) 0.00372 301.8 17.4
311(18) 0.003215 302.1 17.7
286(17) 0.003497 302.3 18.1
303(17) 0.003300 302.5 18.4
275(17) 0.00364 302.7 18.7
285(17) 0.00351 302.9 19.2
285(17) 0.00351 303.2 19.6
306(17) 0.003268 303.4 19.9
264(16) 0.00379 303.6 20.3
280(17) 0.00357 303.8 20.7
274(17) 0.00365 304.0 21.1
309(18) 0.003236 304.3 21.6
268(16) 0.00373 304.5 22.1
296(17) 0.003378 304.7 22.6
326(18) 0.003067 304.9 23.1
293(17) 0.003413 305.1 23.7
289(17) 0.003460 305.4 24.2
317(18) 0.003155 305.6 24.9
293(17) 0.003413 305.8 25.5
316(18) 0.003165 306.0 26.2
302(17) 0.003311 306.2 26.9
299(17) 0.003344 306.4 27.6
330(18) 0.003030 306.7 28.4
347(19) 0.002882 306.9 29.2
328(18) 0.003049 307.1 30.1
306(17) 0.003268 307.3 31.0
309(18) 0.003236 307.5 32.0
317(18) 0.003155 307.8 33.0
307(18) 0.003257 308.0 34.0
325(18) 0.003077 308.2 35.1
281(17) 0.00356 308.4 36.3
320(18) 0.003125 308.6 37.5
320(18) 0.003125 308.9 38.8
366(19) 0.002732 309.1 40.1
328(18) 0.003049 309.3 41.5
325(18) 0.003077 309.5 43.0
285(17) 0.00351 309.7 44.5
340(18) 0.002941 310.0 46.2
326(18) 0.003067 310.2 47.9
334(18) 0.002994 310.4 49.7
324(18) 0.003086 310.6 51.5
332(18) 0.003012 310.8 53.5
313(18) 0.003195 311.0 55.6
325(18) 0.003077 311.3 57.8
333(18) 0.003003 311.5 60.1
347(19) 0.002882 311.7 62.6
350(19) 0.002857 311.9 65.1
348(19) 0.002874 312.1 67.9
357(19) 0.002801 312.4 70.7
366(19) 0.002732 312.6 73.8
363(19) 0.002755 312.8 77.0
370(19) 0.002703 313.0 80.4
387(20) 0.002584 313.2 84.0
346(19) 0.002890 313.5 87.8
384(20) 0.002604 313.7 91.9
380(19) 0.002632 313.9 96.3
394(20) 0.002538 314.1 101.0
383(20) 0.002611 314.3 106.0
392(20) 0.002551 314.6 111.4
425(21) 0.002353 314.8 117.2
415(20) 0.002410 315.0 123.5
466(22) 0.002146 315.2 130.4
469(22) 0.002132 315.4 137.9
464(22) 0.002155 315.6 146.1
466(22) 0.002146 315.9 155.2
521(23) 0.001919 316.1 165.4
525(23) 0.001905 316.3 176.8
533(23) 0.001876 316.5 189.7
492(22) 0.002033 316.7 204.5
588(24) 0.001701 317.0 221.7
604(25) 0.001656 317.2 242.1
714(27) 0.001401 317.4 266.7
683(26) 0.001464 317.6 296.7
745(27) 0.001342 317.8 333.9
788(28) 0.001269 318.1 380.5
869(29) 0.001151 318.3 439.2
919(30) 0.001088 318.5 512.9
1025(32) 0.000976 318.7 604.6
1114(33) 0.000898 318.9 716.9
1211(35) 0.000826 319.2 851.3
1445(38) 0.000692 319. 1008.
1639(40) 0.000610 320. 1183.
1817(43) 0.000550 320. 1370.
1947(44) 0.000514 320. 1551.
2102(46) 0.000476 320. 1704.
2215(47) 0.000451 320. 1807.
2225(47) 0.000449 321. 1848.
2137(46) 0.000468 321. 1835.
2139(46) 0.000468 321. 1788.
2189(47) 0.000457 321. 1728.
2178(47) 0.000459 322. 1669.
2231(47) 0.000448 322. 1619.
2118(46) 0.000472 322. 1581.
2076(46) 0.000482 322. 1552.
2071(46) 0.000483 322. 1532.
1924(44) 0.000520 323. 1514.
1955(44) 0.000512 323. 1494.
1881(43) 0.000532 323. 1467.
1728(42) 0.000579 323. 1431.
1686(41) 0.000593 324. 1386.
1645(41) 0.000608 324. 1336.
1551(39) 0.000645 324. 1283.
1529(39) 0.000654 324. 1228.
1546(39) 0.000647 324. 1170.
1496(39) 0.000668 325. 1106.
1377(37) 0.000726 325. 1033.
1346(37) 0.000743 325. 951.
1360(37) 0.000735 325. 862.
1262(36) 0.000792 326. 771.
1140(34) 0.000877 325.7 682.1
1034(32) 0.000967 325.9 598.4
967(31) 0.001034 326.2 522.3
848(29) 0.001179 326.4 454.7
841(29) 0.001189 326.6 395.7
727(27) 0.001376 326.8 345.1
637(25) 0.001570 327.0 302.2
609(25) 0.001642 327.3 266.1
576(24) 0.001736 327.5 235.9
594(24) 0.001684 327.7 210.9
529(23) 0.001890 327.9 190.0
506(22) 0.001976 328.1 172.6
515(23) 0.001942 328.3 158.0
481(22) 0.002079 328.6 145.6
507(23) 0.001972 328.8 135.0
451(21) 0.002217 329.0 125.8
446(21) 0.002242 329.2 117.7
458(21) 0.002183 329.4 110.6
404(20) 0.002475 329.7 104.2
450(21) 0.002222 329.9 98.5
423(21) 0.002364 330.1 93.3
385(20) 0.002597 330.3 88.6
417(20) 0.002398 330.5 84.3
398(20) 0.002513 330.8 80.4
404(20) 0.002475 331.0 76.8
372(19) 0.002688 331.2 73.5
382(20) 0.002618 331.4 70.4
379(19) 0.002639 331.6 67.6
400(20) 0.002500 331.9 65.1
398(20) 0.002513 332.1 62.7
364(19) 0.002747 332.3 60.5
381(20) 0.002625 332.5 58.5
346(19) 0.002890 332.7 56.6
337(18) 0.002967 332.9 55.0
385(20) 0.002597 333.2 53.4
331(18) 0.003021 333.4 52.0
380(19) 0.002632 333.6 50.7
354(19) 0.002825 333.8 49.6
323(18) 0.003096 334.0 48.6
347(19) 0.002882 334.3 47.7
343(19) 0.002915 334.5 47.0
321(18) 0.003115 334.7 46.3
320(18) 0.003125 334.9 45.8
331(18) 0.003021 335.1 45.4
352(19) 0.002841 335.4 45.1
329(18) 0.003039 335.6 45.0
338(18) 0.002959 335.8 45.1
342(18) 0.002924 336.0 45.3
347(19) 0.002882 336.2 45.7
357(19) 0.002801 336.5 46.4
354(19) 0.002825 336.7 47.3
363(19) 0.002755 336.9 48.5
374(19) 0.002674 337.1 50.1
337(18) 0.002967 337.3 52.1
358(19) 0.002793 337.5 54.6
381(20) 0.002625 337.8 57.9
367(19) 0.002725 338.0 62.2
414(20) 0.002415 338.2 67.9
418(20) 0.002392 338.4 75.7
430(21) 0.002326 338.6 86.5
448(21) 0.002232 338.9 101.9
472(22) 0.002119 339.1 123.9
536(23) 0.001866 339.3 154.7
538(23) 0.001859 339.5 196.6
624(25) 0.001603 339.7 250.9
731(27) 0.001368 340.0 317.1
781(28) 0.001280 340.2 391.2
836(29) 0.001196 340.4 461.8
897(30) 0.001115 340.6 509.8
853(29) 0.001172 340.8 515.8
769(28) 0.001300 341.1 476.7
679(26) 0.001473 341.3 409.3
700(26) 0.001429 341.5 334.1
571(24) 0.001751 341.7 264.6
553(24) 0.001808 341.9 206.4
504(22) 0.001984 342.1 160.8
477(22) 0.002096 342.4 126.7
449(21) 0.002227 342.6 102.0
424(21) 0.002358 342.8 85.2
463(22) 0.002160 343.0 72.7
415(20) 0.002410 343.2 63.7
451(21) 0.002217 343.5 56.9
443(21) 0.002257 343.7 51.7
443(21) 0.002257 343.9 47.5
449(21) 0.002227 344.1 44.0
489(22) 0.002045 344.3 41.2
492(22) 0.002033 344.6 38.7
461(21) 0.002169 344.8 36.7
522(23) 0.001916 345.0 34.9
533(23) 0.001876 345.2 33.4
500(22) 0.002000 345.4 32.0
463(22) 0.002160 345.7 30.8
424(21) 0.002358 345.9 29.8
430(21) 0.002326 346.1 28.9
431(21) 0.002320 346.3 28.1
408(20) 0.002451 346.5 27.4
413(20) 0.002421 346.7 26.7
388(20) 0.002577 347.0 26.2
337(18) 0.002967 347.2 25.6
367(19) 0.002725 347.4 25.2
402(20) 0.002488 347.6 24.8
341(18) 0.002933 347.8 24.5
347(19) 0.002882 348.1 24.1
376(19) 0.002660 348.3 23.9
331(18) 0.003021 348.5 23.6
338(18) 0.002959 348.7 23.4
323(18) 0.003096 348.9 23.4
284(17) 0.00352 349.2 23.3
329(18) 0.003039 349.4 23.2
347(19) 0.002882 349.6 23.1
336(18) 0.002976 349.8 23.0
316(18) 0.003165 350.0 23.0
308(18) 0.003247 350.3 22.9
326(18) 0.003067 350.5 22.9
348(19) 0.002874 350.7 22.9
331(18) 0.003021 350.9 23.0
305(17) 0.003279 340.2 23.0
310(18) 0.003226 329.5 23.1
344(19) 0.002907 318.8 23.2
318(18) 0.003145 319.0 23.3
330(18) 0.003030 319.1 23.4
308(18) 0.003247 319.3 23.6
326(18) 0.003067 319.4 23.8
338(18) 0.002959 319.6 24.0
309(18) 0.003236 319.7 24.2
318(18) 0.003145 319.9 24.4
295(17) 0.003390 320.1 24.6
331(18) 0.003021 320.2 24.9
323(18) 0.003096 320.4 25.2
330(18) 0.003030 320.5 25.5
350(19) 0.002857 320.7 25.8
296(17) 0.003378 320.8 26.1
320(18) 0.003125 321.0 26.5
303(17) 0.003300 321.1 26.8
310(18) 0.003226 321.3 27.2
334(18) 0.002994 321.5 27.6
340(18) 0.002941 321.6 28.0
335(18) 0.002985 321.8 28.5
322(18) 0.003106 321.9 28.9
351(19) 0.002849 322.1 29.4
287(17) 0.003484 322.2 29.9
331(18) 0.003021 322.4 30.4
378(19) 0.002646 322.5 30.9
368(19) 0.002717 322.7 31.4
360(19) 0.002778 322.9 32.0
348(19) 0.002874 323.0 32.6
357(19) 0.002801 323.2 33.1
356(19) 0.002809 323.3 33.7
361(19) 0.002770 323.5 34.3
378(19) 0.002646 323.6 34.9
349(19) 0.002865 323.8 35.6
392(20) 0.002551 323.9 36.2
307(18) 0.003257 324.1 36.9
356(19) 0.002809 324.3 37.5
331(18) 0.003021 324.4 38.2
366(19) 0.002732 324.6 38.9
358(19) 0.002793 324.7 39.6
344(19) 0.002907 324.9 40.3
393(20) 0.002545 325.0 41.0
364(19) 0.002747 325.2 41.7
365(19) 0.002740 325.3 42.4
363(19) 0.002755 325.5 43.1
370(19) 0.002703 325.7 43.9
363(19) 0.002755 325.8 44.7
376(19) 0.002660 326.0 45.4
365(19) 0.002740 326.1 46.2
349(19) 0.002865 326.3 47.1
369(19) 0.002710 326.4 47.9
347(19) 0.002882 326.6 48.8
382(20) 0.002618 326.7 49.8
368(19) 0.002717 326.9 50.8
375(19) 0.002667 327.1 51.8
334(18) 0.002994 327.2 52.9
371(19) 0.002695 327.4 54.1
348(19) 0.002874 327.5 55.4
373(19) 0.002681 327.7 56.8
351(19) 0.002849 327.8 58.3
359(19) 0.002786 328.0 60.0
379(19) 0.002639 328.2 61.8
351(19) 0.002849 328.3 63.7
361(19) 0.002770 328.5 65.8
373(19) 0.002681 328.6 68.2
385(20) 0.002597 328.8 70.7
412(20) 0.002427 328.9 73.5
429(21) 0.002331 329.1 76.6
394(20) 0.002538 329.2 79.9
397(20) 0.002519 329.4 83.7
411(20) 0.002433 329.6 87.8
394(20) 0.002538 329.7 92.4
415(20) 0.002410 329.9 97.4
432(21) 0.002315 330.0 103.0
425(21) 0.002353 330.2 109.3
446(21) 0.002242 330.3 116.4
448(21) 0.002232 330.5 124.4
462(21) 0.002164 330.6 133.5
452(21) 0.002212 330.8 143.8
444(21) 0.002252 331.0 155.9
490(22) 0.002041 331.1 169.9
519(23) 0.001927 331.3 186.7
490(22) 0.002041 331.4 206.8
570(24) 0.001754 331.6 231.6
582(24) 0.001718 331.7 262.9
658(26) 0.001520 331.9 303.8
703(27) 0.001422 332.0 359.6
806(28) 0.001241 332.2 439.8
894(30) 0.001119 332.4 560.8
1089(33) 0.000918 332.5 747.4
1324(36) 0.000755 333. 1030.
1696(41) 0.000590 333. 1427.
2214(47) 0.000452 333. 1880.
2663(52) 0.000376 333. 2147.
2674(52) 0.000374 333. 1987.
2298(48) 0.000435 333. 1566.
1882(43) 0.000531 334. 1162.
1600(40) 0.000625 334. 870.
1335(37) 0.000749 334. 681.
1197(35) 0.000835 334.1 564.8
1035(32) 0.000966 334.2 494.7
961(31) 0.001041 334.4 452.5
913(30) 0.001095 334.5 427.3
896(30) 0.001116 334.7 412.8
835(29) 0.001198 334.8 405.5
793(28) 0.001261 335.0 403.1
725(27) 0.001379 335.2 404.3
778(28) 0.001285 335.3 408.0
784(28) 0.001276 335.5 413.2
789(28) 0.001267 335.6 419.4
813(29) 0.001230 335.8 426.0
781(28) 0.001280 335.9 432.4
834(29) 0.001199 336.1 438.2
780(28) 0.001282 336.2 443.0
781(28) 0.001280 336.4 446.5
805(28) 0.001242 336.6 448.3
810(28) 0.001235 336.7 448.3
819(29) 0.001221 336.9 446.5
794(28) 0.001259 337.0 442.9
761(28) 0.001314 337.2 437.5
812(28) 0.001232 337.3 430.7
766(28) 0.001305 337.5 422.6
788(28) 0.001269 337.6 413.5
745(27) 0.001342 337.8 403.6
735(27) 0.001361 338.0 393.2
716(27) 0.001397 338.1 382.4
676(26) 0.001479 338.3 371.5
696(26) 0.001437 338.4 360.5
716(27) 0.001397 338.6 349.6
698(26) 0.001433 338.7 339.2
662(26) 0.001511 338.9 329.4
674(26) 0.001484 339.0 320.6
696(26) 0.001437 339.2 312.9
662(26) 0.001511 339.4 306.0
642(25) 0.001558 339.5 298.9
669(26) 0.001495 339.7 289.3
614(25) 0.001629 339.8 275.5
611(25) 0.001637 340.0 258.7
553(24) 0.001808 340.1 241.4
540(23) 0.001852 340.3 225.4
594(24) 0.001684 340.4 211.1
533(23) 0.001876 340.6 198.6
557(24) 0.001795 340.8 187.7
526(23) 0.001901 340.9 178.1
503(22) 0.001988 341.1 169.5
510(23) 0.001961 341.2 162.0
504(22) 0.001984 341.4 155.1
518(23) 0.001931 341.5 149.2
529(23) 0.001890 341.7 143.9
495(22) 0.002020 341.9 139.2
465(22) 0.002151 342.0 135.1
478(22) 0.002092 342.2 131.5
505(22) 0.001980 342.3 128.5
616(25) 0.001623 342.5 126.1
814(29) 0.001228 342.6 124.2
760(28) 0.001316 342.8 122.9
833(29) 0.001200 342.9 122.1
729(27) 0.001372 343.1 121.8
594(24) 0.001684 343.3 122.0
516(23) 0.001938 343.4 122.7
522(23) 0.001916 343.6 123.9
506(22) 0.001976 343.7 125.7
483(22) 0.002070 343.9 127.9
474(22) 0.002110 344.0 130.7
514(23) 0.001946 344.2 134.0
516(23) 0.001938 344.3 138.0
488(22) 0.002049 344.5 142.6
500(22) 0.002000 344.7 148.0
520(23) 0.001923 344.8 154.3
540(23) 0.001852 345.0 161.4
538(23) 0.001859 345.1 169.6
558(24) 0.001792 345.3 178.9
572(24) 0.001748 345.4 189.5
564(24) 0.001773 345.6 201.5
680(26) 0.001471 345.7 215.1
763(28) 0.001311 345.9 230.3
701(26) 0.001427 346.1 247.3
674(26) 0.001484 346.2 266.1
693(26) 0.001443 346.4 286.9
754(27) 0.001326 346.5 309.7
763(28) 0.001311 346.7 334.4
725(27) 0.001379 346.8 361.1
754(27) 0.001326 347.0 389.5
799(28) 0.001252 347.1 419.5
846(29) 0.001182 347.3 450.8
809(28) 0.001236 347.5 483.0
836(29) 0.001196 347.6 515.6
919(30) 0.001088 347.8 547.8
931(31) 0.001074 347.9 578.9
978(31) 0.001022 348.1 607.9
1023(32) 0.000978 348.2 633.6
1061(33) 0.000943 348.4 655.1
1120(33) 0.000893 348.5 671.5
1118(33) 0.000894 348.7 682.1
1140(34) 0.000877 348.9 686.7
1193(35) 0.000838 349.0 685.5
1178(34) 0.000849 349.2 679.3
1150(34) 0.000870 349.3 669.1
1175(34) 0.000851 349.5 656.0
1051(32) 0.000951 349.6 641.5
1019(32) 0.000981 349.8 626.9
971(31) 0.001030 349.9 613.5
1017(32) 0.000983 350.1 602.7
937(31) 0.001067 350.3 595.9
913(30) 0.001095 350.4 594.5
961(31) 0.001041 350.6 600.3
1000(32) 0.001000 350.7 615.0
1031(32) 0.000970 350.9 640.5
1030(32) 0.000971 351.0 678.5
1076(33) 0.000929 351.2 730.6
1189(34) 0.000841 351.3 797.6
1292(36) 0.000774 352. 879.
1355(37) 0.000738 352. 973.
1460(38) 0.000685 352. 1075.
1429(38) 0.000700 352. 1175.
1562(40) 0.000640 352. 1264.
1612(40) 0.000620 352. 1331.
1682(41) 0.000595 352. 1377.
1682(41) 0.000595 353. 1407.
1819(43) 0.000550 353. 1431.
1921(44) 0.000521 353. 1456.
1936(44) 0.000517 353. 1485.
1922(44) 0.000520 353. 1517.
2093(46) 0.000478 353. 1552.
2130(46) 0.000469 354. 1588.
2189(47) 0.000457 354. 1624.
2225(47) 0.000449 354. 1659.
2305(48) 0.000434 354. 1691.
2328(48) 0.000430 354. 1718.
2228(47) 0.000449 354. 1736.
2296(48) 0.000436 354. 1743.
2136(46) 0.000468 355. 1737.
2048(45) 0.000488 355. 1715.
1983(45) 0.000504 355. 1678.
1902(44) 0.000526 355. 1627.
1752(42) 0.000571 355. 1563.
1786(42) 0.000560 355. 1488.
1611(40) 0.000621 356. 1407.
1548(39) 0.000646 356. 1320.
1538(39) 0.000650 356. 1231.
1424(38) 0.000702 356. 1142.
1356(37) 0.000737 356. 1054.
1306(36) 0.000766 356. 969.
1235(35) 0.000810 356. 887.
1224(35) 0.000817 356.6 810.8
1160(34) 0.000862 356.8 739.4
1136(34) 0.000880 357.0 673.3
1122(33) 0.000891 357.1 612.8
1035(32) 0.000966 357.3 557.7
1029(32) 0.000972 357.4 507.7
940(31) 0.001064 357.6 462.6
961(31) 0.001041 357.7 421.8
934(31) 0.001071 357.9 384.9
913(30) 0.001095 358.0 351.5
915(30) 0.001093 358.2 321.3
869(29) 0.001151 358.4 294.2
871(30) 0.001148 358.5 270.0
819(29) 0.001221 358.7 248.5
825(29) 0.001212 358.8 229.5
825(29) 0.001212 359.0 212.8
829(29) 0.001206 359.1 198.2
785(28) 0.001274 359.3 185.3
806(28) 0.001241 359.4 174.1
809(28) 0.001236 359.6 164.2
768(28) 0.001302 359.8 155.5
730(27) 0.001370 359.9 147.8
803(28) 0.001245 360.1 141.0
750(27) 0.001333 360.2 135.0
736(27) 0.001359 360.4 129.5
717(27) 0.001395 360.5 124.6
685(26) 0.001460 360.7 120.1
740(27) 0.0 0.0 .
725(27) 0.0 0.0 .
763(28) 0.0 0.0 .
712(27) 0.0 0.0 .
673(26) 0.0 0.0 .
728(27) 0.0 0.0 .
714(27) 0.0 0.0 .
713(27) 0.0 0.0 .
734(27) 0.0 0.0 .
734(27) 0.0 0.0 .
776(28) 0.0 0.0 .
802(28) 0.0 0.0 .
780(28) 0.0 0.0 .
778(28) 0.0 0.0 .
799(28) 0.0 0.0 .
857(29) 0.0 0.0 .
878(30) 0.0 0.0 .
873(30) 0.0 0.0 .
908(30) 0.0 0.0 .
934(31) 0.0 0.0 .
987(31) 0.0 0.0 .
1008(32) 0.0 0.0 .
1004(32) 0.0 0.0 .
1041(32) 0.0 0.0 .
1063(33) 0.0 0.0 .
1019(32) 0.0 0.0 .
1041(32) 0.0 0.0 .
980(31) 0.0 0.0 .
1017(32) 0.0 0.0 .
1061(33) 0.0 0.0 .
985(31) 0.0 0.0 .
1028(32) 0.0 0.0 .
1068(33) 0.0 0.0 .
1107(33) 0.0 0.0 .
1144(34) 0.0 0.0 .
1202(35) 0.0 0.0 .
1188(34) 0.0 0.0 .
1234(35) 0.0 0. .
1334(37) 0.0 0. .
1382(37) 0.0 0. .
1454(38) 0.0 0. .
1489(39) 0.0 0. .
1621(40) 0.0 0. .
1705(41) 0.0 0. .
1899(44) 0.0 0. .
2018(45) 0.0 0. .
2297(48) 0.0 0. .
2376(49) 0.0 0. .
2617(51) 0.0 0. .
2933(54) 0.0 0. .
3380(58) 0.0 0. .
3700(61) 0.0 0. .
4195(65) 0.0 0. .
4793(69) 0.0 0. .
5684(75) 0.0 0. .
6785(82) 0.0 0. .
7998(89) 0.0 0. .
9758(99) 0.0 0. .
12350(110) 0.0 0. .
15430(120) 0.0 0. .
20380(140) 0.0 0. .
27750(170) 0.0 0. .
38460(200) 0.0 0. .
56050(240) 0.0 0. .
86250(290) 0.0 0. .
138830(370) 0.0 0. .
225170(480) 0.0 0. .
329990(570) 0.0 0. .
390610(630) 0.0 0. .
348970(590) 0.0 0. .
239480(490) 0.0 0. .
145070(380) 0.0 0. .
88600(300) 0.0 0. .
56870(240) 0.0 0. .
38060(200) 0.0 0. .
26870(160) 0.0 0. .
20270(140) 0.0 0. .
15160(120) 0.0 0. .
11930(110) 0.0 0. .
9542(98) 0.0 0. .
7792(88) 0.0 0. .
6530(81) 0.0 0. .
5455(74) 0.0 0. .
4715(69) 0.0 0. .
4008(63) 0.0 0. .
3541(60) 0.0 0. .
3020(55) 0.0 0. .
2730(52) 0.0 0. .
2496(50) 0.0 0. .
2188(47) 0.0 0. .
2037(45) 0.0 0. .
1934(44) 0.0 0. .
1645(41) 0.0 0. .
1563(40) 0.0 0. .
1465(38) 0.0 0. .
1390(37) 0.0 0. .
1315(36) 0.0 0. .
1314(36) 0.0 0. .
1133(34) 0.0 0.0 .
1073(33) 0.0 0.0 .
1079(33) 0.0 0.0 .
1045(32) 0.0 0.0 .
978(31) 0.0 0.0 .
878(30) 0.0 0.0 .
888(30) 0.0 0.0 .
879(30) 0.0 0.0 .
826(29) 0.0 0.0 .
792(28) 0.0 0.0 .
800(28) 0.0 0.0 .
770(28) 0.0 0.0 .
775(28) 0.0 0.0 .
728(27) 0.0 0.0 .
694(26) 0.0 0.0 .
705(27) 0.0 0.0 .
686(26) 0.0 0.0 .
657(26) 0.0 0.0 .
652(26) 0.0 0.0 .
680(26) 0.0 0.0 .
626(25) 0.0 0.0 .
601(25) 0.0 0.0 .
662(26) 0.0 0.0 .
609(25) 0.0 0.0 .
565(24) 0.0 0.0 .
552(23) 0.0 0.0 .
552(23) 0.0 0.0 .
583(24) 0.0 0.0 .
551(23) 0.0 0.0 .
568(24) 0.0 0.0 .
563(24) 0.001776 380.8 41.9
538(23) 0.001859 380.9 42.2
552(23) 0.001812 381.1 42.1
528(23) 0.001894 381.2 41.7
508(23) 0.001968 381.4 40.9
505(22) 0.001980 381.5 39.7
522(23) 0.001916 381.7 38.3
483(22) 0.002070 381.9 36.7
479(22) 0.002088 382.0 35.0
473(22) 0.002114 382.2 33.3
486(22) 0.002058 382.3 31.7
504(22) 0.001984 382.5 30.0
473(22) 0.002114 382.6 28.4
461(21) 0.002169 382.8 26.9
470(22) 0.002128 383.0 25.5
451(21) 0.002217 383.1 24.3
442(21) 0.002262 383.3 23.1
444(21) 0.002252 383.4 22.1
454(21) 0.002203 383.6 21.2
437(21) 0.002288 383.7 20.4
471(22) 0.002123 383.9 19.7
447(21) 0.002237 384.0 19.1
437(21) 0.002288 384.2 18.6
434(21) 0.002304 384.4 18.2
435(21) 0.002299 384.5 17.8
452(21) 0.002212 384.7 17.5
443(21) 0.002257 384.8 17.3
411(20) 0.002433 385.0 17.0
450(21) 0.002222 385.1 16.9
430(21) 0.002326 385.3 16.7
424(21) 0.002358 385.4 16.6
404(20) 0.002475 385.6 16.5
416(20) 0.002404 385.8 16.4
422(21) 0.002370 385.9 16.3
393(20) 0.002545 386.1 16.3
433(21) 0.002309 386.2 16.2
393(20) 0.002545 386.4 16.2
409(20) 0.002445 386.5 16.2
433(21) 0.002309 386.7 16.2
426(21) 0.002347 386.8 16.2
388(20) 0.002577 387.0 16.2
406(20) 0.002463 387.2 16.2
395(20) 0.002532 387.3 16.2
424(21) 0.002358 387.5 16.3
421(21) 0.002375 387.6 16.3
429(21) 0.002331 387.8 16.4
442(21) 0.002262 387.9 16.4
429(21) 0.002331 388.1 16.5
427(21) 0.002342 388.2 16.6
451(21) 0.002217 388.4 16.7
407(20) 0.002457 388.6 16.8
421(21) 0.002375 388.7 16.9
412(20) 0.002427 388.9 17.0
387(20) 0.002584 389.0 17.2
421(21) 0.002375 389.2 17.3
396(20) 0.002525 389.3 17.5
389(20) 0.002571 389.5 17.6
375(19) 0.002667 389.6 17.8
397(20) 0.002519 389.8 18.0
403(20) 0.002481 390.0 18.2
343(19) 0.002915 390.1 18.4
369(19) 0.002710 390.3 18.7
404(20) 0.002475 390.4 19.0
399(20) 0.002506 390.6 19.2
379(19) 0.002639 390.7 19.5
357(19) 0.002801 390.9 19.8
386(20) 0.002591 391.0 20.2
369(19) 0.002710 391.2 20.5
349(19) 0.002865 391.4 20.9
384(20) 0.002604 391.5 21.3
380(19) 0.002632 384.9 21.7
339(18) 0.002950 364.8 22.2
388(20) 0.002577 364.9 22.6
359(19) 0.002786 365.0 23.2
384(20) 0.002604 365.2 23.8
382(20) 0.002618 365.3 24.4
360(19) 0.002778 365.4 25.0
416(20) 0.002404 365.5 25.8
350(19) 0.002857 365.7 26.5
372(19) 0.002688 365.8 27.4
384(20) 0.002604 365.9 28.3
353(19) 0.002833 366.1 29.3
375(19) 0.002667 366.2 30.4
365(19) 0.002740 366.3 31.5
361(19) 0.002770 366.5 32.8
373(19) 0.002681 366.6 34.1
377(19) 0.002653 366.7 35.6
400(20) 0.002500 366.8 37.2
386(20) 0.002591 367.0 38.9
379(19) 0.002639 367.1 40.7
375(19) 0.002667 367.2 42.7
385(20) 0.002597 367.4 44.9
362(19) 0.002762 367.5 47.2
357(19) 0.002801 367.6 49.7
375(19) 0.002667 367.7 52.3
394(20) 0.002538 367.9 55.2
381(20) 0.002625 368.0 58.3
425(21) 0.002353 368.1 61.6
392(20) 0.002551 368.3 65.2
414(20) 0.002415 368.4 69.1
399(20) 0.002506 368.5 73.2
388(20) 0.002577 368.7 77.8
430(21) 0.002326 368.8 82.7
471(22) 0.002123 368.9 88.1
416(20) 0.002404 369.0 94.0
420(20) 0.002381 369.2 100.4
479(22) 0.002088 369.3 107.5
461(21) 0.002169 369.4 115.3
461(21) 0.002169 369.6 123.9
483(22) 0.002070 369.7 133.3
456(21) 0.002193 369.8 143.6
557(24) 0.001795 369.9 154.9
496(22) 0.002016 370.1 167.1
517(23) 0.001934 370.2 180.3
540(23) 0.001852 370.3 194.4
548(23) 0.001825 370.5 209.2
598(24) 0.001672 370.6 224.8
601(25) 0.001664 370.7 240.7
622(25) 0.001608 370.8 256.8
620(25) 0.001613 371.0 272.5
689(26) 0.001451 371.1 287.4
660(26) 0.001515 371.2 300.9
718(27) 0.001393 371.4 312.2
665(26) 0.001504 371.5 320.5
747(27) 0.001339 371.6 325.2
673(26) 0.001486 371.8 326.0
671(26) 0.001490 371.9 322.8
618(25) 0.001618 372.0 315.8
630(25) 0.001587 372.1 305.6
635(25) 0.001575 372.3 293.0
643(25) 0.001555 372.4 278.8
588(24) 0.001701 372.5 263.7
590(24) 0.001695 372.7 248.3
573(24) 0.001745 372.8 233.2
573(24) 0.001745 372.9 218.5
549(23) 0.001822 373.0 204.7
507(23) 0.001972 373.2 192.0
462(21) 0.002164 373.3 180.3
520(23) 0.001923 373.4 169.7
450(21) 0.002222 373.6 160.4
469(22) 0.002132 373.7 152.2
472(22) 0.002119 373.8 145.1
453(21) 0.002208 374.0 139.1
472(22) 0.002119 374.1 134.0
488(22) 0.002049 374.2 129.9
432(21) 0.002315 374.3 126.6
449(21) 0.002227 374.5 124.0
431(21) 0.002320 374.6 122.0
474(22) 0.002110 374.7 120.6
432(21) 0.002315 374.9 119.8
461(21) 0.002169 375.0 119.4
403(20) 0.002481 375.1 119.5
467(22) 0.002141 375.2 120.0
439(21) 0.002278 375.4 120.8
449(21) 0.002227 375.5 122.1
444(21) 0.002252 375.6 123.7
458(21) 0.002183 375.8 125.7
424(21) 0.002358 375.9 128.3
477(22) 0.002096 376.0 131.5
493(22) 0.002028 376.1 135.4
498(22) 0.002008 376.3 140.5
497(22) 0.002012 376.4 147.1
509(23) 0.001965 376.5 155.5
566(24) 0.001767 376.7 166.3
570(24) 0.001754 376.8 179.7
650(25) 0.001538 376.9 195.8
635(25) 0.001575 377.1 214.3
695(26) 0.001439 377.2 234.0
690(26) 0.001449 377.3 252.4
694(26) 0.001441 377.4 265.6
643(25) 0.001555 377.6 270.1
657(26) 0.001522 377.7 264.8
636(25) 0.001572 377.8 252.5
625(25) 0.001600 378.0 237.3
578(24) 0.001730 378.1 222.4
613(25) 0.001631 378.2 209.8
545(23) 0.001835 378.3 200.0
602(25) 0.001661 378.5 193.4
570(24) 0.001754 378.6 189.5
548(23) 0.001825 378.7 188.1
529(23) 0.001890 378.9 188.7
533(23) 0.001876 379.0 190.9
596(24) 0.001678 379.1 194.3
563(24) 0.001776 379.3 198.4
570(24) 0.001754 379.4 202.9
589(24) 0.001698 379.5 207.4
633(25) 0.001580 379.6 211.4
609(25) 0.001642 379.8 214.5
612(25) 0.001634 379.9 216.0
595(24) 0.001681 380.0 215.8
621(25) 0.001610 380.2 213.7
549(23) 0.001822 380.3 210.0
588(24) 0.001701 380.4 205.0
600(24) 0.001667 380.5 199.2
602(25) 0.001661 380.7 192.9
553(24) 0.001808 380.8 186.4
573(24) 0.001745 380.9 180.0
552(23) 0.001812 381.1 173.8
525(23) 0.001905 381.2 167.7
523(23) 0.001912 381.3 162.0
496(22) 0.002016 381.4 156.6
492(22) 0.002033 381.6 151.5
492(22) 0.002033 381.7 146.7
506(22) 0.001976 381.8 142.1
513(23) 0.001949 382.0 137.8
469(22) 0.002132 382.1 133.7
469(22) 0.002132 382.2 129.8
456(21) 0.002193 382.4 126.1
429(21) 0.002331 382.5 122.6
454(21) 0.002203 382.6 119.3
431(21) 0.002320 382.7 116.1
412(20) 0.002427 382.9 113.1
426(21) 0.002347 383.0 110.4
412(20) 0.002427 383.1 107.8
412(20) 0.002427 383.3 105.4
425(21) 0.002353 383.4 103.2
389(20) 0.002571 383.5 101.2
430(21) 0.002326 383.6 99.4
407(20) 0.002457 383.8 97.8
414(20) 0.002415 383.9 96.3
404(20) 0.002475 384.0 95.1
392(20) 0.002551 384.2 94.0
447(21) 0.002237 384.3 93.1
401(20) 0.002494 384.4 92.4
411(20) 0.002433 384.6 91.8
426(21) 0.002347 384.7 91.2
432(21) 0.002315 384.8 90.8
437(21) 0.002288 384.9 90.4
464(22) 0.002155 385.1 90.0
422(21) 0.002370 385.2 89.7
427(21) 0.002342 385.3 89.3
402(20) 0.002488 385.5 89.0
409(20) 0.002445 385.6 88.6
423(21) 0.002364 385.7 88.2
424(21) 0.002358 385.8 87.7
434(21) 0.002304 386.0 87.2
426(21) 0.002347 386.1 86.6
399(20) 0.002506 386.2 85.9
412(20) 0.002427 386.4 85.2
410(20) 0.002439 386.5 84.4
401(20) 0.002494 386.6 83.6
374(19) 0.002674 386.7 82.7
439(21) 0.002278 391.1 81.7
424(21) 0.002358 396.8 80.6
415(20) 0.002410 397.7 79.5
400(20) 0.002500 397.1 78.3
387(20) 0.002584 396.4 77.1
392(20) 0.002551 395.8 76.0
396(20) 0.002525 395.1 74.8
406(20) 0.002463 394.5 73.8
379(19) 0.002639 393.8 72.8
376(19) 0.002660 393.2 72.0
403(20) 0.002481 392.5 71.4
443(21) 0.002257 391.9 71.0
418(20) 0.002392 391.2 71.0
390(20) 0.002564 390.6 71.3
421(21) 0.002375 389.9 72.0
441(21) 0.002268 389.3 73.1
432(21) 0.002315 388.6 74.7
454(21) 0.002203 387.9 76.8
471(22) 0.002123 387.3 79.4
452(21) 0.002212 386.6 82.4
448(21) 0.002232 386.0 85.9
499(22) 0.002004 385.3 89.7
481(22) 0.002079 384.7 93.7
473(22) 0.002114 384.0 97.7
466(22) 0.002146 383.4 101.4
468(22) 0.002137 382.7 104.6
524(23) 0.001908 382.1 107.0
511(23) 0.001957 381.4 108.5
505(22) 0.001980 380.8 109.2
469(22) 0.002132 380.1 109.4
469(22) 0.002132 379.5 109.4
471(22) 0.002123 378.8 109.7
539(23) 0.001855 378.1 110.8
484(22) 0.002066 377.5 113.1
502(22) 0.001992 376.8 117.0
477(22) 0.002096 376.2 123.1
511(23) 0.001957 375.5 131.8
538(23) 0.001859 374.9 143.5
566(24) 0.001767 374.2 158.8
655(26) 0.001527 373.6 178.1
626(25) 0.001597 372.9 201.8
685(26) 0.001460 372.3 230.2
734(27) 0.001362 371.6 263.5
752(27) 0.001330 371.0 301.5
850(29) 0.001176 370.3 343.8
921(30) 0.001086 369.7 389.4
931(31) 0.001074 369.0 436.8
1019(32) 0.000981 368.3 483.5
1093(33) 0.000915 367.7 526.4
1084(33) 0.000923 367.0 561.7
1108(33) 0.000903 366.4 585.9
1114(33) 0.000898 365.7 596.7
1065(33) 0.000939 365.1 594.2
1025(32) 0.000976 364.4 580.6
1000(32) 0.001000 363.8 559.3
988(31) 0.001012 363.1 533.7
999(32) 0.001001 362.5 506.9
1002(32) 0.000998 361.8 480.7
944(31) 0.001059 361.2 456.4
939(31) 0.001065 360.5 434.3
934(31) 0.001071 359.9 414.0
845(29) 0.001183 359.2 395.0
827(29) 0.001209 358.5 376.6
814(29) 0.001228 357.9 358.1
831(29) 0.001203 357.2 339.1
760(28) 0.001316 356.6 319.3
700(26) 0.001429 355.9 298.9
674(26) 0.001484 355.3 278.1
659(26) 0.001517 354.6 257.2
631(25) 0.001585 354.0 236.7
601(25) 0.001664 353.3 216.9
586(24) 0.001706 352.7 198.0
547(23) 0.001828 352.0 180.3
515(23) 0.001942 351.4 163.7
473(22) 0.002114 350.7 148.5
474(22) 0.002110 350.1 134.7
429(21) 0.002331 349.4 122.2
457(21) 0.002188 348.7 111.0
434(21) 0.002304 348.1 101.2
412(20) 0.002427 347.4 92.5
405(20) 0.002469 346.8 85.0
387(20) 0.002584 346.1 78.5
399(20) 0.002506 345.5 72.9
373(19) 0.002681 344.8 68.2
364(19) 0.002747 344.2 64.1
368(19) 0.002717 343.5 60.7
376(19) 0.002660 342.9 57.9
353(19) 0.002833 342.2 55.5
330(18) 0.003030 341.6 53.4
332(18) 0.003012 340.9 51.7
349(19) 0.002865 340.3 50.3
331(18) 0.003021 339.6 49.1
325(18) 0.003077 338.9 48.1
313(18) 0.003195 338.3 47.2
327(18) 0.003058 337.6 46.5
355(19) 0.002817 337.0 45.9
339(18) 0.002950 336.3 45.4
322(18) 0.003106 335.7 45.0
325(18) 0.003077 335.0 44.6
320(18) 0.003125 334.4 44.4
305(17) 0.003279 333.7 44.2
309(18) 0.003236 333.1 44.1
347(19) 0.002882 332.4 44.0
312(18) 0.003205 331.8 44.1
327(18) 0.003058 331.1 44.2
343(19) 0.002915 330.5 44.5
301(17) 0.003322 329.8 44.8
314(18) 0.003185 329.1 45.3
319(18) 0.003135 328.5 45.9
317(18) 0.003155 327.8 46.6
335(18) 0.002985 327.2 47.4
312(18) 0.003205 326.5 48.3
307(18) 0.003257 325.9 49.4
322(18) 0.003106 325.2 50.5
346(19) 0.002890 324.6 51.7
314(18) 0.003185 323.9 53.0
318(18) 0.003145 323.3 54.4
332(18) 0.003012 322.6 55.8
288(17) 0.003472 322.0 57.2
333(18) 0.003003 321.3 58.6
315(18) 0.003175 320.7 59.9
310(18) 0.003226 320.0 61.1
297(17) 0.003367 319.3 62.1
311(18) 0.003215 318.7 62.9
321(18) 0.003115 318.0 63.5
297(17) 0.003367 317.4 63.9
318(18) 0.003145 316.7 63.9
344(19) 0.002907 316.1 63.6
331(18) 0.003021 315.3 63.0
317(18) 0.003155 314.0 62.1
322(18) 0.003106 312.7 60.9
328(18) 0.003049 311.4 59.4
315(18) 0.003175 310.2 57.8
316(18) 0.003165 308.9 56.1
315(18) 0.003175 307.6 54.2
301(17) 0.003322 306.3 52.2
324(18) 0.003086 305.0 50.2
295(17) 0.003390 303.8 48.3
324(18) 0.003086 302.5 46.3
319(18) 0.003135 301.2 44.4
287(17) 0.003484 299.9 42.6
266(16) 0.00376 298.6 40.8
308(18) 0.003247 297.4 39.1
313(18) 0.003195 296.1 37.5
289(17) 0.003460 294.8 36.1
299(17) 0.003344 293.5 34.7
255(16) 0.00392 292.2 33.5
279(17) 0.00358 291.0 32.3
283(17) 0.00353 289.7 31.3
297(17) 0.003367 288.4 30.3
269(16) 0.00372 287.1 29.5
299(17) 0.003344 285.9 28.8
275(17) 0.00364 284.6 28.1
269(16) 0.00372 283.3 27.5
283(17) 0.00353 282.0 27.0
284(17) 0.00352 280.7 26.6
284(17) 0.00352 279.5 26.2
298(17) 0.003356 278.2 25.9
293(17) 0.003413 276.9 25.6
292(17) 0.003425 275.6 25.3
286(17) 0.003497 274.3 25.1
320(18) 0.003125 273.1 25.0
281(17) 0.00356 271.8 24.8
294(17) 0.003401 270.5 24.7
294(17) 0.003401 269.2 24.6
277(17) 0.00361 267.9 24.5
278(17) 0.00360 266.7 24.4
298(17) 0.003356 265.4 24.3
276(17) 0.00362 264.1 24.2
279(17) 0.00358 262.8 24.1
272(16) 0.00368 261.9 24.0
292(17) 0.003425 262.0 23.9
289(17) 0.003460 262.1 23.8
256(16) 0.00391 262.3 23.7
288(17) 0.003472 262.4 23.6
251(16) 0.00398 262.5 23.5
260(16) 0.00385 262.6 23.4
305(17) 0.003279 262.7 23.2
300(17) 0.003333 262.9 23.0
279(17) 0.00358 263.0 22.9
291(17) 0.003436 263.1 22.7
297(17) 0.003367 263.2 22.5
288(17) 0.003472 263.3 22.2
307(18) 0.003257 263.4 22.0
270(16) 0.00370 263.6 21.8
262(16) 0.00382 263.7 21.5
272(16) 0.00368 263.8 21.3
272(16) 0.00368 263.9 21.0
278(17) 0.00360 264.0 20.8
298(17) 0.003356 264.2 20.5
291(17) 0.003436 264.3 20.2
281(17) 0.00356 264.4 19.9
284(17) 0.00352 264.5 19.6
279(17) 0.00358 264.6 19.4
287(17) 0.003484 264.8 19.1
263(16) 0.00380 264.9 18.8
280(17) 0.00357 265.0 18.5
287(17) 0.003484 265.1 18.2
263(16) 0.00380 265.2 17.9
262(16) 0.00382 265.4 17.6
282(17) 0.00355 265.5 17.4
305(17) 0.003279 265.6 17.1
306(17) 0.003268 265.7 16.8
295(17) 0.003390 265.8 16.6
281(17) 0.00356 265.9 16.4
304(17) 0.003289 266.1 16.1
278(17) 0.00360 266.2 15.8
262(16) 0.00382 266.3 15.6
287(17) 0.003484 266.4 15.3
280(17) 0.00357 266.5 15.1
255(16) 0.00392 266.7 14.9
265(16) 0.00377 266.8 14.6
279(17) 0.00358 266.9 14.4
276(17) 0.00362 267.0 14.2
276(17) 0.00362 267.1 14.0
287(17) 0.003484 267.3 13.8
320(18) 0.003125 267.4 13.6
265(16) 0.00377 267.5 13.4
281(17) 0.00356 267.6 13.2
293(17) 0.003413 267.7 13.0
308(18) 0.003247 267.8 12.9
278(17) 0.00360 268.0 12.7
275(17) 0.00364 268.1 12.6
279(17) 0.00358 268.2 12.4
260(16) 0.00385 268.3 12.3
288(17) 0.003472 268.4 12.2
249(16) 0.00402 268.6 12.0
286(17) 0.003497 268.7 11.9
292(17) 0.003425 268.8 11.8
288(17) 0.003472 268.9 11.7
290(17) 0.003448 269.0 11.6
271(16) 0.00369 269.1 11.6
250(16) 0.00400 269.2 11.5
281(17) 0.00356 269.3 11.4
264(16) 0.00379 269.4 11.3
283(17) 0.00353 269.5 11.3
292(17) 0.003425 269.6 11.2
306(17) 0.003268 269.7 11.2
277(17) 0.00361 269.8 11.1
272(16) 0.00368 269.9 11.1
252(16) 0.00397 270.0 11.0
269(16) 0.00372 270.1 11.1
290(17) 0.003448 270.1 11.1
279(17) 0.00358 270.2 11.1
260(16) 0.00385 270.3 11.1
292(17) 0.003425 270.4 11.1
275(17) 0.00364 270.5 11.1
275(17) 0.00364 270.6 11.1
269(16) 0.00372 270.7 11.1
313(18) 0.003195 270.8 11.2
290(17) 0.003448 270.9 11.2
300(17) 0.003333 271.0 11.2
291(17) 0.003436 271.1 11.3
281(17) 0.00356 271.2 11.4
310(18) 0.003226 271.3 11.4
304(17) 0.003289 271.4 11.5
293(17) 0.003413 271.5 11.6
286(17) 0.003497 271.6 11.7
272(16) 0.00368 271.7 11.8
299(17) 0.003344 271.8 11.9
286(17) 0.003497 271.9 12.0
277(17) 0.00361 272.0 12.1
263(16) 0.00380 272.1 12.3
288(17) 0.003472 272.2 12.4
271(16) 0.00369 272.2 12.6
287(17) 0.003484 272.3 12.8
279(17) 0.00358 272.4 13.0
267(16) 0.00375 272.5 13.2
261(16) 0.00383 272.6 13.4
273(17) 0.00366 272.7 13.7
273(17) 0.00366 272.8 13.9
271(16) 0.00369 272.9 14.3
288(17) 0.003472 273.0 14.6
277(17) 0.00361 273.1 15.0
304(17) 0.003289 273.1 15.5
290(17) 0.003448 273.2 16.0
290(17) 0.003448 273.3 16.6
300(17) 0.003333 273.3 17.3
287(17) 0.003484 273.4 18.2
283(17) 0.00353 273.5 19.2
273(17) 0.00366 273.6 20.4
263(16) 0.00380 273.6 21.9
297(17) 0.003367 273.7 23.7
274(17) 0.00365 273.8 25.7
283(17) 0.00353 273.9 28.2
310(18) 0.003226 273.9 31.0
319(18) 0.003135 274.0 34.3
328(18) 0.003049 274.1 37.9
303(17) 0.003300 274.2 41.8
349(19) 0.002865 274.2 45.9
360(19) 0.002778 274.3 50.1
358(19) 0.002793 274.4 54.1
383(20) 0.002611 274.4 57.7
369(19) 0.002710 274.5 60.4
379(19) 0.002639 274.6 62.0
391(20) 0.002558 274.7 62.3
410(20) 0.002439 274.7 61.5
380(19) 0.002632 274.8 59.8
388(20) 0.002577 274.9 57.7
356(19) 0.002809 275.0 55.5
318(18) 0.003145 275.0 53.5
336(18) 0.002976 275.1 52.1
369(19) 0.002710 275.2 51.2
340(18) 0.002941 275.3 51.0
342(18) 0.002924 275.3 51.5
364(19) 0.002747 275.4 52.3
355(19) 0.002817 275.5 53.3
345(19) 0.002899 275.5 54.0
361(19) 0.002770 275.6 53.9
355(19) 0.002817 275.7 52.9
353(19) 0.002833 275.8 50.9
358(19) 0.002793 275.8 48.3
363(19) 0.002755 275.9 45.6
342(18) 0.002924 276.0 43.1
341(18) 0.002933 276.1 40.9
327(18) 0.003058 276.1 39.2
331(18) 0.003021 276.2 38.0
350(19) 0.002857 276.3 37.4
319(18) 0.003135 276.4 37.3
333(18) 0.003003 276.4 37.7
334(18) 0.002994 276.5 38.8
349(19) 0.002865 276.6 40.4
314(18) 0.003185 276.6 42.6
336(18) 0.002976 276.7 45.6
328(18) 0.003049 276.8 49.2
347(19) 0.002882 276.9 53.7
373(19) 0.002681 276.9 59.0
367(19) 0.002725 277.0 65.1
353(19) 0.002833 277.1 72.0
341(18) 0.002933 277.2 79.7
393(20) 0.002545 277.2 87.9
420(20) 0.002381 277.3 96.3
409(20) 0.002445 277.4 104.4
417(20) 0.002398 277.5 111.7
422(21) 0.002370 277.5 117.3
401(20) 0.002494 277.6 120.6
405(20) 0.002469 277.7 121.4
397(20) 0.002519 277.7 119.9
362(19) 0.002762 277.8 116.5
414(20) 0.002415 277.9 112.0
423(21) 0.002364 278.0 107.0
431(21) 0.002320 278.0 102.0
392(20) 0.002551 278.1 97.5
375(19) 0.002667 278.2 93.5
406(20) 0.002463 278.3 90.2
421(21) 0.002375 278.3 87.5
408(20) 0.002451 278.4 85.2
399(20) 0.002506 278.5 83.5
394(20) 0.002538 278.6 82.1
370(19) 0.002703 278.6 81.0
361(19) 0.002770 278.7 80.2
368(19) 0.002717 278.8 79.8
368(19) 0.002717 278.8 79.8
360(19) 0.002778 278.9 80.2
407(20) 0.002457 279.0 81.1
382(20) 0.002618 279.1 82.4
423(21) 0.002364 279.1 84.3
428(21) 0.002336 279.2 86.8
387(20) 0.002584 279.3 90.0
391(20) 0.002558 279.4 93.8
406(20) 0.002463 279.4 98.3
423(21) 0.002364 279.5 103.5
391(20) 0.002558 279.6 109.5
426(21) 0.002347 279.7 116.4
430(21) 0.002326 279.7 124.1
433(21) 0.002309 279.8 132.6
452(21) 0.002212 279.9 142.1
429(21) 0.002331 279.9 152.4
476(22) 0.002101 280.0 163.7
540(23) 0.001852 280.1 175.8
502(22) 0.001992 280.2 188.8
524(23) 0.001908 280.2 202.6
548(23) 0.001825 280.3 217.2
624(25) 0.001603 280.4 232.4
605(25) 0.001653 280.5 248.2
646(25) 0.001548 280.5 264.3
659(26) 0.001517 280.6 280.6
690(26) 0.001449 280.7 296.9
698(26) 0.001433 280.8 312.9
742(27) 0.001348 280.8 328.2
760(28) 0.001316 280.9 342.7
754(27) 0.001326 281.0 355.8
772(28) 0.001295 281.0 367.4
832(29) 0.001202 281.1 377.1
743(27) 0.001346 281.2 384.8
775(28) 0.001290 281.3 390.3
778(28) 0.001285 281.3 393.5
732(27) 0.001366 281.4 394.5
740(27) 0.001351 281.5 393.2
721(27) 0.001387 281.6 389.9
706(27) 0.001416 281.6 384.6
706(27) 0.001416 281.7 377.7
690(26) 0.001449 281.8 369.3
703(27) 0.001422 281.9 359.7
692(26) 0.001445 281.9 349.2
667(26) 0.001499 282.0 338.0
639(25) 0.001565 282.1 326.4
662(26) 0.001511 282.1 314.5
625(25) 0.001600 282.2 302.5
589(24) 0.001698 282.3 290.6
603(25) 0.001658 282.4 278.8
635(25) 0.001575 282.4 267.3
570(24) 0.001754 282.5 256.2
593(24) 0.001686 282.6 245.4
586(24) 0.001706 282.7 235.0
562(24) 0.001779 282.7 225.0
547(23) 0.001828 282.8 215.5
546(23) 0.001832 282.9 206.4
569(24) 0.001757 283.0 197.7
518(23) 0.001931 283.0 189.4
520(23) 0.001923 283.1 181.5
546(23) 0.001832 283.2 174.1
498(22) 0.002008 283.2 167.0
540(23) 0.001852 283.3 160.2
536(23) 0.001866 283.4 153.8
558(24) 0.001792 283.5 147.7
660(26) 0.001515 283.5 141.9
541(23) 0.001848 283.6 136.4
466(22) 0.002146 283.7 131.1
498(22) 0.002008 283.8 126.1
472(22) 0.002119 283.8 121.3
427(21) 0.002342 283.9 116.7
415(20) 0.002410 284.0 112.4
426(21) 0.002347 284.1 108.2
387(20) 0.002584 284.1 104.3
406(20) 0.002463 284.2 100.5
381(20) 0.002625 284.3 96.8
397(20) 0.002519 284.3 93.4
396(20) 0.002525 284.4 90.1
373(19) 0.002681 284.5 87.0
397(20) 0.002519 284.6 84.1
394(20) 0.002538 284.6 81.3
402(20) 0.002488 284.7 78.6
380(19) 0.002632 284.8 76.2
365(19) 0.002740 284.9 73.8
353(19) 0.002833 284.9 71.7
367(19) 0.002725 285.0 69.7
358(19) 0.002793 285.1 67.8
349(19) 0.002865 285.2 66.1
335(18) 0.002985 285.2 64.6
370(19) 0.002703 285.3 63.2
350(19) 0.002857 285.4 62.0
356(19) 0.002809 285.4 60.9
333(18) 0.003003 285.5 60.0
342(18) 0.002924 285.6 59.2
348(19) 0.002874 285.7 58.5
311(18) 0.003215 285.7 58.0
354(19) 0.002825 285.8 57.7
344(19) 0.002907 285.9 57.4
358(19) 0.002793 286.0 57.4
364(19) 0.002747 286.0 57.4
377(19) 0.002653 286.1 57.6
347(19) 0.002882 286.2 57.8
363(19) 0.002755 286.3 58.2
311(18) 0.003215 286.3 58.7
340(18) 0.002941 286.4 59.3
337(18) 0.002967 286.5 59.9
327(18) 0.003058 286.5 60.6
333(18) 0.003003 286.6 61.4
354(19) 0.002825 286.7 62.2
339(18) 0.002950 286.8 63.0
342(18) 0.002924 286.8 63.9
369(19) 0.002710 286.9 64.7
353(19) 0.002833 287.0 65.6
330(18) 0.003030 287.1 66.5
351(19) 0.002849 287.1 67.4
347(19) 0.002882 287.2 68.3
327(18) 0.003058 287.3 69.2
357(19) 0.002801 287.4 70.2
376(19) 0.002660 287.4 71.1
375(19) 0.002667 287.5 72.1
356(19) 0.002809 287.6 73.2
303(17) 0.003300 287.6 74.3
354(19) 0.002825 287.7 75.4
353(19) 0.002833 287.8 76.6
342(18) 0.002924 287.9 77.9
362(19) 0.002762 287.9 79.2
374(19) 0.002674 288.0 80.5
373(19) 0.002681 288.1 82.0
352(19) 0.002841 288.2 83.4
376(19) 0.002660 288.2 84.9
378(19) 0.002646 288.3 86.5
348(19) 0.002874 288.4 88.0
366(19) 0.002732 288.5 89.6
406(20) 0.002463 288.5 91.2
418(20) 0.002392 288.6 92.8
393(20) 0.002545 288.7 94.3
382(20) 0.002618 288.7 95.9
398(20) 0.002513 288.8 97.4
411(20) 0.002433 288.9 98.8
446(21) 0.002242 289.0 100.2
424(21) 0.002358 289.0 101.5
412(20) 0.002427 289.1 102.8
433(21) 0.002309 289.2 103.9
422(21) 0.002370 289.3 104.9
395(20) 0.002532 289.3 105.8
421(21) 0.002375 289.4 106.6
439(21) 0.002278 289.5 107.3
407(20) 0.002457 289.6 107.9
409(20) 0.002445 289.6 108.3
411(20) 0.002433 289.7 108.7
386(20) 0.002591 289.8 108.9
433(21) 0.002309 289.8 109.1
405(20) 0.002469 289.9 109.1
413(20) 0.002421 290.0 109.2
383(20) 0.002611 290.1 109.1
353(19) 0.002833 290.1 109.1
380(19) 0.002632 290.2 109.1
391(20) 0.002558 290.3 109.2
408(20) 0.002451 290.4 109.5
391(20) 0.002558 290.4 109.9
408(20) 0.002451 290.5 110.6
389(20) 0.002571 290.6 111.8
429(21) 0.002331 290.7 113.5
401(20) 0.002494 290.7 115.8
387(20) 0.002584 290.8 118.8
380(19) 0.002632 290.9 122.7
398(20) 0.002513 290.9 127.4
441(21) 0.002268 291.0 133.0
454(21) 0.002203 291.1 139.4
488(22) 0.002049 291.2 146.4
528(23) 0.001894 291.2 153.5
482(22) 0.002075 291.3 160.1
524(23) 0.001908 291.4 165.4
471(22) 0.002123 291.5 168.4
491(22) 0.002037 291.5 168.6
478(22) 0.002092 291.6 165.8
513(23) 0.001949 291.7 160.6
456(21) 0.002193 291.8 154.0
453(21) 0.002208 291.8 146.9
448(21) 0.002232 291.9 139.9
452(21) 0.002212 292.0 133.8
421(21) 0.002375 292.0 128.8
442(21) 0.002262 292.1 125.1
424(21) 0.002358 292.2 122.7
443(21) 0.002257 292.3 121.8
488(22) 0.002049 292.3 122.4
463(22) 0.002160 292.4 124.2
435(21) 0.002299 292.5 127.3
450(21) 0.002222 292.6 131.4
462(21) 0.002164 292.6 136.3
479(22) 0.002088 292.7 141.7
467(22) 0.002141 292.8 147.2
498(22) 0.002008 292.9 152.7
487(22) 0.002053 292.9 157.7
493(22) 0.002028 293.0 162.1
491(22) 0.002037 293.1 165.5
506(22) 0.001976 293.1 167.5
509(23) 0.001965 293.2 167.8
484(22) 0.002066 293.3 166.3
512(23) 0.001953 293.4 163.4
480(22) 0.002083 293.4 159.5
489(22) 0.002045 293.5 155.1
480(22) 0.002083 293.6 150.7
473(22) 0.002114 293.7 146.5
479(22) 0.002088 293.7 142.8
425(21) 0.002353 293.8 139.8
418(20) 0.002392 293.9 137.6
417(20) 0.002398 294.0 136.0
449(21) 0.002227 294.0 135.2
428(21) 0.002336 294.1 134.9
427(21) 0.002342 294.2 135.1
433(21) 0.002309 294.2 135.7
429(21) 0.002331 294.3 136.4
436(21) 0.002294 294.4 137.2
419(20) 0.002387 294.5 137.9
407(20) 0.002457 294.5 138.4
435(21) 0.002299 294.6 138.8
417(20) 0.002398 294.7 139.2
427(21) 0.002342 294.8 139.5
436(21) 0.002294 294.8 139.8
438(21) 0.002283 294.9 140.2
422(21) 0.002370 295.0 140.7
432(21) 0.002315 295.1 141.3
462(21) 0.002164 295.1 142.0
445(21) 0.002247 295.2 142.9
405(20) 0.002469 295.3 143.9
413(20) 0.002421 295.3 144.9
411(20) 0.002433 295.4 146.0
430(21) 0.002326 295.5 147.0
407(20) 0.002457 295.6 148.0
413(20) 0.002421 295.6 148.8
390(20) 0.002564 295.7 149.5
413(20) 0.002421 295.8 150.0
404(20) 0.002475 295.9 150.2
420(20) 0.002381 295.9 150.2
416(20) 0.002404 296.0 149.8
445(21) 0.002247 296.1 149.1
451(21) 0.002217 296.2 148.0
413(20) 0.002421 296.2 146.6
388(20) 0.002577 296.3 145.0
432(21) 0.002315 296.4 143.1
465(22) 0.002151 296.4 141.2
398(20) 0.002513 296.5 139.3
401(20) 0.002494 296.6 137.4
445(21) 0.002247 296.7 135.8
405(20) 0.002469 296.7 134.4
435(21) 0.002299 296.8 133.3
411(20) 0.002433 296.9 132.6
445(21) 0.002247 297.0 132.3
429(21) 0.002331 297.0 132.4
431(21) 0.002320 297.1 133.0
460(21) 0.002174 297.2 134.2
447(21) 0.002237 297.2 135.9
440(21) 0.002273 297.3 138.5
483(22) 0.002070 297.4 142.1
504(22) 0.001984 297.5 147.0
506(22) 0.001976 297.5 154.0
535(23) 0.001869 297.6 163.4
533(23) 0.001876 297.7 175.9
551(23) 0.001815 297.8 191.6
606(25) 0.001650 297.8 209.5
657(26) 0.001522 297.9 226.5
635(25) 0.001575 298.0 236.7
652(26) 0.001534 298.1 234.7
622(25) 0.001608 298.1 221.2
561(24) 0.001783 298.2 202.5
602(25) 0.001661 298.3 183.8
569(24) 0.001757 298.3 167.5
544(23) 0.001838 298.4 154.5
552(23) 0.001812 298.5 144.4
475(22) 0.002105 298.6 137.1
461(21) 0.002169 298.6 132.0
510(23) 0.001961 298.7 128.7
467(22) 0.002141 298.8 127.1
462(21) 0.002164 298.9 126.8
491(22) 0.002037 298.9 127.8
459(21) 0.002179 299.0 130.0
473(22) 0.002114 299.1 133.2
470(22) 0.002128 299.2 137.4
488(22) 0.002049 299.2 142.2
474(22) 0.002110 299.3 147.7
449(21) 0.002227 299.4 153.4
496(22) 0.002016 299.4 159.3
499(22) 0.002004 299.5 165.0
509(23) 0.001965 299.6 170.5
574(24) 0.001742 299.7 175.6
545(23) 0.001835 299.7 180.4
567(24) 0.001764 299.8 185.0
564(24) 0.001773 299.9 189.5
546(23) 0.001832 300.0 193.8
547(23) 0.001828 300.0 198.1
531(23) 0.001883 300.1 202.1
533(23) 0.001876 300.2 205.8
544(23) 0.001838 300.3 209.1
542(23) 0.001845 300.3 212.0
517(23) 0.001934 300.4 214.3
512(23) 0.001953 300.5 216.2
539(23) 0.001855 300.5 217.8
533(23) 0.001876 300.6 219.2
531(23) 0.001883 300.7 220.5
502(22) 0.001992 300.8 221.6
540(23) 0.001852 300.8 222.5
552(23) 0.001812 300.9 223.2
540(23) 0.001852 301.0 223.5
558(24) 0.001792 301.1 223.3
533(23) 0.001876 301.1 222.6
498(22) 0.002008 301.2 221.3
499(22) 0.002004 301.3 219.5
520(23) 0.001923 301.4 217.2
548(23) 0.001825 301.4 214.3
541(23) 0.001848 301.5 210.9
508(23) 0.001968 301.6 206.8
515(23) 0.001942 301.6 202.1
486(22) 0.002058 301.7 196.7
484(22) 0.002066 301.8 190.6
503(22) 0.001988 301.9 183.9
443(21) 0.002257 301.9 176.6
475(22) 0.002105 302.0 168.9
454(21) 0.002203 302.1 160.9
439(21) 0.002278 302.2 152.7
438(21) 0.002283 302.2 144.5
386(20) 0.002591 302.3 136.4
441(21) 0.002268 302.4 128.4
414(20) 0.002415 302.5 120.8
368(19) 0.002717 302.5 113.5
389(20) 0.002571 302.6 106.5
395(20) 0.002532 302.7 100.1
357(19) 0.002801 302.7 94.1
370(19) 0.002703 302.8 88.6
343(19) 0.002915 302.9 83.6
367(19) 0.002725 303.0 79.2
332(18) 0.003012 303.0 75.3
348(19) 0.002874 303.1 72.0
355(19) 0.002817 303.2 69.3
389(20) 0.002571 303.3 67.1
377(19) 0.002653 303.3 65.4
335(18) 0.002985 303.4 64.2
327(18) 0.003058 303.5 63.5
338(18) 0.002959 303.6 63.2
355(19) 0.002817 303.6 63.3
318(18) 0.003145 303.7 63.7
318(18) 0.003145 303.8 64.2
333(18) 0.003003 303.8 64.9
350(19) 0.002857 303.9 65.5
321(18) 0.003115 304.0 65.9
338(18) 0.002959 304.1 66.0
357(19) 0.002801 304.1 65.6
325(18) 0.003077 304.2 64.7
351(19) 0.002849 304.3 63.4
310(18) 0.003226 304.4 61.5
304(17) 0.003289 304.4 59.3
346(19) 0.002890 304.5 56.8
298(17) 0.003356 304.6 54.2
325(18) 0.003077 304.7 51.6
326(18) 0.003067 304.7 48.9
317(18) 0.003155 304.8 46.4
307(18) 0.003257 304.9 44.0
299(17) 0.003344 304.9 41.8
297(17) 0.003367 305.0 39.8
311(18) 0.003215 305.1 37.9
313(18) 0.003195 304.5 36.3
275(17) 0.00364 302.0 34.8
316(18) 0.003165 299.5 33.5
314(18) 0.003185 297.0 32.4
313(18) 0.003195 294.5 31.4
306(17) 0.003268 291.9 30.5
312(18) 0.003205 289.4 29.8
313(18) 0.003195 289.5 29.1
301(17) 0.003322 289.7 28.5
285(17) 0.00351 289.8 28.1
324(18) 0.003086 289.9 27.7
302(17) 0.003311 290.0 27.4
312(18) 0.003205 290.2 27.1
298(17) 0.003356 290.3 26.9
306(17) 0.003268 290.4 26.8
298(17) 0.003356 290.5 26.7
281(17) 0.00356 290.6 26.7
294(17) 0.003401 290.8 26.8
339(18) 0.002950 290.9 26.9
325(18) 0.003077 291.0 27.1
328(18) 0.003049 291.1 27.3
340(18) 0.002941 291.3 27.7
302(17) 0.003311 291.4 28.1
324(18) 0.003086 291.5 28.6
305(17) 0.003279 291.6 29.2
306(17) 0.003268 291.7 29.9
335(18) 0.002985 291.9 30.7
337(18) 0.002967 292.0 31.7
315(18) 0.003175 292.1 32.8
330(18) 0.003030 292.2 34.1
339(18) 0.002950 292.4 35.6
356(19) 0.002809 292.5 37.3
390(20) 0.002564 292.6 39.3
320(18) 0.003125 292.7 41.5
374(19) 0.002674 292.8 44.0
352(19) 0.002841 293.0 46.9
326(18) 0.003067 293.1 50.1
353(19) 0.002833 293.2 53.7
347(19) 0.002882 293.3 57.7
380(19) 0.002632 293.5 62.2
349(19) 0.002865 293.6 67.2
364(19) 0.002747 293.7 72.7
371(19) 0.002695 293.8 78.7
390(20) 0.002564 293.9 85.3
380(19) 0.002632 294.1 92.4
387(20) 0.002584 294.2 100.0
426(21) 0.002347 294.3 108.2
455(21) 0.002198 294.4 117.0
430(21) 0.002326 294.6 126.2
416(20) 0.002404 294.7 135.8
454(21) 0.002203 294.8 145.9
488(22) 0.002049 294.9 156.2
528(23) 0.001894 295.0 166.6
506(22) 0.001976 295.2 177.1
504(22) 0.001984 295.3 187.5
552(23) 0.001812 295.4 197.5
568(24) 0.001761 295.5 206.9
556(24) 0.001799 295.7 215.6
566(24) 0.001767 295.8 223.1
572(24) 0.001748 295.9 229.3
563(24) 0.001776 296.0 234.0
548(23) 0.001825 296.1 236.8
557(24) 0.001795 296.3 237.8
525(23) 0.001905 296.4 236.9
516(23) 0.001938 296.5 234.0
550(23) 0.001818 296.6 229.4
472(22) 0.002119 296.8 223.3
512(23) 0.001953 296.9 215.8
475(22) 0.002105 297.0 207.2
495(22) 0.002020 297.1 197.8
517(23) 0.001934 297.2 187.9
431(21) 0.002320 297.4 177.6
430(21) 0.002326 297.5 167.2
451(21) 0.002217 297.6 156.8
433(21) 0.002309 297.7 146.6
425(21) 0.002353 297.9 136.7
427(21) 0.002342 298.0 127.1
403(20) 0.002481 298.1 118.0
412(20) 0.002427 298.2 109.4
420(20) 0.002381 298.3 101.3
380(19) 0.002632 298.5 93.8
353(19) 0.002833 298.6 86.8
370(19) 0.002703 298.7 80.4
374(19) 0.002674 298.8 74.5
359(19) 0.002786 299.0 69.2
372(19) 0.002688 299.1 64.5
380(19) 0.002632 299.2 60.2
385(20) 0.002597 299.3 56.4
373(19) 0.002681 299.4 53.1
362(19) 0.002762 299.6 50.1
353(19) 0.002833 299.7 47.6
384(20) 0.002604 299.8 45.5
379(19) 0.002639 299.9 43.7
350(19) 0.002857 300.1 42.2
374(19) 0.002674 300.2 41.1
356(19) 0.002809 300.3 40.2
356(19) 0.002809 300.4 39.5
366(19) 0.002732 300.5 39.2
327(18) 0.003058 300.7 39.0
349(19) 0.002865 300.8 39.1
381(20) 0.002625 300.9 39.4
348(19) 0.002874 301.0 40.0
338(18) 0.002959 301.2 40.7
355(19) 0.002817 301.3 41.6
335(18) 0.002985 301.4 42.8
361(19) 0.002770 301.5 44.1
339(18) 0.002950 301.6 45.6
367(19) 0.002725 301.8 47.2
391(20) 0.002558 301.9 49.0
369(19) 0.002710 302.0 51.0
360(19) 0.002778 302.1 53.1
371(19) 0.002695 302.3 55.3
373(19) 0.002681 302.4 57.5
370(19) 0.002703 302.5 59.9
361(19) 0.002770 302.6 62.2
378(19) 0.002646 302.7 64.5
420(20) 0.002381 302.9 66.8
368(19) 0.002717 303.0 68.9
419(20) 0.002387 303.1 70.8
412(20) 0.002427 303.2 72.4
395(20) 0.002532 303.4 73.8
404(20) 0.002475 303.5 74.8
415(20) 0.002410 303.6 75.4
400(20) 0.002500 303.7 75.6
414(20) 0.002415 303.8 75.3
372(19) 0.002688 304.0 74.7
407(20) 0.002457 304.1 73.8
397(20) 0.002519 304.2 72.6
419(20) 0.002387 304.3 71.2
394(20) 0.002538 304.5 69.6
382(20) 0.002618 304.6 67.9
407(20) 0.002457 304.7 66.3
414(20) 0.002415 304.8 64.8
334(18) 0.002994 304.9 63.3
391(20) 0.002558 305.1 62.1
363(19) 0.002755 305.2 61.2
366(19) 0.002732 305.3 60.5
389(20) 0.002571 305.4 60.2
385(20) 0.002597 305.6 60.2
352(19) 0.002841 305.7 60.7
375(19) 0.002667 305.8 61.6
386(20) 0.002591 305.9 62.9
388(20) 0.002577 306.0 64.7
364(19) 0.002747 306.2 67.0
393(20) 0.002545 306.3 69.8
397(20) 0.002519 306.4 72.9
397(20) 0.002519 306.5 76.5
386(20) 0.002591 306.6 80.4
388(20) 0.002577 306.8 84.5
391(20) 0.002558 306.9 88.9
423(21) 0.002364 307.0 93.2
404(20) 0.002475 307.1 97.5
391(20) 0.002558 307.3 101.4
398(20) 0.002513 307.4 104.9
416(20) 0.002404 307.5 107.8
426(21) 0.002347 307.6 109.9
416(20) 0.002404 307.7 111.1
380(19) 0.002632 307.9 111.4
426(21) 0.002347 308.0 110.9
439(21) 0.002278 308.1 109.6
438(21) 0.002283 308.2 107.8
434(21) 0.002304 308.4 105.6
437(21) 0.002288 308.5 103.2
423(21) 0.002364 308.6 100.7
446(21) 0.002242 308.7 98.3
414(20) 0.002415 308.8 96.1
413(20) 0.002421 309.0 94.1
435(21) 0.002299 309.1 92.5
414(20) 0.002415 309.2 91.2
432(21) 0.002315 309.3 90.3
428(21) 0.002336 309.5 89.8
431(21) 0.002320 309.6 89.6
433(21) 0.002309 309.7 89.9
442(21) 0.002262 309.8 90.5
415(20) 0.002410 309.9 91.3
440(21) 0.002273 310.1 92.5
448(21) 0.002232 310.2 93.8
480(22) 0.002083 310.3 95.3
450(21) 0.002222 310.4 96.9
463(22) 0.002160 310.6 98.6
476(22) 0.002101 310.7 100.2
450(21) 0.002222 310.8 101.8
469(22) 0.002132 310.9 103.2
470(22) 0.002128 311.0 104.4
472(22) 0.002119 311.2 105.3
442(21) 0.002262 311.3 106.0
449(21) 0.002227 311.4 106.3
464(22) 0.002155 311.5 106.3
444(21) 0.002252 311.7 105.9
401(20) 0.002494 311.8 105.2
444(21) 0.002252 311.9 104.1
426(21) 0.002347 312.0 102.7
407(20) 0.002457 312.1 101.0
453(21) 0.002208 312.3 99.0
377(19) 0.002653 312.4 96.9
435(21) 0.002299 312.5 94.5
371(19) 0.002695 312.6 92.0
392(20) 0.002551 312.8 89.4
408(20) 0.002451 312.9 86.7
384(20) 0.002604 313.0 84.0
394(20) 0.002538 313.1 81.3
358(19) 0.002793 313.2 78.6
340(18) 0.002941 313.4 76.0
334(18) 0.002994 313.5 73.4
375(19) 0.002667 313.6 70.8
333(18) 0.003003 313.7 68.3
381(20) 0.002625 313.9 66.0
325(18) 0.003077 314.0 63.7
375(19) 0.002667 314.1 61.6
339(18) 0.002950 314.2 59.6
348(19) 0.002874 314.3 57.7
320(18) 0.003125 314.5 56.0
319(18) 0.003135 314.6 54.5
312(18) 0.003205 314.7 53.1
352(19) 0.002841 314.8 51.9
322(18) 0.003106 315.0 50.9
351(19) 0.002849 315.1 50.1
331(18) 0.003021 315.2 49.5
348(19) 0.002874 315.3 49.1
331(18) 0.003021 315.4 48.9
333(18) 0.003003 315.6 48.9
308(18) 0.003247 315.7 49.1
327(18) 0.003058 315.8 49.5
338(18) 0.002959 315.9 50.1
344(19) 0.002907 316.1 50.9
368(19) 0.002717 316.2 51.9
325(18) 0.003077 316.3 53.0
368(19) 0.002717 316.4 54.4
337(18) 0.002967 316.5 55.9
361(19) 0.002770 316.7 57.6
335(18) 0.002985 316.8 59.4
361(19) 0.002770 316.9 61.4
380(19) 0.002632 317.0 63.4
365(19) 0.002740 317.2 65.7
369(19) 0.002710 317.3 67.9
384(20) 0.002604 317.4 70.3
400(20) 0.002500 317.5 72.7
362(19) 0.002762 317.6 75.2
387(20) 0.002584 317.8 77.7
403(20) 0.002481 317.9 80.1
365(19) 0.002740 318.0 82.5
407(20) 0.002457 318.1 84.8
413(20) 0.002421 318.3 87.0
415(20) 0.002410 318.4 89.1
404(20) 0.002475 318.5 91.0
397(20) 0.002519 318.6 92.7
434(21) 0.002304 318.7 94.1
411(20) 0.002433 318.9 95.4
421(21) 0.002375 319.0 96.4
443(21) 0.002257 319.1 97.1
420(20) 0.002381 319.2 97.6
419(20) 0.002387 319.4 97.7
457(21) 0.002188 319.5 97.7
440(21) 0.002273 319.6 97.4
417(20) 0.002398 319.7 96.8
437(21) 0.002288 319.8 96.1
408(20) 0.002451 320.0 95.1
472(22) 0.002119 320.1 94.0
426(21) 0.002347 320.2 92.7
420(20) 0.002381 320.3 91.2
399(20) 0.002506 320.5 89.6
387(20) 0.002584 320.6 87.9
456(21) 0.002193 320.7 86.1
389(20) 0.002571 320.8 84.1
428(21) 0.002336 320.9 82.1
433(21) 0.002309 321.1 80.0
394(20) 0.002538 321.2 77.8
408(20) 0.002451 321.3 75.6
375(19) 0.002667 321.4 73.4
399(20) 0.002506 321.6 71.2
410(20) 0.002439 321.7 68.9
401(20) 0.002494 321.8 66.7
411(20) 0.002433 321.9 64.5
374(19) 0.002674 322.0 62.4
374(19) 0.002674 322.2 60.3
374(19) 0.002674 322.3 58.3
409(20) 0.002445 322.4 56.3
370(19) 0.002703 322.5 54.4
404(20) 0.002475 322.7 52.6
385(20) 0.002597 322.8 50.9
369(19) 0.002710 322.9 49.2
357(19) 0.002801 323.0 47.7
364(19) 0.002747 323.1 46.2
359(19) 0.002786 323.3 44.8
393(20) 0.002545 323.4 43.6
335(18) 0.002985 323.5 42.4
366(19) 0.002732 323.6 41.2
349(19) 0.002865 323.8 40.2
367(19) 0.002725 323.9 39.3
346(19) 0.002890 324.0 38.4
362(19) 0.002762 324.1 37.6
342(18) 0.002924 324.2 37.0
353(19) 0.002833 324.4 36.3
309(18) 0.003236 324.5 35.8
317(18) 0.003155 324.6 35.3
311(18) 0.003215 324.7 34.8
340(18) 0.002941 324.9 34.5
334(18) 0.002994 325.0 34.1
340(18) 0.002941 325.1 33.9
300(17) 0.003333 325.2 33.7
319(18) 0.003135 325.3 33.5
323(18) 0.003096 325.5 33.4
324(18) 0.003086 325.6 33.3
332(18) 0.003012 325.7 33.3
330(18) 0.003030 325.8 33.3
321(18) 0.003115 326.0 33.3
341(18) 0.002933 326.1 33.4
327(18) 0.003058 326.2 33.6
313(18) 0.003195 326.3 33.7
312(18) 0.003205 326.4 33.9
331(18) 0.003021 326.6 34.2
340(18) 0.002941 326.7 34.5
336(18) 0.002976 326.8 34.8
346(19) 0.002890 326.9 35.2
296(17) 0.003378 327.1 35.7
314(18) 0.003185 327.2 36.2
305(17) 0.003279 322.1 36.7
324(18) 0.003086 311.8 37.3
337(18) 0.002967 304.1 37.9
361(19) 0.002770 304.2 38.6
333(18) 0.003003 304.2 39.4
315(18) 0.003175 304.3 40.2
323(18) 0.003096 304.4 41.1
334(18) 0.002994 304.4 42.0
278(17) 0.00360 304.5 43.0
320(18) 0.003125 304.5 44.1
285(17) 0.00351 304.6 45.2
312(18) 0.003205 304.6 46.3
343(19) 0.002915 304.7 47.5
322(18) 0.003106 304.8 48.8
356(19) 0.002809 304.8 50.1
331(18) 0.003021 304.9 51.5
311(18) 0.003215 304.9 52.9
316(18) 0.003165 305.0 54.3
344(19) 0.002907 305.0 55.8
326(18) 0.003067 305.1 57.4
352(19) 0.002841 305.1 58.9
362(19) 0.002762 305.2 60.6
328(18) 0.003049 305.3 62.2
317(18) 0.003155 305.3 64.0
338(18) 0.002959 305.4 65.7
360(19) 0.002778 305.4 67.6
331(18) 0.003021 305.5 69.4
357(19) 0.002801 305.5 71.3
352(19) 0.002841 305.6 73.3
361(19) 0.002770 305.7 75.3
367(19) 0.002725 305.7 77.4
364(19) 0.002747 305.8 79.5
372(19) 0.002688 305.8 81.6
380(19) 0.002632 305.9 83.8
327(18) 0.003058 305.9 86.1
363(19) 0.002755 306.0 88.3
364(19) 0.002747 306.0 90.7
370(19) 0.002703 306.1 93.0
373(19) 0.002681 306.2 95.5
382(20) 0.002618 306.2 97.9
387(20) 0.002584 306.3 100.4
381(20) 0.002625 306.3 102.9
407(20) 0.002457 306.4 105.5
403(20) 0.002481 306.4 108.2
401(20) 0.002494 306.5 111.0
407(20) 0.002457 306.6 113.8
421(21) 0.002375 306.6 116.9
404(20) 0.002475 306.7 120.3
452(21) 0.002212 306.7 124.1
438(21) 0.002283 306.8 128.7
418(20) 0.002392 306.8 134.4
452(21) 0.002212 306.9 141.8
479(22) 0.002088 306.9 151.6
453(21) 0.002208 307.0 164.7
460(21) 0.002174 307.1 181.6
517(23) 0.001934 307.1 202.8
515(23) 0.001942 307.2 227.7
538(23) 0.001859 307.2 254.6
548(23) 0.001825 307.3 279.5
553(24) 0.001808 307.3 295.7
530(23) 0.001887 307.4 296.8
550(23) 0.001818 307.5 282.1
531(23) 0.001883 307.5 256.9
474(22) 0.002110 307.6 228.2
515(23) 0.001942 307.6 200.9
468(22) 0.002137 307.7 177.1
455(21) 0.002198 307.7 157.6
458(21) 0.002183 307.8 142.1
432(21) 0.002315 307.8 130.2
421(21) 0.002375 307.9 120.9
436(21) 0.002294 308.0 113.7
373(19) 0.002681 308.0 107.8
365(19) 0.002740 308.1 102.8
379(19) 0.002639 308.1 98.5
382(20) 0.002618 308.2 94.6
393(20) 0.002545 308.2 91.0
374(19) 0.002674 308.3 87.6
375(19) 0.002667 308.4 84.4
383(20) 0.002611 308.4 81.4
346(19) 0.002890 308.5 78.5
339(18) 0.002950 308.5 75.7
351(19) 0.002849 308.6 73.0
350(19) 0.002857 308.6 70.4
309(18) 0.003236 308.7 68.0
325(18) 0.003077 308.7 65.6
339(18) 0.002950 308.8 63.3
310(18) 0.003226 308.9 61.1
347(19) 0.002882 308.9 59.0
322(18) 0.003106 309.0 56.9
307(18) 0.003257 309.0 55.0
320(18) 0.003125 309.1 53.1
290(17) 0.003448 309.1 51.3
283(17) 0.00353 309.2 49.6
319(18) 0.003135 309.3 48.0
315(18) 0.003175 309.3 46.4
328(18) 0.003049 309.4 44.9
311(18) 0.003215 309.4 43.5
302(17) 0.003311 309.5 42.2
319(18) 0.003135 309.5 40.9
289(17) 0.003460 309.6 39.7
305(17) 0.003279 309.6 38.6
305(17) 0.003279 309.7 37.5
328(18) 0.003049 309.8 36.5
285(17) 0.00351 309.8 35.6
320(18) 0.003125 309.9 34.8
296(17) 0.003378 309.9 34.0
294(17) 0.003401 310.0 33.2
290(17) 0.003448 310.0 32.5
292(17) 0.003425 310.1 31.9
341(18) 0.002933 310.2 31.4
303(17) 0.003300 310.2 30.8
308(18) 0.003247 310.3 30.4
270(16) 0.00370 310.3 30.0
298(17) 0.003356 310.4 29.6
297(17) 0.003367 310.4 29.2
326(18) 0.003067 310.5 29.0
298(17) 0.003356 310.5 28.7
333(18) 0.003003 310.6 28.5
280(17) 0.00357 310.7 28.4
329(18) 0.003039 310.7 28.2
292(17) 0.003425 310.8 28.2
297(17) 0.003367 310.8 28.1
318(18) 0.003145 310.9 28.1
331(18) 0.003021 310.9 28.1
295(17) 0.003390 311.0 28.2
314(18) 0.003185 311.1 28.3
316(18) 0.003165 311.1 28.5
331(18) 0.003021 311.2 28.7
306(17) 0.003268 311.2 28.9
310(18) 0.003226 311.3 29.2
297(17) 0.003367 311.3 29.6
315(18) 0.003175 311.4 30.0
289(17) 0.003460 311.4 30.5
313(18) 0.003195 311.5 31.1
329(18) 0.003039 311.6 31.8
299(17) 0.003344 311.6 32.6
330(18) 0.003030 311.7 33.6
328(18) 0.003049 311.7 34.8
358(19) 0.002793 311.8 36.3
377(19) 0.002653 311.8 38.1
330(18) 0.003030 311.9 40.4
341(18) 0.002933 312.0 43.5
411(20) 0.002433 312.0 47.7
388(20) 0.002577 312.1 53.6
415(20) 0.002410 312.1 61.8
417(20) 0.002398 312.2 73.2
441(21) 0.002268 312.2 88.5
450(21) 0.002222 312.3 108.1
464(22) 0.002155 312.3 131.4
500(22) 0.002000 312.4 156.1
491(22) 0.002037 312.5 177.0
502(22) 0.001992 312.5 188.3
525(23) 0.001905 312.6 188.9
477(22) 0.002096 312.6 183.6
474(22) 0.002110 312.7 177.5
488(22) 0.002049 312.7 173.1
512(23) 0.001953 312.8 169.9
468(22) 0.002137 312.9 166.3
484(22) 0.002066 312.9 160.4
457(21) 0.002188 313.0 151.2
440(21) 0.002273 313.0 139.0
450(21) 0.002222 313.1 125.2
447(21) 0.002237 313.1 110.8
413(20) 0.002421 313.2 97.1
366(19) 0.002732 313.2 84.5
377(19) 0.002653 313.3 73.5
352(19) 0.002841 313.4 64.1
366(19) 0.002732 313.4 56.3
355(19) 0.002817 313.5 49.9
313(18) 0.003195 313.5 44.8
357(19) 0.002801 313.6 40.8
311(18) 0.003215 313.6 37.6
316(18) 0.003165 313.7 35.1
315(18) 0.003175 313.8 33.1
338(18) 0.002959 313.8 31.5
343(19) 0.002915 313.9 30.2
306(17) 0.003268 313.9 29.1
305(17) 0.003279 314.0 28.2
326(18) 0.003067 314.0 27.3
345(19) 0.002899 314.1 26.6
297(17) 0.003367 314.2 26.0
330(18) 0.003030 314.2 25.4
335(18) 0.002985 314.3 24.8
306(17) 0.003268 314.3 24.4
288(17) 0.003472 314.4 23.9
318(18) 0.003145 314.4 23.5
317(18) 0.003155 314.5 23.2
307(18) 0.003257 314.5 22.9
307(18) 0.003257 314.6 22.6
331(18) 0.003021 314.7 22.3
310(18) 0.003226 314.7 22.1
364(19) 0.002747 314.8 21.9
343(19) 0.002915 314.8 21.8
357(19) 0.002801 314.9 21.8
341(18) 0.002933 314.9 21.9
334(18) 0.002994 315.0 22.3
347(19) 0.002882 315.1 22.9
324(18) 0.003086 315.1 23.8
334(18) 0.002994 315.2 25.0
333(18) 0.003003 315.2 26.3
366(19) 0.002732 315.3 27.1
342(18) 0.002924 315.3 26.9
339(18) 0.002950 315.4 25.9
340(18) 0.002941 315.4 24.6
310(18) 0.003226 315.5 23.6
346(19) 0.002890 315.6 22.9
325(18) 0.003077 315.6 22.6
328(18) 0.003049 315.7 22.7
300(17) 0.003333 315.7 23.0
321(18) 0.003115 315.8 23.5
339(18) 0.002950 315.8 24.1
331(18) 0.003021 315.9 24.8
356(19) 0.002809 316.0 25.4
339(18) 0.002950 316.0 25.8
346(19) 0.002890 316.1 26.0
342(18) 0.002924 316.1 25.8
333(18) 0.003003 316.2 25.4
324(18) 0.003086 315.1 24.7
338(18) 0.002959 313.6 23.8
322(18) 0.003106 312.2 22.9
304(17) 0.003289 310.7 22.0
304(17) 0.003289 309.2 21.2
320(18) 0.003125 307.8 20.5
312(18) 0.003205 306.3 19.8
312(18) 0.003205 304.8 19.3
323(18) 0.003096 303.4 19.0
302(17) 0.003311 301.9 18.7
285(17) 0.00351 300.4 18.5
298(17) 0.003356 299.0 18.4
303(17) 0.003300 298.6 18.3
304(17) 0.003289 298.6 18.3
330(18) 0.003030 298.7 18.4
291(17) 0.003436 298.7 18.5
311(18) 0.003215 298.7 18.6
318(18) 0.003145 298.7 18.8
296(17) 0.003378 298.7 19.0
310(18) 0.003226 298.7 19.3
293(17) 0.003413 298.7 19.5
325(18) 0.003077 298.8 19.9
307(18) 0.003257 298.8 20.2
320(18) 0.003125 298.8 20.6
302(17) 0.003311 298.8 21.0
321(18) 0.003115 298.8 21.5
312(18) 0.003205 298.8 22.0
329(18) 0.003039 298.9 22.5
324(18) 0.003086 298.9 23.1
312(18) 0.003205 298.9 23.7
299(17) 0.003344 298.9 24.4
305(17) 0.003279 298.9 25.2
315(18) 0.003175 298.9 26.1
313(18) 0.003195 298.9 27.1
324(18) 0.003086 299.0 28.1
322(18) 0.003106 299.0 29.3
343(19) 0.002915 299.0 30.7
308(18) 0.003247 299.0 32.3
302(17) 0.003311 299.0 34.0
305(17) 0.003279 299.0 36.0
306(17) 0.003268 299.1 38.3
325(18) 0.003077 299.1 40.9
327(18) 0.003058 299.1 43.7
326(18) 0.003067 299.1 46.9
333(18) 0.003003 299.1 50.4
347(19) 0.002882 299.1 54.1
348(19) 0.002874 299.1 58.0
345(19) 0.002899 299.2 62.0
349(19) 0.002865 299.2 66.0
361(19) 0.002770 299.2 69.7
360(19) 0.002778 299.2 72.8
360(19) 0.002778 299.2 75.1
361(19) 0.002770 299.2 76.6
359(19) 0.002786 299.3 77.1
377(19) 0.002653 299.3 76.7
330(18) 0.003030 299.3 75.7
341(18) 0.002933 299.3 74.3
334(18) 0.002994 299.3 72.7
358(19) 0.002793 299.3 71.0
321(18) 0.003115 299.4 69.3
315(18) 0.003175 299.4 67.9
331(18) 0.003021 299.4 66.8
324(18) 0.003086 299.4 66.0
332(18) 0.003012 299.4 65.5
350(19) 0.002857 299.4 65.4
375(19) 0.002667 299.4 65.6
401(20) 0.002494 299.5 66.2
382(20) 0.002618 299.5 67.1
395(20) 0.002532 299.5 68.1
371(19) 0.002695 299.5 69.2
395(20) 0.002532 299.5 70.3
361(19) 0.002770 299.5 71.2
379(19) 0.002639 299.6 72.1
357(19) 0.002801 299.6 72.7
340(18) 0.002941 299.6 73.3
357(19) 0.002801 299.6 73.8
355(19) 0.002817 299.6 74.3
347(19) 0.002882 299.6 74.7
369(19) 0.002710 299.6 75.1
363(19) 0.002755 299.7 75.5
327(18) 0.003058 299.7 75.8
321(18) 0.003115 299.7 75.9
335(18) 0.002985 299.7 75.9
325(18) 0.003077 299.7 75.7
340(18) 0.002941 299.7 75.2
325(18) 0.003077 299.8 74.4
321(18) 0.003115 299.8 73.3
353(19) 0.002833 299.8 71.9
319(18) 0.003135 299.8 70.3
319(18) 0.003135 299.8 68.5
308(18) 0.003247 299.8 66.7
338(18) 0.002959 299.8 64.8
293(17) 0.003413 299.9 63.0
302(17) 0.003311 299.9 61.2
329(18) 0.003039 299.9 59.6
341(18) 0.002933 299.9 58.1
319(18) 0.003135 299.9 56.6
313(18) 0.003195 299.9 55.4
307(18) 0.003257 300.0 54.3
317(18) 0.003155 300.0 53.2
283(17) 0.00353 300.0 52.4
311(18) 0.003215 300.0 51.6
321(18) 0.003115 300.0 50.9
279(17) 0.00358 300.0 50.3
317(18) 0.003155 300.1 49.8
332(18) 0.003012 300.1 49.4
293(17) 0.003413 300.1 49.0
319(18) 0.003135 300.1 48.6
298(17) 0.003356 300.1 48.3
306(17) 0.003268 300.1 48.0
300(17) 0.003333 300.1 47.7
313(18) 0.003195 300.2 47.5
322(18) 0.003106 300.2 47.2
296(17) 0.003378 300.2 47.0
271(16) 0.00369 300.2 46.7
274(17) 0.00365 300.2 46.4
306(17) 0.003268 300.2 46.2
286(17) 0.003497 300.3 45.9
320(18) 0.003125 300.3 45.6
306(17) 0.003268 300.3 45.3
287(17) 0.003484 300.3 45.0
306(17) 0.003268 300.3 44.7
281(17) 0.00356 300.3 44.4
300(17) 0.003333 300.3 44.1
328(18) 0.003049 300.4 43.7
297(17) 0.003367 300.4 43.4
292(17) 0.003425 300.4 43.0
255(16) 0.00392 300.4 42.7
289(17) 0.003460 299.8 42.3
286(17) 0.003497 297.2 42.0
310(18) 0.003226 294.5 41.6
272(16) 0.00368 291.9 41.3
277(17) 0.00361 289.3 40.9
323(18) 0.003096 286.7 40.6
286(17) 0.003497 284.1 40.3
294(17) 0.003401 281.5 40.0
288(17) 0.003472 278.9 39.7
291(17) 0.003436 276.3 39.5
287(17) 0.003484 273.7 39.2
264(16) 0.00379 271.1 39.1
275(17) 0.00364 271.4 38.9
264(16) 0.00379 271.7 38.8
312(18) 0.003205 272.0 38.8
297(17) 0.003367 272.3 38.8
307(18) 0.003257 272.6 39.0
252(16) 0.00397 272.9 39.2
305(17) 0.003279 273.2 39.5
273(17) 0.00366 273.5 40.1
265(16) 0.00377 273.9 40.8
300(17) 0.003333 274.2 41.7
289(17) 0.003460 274.5 43.0
285(17) 0.00351 274.8 44.7
290(17) 0.003448 275.1 46.8
300(17) 0.003333 275.4 49.5
310(18) 0.003226 275.7 52.9
315(18) 0.003175 276.0 56.9
318(18) 0.003145 276.4 61.5
311(18) 0.003215 276.7 66.8
310(18) 0.003226 277.0 72.6
320(18) 0.003125 277.3 78.5
311(18) 0.003215 277.6 84.0
343(19) 0.002915 277.9 88.4
346(19) 0.002890 278.2 91.1
358(19) 0.002793 278.5 91.6
353(19) 0.002833 278.8 90.1
337(18) 0.002967 279.2 87.3
331(18) 0.003021 279.5 83.9
349(19) 0.002865 279.8 80.6
333(18) 0.003003 280.1 77.9
330(18) 0.003030 280.4 76.0
353(19) 0.002833 280.7 75.2
322(18) 0.003106 281.0 75.3
312(18) 0.003205 281.3 76.5
341(18) 0.002933 281.7 78.4
359(19) 0.002786 282.0 80.6
346(19) 0.002890 282.3 82.6
332(18) 0.003012 282.6 83.9
338(18) 0.002959 282.9 84.1
362(19) 0.002762 283.2 83.5
334(18) 0.002994 283.5 82.5
361(19) 0.002770 283.8 81.4
392(20) 0.002551 284.2 80.6
335(18) 0.002985 284.5 80.2
368(19) 0.002717 284.8 80.3
369(19) 0.002710 285.1 80.8
389(20) 0.002571 285.4 81.7
330(18) 0.003030 285.7 82.9
365(19) 0.002740 286.0 84.5
373(19) 0.002681 286.3 86.3
390(20) 0.002564 286.6 88.3
374(19) 0.002674 287.0 90.5
368(19) 0.002717 287.3 92.9
378(19) 0.002646 287.6 95.4
378(19) 0.002646 287.9 98.2
396(20) 0.002525 288.2 101.3
407(20) 0.002457 288.5 104.8
436(21) 0.002294 288.8 108.8
417(20) 0.002398 289.1 113.6
444(21) 0.002252 289.5 119.5
443(21) 0.002257 289.8 127.0
424(21) 0.002358 290.1 136.5
465(22) 0.002151 290.4 148.7
480(22) 0.002083 290.7 163.9
456(21) 0.002193 291.0 182.2
525(23) 0.001905 291.3 203.4
472(22) 0.002119 291.6 226.3
531(23) 0.001883 292.0 248.2
540(23) 0.001852 292.3 265.2
574(24) 0.001742 292.6 273.8
567(24) 0.001764 292.9 273.4
550(23) 0.001818 293.2 267.6
542(23) 0.001845 293.5 260.9
552(23) 0.001812 293.8 256.5
524(23) 0.001908 294.1 256.0
525(23) 0.001905 294.4 259.5
576(24) 0.001736 294.8 265.7
548(23) 0.001825 295.1 272.7
592(24) 0.001689 295.4 278.4
580(24) 0.001724 295.7 281.8
506(22) 0.001976 296.0 283.0
527(23) 0.001898 296.3 282.1
530(23) 0.001887 296.6 279.2
562(24) 0.001779 296.9 274.5
545(23) 0.001835 297.3 268.1
502(22) 0.001992 297.6 260.6
509(23) 0.001965 297.9 252.6
489(22) 0.002045 298.2 244.7
568(24) 0.001761 298.5 237.6
524(23) 0.001908 298.8 231.6
524(23) 0.001908 299.1 226.9
500(22) 0.002000 299.4 223.6
546(23) 0.001832 299.7 221.6
529(23) 0.001890 300.1 220.6
494(22) 0.002024 300.4 220.4
477(22) 0.002096 300.7 220.3
517(23) 0.001934 301.0 220.0
480(22) 0.002083 301.3 218.6
514(23) 0.001946 301.6 215.9
487(22) 0.002053 301.9 211.6
507(23) 0.001972 302.2 205.6
476(22) 0.002101 302.6 198.2
482(22) 0.002075 302.9 189.8
456(21) 0.002193 303.2 180.8
471(22) 0.002123 303.5 171.4
417(20) 0.002398 303.8 162.2
422(21) 0.002370 304.1 153.3
419(20) 0.002387 304.4 144.7
428(21) 0.002336 304.7 136.7
393(20) 0.002545 305.1 129.3
422(21) 0.002370 305.4 122.5
361(19) 0.002770 305.7 116.3
391(20) 0.002558 306.0 110.8
388(20) 0.002577 306.3 105.9
366(19) 0.002732 306.6 101.6
379(19) 0.002639 306.9 97.9
355(19) 0.002817 307.2 94.9
361(19) 0.002770 307.5 92.4
379(19) 0.002639 307.9 90.4
347(19) 0.002882 308.2 88.9
408(20) 0.002451 308.5 88.0
368(19) 0.002717 308.8 87.5
354(19) 0.002825 309.1 87.5
350(19) 0.002857 309.4 87.8
388(20) 0.002577 309.7 88.5
391(20) 0.002558 310.0 89.5
368(19) 0.002717 310.4 90.8
350(19) 0.002857 310.7 92.2
348(19) 0.002874 311.0 93.8
379(19) 0.002639 311.3 95.4
366(19) 0.002732 311.6 97.0
363(19) 0.002755 311.9 98.5
359(19) 0.002786 312.2 99.8
402(20) 0.002488 312.5 100.8
369(19) 0.002710 312.9 101.5
392(20) 0.002551 313.2 101.9
389(20) 0.002571 313.5 101.9
396(20) 0.002525 313.8 101.7
395(20) 0.002532 314.1 101.3
401(20) 0.002494 314.4 100.9
412(20) 0.002427 314.7 100.6
402(20) 0.002488 315.0 100.7
435(21) 0.002299 315.3 101.4
420(20) 0.002381 315.7 102.8
407(20) 0.002457 316.0 105.2
416(20) 0.002404 316.3 108.5
434(21) 0.002304 316.6 112.8
422(21) 0.002370 316.9 118.0
460(21) 0.002174 317.2 123.7
512(23) 0.001953 317.5 129.6
485(22) 0.002062 317.8 134.7
451(21) 0.002217 318.2 138.2
454(21) 0.002203 318.5 139.1
419(20) 0.002387 318.8 136.9
441(21) 0.002268 319.1 131.7
409(20) 0.002445 319.4 124.3
389(20) 0.002571 319.7 115.7
396(20) 0.002525 320.0 106.8
391(20) 0.002558 320.3 98.5
384(20) 0.002604 320.7 91.1
383(20) 0.002611 321.0 85.1
389(20) 0.002571 321.3 80.4
368(19) 0.002717 321.6 77.2
369(19) 0.002710 321.9 75.5
381(20) 0.002625 322.2 75.2
398(20) 0.002513 322.5 76.3
392(20) 0.002551 322.8 78.6
401(20) 0.002494 323.1 81.9
435(21) 0.002299 323.5 86.3
411(20) 0.002433 323.8 91.4
376(19) 0.002660 324.1 97.2
413(20) 0.002421 324.4 103.4
427(21) 0.002342 324.7 109.6
428(21) 0.002336 325.0 115.7
458(21) 0.002183 325.3 121.2
465(22) 0.002151 325.6 125.8
450(21) 0.002222 326.0 129.2
468(22) 0.002137 326.3 131.3
507(23) 0.001972 326.6 132.2
482(22) 0.002075 326.9 131.9
477(22) 0.002096 327.2 130.8
494(22) 0.002024 327.5 129.1
458(21) 0.002183 327.8 126.9
465(22) 0.002151 328.1 124.4
449(21) 0.002227 328.4 121.7
468(22) 0.002137 328.8 118.8
435(21) 0.002299 329.1 115.6
444(21) 0.002252 329.4 112.2
438(21) 0.002283 329.7 108.5
413(20) 0.002421 330.0 104.6
432(21) 0.002315 330.3 100.6
390(20) 0.002564 330.6 96.5
376(19) 0.002660 330.9 92.4
403(20) 0.002481 331.3 88.4
398(20) 0.002513 331.6 84.7
380(19) 0.002632 331.9 81.2
390(20) 0.002564 332.2 78.1
368(19) 0.002717 332.5 75.5
344(19) 0.002907 332.8 73.4
371(19) 0.002695 333.1 71.9
357(19) 0.002801 333.4 71.0
344(19) 0.002907 333.8 70.7
349(19) 0.002865 334.1 71.1
371(19) 0.002695 334.4 72.1
367(19) 0.002725 334.7 73.8
366(19) 0.002732 335.0 76.1
389(20) 0.002571 335.3 79.0
390(20) 0.002564 335.6 82.3
372(19) 0.002688 335.9 85.8
358(19) 0.002793 336.2 89.5
378(19) 0.002646 336.6 93.1
388(20) 0.002577 336.9 96.1
404(20) 0.002475 337.2 98.5
421(21) 0.002375 337.5 99.8
400(20) 0.002500 337.8 99.8
389(20) 0.002571 338.1 98.5
412(20) 0.002427 338.4 96.0
376(19) 0.002660 338.7 92.3
380(19) 0.002632 339.1 87.8
405(20) 0.002469 339.4 82.9
390(20) 0.002564 339.7 77.6
386(20) 0.002591 340.0 72.4
362(19) 0.002762 340.3 67.4
382(20) 0.002618 340.6 62.8
385(20) 0.002597 340.9 58.5
377(19) 0.002653 341.2 54.8
333(18) 0.003003 341.6 51.6
350(19) 0.002857 341.9 49.0
335(18) 0.002985 342.2 47.0
352(19) 0.002841 342.5 45.6
347(19) 0.002882 342.8 44.8
357(19) 0.002801 343.1 44.5
347(19) 0.002882 343.4 44.8
332(18) 0.003012 343.7 45.5
360(19) 0.002778 344.0 46.6
369(19) 0.002710 344.4 48.0
358(19) 0.002793 344.7 49.6
425(21) 0.002353 345.0 51.3
371(19) 0.002695 345.3 52.9
323(18) 0.003096 345.6 54.2
350(19) 0.002857 345.9 55.2
341(18) 0.002933 346.2 55.8
348(19) 0.002874 346.5 55.9
341(18) 0.002933 346.9 55.6
338(18) 0.002959 347.2 55.0
358(19) 0.002793 347.5 54.0
345(19) 0.002899 347.8 52.8
349(19) 0.002865 348.1 51.5
369(19) 0.002710 348.4 50.1
358(19) 0.002793 348.7 48.6
347(19) 0.002882 349.0 47.2
347(19) 0.002882 349.4 46.0
316(18) 0.003165 349.7 44.9
336(18) 0.002976 350.0 44.2
341(18) 0.002933 350.3 44.0
342(18) 0.002924 350.6 44.1
317(18) 0.003155 350.9 44.8
341(18) 0.002933 348.6 45.9
333(18) 0.003003 346.3 47.6
329(18) 0.003039 344.1 49.8
337(18) 0.002967 341.8 52.4
342(18) 0.002924 339.5 55.3
333(18) 0.003003 337.2 58.3
335(18) 0.002985 334.9 61.3
323(18) 0.003096 332.6 63.8
332(18) 0.003012 330.4 65.6
324(18) 0.003086 328.1 66.5
328(18) 0.003049 325.8 66.2
354(19) 0.002825 323.5 65.0
327(18) 0.003058 321.2 62.9
327(18) 0.003058 320.9 60.5
340(18) 0.002941 321.2 58.0
335(18) 0.002985 321.5 55.6
323(18) 0.003096 321.8 53.6
331(18) 0.003021 322.2 52.1
309(18) 0.003236 322.5 51.3
315(18) 0.003175 322.8 51.0
355(19) 0.002817 323.1 51.5
336(18) 0.002976 323.4 52.7
337(18) 0.002967 323.8 54.6
338(18) 0.002959 324.1 57.3
352(19) 0.002841 324.4 60.6
351(19) 0.002849 324.7 64.6
372(19) 0.002688 325.0 69.2
360(19) 0.002778 325.4 74.5
348(19) 0.002874 325.7 80.3
384(20) 0.002604 326.0 86.5
371(19) 0.002695 326.3 93.0
374(19) 0.002674 326.6 99.7
405(20) 0.002469 326.9 106.5
429(21) 0.002331 327.3 112.9
388(20) 0.002577 327.6 118.9
398(20) 0.002513 327.9 124.1
413(20) 0.002421 328.2 128.4
403(20) 0.002481 328.5 131.6
401(20) 0.002494 328.9 133.8
398(20) 0.002513 329.2 134.8
398(20) 0.002513 329.5 135.1
389(20) 0.002571 329.8 134.6
398(20) 0.002513 330.1 133.5
406(20) 0.002463 330.5 132.1
391(20) 0.002558 330.8 130.6
405(20) 0.002469 331.1 128.9
375(19) 0.002667 331.4 127.3
397(20) 0.002519 331.7 125.9
374(19) 0.002674 332.1 124.7
421(21) 0.002375 332.4 123.7
404(20) 0.002475 332.7 123.0
381(20) 0.002625 333.0 122.5
416(20) 0.002404 333.3 122.1
409(20) 0.002445 333.6 121.9
378(19) 0.002646 334.0 121.8
435(21) 0.002299 334.3 121.6
419(20) 0.002387 334.6 121.3
424(21) 0.002358 334.9 120.8
441(21) 0.002268 335.2 120.1
430(21) 0.002326 335.6 119.0
449(21) 0.002227 335.9 117.6
424(21) 0.002358 336.2 115.9
428(21) 0.002336 336.5 113.8
416(20) 0.002404 336.8 111.4
434(21) 0.002304 337.2 108.7
391(20) 0.002558 337.5 105.7
409(20) 0.002445 337.8 102.5
414(20) 0.002415 338.1 99.2
380(19) 0.002632 338.4 95.9
399(20) 0.002506 338.8 92.4
407(20) 0.002457 339.1 89.0
405(20) 0.002469 339.4 85.7
400(20) 0.002500 339.7 82.5
415(20) 0.002410 340.0 79.4
381(20) 0.002625 340.3 76.4
374(19) 0.002674 340.7 73.6
371(19) 0.002695 341.0 70.9
354(19) 0.002825 341.3 68.5
381(20) 0.002625 341.6 66.2
386(20) 0.002591 341.9 64.2
369(19) 0.002710 342.3 62.3
362(19) 0.002762 342.6 60.6
369(19) 0.002710 342.9 59.0
353(19) 0.002833 343.2 57.7
355(19) 0.002817 343.5 56.5
399(20) 0.002506 343.9 55.4
381(20) 0.002625 344.2 54.4
339(18) 0.002950 344.5 53.5
358(19) 0.002793 344.8 52.7
368(19) 0.002717 345.1 51.9
373(19) 0.002681 345.4 51.2
364(19) 0.002747 345.8 50.5
385(20) 0.002597 346.1 49.8
356(19) 0.002809 346.4 49.1
364(19) 0.002747 346.7 48.3
375(19) 0.002667 347.0 47.5
357(19) 0.002801 347.4 46.7
363(19) 0.002755 347.7 45.9
365(19) 0.002740 348.0 45.0
353(19) 0.002833 348.3 44.0
340(18) 0.002941 348.6 43.1
325(18) 0.003077 349.0 42.1
358(19) 0.002793 349.3 41.0
355(19) 0.002817 349.6 40.0
344(19) 0.002907 349.9 38.9
375(19) 0.002667 350.2 37.9
336(18) 0.002976 350.6 36.8
323(18) 0.003096 350.9 35.8
359(19) 0.002786 351.2 34.8
326(18) 0.003067 351.5 33.8
344(19) 0.002907 351.8 32.8
330(18) 0.003030 352.1 31.8
365(19) 0.002740 352.5 30.9
323(18) 0.003096 352.8 30.1
325(18) 0.003077 353.1 29.3
332(18) 0.003012 353.4 28.5
354(19) 0.002825 353.7 27.8
343(19) 0.002915 354.1 27.1
324(18) 0.003086 354.6 26.5
339(18) 0.002950 355.1 25.9
342(18) 0.002924 355.6 25.4
340(18) 0.002941 356.1 24.9
326(18) 0.003067 356.6 24.5
342(18) 0.002924 357.1 24.2
316(18) 0.003165 357.6 24.0
349(19) 0.002865 358.1 23.8
324(18) 0.003086 358.6 23.6
327(18) 0.003058 359.1 23.6
331(18) 0.003021 359.6 23.6
329(18) 0.003039 360.1 23.7
364(19) 0.002747 360.6 23.9
334(18) 0.002994 361.1 24.3
350(19) 0.002857 361.6 24.7
355(19) 0.002817 362.1 25.3
352(19) 0.002841 362.6 26.1
364(19) 0.002747 363.1 27.1
372(19) 0.002688 363.6 28.4
334(18) 0.002994 364.1 29.9
367(19) 0.002725 364.6 31.8
363(19) 0.002755 365.1 34.0
374(19) 0.002674 365.6 36.7
381(20) 0.002625 366.1 39.9
360(19) 0.002778 366.6 43.6
420(20) 0.002381 367.1 47.9
403(20) 0.002481 367.6 52.8
426(21) 0.002347 368.1 58.2
429(21) 0.002331 368.6 64.0
430(21) 0.002326 369.1 69.9
425(21) 0.002353 369.6 75.7
473(22) 0.002114 370.1 80.7
434(21) 0.002304 370.6 84.5
469(22) 0.002132 371.1 86.3
459(21) 0.002179 371.6 85.7
463(22) 0.002160 372.1 82.5
438(21) 0.002283 372.6 77.3
432(21) 0.002315 373.1 70.8
408(20) 0.002451 373.6 63.9
389(20) 0.002571 374.1 57.1
380(19) 0.002632 374.6 50.8
378(19) 0.002646 375.1 45.2
356(19) 0.002809 375.6 40.4
386(20) 0.002591 376.1 36.3
403(20) 0.002481 376.6 33.0
365(19) 0.002740 377.1 30.3
377(19) 0.002653 377.6 28.1
355(19) 0.002817 378.1 26.4
372(19) 0.002688 378.6 25.0
364(19) 0.002747 379.1 24.0
358(19) 0.002793 379.6 23.2
365(19) 0.002740 380.1 22.5
348(19) 0.002874 380.6 22.1
328(18) 0.003049 381.1 21.7
343(19) 0.002915 381.6 21.4
361(19) 0.002770 382.1 21.3
343(19) 0.002915 380.9 21.2
350(19) 0.002857 374.8 21.1
365(19) 0.002740 368.6 21.2
335(18) 0.002985 362.4 21.2
346(19) 0.002890 356.3 21.4
346(19) 0.002890 350.1 21.5
342(18) 0.002924 343.9 21.7
375(19) 0.002667 341.5 22.0
380(19) 0.002632 342.7 22.3
333(18) 0.003003 343.9 22.6
351(19) 0.002849 345.1 23.0
366(19) 0.002732 346.4 23.4
361(19) 0.002770 347.6 23.9
360(19) 0.002778 348.8 24.4
366(19) 0.002732 350.0 25.0
373(19) 0.002681 351.2 25.6
400(20) 0.002500 352.5 26.2
347(19) 0.002882 353.7 26.9
361(19) 0.002770 354.9 27.6
370(19) 0.002703 356.1 28.4
373(19) 0.002681 357.3 29.2
356(19) 0.002809 358.6 30.0
360(19) 0.002778 359.8 30.9
418(20) 0.002392 361.0 31.9
359(19) 0.002786 362.2 32.9
361(19) 0.002770 363.5 33.9
373(19) 0.002681 364.7 35.0
352(19) 0.002841 365.9 36.2
379(19) 0.002639 367.1 37.4
369(19) 0.002710 368.3 38.7
432(21) 0.002315 369.6 40.1
405(20) 0.002469 370.8 41.6
386(20) 0.002591 372.0 43.2
389(20) 0.002571 373.2 45.0
418(20) 0.002392 374.4 46.9
383(20) 0.002611 375.7 49.1
415(20) 0.002410 376.9 51.5
433(21) 0.002309 378.1 54.4
421(21) 0.002375 379.3 57.6
442(21) 0.002262 380.5 61.3
497(22) 0.002012 381.8 65.6
465(22) 0.002151 383.0 70.5
495(22) 0.002020 384.2 76.0
555(24) 0.001802 385.4 82.1
508(23) 0.001968 386.7 88.6
554(24) 0.001805 387.9 95.4
496(22) 0.002016 389.1 102.0
541(23) 0.001848 390.3 107.8
520(23) 0.001923 391.5 112.2
577(24) 0.001733 392.8 114.7
499(22) 0.002004 394.0 115.2
502(22) 0.001992 395.2 114.0
506(22) 0.001976 396.4 111.6
491(22) 0.002037 397.6 108.8
502(22) 0.001992 398.9 105.9
552(23) 0.001812 400.1 103.5
482(22) 0.002075 401.3 101.7
459(21) 0.002179 402.5 100.6
511(23) 0.001957 403.8 100.2
489(22) 0.002045 405.0 100.6
487(22) 0.002053 406.2 101.7
509(23) 0.001965 407.4 103.6
522(23) 0.001916 408.6 106.1
517(23) 0.001934 409.9 109.4
533(23) 0.001876 411.1 113.4
545(23) 0.001835 412.3 118.2
573(24) 0.001745 413.5 123.8
582(24) 0.001718 414.7 130.4
591(24) 0.001692 416.0 137.9
610(25) 0.001639 417.2 146.4
582(24) 0.001718 418.4 155.9
631(25) 0.001585 419.6 166.3
631(25) 0.001585 420.8 177.4
675(26) 0.001481 422.1 188.9
681(26) 0.001468 423.3 200.1
706(27) 0.001416 424.5 210.3
678(26) 0.001475 425.7 218.4
695(26) 0.001439 427.0 223.3
691(26) 0.001447 428.2 224.2
688(26) 0.001453 429.4 220.9
721(27) 0.001387 430.6 214.1
667(26) 0.001499 431.8 205.3
649(25) 0.001541 433.1 195.8
599(24) 0.001669 434.3 186.7
617(25) 0.001621 435.5 178.7
637(25) 0.001570 436.7 172.2
618(25) 0.001618 437.9 167.4
576(24) 0.001736 439.2 164.4
577(24) 0.001733 440.4 163.0
620(25) 0.001613 441.6 163.1
591(24) 0.001692 442.8 164.3
583(24) 0.001715 444.1 166.5
628(25) 0.001592 445.3 169.1
610(25) 0.001639 446.5 171.9
571(24) 0.001751 447.7 174.5
582(24) 0.001718 448.9 176.3
565(24) 0.001770 450.2 177.0
567(24) 0.001764 451.4 176.5
571(24) 0.001751 452.6 174.4
582(24) 0.001718 453.8 170.7
591(24) 0.001692 455.0 165.7
583(24) 0.001715 456.3 159.5
588(24) 0.001701 457.5 152.4
550(23) 0.001818 458.7 144.8
548(23) 0.001825 459.9 136.9
518(23) 0.001931 461.1 129.0
525(23) 0.001905 462.4 121.2
492(22) 0.002033 463.6 113.7
499(22) 0.002004 464.8 106.6
481(22) 0.002079 466.0 100.0
485(22) 0.002062 467.3 94.0
502(22) 0.001992 468.5 88.5
454(21) 0.002203 469.7 83.6
457(21) 0.002188 470.9 79.3
470(22) 0.002128 472.1 75.5
453(21) 0.002208 473.4 72.3
468(22) 0.002137 446.4 69.6
480(22) 0.002083 432.7 67.3
458(21) 0.002183 432.6 65.6
424(21) 0.002358 432.5 64.2
442(21) 0.002262 432.5 63.2
444(21) 0.002252 432.4 62.6
413(20) 0.002421 432.4 62.3
428(21) 0.002336 432.3 62.3
451(21) 0.002217 432.2 62.7
411(20) 0.002433 432.2 63.4
476(22) 0.002101 432.1 64.3
491(22) 0.002037 432.1 65.6
465(22) 0.002151 432.0 67.1
453(21) 0.002208 431.9 68.9
440(21) 0.002273 431.9 71.0
469(22) 0.002132 431.8 73.4
460(21) 0.002174 431.8 76.1
464(22) 0.002155 431.7 79.1
453(21) 0.002208 431.6 82.4
460(21) 0.002174 431.6 86.0
464(22) 0.002155 431.5 89.8
472(22) 0.002119 431.5 93.9
475(22) 0.002105 431.4 98.3
477(22) 0.002096 431.3 102.9
519(23) 0.001927 431.3 107.7
544(23) 0.001838 431.2 112.6
529(23) 0.001890 431.2 117.7
510(23) 0.001961 431.1 122.8
523(23) 0.001912 431.0 127.9
532(23) 0.001880 431.0 133.0
556(24) 0.001799 430.9 137.8
516(23) 0.001938 430.9 142.4
543(23) 0.001842 430.8 146.7
518(23) 0.001931 430.7 150.5
567(24) 0.001764 430.7 153.7
563(24) 0.001776 430.6 156.4
585(24) 0.001709 430.6 158.4
535(23) 0.001869 430.5 159.7
552(23) 0.001812 430.4 160.3
539(23) 0.001855 430.4 160.2
535(23) 0.001869 430.3 159.6
524(23) 0.001908 430.3 158.3
551(23) 0.001815 430.2 156.7
514(23) 0.001946 430.1 154.6
551(23) 0.001815 430.1 152.3
516(23) 0.001938 430.0 149.7
555(24) 0.001802 430.0 147.1
556(24) 0.001799 429.9 144.3
539(23) 0.001855 429.8 141.7
539(23) 0.001855 429.8 139.1
533(23) 0.001876 429.7 136.6
537(23) 0.001862 429.7 134.3
528(23) 0.001894 429.6 132.2
556(24) 0.001799 429.5 130.4
589(24) 0.001698 429.5 128.9
595(24) 0.001681 429.4 127.7
566(24) 0.001767 429.4 126.8
594(24) 0.001684 429.3 126.3
583(24) 0.001715 429.2 126.2
618(25) 0.001618 429.2 126.5
589(24) 0.001698 429.1 127.2
589(24) 0.001698 429.1 128.3
579(24) 0.001727 429.0 129.9
587(24) 0.001704 428.9 131.9
605(25) 0.001653 428.9 134.4
607(25) 0.001647 428.8 137.3
602(25) 0.001661 428.8 140.7
579(24) 0.001727 428.7 144.3
601(25) 0.001664 428.6 148.3
654(26) 0.001529 428.6 152.5
642(25) 0.001558 428.5 156.7
642(25) 0.001558 428.5 160.8
592(24) 0.001689 428.4 164.6
613(25) 0.001631 428.3 167.8
636(25) 0.001572 428.3 170.2
637(25) 0.001570 428.2 171.4
635(25) 0.001575 428.2 171.3
631(25) 0.001585 428.1 169.8
606(25) 0.001650 428.0 166.9
614(25) 0.001629 428.0 162.9
588(24) 0.001701 427.9 157.8
587(24) 0.001704 427.9 152.1
580(24) 0.001724 427.8 146.0
571(24) 0.001751 427.8 139.7
578(24) 0.001730 427.7 133.5
552(23) 0.001812 427.6 127.5
548(23) 0.001825 427.6 121.8
549(23) 0.001822 427.5 116.6
527(23) 0.001898 427.5 111.9
569(24) 0.001757 427.4 107.8
530(23) 0.001887 427.3 104.3
595(24) 0.001681 427.3 101.5
541(23) 0.001848 427.2 99.3
534(23) 0.001873 427.2 97.7
515(23) 0.001942 427.1 96.9
563(24) 0.001776 427.0 96.7
558(24) 0.001792 427.0 97.1
548(23) 0.001825 426.9 98.1
539(23) 0.001855 426.9 99.6
549(23) 0.001822 426.8 101.6
559(24) 0.001789 426.7 104.1
560(24) 0.001786 426.7 106.8
535(23) 0.001869 426.6 109.8
570(24) 0.001754 426.6 112.8
531(23) 0.001883 426.5 115.6
528(23) 0.001894 426.4 118.0
543(23) 0.001842 426.4 119.8
581(24) 0.001721 426.3 120.8
567(24) 0.001764 426.3 120.7
525(23) 0.001905 426.2 119.6
533(23) 0.001876 426.1 117.3
543(23) 0.001842 426.1 114.1
536(23) 0.001866 426.0 110.0
569(24) 0.001757 426.0 105.4
569(24) 0.001757 425.9 100.4
543(23) 0.001842 425.8 95.3
540(23) 0.001852 425.8 90.1
547(23) 0.001828 425.7 85.1
547(23) 0.001828 425.7 80.4
520(23) 0.001923 425.6 75.9
548(23) 0.001825 425.5 71.8
504(22) 0.001984 425.5 68.0
498(22) 0.002008 425.4 64.6
481(22) 0.002079 425.4 61.6
505(22) 0.001980 425.3 58.9
529(23) 0.001890 425.2 56.5
516(23) 0.001938 425.2 54.5
484(22) 0.002066 425.1 52.7
502(22) 0.001992 425.1 51.2
531(23) 0.001883 425.0 49.9
526(23) 0.001901 424.9 48.8
473(22) 0.002114 424.9 47.8
500(22) 0.002000 424.8 47.0
497(22) 0.002012 424.8 46.3
493(22) 0.002028 424.7 45.7
503(22) 0.001988 424.6 45.2
522(23) 0.001916 424.6 44.8
509(23) 0.001965 424.5 44.5
517(23) 0.001934 424.5 44.2
491(22) 0.002037 424.4 44.0
519(23) 0.001927 424.3 43.8
517(23) 0.001934 424.3 43.7
476(22) 0.002101 424.2 43.6
512(23) 0.001953 424.2 43.6
507(23) 0.001972 424.1 43.7
545(23) 0.001835 424.0 43.8
547(23) 0.001828 424.0 44.0
508(23) 0.001968 423.9 44.3
537(23) 0.001862 423.9 44.7
528(23) 0.001894 423.8 45.1
489(22) 0.002045 423.7 45.6
532(23) 0.001880 423.7 46.2
583(24) 0.001715 423.6 46.9
537(23) 0.001862 423.6 47.6
567(24) 0.001764 423.5 48.4
531(23) 0.001883 423.4 49.2
537(23) 0.001862 423.4 50.0
554(24) 0.001805 423.3 50.9
565(24) 0.001770 423.3 51.6
564(24) 0.001773 423.2 52.3
579(24) 0.001727 423.1 52.8
583(24) 0.001715 423.1 53.2
582(24) 0.001718 423.0 53.4
580(24) 0.001724 423.0 53.4
573(24) 0.001745 422.9 53.2
565(24) 0.001770 422.8 52.8
580(24) 0.001724 422.8 52.3
579(24) 0.001727 422.7 51.6
595(24) 0.001681 422.7 50.9
593(24) 0.001686 422.6 50.1
616(25) 0.001623 422.5 49.2
531(23) 0.001883 422.5 48.3
577(24) 0.001733 422.4 47.3
585(24) 0.001709 422.4 46.3
572(24) 0.001748 422.3 45.2
587(24) 0.001704 422.2 44.1
554(24) 0.001805 422.2 42.9
632(25) 0.001582 422.1 41.6
600(24) 0.001667 422.1 40.3
609(25) 0.001642 422.0 39.0
564(24) 0.001773 421.9 37.7
589(24) 0.001698 421.9 36.4
626(25) 0.001597 421.8 35.1
579(24) 0.001727 421.8 33.8
574(24) 0.001742 421.7 32.6
582(24) 0.001718 421.7 31.4
568(24) 0.001761 421.6 30.3
566(24) 0.001767 421.5 29.2
624(25) 0.001603 421.5 28.2
591(24) 0.001692 421.4 27.2
626(25) 0.001597 421.4 26.3
607(25) 0.001647 421.3 25.5
591(24) 0.001692 421.2 24.7
634(25) 0.001577 421.2 24.0
606(25) 0.001650 421.1 23.3
587(24) 0.0 0.0 .
655(26) 0.0 0.0 .
639(25) 0.0 0.0 .
642(25) 0.0 0.0 .
659(26) 0.0 0.0 .
667(26) 0.0 0.0 .
657(26) 0.0 0.0 .
690(26) 0.0 0.0 .
704(27) 0.0 0.0 .
695(26) 0.0 0.0 .
699(26) 0.0 0.0 .
725(27) 0.0 0.0 .
698(26) 0.0 0.0 .
729(27) 0.0 0.0 .
698(26) 0.0 0.0 .
741(27) 0.0 0.0 .
756(27) 0.0 0.0 .
811(28) 0.0 0.0 .
766(28) 0.0 0.0 .
790(28) 0.0 0.0 .
829(29) 0.0 0.0 .
852(29) 0.0 0.0 .
842(29) 0.0 0.0 .
879(30) 0.0 0.0 .
904(30) 0.0 0.0 .
943(31) 0.0 0.0 .
954(31) 0.0 0.0 .
963(31) 0.0 0.0 .
1000(32) 0.0 0.0 .
1013(32) 0.0 0.0 .
1041(32) 0.0 0.0 .
1019(32) 0.0 0.0 .
1120(33) 0.0 0.0 .
1138(34) 0.0 0.0 .
1138(34) 0.0 0.0 .
1226(35) 0.0 0.0 .
1240(35) 0.0 0. .
1327(36) 0.0 0. .
1362(37) 0.0 0. .
1342(37) 0.0 0. .
1419(38) 0.0 0. .
1450(38) 0.0 0. .
1538(39) 0.0 0. .
1574(40) 0.0 0. .
1603(40) 0.0 0. .
1631(40) 0.0 0. .
1816(43) 0.0 0. .
1880(43) 0.0 0. .
1957(44) 0.0 0. .
2048(45) 0.0 0. .
2194(47) 0.0 0. .
2293(48) 0.0 0. .
2445(49) 0.0 0. .
2589(51) 0.0 0. .
2809(53) 0.0 0. .
2984(55) 0.0 0. .
3337(58) 0.0 0. .
3683(61) 0.0 0. .
3851(62) 0.0 0. .
4320(66) 0.0 0. .
4878(70) 0.0 0. .
5186(72) 0.0 0. .
5828(76) 0.0 0. .
6509(81) 0.0 0. .
7429(86) 0.0 0. .
8280(91) 0.0 0. .
9331(97) 0.0 0. .
10840(100) 0.0 0. .
12580(110) 0.0 0. .
14850(120) 0.0 0. .
17490(130) 0.0 0. .
21230(150) 0.0 0. .
25330(160) 0.0 0. .
31290(180) 0.0 0. .
38980(200) 0.0 0. .
49650(220) 0.0 0. .
65000(260) 0.0 0. .
87490(300) 0.0 0. .
121180(350) 0.0 0. .
172650(420) 0.0 0. .
246390(500) 0.0 0. .
335390(580) 0.0 0. .
411960(640) 0.0 0. .
438950(660) 0.0 0. .
413000(640) 0.0 0. .
347080(590) 0.0 0. .
261040(510) 0.0 0. .
186560(430) 0.0 0. .
131210(360) 0.0 0. .
94280(310) 0.0 0. .
69350(260) 0.0 0. .
52360(230) 0.0 0. .
40500(200) 0.0 0. .
32090(180) 0.0 0. .
26050(160) 0.0 0. .
21370(150) 0.0 0. .
17870(130) 0.0 0. .
15010(120) 0.0 0. .
12800(110) 0.0 0. .
11010(110) 0.0 0. .
9564(98) 0.0 0. .
8421(92) 0.0 0. .
7289(85) 0.0 0. .
6495(81) 0.0 0. .
5655(75) 0.0 0. .
5230(72) 0.0 0. .
4832(70) 0.0 0. .
4445(67) 0.0 0. .
3894(62) 0.0 0. .
3708(61) 0.0 0. .
3448(59) 0.0 0. .
3185(56) 0.0 0. .
2916(54) 0.0 0. .
2688(52) 0.0 0. .
2529(50) 0.0 0. .
2382(49) 0.0 0. .
2206(47) 0.0 0. .
2027(45) 0.0 0. .
2043(45) 0.0 0. .
1963(44) 0.0 0. .
1731(42) 0.0 0. .
1800(42) 0.0 0. .
1652(41) 0.0 0. .
1598(40) 0.0 0. .
1536(39) 0.0 0. .
1491(39) 0.0 0. .
1434(38) 0.0 0. .
1420(38) 0.0 0. .
1315(36) 0.0 0. .
1266(36) 0.0 0. .
1280(36) 0.0 0. .
1272(36) 0.0 0. .
1250(35) 0.0 0. .
1172(34) 0.0 0.0 .
1139(34) 0.0 0.0 .
1213(35) 0.0 0.0 .
1118(33) 0.0 0.0 .
1113(33) 0.0 0.0 .
1084(33) 0.0 0.0 .
1048(32) 0.0 0.0 .
975(31) 0.0 0.0 .
981(31) 0.0 0.0 .
957(31) 0.0 0.0 .
896(30) 0.0 0.0 .
956(31) 0.0 0.0 .
871(30) 0.0 0.0 .
964(31) 0.0 0.0 .
899(30) 0.0 0.0 .
897(30) 0.0 0.0 .
895(30) 0.0 0.0 .
883(30) 0.0 0.0 .
865(29) 0.0 0.0 .
817(29) 0.0 0.0 .
844(29) 0.0 0.0 .
824(29) 0.0 0.0 .
809(28) 0.0 0.0 .
790(28) 0.0 0.0 .
780(28) 0.0 0.0 .
773(28) 0.0 0.0 .
756(27) 0.0 0.0 .
763(28) 0.0 0.0 .
741(27) 0.0 0.0 .
751(27) 0.0 0.0 .
788(28) 0.0 0.0 .
753(27) 0.0 0.0 .
723(27) 0.0 0.0 .
760(28) 0.0 0.0 .
729(27) 0.0 0.0 .
754(27) 0.0 0.0 .
740(27) 0.0 0.0 .
698(26) 0.0 0.0 .
703(27) 0.0 0.0 .
731(27) 0.0 0.0 .
700(26) 0.0 0.0 .
713(27) 0.0 0.0 .
718(27) 0.0 0.0 .
746(27) 0.0 0.0 .
680(26) 0.0 0.0 .
727(27) 0.0 0.0 .
682(26) 0.0 0.0 .
719(27) 0.0 0.0 .
723(27) 0.0 0.0 .
665(26) 0.0 0.0 .
680(26) 0.0 0.0 .
682(26) 0.0 0.0 .
698(26) 0.0 0.0 .
682(26) 0.0 0.0 .
660(26) 0.0 0.0 .
700(26) 0.0 0.0 .
658(26) 0.0 0.0 .
687(26) 0.0 0.0 .
678(26) 0.0 0.0 .
628(25) 0.0 0.0 .
668(26) 0.0 0.0 .
655(26) 0.0 0.0 .
601(25) 0.0 0.0 .
594(24) 0.0 0.0 .
612(25) 0.0 0.0 .
611(25) 0.0 0.0 .
591(24) 0.0 0.0 .
601(25) 0.001664 409.1 45.6
590(24) 0.001695 409.0 43.7
611(25) 0.001637 409.0 42.0
588(24) 0.001701 408.9 40.4
576(24) 0.001736 408.9 39.0
582(24) 0.001718 408.8 37.8
559(24) 0.001789 408.7 36.8
569(24) 0.001757 408.7 36.0
553(24) 0.001808 408.6 35.5
587(24) 0.001704 408.6 35.3
540(23) 0.001852 408.5 35.3
573(24) 0.001745 408.4 35.6
572(24) 0.001748 408.4 36.1
516(23) 0.001938 408.3 36.9
593(24) 0.001686 408.3 37.9
573(24) 0.001745 408.2 39.1
536(23) 0.001866 408.1 40.5
527(23) 0.001898 408.1 42.1
547(23) 0.001828 408.0 43.8
562(24) 0.001779 408.0 45.7
539(23) 0.001855 407.9 47.6
556(24) 0.001799 407.8 49.5
545(23) 0.001835 407.8 51.3
529(23) 0.001890 407.7 52.9
518(23) 0.001931 407.7 54.4
535(23) 0.001869 407.6 55.5
556(24) 0.001799 407.5 56.2
558(24) 0.001792 407.5 56.5
558(24) 0.001792 407.4 56.4
543(23) 0.001842 407.4 55.9
558(24) 0.001792 407.3 54.9
563(24) 0.001776 407.2 53.7
489(22) 0.002045 407.2 52.1
500(22) 0.002000 407.1 50.4
535(23) 0.001869 407.1 48.5
514(23) 0.001946 407.0 46.5
555(24) 0.001802 406.9 44.4
538(23) 0.001859 406.9 42.4
547(23) 0.001828 406.8 40.4
484(22) 0.002066 406.8 38.5
492(22) 0.002033 406.7 36.6
535(23) 0.001869 406.6 34.9
475(22) 0.002105 406.6 33.3
443(21) 0.002257 406.5 31.8
457(21) 0.002188 406.5 30.4
427(21) 0.002342 406.4 29.2
489(22) 0.002045 406.3 28.0
442(21) 0.002262 406.3 27.0
429(21) 0.002331 406.2 26.1
478(22) 0.002092 406.2 25.3
428(21) 0.002336 406.1 24.5
415(20) 0.002410 406.0 23.9
481(22) 0.002079 406.0 23.3
468(22) 0.002137 409.9 22.7
422(21) 0.002370 417.8 22.2
438(21) 0.002283 425.7 21.8
419(20) 0.002387 433.6 21.3
414(20) 0.002415 441.5 20.9
387(20) 0.002584 449.4 20.6
386(20) 0.002591 457.3 20.2
451(21) 0.002217 463.1 19.9
415(20) 0.002410 462.7 19.6
467(22) 0.002141 462.3 19.3
442(21) 0.002262 461.8 19.0
429(21) 0.002331 461.4 18.8
425(21) 0.002353 461.0 18.6
443(21) 0.002257 460.6 18.4
419(20) 0.002387 460.2 18.2
458(21) 0.002183 459.8 18.1
394(20) 0.002538 459.4 18.0
413(20) 0.002421 458.9 18.0
427(21) 0.002342 458.5 18.0
437(21) 0.002288 458.1 18.0
409(20) 0.002445 457.7 18.1
426(21) 0.002347 457.3 18.3
415(20) 0.002410 456.9 18.6
453(21) 0.002208 456.5 18.9
458(21) 0.002183 456.0 19.4
428(21) 0.002336 455.6 19.9
419(20) 0.002387 455.2 20.6
429(21) 0.002331 454.8 21.4
435(21) 0.002299 454.4 22.3
434(21) 0.002304 454.0 23.3
416(20) 0.002404 453.6 24.4
433(21) 0.002309 453.2 25.5
442(21) 0.002262 452.7 26.6
438(21) 0.002283 452.3 27.6
422(21) 0.002370 451.9 28.5
421(21) 0.002375 451.5 29.1
454(21) 0.002203 451.1 29.5
453(21) 0.002208 450.7 29.6
461(21) 0.002169 450.3 29.6
448(21) 0.002232 449.8 29.4
396(20) 0.002525 449.4 29.3
463(22) 0.002160 449.0 29.1
447(21) 0.002237 448.6 29.1
422(21) 0.002370 448.2 29.2
424(21) 0.002358 447.8 29.5
399(20) 0.002506 447.4 29.9
397(20) 0.002519 447.0 30.4
435(21) 0.002299 446.5 31.2
390(20) 0.002564 446.1 32.1
451(21) 0.002217 445.7 33.2
397(20) 0.002519 445.3 34.4
428(21) 0.002336 444.9 35.8
432(21) 0.002315 444.5 37.3
417(20) 0.002398 444.1 39.0
416(20) 0.002404 443.6 40.9
423(21) 0.002364 443.2 42.8
452(21) 0.002212 442.8 44.9
441(21) 0.002268 442.4 47.1
453(21) 0.002208 442.0 49.4
431(21) 0.002320 441.6 51.8
439(21) 0.002278 441.2 54.2
449(21) 0.002227 440.8 56.7
485(22) 0.002062 440.3 59.1
462(21) 0.002164 439.9 61.6
473(22) 0.002114 439.5 63.9
476(22) 0.002101 439.1 66.2
469(22) 0.002132 438.7 68.4
466(22) 0.002146 438.3 70.4
497(22) 0.002012 437.9 72.2
507(23) 0.001972 437.4 73.9
493(22) 0.002028 437.0 75.4
510(23) 0.001961 436.6 76.7
482(22) 0.002075 436.2 77.9
508(23) 0.001968 435.8 79.0
491(22) 0.002037 435.4 79.9
521(23) 0.001919 435.0 80.6
530(23) 0.001887 434.6 81.2
506(22) 0.001976 434.1 81.7
519(23) 0.001927 433.7 82.0
516(23) 0.001938 433.3 82.2
541(23) 0.001848 432.9 82.3
487(22) 0.002053 432.5 82.3
480(22) 0.002083 432.1 82.3
478(22) 0.002092 431.7 82.2
511(23) 0.001957 431.2 82.1
477(22) 0.002096 430.8 82.0
490(22) 0.002041 430.4 81.9
464(22) 0.002155 430.0 81.9
487(22) 0.002053 429.6 81.9
500(22) 0.002000 429.2 82.1
497(22) 0.002012 428.8 82.4
511(23) 0.001957 428.4 82.8
504(22) 0.001984 427.9 83.2
522(23) 0.001916 427.5 83.7
497(22) 0.002012 427.1 84.2
471(22) 0.002123 426.7 84.5
461(21) 0.002169 426.3 84.6
504(22) 0.001984 425.9 84.4
478(22) 0.002092 425.5 83.7
471(22) 0.002123 425.0 82.6
462(21) 0.002164 424.6 81.1
471(22) 0.002123 424.2 79.4
455(21) 0.002198 423.8 77.4
463(22) 0.002160 423.4 75.5
441(21) 0.002268 423.0 73.7
473(22) 0.002114 422.6 72.1
450(21) 0.002222 422.2 70.7
464(22) 0.002155 421.7 69.6
461(21) 0.002169 421.3 68.8
433(21) 0.002309 420.9 68.3
486(22) 0.002058 420.5 68.1
465(22) 0.002151 420.1 68.2
478(22) 0.002092 419.7 68.6
481(22) 0.002079 419.3 69.2
448(21) 0.002232 418.8 69.9
507(23) 0.001972 418.4 70.9
444(21) 0.002252 418.0 72.0
455(21) 0.002198 417.6 73.1
431(21) 0.002320 417.2 74.2
476(22) 0.002101 416.8 75.3
481(22) 0.002079 416.4 76.3
486(22) 0.002058 416.0 77.1
496(22) 0.002016 415.5 77.8
456(21) 0.002193 415.1 78.2
497(22) 0.002012 414.7 78.4
447(21) 0.002237 414.3 78.4
463(22) 0.002160 413.9 78.2
474(22) 0.002110 413.5 77.8
460(21) 0.002174 413.1 77.3
448(21) 0.002232 412.6 76.7
440(21) 0.002273 412.2 75.9
461(21) 0.002169 411.8 75.0
458(21) 0.002183 411.4 74.0
482(22) 0.002075 411.0 72.8
441(21) 0.002268 410.6 71.4
438(21) 0.002283 410.2 69.7
463(22) 0.002160 409.8 67.8
448(21) 0.002232 409.3 65.7
387(20) 0.002584 408.9 63.3
438(21) 0.002283 408.5 60.8
403(20) 0.002481 408.1 58.2
397(20) 0.002519 407.7 55.5
429(21) 0.002331 407.3 52.9
435(21) 0.002299 406.9 50.3
421(21) 0.002375 406.4 47.8
402(20) 0.002488 406.0 45.5
410(20) 0.002439 405.6 43.3
418(20) 0.002392 405.2 41.4
408(20) 0.002451 404.8 39.7
399(20) 0.002506 404.4 38.2
438(21) 0.002283 404.0 37.0
392(20) 0.002551 403.6 36.0
415(20) 0.002410 403.1 35.2
427(21) 0.002342 402.7 34.7
361(19) 0.002770 402.3 34.5
408(20) 0.002451 401.9 34.5
392(20) 0.002551 401.5 34.8
424(21) 0.002358 401.1 35.4
392(20) 0.002551 400.7 36.2
382(20) 0.002618 400.2 37.3
412(20) 0.002427 399.8 38.8
425(21) 0.002353 399.4 40.6
392(20) 0.002551 399.0 42.7
388(20) 0.002577 398.6 45.3
384(20) 0.002604 398.2 48.4
432(21) 0.002315 397.8 52.0
399(20) 0.002506 397.4 56.1
410(20) 0.002439 396.9 60.8
431(21) 0.002320 396.5 65.8
427(21) 0.002342 396.1 71.1
441(21) 0.002268 395.7 76.1
462(21) 0.002164 395.3 80.2
468(22) 0.002137 394.9 82.6
410(20) 0.002439 394.5 82.8
411(20) 0.002433 394.0 80.7
475(22) 0.002105 393.6 77.0
433(21) 0.002309 393.2 72.6
446(21) 0.002242 392.8 68.2
426(21) 0.002347 392.4 64.1
412(20) 0.002427 392.0 60.7
407(20) 0.002457 391.6 57.9
474(22) 0.002110 391.2 55.8
415(20) 0.002410 390.7 54.4
466(22) 0.002146 390.3 53.4
415(20) 0.002410 389.9 52.8
446(21) 0.002242 389.5 52.3
423(21) 0.002364 389.1 51.6
389(20) 0.002571 388.7 50.5
428(21) 0.002336 388.3 49.2
432(21) 0.002315 387.8 47.8
425(21) 0.002353 387.4 46.4
406(20) 0.002463 387.0 45.3
396(20) 0.002525 386.6 44.6
409(20) 0.002445 386.2 44.2
450(21) 0.002222 385.8 44.2
426(21) 0.002347 385.4 44.6
415(20) 0.002410 385.0 45.4
422(21) 0.002370 384.5 46.5
411(20) 0.002433 384.1 48.0
415(20) 0.002410 383.7 49.9
440(21) 0.002273 383.3 52.1
435(21) 0.002299 382.9 54.8
453(21) 0.002208 382.5 57.8
440(21) 0.002273 382.1 61.4
478(22) 0.002092 381.6 65.4
471(22) 0.002123 381.2 69.9
492(22) 0.002033 380.8 75.0
462(21) 0.002164 380.4 80.7
506(22) 0.001976 380.0 87.2
507(23) 0.001972 379.6 94.3
547(23) 0.001828 379.2 102.2
524(23) 0.001908 378.8 110.9
499(22) 0.002004 378.3 120.4
605(25) 0.001653 377.9 130.7
599(24) 0.001669 377.5 141.7
648(25) 0.001543 377.1 153.1
660(26) 0.001515 376.7 164.9
647(25) 0.001546 376.3 176.7
720(27) 0.001389 375.9 188.1
723(27) 0.001383 375.4 198.7
769(28) 0.001300 375.0 207.7
698(26) 0.001433 374.6 214.4
699(26) 0.001431 374.2 218.3
682(26) 0.001466 373.8 218.7
641(25) 0.001560 373.4 215.6
681(26) 0.001468 373.0 209.5
661(26) 0.001513 372.6 201.1
627(25) 0.001595 372.1 191.5
649(25) 0.001541 371.7 181.6
577(24) 0.001733 371.3 172.3
594(24) 0.001684 370.9 164.0
560(24) 0.001786 370.5 157.1
593(24) 0.001686 370.1 152.0
568(24) 0.001761 369.7 148.7
574(24) 0.001742 369.2 147.3
537(23) 0.001862 368.8 147.9
579(24) 0.001727 368.4 150.3
582(24) 0.001718 368.0 154.4
574(24) 0.001742 367.6 160.2
629(25) 0.001590 367.2 167.3
592(24) 0.001689 366.8 175.5
584(24) 0.001712 366.4 184.3
616(25) 0.001623 365.9 193.2
635(25) 0.001575 365.5 201.6
672(26) 0.001488 365.1 208.7
706(27) 0.001416 364.7 213.8
659(26) 0.001517 364.3 216.3
707(27) 0.001414 363.9 215.6
694(26) 0.001441 363.5 211.6
672(26) 0.001488 363.0 204.6
693(26) 0.001443 362.6 195.2
629(25) 0.001590 362.2 183.9
625(25) 0.001600 361.8 171.6
599(24) 0.001669 361.4 158.7
579(24) 0.001727 361.0 145.9
573(24) 0.001745 360.6 133.5
553(24) 0.001808 360.2 121.7
510(23) 0.001961 359.7 110.9
511(23) 0.001957 359.3 101.0
478(22) 0.002092 358.9 92.2
451(21) 0.002217 358.5 84.5
501(22) 0.001996 358.1 77.7
481(22) 0.002079 357.7 72.0
477(22) 0.002096 357.3 67.2
454(21) 0.002203 356.8 63.2
458(21) 0.002183 356.4 60.0
463(22) 0.002160 356.0 57.4
429(21) 0.002331 355.6 55.3
449(21) 0.002227 355.2 53.6
390(20) 0.002564 354.8 52.2
406(20) 0.002463 354.4 51.0
385(20) 0.002597 354.0 50.0
392(20) 0.002551 353.5 48.9
386(20) 0.002591 353.1 47.9
406(20) 0.002463 352.7 46.8
402(20) 0.002488 352.3 45.5
395(20) 0.002532 351.9 44.2
393(20) 0.002545 351.5 42.7
380(19) 0.002632 351.1 41.2
358(19) 0.002793 350.6 39.7
389(20) 0.002571 350.2 38.2
380(19) 0.002632 349.8 36.7
332(18) 0.003012 349.4 35.2
376(19) 0.002660 349.0 33.7
381(20) 0.002625 348.6 32.4
357(19) 0.002801 348.2 31.1
373(19) 0.002681 348.2 29.9
384(20) 0.002604 348.8 28.7
365(19) 0.002740 349.4 27.7
348(19) 0.002874 350.0 26.7
386(20) 0.002591 350.5 25.8
355(19) 0.002817 351.1 25.0
360(19) 0.002778 351.7 24.3
365(19) 0.002740 352.2 23.7
386(20) 0.002591 352.8 23.2
396(20) 0.002525 353.4 22.7
367(19) 0.002725 353.9 22.3
349(19) 0.002865 354.5 21.9
334(18) 0.002994 355.1 21.6
337(18) 0.002967 355.7 21.4
363(19) 0.002755 356.2 21.2
352(19) 0.002841 356.8 21.1
364(19) 0.002747 357.4 21.0
343(19) 0.002915 357.9 21.0
357(19) 0.002801 358.5 21.0
377(19) 0.002653 359.1 21.1
401(20) 0.002494 359.7 21.1
393(20) 0.002545 360.2 21.3
370(19) 0.002703 360.8 21.4
354(19) 0.002825 361.4 21.6
387(20) 0.002584 361.9 21.8
352(19) 0.002841 362.5 22.0
363(19) 0.002755 363.1 22.3
364(19) 0.002747 363.6 22.6
361(19) 0.002770 364.2 22.9
356(19) 0.002809 364.8 23.2
357(19) 0.002801 365.4 23.5
352(19) 0.002841 365.9 23.9
383(20) 0.002611 366.5 24.2
377(19) 0.002653 367.1 24.5
364(19) 0.002747 367.6 24.9
402(20) 0.002488 368.2 25.2
359(19) 0.002786 368.8 25.6
360(19) 0.002778 369.4 26.0
367(19) 0.002725 369.9 26.3
367(19) 0.002725 370.5 26.7
369(19) 0.002710 371.1 27.0
390(20) 0.002564 371.6 27.4
363(19) 0.002755 372.2 27.8
345(19) 0.002899 372.8 28.2
374(19) 0.002674 373.3 28.6
359(19) 0.002786 373.9 29.0
388(20) 0.002577 374.5 29.4
404(20) 0.002475 375.1 29.9
358(19) 0.002793 375.6 30.4
370(19) 0.002703 376.2 30.8
374(19) 0.002674 376.8 31.4
388(20) 0.002577 377.3 31.9
389(20) 0.002571 377.9 32.5
356(19) 0.002809 378.0 33.1
404(20) 0.002475 378.0 33.7
365(19) 0.002740 377.9 34.4
399(20) 0.002506 377.8 35.1
361(19) 0.002770 377.8 35.8
386(20) 0.002591 377.7 36.6
390(20) 0.002564 377.7 37.4
359(19) 0.002786 377.6 38.3
364(19) 0.002747 377.6 39.2
420(20) 0.002381 377.5 40.2
388(20) 0.002577 377.4 41.3
395(20) 0.002532 377.4 42.4
410(20) 0.002439 377.3 43.6
395(20) 0.002532 377.3 44.9
395(20) 0.002532 377.2 46.3
375(19) 0.002667 377.2 47.8
420(20) 0.002381 377.1 49.4
396(20) 0.002525 377.1 51.1
400(20) 0.002500 377.0 53.0
424(21) 0.002358 376.9 54.9
430(21) 0.002326 376.9 57.1
418(20) 0.002392 376.8 59.4
429(21) 0.002331 376.8 61.8
441(21) 0.002268 376.7 64.4
430(21) 0.002326 376.7 67.2
447(21) 0.002237 376.6 70.2
422(21) 0.002370 376.6 73.4
458(21) 0.002183 376.5 76.8
443(21) 0.002257 376.4 80.4
472(22) 0.002119 376.4 84.2
489(22) 0.002045 376.3 88.2
534(23) 0.001873 376.3 92.4
504(22) 0.001984 376.2 96.9
483(22) 0.002070 376.2 101.5
550(23) 0.001818 376.1 106.3
510(23) 0.001961 376.1 111.3
527(23) 0.001898 376.0 116.4
531(23) 0.001883 375.9 121.7
532(23) 0.001880 375.9 127.1
571(24) 0.001751 375.8 132.5
562(24) 0.001779 375.8 138.1
559(24) 0.001789 375.7 143.6
545(23) 0.001835 375.7 149.0
573(24) 0.001745 375.6 154.4
570(24) 0.001754 375.6 159.6
595(24) 0.001681 375.5 164.7
553(24) 0.001808 375.4 169.4
597(24) 0.001675 375.4 173.8
566(24) 0.001767 375.3 177.9
586(24) 0.001706 375.3 181.6
615(25) 0.001626 375.2 184.9
598(24) 0.001672 375.2 187.8
559(24) 0.001789 375.1 190.2
584(24) 0.001712 375.0 192.2
601(25) 0.001664 375.0 193.8
601(25) 0.001664 374.9 195.0
585(24) 0.001709 374.9 195.9
574(24) 0.001742 374.8 196.3
570(24) 0.001754 374.8 196.3
593(24) 0.001686 374.7 196.0
601(25) 0.001664 374.7 195.4
577(24) 0.001733 374.6 194.4
591(24) 0.001692 374.5 193.2
587(24) 0.001704 374.5 191.6
601(25) 0.001664 374.4 189.7
576(24) 0.001736 374.4 187.5
567(24) 0.001764 374.3 185.0
543(23) 0.001842 374.3 182.3
590(24) 0.001695 374.2 179.2
572(24) 0.001748 374.2 176.0
563(24) 0.001776 374.1 172.5
577(24) 0.001733 374.0 168.8
545(23) 0.001835 374.0 164.9
529(23) 0.001890 373.9 161.0
502(22) 0.001992 373.9 157.0
558(24) 0.001792 373.8 153.0
556(24) 0.001799 373.8 148.9
510(23) 0.001961 373.7 145.0
509(23) 0.001965 373.7 141.1
513(23) 0.001949 373.6 137.4
525(23) 0.001905 373.5 133.8
489(22) 0.002045 373.5 130.4
485(22) 0.002062 373.4 127.2
466(22) 0.002146 373.4 124.2
468(22) 0.002137 373.3 121.4
465(22) 0.002151 373.3 118.9
474(22) 0.002110 373.2 116.5
459(21) 0.002179 373.2 114.4
455(21) 0.002198 373.1 112.4
475(22) 0.002105 373.0 110.6
457(21) 0.002188 373.0 108.9
478(22) 0.002092 372.9 107.3
465(22) 0.002151 372.9 105.8
464(22) 0.002155 372.8 104.2
476(22) 0.002101 372.8 102.7
444(21) 0.002252 372.7 101.0
487(22) 0.002053 372.6 99.2
460(21) 0.002174 372.6 97.3
468(22) 0.002137 372.5 95.2
476(22) 0.002101 372.5 93.0
445(21) 0.002247 372.4 90.6
483(22) 0.002070 372.4 88.0
443(21) 0.002257 372.3 85.4
405(20) 0.002469 372.3 82.8
445(21) 0.002247 372.2 80.1
435(21) 0.002299 372.1 77.4
430(21) 0.002326 372.1 74.8
435(21) 0.002299 372.0 72.2
433(21) 0.002309 372.0 69.8
439(21) 0.002278 371.9 67.4
405(20) 0.002469 371.9 65.1
402(20) 0.002488 371.8 63.0
420(20) 0.002381 371.8 60.9
360(19) 0.002778 371.7 59.0
382(20) 0.002618 371.6 57.2
396(20) 0.002525 371.6 55.5
418(20) 0.002392 371.5 53.9
388(20) 0.002577 371.5 52.4
391(20) 0.002558 371.4 51.0
406(20) 0.002463 371.4 49.7
404(20) 0.002475 371.3 48.5
361(19) 0.002770 371.3 47.4
345(19) 0.002899 371.2 46.4
376(19) 0.002660 371.1 45.4
377(19) 0.002653 371.1 44.4
368(19) 0.002717 371.0 43.6
369(19) 0.002710 371.0 42.7
357(19) 0.002801 370.9 42.0
370(19) 0.002703 370.9 41.2
355(19) 0.002817 370.8 40.5
379(19) 0.002639 370.7 39.8
345(19) 0.002899 370.7 39.1
360(19) 0.002778 370.6 38.5
367(19) 0.002725 370.6 37.9
376(19) 0.002660 370.5 37.3
360(19) 0.002778 370.5 36.7
344(19) 0.002907 370.4 36.1
352(19) 0.002841 370.4 35.6
353(19) 0.002833 370.3 35.0
361(19) 0.002770 370.2 34.5
347(19) 0.002882 370.2 34.1
373(19) 0.002681 370.1 33.6
371(19) 0.002695 370.1 33.2
366(19) 0.002732 370.0 32.7
360(19) 0.002778 370.0 32.3
363(19) 0.002755 368.8 32.0
356(19) 0.002809 366.6 31.6
375(19) 0.002667 364.4 31.3
363(19) 0.002755 362.2 31.0
347(19) 0.002882 359.9 30.7
334(18) 0.002994 357.7 30.5
355(19) 0.002817 355.5 30.3
372(19) 0.002688 353.3 30.1
352(19) 0.002841 351.0 29.9
381(20) 0.002625 348.8 29.8
348(19) 0.002874 346.6 29.6
368(19) 0.002717 344.4 29.6
345(19) 0.002899 342.7 29.5
346(19) 0.002890 342.8 29.5
364(19) 0.002747 342.9 29.5
357(19) 0.002801 343.0 29.5
355(19) 0.002817 343.0 29.6
336(18) 0.002976 343.1 29.7
353(19) 0.002833 343.2 29.8
353(19) 0.002833 343.3 29.9
377(19) 0.002653 343.4 30.1
381(20) 0.002625 343.4 30.3
358(19) 0.002793 343.5 30.5
360(19) 0.002778 343.6 30.8
359(19) 0.002786 343.7 31.1
381(20) 0.002625 343.8 31.4
382(20) 0.002618 343.8 31.7
389(20) 0.002571 343.9 32.1
382(20) 0.002618 344.0 32.5
349(19) 0.002865 344.1 32.9
342(18) 0.002924 344.2 33.3
356(19) 0.002809 344.2 33.7
346(19) 0.002890 344.3 34.1
361(19) 0.002770 344.4 34.6
329(18) 0.003039 344.5 35.1
386(20) 0.002591 344.6 35.5
368(19) 0.002717 344.7 36.0
364(19) 0.002747 344.7 36.4
378(19) 0.002646 344.8 36.9
386(20) 0.002591 344.9 37.4
372(19) 0.002688 345.0 37.8
370(19) 0.002703 345.1 38.2
392(20) 0.002551 345.1 38.6
356(19) 0.002809 345.2 39.0
364(19) 0.002747 345.3 39.3
390(20) 0.002564 345.4 39.6
382(20) 0.002618 345.5 39.9
385(20) 0.002597 345.5 40.2
377(19) 0.002653 345.6 40.4
409(20) 0.002445 345.7 40.6
368(19) 0.002717 345.8 40.7
347(19) 0.002882 345.9 40.9
404(20) 0.002475 345.9 40.9
369(19) 0.002710 346.0 41.0
357(19) 0.002801 346.1 41.1
359(19) 0.002786 346.2 41.1
356(19) 0.002809 346.3 41.1
385(20) 0.002597 346.3 41.1
406(20) 0.002463 346.4 41.1
364(19) 0.002747 346.5 41.1
360(19) 0.002778 346.6 41.1
352(19) 0.002841 346.7 41.1
361(19) 0.002770 346.8 41.1
389(20) 0.002571 346.8 41.1
396(20) 0.002525 346.9 41.2
401(20) 0.002494 347.0 41.2
357(19) 0.002801 347.1 41.2
342(18) 0.002924 347.2 41.3
381(20) 0.002625 347.2 41.4
371(19) 0.002695 347.3 41.5
345(19) 0.002899 347.4 41.6
369(19) 0.002710 347.5 41.8
343(19) 0.002915 347.6 42.0
365(19) 0.002740 347.6 42.2
363(19) 0.002755 347.7 42.4
364(19) 0.002747 347.8 42.6
400(20) 0.002500 347.9 42.9
357(19) 0.002801 348.0 43.2
370(19) 0.002703 348.0 43.6
384(20) 0.002604 348.1 44.0
383(20) 0.002611 348.2 44.4
377(19) 0.002653 348.3 44.9
347(19) 0.002882 348.4 45.4
392(20) 0.002551 348.5 46.0
360(19) 0.002778 348.5 46.6
391(20) 0.002558 348.6 47.2
371(19) 0.002695 348.7 47.9
391(20) 0.002558 348.8 48.5
382(20) 0.002618 348.9 49.2
402(20) 0.002488 348.9 49.7
397(20) 0.002519 349.0 50.1
397(20) 0.002519 349.1 50.4
372(19) 0.002688 349.2 50.5
420(20) 0.002381 349.3 50.4
389(20) 0.002571 349.3 50.2
398(20) 0.002513 349.4 49.9
379(19) 0.002639 349.5 49.6
374(19) 0.002674 349.6 49.3
420(20) 0.002381 349.7 49.0
341(18) 0.002933 349.7 48.7
383(20) 0.002611 349.8 48.4
380(19) 0.002632 349.9 48.1
398(20) 0.002513 350.0 47.8
381(20) 0.002625 350.1 47.5
373(19) 0.002681 350.1 47.2
392(20) 0.002551 350.2 47.0
393(20) 0.002545 350.3 46.7
369(19) 0.002710 350.4 46.4
380(19) 0.002632 350.5 46.1
377(19) 0.002653 350.6 45.8
395(20) 0.002532 350.6 45.5
349(19) 0.002865 350.7 45.2
384(20) 0.002604 350.8 44.9
402(20) 0.002488 350.9 44.7
363(19) 0.002755 351.0 44.4
372(19) 0.002688 351.0 44.2
386(20) 0.002591 351.1 43.9
331(18) 0.003021 351.2 43.7
349(19) 0.002865 351.3 43.5
365(19) 0.002740 351.4 43.4
377(19) 0.002653 351.4 43.3
328(18) 0.003049 351.5 43.1
351(19) 0.002849 351.6 43.0
381(20) 0.002625 351.7 42.9
379(19) 0.002639 351.8 42.8
404(20) 0.002475 351.8 42.6
389(20) 0.002571 351.9 42.4
350(19) 0.002857 352.0 42.1
363(19) 0.002755 352.1 41.8
387(20) 0.002584 352.2 41.5
349(19) 0.002865 352.3 41.1
368(19) 0.002717 352.3 40.7
372(19) 0.002688 352.4 40.4
354(19) 0.002825 352.5 40.2
349(19) 0.002865 352.6 40.0
389(20) 0.002571 352.7 40.0
396(20) 0.002525 352.7 40.0
367(19) 0.002725 352.8 40.3
389(20) 0.002571 352.9 40.7
385(20) 0.002597 353.0 41.4
383(20) 0.002611 353.1 42.4
379(19) 0.002639 353.1 43.8
419(20) 0.002387 353.2 45.8
400(20) 0.002500 353.3 48.6
395(20) 0.002532 353.4 52.4
384(20) 0.002604 353.5 57.3
429(21) 0.002331 353.5 63.8
440(21) 0.002273 353.6 71.9
419(20) 0.002387 353.7 81.8
474(22) 0.002110 353.8 93.6
489(22) 0.002045 353.9 107.0
480(22) 0.002083 353.9 121.4
472(22) 0.002119 354.0 135.9
468(22) 0.002137 354.1 148.8
483(22) 0.002070 354.2 157.8
461(21) 0.002169 354.3 161.0
461(21) 0.002169 354.4 157.7
472(22) 0.002119 354.4 148.6
447(21) 0.002237 354.5 135.9
423(21) 0.002364 354.6 121.6
388(20) 0.002577 354.7 107.4
415(20) 0.002410 354.8 94.4
419(20) 0.002387 354.8 83.0
404(20) 0.002475 354.9 73.4
393(20) 0.002545 355.0 65.7
417(20) 0.002398 355.1 59.7
442(21) 0.002262 355.2 55.2
406(20) 0.002463 355.2 51.8
391(20) 0.002558 355.3 49.4
403(20) 0.002481 355.4 47.7
374(19) 0.002674 355.5 46.6
363(19) 0.002755 355.6 45.8
330(18) 0.003030 355.6 45.3
398(20) 0.002513 355.7 45.0
379(19) 0.002639 355.8 44.9
356(19) 0.002809 355.9 44.9
347(19) 0.002882 355.8 45.0
385(20) 0.002597 355.7 45.2
360(19) 0.002778 355.7 45.5
379(19) 0.002639 355.6 45.9
367(19) 0.002725 355.5 46.4
414(20) 0.002415 355.5 47.1
335(18) 0.002985 355.4 47.8
393(20) 0.002545 355.3 48.7
387(20) 0.002584 355.3 49.7
382(20) 0.002618 355.2 50.7
352(19) 0.002841 355.2 51.9
388(20) 0.002577 355.1 53.2
419(20) 0.002387 355.0 54.6
411(20) 0.002433 355.0 56.0
405(20) 0.002469 354.9 57.6
393(20) 0.002545 354.8 59.2
399(20) 0.002506 354.8 61.0
396(20) 0.002525 354.7 62.8
441(21) 0.002268 354.7 64.7
390(20) 0.002564 354.6 66.6
397(20) 0.002519 354.5 68.6
436(21) 0.002294 354.5 70.7
435(21) 0.002299 354.4 72.7
405(20) 0.002469 354.3 74.8
436(21) 0.002294 354.3 76.9
436(21) 0.002294 354.2 79.0
443(21) 0.002257 354.1 81.0
431(21) 0.002320 354.1 83.0
456(21) 0.002193 354.0 84.9
456(21) 0.002193 354.0 86.7
464(22) 0.002155 353.9 88.4
445(21) 0.002247 353.8 89.9
417(20) 0.002398 353.8 91.3
449(21) 0.002227 353.7 92.6
453(21) 0.002208 353.6 93.6
469(22) 0.002132 353.6 94.5
436(21) 0.002294 353.5 95.3
486(22) 0.002058 353.5 95.9
470(22) 0.002128 353.4 96.4
443(21) 0.002257 353.3 96.8
448(21) 0.002232 353.3 97.1
433(21) 0.002309 353.2 97.3
489(22) 0.002045 353.1 97.5
480(22) 0.002083 353.1 97.5
499(22) 0.002004 353.0 97.5
475(22) 0.002105 352.9 97.5
467(22) 0.002141 352.9 97.3
447(21) 0.002237 352.8 97.1
477(22) 0.002096 352.8 96.7
464(22) 0.002155 352.7 96.2
488(22) 0.002049 352.6 95.5
493(22) 0.002028 352.6 94.7
450(21) 0.002222 352.5 93.6
431(21) 0.002320 352.4 92.4
433(21) 0.002309 352.4 91.0
401(20) 0.002494 352.3 89.4
428(21) 0.002336 352.3 87.8
461(21) 0.002169 352.2 86.1
409(20) 0.002445 352.1 84.3
411(20) 0.002433 352.1 82.5
452(21) 0.002212 352.0 80.6
443(21) 0.002257 351.9 78.7
419(20) 0.002387 351.9 76.8
431(21) 0.002320 351.8 74.9
439(21) 0.002278 351.8 73.1
439(21) 0.002278 351.7 71.2
452(21) 0.002212 351.6 69.4
438(21) 0.002283 351.6 67.6
424(21) 0.002358 351.5 65.9
437(21) 0.002288 351.4 64.3
394(20) 0.002538 351.4 62.8
409(20) 0.002445 351.3 61.3
413(20) 0.002421 351.2 59.9
397(20) 0.002519 351.2 58.7
383(20) 0.002611 351.1 57.5
390(20) 0.002564 351.1 56.4
372(19) 0.002688 351.0 55.4
398(20) 0.002513 350.9 54.5
403(20) 0.002481 350.9 53.8
404(20) 0.002475 350.8 53.1
375(19) 0.002667 350.7 52.6
391(20) 0.002558 350.7 52.3
408(20) 0.002451 350.6 52.1
399(20) 0.002506 350.6 52.2
385(20) 0.002597 350.5 52.7
418(20) 0.002392 350.4 53.7
405(20) 0.002469 350.4 55.5
421(21) 0.002375 350.3 58.1
375(19) 0.002667 350.2 61.7
391(20) 0.002558 350.2 66.2
401(20) 0.002494 350.1 71.2
382(20) 0.002618 350.0 75.7
373(19) 0.002681 350.0 78.2
386(20) 0.002591 349.9 77.4
385(20) 0.002597 349.9 74.0
387(20) 0.002584 349.8 69.6
403(20) 0.002481 349.7 65.5
377(19) 0.002653 349.7 62.5
397(20) 0.002519 349.6 60.7
405(20) 0.002469 349.5 60.0
385(20) 0.002597 349.5 60.3
377(19) 0.002653 349.4 61.4
374(19) 0.002674 349.4 62.9
425(21) 0.002353 349.3 64.7
375(19) 0.002667 349.2 66.4
378(19) 0.002646 349.2 67.9
370(19) 0.002703 349.1 68.9
397(20) 0.002519 349.0 69.3
394(20) 0.002538 349.0 69.0
372(19) 0.002688 348.9 68.0
388(20) 0.002577 348.8 66.6
376(19) 0.002660 348.8 64.8
379(19) 0.002639 348.7 62.7
385(20) 0.002597 348.7 60.6
383(20) 0.002611 348.6 58.4
367(19) 0.002725 348.5 56.3
374(19) 0.002674 348.5 54.4
378(19) 0.002646 348.4 52.5
343(19) 0.002915 348.3 50.9
340(18) 0.002941 348.3 49.5
378(19) 0.002646 348.2 48.3
376(19) 0.002660 348.2 47.3
389(20) 0.002571 348.1 46.6
381(20) 0.002625 348.0 46.1
381(20) 0.002625 348.0 45.9
396(20) 0.002525 347.9 45.8
375(19) 0.002667 347.8 46.1
347(19) 0.002882 347.8 46.5
351(19) 0.002849 347.7 47.2
380(19) 0.002632 347.6 48.1
418(20) 0.002392 347.6 49.3
372(19) 0.002688 347.5 50.7
367(19) 0.002725 347.5 52.5
400(20) 0.002500 347.4 54.6
378(19) 0.002646 347.3 57.1
369(19) 0.002710 347.3 60.0
409(20) 0.002445 347.2 63.4
394(20) 0.002538 347.1 67.3
382(20) 0.002618 347.1 71.7
411(20) 0.002433 347.0 76.6
425(21) 0.002353 347.0 81.9
397(20) 0.002519 346.9 87.4
417(20) 0.002398 346.8 92.9
432(21) 0.002315 346.8 98.0
397(20) 0.002519 346.7 102.3
446(21) 0.002242 346.6 105.2
440(21) 0.002273 346.6 106.4
428(21) 0.002336 346.5 106.0
421(21) 0.002375 346.4 104.4
419(20) 0.002387 346.4 102.0
386(20) 0.002591 346.3 99.1
399(20) 0.002506 346.3 96.0
425(21) 0.002353 346.2 92.5
414(20) 0.002415 346.1 88.9
380(19) 0.002632 346.1 85.2
416(20) 0.002404 346.0 81.4
375(19) 0.002667 345.9 77.6
372(19) 0.002688 345.9 73.9
374(19) 0.002674 345.8 70.3
352(19) 0.002841 345.8 67.1
392(20) 0.002551 345.7 64.1
393(20) 0.002545 345.6 61.3
383(20) 0.002611 345.6 58.9
395(20) 0.002532 345.5 56.7
371(19) 0.002695 345.4 54.8
395(20) 0.002532 345.4 53.1
393(20) 0.002545 345.3 51.6
366(19) 0.002732 345.2 50.3
373(19) 0.002681 345.2 49.2
351(19) 0.002849 345.1 48.1
364(19) 0.002747 345.1 47.2
368(19) 0.002717 345.0 46.2
353(19) 0.002833 344.9 45.4
363(19) 0.002755 344.9 44.5
390(20) 0.002564 344.8 43.6
371(19) 0.002695 344.7 42.7
347(19) 0.002882 344.7 41.8
368(19) 0.002717 344.6 40.9
352(19) 0.002841 344.6 39.9
371(19) 0.002695 344.5 39.0
364(19) 0.002747 344.4 38.1
338(18) 0.002959 344.4 37.1
373(19) 0.002681 344.3 36.1
381(20) 0.002625 344.2 35.2
364(19) 0.002747 344.2 34.2
340(18) 0.002941 344.1 33.1
332(18) 0.003012 344.0 32.1
345(19) 0.002899 344.0 31.1
331(18) 0.003021 343.9 30.0
335(18) 0.002985 343.9 29.0
326(18) 0.003067 343.8 27.9
348(19) 0.002874 343.7 26.8
350(19) 0.002857 343.7 25.8
357(19) 0.002801 343.6 24.7
349(19) 0.002865 343.5 23.7
350(19) 0.002857 343.5 22.8
370(19) 0.002703 343.4 21.8
325(18) 0.003077 343.4 20.9
341(18) 0.002933 343.3 20.0
342(18) 0.002924 343.2 19.2
352(19) 0.002841 343.2 18.4
339(18) 0.002950 343.1 17.7
333(18) 0.003003 343.0 17.0
321(18) 0.003115 343.0 16.4
339(18) 0.002950 342.9 15.8
321(18) 0.003115 342.8 15.2
326(18) 0.003067 342.8 14.7
336(18) 0.002976 342.7 14.2
343(19) 0.002915 342.7 13.7
348(19) 0.002874 342.6 13.3
360(19) 0.002778 342.5 12.9
439(21) 0.002278 342.5 12.6
436(21) 0.002294 342.4 12.3
352(19) 0.002841 342.3 12.0
338(18) 0.002959 342.3 11.7
347(19) 0.002882 342.2 11.5
357(19) 0.002801 342.2 11.2
313(18) 0.003195 342.1 11.0
324(18) 0.003086 342.0 10.9
321(18) 0.003115 342.0 10.7
327(18) 0.003058 341.9 10.5
352(19) 0.002841 341.8 10.4
321(18) 0.003115 341.8 10.3
347(19) 0.002882 341.7 10.2
332(18) 0.003012 341.6 10.1
308(18) 0.003247 341.6 10.0
317(18) 0.003155 339.9 10.0
321(18) 0.003115 337.6 9.9
294(17) 0.003401 335.3 9.9
338(18) 0.002959 333.0 9.9
304(17) 0.003289 330.7 9.8
321(18) 0.003115 328.5 9.8
304(17) 0.003289 326.2 9.9
307(18) 0.003257 323.9 9.9
304(17) 0.003289 321.6 9.9
329(18) 0.003039 319.3 10.0
331(18) 0.003021 317.1 10.0
319(18) 0.003135 314.8 10.1
346(19) 0.002890 312.5 10.2
296(17) 0.003378 310.2 10.3
281(17) 0.00356 307.9 10.4
300(17) 0.003333 305.7 10.5
309(18) 0.003236 303.4 10.7
309(18) 0.003236 301.1 10.9
325(18) 0.003077 300.8 11.1
300(17) 0.003333 301.1 11.3
313(18) 0.003195 301.4 11.5
320(18) 0.003125 301.7 11.8
307(18) 0.003257 302.0 12.1
344(19) 0.002907 302.3 12.4
295(17) 0.003390 302.6 12.7
325(18) 0.003077 302.9 13.1
293(17) 0.003413 303.2 13.5
297(17) 0.003367 303.5 13.9
312(18) 0.003205 303.8 14.3
308(18) 0.003247 304.1 14.8
304(17) 0.003289 304.4 15.3
314(18) 0.003185 304.7 15.9
334(18) 0.002994 305.0 16.4
320(18) 0.003125 305.4 17.0
309(18) 0.003236 305.7 17.7
352(19) 0.002841 306.0 18.3
344(19) 0.002907 306.3 19.0
336(18) 0.002976 306.6 19.7
343(19) 0.002915 306.9 20.4
357(19) 0.002801 307.2 21.1
356(19) 0.002809 307.5 21.8
358(19) 0.002793 307.8 22.5
331(18) 0.003021 308.1 23.2
340(18) 0.002941 308.4 23.9
349(19) 0.002865 308.7 24.6
334(18) 0.002994 309.0 25.2
357(19) 0.002801 309.3 25.8
388(20) 0.002577 309.6 26.4
351(19) 0.002849 310.0 26.9
370(19) 0.002703 310.3 27.4
364(19) 0.002747 310.6 27.8
365(19) 0.002740 310.9 28.2
391(20) 0.002558 311.2 28.5
369(19) 0.002710 311.5 28.7
358(19) 0.002793 311.8 29.0
343(19) 0.002915 312.1 29.1
377(19) 0.002653 312.4 29.3
357(19) 0.002801 312.7 29.4
345(19) 0.002899 313.0 29.6
349(19) 0.002865 313.3 29.7
354(19) 0.002825 313.6 29.9
354(19) 0.002825 313.9 30.0
347(19) 0.002882 314.2 30.2
363(19) 0.002755 314.6 30.4
360(19) 0.002778 314.9 30.7
373(19) 0.002681 315.2 31.0
369(19) 0.002710 315.5 31.3
335(18) 0.002985 315.8 31.7
345(19) 0.002899 316.1 32.1
352(19) 0.002841 316.4 32.5
326(18) 0.003067 316.7 33.1
379(19) 0.002639 317.0 33.6
344(19) 0.002907 317.3 34.3
324(18) 0.003086 317.6 34.9
332(18) 0.003012 317.9 35.6
334(18) 0.002994 318.2 36.4
345(19) 0.002899 318.5 37.2
344(19) 0.002907 318.8 38.1
362(19) 0.002762 319.2 39.0
363(19) 0.002755 319.5 39.9
368(19) 0.002717 319.8 40.9
354(19) 0.002825 320.1 41.9
359(19) 0.002786 320.4 43.0
352(19) 0.002841 320.7 44.1
368(19) 0.002717 321.0 45.2
352(19) 0.002841 321.3 46.3
357(19) 0.002801 321.6 47.4
369(19) 0.002710 321.9 48.6
398(20) 0.002513 322.2 49.7
366(19) 0.002732 322.5 50.7
413(20) 0.002421 322.8 51.8
399(20) 0.002506 323.1 52.8
373(19) 0.002681 323.4 53.7
388(20) 0.002577 323.8 54.5
353(19) 0.002833 324.1 55.2
385(20) 0.002597 324.4 55.8
391(20) 0.002558 324.7 56.3
392(20) 0.002551 325.0 56.6
388(20) 0.002577 325.3 56.8
373(19) 0.002681 325.6 56.8
356(19) 0.002809 325.9 56.7
391(20) 0.002558 326.2 56.4
374(19) 0.002674 326.5 56.1
369(19) 0.002710 326.8 55.6
342(18) 0.002924 327.1 55.0
408(20) 0.002451 327.4 54.4
348(19) 0.002874 327.7 53.7
376(19) 0.002660 328.0 52.9
370(19) 0.002703 328.4 52.2
367(19) 0.002725 328.7 51.4
359(19) 0.002786 329.0 50.6
363(19) 0.002755 329.3 49.9
328(18) 0.003049 329.6 49.2
362(19) 0.002762 329.9 48.5
345(19) 0.002899 330.2 47.9
361(19) 0.002770 330.5 47.4
324(18) 0.003086 330.8 46.9
346(19) 0.002890 331.1 46.5
334(18) 0.002994 331.4 46.2
354(19) 0.002825 331.7 46.0
349(19) 0.002865 332.0 45.8
355(19) 0.002817 332.3 45.8
350(19) 0.002857 332.6 45.9
355(19) 0.002817 333.0 46.0
363(19) 0.002755 333.3 46.3
388(20) 0.002577 333.6 46.6
377(19) 0.002653 333.9 47.1
384(20) 0.002604 334.2 47.6
364(19) 0.002747 334.5 48.3
349(19) 0.002865 334.8 49.0
376(19) 0.002660 335.1 49.8
360(19) 0.002778 335.4 50.6
391(20) 0.002558 335.7 51.6
379(19) 0.002639 336.0 52.6
376(19) 0.002660 336.3 53.6
375(19) 0.002667 336.6 54.7
388(20) 0.002577 336.9 55.8
362(19) 0.002762 337.2 57.0
400(20) 0.002500 337.6 58.3
375(19) 0.002667 337.9 59.7
423(21) 0.002364 338.2 61.3
420(20) 0.002381 338.5 63.1
374(19) 0.002674 338.8 65.2
381(20) 0.002625 339.1 67.7
399(20) 0.002506 339.4 70.3
386(20) 0.002591 339.7 73.1
410(20) 0.002439 340.0 75.6
434(21) 0.002304 340.3 77.4
404(20) 0.002475 340.6 77.8
400(20) 0.002500 340.9 76.3
399(20) 0.002506 341.2 73.3
421(21) 0.002375 341.5 69.3
376(19) 0.002660 341.8 65.1
433(21) 0.002309 342.2 61.0
396(20) 0.002525 342.5 57.4
388(20) 0.002577 342.8 54.4
389(20) 0.002571 343.1 52.0
375(19) 0.002667 343.4 50.2
388(20) 0.002577 343.7 48.9
390(20) 0.002564 344.0 48.1
386(20) 0.002591 344.3 47.6
354(19) 0.002825 344.6 47.5
378(19) 0.002646 344.9 47.6
364(19) 0.002747 345.2 47.8
397(20) 0.002519 345.5 48.1
378(19) 0.002646 345.8 48.4
395(20) 0.002532 346.1 48.6
354(19) 0.002825 346.4 48.7
380(19) 0.002632 346.8 48.4
365(19) 0.002740 347.1 47.8
361(19) 0.002770 347.4 46.9
343(19) 0.002915 347.7 45.6
346(19) 0.002890 348.0 43.9
349(19) 0.002865 348.3 42.0
390(20) 0.002564 348.6 39.9
362(19) 0.002762 348.9 37.8
352(19) 0.002841 349.2 35.6
360(19) 0.002778 349.5 33.5
340(18) 0.002941 349.8 31.4
360(19) 0.002778 350.1 29.5
370(19) 0.002703 350.4 27.7
357(19) 0.002801 350.7 26.0
342(18) 0.002924 351.0 24.5
327(18) 0.003058 351.4 23.2
322(18) 0.003106 351.7 22.0
338(18) 0.002959 352.0 21.0
324(18) 0.003086 352.3 20.0
341(18) 0.002933 352.6 19.3
320(18) 0.003125 352.9 18.6
295(17) 0.003390 353.2 18.0
318(18) 0.003145 353.5 17.6
314(18) 0.003185 350.3 17.2
310(18) 0.003226 336.7 16.9
319(18) 0.003135 323.1 16.6
334(18) 0.002994 316.4 16.4
347(19) 0.002882 316.6 16.3
342(18) 0.002924 316.7 16.2
304(17) 0.003289 316.8 16.1
335(18) 0.002985 317.0 16.1
324(18) 0.003086 317.1 16.1
325(18) 0.003077 317.3 16.2
335(18) 0.002985 317.4 16.2
334(18) 0.002994 317.6 16.4
307(18) 0.003257 317.7 16.5
327(18) 0.003058 317.8 16.7
327(18) 0.003058 318.0 16.9
298(17) 0.003356 318.1 17.1
315(18) 0.003175 318.3 17.4
312(18) 0.003205 318.4 17.7
336(18) 0.002976 318.6 18.0
331(18) 0.003021 318.7 18.4
334(18) 0.002994 318.8 18.8
311(18) 0.003215 319.0 19.3
319(18) 0.003135 319.1 19.8
322(18) 0.003106 319.3 20.4
350(19) 0.002857 319.4 21.0
346(19) 0.002890 319.6 21.7
315(18) 0.003175 319.7 22.5
315(18) 0.003175 319.8 23.5
332(18) 0.003012 320.0 24.5
363(19) 0.002755 320.1 25.7
358(19) 0.002793 320.3 27.1
347(19) 0.002882 320.4 28.7
343(19) 0.002915 320.5 30.5
348(19) 0.002874 320.7 32.5
322(18) 0.003106 320.8 34.7
324(18) 0.003086 321.0 37.1
372(19) 0.002688 321.1 39.6
387(20) 0.002584 321.3 42.1
358(19) 0.002793 321.4 44.6
383(20) 0.002611 321.5 47.0
377(19) 0.002653 321.7 48.9
363(19) 0.002755 321.8 50.4
387(20) 0.002584 322.0 51.3
385(20) 0.002597 322.1 51.7
389(20) 0.002571 322.3 51.7
369(19) 0.002710 322.4 51.5
368(19) 0.002717 322.5 51.2
350(19) 0.002857 322.7 50.9
342(18) 0.002924 322.8 50.7
394(20) 0.002538 323.0 50.7
352(19) 0.002841 323.1 50.7
385(20) 0.002597 323.3 50.8
390(20) 0.002564 323.4 51.0
374(19) 0.002674 323.5 51.2
362(19) 0.002762 323.7 51.5
369(19) 0.002710 323.8 51.7
405(20) 0.002469 324.0 51.8
361(19) 0.002770 324.1 51.9
404(20) 0.002475 324.3 51.9
396(20) 0.002525 324.4 51.9
390(20) 0.002564 324.5 51.8
415(20) 0.002410 324.7 51.7
385(20) 0.002597 324.8 51.6
389(20) 0.002571 325.0 51.5
365(19) 0.002740 325.1 51.4
385(20) 0.002597 325.3 51.3
388(20) 0.002577 325.4 51.2
412(20) 0.002427 325.5 51.2
386(20) 0.002591 325.7 51.2
386(20) 0.002591 325.8 51.1
395(20) 0.002532 326.0 51.2
393(20) 0.002545 326.1 51.2
380(19) 0.002632 326.3 51.3
381(20) 0.002625 326.4 51.3
382(20) 0.002618 326.5 51.4
392(20) 0.002551 326.7 51.5
377(19) 0.002653 326.8 51.5
423(21) 0.002364 327.0 51.6
403(20) 0.002481 327.1 51.6
393(20) 0.002545 327.3 51.6
420(20) 0.002381 327.4 51.6
437(21) 0.002288 327.5 51.6
408(20) 0.002451 327.7 51.5
413(20) 0.002421 327.8 51.4
415(20) 0.002410 328.0 51.2
391(20) 0.002558 328.1 51.1
406(20) 0.002463 328.3 50.8
427(21) 0.002342 328.4 50.6
392(20) 0.002551 328.5 50.3
395(20) 0.002532 328.7 49.9
377(19) 0.002653 328.8 49.5
374(19) 0.002674 329.0 49.1
394(20) 0.002538 329.1 48.6
368(19) 0.002717 329.3 48.1
388(20) 0.002577 329.4 47.6
399(20) 0.002506 329.5 47.0
380(19) 0.002632 329.7 46.4
398(20) 0.002513 329.8 45.8
369(19) 0.002710 330.0 45.1
380(19) 0.002632 330.1 44.4
362(19) 0.002762 330.3 43.7
390(20) 0.002564 330.4 43.0
375(19) 0.002667 330.5 42.3
403(20) 0.002481 330.7 41.6
395(20) 0.002532 330.8 40.8
385(20) 0.002597 331.0 40.1
389(20) 0.002571 331.1 39.3
398(20) 0.002513 331.2 38.6
386(20) 0.002591 331.4 37.8
366(19) 0.002732 331.5 37.1
362(19) 0.002762 331.7 36.3
404(20) 0.002475 331.8 35.6
372(19) 0.002688 332.0 34.9
368(19) 0.002717 332.1 34.2
365(19) 0.002740 332.2 33.4
373(19) 0.002681 332.4 32.7
359(19) 0.002786 332.5 32.0
364(19) 0.002747 332.7 31.4
371(19) 0.002695 332.8 30.7
365(19) 0.002740 333.0 30.0
345(19) 0.002899 333.1 29.4
351(19) 0.002849 333.2 28.7
348(19) 0.002874 333.4 28.1
369(19) 0.002710 333.5 27.5
341(18) 0.002933 333.7 26.9
365(19) 0.002740 333.8 26.3
381(20) 0.002625 334.0 25.7
349(19) 0.002865 334.1 25.1
369(19) 0.002710 334.2 24.5
380(19) 0.002632 334.4 24.0
371(19) 0.002695 334.5 23.4
367(19) 0.002725 334.7 22.9
353(19) 0.002833 334.8 22.4
367(19) 0.002725 335.0 21.9
373(19) 0.002681 335.1 21.4
363(19) 0.002755 335.2 20.9
370(19) 0.002703 335.4 20.5
339(18) 0.002950 335.5 20.0
377(19) 0.002653 335.7 19.6
367(19) 0.002725 335.8 19.2
374(19) 0.002674 336.0 18.8
358(19) 0.002793 336.1 18.4
355(19) 0.002817 336.2 18.0
374(19) 0.002674 336.4 17.7
344(19) 0.002907 336.5 17.3
352(19) 0.002841 336.7 17.0
353(19) 0.002833 336.8 16.7
334(18) 0.002994 337.0 16.4
369(19) 0.002710 337.1 16.1
350(19) 0.002857 337.2 15.9
368(19) 0.002717 337.4 15.7
376(19) 0.002660 337.5 15.4
392(20) 0.002551 337.7 15.2
350(19) 0.002857 337.9 15.0
334(18) 0.002994 338.1 14.8
339(18) 0.002950 338.2 14.7
342(18) 0.002924 338.4 14.5
346(19) 0.002890 338.6 14.4
386(20) 0.002591 338.7 14.3
358(19) 0.002793 338.9 14.2
361(19) 0.002770 339.1 14.1
363(19) 0.002755 339.2 14.0
359(19) 0.002786 339.4 13.9
392(20) 0.002551 339.6 13.9
369(19) 0.002710 339.7 13.8
349(19) 0.002865 339.9 13.8
374(19) 0.002674 340.1 13.8
328(18) 0.003049 340.2 13.8
364(19) 0.002747 340.4 13.8
375(19) 0.002667 340.6 13.8
393(20) 0.002545 340.7 13.9
396(20) 0.002525 340.9 13.9
321(18) 0.003115 341.1 14.0
369(19) 0.002710 341.2 14.0
397(20) 0.002519 341.4 14.1
362(19) 0.002762 341.6 14.2
357(19) 0.002801 341.8 14.3
426(21) 0.002347 341.9 14.4
391(20) 0.002558 342.1 14.5
431(21) 0.002320 342.3 14.6
384(20) 0.002604 342.4 14.8
376(19) 0.002660 342.6 14.9
391(20) 0.002558 342.8 15.1
393(20) 0.002545 342.9 15.2
417(20) 0.002398 343.1 15.4
394(20) 0.002538 343.3 15.6
402(20) 0.002488 343.4 15.7
406(20) 0.002463 343.6 15.9
390(20) 0.002564 343.8 16.1
417(20) 0.002398 343.9 16.3
429(21) 0.002331 344.1 16.6
424(21) 0.002358 344.3 16.8
411(20) 0.002433 344.4 17.0
416(20) 0.002404 344.6 17.3
397(20) 0.002519 344.8 17.5
413(20) 0.002421 344.9 17.8
432(21) 0.002315 345.1 18.0
424(21) 0.002358 345.3 18.3
462(21) 0.002164 345.5 18.6
455(21) 0.002198 345.6 18.9
470(22) 0.0 0.0 .
452(21) 0.0 0.0 .
446(21) 0.0 0.0 .
478(22) 0.0 0.0 .
522(23) 0.0 0.0 .
459(21) 0.0 0.0 .
480(22) 0.0 0.0 .
479(22) 0.0 0.0 .
497(22) 0.0 0.0 .
506(22) 0.0 0.0 .
485(22) 0.0 0.0 .
547(23) 0.0 0.0 .
533(23) 0.0 0.0 .
532(23) 0.0 0.0 .
545(23) 0.0 0.0 .
589(24) 0.0 0.0 .
574(24) 0.0 0.0 .
559(24) 0.0 0.0 .
603(25) 0.0 0.0 .
606(25) 0.0 0.0 .
632(25) 0.0 0.0 .
639(25) 0.0 0.0 .
644(25) 0.0 0.0 .
680(26) 0.0 0.0 .
732(27) 0.0 0.0 .
702(26) 0.0 0.0 .
723(27) 0.0 0.0 .
756(27) 0.0 0.0 .
748(27) 0.0 0.0 .
778(28) 0.0 0.0 .
891(30) 0.0 0.0 .
887(30) 0.0 0.0 .
915(30) 0.0 0.0 .
950(31) 0.0 0.0 .
1064(33) 0.0 0.0 .
1139(34) 0.0 0.0 .
1224(35) 0.0 0.0 .
1299(36) 0.0 0. .
1324(36) 0.0 0. .
1457(38) 0.0 0. .
1579(40) 0.0 0. .
1754(42) 0.0 0. .
1883(43) 0.0 0. .
2074(46) 0.0 0. .
2298(48) 0.0 0. .
2524(50) 0.0 0. .
2801(53) 0.0 0. .
3236(57) 0.0 0. .
3761(61) 0.0 0. .
4291(66) 0.0 0. .
5161(72) 0.0 0. .
6179(79) 0.0 0. .
7360(86) 0.0 0. .
9129(96) 0.0 0. .
11210(110) 0.0 0. .
14170(120) 0.0 0. .
18280(140) 0.0 0. .
23710(150) 0.0 0. .
31260(180) 0.0 0. .
41420(200) 0.0 0. .
54870(230) 0.0 0. .
68930(260) 0.0 0. .
80170(280) 0.0 0. .
83850(290) 0.0 0. .
78890(280) 0.0 0. .
68490(260) 0.0 0. .
54140(230) 0.0 0. .
40780(200) 0.0 0. .
30610(180) 0.0 0. .
23060(150) 0.0 0. .
17760(130) 0.0 0. .
13840(120) 0.0 0. .
10960(110) 0.0 0. .
8883(94) 0.0 0. .
7397(86) 0.0 0. .
6131(78) 0.0 0. .
5342(73) 0.0 0. .
4456(67) 0.0 0. .
3803(62) 0.0 0. .
3314(58) 0.0 0. .
3026(55) 0.0 0. .
2615(51) 0.0 0. .
2369(49) 0.0 0. .
2044(45) 0.0 0. .
1846(43) 0.0 0. .
1733(42) 0.0 0. .
1583(40) 0.0 0. .
1503(39) 0.0 0. .
1357(37) 0.0 0. .
1291(36) 0.0 0. .
1187(34) 0.0 0.0 .
1191(35) 0.0 0.0 .
1128(34) 0.0 0.0 .
1030(32) 0.0 0.0 .
942(31) 0.0 0.0 .
906(30) 0.0 0.0 .
893(30) 0.0 0.0 .
876(30) 0.0 0.0 .
834(29) 0.0 0.0 .
833(29) 0.0 0.0 .
801(28) 0.0 0.0 .
777(28) 0.0 0.0 .
771(28) 0.0 0.0 .
737(27) 0.0 0.0 .
696(26) 0.0 0.0 .
642(25) 0.0 0.0 .
662(26) 0.0 0.0 .
635(25) 0.0 0.0 .
644(25) 0.0 0.0 .
609(25) 0.0 0.0 .
612(25) 0.0 0.0 .
651(26) 0.0 0.0 .
582(24) 0.0 0.0 .
635(25) 0.0 0.0 .
591(24) 0.0 0.0 .
544(23) 0.0 0.0 .
579(24) 0.0 0.0 .
557(24) 0.0 0.0 .
573(24) 0.0 0.0 .
556(24) 0.0 0.0 .
522(23) 0.0 0.0 .
494(22) 0.0 0.0 .
504(22) 0.0 0.0 .
501(22) 0.0 0.0 .
528(23) 0.0 0.0 .
525(23) 0.0 0.0 .
498(22) 0.0 0.0 .
468(22) 0.0 0.0 .
499(22) 0.0 0.0 .
488(22) 0.0 0.0 .
472(22) 0.0 0.0 .
475(22) 0.0 0.0 .
494(22) 0.0 0.0 .
442(21) 0.0 0.0 .
467(22) 0.0 0.0 .
453(21) 0.0 0.0 .
452(21) 0.0 0.0 .
443(21) 0.0 0.0 .
436(21) 0.0 0.0 .
425(21) 0.0 0.0 .
477(22) 0.0 0.0 .
426(21) 0.0 0.0 .
434(21) 0.0 0.0 .
397(20) 0.0 0.0 .
423(21) 0.0 0.0 .
404(20) 0.002475 370.2 37.9
428(21) 0.002336 370.4 38.0
406(20) 0.002463 370.5 38.2
417(20) 0.002398 370.7 38.4
398(20) 0.002513 370.9 38.6
466(22) 0.002146 371.0 38.8
390(20) 0.002564 371.2 39.1
410(20) 0.002439 371.4 39.4
418(20) 0.002392 371.5 39.7
401(20) 0.002494 371.7 40.0
430(21) 0.002326 371.9 40.4
402(20) 0.002488 372.0 40.7
432(21) 0.002315 372.2 41.0
406(20) 0.002463 372.4 41.3
410(20) 0.002439 372.5 41.6
407(20) 0.002457 372.7 41.9
425(21) 0.002353 372.9 42.2
380(19) 0.002632 373.0 42.6
420(20) 0.002381 373.2 43.1
398(20) 0.002513 373.4 43.7
407(20) 0.002457 373.6 44.6
411(20) 0.002433 373.7 45.7
389(20) 0.002571 373.9 47.3
425(21) 0.002353 374.1 49.3
432(21) 0.002315 374.2 51.8
421(21) 0.002375 374.4 54.9
412(20) 0.002427 374.6 58.6
444(21) 0.002252 374.7 62.7
432(21) 0.002315 374.9 67.0
414(20) 0.002415 375.1 71.4
436(21) 0.002294 375.2 75.2
454(21) 0.002203 375.4 78.0
435(21) 0.002299 375.6 79.2
428(21) 0.002336 375.7 78.4
416(20) 0.002404 375.9 75.9
439(21) 0.002278 376.1 72.2
418(20) 0.002392 376.2 67.8
410(20) 0.002439 376.4 63.4
391(20) 0.002558 376.6 59.2
399(20) 0.002506 376.7 55.5
406(20) 0.002463 376.9 52.4
390(20) 0.002564 376.4 50.0
385(20) 0.002597 375.7 48.3
395(20) 0.002532 375.0 47.3
384(20) 0.002604 374.3 46.8
399(20) 0.002506 373.6 46.9
367(19) 0.002725 372.8 47.5
372(19) 0.002688 372.1 48.5
393(20) 0.002545 371.4 49.7
386(20) 0.002591 370.7 51.3
406(20) 0.002463 370.0 53.1
424(21) 0.002358 369.3 55.1
406(20) 0.002463 368.5 57.3
435(21) 0.002299 367.8 59.4
395(20) 0.002532 367.1 61.6
412(20) 0.002427 366.4 63.7
450(21) 0.002222 365.7 65.5
443(21) 0.002257 365.0 67.1
409(20) 0.002445 364.2 68.3
390(20) 0.002564 363.5 69.1
419(20) 0.002387 362.8 69.3
405(20) 0.002469 362.1 69.0
381(20) 0.002625 361.4 68.2
417(20) 0.002398 360.7 66.8
395(20) 0.002532 359.9 65.0
391(20) 0.002558 359.2 62.7
389(20) 0.002571 358.5 60.2
438(21) 0.002283 357.8 57.4
399(20) 0.002506 357.1 54.5
410(20) 0.002439 356.4 51.5
343(19) 0.002915 355.6 48.6
372(19) 0.002688 354.9 45.7
384(20) 0.002604 354.2 42.9
363(19) 0.002755 353.5 40.4
366(19) 0.002732 352.8 38.0
358(19) 0.002793 352.1 35.8
373(19) 0.002681 351.3 33.9
339(18) 0.002950 350.6 32.2
352(19) 0.002841 349.9 30.8
347(19) 0.002882 349.2 29.6
350(19) 0.002857 348.5 28.7
359(19) 0.002786 347.8 28.0
356(19) 0.002809 347.0 27.5
364(19) 0.002747 346.3 27.2
340(18) 0.002941 345.6 27.1
344(19) 0.002907 344.9 27.1
368(19) 0.002717 344.2 27.4
355(19) 0.002817 343.5 27.7
364(19) 0.002747 342.7 28.2
339(18) 0.002950 342.0 28.7
359(19) 0.002786 341.3 29.4
327(18) 0.003058 340.6 30.0
317(18) 0.003155 339.9 30.7
345(19) 0.002899 339.2 31.4
359(19) 0.002786 338.4 31.9
350(19) 0.002857 337.7 32.4
355(19) 0.002817 337.0 32.8
339(18) 0.002950 336.3 33.0
372(19) 0.002688 335.6 33.0
363(19) 0.002755 334.9 32.9
331(18) 0.003021 334.1 32.6
337(18) 0.002967 333.4 32.1
378(19) 0.002646 332.7 31.5
347(19) 0.002882 332.0 30.9
332(18) 0.003012 331.3 30.1
352(19) 0.002841 330.6 29.4
320(18) 0.003125 329.8 28.6
356(19) 0.002809 329.1 27.8
340(18) 0.002941 328.4 27.0
332(18) 0.003012 327.7 26.2
356(19) 0.002809 327.0 25.5
324(18) 0.003086 326.3 24.8
322(18) 0.003106 325.6 24.1
334(18) 0.002994 324.8 23.4
328(18) 0.003049 324.1 22.8
306(17) 0.003268 323.4 22.2
351(19) 0.002849 322.7 21.7
355(19) 0.002817 322.0 21.2
341(18) 0.002933 321.3 20.7
347(19) 0.002882 320.5 20.3
322(18) 0.003106 319.8 19.9
323(18) 0.003096 319.1 19.5
326(18) 0.003067 318.4 19.2
325(18) 0.003077 317.7 18.8
306(17) 0.003268 317.0 18.5
328(18) 0.003049 316.2 18.2
340(18) 0.002941 315.5 18.0
324(18) 0.003086 314.8 17.7
331(18) 0.003021 314.1 17.5
313(18) 0.003195 313.4 17.3
318(18) 0.003145 312.7 17.1
321(18) 0.003115 311.9 16.9
343(19) 0.002915 311.2 16.7
314(18) 0.003185 310.5 16.6
298(17) 0.003356 309.8 16.5
306(17) 0.003268 309.1 16.3
330(18) 0.003030 308.4 16.2
294(17) 0.003401 307.6 16.2
308(18) 0.003247 306.9 16.1
304(17) 0.003289 306.2 16.0
298(17) 0.003356 305.5 15.9
330(18) 0.003030 304.8 15.9
330(18) 0.003030 304.1 15.8
299(17) 0.003344 303.3 15.7
321(18) 0.003115 302.6 15.6
310(18) 0.003226 301.9 15.5
311(18) 0.003215 301.2 15.4
314(18) 0.003185 300.5 15.3
310(18) 0.003226 299.8 15.1
307(18) 0.003257 299.0 15.0
340(18) 0.002941 298.3 14.9
334(18) 0.002994 297.6 14.7
304(17) 0.003289 296.9 14.6
318(18) 0.003145 296.2 14.6
314(18) 0.003185 295.5 14.5
315(18) 0.003175 294.7 14.4
297(17) 0.003367 294.0 14.4
305(17) 0.003279 293.3 14.3
321(18) 0.003115 292.6 14.3
311(18) 0.003215 291.9 14.3
322(18) 0.003106 291.2 14.3
296(17) 0.003378 290.4 14.3
293(17) 0.003413 289.7 14.3
330(18) 0.003030 289.0 14.4
277(17) 0.00361 288.3 14.4
286(17) 0.003497 287.6 14.4
315(18) 0.003175 286.9 14.4
291(17) 0.003436 286.1 14.5
314(18) 0.003185 285.4 14.5
314(18) 0.003185 284.7 14.5
280(17) 0.00357 287.9 14.6
298(17) 0.003356 291.1 14.6
320(18) 0.003125 294.3 14.7
267(16) 0.00375 297.5 14.7
284(17) 0.00352 300.6 14.8
301(17) 0.003322 303.8 14.9
306(17) 0.003268 307.0 14.9
298(17) 0.003356 310.2 15.0
308(18) 0.003247 313.4 15.1
321(18) 0.003115 316.6 15.2
295(17) 0.003390 319.8 15.3
313(18) 0.003195 323.0 15.4
299(17) 0.003344 325.3 15.6
300(17) 0.003333 325.2 15.7
287(17) 0.003484 325.1 15.8
322(18) 0.003106 325.0 15.9
289(17) 0.003460 324.8 16.1
338(18) 0.002959 324.7 16.2
300(17) 0.003333 324.6 16.4
330(18) 0.003030 324.5 16.6
289(17) 0.003460 324.3 16.8
324(18) 0.003086 324.2 17.0
288(17) 0.003472 324.1 17.2
319(18) 0.003135 324.0 17.5
318(18) 0.003145 323.8 17.9
301(17) 0.003322 323.7 18.3
309(18) 0.003236 323.6 18.8
324(18) 0.003086 323.5 19.3
334(18) 0.002994 323.4 20.0
317(18) 0.003155 323.2 20.8
309(18) 0.003236 323.1 21.8
345(19) 0.002899 323.0 22.9
325(18) 0.003077 322.9 24.2
338(18) 0.002959 322.7 25.6
331(18) 0.003021 322.6 27.3
333(18) 0.003003 322.5 29.2
349(19) 0.002865 322.4 31.3
356(19) 0.002809 322.2 33.6
361(19) 0.002770 322.1 36.1
354(19) 0.002825 322.0 38.7
373(19) 0.002681 321.9 41.5
378(19) 0.002646 321.8 44.4
386(20) 0.002591 321.6 47.2
365(19) 0.002740 321.5 49.9
388(20) 0.002577 321.4 52.3
388(20) 0.002577 321.3 54.3
405(20) 0.002469 321.1 55.8
366(19) 0.002732 321.0 56.6
404(20) 0.002475 320.9 56.8
400(20) 0.002500 320.8 56.2
370(19) 0.002703 320.6 55.1
349(19) 0.002865 320.5 53.5
342(18) 0.002924 320.4 51.6
362(19) 0.002762 320.3 49.5
367(19) 0.002725 320.2 47.4
360(19) 0.002778 320.0 45.4
339(18) 0.002950 319.9 43.5
367(19) 0.002725 319.8 41.8
347(19) 0.002882 319.7 40.3
342(18) 0.002924 319.5 39.1
333(18) 0.003003 319.4 38.1
368(19) 0.002717 319.3 37.4
359(19) 0.002786 319.2 37.0
369(19) 0.002710 319.0 36.9
362(19) 0.002762 318.9 37.0
347(19) 0.002882 318.8 37.2
352(19) 0.002841 318.7 37.7
347(19) 0.002882 318.6 38.4
345(19) 0.002899 318.4 39.3
346(19) 0.002890 318.3 40.3
361(19) 0.002770 318.2 41.5
360(19) 0.002778 318.1 42.8
380(19) 0.002632 317.9 44.2
339(18) 0.002950 317.8 45.8
365(19) 0.002740 317.7 47.5
374(19) 0.002674 317.6 49.3
367(19) 0.002725 317.4 51.1
356(19) 0.002809 317.3 53.0
351(19) 0.002849 317.2 54.8
375(19) 0.002667 317.1 56.6
384(20) 0.002604 317.0 58.3
390(20) 0.002564 316.8 59.7
393(20) 0.002545 316.7 61.0
383(20) 0.002611 316.6 61.9
419(20) 0.002387 316.5 62.5
393(20) 0.002545 316.3 62.9
413(20) 0.002421 316.2 62.9
389(20) 0.002571 316.1 62.8
404(20) 0.002475 316.0 62.5
410(20) 0.002439 315.8 62.1
415(20) 0.002410 315.7 61.6
415(20) 0.002410 315.6 61.2
418(20) 0.002392 315.5 60.7
391(20) 0.002558 315.4 60.3
421(21) 0.002375 315.2 59.9
385(20) 0.002597 315.1 59.6
379(19) 0.002639 315.0 59.4
380(19) 0.002632 314.9 59.2
372(19) 0.002688 314.7 59.1
389(20) 0.002571 314.6 59.1
415(20) 0.002410 314.5 59.1
396(20) 0.002525 314.4 59.1
376(19) 0.002660 314.3 59.1
396(20) 0.002525 314.1 59.2
390(20) 0.002564 314.0 59.2
378(19) 0.002646 313.9 59.3
388(20) 0.002577 313.8 59.3
370(19) 0.002703 313.6 59.2
389(20) 0.002571 313.5 59.1
419(20) 0.002387 313.4 59.0
382(20) 0.002618 313.3 58.9
415(20) 0.002410 313.1 58.7
382(20) 0.002618 313.0 58.6
378(19) 0.002646 312.9 58.6
352(19) 0.002841 312.8 58.6
369(19) 0.002710 312.7 58.7
392(20) 0.002551 312.5 58.9
399(20) 0.002506 312.4 59.3
379(19) 0.002639 312.3 59.8
383(20) 0.002611 312.2 60.5
398(20) 0.002513 312.0 61.3
408(20) 0.002451 311.9 62.4
372(19) 0.002688 311.8 63.6
384(20) 0.002604 311.7 65.0
392(20) 0.002551 311.5 66.5
422(21) 0.002370 311.4 68.3
461(21) 0.002169 311.3 70.2
394(20) 0.002538 311.2 72.2
404(20) 0.002475 311.1 74.4
450(21) 0.002222 310.9 76.6
410(20) 0.002439 310.8 78.8
488(22) 0.002049 310.7 81.1
442(21) 0.002262 310.6 83.2
459(21) 0.002179 310.4 85.2
431(21) 0.002320 310.3 86.9
406(20) 0.002463 310.2 88.4
432(21) 0.002315 310.1 89.5
456(21) 0.002193 309.9 90.1
449(21) 0.002227 309.8 90.3
457(21) 0.002188 309.7 90.0
424(21) 0.002358 309.6 89.3
412(20) 0.002427 309.5 88.2
435(21) 0.002299 309.3 86.8
462(21) 0.002164 309.2 85.1
447(21) 0.002237 309.1 83.3
429(21) 0.002331 309.0 81.4
428(21) 0.002336 308.8 79.4
437(21) 0.002288 308.7 77.4
455(21) 0.002198 308.6 75.4
459(21) 0.002179 308.5 73.5
475(22) 0.002105 308.3 71.8
417(20) 0.002398 308.2 70.1
407(20) 0.002457 308.1 68.5
437(21) 0.002288 308.0 67.1
435(21) 0.002299 307.9 65.8
431(21) 0.002320 307.7 64.6
397(20) 0.002519 307.6 63.6
415(20) 0.002410 307.5 62.6
417(20) 0.002398 307.4 61.8
434(21) 0.002304 307.2 61.0
424(21) 0.002358 307.1 60.4
420(20) 0.002381 307.0 59.7
438(21) 0.002283 306.9 59.1
408(20) 0.002451 306.7 58.5
435(21) 0.002299 306.6 57.9
433(21) 0.002309 306.5 57.3
401(20) 0.002494 306.4 56.7
431(21) 0.002320 306.3 56.0
403(20) 0.002481 306.1 55.2
436(21) 0.002294 306.0 54.4
432(21) 0.002315 305.9 53.5
427(21) 0.002342 305.8 52.5
419(20) 0.002387 305.6 51.5
439(21) 0.002278 305.5 50.3
411(20) 0.002433 305.4 49.1
446(21) 0.002242 305.3 47.9
431(21) 0.002320 305.1 46.6
435(21) 0.002299 305.0 45.4
428(21) 0.002336 304.9 44.1
450(21) 0.002222 304.8 42.8
436(21) 0.002294 304.7 41.5
430(21) 0.002326 304.5 40.2
424(21) 0.002358 304.4 39.0
482(22) 0.002075 304.3 37.7
472(22) 0.002119 304.2 36.6
469(22) 0.002132 304.0 35.4
468(22) 0.002137 303.9 34.3
512(23) 0.001953 303.8 33.3
522(23) 0.0 0.0 .
513(23) 0.0 0.0 .
581(24) 0.0 0.0 .
573(24) 0.0 0.0 .
608(25) 0.0 0.0 .
656(26) 0.0 0.0 .
701(26) 0.0 0.0 .
796(28) 0.0 0.0 .
871(30) 0.0 0.0 .
1009(32) 0.0 0.0 .
1178(34) 0.0 0.0 .
1383(37) 0.0 0. .
1579(40) 0.0 0. .
1851(43) 0.0 0. .
2314(48) 0.0 0. .
2855(53) 0.0 0. .
3614(60) 0.0 0. .
4798(69) 0.0 0. .
6137(78) 0.0 0. .
7889(89) 0.0 0. .
9577(98) 0.0 0. .
11210(110) 0.0 0. .
11630(110) 0.0 0. .
10570(100) 0.0 0. .
8861(94) 0.0 0. .
6792(82) 0.0 0. .
5285(73) 0.0 0. .
4020(63) 0.0 0. .
3018(55) 0.0 0. .
2337(48) 0.0 0. .
1970(44) 0.0 0. .
1585(40) 0.0 0. .
1351(37) 0.0 0. .
1143(34) 0.0 0.0 .
985(31) 0.0 0.0 .
912(30) 0.0 0.0 .
813(29) 0.0 0.0 .
774(28) 0.0 0.0 .
639(25) 0.0 0.0 .
615(25) 0.0 0.0 .
542(23) 0.0 0.0 .
571(24) 0.0 0.0 .
508(23) 0.0 0.0 .
491(22) 0.0 0.0 .
478(22) 0.0 0.0 .
487(22) 0.0 0.0 .
472(22) 0.0 0.0 .
421(21) 0.0 0.0 .
439(21) 0.0 0.0 .
419(20) 0.0 0.0 .
428(21) 0.0 0.0 .
395(20) 0.0 0.0 .
401(20) 0.0 0.0 .
416(20) 0.0 0.0 .
372(19) 0.0 0.0 .
384(20) 0.0 0.0 .
354(19) 0.0 0.0 .
374(19) 0.0 0.0 .
392(20) 0.0 0.0 .
358(19) 0.0 0.0 .
352(19) 0.0 0.0 .
325(18) 0.0 0.0 .
349(19) 0.0 0.0 .
354(19) 0.0 0.0 .
336(18) 0.0 0.0 .
313(18) 0.0 0.0 .
363(19) 0.0 0.0 .
338(18) 0.0 0.0 .
356(19) 0.0 0.0 .
319(18) 0.0 0.0 .
338(18) 0.0 0.0 .
296(17) 0.0 0.0 .
346(19) 0.0 0.0 .
310(18) 0.003226 294.7 30.9
318(18) 0.003145 294.6 31.3
335(18) 0.002985 294.5 31.9
339(18) 0.002950 294.3 32.4
309(18) 0.003236 294.2 33.1
364(19) 0.002747 294.1 33.7
322(18) 0.003106 294.0 34.4
347(19) 0.002882 293.8 35.1
345(19) 0.002899 293.7 35.9
314(18) 0.003185 293.6 36.7
345(19) 0.002899 293.5 37.5
356(19) 0.002809 293.3 38.4
342(18) 0.002924 293.2 39.2
331(18) 0.003021 293.1 40.1
360(19) 0.002778 293.0 40.9
323(18) 0.003096 292.9 41.7
327(18) 0.003058 292.7 42.5
345(19) 0.002899 292.6 43.3
361(19) 0.002770 292.5 44.1
334(18) 0.002994 292.4 44.8
342(18) 0.002924 292.2 45.4
319(18) 0.003135 292.1 46.0
346(19) 0.002890 292.0 46.6
308(18) 0.003247 291.9 47.0
356(19) 0.002809 291.7 47.4
343(19) 0.002915 291.6 47.7
335(18) 0.002985 291.5 48.0
363(19) 0.002755 291.4 48.1
320(18) 0.003125 291.3 48.2
374(19) 0.002674 291.1 48.2
352(19) 0.002841 291.0 48.1
373(19) 0.002681 290.9 48.0
334(18) 0.002994 290.8 47.8
335(18) 0.002985 290.6 47.5
341(18) 0.002933 290.5 47.2
365(19) 0.002740 290.4 46.9
331(18) 0.003021 290.3 46.5
361(19) 0.002770 290.1 46.2
355(19) 0.002817 290.0 45.8
359(19) 0.002786 289.9 45.4
363(19) 0.002755 289.8 45.0
322(18) 0.003106 289.7 44.7
354(19) 0.002825 289.5 44.3
336(18) 0.002976 289.4 44.1
354(19) 0.002825 289.3 43.8
337(18) 0.002967 289.2 43.6
327(18) 0.003058 289.0 43.5
339(18) 0.002950 288.9 43.5
343(19) 0.002915 288.8 43.5
355(19) 0.002817 288.7 43.5
305(17) 0.003279 288.5 43.7
323(18) 0.003096 288.4 43.9
324(18) 0.003086 288.3 44.3
333(18) 0.003003 288.2 44.7
330(18) 0.003030 288.1 45.1
328(18) 0.003049 287.9 45.7
339(18) 0.002950 287.8 46.3
331(18) 0.003021 287.7 47.0
333(18) 0.003003 287.6 47.7
368(19) 0.002717 287.4 48.5
347(19) 0.002882 287.3 49.4
346(19) 0.002890 287.2 50.2
337(18) 0.002967 287.1 51.1
340(18) 0.002941 286.9 52.0
342(18) 0.002924 286.8 52.9
352(19) 0.002841 286.7 53.8
353(19) 0.002833 286.6 54.6
367(19) 0.002725 286.5 55.3
339(18) 0.002950 286.3 56.0
334(18) 0.002994 286.2 56.6
330(18) 0.003030 286.1 57.0
351(19) 0.002849 286.0 57.4
340(18) 0.002941 285.8 57.6
339(18) 0.002950 285.7 57.6
361(19) 0.002770 285.6 57.6
361(19) 0.002770 285.5 57.4
365(19) 0.002740 285.3 57.1
343(19) 0.002915 285.2 56.8
335(18) 0.002985 285.1 56.3
381(20) 0.002625 285.0 55.8
370(19) 0.002703 284.9 55.3
355(19) 0.002817 284.7 54.8
355(19) 0.002817 284.6 54.2
335(18) 0.002985 284.5 53.7
353(19) 0.002833 284.4 53.1
329(18) 0.003039 284.2 52.7
344(19) 0.002907 284.1 52.2
333(18) 0.003003 284.0 51.8
302(17) 0.003311 283.9 51.5
338(18) 0.002959 283.8 51.2
345(19) 0.002899 283.6 50.9
348(19) 0.002874 283.5 50.8
332(18) 0.003012 283.4 50.6
338(18) 0.002959 283.3 50.6
331(18) 0.003021 283.1 50.5
309(18) 0.003236 283.0 50.5
319(18) 0.003135 282.9 50.6
328(18) 0.003049 282.8 50.6
343(19) 0.002915 282.6 50.7
354(19) 0.002825 282.5 50.8
354(19) 0.002825 282.4 50.8
327(18) 0.003058 282.3 50.8
326(18) 0.003067 282.2 50.8
334(18) 0.002994 282.0 50.8
306(17) 0.003268 281.9 50.7
331(18) 0.003021 281.8 50.6
346(19) 0.002890 281.7 50.4
320(18) 0.003125 281.5 50.2
316(18) 0.003165 281.4 49.9
326(18) 0.003067 281.3 49.6
332(18) 0.003012 281.2 49.3
340(18) 0.002941 281.0 48.9
297(17) 0.003367 280.9 48.5
335(18) 0.002985 280.8 48.1
341(18) 0.002933 280.7 47.7
317(18) 0.003155 280.6 47.4
329(18) 0.003039 280.4 47.0
324(18) 0.003086 280.3 46.7
309(18) 0.003236 280.2 46.4
313(18) 0.003195 280.1 46.1
320(18) 0.003125 279.9 45.9
347(19) 0.002882 279.8 45.7
345(19) 0.002899 279.7 45.7
374(19) 0.002674 279.6 45.7
350(19) 0.002857 279.4 45.8
326(18) 0.003067 279.3 46.0
356(19) 0.002809 279.2 46.4
361(19) 0.002770 279.1 47.0
320(18) 0.003125 279.0 47.8
334(18) 0.002994 278.8 48.8
347(19) 0.002882 278.7 50.2
342(18) 0.002924 278.6 51.9
327(18) 0.003058 278.5 54.1
355(19) 0.002817 278.3 56.8
364(19) 0.002747 278.2 59.9
386(20) 0.002591 278.1 63.7
351(19) 0.002849 278.0 68.0
408(20) 0.002451 277.8 72.8
371(19) 0.002695 277.7 78.2
398(20) 0.002513 277.6 84.0
397(20) 0.002519 277.5 90.0
383(20) 0.002611 277.4 96.1
414(20) 0.002415 277.2 101.8
372(19) 0.002688 277.1 106.7
374(19) 0.002674 277.0 110.3
371(19) 0.002695 276.9 112.2
373(19) 0.002681 276.7 112.2
388(20) 0.002577 276.6 110.1
351(19) 0.002849 276.5 106.4
343(19) 0.002915 276.4 101.3
395(20) 0.002532 276.2 95.4
367(19) 0.002725 276.1 89.3
351(19) 0.002849 276.0 83.1
346(19) 0.002890 275.9 77.2
331(18) 0.003021 275.8 71.8
344(19) 0.002907 275.6 66.9
346(19) 0.002890 275.5 62.8
333(18) 0.003003 275.4 59.3
338(18) 0.002959 275.3 56.5
334(18) 0.002994 275.1 54.4
355(19) 0.002817 275.0 52.8
376(19) 0.002660 274.9 51.9
350(19) 0.002857 274.8 51.5
354(19) 0.002825 274.6 51.5
343(19) 0.002915 274.5 51.9
342(18) 0.002924 274.4 52.7
340(18) 0.002941 274.3 53.9
364(19) 0.002747 274.2 55.2
346(19) 0.002890 274.0 56.8
353(19) 0.002833 273.9 58.5
314(18) 0.003185 273.8 60.4
367(19) 0.002725 273.7 62.3
344(19) 0.002907 273.5 64.2
359(19) 0.002786 273.4 66.0
349(19) 0.002865 273.3 67.7
327(18) 0.003058 273.2 69.3
370(19) 0.002703 273.1 70.6
350(19) 0.002857 272.9 71.6
346(19) 0.002890 272.8 72.2
332(18) 0.003012 272.7 72.5
378(19) 0.002646 272.6 72.5
376(19) 0.002660 272.4 72.0
350(19) 0.002857 272.3 71.1
335(18) 0.002985 272.2 69.9
379(19) 0.002639 272.1 68.3
352(19) 0.002841 271.9 66.4
358(19) 0.002793 271.8 64.2
341(18) 0.002933 271.7 61.8
379(19) 0.002639 271.6 59.2
329(18) 0.003039 271.5 56.5
364(19) 0.002747 271.3 53.7
331(18) 0.003021 271.2 50.9
348(19) 0.002874 271.1 48.1
334(18) 0.002994 271.0 45.4
343(19) 0.002915 270.8 42.7
301(17) 0.003322 270.7 40.2
352(19) 0.002841 270.6 37.7
305(17) 0.003279 270.5 35.4
310(18) 0.003226 270.3 33.3
303(17) 0.003300 270.2 31.3
277(17) 0.00361 270.1 29.4
322(18) 0.003106 270.0 27.7
291(17) 0.003436 269.9 26.2
285(17) 0.00351 269.7 24.7
283(17) 0.00353 269.6 23.4
296(17) 0.003378 269.5 22.3
306(17) 0.003268 269.4 21.2
261(16) 0.00383 269.2 20.3
271(16) 0.00369 269.1 19.4
295(17) 0.003390 269.0 18.6
280(17) 0.00357 269.0 18.0
282(17) 0.00355 269.4 17.3
290(17) 0.003448 269.8 16.8
274(17) 0.00365 270.2 16.3
258(16) 0.00388 270.6 15.9
259(16) 0.00386 271.0 15.5
269(16) 0.00372 271.5 15.1
286(17) 0.003497 271.9 14.8
280(17) 0.00357 272.3 14.5
275(17) 0.00364 272.7 14.3
283(17) 0.00353 273.1 14.0
283(17) 0.00353 273.5 13.8
279(17) 0.00358 273.9 13.6
251(16) 0.00398 274.3 13.5
293(17) 0.003413 274.7 13.3
286(17) 0.003497 275.1 13.1
286(17) 0.003497 275.5 13.0
266(16) 0.00376 276.0 12.9
259(16) 0.00386 276.4 12.8
280(17) 0.00357 276.8 12.7
266(16) 0.00376 277.2 12.6
263(16) 0.00380 277.6 12.5
278(17) 0.00360 278.0 12.4
259(16) 0.00386 278.4 12.4
286(17) 0.003497 278.8 12.3
309(18) 0.003236 279.2 12.3
271(16) 0.00369 279.6 12.3
273(17) 0.00366 280.0 12.2
291(17) 0.003436 280.5 12.2
266(16) 0.00376 280.9 12.2
289(17) 0.003460 281.3 12.2
277(17) 0.00361 281.7 12.2
275(17) 0.00364 282.1 12.2
265(16) 0.00377 282.5 12.2
279(17) 0.00358 282.9 12.3
260(16) 0.00385 283.3 12.3
287(17) 0.003484 283.7 12.4
274(17) 0.00365 284.1 12.4
274(17) 0.00365 284.5 12.5
255(16) 0.00392 284.9 12.6
287(17) 0.003484 285.4 12.7
257(16) 0.00389 285.3 12.9
289(17) 0.003460 284.8 13.0
277(17) 0.00361 284.2 13.2
265(16) 0.00377 283.7 13.3
261(16) 0.00383 283.1 13.5
298(17) 0.003356 282.6 13.8
281(17) 0.00356 282.1 14.0
263(16) 0.00380 281.5 14.3
287(17) 0.003484 281.0 14.7
276(17) 0.00362 280.4 15.0
259(16) 0.00386 279.9 15.4
269(16) 0.00372 279.4 15.9
286(17) 0.003497 278.8 16.3
269(16) 0.00372 278.3 16.9
272(16) 0.00368 277.8 17.5
277(17) 0.00361 277.2 18.1
277(17) 0.00361 276.7 18.8
307(18) 0.003257 276.1 19.5
279(17) 0.00358 275.6 20.2
291(17) 0.003436 275.1 21.0
263(16) 0.00380 274.5 21.9
276(17) 0.00362 274.0 22.8
261(16) 0.00383 273.4 23.7
271(16) 0.00369 272.9 24.6
271(16) 0.00369 272.4 25.5
261(16) 0.00383 271.8 26.4
265(16) 0.00377 271.3 27.3
279(17) 0.00358 270.8 28.1
282(17) 0.00355 270.2 28.9
280(17) 0.00357 269.7 29.5
285(17) 0.00351 269.1 30.1
295(17) 0.003390 268.6 30.5
291(17) 0.003436 268.1 30.8
279(17) 0.00358 267.5 30.9
293(17) 0.003413 267.0 30.9
285(17) 0.00351 266.4 30.8
272(16) 0.00368 265.9 30.5
308(18) 0.003247 265.4 30.2
294(17) 0.003401 264.8 29.7
267(16) 0.00375 264.3 29.2
266(16) 0.00376 263.8 28.7
263(16) 0.00380 263.6 28.2
257(16) 0.00389 263.6 27.6
255(16) 0.00392 263.6 27.1
246(16) 0.00407 263.6 26.7
281(17) 0.00356 263.6 26.2
266(16) 0.00376 263.6 25.9
285(17) 0.00351 263.6 25.5
278(17) 0.00360 263.6 25.3
267(16) 0.00375 263.6 25.1
244(16) 0.00410 263.6 25.0
287(17) 0.003484 263.6 25.0
275(17) 0.00364 263.6 25.1
259(16) 0.00386 263.6 25.2
276(17) 0.00362 263.6 25.5
276(17) 0.00362 263.6 25.8
291(17) 0.003436 263.6 26.2
286(17) 0.003497 263.6 26.7
286(17) 0.003497 263.6 27.3
279(17) 0.00358 263.6 28.0
276(17) 0.00362 263.6 28.7
303(17) 0.003300 263.6 29.6
306(17) 0.003268 263.6 30.5
295(17) 0.003390 263.6 31.5
259(16) 0.00386 263.6 32.5
290(17) 0.003448 263.6 33.7
310(18) 0.003226 263.6 34.8
287(17) 0.003484 263.6 36.1
295(17) 0.003390 263.6 37.3
285(17) 0.00351 263.6 38.6
308(18) 0.003247 263.6 39.9
305(17) 0.003279 263.6 41.2
316(18) 0.003165 263.6 42.4
325(18) 0.003077 263.6 43.6
321(18) 0.003115 263.6 44.7
316(18) 0.003165 263.6 45.7
309(18) 0.003236 263.6 46.6
308(18) 0.003247 263.6 47.3
313(18) 0.003195 263.6 47.9
318(18) 0.003145 263.6 48.4
317(18) 0.003155 263.6 48.7
339(18) 0.002950 263.6 48.9
323(18) 0.003096 263.6 49.0
332(18) 0.003012 263.6 49.0
348(19) 0.002874 263.6 48.9
313(18) 0.003195 263.6 48.8
307(18) 0.003257 263.6 48.7
320(18) 0.003125 263.6 48.5
332(18) 0.003012 263.6 48.4
304(17) 0.003289 263.6 48.2
355(19) 0.002817 263.6 48.0
323(18) 0.003096 263.6 47.9
294(17) 0.003401 263.6 47.7
319(18) 0.003135 263.6 47.6
313(18) 0.003195 263.6 47.5
358(19) 0.002793 263.6 47.3
311(18) 0.003215 263.6 47.2
298(17) 0.003356 263.6 47.1
317(18) 0.003155 263.6 47.0
324(18) 0.003086 263.6 46.8
298(17) 0.003356 263.6 46.7
326(18) 0.003067 263.6 46.5
323(18) 0.003096 263.6 46.4
302(17) 0.003311 263.6 46.2
323(18) 0.003096 263.6 46.0
286(17) 0.003497 263.6 45.9
299(17) 0.003344 263.6 45.7
324(18) 0.003086 263.6 45.4
308(18) 0.003247 263.6 45.2
306(17) 0.003268 263.6 45.0
319(18) 0.003135 263.6 44.7
324(18) 0.003086 263.6 44.5
290(17) 0.003448 263.6 44.3
307(18) 0.003257 263.6 44.0
292(17) 0.003425 263.6 43.8
328(18) 0.003049 263.6 43.5
314(18) 0.003185 263.6 43.3
303(17) 0.003300 263.6 43.1
319(18) 0.003135 263.6 42.9
302(17) 0.003311 263.6 42.7
300(17) 0.003333 263.6 42.5
310(18) 0.003226 263.6 42.3
316(18) 0.003165 263.6 42.2
308(18) 0.003247 263.6 42.1
323(18) 0.003096 263.6 42.0
274(17) 0.00365 263.6 41.9
308(18) 0.003247 263.6 41.8
281(17) 0.00356 263.6 41.8
289(17) 0.003460 263.6 41.7
307(18) 0.003257 263.6 41.7
316(18) 0.003165 263.6 41.8
298(17) 0.003356 263.6 41.8
316(18) 0.003165 263.6 41.8
308(18) 0.003247 263.6 41.9
323(18) 0.003096 263.6 42.0
318(18) 0.003145 263.6 42.0
289(17) 0.003460 263.6 42.1
287(17) 0.003484 263.6 42.2
293(17) 0.003413 263.6 42.2
298(17) 0.003356 263.6 42.3
290(17) 0.003448 263.6 42.3
292(17) 0.003425 263.6 42.3
295(17) 0.003390 263.6 42.2
274(17) 0.00365 263.6 42.2
325(18) 0.003077 263.6 42.1
320(18) 0.003125 263.6 41.9
277(17) 0.00361 263.6 41.7
293(17) 0.003413 263.6 41.5
305(17) 0.003279 263.6 41.2
300(17) 0.003333 263.6 40.8
296(17) 0.003378 263.6 40.4
308(18) 0.003247 263.6 40.0
314(18) 0.003185 263.6 39.5
288(17) 0.003472 263.6 39.0
305(17) 0.003279 263.6 38.4
286(17) 0.003497 263.6 37.8
316(18) 0.003165 263.6 37.1
294(17) 0.003401 263.6 36.4
304(17) 0.003289 263.6 35.8
272(16) 0.00368 263.6 35.0
307(18) 0.003257 263.6 34.3
281(17) 0.00356 263.6 33.6
299(17) 0.003344 263.6 32.9
299(17) 0.003344 263.6 32.1
298(17) 0.003356 263.6 31.4
292(17) 0.003425 263.6 30.7
314(18) 0.003185 263.6 30.0
292(17) 0.003425 263.6 29.3
310(18) 0.003226 263.6 28.6
296(17) 0.003378 263.6 28.0
290(17) 0.003448 263.6 27.4
299(17) 0.003344 263.6 26.8
270(16) 0.00370 263.6 26.2
295(17) 0.003390 263.6 25.6
288(17) 0.003472 263.6 25.1
293(17) 0.003413 263.6 24.6
259(16) 0.00386 263.6 24.1
284(17) 0.00352 263.6 23.7
307(18) 0.003257 263.6 23.3
274(17) 0.00365 263.6 22.9
271(16) 0.00369 263.6 22.5
269(16) 0.00372 263.6 22.2
255(16) 0.00392 263.6 21.9
269(16) 0.00372 263.6 21.7
273(17) 0.00366 263.6 21.4
281(17) 0.00356 263.6 21.2
304(17) 0.003289 263.6 21.0
278(17) 0.00360 263.6 20.9
280(17) 0.00357 263.6 20.8
302(17) 0.003311 263.6 20.7
265(16) 0.00377 263.6 20.6
300(17) 0.003333 263.6 20.5
293(17) 0.003413 263.6 20.5
289(17) 0.003460 263.6 20.5
252(16) 0.00397 263.6 20.5
296(17) 0.003378 263.6 20.5
288(17) 0.003472 263.6 20.5
297(17) 0.003367 263.6 20.6
255(16) 0.00392 263.6 20.7
270(16) 0.00370 263.6 20.8
279(17) 0.00358 263.6 20.9
290(17) 0.003448 263.6 21.0
287(17) 0.003484 263.6 21.1
306(17) 0.003268 263.6 21.2
264(16) 0.00379 263.6 21.3
277(17) 0.00361 263.6 21.5
318(18) 0.003145 263.6 21.6
302(17) 0.003311 263.6 21.7
281(17) 0.00356 263.6 21.9
269(16) 0.00372 263.6 22.0
274(17) 0.00365 263.6 22.1
274(17) 0.00365 263.6 22.2
294(17) 0.003401 263.6 22.4
267(16) 0.00375 263.6 22.5
291(17) 0.003436 263.6 22.6
263(16) 0.00380 263.6 22.7
279(17) 0.00358 263.6 22.8
280(17) 0.00357 263.6 22.9
280(17) 0.00357 263.6 23.0
291(17) 0.003436 263.6 23.0
293(17) 0.003413 263.6 23.1
283(17) 0.00353 263.6 23.2
307(18) 0.003257 263.6 23.2
275(17) 0.00364 263.6 23.3
298(17) 0.003356 263.6 23.3
269(16) 0.00372 263.6 23.3
262(16) 0.00382 263.6 23.3
293(17) 0.003413 263.6 23.4
286(17) 0.003497 263.6 23.4
286(17) 0.003497 263.6 23.4
296(17) 0.003378 263.6 23.4
280(17) 0.00357 263.6 23.3
306(17) 0.003268 263.6 23.3
293(17) 0.003413 263.6 23.3
279(17) 0.00358 263.6 23.3
310(18) 0.003226 263.6 23.3
280(17) 0.00357 263.6 23.2
295(17) 0.003390 263.6 23.2
280(17) 0.00357 263.6 23.2
285(17) 0.00351 263.6 23.1
284(17) 0.00352 263.6 23.1
279(17) 0.00358 263.6 23.0
274(17) 0.00365 263.6 23.0
271(16) 0.00369 263.6 23.0
278(17) 0.00360 263.6 22.9
292(17) 0.003425 263.6 22.9
274(17) 0.00365 263.6 22.9
264(16) 0.00379 263.6 22.9
307(18) 0.003257 263.6 22.9
272(16) 0.00368 263.6 22.9
288(17) 0.003472 263.6 22.9
275(17) 0.00364 263.6 22.9
273(17) 0.00366 263.6 22.9
273(17) 0.00366 263.6 22.9
276(17) 0.00362 263.6 22.9
279(17) 0.00358 263.6 22.8
298(17) 0.003356 263.6 22.8
268(16) 0.00373 263.6 22.8
296(17) 0.003378 263.6 22.8
268(16) 0.00373 263.6 22.7
284(17) 0.00352 263.6 22.7
280(17) 0.00357 263.6 22.7
243(16) 0.00412 263.6 22.7
260(16) 0.00385 263.6 22.7
289(17) 0.003460 291.2 22.7
291(17) 0.003436 291.4 22.8
268(16) 0.00373 291.5 22.8
262(16) 0.00382 291.7 22.9
306(17) 0.003268 291.8 23.1
299(17) 0.003344 291.9 23.2
288(17) 0.003472 292.1 23.4
275(17) 0.00364 292.2 23.6
264(16) 0.00379 292.4 23.9
244(16) 0.00410 292.5 24.2
305(17) 0.003279 292.6 24.5
289(17) 0.003460 292.8 24.9
300(17) 0.003333 292.9 25.2
276(17) 0.00362 293.1 25.7
264(16) 0.00379 293.2 26.1
275(17) 0.00364 293.3 26.6
298(17) 0.003356 293.5 27.1
301(17) 0.003322 293.6 27.7
289(17) 0.003460 293.8 28.3
296(17) 0.003378 293.9 28.9
286(17) 0.003497 294.0 29.5
311(18) 0.003215 294.2 30.2
262(16) 0.00382 294.3 30.9
286(17) 0.003497 294.5 31.6
267(16) 0.00375 294.6 32.3
314(18) 0.003185 294.7 33.1
320(18) 0.003125 294.9 33.8
273(17) 0.00366 295.0 34.6
305(17) 0.003279 295.2 35.3
315(18) 0.003175 295.3 36.1
302(17) 0.003311 295.4 36.8
282(17) 0.00355 295.6 37.5
303(17) 0.003300 295.7 38.2
310(18) 0.003226 295.9 38.8
328(18) 0.003049 296.0 39.4
278(17) 0.00360 296.1 40.0
317(18) 0.003155 296.3 40.6
328(18) 0.003049 296.4 41.1
282(17) 0.00355 296.6 41.6
311(18) 0.003215 296.7 42.1
312(18) 0.003205 296.8 42.5
301(17) 0.003322 297.0 43.0
339(18) 0.002950 297.1 43.5
311(18) 0.003215 297.2 44.0
306(17) 0.003268 297.4 44.4
286(17) 0.003497 297.5 44.9
336(18) 0.002976 297.7 45.4
293(17) 0.003413 297.8 45.9
348(19) 0.002874 297.9 46.3
343(19) 0.002915 298.1 46.6
352(19) 0.002841 298.2 46.8
353(19) 0.002833 298.4 46.8
335(18) 0.002985 298.5 46.5
349(19) 0.002865 298.6 46.0
336(18) 0.002976 298.8 45.3
330(18) 0.003030 298.9 44.3
323(18) 0.003096 299.1 43.2
336(18) 0.002976 299.2 42.0
303(17) 0.003300 299.3 40.8
318(18) 0.003145 299.5 39.6
332(18) 0.003012 299.6 38.4
322(18) 0.003106 299.8 37.3
341(18) 0.002933 299.9 36.4
296(17) 0.003378 300.0 35.6
282(17) 0.00355 300.2 34.9
318(18) 0.003145 300.3 34.4
291(17) 0.003436 300.5 34.1
313(18) 0.003195 300.6 34.0
298(17) 0.003356 300.7 34.1
289(17) 0.003460 300.9 34.4
305(17) 0.003279 301.0 34.9
286(17) 0.003497 301.2 35.6
329(18) 0.003039 301.3 36.4
261(16) 0.00383 301.4 37.4
321(18) 0.003115 301.6 38.5
331(18) 0.003021 301.7 39.6
295(17) 0.003390 301.9 40.7
310(18) 0.003226 302.0 41.7
298(17) 0.003356 302.1 42.4
299(17) 0.003344 302.3 42.8
323(18) 0.003096 302.4 42.8
286(17) 0.003497 302.6 42.3
338(18) 0.002959 302.7 41.4
311(18) 0.003215 302.8 40.2
326(18) 0.003067 303.0 38.8
315(18) 0.003175 303.1 37.2
309(18) 0.003236 303.3 35.6
304(17) 0.003289 303.4 34.0
305(17) 0.003279 303.5 32.5
308(18) 0.003247 303.7 31.1
279(17) 0.00358 303.8 29.8
303(17) 0.003300 304.0 28.6
282(17) 0.00355 304.1 27.6
295(17) 0.003390 304.2 26.8
297(17) 0.003367 304.4 26.1
277(17) 0.00361 304.5 25.5
266(16) 0.00376 304.7 25.0
276(17) 0.00362 304.8 24.7
293(17) 0.003413 304.9 24.5
313(18) 0.003195 305.1 24.3
311(18) 0.003215 305.2 24.3
288(17) 0.003472 305.4 24.3
275(17) 0.00364 305.4 24.4
266(16) 0.00376 304.9 24.6
278(17) 0.00360 304.5 24.8
314(18) 0.003185 304.0 25.0
326(18) 0.003067 303.6 25.3
319(18) 0.003135 303.2 25.6
278(17) 0.00360 302.7 25.9
301(17) 0.003322 302.3 26.1
313(18) 0.003195 301.9 26.4
288(17) 0.003472 301.4 26.6
290(17) 0.003448 301.0 26.8
295(17) 0.003390 300.6 26.9
292(17) 0.003425 300.1 26.9
279(17) 0.00358 299.7 26.9
322(18) 0.003106 299.3 26.8
304(17) 0.003289 298.8 26.7
285(17) 0.00351 298.4 26.5
313(18) 0.003195 298.0 26.3
293(17) 0.003413 297.5 26.1
283(17) 0.00353 297.1 26.0
302(17) 0.003311 296.7 25.9
289(17) 0.003460 296.2 25.8
292(17) 0.003425 295.8 25.7
283(17) 0.00353 295.3 25.7
288(17) 0.003472 294.9 25.7
296(17) 0.003378 294.5 25.8
293(17) 0.003413 294.0 25.9
306(17) 0.003268 293.6 26.1
310(18) 0.003226 293.2 26.3
300(17) 0.003333 292.7 26.6
281(17) 0.00356 292.3 27.0
304(17) 0.003289 291.9 27.4
297(17) 0.003367 291.4 27.9
301(17) 0.003322 291.0 28.6
312(18) 0.003205 290.6 29.4
309(18) 0.003236 290.1 30.4
311(18) 0.003215 289.7 31.7
330(18) 0.003030 289.3 33.3
295(17) 0.003390 288.8 35.2
311(18) 0.003215 288.4 37.6
305(17) 0.003279 288.0 40.4
335(18) 0.002985 287.5 43.6
310(18) 0.003226 287.1 47.2
313(18) 0.003195 286.6 51.1
321(18) 0.003115 286.2 54.9
314(18) 0.003185 285.8 58.3
306(17) 0.003268 285.3 60.8
323(18) 0.003096 284.9 61.8
313(18) 0.003195 284.5 61.2
316(18) 0.003165 284.0 59.1
327(18) 0.003058 283.6 55.7
331(18) 0.003021 283.2 51.7
315(18) 0.003175 282.7 47.5
298(17) 0.003356 282.3 43.5
308(18) 0.003247 281.9 39.8
286(17) 0.003497 281.4 36.6
287(17) 0.003484 281.0 34.0
309(18) 0.003236 280.6 31.9
289(17) 0.003460 280.1 30.3
270(16) 0.00370 279.7 29.1
303(17) 0.003300 279.3 28.3
315(18) 0.003175 278.8 27.8
296(17) 0.003378 278.4 27.5
289(17) 0.003460 277.9 27.4
289(17) 0.003460 277.5 27.4
289(17) 0.003460 277.1 27.4
284(17) 0.00352 276.6 27.5
297(17) 0.003367 276.2 27.5
287(17) 0.003484 275.8 27.5
298(17) 0.003356 275.3 27.5
265(16) 0.00377 274.9 27.5
290(17) 0.003448 274.5 27.4
282(17) 0.00355 274.0 27.2
291(17) 0.003436 273.6 27.0
274(17) 0.00365 273.2 26.6
295(17) 0.003390 272.7 26.1
276(17) 0.00362 272.3 25.4
287(17) 0.003484 271.9 24.7
268(16) 0.00373 272.7 23.9
274(17) 0.00365 277.2 23.1
277(17) 0.00361 281.7 22.3
286(17) 0.003497 286.2 21.7
282(17) 0.00355 290.7 21.1
275(17) 0.00364 291.6 20.6
297(17) 0.003367 291.3 20.3
276(17) 0.00362 291.0 19.9
290(17) 0.003448 290.7 19.7
297(17) 0.003367 290.4 19.4
301(17) 0.003322 290.1 19.2
300(17) 0.003333 289.8 19.0
276(17) 0.00362 289.5 18.8
301(17) 0.003322 289.2 18.6
263(16) 0.00380 288.9 18.4
277(17) 0.00361 288.6 18.3
298(17) 0.003356 288.4 18.2
298(17) 0.003356 288.1 18.2
280(17) 0.00357 287.8 18.3
285(17) 0.00351 287.5 18.6
294(17) 0.003401 287.2 19.0
301(17) 0.003322 286.9 19.7
272(16) 0.00368 286.6 20.6
255(16) 0.00392 286.3 21.9
296(17) 0.003378 286.0 23.6
288(17) 0.003472 285.7 25.7
267(16) 0.00375 285.4 28.3
290(17) 0.003448 285.1 31.3
312(18) 0.003205 284.8 34.5
305(17) 0.003279 284.5 37.8
347(19) 0.002882 284.2 40.8
331(18) 0.003021 283.9 43.0
405(20) 0.002469 283.7 44.0
331(18) 0.003021 283.4 43.8
375(19) 0.002667 283.1 42.5
372(19) 0.002688 282.8 40.7
363(19) 0.002755 282.5 38.7
388(20) 0.002577 282.2 36.6
380(19) 0.002632 281.9 34.7
361(19) 0.002770 281.6 32.8
341(18) 0.002933 281.3 31.0
321(18) 0.003115 281.0 29.2
411(20) 0.002433 280.7 27.6
332(18) 0.003012 280.4 26.0
295(17) 0.003390 280.1 24.5
287(17) 0.003484 279.8 23.2
312(18) 0.003205 279.5 22.0
315(18) 0.003175 279.2 20.9
280(17) 0.00357 278.9 20.0
290(17) 0.003448 278.7 19.2
277(17) 0.00361 278.4 18.4
292(17) 0.003425 278.1 17.9
258(16) 0.00388 277.8 17.4
284(17) 0.00352 277.5 17.0
314(18) 0.003185 277.2 16.7
278(17) 0.00360 276.9 16.4
275(17) 0.00364 276.6 16.3
287(17) 0.003484 276.3 16.1
293(17) 0.003413 276.0 16.1
284(17) 0.00352 275.7 16.0
279(17) 0.00358 275.4 16.1
262(16) 0.00382 275.1 16.1
294(17) 0.003401 274.8 16.2
306(17) 0.003268 274.5 16.3
271(16) 0.00369 274.2 16.4
290(17) 0.003448 274.6 16.5
287(17) 0.003484 275.1 16.6
280(17) 0.00357 275.7 16.7
265(16) 0.00377 276.2 16.9
277(17) 0.00361 276.8 17.0
287(17) 0.003484 277.3 17.1
275(17) 0.00364 277.9 17.3
264(16) 0.00379 278.5 17.5
312(18) 0.003205 279.0 17.6
264(16) 0.00379 279.6 17.8
285(17) 0.00351 280.1 18.1
280(17) 0.00357 280.7 18.3
301(17) 0.003322 281.2 18.5
294(17) 0.003401 281.8 18.8
274(17) 0.00365 282.3 19.0
286(17) 0.003497 282.9 19.3
281(17) 0.00356 283.4 19.6
298(17) 0.003356 284.0 19.9
278(17) 0.00360 284.5 20.2
293(17) 0.003413 285.1 20.5
300(17) 0.003333 285.6 20.8
289(17) 0.003460 286.2 21.1
299(17) 0.003344 286.7 21.4
283(17) 0.00353 287.3 21.8
293(17) 0.003413 287.8 22.2
278(17) 0.00360 288.4 22.6
299(17) 0.003344 288.3 23.0
281(17) 0.00356 288.2 23.5
266(16) 0.00376 288.1 23.9
277(17) 0.00361 288.0 24.4
274(17) 0.00365 287.9 25.0
293(17) 0.003413 287.8 25.5
295(17) 0.003390 287.7 26.1
293(17) 0.003413 287.6 26.6
304(17) 0.003289 287.5 27.2
320(18) 0.003125 287.4 27.8
311(18) 0.003215 287.3 28.4
275(17) 0.00364 287.2 29.0
273(17) 0.00366 287.1 29.5
253(16) 0.00395 287.0 30.0
312(18) 0.003205 286.9 30.4
285(17) 0.00351 286.8 30.8
266(16) 0.00376 286.7 31.1
271(16) 0.00369 286.6 31.4
305(17) 0.003279 286.5 31.6
280(17) 0.00357 286.4 31.9
284(17) 0.00352 286.3 32.1
292(17) 0.003425 286.2 32.3
275(17) 0.00364 286.2 32.6
314(18) 0.003185 286.1 32.9
294(17) 0.003401 286.0 33.2
263(16) 0.00380 285.9 33.6
302(17) 0.003311 285.8 34.0
300(17) 0.003333 285.7 34.4
272(16) 0.00368 285.6 34.9
310(18) 0.003226 285.5 35.4
311(18) 0.003215 285.4 35.9
326(18) 0.003067 285.3 36.5
317(18) 0.003155 285.2 37.1
302(17) . . .
310(18) . . .
302(17) . . .
300(17) . . .
331(18) . . .
300(17) . . .
296(17) . . .
316(18) . . .
289(17) . . .
293(17) . . .
309(18) . . .
314(18) . . .
311(18) . . .
288(17) . . .
288(17) . . .
287(17) . . .
320(18) . . .
304(17) . . .
301(17) . . .
322(18) . . .
293(17) . . .
329(18) . . .
304(17) . . .
308(18) . . .
305(17) . . .
286(17) . . .
293(17) . . .
288(17) . . .
268(16) . . .
290(17) . . .
287(17) . . .
301(17) . . .
287(17) . . .
289(17) . . .
293(17) . . .
306(17) . . .
272(16) . . .
289(17) . . .
289(17) . . .
266(16) . . .
297(17) . . .
283(17) . . .
289(17) . . .
267(16) . . .
270(16) . . .
294(17) . . .
287(17) . . .
279(17) . . .
297(17) . . .
281(17) . . .
273(17) . . .
277(17) . . .
271(16) . . .
283(17) . . .
309(18) . . .
257(16) . . .
284(17) . . .
280(17) . . .
277(17) . . .
258(16) . . .
256(16) . . .
267(16) . . .
264(16) . . .
298(17) . . .
260(16) . . .
272(16) . . .
268(16) . . .
259(16) . . .
265(16) . . .
286(17) . . .
270(16) . . .
264(16) . . .
262(16) . . .
276(17) . . .
243(16) . . .
279(17) . . .
266(16) . . .
263(16) . . .
253(16) . . .
275(17) . . .
279(17) . . .
244(16) . . .
280(17) . . .
244(16) . . .
284(17) . . .
282(17) . . .
263(16) . . .
271(16) . . .
260(16) . . .
248(16) . . .
244(16) . . .
274(17) . . .
287(17) . . .
250(16) . . .
248(16) . . .
258(16) . . .
270(16) . . .
296(17) . . .
270(16) . . .
273(17) . . .
281(17) . . .
257(16) . . .
275(17) . . .
272(16) . . .
245(16) . . .
271(16) . . .
299(17) . . .
290(17) . . .
320(18) . . .
298(17) . . .
253(16) . . .
283(17) . . .
283(17) . . .
319(18) . . .
277(17) . . .
268(16) . . .
297(17) . . .
295(17) . . .
278(17) . . .
249(16) . . .
274(17) . . .
278(17) . . .
251(16) . . .
297(17) . . .
285(17) . . .
289(17) . . .
291(17) . . .
261(16) . . .
278(17) . . .
288(17) . . .
279(17) . . .
280(17) . . .
267(16) . . .
268(16) . . .
288(17) . . .
288(17) . . .
281(17) . . .
266(16) . . .
276(17) . . .
258(16) . . .
269(16) . . .
274(17) . . .
295(17) . . .
278(17) . . .
271(16) . . .
284(17) . . .
268(16) . . .
255(16) . . .
297(17) . . .
270(16) . . .
230(15) . . .
255(16) . . .
282(17) . . .
266(16) . . .
253(16) . . .
250(16) . . .
271(16) . . .
274(17) . . .
251(16) . . .
279(17) . . .
272(16) . . .
242(16) . . .
241(16) . . .
233(15) . . .
265(16) . . .
306(17) . . .
286(17) . . .
283(17) . . .
249(16) . . .
281(17) . . .
241(16) . . .
241(16) . . .
273(17) . . .
237(15) . . .
256(16) . . .
230(15) . . .
266(16) . . .
287(17) . . .
282(17) . . .
261(16) . . .
265(16) . . .
260(16) . . .
256(16) . . .
242(16) . . .
254(16) . . .
241(16) . . .
274(17) . . .
273(17) . . .
269(16) . . .
246(16) . . .
236(15) . . .
251(16) . . .
261(16) . . .
278(17) . . .
235(15) . . .
243(16) . . .
248(16) . . .
247(16) . . .
273(17) . . .
247(16) . . .
252(16) . . .
244(16) . . .
253(16) . . .
261(16) . . .
258(16) . . .
256(16) . . .
254(16) . . .
252(16) . . .
257(16) . . .
259(16) . . .
269(16) . . .
269(16) . . .
259(16) . . .
260(16) . . .
271(16) . . .
283(17) . . .
283(17) . . .
274(17) . . .
272(16) . . .
271(16) . . .
294(17) . . .
294(17) . . .
301(17) . . .
304(17) . . .
294(17) . . .
275(17) . . .
307(18) . . .
314(18) . . .
288(17) . . .
262(16) . . .
293(17) . . .
277(17) . . .
283(17) . . .
283(17) . . .
280(17) . . .
279(17) . . .
258(16) . . .
297(17) . . .
274(17) . . .
259(16) . . .
288(17) . . .
254(16) . . .
261(16) . . .
258(16) . . .
250(16) . . .
278(17) . . .
241(16) . . .
239(15) . . .
251(16) . . .
230(15) . . .
262(16) . . .
263(16) . . .
268(16) . . .
262(16) . . .
260(16) . . .
252(16) . . .
236(15) . . .
248(16) . . .
269(16) . . .
258(16) . . .
252(16) . . .
235(15) . . .
240(15) . . .
249(16) . . .
272(16) . . .
276(17) . . .
247(16) . . .
252(16) . . .
247(16) . . .
261(16) . . .
243(16) . . .
276(17) . . .
234(15) . . .
257(16) . . .
248(16) . . .
255(16) . . .
251(16) . . .
252(16) . . .
281(17) . . .
271(16) . . .
267(16) . . .
291(17) . . .
275(17) . . .
241(16) . . .
233(15) . . .
240(15) . . .
248(16) . . .
253(16) . . .
251(16) . . .
249(16) . . .
236(15) . . .
246(16) . . .
223(15) . . .
242(16) . . .
252(16) . . .
246(16) . . .
289(17) . . .
248(16) . . .
261(16) . . .
259(16) . . .
274(17) . . .
242(16) . . .
275(17) . . .
259(16) . . .
266(16) . . .
245(16) . . .
252(16) . . .
228(15) . . .
275(17) . . .
269(16) . . .
253(16) . . .
231(15) . . .
254(16) . . .
291(17) . . .
255(16) . . .
262(16) . . .
250(16) . . .
232(15) . . .
259(16) . . .
244(16) . . .
233(15) . . .
243(16) . . .
259(16) . . .
257(16) . . .
272(16) . . .
248(16) . . .
258(16) . . .
241(16) . . .
246(16) . . .
263(16) . . .
238(15) . . .
253(16) . . .
248(16) . . .
254(16) . . .
270(16) . . .
255(16) . . .
214(15) . . .
263(16) . . .
234(15) . . .
242(16) . . .
243(16) . . .
255(16) . . .
239(15) . . .
253(16) . . .
245(16) . . .
257(16) . . .
235(15) . . .
259(16) . . .
255(16) . . .
263(16) . . .
267(16) . . .
252(16) . . .
246(16) . . .
237(15) . . .
241(16) . . .
236(15) . . .
238(15) . . .
244(16) . . .
243(16) . . .
254(16) . . .
233(15) . . .
240(15) . . .
261(16) . . .
251(16) . . .
250(16) . . .
225(15) . . .
253(16) . . .
228(15) . . .
253(16) . . .
243(16) . . .
253(16) . . .
253(16) . . .
256(16) . . .
249(16) . . .
219(15) . . .
226(15) . . .
242(16) . . .
230(15) . . .
276(17) . . .
255(16) . . .
237(15) . . .
265(16) . . .
262(16) . . .
258(16) . . .
269(16) . . .
257(16) . . .
243(16) . . .
248(16) . . .
256(16) . . .
263(16) . . .
246(16) . . .
279(17) . . .
278(17) . . .
259(16) . . .
232(15) . . .
276(17) . . .
272(16) . . .
275(17) . . .
276(17) . . .
278(17) . . .
268(16) . . .
243(16) . . .
263(16) . . .
277(17) . . .
266(16) . . .
271(16) . . .
271(16) . . .
247(16) . . .
257(16) . . .
228(15) . . .
275(17) . . .
267(16) . . .
258(16) . . .
255(16) . . .
272(16) . . .
251(16) . . .
258(16) . . .
257(16) . . .
263(16) . . .
260(16) . . .
282(17) . . .
256(16) . . .
284(17) . . .
266(16) . . .
308(18) . . .
270(16) . . .
293(17) . . .
273(17) . . .
259(16) . . .
279(17) . . .
291(17) . . .
268(16) . . .
280(17) . . .
271(16) . . .
262(16) . . .
304(17) . . .
272(16) . . .
266(16) . . .
295(17) . . .
310(18) . . .
291(17) . . .
284(17) . . .
274(17) . . .
282(17) . . .
276(17) . . .
283(17) . . .
268(16) . . .
278(17) . . .
282(17) . . .
257(16) . . .
253(16) . . .
266(16) . . .
287(17) . . .
252(16) . . .
274(17) . . .
282(17) . . .
259(16) . . .
301(17) . . .
269(16) . . .
262(16) . . .
279(17) . . .
270(16) . . .
265(16) . . .
258(16) . . .
281(17) . . .
295(17) . . .
271(16) . . .
293(17) . . .
296(17) . . .
274(17) . . .
293(17) . . .
295(17) . . .
276(17) . . .
255(16) . . .
278(17) . . .
292(17) . . .
297(17) . . .
287(17) . . .
293(17) . . .
279(17) . . .
309(18) . . .
272(16) . . .
286(17) . . .
283(17) . . .
267(16) . . .
289(17) . . .
310(18) . . .
288(17) . . .
295(17) . . .
295(17) . . .
290(17) . . .
329(18) . . .
286(17) . . .
290(17) . . .
286(17) . . .
266(16) . . .
277(17) . . .
315(18) . . .
292(17) . . .
283(17) . . .
289(17) . . .
310(18) . . .
301(17) . . .
294(17) . . .
295(17) . . .
292(17) . . .
279(17) . . .
283(17) . . .
320(18) . . .
272(16) . . .
289(17) . . .
267(16) . . .
284(17) . . .
283(17) . . .
258(16) . . .
281(17) . . .
286(17) . . .
270(16) . . .
285(17) . . .
284(17) . . .
277(17) . . .
270(16) . . .
272(16) . . .
298(17) . . .
269(16) . . .
285(17) . . .
314(18) . . .
288(17) . . .
296(17) . . .
297(17) . . .
277(17) . . .
300(17) . . .
295(17) . . .
297(17) . . .
305(17) . . .
284(17) . . .
299(17) . . .
325(18) . . .
270(16) . . .
297(17) . . .
315(18) . . .
268(16) . . .
306(17) . . .
280(17) . . .
297(17) . . .
284(17) . . .
300(17) . . .
307(18) . . .
303(17) . . .
297(17) . . .
308(18) . . .
290(17) . . .
292(17) . . .
289(17) . . .
310(18) . . .
304(17) . . .
305(17) . . .
305(17) . . .
299(17) . . .
318(18) . . .
318(18) . . .
312(18) . . .
338(18) . . .
337(18) . . .
318(18) . . .
336(18) . . .
333(18) . . .
319(18) . . .
331(18) . . .
299(17) . . .
307(18) . . .
323(18) . . .
326(18) . . .
312(18) . . .
322(18) . . .
301(17) . . .
299(17) . . .
326(18) . . .
304(17) . . .
276(17) . . .
334(18) . . .
295(17) . . .
301(17) . . .
297(17) . . .
290(17) . . .
307(18) . . .
297(17) . . .
313(18) . . .
304(17) . . .
331(18) . . .
303(17) . . .
300(17) . . .
264(16) . . .
271(16) . . .
306(17) . . .
287(17) . . .
283(17) . . .
301(17) . . .
268(16) . . .
281(17) . . .
285(17) . . .
279(17) . . .
291(17) . . .
278(17) . . .
279(17) . . .
281(17) . . .
286(17) . . .
285(17) . . .
270(16) . . .
286(17) . . .
270(16) . . .
296(17) . . .
266(16) . . .
267(16) . . .
283(17) . . .
262(16) . . .
283(17) . . .
263(16) . . .
280(17) . . .
270(16) . . .
300(17) . . .
273(17) . . .
275(17) . . .
273(17) . . .
283(17) . . .
288(17) . . .
284(17) . . .
275(17) . . .
277(17) . . .
301(17) . . .
322(18) . . .
292(17) . . .
290(17) . . .
261(16) . . .
271(16) . . .
263(16) . . .
282(17) . . .
303(17) . . .
291(17) . . .
277(17) . . .
274(17) . . .
254(16) . . .
282(17) . . .
268(16) . . .
290(17) . . .
278(17) . . .
288(17) . . .
260(16) . . .
310(18) . . .
280(17) . . .
298(17) . . .
272(16) . . .
271(16) . . .
272(16) . . .
293(17) . . .
265(16) . . .
238(15) . . .
255(16) . . .
284(17) . . .
274(17) . . .
263(16) . . .
281(17) . . .
249(16) . . .
269(16) . . .
254(16) . . .
271(16) . . .
273(17) . . .
258(16) . . .
272(16) . . .
276(17) . . .
260(16) . . .
275(17) . . .
285(17) . . .
283(17) . . .
269(16) . . .
289(17) . . .
281(17) . . .
279(17) . . .
268(16) . . .
295(17) . . .
297(17) . . .
290(17) . . .
270(16) . . .
345(19) . . .
275(17) . . .
305(17) . . .
277(17) . . .
303(17) . . .
336(18) . . .
285(17) . . .
294(17) . . .
275(17) . . .
285(17) . . .
280(17) . . .
296(17) . . .
311(18) . . .
281(17) . . .
267(16) . . .
293(17) . . .
273(17) . . .
289(17) . . .
284(17) . . .
277(17) . . .
291(17) . . .
304(17) . . .
303(17) . . .
276(17) . . .
308(18) . . .
273(17) . . .
290(17) . . .
272(16) . . .
276(17) . . .
284(17) . . .
271(16) . . .
278(17) . . .
293(17) . . .
293(17) . . .
280(17) . . .
287(17) . . .
291(17) . . .
289(17) . . .
287(17) . . .
306(17) . . .
289(17) . . .
277(17) . . .
286(17) . . .
307(18) . . .
317(18) . . .
297(17) . . .
306(17) . . .
297(17) . . .
302(17) . . .
284(17) . . .
325(18) . . .
279(17) . . .
298(17) . . .
313(18) . . .
295(17) . . .
288(17) . . .
290(17) . . .
304(17) . . .
304(17) . . .
312(18) . . .
299(17) . . .
306(17) . . .
298(17) . . .
313(18) . . .
318(18) . . .
313(18) . . .
300(17) . . .
315(18) . . .
323(18) . . .
271(16) . . .
299(17) . . .
336(18) . . .
296(17) . . .
314(18) . . .
305(17) . . .
288(17) . . .
321(18) . . .
306(17) . . .
312(18) . . .
288(17) . . .
311(18) . . .
306(17) . . .
298(17) . . .
332(18) . . .
307(18) . . .
320(18) . . .
332(18) . . .
326(18) . . .
324(18) . . .
351(19) . . .
336(18) . . .
327(18) . . .
344(19) . . .
380(19) . . .
346(19) . . .
347(19) . . .
357(19) . . .
344(19) . . .
343(19) . . .
369(19) . . .
356(19) . . .
347(19) . . .
362(19) . . .
392(20) . . .
409(20) . . .
379(19) . . .
362(19) . . .
421(21) . . .
419(20) . . .
421(21) . . .
439(21) . . .
432(21) . . .
411(20) . . .
439(21) . . .
485(22) . . .
482(22) . . .
544(23) . . .
543(23) . . .
550(23) . . .
570(24) . . .
573(24) . . .
615(25) . . .
656(26) . . .
618(25) . . .
697(26) . . .
746(27) . . .
773(28) . . .
792(28) . . .
953(31) . . .
1005(32) . . .
1095(33) . . .
1230(35) . . .
1306(36) . . .
1460(38) . . .
1675(41) . . .
1885(43) . . .
2155(46) . . .
2505(50) . . .
3020(55) . . .
3467(59) . . .
4432(67) . . .
5333(73) . . .
6727(82) . . .
8382(92) . . .
10740(100) . . .
13380(120) . . .
16400(130) . . .
19640(140) . . .
21770(150) . . .
22420(150) . . .
21720(150) . . .
19550(140) . . .
16510(130) . . .
13330(120) . . .
10660(100) . . .
8261(91) . . .
6474(80) . . .
5155(72) . . .
4299(66) . . .
3540(59) . . .
2911(54) . . .
2435(49) . . .
2168(47) . . .
1860(43) . . .
1663(41) . . .
1488(39) . . .
1394(37) . . .
1189(34) . . .
1093(33) . . .
960(31) . . .
974(31) . . .
882(30) . . .
789(28) . . .
732(27) . . .
668(26) . . .
667(26) . . .
646(25) . . .
615(25) . . .
607(25) . . .
546(23) . . .
537(23) . . .
481(22) . . .
510(23) . . .
475(22) . . .
438(21) . . .
459(21) . . .
452(21) . . .
432(21) . . .
433(21) . . .
433(21) . . .
411(20) . . .
420(20) . . .
408(20) . . .
345(19) . . .
367(19) . . .
392(20) . . .
369(19) . . .
377(19) . . .
352(19) . . .
358(19) . . .
337(18) . . .
343(19) . . .
366(19) . . .
360(19) . . .
341(18) . . .
338(18) . . .
324(18) . . .
357(19) . . .
338(18) . . .
317(18) . . .
326(18) . . .
314(18) . . .
319(18) . . .
330(18) . . .
319(18) . . .
327(18) . . .
313(18) . . .
313(18) . . .
321(18) . . .
312(18) . . .
320(18) . . .
348(19) . . .
325(18) . . .
332(18) . . .
329(18) . . .
359(19) . . .
316(18) . . .
325(18) . . .
323(18) . . .
324(18) . . .
306(17) . . .
345(19) . . .
322(18) . . .
313(18) . . .
314(18) . . .
317(18) . . .
342(18) . . .
312(18) . . .
318(18) . . .
302(17) . . .
282(17) . . .
323(18) . . .
301(17) . . .
325(18) . . .
340(18) . . .
305(17) . . .
312(18) . . .
317(18) . . .
314(18) . . .
317(18) . . .
305(17) . . .
302(17) . . .
319(18) . . .
312(18) . . .
330(18) . . .
303(17) . . .
306(17) . . .
320(18) . . .
319(18) . . .
290(17) . . .
292(17) . . .
312(18) . . .
293(17) . . .
299(17) . . .
299(17) . . .
296(17) . . .
286(17) . . .
282(17) . . .
289(17) . . .
275(17) . . .
283(17) . . .
265(16) . . .
322(18) . . .
304(17) . . .
293(17) . . .
303(17) . . .
294(17) . . .
266(16) . . .
261(16) . . .
310(18) . . .
315(18) . . .
316(18) . . .
275(17) . . .
280(17) . . .
286(17) . . .
287(17) . . .
270(16) . . .
302(17) . . .
262(16) . . .
302(17) . . .
283(17) . . .
279(17) . . .
272(16) . . .
277(17) . . .
311(18) . . .
277(17) . . .
267(16) . . .
267(16) . . .
280(17) . . .
294(17) . . .
278(17) . . .
268(16) . . .
269(16) . . .
284(17) . . .
279(17) . . .
272(16) . . .
276(17) . . .
259(16) . . .
295(17) . . .
304(17) . . .
291(17) . . .
297(17) . . .
283(17) . . .
267(16) . . .
269(16) . . .
283(17) . . .
289(17) . . .
256(16) . . .
267(16) . . .
262(16) . . .
275(17) . . .
277(17) . . .
275(17) . . .
260(16) . . .
274(17) . . .
303(17) . . .
275(17) . . .
271(16) . . .
282(17) . . .
315(18) . . .
275(17) . . .
276(17) . . .
287(17) . . .
288(17) . . .
298(17) . . .
263(16) . . .
309(18) . . .
315(18) . . .
307(18) . . .
280(17) . . .
299(17) . . .
288(17) . . .
281(17) . . .
320(18) . . .
308(18) . . .
291(17) . . .
285(17) . . .
292(17) . . .
288(17) . . .
284(17) . . .
285(17) . . .
287(17) . . .
287(17) . . .
275(17) . . .
275(17) . . .
282(17) . . .
259(16) . . .
295(17) . . .
305(17) . . .
263(16) . . .
286(17) . . .
251(16) . . .
290(17) . . .
291(17) . . .
259(16) . . .
271(16) . . .
262(16) . . .
277(17) . . .
300(17) . . .
270(16) . . .
239(15) . . .
270(16) . . .
278(17) . . .
281(17) . . .
295(17) . . .
280(17) . . .
274(17) . . .
292(17) . . .
283(17) . . .
283(17) . . .
287(17) . . .
297(17) . . .
281(17) . . .
292(17) . . .
289(17) . . .
263(16) . . .
267(16) . . .
272(16) . . .
269(16) . . .
253(16) . . .
281(17) . . .
274(17) . . .
295(17) . . .
278(17) . . .
294(17) . . .
279(17) . . .
295(17) . . .
262(16) . . .
289(17) . . .
267(16) . . .
254(16) . . .
270(16) . . .
283(17) . . .
284(17) . . .
275(17) . . .
289(17) . . .
289(17) . . .
288(17) . . .
260(16) . . .
281(17) . . .
288(17) . . .
295(17) . . .
274(17) . . .
285(17) . . .
291(17) . . .
270(16) . . .
291(17) . . .
282(17) . . .
281(17) . . .
269(16) . . .
262(16) . . .
271(16) . . .
268(16) . . .
282(17) . . .
266(16) . . .
269(16) . . .
240(15) . . .
274(17) . . .
248(16) . . .
256(16) . . .
276(17) . . .
292(17) . . .
263(16) . . .
275(17) . . .
258(16) . . .
267(16) . . .
288(17) . . .
268(16) . . .
271(16) . . .
274(17) . . .
272(16) . . .
256(16) . . .
266(16) . . .
265(16) . . .
267(16) . . .
277(17) . . .
257(16) . . .
275(17) . . .
282(17) . . .
253(16) . . .
270(16) . . .
296(17) . . .
256(16) . . .
266(16) . . .
258(16) . . .
273(17) . . .
277(17) . . .
252(16) . . .
233(15) . . .
250(16) . . .
234(15) . . .
254(16) . . .
276(17) . . .
247(16) . . .
255(16) . . .
241(16) . . .
242(16) . . .
268(16) . . .
237(15) . . .
265(16) . . .
260(16) . . .
276(17) . . .
258(16) . . .
256(16) . . .
273(17) . . .
271(16) . . .
247(16) . . .
269(16) . . .
265(16) . . .
229(15) . . .
268(16) . . .
250(16) . . .
261(16) . . .
280(17) . . .
254(16) . . .
244(16) . . .
266(16) . . .
213(15) . . .
257(16) . . .
230(15) . . .
236(15) . . .
250(16) . . .
239(15) . . .
266(16) . . .
248(16) . . .
232(15) . . .
243(16) . . .
263(16) . . .
249(16) . . .
247(16) . . .
253(16) . . .
246(16) . . .
261(16) . . .
258(16) . . .
270(16) . . .
264(16) . . .
244(16) . . .
269(16) . . .
233(15) . . .
260(16) . . .
268(16) . . .
257(16) . . .
250(16) . . .
295(17) . . .
260(16) . . .
253(16) . . .
262(16) . . .
275(17) . . .
258(16) . . .
279(17) . . .
282(17) . . .
251(16) . . .
263(16) . . .
255(16) . . .
246(16) . . .
270(16) . . .
278(17) . . .
261(16) . . .
287(17) . . .
290(17) . . .
285(17) . . .
272(16) . . .
262(16) . . .
309(18) . . .
295(17) . . .
300(17) . . .
297(17) . . .
270(16) . . .
304(17) . . .
273(17) . . .
325(18) . . .
306(17) . . .
299(17) . . .
305(17) . . .
293(17) . . .
283(17) . . .
300(17) . . .
292(17) . . .
279(17) . . .
271(16) . . .
284(17) . . .
255(16) . . .
316(18) . . .
278(17) . . .
261(16) . . .
314(18) . . .
253(16) . . .
289(17) . . .
285(17) . . .
270(16) . . .
285(17) . . .
272(16) . . .
273(17) . . .
278(17) . . .
289(17) . . .
282(17) . . .
271(16) . . .
306(17) . . .
272(16) . . .
258(16) . . .
310(18) . . .
271(16) . . .
259(16) . . .
267(16) . . .
277(17) . . .
284(17) . . .
286(17) . . .
251(16) . . .
286(17) . . .
268(16) . . .
253(16) . . .
270(16) . . .
275(17) . . .
248(16) . . .
279(17) . . .
256(16) . . .
276(17) . . .
272(16) . . .
280(17) . . .
269(16) . . .
276(17) . . .
285(17) . . .
287(17) . . .
271(16) . . .
258(16) . . .
243(16) . . .
261(16) . . .
250(16) . . .
267(16) . . .
293(17) . . .
289(17) . . .
252(16) . . .
275(17) . . .
279(17) . . .
258(16) . . .
288(17) . . .
251(16) . . .
252(16) . . .
263(16) . . .
250(16) . . .
295(17) . . .
263(16) . . .
274(17) . . .
273(17) . . .
255(16) . . .
286(17) . . .
278(17) . . .
265(16) . . .
309(18) . . .
266(16) . . .
263(16) . . .
276(17) . . .
278(17) . . .
272(16) . . .
278(17) . . .
315(18) . . .
294(17) . . .
306(17) . . .
312(18) . . .
303(17) . . .
287(17) . . .
291(17) . . .
299(17) . . .
293(17) . . .
294(17) . . .
298(17) . . .
306(17) . . .
268(16) . . .
308(18) . . .
311(18) . . .
277(17) . . .
328(18) . . .
273(17) . . .
291(17) . . .
307(18) . . .
291(17) . . .
279(17) . . .
316(18) . . .
259(16) . . .
291(17) . . .
296(17) . . .
284(17) . . .
255(16) . . .
299(17) . . .
271(16) . . .
296(17) . . .
263(16) . . .
263(16) . . .
282(17) . . .
259(16) . . .
286(17) . . .
271(16) . . .
278(17) . . .
240(15) . . .
270(16) . . .
271(16) . . .
256(16) . . .
276(17) . . .
298(17) . . .
288(17) . . .
257(16) . . .
270(16) . . .
292(17) . . .
253(16) . . .
259(16) . . .
265(16) . . .
275(17) . . .
260(16) . . .
264(16) . . .
269(16) . . .
257(16) . . .
282(17) . . .
265(16) . . .
270(16) . . .
264(16) . . .
266(16) . . .
261(16) . . .
252(16) . . .
239(15) . . .
246(16) . . .
274(17) . . .
248(16) . . .
270(16) . . .
290(17) . . .
254(16) . . .
263(16) . . .
297(17) . . .
273(17) . . .
283(17) . . .
268(16) . . .
311(18) . . .
264(16) . . .
303(17) . . .
276(17) . . .
290(17) . . .
256(16) . . .
262(16) . . .
252(16) . . .
271(16) . . .
266(16) . . .
296(17) . . .
290(17) . . .
257(16) . . .
265(16) . . .
289(17) . . .
280(17) . . .
270(16) . . .
289(17) . . .
258(16) . . .
275(17) . . .
283(17) . . .
278(17) . . .
265(16) . . .
251(16) . . .
292(17) . . .
254(16) . . .
251(16) . . .
276(17) . . .
272(16) . . .
280(17) . . .
283(17) . . .
245(16) . . .
274(17) . . .
273(17) . . .
299(17) . . .
255(16) . . .
284(17) . . .
293(17) . . .
277(17) . . .
272(16) . . .
267(16) . . .
284(17) . . .
290(17) . . .
239(15) . . .
269(16) . . .
259(16) . . .
287(17) . . .
287(17) . . .
266(16) . . .
281(17) . . .
266(16) . . .
258(16) . . .
300(17) . . .
269(16) . . .
295(17) . . .
253(16) . . .
263(16) . . .
273(17) . . .
287(17) . . .
280(17) . . .
267(16) . . .
263(16) . . .
248(16) . . .
270(16) . . .
265(16) . . .
272(16) . . .
277(17) . . .
257(16) . . .
251(16) . . .
258(16) . . .
271(16) . . .
259(16) . . .
246(16) . . .
250(16) . . .
274(17) . . .
255(16) . . .
265(16) . . .
267(16) . . .
274(17) . . .
267(16) . . .
257(16) . . .
295(17) . . .
277(17) . . .
281(17) . . .
311(18) . . .
272(16) . . .
256(16) . . .
266(16) . . .
270(16) . . .
258(16) . . .
260(16) . . .
298(17) . . .
286(17) . . .
272(16) . . .
249(16) . . .
258(16) . . .
262(16) . . .
296(17) . . .
273(17) . . .
282(17) . . .
262(16) . . .
273(17) . . .
266(16) . . .
267(16) . . .
269(16) . . .
241(16) . . .
254(16) . . .
265(16) . . .
258(16) . . .
270(16) . . .
267(16) . . .
283(17) . . .
254(16) . . .
264(16) . . .
274(17) . . .
274(17) . . .
285(17) . . .
269(16) . . .
252(16) . . .
280(17) . . .
264(16) . . .
242(16) . . .
253(16) . . .
273(17) . . .
314(18) . . .
300(17) . . .
297(17) . . .
253(16) . . .
248(16) . . .
292(17) . . .
230(15) . . .
257(16) . . .
254(16) . . .
258(16) . . .
274(17) . . .
257(16) . . .
274(17) . . .
260(16) . . .
270(16) . . .
259(16) . . .
264(16) . . .
280(17) . . .
253(16) . . .
259(16) . . .
281(17) . . .
292(17) . . .
277(17) . . .
289(17) . . .
279(17) . . .
261(16) . . .
297(17) . . .
277(17) . . .
271(16) . . .
273(17) . . .
301(17) . . .
266(16) . . .
276(17) . . .
276(17) . . .
281(17) . . .
283(17) . . .
264(16) . . .
256(16) . . .
255(16) . . .
292(17) . . .
269(16) . . .
270(16) . . .
270(16) . . .
277(17) . . .
263(16) . . .
287(17) . . .
278(17) . . .
271(16) . . .
287(17) . . .
296(17) . . .
309(18) . . .
273(17) . . .
286(17) . . .
281(17) . . .
288(17) . . .
291(17) . . .
254(16) . . .
272(16) . . .
248(16) . . .
286(17) . . .
267(16) . . .
264(16) . . .
285(17) . . .
261(16) . . .
282(17) . . .
273(17) . . .
254(16) . . .
273(17) . . .
251(16) . . .
301(17) . . .
246(16) . . .
263(16) . . .
301(17) . . .
274(17) . . .
281(17) . . .
270(16) . . .
276(17) . . .
271(16) . . .
267(16) . . .
280(17) . . .
267(16) . . .
248(16) . . .
242(16) . . .
257(16) . . .
248(16) . . .
267(16) . . .
270(16) . . .
246(16) . . .
261(16) . . .
255(16) . . .
278(17) . . .
282(17) . . .
304(17) . . .
263(16) . . .
236(15) . . .
270(16) . . .
273(17) . . .
281(17) . . .
261(16) . . .
274(17) . . .
288(17) . . .
277(17) . . .
273(17) . . .
294(17) . . .
251(16) . . .
269(16) . . .
280(17) . . .
277(17) . . .
266(16) . . .
287(17) . . .
256(16) . . .
286(17) . . .
268(16) . . .
253(16) . . .
274(17) . . .
278(17) . . .
270(16) . . .
263(16) . . .
267(16) . . .
280(17) . . .
279(17) . . .
282(17) . . .
287(17) . . .
274(17) . . .
262(16) . . .
307(18) . . .
289(17) . . .
298(17) . . .
264(16) . . .
285(17) . . .
282(17) . . .
283(17) . . .
284(17) . . .
279(17) . . .
299(17) . . .
268(16) . . .
289(17) . . .
290(17) . . .
265(16) . . .
287(17) . . .
284(17) . . .
282(17) . . .
289(17) . . .
304(17) . . .
305(17) . . .
293(17) . . .
280(17) . . .
286(17) . . .
263(16) . . .
276(17) . . .
300(17) . . .
284(17) . . .
317(18) . . .
293(17) . . .
293(17) . . .
269(16) . . .
256(16) . . .
302(17) . . .
285(17) . . .
270(16) . . .
271(16) . . .
289(17) . . .
286(17) . . .
297(17) . . .
299(17) . . .
289(17) . . .
282(17) . . .
319(18) . . .
246(16) . . .
293(17) . . .
275(17) . . .
285(17) . . .
280(17) . . .
291(17) . . .
263(16) . . .
303(17) . . .
335(18) . . .
292(17) . . .
298(17) . . .
309(18) . . .
311(18) . . .
288(17) . . .
317(18) . . .
286(17) . . .
304(17) . . .
316(18) . . .
288(17) . . .
307(18) . . .
310(18) . . .
309(18) . . .
288(17) . . .
267(16) . . .
297(17) . . .
306(17) . . .
312(18) . . .
306(17) . . .
308(18) . . .
323(18) . . .
290(17) . . .
308(18) . . .
311(18) . . .
330(18) . . .
299(17) . . .
306(17) . . .
309(18) . . .
329(18) . . .
326(18) . . .
306(17) . . .
279(17) . . .
311(18) . . .
288(17) . . .
323(18) . . .
292(17) . . .
309(18) . . .
301(17) . . .
305(17) . . .
321(18) . . .
300(17) . . .
301(17) . . .
288(17) . . .
307(18) . . .
297(17) . . .
310(18) . . .
291(17) . . .
337(18) . . .
310(18) . . .
307(18) . . .
278(17) . . .
299(17) . . .
308(18) . . .
291(17) . . .
275(17) . . .
311(18) . . .
296(17) . . .
295(17) . . .
325(18) . . .
297(17) . . .
304(17) . . .
299(17) . . .
287(17) . . .
288(17) . . .
306(17) . . .
298(17) . . .
304(17) . . .
286(17) . . .
281(17) . . .
313(18) . . .
275(17) . . .
280(17) . . .
309(18) . . .
314(18) . . .
287(17) . . .
290(17) . . .
283(17) . . .
303(17) . . .
289(17) . . .
285(17) . . .
310(18) . . .
281(17) . . .
298(17) . . .
307(18) . . .
303(17) . . .
304(17) . . .
314(18) . . .
271(16) . . .
290(17) . . .
313(18) . . .
303(17) . . .
318(18) . . .
283(17) . . .
294(17) . . .
291(17) . . .
315(18) . . .
313(18) . . .
303(17) . . .
295(17) . . .
290(17) . . .
289(17) . . .
300(17) . . .
317(18) . . .
307(18) . . .
293(17) . . .
312(18) . . .
279(17) . . .
293(17) . . .
296(17) . . .
320(18) . . .
303(17) . . .
316(18) . . .
308(18) . . .
313(18) . . .
323(18) . . .
285(17) . . .
331(18) . . .
316(18) . . .
308(18) . . .
321(18) . . .
299(17) . . .
301(17) . . .
327(18) . . .
308(18) . . .
290(17) . . .
303(17) . . .
318(18) . . .
298(17) . . .
305(17) . . .
316(18) . . .
303(17) . . .
303(17) . . .
289(17) . . .
327(18) . . .
321(18) . . .
299(17) . . .
291(17) . . .
314(18) . . .
326(18) . . .
312(18) . . .
310(18) . . .
302(17) . . .
305(17) . . .
313(18) . . .
349(19) . . .
324(18) . . .
301(17) . . .
309(18) . . .
329(18) . . .
320(18) . . .
307(18) . . .
302(17) . . .
312(18) . . .
295(17) . . .
302(17) . . .
309(18) . . .
307(18) . . .
323(18) . . .
334(18) . . .
310(18) . . .
279(17) . . .
302(17) . . .
309(18) . . .
301(17) . . .
295(17) . . .
317(18) . . .
313(18) . . .
320(18) . . .
315(18) . . .
305(17) . . .
332(18) . . .
324(18) . . .
328(18) . . .
310(18) . . .
325(18) . . .
312(18) . . .
345(19) . . .
310(18) . . .
319(18) . . .
342(18) . . .
321(18) . . .
308(18) . . .
321(18) . . .
332(18) . . .
310(18) . . .
330(18) . . .
344(19) . . .
349(19) . . .
303(17) . . .
337(18) . . .
321(18) . . .
304(17) . . .
338(18) . . .
341(18) . . .
341(18) . . .
337(18) . . .
347(19) . . .
327(18) . . .
318(18) . . .
342(18) . . .
322(18) . . .
321(18) . . .
301(17) . . .
336(18) . . .
338(18) . . .
325(18) . . .
342(18) . . .
339(18) . . .
316(18) . . .
319(18) . . .
319(18) . . .
330(18) . . .
310(18) . . .
337(18) . . .
323(18) . . .
322(18) . . .
346(19) . . .
340(18) . . .
347(19) . . .
324(18) . . .
337(18) . . .
336(18) . . .
335(18) . . .
318(18) . . .
339(18) . . .
363(19) . . .
348(19) . . .
334(18) . . .
373(19) . . .
325(18) . . .
308(18) . . .
358(19) . . .
340(18) . . .
366(19) . . .
373(19) . . .
375(19) . . .
331(18) . . .
361(19) . . .
381(20) . . .
370(19) . . .
369(19) . . .
388(20) . . .
390(20) . . .
354(19) . . .
374(19) . . .
373(19) . . .
373(19) . . .
388(20) . . .
377(19) . . .
410(20) . . .
428(21) . . .
419(20) . . .
416(20) . . .
418(20) . . .
416(20) . . .
426(21) . . .
420(20) . . .
427(21) . . .
463(22) . . .
431(21) . . .
462(21) . . .
467(22) . . .
475(22) . . .
494(22) . . .
474(22) . . .
466(22) . . .
521(23) . . .
509(23) . . .
506(22) . . .
529(23) . . .
548(23) . . .
554(24) . . .
561(24) . . .
614(25) . . .
582(24) . . .
628(25) . . .
626(25) . . .
679(26) . . .
671(26) . . .
699(26) . . .
735(27) . . .
783(28) . . .
821(29) . . .
834(29) . . .
899(30) . . .
982(31) . . .
1000(32) . . .
1046(32) . . .
1131(34) . . .
1248(35) . . .
1408(38) . . .
1502(39) . . .
1638(40) . . .
1785(42) . . .
1991(45) . . .
2203(47) . . .
2413(49) . . .
2757(53) . . .
3062(55) . . .
3487(59) . . .
4069(64) . . .
4769(69) . . .
5533(74) . . .
6535(81) . . .
7532(87) . . .
9135(96) . . .
11350(110) . . .
13780(120) . . .
16600(130) . . .
20620(140) . . .
24560(160) . . .
28300(170) . . .
31010(180) . . .
32780(180) . . .
32650(180) . . .
31120(180) . . .
27760(170) . . .
24120(160) . . .
19970(140) . . .
16310(130) . . .
13120(120) . . .
10650(100) . . .
8763(94) . . .
7251(85) . . .
6108(78) . . .
5176(72) . . .
4479(67) . . .
3809(62) . . .
3230(57) . . .
2911(54) . . .
2547(50) . . .
2271(48) . . .
1975(44) . . .
1851(43) . . .
1606(40) . . .
1509(39) . . .
1364(37) . . .
1307(36) . . .
1171(34) . . .
1129(34) . . .
1027(32) . . .
1015(32) . . .
902(30) . . .
886(30) . . .
869(29) . . .
855(29) . . .
752(27) . . .
709(27) . . .
691(26) . . .
700(26) . . .
632(25) . . .
623(25) . . .
616(25) . . .
608(25) . . .
586(24) . . .
544(23) . . .
511(23) . . .
494(22) . . .
504(22) . . .
467(22) . . .
496(22) . . .
475(22) . . .
477(22) . . .
493(22) . . .
458(21) . . .
460(21) . . .
477(22) . . .
475(22) . . .
435(21) . . .
431(21) . . .
407(20) . . .
423(21) . . .
454(21) . . .
456(21) . . .
447(21) . . .
429(21) . . .
408(20) . . .
395(20) . . .
421(21) . . .
421(21) . . .
408(20) . . .
357(19) . . .
391(20) . . .
388(20) . . .
384(20) . . .
393(20) . . .
399(20) . . .
363(19) . . .
351(19) . . .
353(19) . . .
390(20) . . .
377(19) . . .
372(19) . . .
387(20) . . .
380(19) . . .
356(19) . . .
318(18) . . .
355(19) . . .
355(19) . . .
343(19) . . .
380(19) . . .
366(19) . . .
379(19) . . .
359(19) . . .
395(20) . . .
361(19) . . .
390(20) . . .
324(18) . . .
373(19) . . .
370(19) . . .
363(19) . . .
401(20) . . .
377(19) . . .
385(20) . . .
382(20) . . .
405(20) . . .
336(18) . . .
372(19) . . .
395(20) . . .
374(19) . . .
374(19) . . .
380(19) . . .
403(20) . . .
390(20) . . .
359(19) . . .
379(19) . . .
349(19) . . .
366(19) . . .
359(19) . . .
363(19) . . .
407(20) . . .
353(19) . . .
385(20) . . .
345(19) . . .
378(19) . . .
387(20) . . .
405(20) . . .
357(19) . . .
360(19) . . .
367(19) . . .
390(20) . . .
333(18) . . .
371(19) . . .
369(19) . . .
372(19) . . .
417(20) . . .
364(19) . . .
411(20) . . .
374(19) . . .
392(20) . . .
376(19) . . .
380(19) . . .
372(19) . . .
358(19) . . .
367(19) . . .
366(19) . . .
413(20) . . .
362(19) . . .
400(20) . . .
339(18) . . .
376(19) . . .
338(18) . . .
376(19) . . .
348(19) . . .
377(19) . . .
374(19) . . .
361(19) . . .
398(20) . . .
371(19) . . .
332(18) . . .
350(19) . . .
350(19) . . .
343(19) . . .
340(18) . . .
352(19) . . .
353(19) . . .
345(19) . . .
362(19) . . .
347(19) . . .
321(18) . . .
337(18) . . .
347(19) . . .
343(19) . . .
369(19) . . .
333(18) . . .
342(18) . . .
328(18) . . .
354(19) . . .
352(19) . . .
325(18) . . .
334(18) . . .
354(19) . . .
352(19) . . .
346(19) . . .
357(19) . . .
347(19) . . .
366(19) . . .
351(19) . . .
363(19) . . .
387(20) . . .
326(18) . . .
352(19) . . .
352(19) . . .
366(19) . . .
364(19) . . .
352(19) . . .
351(19) . . .
359(19) . . .
329(18) . . .
361(19) . . .
355(19) . . .
324(18) . . .
302(17) . . .
372(19) . . .
362(19) . . .
350(19) . . .
340(18) . . .
352(19) . . .
309(18) . . .
354(19) . . .
366(19) . . .
370(19) . . .
393(20) . . .
381(20) . . .
357(19) . . .
357(19) . . .
381(20) . . .
380(19) . . .
346(19) . . .
320(18) . . .
349(19) . . .
350(19) . . .
360(19) . . .
371(19) . . .
377(19) . . .
359(19) . . .
348(19) . . .
344(19) . . .
359(19) . . .
365(19) . . .
375(19) . . .
378(19) . . .
367(19) . . .
382(20) . . .
360(19) . . .
361(19) . . .
369(19) . . .
346(19) . . .
356(19) . . .
360(19) . . .
347(19) . . .
365(19) . . .
357(19) . . .
377(19) . . .
349(19) . . .
368(19) . . .
383(20) . . .
383(20) . . .
367(19) . . .
374(19) . . .
354(19) . . .
425(21) . . .
379(19) . . .
393(20) . . .
390(20) . . .
355(19) . . .
352(19) . . .
377(19) . . .
407(20) . . .
374(19) . . .
352(19) . . .
380(19) . . .
369(19) . . .
379(19) . . .
408(20) . . .
377(19) . . .
396(20) . . .
391(20) . . .
409(20) . . .
374(19) . . .
370(19) . . .
354(19) . . .
396(20) . . .
380(19) . . .
404(20) . . .
378(19) . . .
374(19) . . .
388(20) . . .
377(19) . . .
385(20) . . .
357(19) . . .
405(20) . . .
390(20) . . .
372(19) . . .
395(20) . . .
408(20) . . .
373(19) . . .
416(20) . . .
394(20) . . .
389(20) . . .
406(20) . . .
389(20) . . .
387(20) . . .
403(20) . . .
391(20) . . .
398(20) . . .
422(21) . . .
376(19) . . .
393(20) . . .
433(21) . . .
395(20) . . .
373(19) . . .
388(20) . . .
412(20) . . .
402(20) . . .
413(20) . . .
411(20) . . .
397(20) . . .
432(21) . . .
458(21) . . .
434(21) . . .
412(20) . . .
417(20) . . .
466(22) . . .
425(21) . . .
452(21) . . .
460(21) . . .
453(21) . . .
456(21) . . .
467(22) . . .
449(21) . . .
502(22) . . .
460(21) . . .
500(22) . . .
468(22) . . .
520(23) . . .
540(23) . . .
527(23) . . .
524(23) . . .
590(24) . . .
581(24) . . .
577(24) . . .
591(24) . . .
621(25) . . .
602(25) . . .
658(26) . . .
643(25) . . .
691(26) . . .
686(26) . . .
733(27) . . .
771(28) . . .
752(27) . . .
821(29) . . .
837(29) . . .
886(30) . . .
910(30) . . .
933(31) . . .
1042(32) . . .
1128(34) . . .
1205(35) . . .
1280(36) . . .
1332(36) . . .
1450(38) . . .
1552(39) . . .
1812(43) . . .
1865(43) . . .
2089(46) . . .
2219(47) . . .
2547(50) . . .
2771(53) . . .
3231(57) . . .
3633(60) . . .
4254(65) . . .
4795(69) . . .
5734(76) . . .
6638(81) . . .
7932(89) . . .
9525(98) . . .
11660(110) . . .
14450(120) . . .
17950(130) . . .
22340(150) . . .
27410(170) . . .
32320(180) . . .
36690(190) . . .
40060(200) . . .
40530(200) . . .
40010(200) . . .
37190(190) . . .
32770(180) . . .
27550(170) . . .
22950(150) . . .
18340(140) . . .
14830(120) . . .
12010(110) . . .
9776(99) . . .
8054(90) . . .
6590(81) . . .
5573(75) . . .
4828(69) . . .
4184(65) . . .
3581(60) . . .
3311(58) . . .
2858(53) . . .
2488(50) . . .
2334(48) . . .
2067(45) . . .
1870(43) . . .
1698(41) . . .
1581(40) . . .
1486(39) . . .
1299(36) . . .
1187(34) . . .
1136(34) . . .
1110(33) . . .
1034(32) . . .
1001(32) . . .
906(30) . . .
833(29) . . .
777(28) . . .
802(28) . . .
755(27) . . .
727(27) . . .
755(27) . . .
710(27) . . .
671(26) . . .
621(25) . . .
629(25) . . .
624(25) . . .
603(25) . . .
549(23) . . .
563(24) . . .
546(23) . . .
579(24) . . .
499(22) . . .
516(23) . . .
528(23) . . .
521(23) . . .
507(23) . . .
542(23) . . .
465(22) . . .
480(22) . . .
459(21) . . .
438(21) . . .
452(21) . . .
434(21) . . .
438(21) . . .
460(21) . . .
445(21) . . .
422(21) . . .
425(21) . . .
430(21) . . .
431(21) . . .
410(20) . . .
418(20) . . .
391(20) . . .
389(20) . . .
413(20) . . .
392(20) . . .
419(20) . . .
376(19) . . .
371(19) . . .
380(19) . . .
340(18) . . .
405(20) . . .
392(20) . . .
383(20) . . .
355(19) . . .
365(19) . . .
374(19) . . .
373(19) . . .
375(19) . . .
352(19) . . .
354(19) . . .
335(18) . . .
379(19) . . .
362(19) . . .
358(19) . . .
372(19) . . .
364(19) . . .
365(19) . . .
390(20) . . .
355(19) . . .
348(19) . . .
362(19) . . .
331(18) . . .
336(18) . . .
326(18) . . .
343(19) . . .
364(19) . . .
366(19) . . .
322(18) . . .
305(17) . . .
325(18) . . .
361(19) . . .
365(19) . . .
377(19) . . .
330(18) . . .
346(19) . . .
326(18) . . .
346(19) . . .
349(19) . . .
339(18) . . .
336(18) . . .
360(19) . . .
334(18) . . .
355(19) . . .
337(18) . . .
317(18) . . .
348(19) . . .
334(18) . . .
321(18) . . .
300(17) . . .
337(18) . . .
331(18) . . .
336(18) . . .
341(18) . . .
337(18) . . .
349(19) . . .
301(17) . . .
340(18) . . .
347(19) . . .
343(19) . . .
336(18) . . .
309(18) . . .
315(18) . . .
308(18) . . .
339(18) . . .
351(19) . . .
341(18) . . .
334(18) . . .
310(18) . . .
330(18) . . .
307(18) . . .
316(18) . . .
321(18) . . .
331(18) . . .
313(18) . . .
317(18) . . .
311(18) . . .
310(18) . . .
294(17) . . .
290(17) . . .
301(17) . . .
331(18) . . .
339(18) . . .
312(18) . . .
339(18) . . .
333(18) . . .
332(18) . . .
326(18) . . .
273(17) . . .
311(18) . . .
302(17) . . .
304(17) . . .
290(17) . . .
297(17) . . .
331(18) . . .
294(17) . . .
299(17) . . .
305(17) . . .
287(17) . . .
296(17) . . .
279(17) . . .
302(17) . . .
330(18) . . .
270(16) . . .
292(17) . . .
322(18) . . .
318(18) . . .
276(17) . . .
330(18) . . .
327(18) . . .
288(17) . . .
295(17) . . .
331(18) . . .
308(18) . . .
302(17) . . .
306(17) . . .
301(17) . . .
297(17) . . .
299(17) . . .
279(17) . . .
286(17) . . .
280(17) . . .
289(17) . . .
300(17) . . .
311(18) . . .
301(17) . . .
284(17) . . .
284(17) . . .
271(16) . . .
284(17) . . .
274(17) . . .
282(17) . . .
325(18) . . .
289(17) . . .
293(17) . . .
295(17) . . .
283(17) . . .
303(17) . . .
280(17) . . .
299(17) . . .
291(17) . . .
305(17) . . .
281(17) . . .
278(17) . . .
286(17) . . .
309(18) . . .
315(18) . . .
308(18) . . .
304(17) . . .
285(17) . . .
277(17) . . .
310(18) . . .
286(17) . . .
287(17) . . .
324(18) . . .
309(18) . . .
275(17) . . .
299(17) . . .
309(18) . . .
294(17) . . .
285(17) . . .
292(17) . . .
296(17) . . .
291(17) . . .
293(17) . . .
269(16) . . .
267(16) . . .
255(16) . . .
270(16) . . .
305(17) . . .
267(16) . . .
277(17) . . .
282(17) . . .
286(17) . . .
265(16) . . .
250(16) . . .
272(16) . . .
261(16) . . .
263(16) . . .
277(17) . . .
263(16) . . .
265(16) . . .
297(17) . . .
278(17) . . .
291(17) . . .
281(17) . . .
303(17) . . .
299(17) . . .
297(17) . . .
278(17) . . .
275(17) . . .
275(17) . . .
270(16) . . .
297(17) . . .
279(17) . . .
265(16) . . .
260(16) . . .
295(17) . . .
263(16) . . .
274(17) . . .
299(17) . . .
280(17) . . .
304(17) . . .
271(16) . . .
267(16) . . .
274(17) . . .
303(17) . . .
279(17) . . .
278(17) . . .
291(17) . . .
291(17) . . .
302(17) . . .
299(17) . . .
295(17) . . .
274(17) . . .
271(16) . . .
272(16) . . .
280(17) . . .
304(17) . . .
293(17) . . .
273(17) . . .
297(17) . . .
283(17) . . .
257(16) . . .
294(17) . . .
278(17) . . .
290(17) . . .
285(17) . . .
267(16) . . .
278(17) . . .
270(16) . . .
246(16) . . .
279(17) . . .
267(16) . . .
261(16) . . .
275(17) . . .
283(17) . . .
291(17) . . .
276(17) . . .
277(17) . . .
262(16) . . .
255(16) . . .
274(17) . . .
278(17) . . .
277(17) . . .
271(16) . . .
306(17) . . .
272(16) . . .
284(17) . . .
293(17) . . .
259(16) . . .
255(16) . . .
258(16) . . .
294(17) . . .
262(16) . . .
294(17) . . .
265(16) . . .
270(16) . . .
265(16) . . .
302(17) . . .
274(17) . . .
277(17) . . .
245(16) . . .
273(17) . . .
270(16) . . .
276(17) . . .
253(16) . . .
286(17) . . .
304(17) . . .
265(16) . . .
303(17) . . .
288(17) . . .
263(16) . . .
260(16) . . .
277(17) . . .
281(17) . . .
283(17) . . .
280(17) . . .
252(16) . . .
241(16) . . .
263(16) . . .
266(16) . . .
241(16) . . .
268(16) . . .
253(16) . . .
275(17) . . .
272(16) . . .
289(17) . . .
267(16) . . .
297(17) . . .
285(17) . . .
260(16) . . .
282(17) . . .
253(16) . . .
277(17) . . .
305(17) . . .
278(17) . . .
267(16) . . .
279(17) . . .
264(16) . . .
282(17) . . .
271(16) . . .
305(17) . . .
250(16) . . .
278(17) . . .
278(17) . . .
262(16) . . .
265(16) . . .
265(16) . . .
306(17) . . .
257(16) . . .
267(16) . . .
276(17) . . .
265(16) . . .
250(16) . . .
258(16) . . .
290(17) . . .
257(16) . . .
281(17) . . .
266(16) . . .
262(16) . . .
251(16) . . .
258(16) . . .
257(16) . . .
258(16) . . .
251(16) . . .
247(16) . . .
261(16) . . .
268(16) . . .
240(15) . . .
262(16) . . .
245(16) . . .
271(16) . . .
272(16) . . .
251(16) . . .
281(17) . . .
269(16) . . .
264(16) . . .
258(16) . . .
272(16) . . .
251(16) . . .
274(17) . . .
295(17) . . .
259(16) . . .
248(16) . . .
260(16) . . .
265(16) . . .
256(16) . . .
256(16) . . .
289(17) . . .
280(17) . . .
254(16) . . .
273(17) . . .
249(16) . . .
240(15) . . .
285(17) . . .
253(16) . . .
267(16) . . .
255(16) . . .
287(17) . . .
284(17) . . .
292(17) . . .
271(16) . . .
238(15) . . .
284(17) . . .
241(16) . . .
280(17) . . .
276(17) . . .
262(16) . . .
252(16) . . .
241(16) . . .
281(17) . . .
258(16) . . .
262(16) . . .
279(17) . . .
250(16) . . .
277(17) . . .
271(16) . . .
255(16) . . .
270(16) . . .
266(16) . . .
269(16) . . .
274(17) . . .
279(17) . . .
265(16) . . .
277(17) . . .
282(17) . . .
277(17) . . .
272(16) . . .
286(17) . . .
281(17) . . .
277(17) . . .
257(16) . . .
261(16) . . .
265(16) . . .
263(16) . . .
245(16) . . .
262(16) . . .
273(17) . . .
286(17) . . .
260(16) . . .
262(16) . . .
269(16) . . .
252(16) . . .
257(16) . . .
268(16) . . .
257(16) . . .
240(15) . . .
242(16) . . .
266(16) . . .
252(16) . . .
266(16) . . .
250(16) . . .
272(16) . . .
281(17) . . .
279(17) . . .
269(16) . . .
269(16) . . .
256(16) . . .
265(16) . . .
283(17) . . .
242(16) . . .
260(16) . . .
281(17) . . .
230(15) . . .
257(16) . . .
264(16) . . .
284(17) . . .
234(15) . . .
253(16) . . .
289(17) . . .
285(17) . . .
236(15) . . .
236(15) . . .
274(17) . . .
242(16) . . .
235(15) . . .
244(16) . . .
271(16) . . .
243(16) . . .
245(16) . . .
270(16) . . .
274(17) . . .
252(16) . . .
230(15) . . .
245(16) . . .
263(16) . . .
243(16) . . .
273(17) . . .
241(16) . . .
263(16) . . .
219(15) . . .
265(16) . . .
275(17) . . .
274(17) . . .
271(16) . . .
261(16) . . .
296(17) . . .
281(17) . . .
287(17) . . .
264(16) . . .
272(16) . . .
266(16) . . .
272(16) . . .
253(16) . . .
258(16) . . .
283(17) . . .
263(16) . . .
284(17) . . .
260(16) . . .
254(16) . . .
271(16) . . .
285(17) . . .
254(16) . . .
261(16) . . .
260(16) . . .
255(16) . . .
277(17) . . .
259(16) . . .
251(16) . . .
269(16) . . .
275(17) . . .
242(16) . . .
254(16) . . .
251(16) . . .
252(16) . . .
237(15) . . .
282(17) . . .
268(16) . . .
247(16) . . .
268(16) . . .
242(16) . . .
260(16) . . .
293(17) . . .
232(15) . . .
255(16) . . .
245(16) . . .
256(16) . . .
270(16) . . .
270(16) . . .
250(16) . . .
262(16) . . .
251(16) . . .
265(16) . . .
265(16) . . .
244(16) . . .
237(15) . . .
256(16) . . .
268(16) . . .
313(18) . . .
246(16) . . .
236(15) . . .
226(15) . . .
254(16) . . .
263(16) . . .
267(16) . . .
260(16) . . .
265(16) . . .
270(16) . . .
264(16) . . .
250(16) . . .
254(16) . . .
237(15) . . .
247(16) . . .
242(16) . . .
239(15) . . .
270(16) . . .
256(16) . . .
273(17) . . .
256(16) . . .
257(16) . . .
244(16) . . .
231(15) . . .
230(15) . . .
260(16) . . .
275(17) . . .
278(17) . . .
263(16) . . .
264(16) . . .
254(16) . . .
259(16) . . .
252(16) . . .
261(16) . . .
262(16) . . .
268(16) . . .
259(16) . . .
245(16) . . .
271(16) . . .
240(15) . . .
292(17) . . .
276(17) . . .
246(16) . . .
239(15) . . .
245(16) . . .
272(16) . . .
266(16) . . .
264(16) . . .
287(17) . . .
266(16) . . .
248(16) . . .
270(16) . . .
276(17) . . .
280(17) . . .
247(16) . . .
259(16) . . .
265(16) . . .
249(16) . . .
225(15) . . .
254(16) . . .
253(16) . . .
231(15) . . .
258(16) . . .
262(16) . . .
251(16) . . .
250(16) . . .
252(16) . . .
269(16) . . .
250(16) . . .
232(15) . . .
256(16) . . .
255(16) . . .
286(17) . . .
251(16) . . .
231(15) . . .
275(17) . . .
262(16) . . .
293(17) . . .
269(16) . . .
238(15) . . .
228(15) . . .
244(16) . . .
252(16) . . .
261(16) . . .
255(16) . . .
283(17) . . .
274(17) . . .
296(17) . . .
258(16) . . .
238(15) . . .
244(16) . . .
294(17) . . .
272(16) . . .
256(16) . . .
254(16) . . .
244(16) . . .
274(17) . . .
255(16) . . .
240(15) . . .
275(17) . . .
254(16) . . .
233(15) . . .
245(16) . . .
272(16) . . .
266(16) . . .
258(16) . . .
250(16) . . .
258(16) . . .
269(16) . . .
236(15) . . .
253(16) . . .
248(16) . . .
242(16) . . .
238(15) . . .
254(16) . . .
263(16) . . .
259(16) . . .
258(16) . . .
259(16) . . .
268(16) . . .
231(15) . . .
241(16) . . .
261(16) . . .
258(16) . . .
242(16) . . .
246(16) . . .
247(16) . . .
268(16) . . .
257(16) . . .
243(16) . . .
253(16) . . .
249(16) . . .
245(16) . . .
262(16) . . .
244(16) . . .
248(16) . . .
249(16) . . .
253(16) . . .
240(15) . . .
254(16) . . .
253(16) . . .
225(15) . . .
266(16) . . .
241(16) . . .
253(16) . . .
232(15) . . .
254(16) . . .
252(16) . . .
275(17) . . .
254(16) . . .
255(16) . . .
234(15) . . .
248(16) . . .
219(15) . . .
253(16) . . .
259(16) . . .
233(15) . . .
228(15) . . .
253(16) . . .
263(16) . . .
228(15) . . .
244(16) . . .
231(15) . . .
258(16) . . .
247(16) . . .
267(16) . . .
237(15) . . .
242(16) . . .
255(16) . . .
208(14) . . .
243(16) . . .
249(16) . . .
264(16) . . .
238(15) . . .
247(16) . . .
251(16) . . .
248(16) . . .
245(16) . . .
246(16) . . .
224(15) . . .
232(15) . . .
227(15) . . .
246(16) . . .
275(17) . . .
251(16) . . .
238(15) . . .
253(16) . . .
247(16) . . .
238(15) . . .
274(17) . . .
237(15) . . .
254(16) . . .
259(16) . . .
250(16) . . .
236(15) . . .
244(16) . . .
249(16) . . .
218(15) . . .
222(15) . . .
230(15) . . .
220(15) . . .
226(15) . . .
221(15) . . .
252(16) . . .
226(15) . . .
257(16) . . .
232(15) . . .
255(16) . . .
231(15) . . .
257(16) . . .
244(16) . . .
237(15) . . .
244(16) . . .
227(15) . . .
239(15) . . .
250(16) . . .
237(15) . . .
239(15) . . .
261(16) . . .
241(16) . . .
221(15) . . .
222(15) . . .
216(15) . . .
233(15) . . .
262(16) . . .
240(15) . . .
234(15) . . .
226(15) . . .
207(14) . . .
218(15) . . .
220(15) . . .
247(16) . . .
254(16) . . .
256(16) . . .
298(17) . . .
243(16) . . .
234(15) . . .
259(16) . . .
224(15) . . .
219(15) . . .
230(15) . . .
264(16) . . .
236(15) . . .
244(16) . . .
244(16) . . .
233(15) . . .
242(16) . . .
253(16) . . .
254(16) . . .
257(16) . . .
239(15) . . .
262(16) . . .
241(16) . . .
244(16) . . .
255(16) . . .
246(16) . . .
224(15) . . .
207(14) . . .
217(15) . . .
234(15) . . .
228(15) . . .
245(16) . . .
218(15) . . .
239(15) . . .
232(15) . . .
222(15) . . .
229(15) . . .
236(15) . . .
231(15) . . .
235(15) . . .
228(15) . . .
241(16) . . .
236(15) . . .
234(15) . . .
217(15) . . .
266(16) . . .
242(16) . . .
225(15) . . .
248(16) . . .
260(16) . . .
246(16) . . .
240(15) . . .
224(15) . . .
221(15) . . .
225(15) . . .
236(15) . . .
242(16) . . .
258(16) . . .
245(16) . . .
238(15) . . .
254(16) . . .
264(16) . . .
245(16) . . .
203(14) . . .
241(16) . . .
263(16) . . .
231(15) . . .
228(15) . . .
245(16) . . .
213(15) . . .
234(15) . . .
288(17) . . .
241(16) . . .
236(15) . . .
231(15) . . .
225(15) . . .
221(15) . . .
224(15) . . .
254(16) . . .
250(16) . . .
233(15) . . .
248(16) . . .
211(15) . . .
232(15) . . .
221(15) . . .
244(16) . . .
256(16) . . .
247(16) . . .
246(16) . . .
249(16) . . .
227(15) . . .
253(16) . . .
213(15) . . .
226(15) . . .
230(15) . . .
219(15) . . .
241(16) . . .
241(16) . . .
218(15) . . .
282(17) . . .
231(15) . . .
254(16) . . .
239(15) . . .
220(15) . . .
256(16) . . .
251(16) . . .
237(15) . . .
247(16) . . .
240(15) . . .
247(16) . . .
226(15) . . .
247(16) . . .
220(15) . . .
224(15) . . .
259(16) . . .
252(16) . . .
240(15) . . .
250(16) . . .
239(15) . . .
224(15) . . .
242(16) . . .
265(16) . . .
210(14) . . .
242(16) . . .
245(16) . . .
228(15) . . .
257(16) . . .
268(16) . . .
268(16) . . .
220(15) . . .
241(16) . . .
214(15) . . .
252(16) . . .
257(16) . . .
256(16) . . .
257(16) . . .
263(16) . . .
252(16) . . .
249(16) . . .
255(16) . . .
274(17) . . .
277(17) . . .
240(15) . . .
241(16) . . .
268(16) . . .
253(16) . . .
268(16) . . .
274(17) . . .
247(16) . . .
262(16) . . .
295(17) . . .
263(16) . . .
285(17) . . .
246(16) . . .
276(17) . . .
277(17) . . .
270(16) . . .
303(17) . . .
280(17) . . .
284(17) . . .
297(17) . . .
313(18) . . .
256(16) . . .
303(17) . . .
294(17) . . .
263(16) . . .
287(17) . . .
266(16) . . .
256(16) . . .
268(16) . . .
283(17) . . .
287(17) . . .
285(17) . . .
263(16) . . .
273(17) . . .
270(16) . . .
265(16) . . .
265(16) . . .
251(16) . . .
252(16) . . .
274(17) . . .
257(16) . . .
275(17) . . .
286(17) . . .
232(15) . . .
288(17) . . .
274(17) . . .
261(16) . . .
279(17) . . .
266(16) . . .
271(16) . . .
284(17) . . .
259(16) . . .
268(16) . . .
271(16) . . .
274(17) . . .
279(17) . . .
270(16) . . .
263(16) . . .
245(16) . . .
260(16) . . .
242(16) . . .
264(16) . . .
257(16) . . .
247(16) . . .
264(16) . . .
224(15) . . .
249(16) . . .
256(16) . . .
231(15) . . .
271(16) . . .
247(16) . . .
220(15) . . .
251(16) . . .
229(15) . . .
249(16) . . .
247(16) . . .
225(15) . . .
265(16) . . .
248(16) . . .
260(16) . . .
250(16) . . .
255(16) . . .
266(16) . . .
257(16) . . .
258(16) . . .
244(16) . . .
273(17) . . .
259(16) . . .
255(16) . . .
260(16) . . .
254(16) . . .
238(15) . . .
270(16) . . .
252(16) . . .
262(16) . . .
240(15) . . .
259(16) . . .
258(16) . . .
241(16) . . .
259(16) . . .
258(16) . . .
258(16) . . .
269(16) . . .
257(16) . . .
244(16) . . .
304(17) . . .
272(16) . . .
255(16) . . .
282(17) . . .
256(16) . . .
248(16) . . .
269(16) . . .
255(16) . . .
250(16) . . .
269(16) . . .
266(16) . . .
280(17) . . .
267(16) . . .
269(16) . . .
262(16) . . .
272(16) . . .
271(16) . . .
256(16) . . .
280(17) . . .
254(16) . . .
292(17) . . .
286(17) . . .
240(15) . . .
276(17) . . .
279(17) . . .
258(16) . . .
244(16) . . .
260(16) . . .
274(17) . . .
296(17) . . .
261(16) . . .
270(16) . . .
278(17) . . .
280(17) . . .
266(16) . . .
260(16) . . .
243(16) . . .
271(16) . . .
269(16) . . .
272(16) . . .
281(17) . . .
278(17) . . .
266(16) . . .
272(16) . . .
266(16) . . .
272(16) . . .
258(16) . . .
262(16) . . .
244(16) . . .
274(17) . . .
267(16) . . .
259(16) . . .
306(17) . . .
255(16) . . .
253(16) . . .
272(16) . . .
246(16) . . .
268(16) . . .
271(16) . . .
244(16) . . .
253(16) . . .
273(17) . . .
278(17) . . .
246(16) . . .
242(16) . . .
250(16) . . .
248(16) . . .
267(16) . . .
258(16) . . .
273(17) . . .
236(15) . . .
235(15) . . .
254(16) . . .
254(16) . . .
257(16) . . .
266(16) . . .
265(16) . . .
269(16) . . .
287(17) . . .
248(16) . . .
257(16) . . .
276(17) . . .
274(17) . . .
265(16) . . .
276(17) . . .
254(16) . . .
258(16) . . .
253(16) . . .
247(16) . . .
273(17) . . .
255(16) . . .
244(16) . . .
243(16) . . .
259(16) . . .
257(16) . . .
241(16) . . .
267(16) . . .
282(17) . . .
266(16) . . .
284(17) . . .
263(16) . . .
266(16) . . .
246(16) . . .
271(16) . . .
245(16) . . .
238(15) . . .
244(16) . . .
258(16) . . .
248(16) . . .
222(15) . . .
240(15) . . .
233(15) . . .
238(15) . . .
240(15) . . .
227(15) . . .
239(15) . . .
249(16) . . .
248(16) . . .
250(16) . . .
260(16) . . .
278(17) . . .
248(16) . . .
256(16) . . .
244(16) . . .
273(17) . . .
252(16) . . .
237(15) . . .
253(16) . . .
229(15) . . .
258(16) . . .
272(16) . . .
239(15) . . .
219(15) . . .
241(16) . . .
240(15) . . .
282(17) . . .
240(15) . . .
247(16) . . .
220(15) . . .
234(15) . . .
250(16) . . .
246(16) . . .
237(15) . . .
251(16) . . .
278(17) . . .
238(15) . . .
228(15) . . .
267(16) . . .
252(16) . . .
257(16) . . .
239(15) . . .
240(15) . . .
261(16) . . .
256(16) . . .
258(16) . . .
239(15) . . .
287(17) . . .
262(16) . . .
243(16) . . .
265(16) . . .
223(15) . . .
276(17) . . .
251(16) . . .
279(17) . . .
297(17) . . .
265(16) . . .
256(16) . . .
279(17) . . .
241(16) . . .
261(16) . . .
239(15) . . .
250(16) . . .
264(16) . . .
243(16) . . .
257(16) . . .
235(15) . . .
223(15) . . .
238(15) . . .
270(16) . . .
251(16) . . .
256(16) . . .
235(15) . . .
238(15) . . .
237(15) . . .
215(15) . . .
251(16) . . .
255(16) . . .
259(16) . . .
278(17) . . .
254(16) . . .
248(16) . . .
238(15) . . .
241(16) . . .
271(16) . . .
247(16) . . .
269(16) . . .
270(16) . . .
238(15) . . .
255(16) . . .
232(15) . . .
242(16) . . .
259(16) . . .
264(16) . . .
236(15) . . .
262(16) . . .
239(15) . . .
284(17) . . .
269(16) . . .
254(16) . . .
250(16) . . .
259(16) . . .
266(16) . . .
237(15) . . .
260(16) . . .
268(16) . . .
264(16) . . .
277(17) . . .
286(17) . . .
262(16) . . .
291(17) . . .
267(16) . . .
288(17) . . .
271(16) . . .
258(16) . . .
297(17) . . .
264(16) . . .
269(16) . . .
241(16) . . .
270(16) . . .
252(16) . . .
222(15) . . .
264(16) . . .
287(17) . . .
282(17) . . .
257(16) . . .
269(16) . . .
232(15) . . .
254(16) . . .
276(17) . . .
269(16) . . .
266(16) . . .
268(16) . . .
256(16) . . .
258(16) . . .
290(17) . . .
259(16) . . .
265(16) . . .
280(17) . . .
244(16) . . .
264(16) . . .
262(16) . . .
248(16) . . .
274(17) . . .
286(17) . . .
298(17) . . .
286(17) . . .
259(16) . . .
272(16) . . .
303(17) . . .
299(17) . . .
286(17) . . .
290(17) . . .
286(17) . . .
309(18) . . .
259(16) . . .
289(17) . . .
259(16) . . .
283(17) . . .
299(17) . . .
290(17) . . .
309(18) . . .
281(17) . . .
267(16) . . .
280(17) . . .
304(17) . . .
283(17) . . .
306(17) . . .
306(17) . . .
287(17) . . .
296(17) . . .
280(17) . . .
322(18) . . .
289(17) . . .
299(17) . . .
275(17) . . .
318(18) . . .
284(17) . . .
269(16) . . .
285(17) . . .
295(17) . . .
310(18) . . .
320(18) . . .
337(18) . . .
322(18) . . .
325(18) . . .
327(18) . . .
335(18) . . .
352(19) . . .
351(19) . . .
354(19) . . .
315(18) . . .
378(19) . . .
363(19) . . .
355(19) . . .
389(20) . . .
347(19) . . .
344(19) . . .
370(19) . . .
353(19) . . .
359(19) . . .
373(19) . . .
389(20) . . .
378(19) . . .
364(19) . . .
400(20) . . .
379(19) . . .
380(19) . . .
423(21) . . .
408(20) . . .
430(21) . . .
435(21) . . .
471(22) . . .
451(21) . . .
503(22) . . .
490(22) . . .
453(21) . . .
513(23) . . .
530(23) . . .
565(24) . . .
575(24) . . .
571(24) . . .
635(25) . . .
609(25) . . .
657(26) . . .
684(26) . . .
692(26) . . .
762(28) . . .
842(29) . . .
873(30) . . .
881(30) . . .
976(31) . . .
1055(32) . . .
1079(33) . . .
1143(34) . . .
1336(37) . . .
1463(38) . . .
1486(39) . . .
1670(41) . . .
1790(42) . . .
2096(46) . . .
2196(47) . . .
2595(51) . . .
2868(54) . . .
3274(57) . . .
3824(62) . . .
4326(66) . . .
5109(71) . . .
5856(77) . . .
7070(84) . . .
8390(92) . . .
10050(100) . . .
11550(110) . . .
13730(120) . . .
15590(130) . . .
17240(130) . . .
19010(140) . . .
19670(140) . . .
19690(140) . . .
19350(140) . . .
17950(130) . . .
16220(130) . . .
14150(120) . . .
12160(110) . . .
10420(100) . . .
8745(94) . . .
7409(86) . . .
6146(78) . . .
5284(73) . . .
4539(67) . . .
3861(62) . . .
3437(59) . . .
2983(55) . . .
2564(51) . . .
2263(48) . . .
2006(45) . . .
1851(43) . . .
1629(40) . . .
1566(40) . . .
1398(37) . . .
1258(35) . . .
1159(34) . . .
1060(33) . . .
1004(32) . . .
932(31) . . .
900(30) . . .
794(28) . . .
812(28) . . .
739(27) . . .
682(26) . . .
657(26) . . .
637(25) . . .
614(25) . . .
602(25) . . .
546(23) . . .
554(24) . . .
532(23) . . .
507(23) . . .
500(22) . . .
519(23) . . .
494(22) . . .
477(22) . . .
414(20) . . .
449(21) . . .
402(20) . . .
427(21) . . .
434(21) . . .
429(21) . . .
408(20) . . .
387(20) . . .
367(19) . . .
384(20) . . .
379(19) . . .
379(19) . . .
379(19) . . .
380(19) . . .
381(20) . . .
331(18) . . .
357(19) . . .
367(19) . . .
319(18) . . .
339(18) . . .
350(19) . . .
348(19) . . .
337(18) . . .
343(19) . . .
329(18) . . .
344(19) . . .
340(18) . . .
321(18) . . .
338(18) . . .
337(18) . . .
324(18) . . .
305(17) . . .
304(17) . . .
351(19) . . .
305(17) . . .
296(17) . . .
322(18) . . .
298(17) . . .
315(18) . . .
284(17) . . .
325(18) . . .
305(17) . . .
313(18) . . .
298(17) . . .
347(19) . . .
283(17) . . .
290(17) . . .
312(18) . . .
256(16) . . .
302(17) . . .
278(17) . . .
256(16) . . .
304(17) . . .
294(17) . . .
273(17) . . .
306(17) . . .
306(17) . . .
312(18) . . .
251(16) . . .
319(18) . . .
277(17) . . .
294(17) . . .
293(17) . . .
266(16) . . .
248(16) . . .
279(17) . . .
263(16) . . .
277(17) . . .
272(16) . . .
289(17) . . .
272(16) . . .
296(17) . . .
275(17) . . .
268(16) . . .
265(16) . . .
258(16) . . .
268(16) . . .
291(17) . . .
292(17) . . .
250(16) . . .
272(16) . . .
260(16) . . .
298(17) . . .
267(16) . . .
273(17) . . .
272(16) . . .
257(16) . . .
276(17) . . .
279(17) . . .
277(17) . . .
270(16) . . .
278(17) . . .
274(17) . . .
287(17) . . .
273(17) . . .
272(16) . . .
259(16) . . .
262(16) . . .
278(17) . . .
279(17) . . .
256(16) . . .
262(16) . . .
256(16) . . .
262(16) . . .
274(17) . . .
248(16) . . .
254(16) . . .
269(16) . . .
238(15) . . .
255(16) . . .
271(16) . . .
262(16) . . .
299(17) . . .
265(16) . . .
238(15) . . .
278(17) . . .
268(16) . . .
249(16) . . .
260(16) . . .
238(15) . . .
267(16) . . .
269(16) . . .
242(16) . . .
243(16) . . .
251(16) . . .
280(17) . . .
253(16) . . .
265(16) . . .
259(16) . . .
282(17) . . .
257(16) . . .
238(15) . . .
249(16) . . .
233(15) . . .
224(15) . . .
215(15) . . .
280(17) . . .
263(16) . . .
263(16) . . .
257(16) . . .
267(16) . . .
263(16) . . .
264(16) . . .
239(15) . . .
252(16) . . .
241(16) . . .
252(16) . . .
272(16) . . .
275(17) . . .
272(16) . . .
261(16) . . .
248(16) . . .
247(16) . . .
263(16) . . .
244(16) . . .
264(16) . . .
235(15) . . .
295(17) . . .
219(15) . . .
246(16) . . .
263(16) . . .
258(16) . . .
255(16) . . .
245(16) . . .
269(16) . . .
273(17) . . .
272(16) . . .
247(16) . . .
244(16) . . .
254(16) . . .
258(16) . . .
235(15) . . .
227(15) . . .
250(16) . . .
243(16) . . .
265(16) . . .
236(15) . . .
228(15) . . .
224(15) . . .
249(16) . . .
236(15) . . .
233(15) . . .
253(16) . . .
267(16) . . .
252(16) . . .
234(15) . . .
255(16) . . .
250(16) . . .
251(16) . . .
267(16) . . .
234(15) . . .
254(16) . . .
241(16) . . .
254(16) . . .
247(16) . . .
230(15) . . .
247(16) . . .
249(16) . . .
245(16) . . .
250(16) . . .
242(16) . . .
240(15) . . .
224(15) . . .
251(16) . . .
242(16) . . .
249(16) . . .
225(15) . . .
244(16) . . .
222(15) . . .
253(16) . . .
230(15) . . .
221(15) . . .
236(15) . . .
229(15) . . .
228(15) . . .
232(15) . . .
220(15) . . .
279(17) . . .
266(16) . . .
218(15) . . .
254(16) . . .
262(16) . . .
257(16) . . .
241(16) . . .
248(16) . . .
253(16) . . .
237(15) . . .
247(16) . . .
229(15) . . .
223(15) . . .
211(15) . . .
243(16) . . .
234(15) . . .
242(16) . . .
244(16) . . .
210(14) . . .
227(15) . . .
242(16) . . .
240(15) . . .
250(16) . . .
267(16) . . .
223(15) . . .
256(16) . . .
250(16) . . .
258(16) . . .
217(15) . . .
248(16) . . .
238(15) . . .
223(15) . . .
231(15) . . .
228(15) . . .
233(15) . . .
233(15) . . .
248(16) . . .
243(16) . . .
228(15) . . .
233(15) . . .
239(15) . . .
210(14) . . .
212(15) . . .
243(16) . . .
228(15) . . .
242(16) . . .
227(15) . . .
255(16) . . .
252(16) . . .
238(15) . . .
233(15) . . .
248(16) . . .
251(16) . . .
256(16) . . .
247(16) . . .
260(16) . . .
227(15) . . .
253(16) . . .
215(15) . . .
221(15) . . .
234(15) . . .
223(15) . . .
219(15) . . .
245(16) . . .
248(16) . . .
257(16) . . .
235(15) . . .
234(15) . . .
224(15) . . .
209(14) . . .
231(15) . . .
238(15) . . .
225(15) . . .
233(15) . . .
240(15) . . .
227(15) . . .
228(15) . . .
241(16) . . .
238(15) . . .
240(15) . . .
255(16) . . .
244(16) . . .
247(16) . . .
222(15) . . .
234(15) . . .
239(15) . . .
242(16) . . .
253(16) . . .
234(15) . . .
230(15) . . .
225(15) . . .
249(16) . . .
238(15) . . .
246(16) . . .
220(15) . . .
230(15) . . .
230(15) . . .
221(15) . . .
228(15) . . .
227(15) . . .
245(16) . . .
242(16) . . .
206(14) . . .
233(15) . . .
250(16) . . .
227(15) . . .
225(15) . . .
248(16) . . .
249(16) . . .
260(16) . . .
246(16) . . .
218(15) . . .
229(15) . . .
243(16) . . .
225(15) . . .
211(15) . . .
246(16) . . .
262(16) . . .
240(15) . . .
255(16) . . .
248(16) . . .
220(15) . . .
233(15) . . .
222(15) . . .
258(16) . . .
236(15) . . .
224(15) . . .
254(16) . . .
243(16) . . .
250(16) . . .
239(15) . . .
227(15) . . .
240(15) . . .
232(15) . . .
239(15) . . .
250(16) . . .
277(17) . . .
223(15) . . .
249(16) . . .
233(15) . . .
209(14) . . .
225(15) . . .
236(15) . . .
236(15) . . .
226(15) . . .
236(15) . . .
227(15) . . .
226(15) . . .
204(14) . . .
216(15) . . .
224(15) . . .
227(15) . . .
227(15) . . .
238(15) . . .
222(15) . . .
227(15) . . .
228(15) . . .
241(16) . . .
230(15) . . .
258(16) . . .
255(16) . . .
242(16) . . .
248(16) . . .
243(16) . . .
219(15) . . .
238(15) . . .
226(15) . . .
230(15) . . .
222(15) . . .
245(16) . . .
227(15) . . .
217(15) . . .
233(15) . . .
231(15) . . .
229(15) . . .
228(15) . . .
250(16) . . .
216(15) . . .
243(16) . . .
239(15) . . .
230(15) . . .
242(16) . . .
243(16) . . .
224(15) . . .
232(15) . . .
239(15) . . .
231(15) . . .
239(15) . . .
235(15) . . .
216(15) . . .
236(15) . . .
235(15) . . .
229(15) . . .
217(15) . . .
229(15) . . .
231(15) . . .
224(15) . . .
236(15) . . .
212(15) . . .
209(14) . . .
220(15) . . .
238(15) . . .
239(15) . . .
200(14) . . .
249(16) . . .
216(15) . . .
207(14) . . .
231(15) . . .
225(15) . . .
256(16) . . .
214(15) . . .
221(15) . . .
237(15) . . .
249(16) . . .
235(15) . . .
225(15) . . .
258(16) . . .
218(15) . . .
231(15) . . .
261(16) . . .
256(16) . . .
242(16) . . .
227(15) . . .
238(15) . . .
228(15) . . .
238(15) . . .
217(15) . . .
224(15) . . .
230(15) . . .
226(15) . . .
224(15) . . .
259(16) . . .
236(15) . . .
246(16) . . .
252(16) . . .
242(16) . . .
236(15) . . .
241(16) . . .
266(16) . . .
258(16) . . .
242(16) . . .
221(15) . . .
231(15) . . .
245(16) . . .
244(16) . . .
218(15) . . .
252(16) . . .
247(16) . . .
260(16) . . .
237(15) . . .
235(15) . . .
269(16) . . .
240(15) . . .
234(15) . . .
253(16) . . .
261(16) . . .
260(16) . . .
276(17) . . .
240(15) . . .
250(16) . . .
256(16) . . .
242(16) . . .
241(16) . . .
246(16) . . .
245(16) . . .
255(16) . . .
251(16) . . .
270(16) . . .
250(16) . . .
271(16) . . .
246(16) . . .
260(16) . . .
250(16) . . .
242(16) . . .
243(16) . . .
260(16) . . .
252(16) . . .
264(16) . . .
245(16) . . .
264(16) . . .
259(16) . . .
270(16) . . .
291(17) . . .
277(17) . . .
241(16) . . .
267(16) . . .
271(16) . . .
247(16) . . .
261(16) . . .
253(16) . . .
230(15) . . .
268(16) . . .
286(17) . . .
248(16) . . .
266(16) . . .
260(16) . . .
250(16) . . .
223(15) . . .
242(16) . . .
243(16) . . .
241(16) . . .
274(17) . . .
248(16) . . .
256(16) . . .
261(16) . . .
258(16) . . .
237(15) . . .
237(15) . . .
249(16) . . .
252(16) . . .
269(16) . . .
238(15) . . .
239(15) . . .
252(16) . . .
234(15) . . .
230(15) . . .
228(15) . . .
237(15) . . .
242(16) . . .
224(15) . . .
233(15) . . .
230(15) . . .
238(15) . . .
236(15) . . .
222(15) . . .
237(15) . . .
250(16) . . .
214(15) . . .
241(16) . . .
262(16) . . .
238(15) . . .
245(16) . . .
263(16) . . .
272(16) . . .
231(15) . . .
235(15) . . .
254(16) . . .
239(15) . . .
238(15) . . .
240(15) . . .
249(16) . . .
247(16) . . .
230(15) . . .
233(15) . . .
238(15) . . .
226(15) . . .
227(15) . . .
238(15) . . .
257(16) . . .
240(15) . . .
263(16) . . .
259(16) . . .
250(16) . . .
225(15) . . .
233(15) . . .
246(16) . . .
219(15) . . .
252(16) . . .
248(16) . . .
245(16) . . .
247(16) . . .
258(16) . . .
241(16) . . .
207(14) . . .
251(16) . . .
234(15) . . .
215(15) . . .
227(15) . . .
239(15) . . .
240(15) . . .
226(15) . . .
257(16) . . .
250(16) . . .
234(15) . . .
236(15) . . .
273(17) . . .
238(15) . . .
242(16) . . .
251(16) . . .
264(16) . . .
261(16) . . .
248(16) . . .
259(16) . . .
255(16) . . .
230(15) . . .
255(16) . . .
230(15) . . .
258(16) . . .
219(15) . . .
261(16) . . .
269(16) . . .
252(16) . . .
256(16) . . .
248(16) . . .
241(16) . . .
223(15) . . .
234(15) . . .
270(16) . . .
250(16) . . .
246(16) . . .
226(15) . . .
231(15) . . .
256(16) . . .
234(15) . . .
261(16) . . .
232(15) . . .
230(15) . . .
235(15) . . .
228(15) . . .
233(15) . . .
225(15) . . .
259(16) . . .
227(15) . . .
243(16) . . .
254(16) . . .
209(14) . . .
226(15) . . .
235(15) . . .
228(15) . . .
224(15) . . .
248(16) . . .
232(15) . . .
244(16) . . .
216(15) . . .
227(15) . . .
213(15) . . .
225(15) . . .
231(15) . . .
216(15) . . .
243(16) . . .
234(15) . . .
237(15) . . .
220(15) . . .
235(15) . . .
231(15) . . .
239(15) . . .
246(16) . . .
247(16) . . .
240(15) . . .
236(15) . . .
196(14) . . .
246(16) . . .
229(15) . . .
226(15) . . .
236(15) . . .
214(15) . . .
223(15) . . .
240(15) . . .
222(15) . . .
249(16) . . .
244(16) . . .
209(14) . . .
214(15) . . .
210(14) . . .
221(15) . . .
240(15) . . .
240(15) . . .
238(15) . . .
236(15) . . .
223(15) . . .
232(15) . . .
235(15) . . .
240(15) . . .
211(15) . . .
196(14) . . .
227(15) . . .
229(15) . . .
231(15) . . .
235(15) . . .
207(14) . . .
198(14) . . .
226(15) . . .
226(15) . . .
231(15) . . .
220(15) . . .
230(15) . . .
224(15) . . .
205(14) . . .
235(15) . . .
198(14) . . .
216(15) . . .
214(15) . . .
221(15) . . .
210(14) . . .
216(15) . . .
230(15) . . .
236(15) . . .
190(14) . . .
245(16) . . .
219(15) . . .
213(15) . . .
225(15) . . .
212(15) . . .
214(15) . . .
233(15) . . .
218(15) . . .
221(15) . . .
222(15) . . .
203(14) . . .
201(14) . . .
223(15) . . .
223(15) . . .
228(15) . . .
246(16) . . .
242(16) . . .
213(15) . . .
218(15) . . .
220(15) . . .
226(15) . . .
220(15) . . .
216(15) . . .
206(14) . . .
220(15) . . .
239(15) . . .
206(14) . . .
235(15) . . .
187(14) . . .
234(15) . . .
204(14) . . .
225(15) . . .
208(14) . . .
258(16) . . .
222(15) . . .
249(16) . . .
217(15) . . .
210(14) . . .
251(16) . . .
240(15) . . .
253(16) . . .
240(15) . . .
216(15) . . .
241(16) . . .
231(15) . . .
228(15) . . .
246(16) . . .
232(15) . . .
228(15) . . .
224(15) . . .
227(15) . . .
225(15) . . .
233(15) . . .
228(15) . . .
227(15) . . .
214(15) . . .
239(15) . . .
224(15) . . .
227(15) . . .
236(15) . . .
219(15) . . .
222(15) . . .
217(15) . . .
247(16) . . .
226(15) . . .
221(15) . . .
198(14) . . .
250(16) . . .
221(15) . . .
245(16) . . .
229(15) . . .
219(15) . . .
239(15) . . .
232(15) . . .
207(14) . . .
252(16) . . .
251(16) . . .
213(15) . . .
225(15) . . .
223(15) . . .
223(15) . . .
224(15) . . .
240(15) . . .
250(16) . . .
233(15) . . .
230(15) . . .
229(15) . . .
229(15) . . .
251(16) . . .
236(15) . . .
233(15) . . .
254(16) . . .
211(15) . . .
248(16) . . .
257(16) . . .
251(16) . . .
237(15) . . .
213(15) . . .
241(16) . . .
214(15) . . .
247(16) . . .
219(15) . . .
236(15) . . .
233(15) . . .
242(16) . . .
252(16) . . .
230(15) . . .
234(15) . . .
220(15) . . .
251(16) . . .
254(16) . . .
240(15) . . .
257(16) . . .
254(16) . . .
232(15) . . .
236(15) . . .
240(15) . . .
225(15) . . .
223(15) . . .
256(16) . . .
218(15) . . .
232(15) . . .
209(14) . . .
241(16) . . .
233(15) . . .
227(15) . . .
237(15) . . .
243(16) . . .
258(16) . . .
243(16) . . .
250(16) . . .
248(16) . . .
239(15) . . .
247(16) . . .
222(15) . . .
243(16) . . .
248(16) . . .
230(15) . . .
237(15) . . .
262(16) . . .
230(15) . . .
233(15) . . .
245(16) . . .
258(16) . . .
250(16) . . .
239(15) . . .
221(15) . . .
215(15) . . .
234(15) . . .
243(16) . . .
243(16) . . .
216(15) . . .
253(16) . . .
244(16) . . .
233(15) . . .
244(16) . . .
258(16) . . .
231(15) . . .
223(15) . . .
239(15) . . .
235(15) . . .
223(15) . . .
251(16) . . .
246(16) . . .
239(15) . . .
246(16) . . .
255(16) . . .
209(14) . . .
220(15) . . .
227(15) . . .
250(16) . . .
257(16) . . .
251(16) . . .
255(16) . . .
230(15) . . .
244(16) . . .
268(16) . . .
260(16) . . .
240(15) . . .
241(16) . . .
263(16) . . .
247(16) . . .
249(16) . . .
226(15) . . .
257(16) . . .
239(15) . . .
239(15) . . .
243(16) . . .
246(16) . . .
260(16) . . .
260(16) . . .
217(15) . . .
247(16) . . .
232(15) . . .
274(17) . . .
273(17) . . .
247(16) . . .
255(16) . . .
252(16) . . .
278(17) . . .
265(16) . . .
278(17) . . .
267(16) . . .
276(17) . . .
259(16) . . .
259(16) . . .
294(17) . . .
279(17) . . .
264(16) . . .
278(17) . . .
279(17) . . .
267(16) . . .
301(17) . . .
278(17) . . .
289(17) . . .
289(17) . . .
313(18) . . .
291(17) . . .
271(16) . . .
280(17) . . .
270(16) . . .
311(18) . . .
314(18) . . .
280(17) . . .
293(17) . . .
294(17) . . .
336(18) . . .
312(18) . . .
352(19) . . .
357(19) . . .
361(19) . . .
362(19) . . .
380(19) . . .
383(20) . . .
393(20) . . .
399(20) . . .
404(20) . . .
458(21) . . .
459(21) . . .
513(23) . . .
503(22) . . .
545(23) . . .
539(23) . . .
571(24) . . .
611(25) . . .
642(25) . . .
659(26) . . .
737(27) . . .
838(29) . . .
868(29) . . .
901(30) . . .
996(32) . . .
1104(33) . . .
1275(36) . . .
1386(37) . . .
1625(40) . . .
1805(42) . . .
2064(45) . . .
2311(48) . . .
2674(52) . . .
3056(55) . . .
3669(61) . . .
4374(66) . . .
5145(72) . . .
6117(78) . . .
7088(84) . . .
8052(90) . . .
8920(94) . . .
9812(99) . . .
9818(99) . . .
9803(99) . . .
9378(97) . . .
8823(94) . . .
7865(89) . . .
6799(82) . . .
5805(76) . . .
4937(70) . . .
4141(64) . . .
3593(60) . . .
3063(55) . . .
2616(51) . . .
2227(47) . . .
1921(44) . . .
1676(41) . . .
1444(38) . . .
1337(37) . . .
1190(34) . . .
1069(33) . . .
947(31) . . .
859(29) . . .
859(29) . . .
731(27) . . .
672(26) . . .
670(26) . . .
585(24) . . .
584(24) . . .
566(24) . . .
544(23) . . .
457(21) . . .
486(22) . . .
437(21) . . .
444(21) . . .
442(21) . . .
434(21) . . .
425(21) . . .
397(20) . . .
362(19) . . .
377(19) . . .
372(19) . . .
347(19) . . .
313(18) . . .
340(18) . . .
302(17) . . .
325(18) . . .
326(18) . . .
291(17) . . .
318(18) . . .
302(17) . . .
295(17) . . .
292(17) . . .
292(17) . . .
288(17) . . .
294(17) . . .
311(18) . . .
292(17) . . .
295(17) . . .
285(17) . . .
282(17) . . .
245(16) . . .
301(17) . . .
279(17) . . .
260(16) . . .
256(16) . . .
261(16) . . .
231(15) . . .
261(16) . . .
268(16) . . .
249(16) . . .
276(17) . . .
266(16) . . .
247(16) . . .
261(16) . . .
252(16) . . .
240(15) . . .
241(16) . . .
231(15) . . .
252(16) . . .
242(16) . . .
238(15) . . .
266(16) . . .
256(16) . . .
224(15) . . .
225(15) . . .
248(16) . . .
252(16) . . .
233(15) . . .
254(16) . . .
245(16) . . .
237(15) . . .
230(15) . . .
245(16) . . .
241(16) . . .
220(15) . . .
235(15) . . .
243(16) . . .
237(15) . . .
257(16) . . .
210(14) . . .
223(15) . . .
224(15) . . .
245(16) . . .
238(15) . . .
224(15) . . .
222(15) . . .
225(15) . . .
217(15) . . .
240(15) . . .
224(15) . . .
202(14) . . .
211(15) . . .
234(15) . . .
213(15) . . .
213(15) . . .
225(15) . . .
251(16) . . .
235(15) . . .
227(15) . . .
211(15) . . .
213(15) . . .
234(15) . . .
231(15) . . .
204(14) . . .
215(15) . . .
212(15) . . .
214(15) . . .
220(15) . . .
238(15) . . .
221(15) . . .
218(15) . . .
224(15) . . .
219(15) . . .
231(15) . . .
238(15) . . .
230(15) . . .
214(15) . . .
219(15) . . .
234(15) . . .
225(15) . . .
217(15) . . .
224(15) . . .
225(15) . . .
202(14) . . .
206(14) . . .
211(15) . . .
199(14) . . .
215(15) . . .
222(15) . . .
206(14) . . .
202(14) . . .
220(15) . . .
222(15) . . .
222(15) . . .
216(15) . . .
210(14) . . .
219(15) . . .
228(15) . . .
234(15) . . .
208(14) . . .
221(15) . . .
222(15) . . .
192(14) . . .
206(14) . . .
207(14) . . .
221(15) . . .
208(14) . . .
215(15) . . .
221(15) . . .
202(14) . . .
205(14) . . .
213(15) . . .
227(15) . . .
225(15) . . .
231(15) . . .
220(15) . . .
199(14) . . .
223(15) . . .
200(14) . . .
241(16) . . .
208(14) . . .
212(15) . . .
228(15) . . .
227(15) . . .
210(14) . . .
192(14) . . .
233(15) . . .
215(15) . . .
229(15) . . .
226(15) . . .
215(15) . . .
230(15) . . .
209(14) . . .
223(15) . . .
202(14) . . .
213(15) . . .
194(14) . . .
204(14) . . .
199(14) . . .
218(15) . . .
226(15) . . .
216(15) . . .
217(15) . . .
201(14) . . .
207(14) . . .
207(14) . . .
202(14) . . .
208(14) . . .
203(14) . . .
197(14) . . .
195(14) . . .
193(14) . . .
205(14) . . .
218(15) . . .
205(14) . . .
207(14) . . .
216(15) . . .
198(14) . . .
208(14) . . .
199(14) . . .
196(14) . . .
207(14) . . .
234(15) . . .
207(14) . . .
207(14) . . .
213(15) . . .
205(14) . . .
201(14) . . .
186(14) . . .
216(15) . . .
217(15) . . .
237(15) . . .
216(15) . . .
191(14) . . .
188(14) . . .
209(14) . . .
199(14) . . .
228(15) . . .
201(14) . . .
191(14) . . .
209(14) . . .
212(15) . . .
207(14) . . .
213(15) . . .
216(15) . . .
211(15) . . .
221(15) . . .
202(14) . . .
192(14) . . .
191(14) . . .
194(14) . . .
223(15) . . .
213(15) . . .
223(15) . . .
190(14) . . .
196(14) . . .
203(14) . . .
217(15) . . .
208(14) . . .
210(14) . . .
205(14) . . .
196(14) . . .
227(15) . . .
194(14) . . .
211(15) . . .
214(15) . . .
190(14) . . .
178(13) . . .
219(15) . . .
206(14) . . .
217(15) . . .
209(14) . . .
216(15) . . .
212(15) . . .
196(14) . . .
220(15) . . .
189(14) . . .
204(14) . . .
188(14) . . .
192(14) . . .
210(14) . . .
217(15) . . .
206(14) . . .
209(14) . . .
196(14) . . .
224(15) . . .
201(14) . . .
203(14) . . .
201(14) . . .
204(14) . . .
196(14) . . .
191(14) . . .
207(14) . . .
197(14) . . .
205(14) . . .
218(15) . . .
213(15) . . .
185(14) . . .
190(14) . . .
209(14) . . .
207(14) . . .
216(15) . . .
206(14) . . .
204(14) . . .
206(14) . . .
208(14) . . .
186(14) . . .
205(14) . . .
193(14) . . .
209(14) . . .
203(14) . . .
216(15) . . .
202(14) . . .
210(14) . . .
214(15) . . .
184(14) . . .
236(15) . . .
212(15) . . .
199(14) . . .
200(14) . . .
220(15) . . .
211(15) . . .
213(15) . . .
196(14) . . .
204(14) . . .
238(15) . . .
189(14) . . .
197(14) . . .
199(14) . . .
217(15) . . .
186(14) . . .
206(14) . . .
201(14) . . .
192(14) . . .
207(14) . . .
202(14) . . .
209(14) . . .
195(14) . . .
189(14) . . .
214(15) . . .
207(14) . . .
217(15) . . .
211(15) . . .
204(14) . . .
204(14) . . .
188(14) . . .
194(14) . . .
209(14) . . .
222(15) . . .
210(14) . . .
213(15) . . .
211(15) . . .
207(14) . . .
203(14) . . .
183(14) . . .
194(14) . . .
221(15) . . .
207(14) . . .
183(14) . . .
188(14) . . .
233(15) . . .
195(14) . . .
191(14) . . .
201(14) . . .
210(14) . . .
197(14) . . .
195(14) . . .
200(14) . . .
213(15) . . .
224(15) . . .
219(15) . . .
202(14) . . .
226(15) . . .
196(14) . . .
201(14) . . .
212(15) . . .
203(14) . . .
200(14) . . .
221(15) . . .
184(14) . . .
185(14) . . .
221(15) . . .
198(14) . . .
216(15) . . .
198(14) . . .
197(14) . . .
202(14) . . .
189(14) . . .
197(14) . . .
208(14) . . .
207(14) . . .
203(14) . . .
196(14) . . .
190(14) . . .
187(14) . . .
198(14) . . .
212(15) . . .
182(13) . . .
211(15) . . .
213(15) . . .
216(15) . . .
207(14) . . .
220(15) . . .
202(14) . . .
220(15) . . .
213(15) . . .
204(14) . . .
199(14) . . .
200(14) . . .
208(14) . . .
220(15) . . .
213(15) . . .
212(15) . . .
219(15) . . .
193(14) . . .
214(15) . . .
215(15) . . .
210(14) . . .
213(15) . . .
221(15) . . .
205(14) . . .
208(14) . . .
199(14) . . .
194(14) . . .
232(15) . . .
228(15) . . .
188(14) . . .
211(15) . . .
191(14) . . .
221(15) . . .
208(14) . . .
169(13) . . .
200(14) . . .
219(15) . . .
217(15) . . .
195(14) . . .
211(15) . . .
198(14) . . .
231(15) . . .
198(14) . . .
182(13) . . .
188(14) . . .
203(14) . . .
197(14) . . .
220(15) . . .
179(13) . . .
210(14) . . .
212(15) . . .
236(15) . . .
221(15) . . .
206(14) . . .
204(14) . . .
197(14) . . .
213(15) . . .
201(14) . . .
235(15) . . .
219(15) . . .
211(15) . . .
191(14) . . .
204(14) . . .
206(14) . . .
210(14) . . .
195(14) . . .
225(15) . . .
207(14) . . .
217(15) . . .
193(14) . . .
213(15) . . .
216(15) . . .
193(14) . . .
202(14) . . .
215(15) . . .
197(14) . . .
234(15) . . .
223(15) . . .
208(14) . . .
215(15) . . .
225(15) . . .
206(14) . . .
190(14) . . .
219(15) . . .
195(14) . . .
205(14) . . .
205(14) . . .
195(14) . . .
197(14) . . .
181(13) . . .
198(14) . . .
205(14) . . .
192(14) . . .
198(14) . . .
196(14) . . .
216(15) . . .
210(14) . . .
195(14) . . .
200(14) . . .
197(14) . . .
206(14) . . .
186(14) . . .
225(15) . . .
191(14) . . .
223(15) . . .
185(14) . . .
189(14) . . .
219(15) . . .
194(14) . . .
207(14) . . .
189(14) . . .
212(15) . . .
202(14) . . .
210(14) . . .
205(14) . . .
206(14) . . .
204(14) . . .
194(14) . . .
201(14) . . .
208(14) . . .
209(14) . . .
191(14) . . .
197(14) . . .
220(15) . . .
220(15) . . .
185(14) . . .
211(15) . . .
195(14) . . .
234(15) . . .
199(14) . . .
209(14) . . .
214(15) . . .
176(13) . . .
208(14) . . .
200(14) . . .
199(14) . . .
229(15) . . .
207(14) . . .
208(14) . . .
218(15) . . .
184(14) . . .
202(14) . . .
196(14) . . .
210(14) . . .
193(14) . . .
200(14) . . .
187(14) . . .
226(15) . . .
212(15) . . .
203(14) . . .
197(14) . . .
200(14) . . .
194(14) . . .
206(14) . . .
199(14) . . .
208(14) . . .
213(15) . . .
191(14) . . .
181(13) . . .
207(14) . . .
226(15) . . .
203(14) . . .
184(14) . . .
200(14) . . .
191(14) . . .
214(15) . . .
194(14) . . .
203(14) . . .
174(13) . . .
202(14) . . .
199(14) . . .
186(14) . . .
197(14) . . .
202(14) . . .
218(15) . . .
204(14) . . .
213(15) . . .
194(14) . . .
190(14) . . .
174(13) . . .
228(15) . . .
180(13) . . .
179(13) . . .
186(14) . . .
185(14) . . .
200(14) . . .
183(14) . . .
204(14) . . .
197(14) . . .
206(14) . . .
179(13) . . .
186(14) . . .
216(15) . . .
205(14) . . .
187(14) . . .
167(13) . . .
189(14) . . .
220(15) . . .
205(14) . . .
183(14) . . .
209(14) . . .
205(14) . . .
197(14) . . .
190(14) . . .
191(14) . . .
205(14) . . .
198(14) . . .
182(13) . . .
190(14) . . .
189(14) . . .
207(14) . . .
184(14) . . .
177(13) . . .
182(13) . . .
190(14) . . .
181(13) . . .
204(14) . . .
195(14) . . .
205(14) . . .
197(14) . . .
190(14) . . .
173(13) . . .
190(14) . . .
215(15) . . .
187(14) . . .
202(14) . . .
198(14) . . .
179(13) . . .
196(14) . . .
209(14) . . .
199(14) . . .
199(14) . . .
194(14) . . .
200(14) . . .
210(14) . . .
205(14) . . .
194(14) . . .
187(14) . . .
177(13) . . .
191(14) . . .
171(13) . . .
188(14) . . .
200(14) . . .
202(14) . . .
185(14) . . .
201(14) . . .
205(14) . . .
199(14) . . .
193(14) . . .
191(14) . . .
188(14) . . .
205(14) . . .
201(14) . . .
190(14) . . .
201(14) . . .
205(14) . . .
212(15) . . .
197(14) . . .
197(14) . . .
200(14) . . .
204(14) . . .
203(14) . . .
212(15) . . .
194(14) . . .
184(14) . . .
197(14) . . .
203(14) . . .
204(14) . . .
205(14) . . .
235(15) . . .
180(13) . . .
184(14) . . .
198(14) . . .
185(14) . . .
216(15) . . .
198(14) . . .
201(14) . . .
202(14) . . .
197(14) . . .
199(14) . . .
192(14) . . .
199(14) . . .
206(14) . . .
195(14) . . .
185(14) . . .
197(14) . . .
208(14) . . .
197(14) . . .
207(14) . . .
204(14) . . .
232(15) . . .
179(13) . . .
213(15) . . .
195(14) . . .
197(14) . . .
183(14) . . .
189(14) . . .
198(14) . . .
205(14) . . .
176(13) . . .
203(14) . . .
201(14) . . .
168(13) . . .
202(14) . . .
197(14) . . .
188(14) . . .
205(14) . . .
213(15) . . .
208(14) . . .
197(14) . . .
196(14) . . .
202(14) . . .
180(13) . . .
192(14) . . .
206(14) . . .
216(15) . . .
189(14) . . .
209(14) . . .
193(14) . . .
192(14) . . .
192(14) . . .
181(13) . . .
206(14) . . .
187(14) . . .
227(15) . . .
190(14) . . .
198(14) . . .
187(14) . . .
198(14) . . .
194(14) . . .
196(14) . . .
209(14) . . .
181(13) . . .
213(15) . . .
212(15) . . .
194(14) . . .
182(13) . . .
187(14) . . .
192(14) . . .
180(13) . . .
197(14) . . .
185(14) . . .
193(14) . . .
202(14) . . .
170(13) . . .
181(13) . . .
204(14) . . .
183(14) . . .
175(13) . . .
188(14) . . .
191(14) . . .
180(13) . . .
193(14) . . .
216(15) . . .
208(14) . . .
184(14) . . .
192(14) . . .
174(13) . . .
196(14) . . .
199(14) . . .
157(13) . . .
206(14) . . .
197(14) . . .
200(14) . . .
166(13) . . .
203(14) . . .
172(13) . . .
187(14) . . .
209(14) . . .
184(14) . . .
186(14) . . .
165(13) . . .
207(14) . . .
173(13) . . .
193(14) . . .
185(14) . . .
197(14) . . .
185(14) . . .
178(13) . . .
147(12) . . .
167(13) . . .
189(14) . . .
209(14) . . .
209(14) . . .
201(14) . . .
171(13) . . .
201(14) . . .
196(14) . . .
183(14) . . .
190(14) . . .
200(14) . . .
187(14) . . .
193(14) . . .
207(14) . . .
184(14) . . .
189(14) . . .
212(15) . . .
186(14) . . .
208(14) . . .
203(14) . . .
193(14) . . .
171(13) . . .
189(14) . . .
190(14) . . .
191(14) . . .
201(14) . . .
192(14) . . .
204(14) . . .
169(13) . . .
174(13) . . .
211(15) . . .
189(14) . . .
184(14) . . .
176(13) . . .
184(14) . . .
178(13) . . .
198(14) . . .
195(14) . . .
187(14) . . .
186(14) . . .
203(14) . . .
182(13) . . .
175(13) . . .
181(13) . . .
185(14) . . .
160(13) . . .
193(14) . . .
190(14) . . .
185(14) . . .
185(14) . . .
170(13) . . .
208(14) . . .
189(14) . . .
186(14) . . .
184(14) . . .
159(13) . . .
190(14) . . .
189(14) . . .
187(14) . . .
185(14) . . .
193(14) . . .
181(13) . . .
197(14) . . .
198(14) . . .
195(14) . . .
181(13) . . .
174(13) . . .
201(14) . . .
162(13) . . .
185(14) . . .
181(13) . . .
193(14) . . .
163(13) . . .
168(13) . . .
175(13) . . .
186(14) . . .
169(13) . . .
197(14) . . .
181(13) . . .
163(13) . . .
177(13) . . .
186(14) . . .
175(13) . . .
206(14) . . .
181(13) . . .
212(15) . . .
183(14) . . .
169(13) . . .
180(13) . . .
182(13) . . .
186(14) . . .
198(14) . . .
189(14) . . .
191(14) . . .
184(14) . . .
180(13) . . .
180(13) . . .
191(14) . . .
190(14) . . .
198(14) . . .
182(13) . . .
193(14) . . .
176(13) . . .
195(14) . . .
204(14) . . .
196(14) . . .
186(14) . . .
158(13) . . .
178(13) . . .
187(14) . . .
193(14) . . .
189(14) . . .
168(13) . . .
180(13) . . .
197(14) . . .
189(14) . . .
176(13) . . .
169(13) . . .
177(13) . . .
196(14) . . .
175(13) . . .
177(13) . . .
184(14) . . .
183(14) . . .
199(14) . . .
202(14) . . .
197(14) . . .
205(14) . . .
194(14) . . .
190(14) . . .
198(14) . . .
168(13) . . .
194(14) . . .
188(14) . . .
187(14) . . .
183(14) . . .
199(14) . . .
183(14) . . .
184(14) . . .
178(13) . . .
191(14) . . .
200(14) . . .
188(14) . . .
196(14) . . .
190(14) . . .
188(14) . . .
185(14) . . .
189(14) . . .
204(14) . . .
174(13) . . .
208(14) . . .
189(14) . . .
195(14) . . .
187(14) . . .
185(14) . . .
171(13) . . .
187(14) . . .
201(14) . . .
205(14) . . .
196(14) . . .
187(14) . . .
203(14) . . .
207(14) . . .
189(14) . . .
182(13) . . .
187(14) . . .
192(14) . . .
193(14) . . .
207(14) . . .
187(14) . . .
175(13) . . .
210(14) . . .
183(14) . . .
189(14) . . .
166(13) . . .
179(13) . . .
163(13) . . .
198(14) . . .
188(14) . . .
199(14) . . .
198(14) . . .
193(14) . . .
185(14) . . .
190(14) . . .
181(13) . . .
196(14) . . .
191(14) . . .
205(14) . . .
175(13) . . .
210(14) . . .
203(14) . . .
187(14) . . .
181(13) . . .
167(13) . . .
188(14) . . .
179(13) . . .
189(14) . . .
178(13) . . .
223(15) . . .
181(13) . . .
194(14) . . .
208(14) . . .
169(13) . . .
185(14) . . .
200(14) . . .
194(14) . . .
200(14) . . .
212(15) . . .
204(14) . . .
196(14) . . .
178(13) . . .
191(14) . . .
162(13) . . .
197(14) . . .
185(14) . . .
192(14) . . .
195(14) . . .
218(15) . . .
189(14) . . .
194(14) . . .
171(13) . . .
189(14) . . .
217(15) . . .
219(15) . . .
201(14) . . .
206(14) . . .
229(15) . . .
190(14) . . .
206(14) . . .
210(14) . . .
192(14) . . .
215(15) . . .
204(14) . . .
239(15) . . .
207(14) . . .
203(14) . . .
215(15) . . .
215(15) . . .
218(15) . . .
191(14) . . .
196(14) . . .
184(14) . . .
199(14) . . .
197(14) . . .
185(14) . . .
214(15) . . .
191(14) . . .
190(14) . . .
198(14) . . .
193(14) . . .
189(14) . . .
195(14) . . .
196(14) . . .
211(15) . . .
203(14) . . .
190(14) . . .
215(15) . . .
194(14) . . .
199(14) . . .
227(15) . . .
196(14) . . .
208(14) . . .
174(13) . . .
206(14) . . .
186(14) . . .
196(14) . . .
189(14) . . .
188(14) . . .
204(14) . . .
205(14) . . .
193(14) . . .
195(14) . . .
190(14) . . .
221(15) . . .
198(14) . . .
193(14) . . .
208(14) . . .
205(14) . . .
200(14) . . .
178(13) . . .
204(14) . . .
183(14) . . .
187(14) . . .
194(14) . . .
202(14) . . .
193(14) . . .
197(14) . . .
175(13) . . .
160(13) . . .
184(14) . . .
195(14) . . .
212(15) . . .
190(14) . . .
202(14) . . .
190(14) . . .
184(14) . . .
198(14) . . .
193(14) . . .
181(13) . . .
193(14) . . .
191(14) . . .
187(14) . . .
194(14) . . .
188(14) . . .
178(13) . . .
209(14) . . .
196(14) . . .
213(15) . . .
197(14) . . .
186(14) . . .
178(13) . . .
195(14) . . .
194(14) . . .
195(14) . . .
201(14) . . .
185(14) . . .
198(14) . . .
208(14) . . .
174(13) . . .
192(14) . . .
190(14) . . .
211(15) . . .
195(14) . . .
178(13) . . .
183(14) . . .
203(14) . . .
195(14) . . .
199(14) . . .
195(14) . . .
207(14) . . .
199(14) . . .
176(13) . . .
179(13) . . .
189(14) . . .
185(14) . . .
182(13) . . .
208(14) . . .
197(14) . . .
222(15) . . .
208(14) . . .
206(14) . . .
209(14) . . .
188(14) . . .
182(13) . . .
204(14) . . .
223(15) . . .
183(14) . . .
187(14) . . .
202(14) . . .
190(14) . . .
185(14) . . .
204(14) . . .
191(14) . . .
187(14) . . .
187(14) . . .
209(14) . . .
204(14) . . .
187(14) . . .
196(14) . . .
204(14) . . .
186(14) . . .
188(14) . . .
195(14) . . .
195(14) . . .
186(14) . . .
205(14) . . .
207(14) . . .
197(14) . . .
180(13) . . .
220(15) . . .
188(14) . . .
177(13) . . .
222(15) . . .
190(14) . . .
208(14) . . .
197(14) . . .
210(14) . . .
199(14) . . .
174(13) . . .
199(14) . . .
184(14) . . .
168(13) . . .
203(14) . . .
204(14) . . .
197(14) . . .
206(14) . . .
177(13) . . .
207(14) . . .
185(14) . . .
168(13) . . .
197(14) . . .
208(14) . . .
187(14) . . .
179(13) . . .
183(14) . . .
193(14) . . .
196(14) . . .
187(14) . . .
183(14) . . .
219(15) . . .
193(14) . . .
198(14) . . .
195(14) . . .
189(14) . . .
190(14) . . .
193(14) . . .
172(13) . . .
190(14) . . .
185(14) . . .
185(14) . . .
188(14) . . .
188(14) . . .
203(14) . . .
192(14) . . .
186(14) . . .
195(14) . . .
194(14) . . .
196(14) . . .
182(13) . . .
203(14) . . .
202(14) . . .
212(15) . . .
210(14) . . .
193(14) . . .
206(14) . . .
205(14) . . .
211(15) . . .
205(14) . . .
202(14) . . .
196(14) . . .
180(13) . . .
178(13) . . .
203(14) . . .
194(14) . . .
182(13) . . .
204(14) . . .
176(13) . . .
206(14) . . .
186(14) . . .
179(13) . . .
184(14) . . .
213(15) . . .
196(14) . . .
183(14) . . .
196(14) . . .
196(14) . . .
196(14) . . .
197(14) . . .
207(14) . . .
196(14) . . .
217(15) . . .
193(14) . . .
176(13) . . .
193(14) . . .
185(14) . . .
174(13) . . .
188(14) . . .
178(13) . . .
206(14) . . .
194(14) . . .
188(14) . . .
192(14) . . .
180(13) . . .
188(14) . . .
200(14) . . .
189(14) . . .
165(13) . . .
205(14) . . .
210(14) . . .
189(14) . . .
205(14) . . .
212(15) . . .
215(15) . . .
204(14) . . .
177(13) . . .
205(14) . . .
187(14) . . .
172(13) . . .
165(13) . . .
180(13) . . .
198(14) . . .
191(14) . . .
197(14) . . .
214(15) . . .
184(14) . . .
176(13) . . .
200(14) . . .
203(14) . . .
186(14) . . .
200(14) . . .
187(14) . . .
196(14) . . .
193(14) . . .
189(14) . . .
196(14) . . .
190(14) . . .
201(14) . . .
193(14) . . .
193(14) . . .
199(14) . . .
198(14) . . .
197(14) . . .
199(14) . . .
203(14) . . .
209(14) . . .
207(14) . . .
180(13) . . .
196(14) . . .
214(15) . . .
201(14) . . .
210(14) . . .
194(14) . . .
180(13) . . .
189(14) . . .
185(14) . . .
209(14) . . .
209(14) . . .
205(14) . . .
187(14) . . .
174(13) . . .
191(14) . . .
193(14) . . .
176(13) . . .
188(14) . . .
229(15) . . .
193(14) . . .
167(13) . . .
195(14) . . .
200(14) . . .
227(15) . . .
172(13) . . .
198(14) . . .
207(14) . . .
192(14) . . .
211(15) . . .
200(14) . . .
224(15) . . .
192(14) . . .
199(14) . . .
189(14) . . .
202(14) . . .
190(14) . . .
187(14) . . .
207(14) . . .
207(14) . . .
188(14) . . .
198(14) . . .
177(13) . . .
202(14) . . .
202(14) . . .
190(14) . . .
202(14) . . .
220(15) . . .
210(14) . . .
207(14) . . .
224(15) . . .
223(15) . . .
187(14) . . .
209(14) . . .
208(14) . . .
198(14) . . .
193(14) . . .
196(14) . . .
202(14) . . .
220(15) . . .
201(14) . . .
197(14) . . .
214(15) . . .
208(14) . . .
192(14) . . .
183(14) . . .
187(14) . . .
208(14) . . .
185(14) . . .
187(14) . . .
190(14) . . .
174(13) . . .
170(13) . . .
213(15) . . .
224(15) . . .
203(14) . . .
187(14) . . .
205(14) . . .
195(14) . . .
183(14) . . .
179(13) . . .
208(14) . . .
191(14) . . .
189(14) . . .
209(14) . . .
182(13) . . .
184(14) . . .
187(14) . . .
187(14) . . .
212(15) . . .
194(14) . . .
195(14) . . .
182(13) . . .
218(15) . . .
194(14) . . .
209(14) . . .
180(13) . . .
168(13) . . .
188(14) . . .
212(15) . . .
200(14) . . .
207(14) . . .
170(13) . . .
195(14) . . .
205(14) . . .
222(15) . . .
190(14) . . .
200(14) . . .
204(14) . . .
198(14) . . .
181(13) . . .
198(14) . . .
193(14) . . .
193(14) . . .
199(14) . . .
231(15) . . .
192(14) . . .
193(14) . . .
213(15) . . .
195(14) . . .
223(15) . . .
194(14) . . .
190(14) . . .
194(14) . . .
224(15) . . .
197(14) . . .
223(15) . . .
208(14) . . .
177(13) . . .
206(14) . . .
222(15) . . .
232(15) . . .
204(14) . . .
197(14) . . .
229(15) . . .
220(15) . . .
229(15) . . .
212(15) . . .
226(15) . . .
193(14) . . .
200(14) . . .
210(14) . . .
209(14) . . .
232(15) . . .
199(14) . . .
198(14) . . .
227(15) . . .
227(15) . . .
196(14) . . .
190(14) . . .
217(15) . . .
213(15) . . .
196(14) . . .
198(14) . . .
216(15) . . .
207(14) . . .
214(15) . . .
189(14) . . .
211(15) . . .
195(14) . . .
189(14) . . .
218(15) . . .
219(15) . . .
205(14) . . .
211(15) . . .
185(14) . . .
199(14) . . .
220(15) . . .
191(14) . . .
229(15) . . .
208(14) . . .
200(14) . . .
213(15) . . .
191(14) . . .
228(15) . . .
205(14) . . .
205(14) . . .
216(15) . . .
205(14) . . .
202(14) . . .
216(15) . . .
223(15) . . .
215(15) . . .
198(14) . . .
224(15) . . .
222(15) . . .
210(14) . . .
218(15) . . .
224(15) . . .
219(15) . . .
228(15) . . .
241(16) . . .
184(14) . . .
196(14) . . .
233(15) . . .
207(14) . . .
195(14) . . .
211(15) . . .
215(15) . . .
235(15) . . .
219(15) . . .
236(15) . . .
207(14) . . .
219(15) . . .
204(14) . . .
221(15) . . .
211(15) . . .
217(15) . . .
225(15) . . .
208(14) . . .
241(16) . . .
232(15) . . .
226(15) . . .
218(15) . . .
202(14) . . .
220(15) . . .
224(15) . . .
204(14) . . .
190(14) . . .
207(14) . . .
211(15) . . .
206(14) . . .
239(15) . . .
205(14) . . .
212(15) . . .
219(15) . . .
211(15) . . .
208(14) . . .
237(15) . . .
225(15) . . .
232(15) . . .
218(15) . . .
229(15) . . .
242(16) . . .
246(16) . . .
220(15) . . .
226(15) . . .
225(15) . . .
229(15) . . .
233(15) . . .
220(15) . . .
227(15) . . .
201(14) . . .
237(15) . . .
253(16) . . .
245(16) . . .
239(15) . . .
241(16) . . .
263(16) . . .
245(16) . . .
221(15) . . .
242(16) . . .
224(15) . . .
228(15) . . .
247(16) . . .
250(16) . . .
261(16) . . .
224(15) . . .
257(16) . . .
257(16) . . .
249(16) . . .
226(15) . . .
247(16) . . .
240(15) . . .
237(15) . . .
252(16) . . .
258(16) . . .
250(16) . . .
245(16) . . .
263(16) . . .
280(17) . . .
253(16) . . .
227(15) . . .
246(16) . . .
242(16) . . .
254(16) . . .
255(16) . . .
255(16) . . .
252(16) . . .
230(15) . . .
291(17) . . .
250(16) . . .
268(16) . . .
299(17) . . .
257(16) . . .
270(16) . . .
313(18) . . .
293(17) . . .
274(17) . . .
270(16) . . .
303(17) . . .
289(17) . . .
296(17) . . .
311(18) . . .
332(18) . . .
371(19) . . .
302(17) . . .
326(18) . . .
331(18) . . .
363(19) . . .
335(18) . . .
345(19) . . .
349(19) . . .
364(19) . . .
353(19) . . .
393(20) . . .
432(21) . . .
426(21) . . .
391(20) . . .
427(21) . . .
458(21) . . .
459(21) . . .
468(22) . . .
487(22) . . .
520(23) . . .
617(25) . . .
565(24) . . .
609(25) . . .
640(25) . . .
693(26) . . .
708(27) . . .
775(28) . . .
780(28) . . .
861(29) . . .
930(30) . . .
1027(32) . . .
1182(34) . . .
1187(34) . . .
1350(37) . . .
1481(38) . . .
1707(41) . . .
1863(43) . . .
2066(45) . . .
2360(49) . . .
2623(51) . . .
3072(55) . . .
3623(60) . . .
4029(63) . . .
4818(69) . . .
5501(74) . . .
6227(79) . . .
7142(85) . . .
7972(89) . . .
8729(93) . . .
9220(96) . . .
9639(98) . . .
9778(99) . . .
9774(99) . . .
9403(97) . . .
8992(95) . . .
8271(91) . . .
7526(87) . . .
6588(81) . . .
5835(76) . . .
5011(71) . . .
4260(65) . . .
3796(62) . . .
3174(56) . . .
2750(52) . . .
2460(50) . . .
2164(47) . . .
1918(44) . . .
1679(41) . . .
1486(39) . . .
1362(37) . . .
1226(35) . . .
1109(33) . . .
942(31) . . .
992(31) . . .
893(30) . . .
805(28) . . .
737(27) . . .
719(27) . . .
708(27) . . .
639(25) . . .
600(24) . . .
622(25) . . .
557(24) . . .
532(23) . . .
462(21) . . .
492(22) . . .
420(20) . . .
427(21) . . .
420(20) . . .
407(20) . . .
403(20) . . .
378(19) . . .
381(20) . . .
374(19) . . .
371(19) . . .
350(19) . . .
342(18) . . .
368(19) . . .
340(18) . . .
336(18) . . .
350(19) . . .
288(17) . . .
301(17) . . .
321(18) . . .
283(17) . . .
299(17) . . .
279(17) . . .
295(17) . . .
299(17) . . .
309(18) . . .
293(17) . . .
287(17) . . .
288(17) . . .
254(16) . . .
294(17) . . .
315(18) . . .
282(17) . . .
256(16) . . .
281(17) . . .
267(16) . . .
264(16) . . .
271(16) . . .
249(16) . . .
243(16) . . .
240(15) . . .
264(16) . . .
238(15) . . .
277(17) . . .
250(16) . . .
261(16) . . .
250(16) . . .
285(17) . . .
226(15) . . .
254(16) . . .
236(15) . . .
237(15) . . .
240(15) . . .
229(15) . . .
265(16) . . .
232(15) . . .
250(16) . . .
269(16) . . .
231(15) . . .
219(15) . . .
247(16) . . .
253(16) . . .
229(15) . . .
233(15) . . .
229(15) . . .
248(16) . . .
239(15) . . .
241(16) . . .
230(15) . . .
241(16) . . .
217(15) . . .
214(15) . . .
221(15) . . .
217(15) . . .
230(15) . . .
240(15) . . .
242(16) . . .
229(15) . . .
225(15) . . .
213(15) . . .
240(15) . . .
219(15) . . .
214(15) . . .
235(15) . . .
223(15) . . .
228(15) . . .
232(15) . . .
222(15) . . .
198(14) . . .
234(15) . . .
203(14) . . .
217(15) . . .
243(16) . . .
219(15) . . .
216(15) . . .
208(14) . . .
222(15) . . .
236(15) . . .
194(14) . . .
225(15) . . .
224(15) . . .
232(15) . . .
197(14) . . .
190(14) . . .
209(14) . . .
224(15) . . .
196(14) . . .
214(15) . . .
204(14) . . .
230(15) . . .
221(15) . . .
234(15) . . .
221(15) . . .
215(15) . . .
241(16) . . .
223(15) . . .
224(15) . . .
202(14) . . .
209(14) . . .
208(14) . . .
201(14) . . .
210(14) . . .
217(15) . . .
203(14) . . .
228(15) . . .
217(15) . . .
223(15) . . .
191(14) . . .
196(14) . . .
218(15) . . .
200(14) . . .
195(14) . . .
202(14) . . .
210(14) . . .
212(15) . . .
212(15) . . .
244(16) . . .
194(14) . . .
213(15) . . .
199(14) . . .
207(14) . . .
218(15) . . .
204(14) . . .
210(14) . . .
237(15) . . .
198(14) . . .
210(14) . . .
204(14) . . .
211(15) . . .
220(15) . . .
194(14) . . .
203(14) . . .
212(15) . . .
222(15) . . .
194(14) . . .
196(14) . . .
190(14) . . .
209(14) . . .
207(14) . . .
213(15) . . .
199(14) . . .
206(14) . . .
195(14) . . .
230(15) . . .
198(14) . . .
216(15) . . .
219(15) . . .
198(14) . . .
200(14) . . .
200(14) . . .
207(14) . . .
214(15) . . .
222(15) . . .
219(15) . . .
222(15) . . .
203(14) . . .
183(14) . . .
215(15) . . .
217(15) . . .
224(15) . . .
206(14) . . .
195(14) . . .
197(14) . . .
208(14) . . .
211(15) . . .
198(14) . . .
189(14) . . .
199(14) . . .
196(14) . . .
195(14) . . .
210(14) . . .
209(14) . . .
181(13) . . .
210(14) . . .
206(14) . . .
202(14) . . .
206(14) . . .
194(14) . . .
195(14) . . .
198(14) . . .
211(15) . . .
231(15) . . .
237(15) . . .
198(14) . . .
205(14) . . .
212(15) . . .
210(14) . . .
214(15) . . .
201(14) . . .
217(15) . . .
206(14) . . .
199(14) . . .
195(14) . . .
214(15) . . .
184(14) . . .
182(13) . . .
215(15) . . .
201(14) . . .
195(14) . . .
209(14) . . .
219(15) . . .
214(15) . . .
227(15) . . .
185(14) . . .
222(15) . . .
227(15) . . .
167(13) . . .
210(14) . . .
208(14) . . .
206(14) . . .
206(14) . . .
213(15) . . .
194(14) . . .
201(14) . . .
209(14) . . .
205(14) . . .
201(14) . . .
198(14) . . .
213(15) . . .
217(15) . . .
220(15) . . .
206(14) . . .
187(14) . . .
217(15) . . .
213(15) . . .
239(15) . . .
207(14) . . .
199(14) . . .
201(14) . . .
210(14) . . .
206(14) . . .
192(14) . . .
192(14) . . .
215(15) . . .
177(13) . . .
200(14) . . .
210(14) . . .
211(15) . . .
195(14) . . .
182(13) . . .
210(14) . . .
195(14) . . .
224(15) . . .
190(14) . . .
204(14) . . .
219(15) . . .
205(14) . . .
209(14) . . .
194(14) . . .
205(14) . . .
202(14) . . .
203(14) . . .
199(14) . . .
189(14) . . .
201(14) . . .
199(14) . . .
209(14) . . .
201(14) . . .
186(14) . . .
206(14) . . .
201(14) . . .
196(14) . . .
218(15) . . .
206(14) . . .
202(14) . . .
172(13) . . .
199(14) . . .
210(14) . . .
187(14) . . .
197(14) . . .
198(14) . . .
198(14) . . .
205(14) . . .
192(14) . . .
203(14) . . .
183(14) . . .
210(14) . . .
193(14) . . .
199(14) . . .
218(15) . . .
216(15) . . .
193(14) . . .
198(14) . . .
207(14) . . .
190(14) . . .
198(14) . . .
197(14) . . .
208(14) . . .
230(15) . . .
206(14) . . .
230(15) . . .
207(14) . . .
219(15) . . .
192(14) . . .
182(13) . . .
184(14) . . .
197(14) . . .
188(14) . . .
234(15) . . .
194(14) . . .
187(14) . . .
215(15) . . .
210(14) . . .
237(15) . . .
212(15) . . .
203(14) . . .
207(14) . . .
185(14) . . .
201(14) . . .
195(14) . . .
214(15) . . .
218(15) . . .
198(14) . . .
200(14) . . .
212(15) . . .
202(14) . . .
199(14) . . .
202(14) . . .
214(15) . . .
186(14) . . .
211(15) . . .
205(14) . . .
210(14) . . .
208(14) . . .
189(14) . . .
188(14) . . .
188(14) . . .
181(13) . . .
193(14) . . .
224(15) . . .
204(14) . . .
224(15) . . .
190(14) . . .
192(14) . . .
193(14) . . .
201(14) . . .
187(14) . . .
207(14) . . .
208(14) . . .
204(14) . . .
201(14) . . .
213(15) . . .
190(14) . . .
192(14) . . .
198(14) . . .
179(13) . . .
190(14) . . .
215(15) . . .
195(14) . . .
211(15) . . .
196(14) . . .
195(14) . . .
192(14) . . .
189(14) . . .
201(14) . . .
185(14) . . .
213(15) . . .
191(14) . . .
224(15) . . .
172(13) . . .
191(14) . . .
214(15) . . .
204(14) . . .
190(14) . . .
195(14) . . .
188(14) . . .
166(13) . . .
187(14) . . .
187(14) . . .
198(14) . . .
198(14) . . .
197(14) . . .
219(15) . . .
177(13) . . .
209(14) . . .
210(14) . . .
227(15) . . .
190(14) . . .
177(13) . . .
173(13) . . .
204(14) . . .
208(14) . . .
199(14) . . .
215(15) . . .
194(14) . . .
192(14) . . .
197(14) . . .
185(14) . . .
198(14) . . .
193(14) . . .
222(15) . . .
214(15) . . .
197(14) . . .
198(14) . . .
208(14) . . .
202(14) . . .
190(14) . . .
183(14) . . .
196(14) . . .
198(14) . . .
194(14) . . .
219(15) . . .
197(14) . . .
211(15) . . .
194(14) . . .
198(14) . . .
223(15) . . .
208(14) . . .
211(15) . . .
180(13) . . .
180(13) . . .
220(15) . . .
212(15) . . .
205(14) . . .
198(14) . . .
192(14) . . .
204(14) . . .
214(15) . . .
196(14) . . .
194(14) . . .
210(14) . . .
198(14) . . .
206(14) . . .
196(14) . . .
192(14) . . .
191(14) . . .
191(14) . . .
191(14) . . .
185(14) . . .
192(14) . . .
185(14) . . .
206(14) . . .
193(14) . . .
202(14) . . .
213(15) . . .
197(14) . . .
202(14) . . .
200(14) . . .
202(14) . . .
191(14) . . .
223(15) . . .
226(15) . . .
200(14) . . .
187(14) . . .
201(14) . . .
184(14) . . .
186(14) . . .
228(15) . . .
222(15) . . .
229(15) . . .
226(15) . . .
212(15) . . .
214(15) . . .
200(14) . . .
218(15) . . .
188(14) . . .
210(14) . . .
215(15) . . .
208(14) . . .
205(14) . . .
219(15) . . .
181(13) . . .
218(15) . . .
193(14) . . .
189(14) . . .
181(13) . . .
182(13) . . .
228(15) . . .
219(15) . . .
218(15) . . .
195(14) . . .
178(13) . . .
208(14) . . .
210(14) . . .
188(14) . . .
203(14) . . .
205(14) . . .
205(14) . . .
189(14) . . .
218(15) . . .
219(15) . . .
194(14) . . .
201(14) . . .
212(15) . . .
212(15) . . .
183(14) . . .
183(14) . . .
209(14) . . .
190(14) . . .
206(14) . . .
212(15) . . .
184(14) . . .
202(14) . . .
212(15) . . .
195(14) . . .
217(15) . . .
211(15) . . .
217(15) . . .
195(14) . . .
204(14) . . .
202(14) . . .
208(14) . . .
215(15) . . .
221(15) . . .
218(15) . . .
206(14) . . .
217(15) . . .
217(15) . . .
227(15) . . .
204(14) . . .
224(15) . . .
196(14) . . .
206(14) . . .
194(14) . . .
202(14) . . .
219(15) . . .
212(15) . . .
214(15) . . .
225(15) . . .
197(14) . . .
224(15) . . .
199(14) . . .
210(14) . . .
204(14) . . .
268(16) . . .
230(15) . . .
223(15) . . .
258(16) . . .
242(16) . . .
204(14) . . .
205(14) . . .
226(15) . . .
208(14) . . .
216(15) . . .
220(15) . . .
190(14) . . .
217(15) . . .
181(13) . . .
207(14) . . .
215(15) . . .
229(15) . . .
204(14) . . .
211(15) . . .
206(14) . . .
206(14) . . .
212(15) . . .
203(14) . . .
207(14) . . .
216(15) . . .
233(15) . . .
222(15) . . .
221(15) . . .
211(15) . . .
238(15) . . .
191(14) . . .
211(15) . . .
226(15) . . .
224(15) . . .
205(14) . . .
230(15) . . .
224(15) . . .
235(15) . . .
204(14) . . .
217(15) . . .
213(15) . . .
195(14) . . .
202(14) . . .
205(14) . . .
224(15) . . .
216(15) . . .
216(15) . . .
219(15) . . .
212(15) . . .
195(14) . . .
221(15) . . .
200(14) . . .
213(15) . . .
202(14) . . .
197(14) . . .
216(15) . . .
225(15) . . .
184(14) . . .
233(15) . . .
198(14) . . .
201(14) . . .
212(15) . . .
230(15) . . .
196(14) . . .
223(15) . . .
234(15) . . .
217(15) . . .
213(15) . . .
230(15) . . .
243(16) . . .
230(15) . . .
211(15) . . .
219(15) . . .
233(15) . . .
219(15) . . .
241(16) . . .
198(14) . . .
230(15) . . .
232(15) . . .
218(15) . . .
211(15) . . .
228(15) . . .
214(15) . . .
233(15) . . .
204(14) . . .
214(15) . . .
208(14) . . .
208(14) . . .
213(15) . . .
218(15) . . .
235(15) . . .
225(15) . . .
204(14) . . .
206(14) . . .
207(14) . . .
216(15) . . .
218(15) . . .
194(14) . . .
218(15) . . .
213(15) . . .
228(15) . . .
198(14) . . .
187(14) . . .
214(15) . . .
196(14) . . .
227(15) . . .
188(14) . . .
221(15) . . .
213(15) . . .
232(15) . . .
204(14) . . .
214(15) . . .
218(15) . . .
202(14) . . .
197(14) . . .
207(14) . . .
216(15) . . .
213(15) . . .
214(15) . . .
197(14) . . .
210(14) . . .
203(14) . . .
224(15) . . .
196(14) . . .
202(14) . . .
203(14) . . .
205(14) . . .
229(15) . . .
207(14) . . .
206(14) . . .
219(15) . . .
211(15) . . .
193(14) . . .
213(15) . . .
218(15) . . .
236(15) . . .
210(14) . . .
218(15) . . .
196(14) . . .
211(15) . . .
216(15) . . .
219(15) . . .
215(15) . . .
227(15) . . .
231(15) . . .
230(15) . . .
214(15) . . .
226(15) . . .
220(15) . . .
212(15) . . .
201(14) . . .
217(15) . . .
214(15) . . .
229(15) . . .
205(14) . . .
213(15) . . .
215(15) . . .
215(15) . . .
220(15) . . .
202(14) . . .
196(14) . . .
209(14) . . .
206(14) . . .
232(15) . . .
224(15) . . .
210(14) . . .
213(15) . . .
227(15) . . .
208(14) . . .
218(15) . . .
209(14) . . .
199(14) . . .
225(15) . . .
201(14) . . .
209(14) . . .
222(15) . . .
207(14) . . .
199(14) . . .
207(14) . . .
215(15) . . .
222(15) . . .
213(15) . . .
226(15) . . .
210(14) . . .
214(15) . . .
235(15) . . .
247(16) . . .
240(15) . . .
211(15) . . .
219(15) . . .
212(15) . . .
226(15) . . .
227(15) . . .
228(15) . . .
239(15) . . .
221(15) . . .
234(15) . . .
209(14) . . .
212(15) . . .
203(14) . . .
218(15) . . .
224(15) . . .
228(15) . . .
213(15) . . .
219(15) . . .
214(15) . . .
197(14) . . .
200(14) . . .
225(15) . . .
217(15) . . .
197(14) . . .
208(14) . . .
204(14) . . .
222(15) . . .
222(15) . . .
228(15) . . .
216(15) . . .
210(14) . . .
237(15) . . .
238(15) . . .
222(15) . . .
226(15) . . .
233(15) . . .
208(14) . . .
223(15) . . .
245(16) . . .
234(15) . . .
237(15) . . .
228(15) . . .
245(16) . . .
227(15) . . .
227(15) . . .
214(15) . . .
227(15) . . .
212(15) . . .
228(15) . . .
251(16) . . .
241(16) . . .
236(15) . . .
214(15) . . .
221(15) . . .
229(15) . . .
218(15) . . .
210(14) . . .
238(15) . . .
226(15) . . .
243(16) . . .
219(15) . . .
244(16) . . .
244(16) . . .
233(15) . . .
253(16) . . .
243(16) . . .
240(15) . . .
249(16) . . .
237(15) . . .
236(15) . . .
216(15) . . .
246(16) . . .
254(16) . . .
257(16) . . .
258(16) . . .
253(16) . . .
249(16) . . .
247(16) . . .
256(16) . . .
261(16) . . .
266(16) . . .
250(16) . . .
274(17) . . .
256(16) . . .
257(16) . . .
253(16) . . .
286(17) . . .
240(15) . . .
281(17) . . .
230(15) . . .
237(15) . . .
253(16) . . .
242(16) . . .
255(16) . . .
237(15) . . .
263(16) . . .
287(17) . . .
271(16) . . .
257(16) . . .
286(17) . . .
255(16) . . .
261(16) . . .
279(17) . . .
262(16) . . .
247(16) . . .
282(17) . . .
270(16) . . .
289(17) . . .
294(17) . . .
290(17) . . .
251(16) . . .
289(17) . . .
303(17) . . .
313(18) . . .
284(17) . . .
278(17) . . .
318(18) . . .
310(18) . . .
327(18) . . .
308(18) . . .
349(19) . . .
312(18) . . .
323(18) . . .
328(18) . . .
322(18) . . .
320(18) . . .
378(19) . . .
369(19) . . .
354(19) . . .
375(19) . . .
374(19) . . .
357(19) . . .
364(19) . . .
426(21) . . .
409(20) . . .
362(19) . . .
399(20) . . .
451(21) . . .
437(21) . . .
437(21) . . .
485(22) . . .
481(22) . . .
516(23) . . .
516(23) . . .
517(23) . . .
571(24) . . .
597(24) . . .
568(24) . . .
650(25) . . .
608(25) . . .
724(27) . . .
734(27) . . .
825(29) . . .
824(29) . . .
872(30) . . .
972(31) . . .
1010(32) . . .
1133(34) . . .
1274(36) . . .
1249(35) . . .
1386(37) . . .
1533(39) . . .
1699(41) . . .
1811(43) . . .
2038(45) . . .
2248(47) . . .
2502(50) . . .
2843(53) . . .
3124(56) . . .
3642(60) . . .
4089(64) . . .
4664(68) . . .
5290(73) . . .
5927(77) . . .
6704(82) . . .
7586(87) . . .
8426(92) . . .
9400(97) . . .
10130(100) . . .
10540(100) . . .
10980(110) . . .
11400(110) . . .
11160(110) . . .
10740(100) . . .
10120(100) . . .
9491(97) . . .
8611(93) . . .
7775(88) . . .
6919(83) . . .
6127(78) . . .
5332(73) . . .
4572(68) . . .
4138(64) . . .
3559(60) . . .
3088(56) . . .
2739(52) . . .
2500(50) . . .
2170(47) . . .
2015(45) . . .
1776(42) . . .
1601(40) . . .
1490(39) . . .
1413(38) . . .
1300(36) . . .
1144(34) . . .
1084(33) . . .
998(32) . . .
867(29) . . .
897(30) . . .
799(28) . . .
775(28) . . .
743(27) . . .
695(26) . . .
624(25) . . .
638(25) . . .
611(25) . . .
569(24) . . .
545(23) . . .
509(23) . . .
495(22) . . .
498(22) . . .
478(22) . . .
454(21) . . .
456(21) . . .
441(21) . . .
434(21) . . .
391(20) . . .
410(20) . . .
388(20) . . .
423(21) . . .
399(20) . . .
353(19) . . .
377(19) . . .
383(20) . . .
357(19) . . .
337(18) . . .
349(19) . . .
365(19) . . .
329(18) . . .
347(19) . . .
315(18) . . .
317(18) . . .
304(17) . . .
310(18) . . .
291(17) . . .
295(17) . . .
310(18) . . .
278(17) . . .
275(17) . . .
273(17) . . .
239(15) . . .
314(18) . . .
283(17) . . .
276(17) . . .
251(16) . . .
282(17) . . .
299(17) . . .
279(17) . . .
295(17) . . .
282(17) . . .
275(17) . . .
265(16) . . .
258(16) . . .
259(16) . . .
236(15) . . .
273(17) . . .
248(16) . . .
279(17) . . .
296(17) . . .
287(17) . . .
248(16) . . .
227(15) . . .
256(16) . . .
274(17) . . .
257(16) . . .
235(15) . . .
283(17) . . .
240(15) . . .
243(16) . . .
229(15) . . .
259(16) . . .
260(16) . . .
224(15) . . .
229(15) . . .
229(15) . . .
246(16) . . .
250(16) . . .
228(15) . . .
248(16) . . .
251(16) . . .
258(16) . . .
234(15) . . .
235(15) . . .
224(15) . . .
239(15) . . .
235(15) . . .
262(16) . . .
235(15) . . .
232(15) . . .
215(15) . . .
246(16) . . .
248(16) . . .
209(14) . . .
218(15) . . .
239(15) . . .
236(15) . . .
244(16) . . .
227(15) . . .
240(15) . . .
249(16) . . .
236(15) . . .
245(16) . . .
263(16) . . .
217(15) . . .
224(15) . . .
217(15) . . .
221(15) . . .
235(15) . . .
236(15) . . .
247(16) . . .
232(15) . . .
219(15) . . .
233(15) . . .
242(16) . . .
252(16) . . .
224(15) . . .
232(15) . . .
211(15) . . .
232(15) . . .
241(16) . . .
226(15) . . .
223(15) . . .
228(15) . . .
212(15) . . .
223(15) . . .
234(15) . . .
243(16) . . .
229(15) . . .
193(14) . . .
239(15) . . .
221(15) . . .
237(15) . . .
232(15) . . .
249(16) . . .
233(15) . . .
206(14) . . .
241(16) . . .
203(14) . . .
206(14) . . .
237(15) . . .
225(15) . . .
205(14) . . .
206(14) . . .
228(15) . . .
209(14) . . .
236(15) . . .
219(15) . . .
238(15) . . .
216(15) . . .
204(14) . . .
203(14) . . .
217(15) . . .
224(15) . . .
219(15) . . .
220(15) . . .
222(15) . . .
231(15) . . .
209(14) . . .
219(15) . . .
247(16) . . .
225(15) . . .
233(15) . . .
233(15) . . .
218(15) . . .
224(15) . . .
236(15) . . .
220(15) . . .
232(15) . . .
238(15) . . .
213(15) . . .
218(15) . . .
225(15) . . .
206(14) . . .
228(15) . . .
222(15) . . .
226(15) . . .
228(15) . . .
217(15) . . .
232(15) . . .
222(15) . . .
223(15) . . .
241(16) . . .
210(14) . . .
238(15) . . .
232(15) . . .
222(15) . . .
218(15) . . .
214(15) . . .
245(16) . . .
225(15) . . .
245(16) . . .
221(15) . . .
225(15) . . .
223(15) . . .
222(15) . . .
242(16) . . .
227(15) . . .
225(15) . . .
197(14) . . .
245(16) . . .
227(15) . . .
237(15) . . .
242(16) . . .
232(15) . . .
245(16) . . .
239(15) . . .
239(15) . . .
246(16) . . .
250(16) . . .
224(15) . . .
233(15) . . .
246(16) . . .
245(16) . . .
230(15) . . .
239(15) . . .
233(15) . . .
250(16) . . .
248(16) . . .
225(15) . . .
262(16) . . .
255(16) . . .
262(16) . . .
260(16) . . .
258(16) . . .
264(16) . . .
251(16) . . .
238(15) . . .
272(16) . . .
263(16) . . .
268(16) . . .
273(17) . . .
248(16) . . .
296(17) . . .
290(17) . . .
302(17) . . .
311(18) . . .
252(16) . . .
293(17) . . .
306(17) . . .
292(17) . . .
328(18) . . .
317(18) . . .
310(18) . . .
338(18) . . .
341(18) . . .
346(19) . . .
373(19) . . .
382(20) . . .
404(20) . . .
397(20) . . .
405(20) . . .
412(20) . . .
441(21) . . .
421(21) . . .
463(22) . . .
508(23) . . .
551(23) . . .
569(24) . . .
600(24) . . .
663(26) . . .
668(26) . . .
678(26) . . .
771(28) . . .
825(29) . . .
921(30) . . .
966(31) . . .
1056(32) . . .
1185(34) . . .
1284(36) . . .
1456(38) . . .
1640(40) . . .
1876(43) . . .
2033(45) . . .
2375(49) . . .
2658(52) . . .
3032(55) . . .
3413(58) . . .
3670(61) . . .
4222(65) . . .
4553(67) . . .
4801(69) . . .
5004(71) . . .
5295(73) . . .
5274(73) . . .
5073(71) . . .
5035(71) . . .
4570(68) . . .
4189(65) . . .
4045(64) . . .
3477(59) . . .
3106(56) . . .
2656(52) . . .
2398(49) . . .
2037(45) . . .
1802(42) . . .
1609(40) . . .
1464(38) . . .
1328(36) . . .
1203(35) . . .
1079(33) . . .
937(31) . . .
879(30) . . .
791(28) . . .
678(26) . . .
671(26) . . .
578(24) . . .
588(24) . . .
542(23) . . .
525(23) . . .
517(23) . . .
425(21) . . .
454(21) . . .
458(21) . . .
423(21) . . .
407(20) . . .
372(19) . . .
368(19) . . .
363(19) . . .
331(18) . . .
346(19) . . .
350(19) . . .
332(18) . . .
317(18) . . .
312(18) . . .
286(17) . . .
304(17) . . .
314(18) . . .
292(17) . . .
295(17) . . .
279(17) . . .
272(16) . . .
292(17) . . .
296(17) . . .
243(16) . . .
259(16) . . .
248(16) . . .
249(16) . . .
247(16) . . .
270(16) . . .
234(15) . . .
247(16) . . .
256(16) . . .
237(15) . . .
239(15) . . .
231(15) . . .
250(16) . . .
237(15) . . .
252(16) . . .
251(16) . . .
227(15) . . .
255(16) . . .
247(16) . . .
231(15) . . .
239(15) . . .
223(15) . . .
236(15) . . .
236(15) . . .
227(15) . . .
214(15) . . .
216(15) . . .
203(14) . . .
206(14) . . .
213(15) . . .
220(15) . . .
219(15) . . .
201(14) . . .
225(15) . . .
218(15) . . .
218(15) . . .
215(15) . . .
215(15) . . .
212(15) . . .
217(15) . . .
193(14) . . .
193(14) . . .
225(15) . . .
236(15) . . .
213(15) . . .
230(15) . . .
200(14) . . .
209(14) . . .
179(13) . . .
191(14) . . .
224(15) . . .
216(15) . . .
201(14) . . .
201(14) . . .
207(14) . . .
198(14) . . .
201(14) . . .
204(14) . . .
191(14) . . .
231(15) . . .
197(14) . . .
202(14) . . .
211(15) . . .
215(15) . . .
224(15) . . .
213(15) . . .
217(15) . . .
203(14) . . .
211(15) . . .
194(14) . . .
207(14) . . .
206(14) . . .
220(15) . . .
217(15) . . .
204(14) . . .
198(14) . . .
206(14) . . .
188(14) . . .
202(14) . . .
188(14) . . .
209(14) . . .
214(15) . . .
191(14) . . .
202(14) . . .
208(14) . . .
183(14) . . .
201(14) . . .
212(15) . . .
214(15) . . .
192(14) . . .
199(14) . . .
212(15) . . .
192(14) . . .
194(14) . . .
187(14) . . .
187(14) . . .
201(14) . . .
194(14) . . .
179(13) . . .
191(14) . . .
201(14) . . .
202(14) . . .
182(13) . . .
187(14) . . .
199(14) . . .
175(13) . . .
200(14) . . .
164(13) . . .
208(14) . . .
221(15) . . .
184(14) . . .
195(14) . . .
189(14) . . .
185(14) . . .
202(14) . . .
177(13) . . .
174(13) . . .
194(14) . . .
199(14) . . .
203(14) . . .
187(14) . . .
193(14) . . .
188(14) . . .
186(14) . . .
188(14) . . .
205(14) . . .
195(14) . . .
179(13) . . .
173(13) . . .
177(13) . . .
190(14) . . .
203(14) . . .
212(15) . . .
201(14) . . .
192(14) . . .
183(14) . . .
189(14) . . .
187(14) . . .
179(13) . . .
203(14) . . .
207(14) . . .
205(14) . . .
193(14) . . .
192(14) . . .
169(13) . . .
209(14) . . .
189(14) . . .
198(14) . . .
180(13) . . .
211(15) . . .
200(14) . . .
189(14) . . .
194(14) . . .
189(14) . . .
196(14) . . .
176(13) . . .
191(14) . . .
193(14) . . .
189(14) . . .
178(13) . . .
200(14) . . .
200(14) . . .
218(15) . . .
196(14) . . .
180(13) . . .
190(14) . . .
204(14) . . .
196(14) . . .
183(14) . . .
201(14) . . .
189(14) . . .
184(14) . . .
179(13) . . .
179(13) . . .
190(14) . . .
197(14) . . .
187(14) . . .
198(14) . . .
207(14) . . .
166(13) . . .
187(14) . . .
188(14) . . .
184(14) . . .
176(13) . . .
183(14) . . .
194(14) . . .
166(13) . . .
195(14) . . .
182(13) . . .
170(13) . . .
180(13) . . .
182(13) . . .
179(13) . . .
178(13) . . .
197(14) . . .
186(14) . . .
170(13) . . .
189(14) . . .
169(13) . . .
194(14) . . .
184(14) . . .
184(14) . . .
185(14) . . .
180(13) . . .
186(14) . . .
163(13) . . .
159(13) . . .
193(14) . . .
185(14) . . .
180(13) . . .
189(14) . . .
187(14) . . .
191(14) . . .
183(14) . . .
178(13) . . .
178(13) . . .
198(14) . . .
180(13) . . .
176(13) . . .
180(13) . . .
182(13) . . .
170(13) . . .
184(14) . . .
186(14) . . .
187(14) . . .
191(14) . . .
191(14) . . .
173(13) . . .
161(13) . . .
165(13) . . .
179(13) . . .
201(14) . . .
165(13) . . .
188(14) . . .
199(14) . . .
191(14) . . .
188(14) . . .
165(13) . . .
152(12) . . .
171(13) . . .
173(13) . . .
180(13) . . .
181(13) . . .
177(13) . . .
175(13) . . .
167(13) . . .
183(14) . . .
171(13) . . .
190(14) . . .
185(14) . . .
195(14) . . .
183(14) . . .
173(13) . . .
190(14) . . .
195(14) . . .
195(14) . . .
195(14) . . .
167(13) . . .
184(14) . . .
162(13) . . .
192(14) . . .
165(13) . . .
187(14) . . .
190(14) . . .
173(13) . . .
159(13) . . .
182(13) . . .
181(13) . . .
189(14) . . .
192(14) . . .
181(13) . . .
190(14) . . .
186(14) . . .
192(14) . . .
173(13) . . .
173(13) . . .
168(13) . . .
188(14) . . .
186(14) . . .
188(14) . . .
172(13) . . .
173(13) . . .
166(13) . . .
185(14) . . .
172(13) . . .
186(14) . . .
179(13) . . .
187(14) . . .
189(14) . . .
180(13) . . .
170(13) . . .
179(13) . . .
159(13) . . .
164(13) . . .
160(13) . . .
179(13) . . .
166(13) . . .
169(13) . . .
180(13) . . .
183(14) . . .
185(14) . . .
160(13) . . .
183(14) . . .
186(14) . . .
172(13) . . .
175(13) . . .
189(14) . . .
179(13) . . .
174(13) . . .
182(13) . . .
182(13) . . .
185(14) . . .
185(14) . . .
164(13) . . .
200(14) . . .
173(13) . . .
186(14) . . .
173(13) . . .
173(13) . . .
180(13) . . .
167(13) . . .
187(14) . . .
185(14) . . .
165(13) . . .
176(13) . . .
194(14) . . .
173(13) . . .
176(13) . . .
141(12) . . .
174(13) . . .
166(13) . . .
191(14) . . .
177(13) . . .
165(13) . . .
181(13) . . .
162(13) . . .
164(13) . . .
171(13) . . .
179(13) . . .
171(13) . . .
163(13) . . .
188(14) . . .
169(13) . . .
184(14) . . .
169(13) . . .
161(13) . . .
159(13) . . .
192(14) . . .
154(12) . . .
170(13) . . .
165(13) . . .
158(13) . . .
164(13) . . .
189(14) . . .
170(13) . . .
168(13) . . .
160(13) . . .
158(13) . . .
166(13) . . .
178(13) . . .
174(13) . . .
172(13) . . .
170(13) . . .
169(13) . . .
182(13) . . .
174(13) . . .
183(14) . . .
179(13) . . .
182(13) . . .
177(13) . . .
164(13) . . .
184(14) . . .
169(13) . . .
153(12) . . .
148(12) . . .
184(14) . . .
185(14) . . .
184(14) . . .
204(14) . . .
185(14) . . .
201(14) . . .
173(13) . . .
168(13) . . .
182(13) . . .
181(13) . . .
156(12) . . .
188(14) . . .
179(13) . . .
173(13) . . .
154(12) . . .
165(13) . . .
155(12) . . .
187(14) . . .
178(13) . . .
158(13) . . .
174(13) . . .
157(13) . . .
167(13) . . .
154(12) . . .
172(13) . . .
159(13) . . .
181(13) . . .
179(13) . . .
173(13) . . .
174(13) . . .
168(13) . . .
176(13) . . .
152(12) . . .
171(13) . . .
171(13) . . .
161(13) . . .
175(13) . . .
184(14) . . .
168(13) . . .
169(13) . . .
167(13) . . .
175(13) . . .
182(13) . . .
166(13) . . .
173(13) . . .
153(12) . . .
170(13) . . .
161(13) . . .
162(13) . . .
165(13) . . .
168(13) . . .
164(13) . . .
157(13) . . .
165(13) . . .
166(13) . . .
179(13) . . .
169(13) . . .
181(13) . . .
181(13) . . .
199(14) . . .
186(14) . . .
169(13) . . .
175(13) . . .
167(13) . . .
165(13) . . .
162(13) . . .
169(13) . . .
167(13) . . .
166(13) . . .
152(12) . . .
171(13) . . .
167(13) . . .
161(13) . . .
162(13) . . .
155(12) . . .
165(13) . . .
152(12) . . .
145(12) . . .
184(14) . . .
149(12) . . .
170(13) . . .
177(13) . . .
167(13) . . .
156(12) . . .
141(12) . . .
163(13) . . .
156(12) . . .
161(13) . . .
175(13) . . .
183(14) . . .
156(12) . . .
167(13) . . .
153(12) . . .
169(13) . . .
169(13) . . .
167(13) . . .
162(13) . . .
167(13) . . .
168(13) . . .
158(13) . . .
182(13) . . .
155(12) . . .
173(13) . . .
166(13) . . .
162(13) . . .
189(14) . . .
167(13) . . .
167(13) . . .
163(13) . . .
163(13) . . .
173(13) . . .
189(14) . . .
192(14) . . .
167(13) . . .
173(13) . . .
182(13) . . .
157(13) . . .
180(13) . . .
182(13) . . .
167(13) . . .
166(13) . . .
178(13) . . .
176(13) . . .
172(13) . . .
167(13) . . .
167(13) . . .
157(13) . . .
161(13) . . .
163(13) . . .
164(13) . . .
192(14) . . .
166(13) . . .
169(13) . . .
170(13) . . .
168(13) . . .
165(13) . . .
148(12) . . .
179(13) . . .
178(13) . . .
145(12) . . .
168(13) . . .
163(13) . . .
166(13) . . .
166(13) . . .
158(13) . . .
166(13) . . .
183(14) . . .
162(13) . . .
176(13) . . .
177(13) . . .
167(13) . . .
183(14) . . .
174(13) . . .
187(14) . . .
162(13) . . .
155(12) . . .
157(13) . . .
168(13) . . .
168(13) . . .
162(13) . . .
175(13) . . .
177(13) . . .
176(13) . . .
154(12) . . .
159(13) . . .
164(13) . . .
160(13) . . .
165(13) . . .
186(14) . . .
165(13) . . .
160(13) . . .
158(13) . . .
173(13) . . .
166(13) . . .
160(13) . . .
179(13) . . .
164(13) . . .
171(13) . . .
193(14) . . .
160(13) . . .
162(13) . . .
169(13) . . .
192(14) . . .
151(12) . . .
183(14) . . .
188(14) . . .
179(13) . . .
172(13) . . .
158(13) . . .
169(13) . . .
150(12) . . .
150(12) . . .
159(13) . . .
165(13) . . .
161(13) . . .
159(13) . . .
155(12) . . .
176(13) . . .
176(13) . . .
179(13) . . .
179(13) . . .
163(13) . . .
164(13) . . .
179(13) . . .
159(13) . . .
165(13) . . .
184(14) . . .
166(13) . . .
180(13) . . .
172(13) . . .
173(13) . . .
147(12) . . .
171(13) . . .
170(13) . . .
156(12) . . .
170(13) . . .
179(13) . . .
161(13) . . .
168(13) . . .
185(14) . . .
173(13) . . .
163(13) . . .
159(13) . . .
140(12) . . .
166(13) . . .
177(13) . . .
171(13) . . .
155(12) . . .
177(13) . . .
175(13) . . .
144(12) . . .
185(14) . . .
164(13) . . .
160(13) . . .
145(12) . . .
145(12) . . .
178(13) . . .
162(13) . . .
160(13) . . .
176(13) . . .
183(14) . . .
166(13) . . .
147(12) . . .
182(13) . . .
169(13) . . .
169(13) . . .
175(13) . . .
161(13) . . .
165(13) . . .
181(13) . . .
154(12) . . .
161(13) . . .
185(14) . . .
187(14) . . .
183(14) . . .
180(13) . . .
173(13) . . .
166(13) . . .
146(12) . . .
149(12) . . .
183(14) . . .
154(12) . . .
151(12) . . .
174(13) . . .
168(13) . . .
167(13) . . .
139(12) . . .
164(13) . . .
173(13) . . .
168(13) . . .
163(13) . . .
160(13) . . .
156(12) . . .
160(13) . . .
145(12) . . .
169(13) . . .
154(12) . . .
162(13) . . .
168(13) . . .
149(12) . . .
167(13) . . .
162(13) . . .
208(14) . . .
165(13) . . .
165(13) . . .
153(12) . . .
173(13) . . .
161(13) . . .
166(13) . . .
169(13) . . .
164(13) . . .
174(13) . . .
178(13) . . .
179(13) . . .
169(13) . . .
168(13) . . .
154(12) . . .
171(13) . . .
145(12) . . .
182(13) . . .
156(12) . . .
170(13) . . .
156(12) . . .
154(12) . . .
175(13) . . .
169(13) . . .
144(12) . . .
172(13) . . .
151(12) . . .
171(13) . . .
175(13) . . .
161(13) . . .
152(12) . . .
195(14) . . .
155(12) . . .
163(13) . . .
157(13) . . .
162(13) . . .
176(13) . . .
171(13) . . .
165(13) . . .
159(13) . . .
177(13) . . .
187(14) . . .
158(13) . . .
185(14) . . .
177(13) . . .
143(12) . . .
173(13) . . .
170(13) . . .
172(13) . . .
173(13) . . .
169(13) . . .
170(13) . . .
201(14) . . .
161(13) . . .
163(13) . . .
170(13) . . .
170(13) . . .
156(12) . . .
179(13) . . .
194(14) . . .
166(13) . . .
157(13) . . .
180(13) . . .
175(13) . . .
167(13) . . .
179(13) . . .
172(13) . . .
169(13) . . .
159(13) . . .
164(13) . . .
176(13) . . .
175(13) . . .
166(13) . . .
163(13) . . .
176(13) . . .
169(13) . . .
168(13) . . .
170(13) . . .
173(13) . . .
157(13) . . .
169(13) . . .
172(13) . . .
155(12) . . .
162(13) . . .
156(12) . . .
168(13) . . .
186(14) . . .
166(13) . . .
163(13) . . .
153(12) . . .
171(13) . . .
163(13) . . .
169(13) . . .
179(13) . . .
169(13) . . .
153(12) . . .
161(13) . . .
165(13) . . .
165(13) . . .
171(13) . . .
174(13) . . .
164(13) . . .
167(13) . . .
163(13) . . .
175(13) . . .
171(13) . . .
160(13) . . .
160(13) . . .
176(13) . . .
189(14) . . .
148(12) . . .
170(13) . . .
176(13) . . .
179(13) . . .
166(13) . . .
166(13) . . .
165(13) . . .
184(14) . . .
175(13) . . .
168(13) . . .
181(13) . . .
176(13) . . .
172(13) . . .
184(14) . . .
149(12) . . .
185(14) . . .
172(13) . . .
178(13) . . .
169(13) . . .
169(13) . . .
213(15) . . .
180(13) . . .
157(13) . . .
188(14) . . .
180(13) . . .
158(13) . . .
167(13) . . .
178(13) . . .
167(13) . . .
169(13) . . .
157(13) . . .
161(13) . . .
167(13) . . .
172(13) . . .
171(13) . . .
160(13) . . .
164(13) . . .
171(13) . . .
175(13) . . .
173(13) . . .
177(13) . . .
158(13) . . .
165(13) . . .
150(12) . . .
168(13) . . .
179(13) . . .
166(13) . . .
189(14) . . .
189(14) . . .
183(14) . . .
204(14) . . .
185(14) . . .
194(14) . . .
161(13) . . .
163(13) . . .
171(13) . . .
166(13) . . .
142(12) . . .
172(13) . . .
174(13) . . .
163(13) . . .
174(13) . . .
170(13) . . .
179(13) . . .
165(13) . . .
174(13) . . .
169(13) . . .
173(13) . . .
149(12) . . .
164(13) . . .
198(14) . . .
144(12) . . .
180(13) . . .
149(12) . . .
172(13) . . .
168(13) . . .
177(13) . . .
170(13) . . .
166(13) . . .
168(13) . . .
163(13) . . .
174(13) . . .
186(14) . . .
166(13) . . .
174(13) . . .
168(13) . . .
174(13) . . .
166(13) . . .
152(12) . . .
166(13) . . .
191(14) . . .
192(14) . . .
168(13) . . .
164(13) . . .
179(13) . . .
179(13) . . .
167(13) . . .
172(13) . . .
187(14) . . .
188(14) . . .
166(13) . . .
162(13) . . .
179(13) . . .
148(12) . . .
164(13) . . .
167(13) . . .
168(13) . . .
188(14) . . .
185(14) . . .
172(13) . . .
187(14) . . .
146(12) . . .
143(12) . . .
150(12) . . .
159(13) . . .
155(12) . . .
153(12) . . .
183(14) . . .
180(13) . . .
159(13) . . .
179(13) . . .
164(13) . . .
155(12) . . .
162(13) . . .
185(14) . . .
185(14) . . .
161(13) . . .
169(13) . . .
152(12) . . .
161(13) . . .
154(12) . . .
165(13) . . .
178(13) . . .
167(13) . . .
170(13) . . .
155(12) . . .
168(13) . . .
185(14) . . .
176(13) . . .
155(12) . . .
171(13) . . .
169(13) . . .
154(12) . . .
156(12) . . .
179(13) . . .
179(13) . . .
174(13) . . .
190(14) . . .
167(13) . . .
168(13) . . .
162(13) . . .
157(13) . . .
159(13) . . .
176(13) . . .
193(14) . . .
152(12) . . .
143(12) . . .
155(12) . . .
173(13) . . .
177(13) . . .
181(13) . . .
159(13) . . .
157(13) . . .
166(13) . . .
173(13) . . .
182(13) . . .
172(13) . . .
154(12) . . .
168(13) . . .
172(13) . . .
192(14) . . .
170(13) . . .
155(12) . . .
156(12) . . .
167(13) . . .
191(14) . . .
179(13) . . .
165(13) . . .
154(12) . . .
175(13) . . .
166(13) . . .
174(13) . . .
171(13) . . .
148(12) . . .
163(13) . . .
156(12) . . .
184(14) . . .
178(13) . . .
164(13) . . .
175(13) . . .
184(14) . . .
161(13) . . .
174(13) . . .
160(13) . . .
175(13) . . .
175(13) . . .
178(13) . . .
190(14) . . .
158(13) . . .
156(12) . . .
161(13) . . .
186(14) . . .
176(13) . . .
168(13) . . .
161(13) . . .
175(13) . . .
150(12) . . .
157(13) . . .
166(13) . . .
168(13) . . .
149(12) . . .
184(14) . . .
179(13) . . .
177(13) . . .
178(13) . . .
182(13) . . .
179(13) . . .
182(13) . . .
172(13) . . .
164(13) . . .
150(12) . . .
175(13) . . .
146(12) . . .
165(13) . . .
184(14) . . .
183(14) . . .
176(13) . . .
179(13) . . .
163(13) . . .
187(14) . . .
155(12) . . .
136(12) . . .
168(13) . . .
160(13) . . .
170(13) . . .
160(13) . . .
166(13) . . .
171(13) . . .
149(12) . . .
164(13) . . .
155(12) . . .
169(13) . . .
176(13) . . .
179(13) . . .
185(14) . . .
187(14) . . .
177(13) . . .
164(13) . . .
179(13) . . .
180(13) . . .
175(13) . . .
188(14) . . .
170(13) . . .
149(12) . . .
180(13) . . .
164(13) . . .
159(13) . . .
179(13) . . .
158(13) . . .
183(14) . . .
188(14) . . .
162(13) . . .
162(13) . . .
157(13) . . .
174(13) . . .
175(13) . . .
168(13) . . .
177(13) . . .
159(13) . . .
183(14) . . .
164(13) . . .
170(13) . . .
155(12) . . .
189(14) . . .
171(13) . . .
171(13) . . .
157(13) . . .
182(13) . . .
173(13) . . .
170(13) . . .
176(13) . . .
170(13) . . .
141(12) . . .
163(13) . . .
180(13) . . .
167(13) . . .
148(12) . . .
205(14) . . .
180(13) . . .
155(12) . . .
170(13) . . .
171(13) . . .
187(14) . . .
174(13) . . .
171(13) . . .
217(15) . . .
188(14) . . .
182(13) . . .
181(13) . . .
188(14) . . .
173(13) . . .
175(13) . . .
178(13) . . .
179(13) . . .
173(13) . . .
171(13) . . .
165(13) . . .
204(14) . . .
171(13) . . .
170(13) . . .
187(14) . . .
165(13) . . .
181(13) . . .
191(14) . . .
173(13) . . .
184(14) . . .
180(13) . . .
170(13) . . .
158(13) . . .
192(14) . . .
177(13) . . .
174(13) . . .
186(14) . . .
182(13) . . .
170(13) . . .
199(14) . . .
200(14) . . .
179(13) . . .
207(14) . . .
177(13) . . .
179(13) . . .
205(14) . . .
181(13) . . .
190(14) . . .
211(15) . . .
195(14) . . .
175(13) . . .
185(14) . . .
203(14) . . .
181(13) . . .
192(14) . . .
199(14) . . .
195(14) . . .
216(15) . . .
173(13) . . .
204(14) . . .
195(14) . . .
206(14) . . .
183(14) . . .
207(14) . . .
192(14) . . .
197(14) . . .
195(14) . . .
198(14) . . .
197(14) . . .
190(14) . . .
200(14) . . .
226(15) . . .
220(15) . . .
212(15) . . .
235(15) . . .
231(15) . . .
227(15) . . .
243(16) . . .
246(16) . . .
220(15) . . .
244(16) . . .
229(15) . . .
237(15) . . .
270(16) . . .
284(17) . . .
276(17) . . .
282(17) . . .
295(17) . . .
283(17) . . .
273(17) . . .
293(17) . . .
325(18) . . .
329(18) . . .
312(18) . . .
341(18) . . .
324(18) . . .
400(20) . . .
443(21) . . .
438(21) . . .
490(22) . . .
469(22) . . .
533(23) . . .
558(24) . . .
579(24) . . .
625(25) . . .
685(26) . . .
796(28) . . .
830(29) . . .
906(30) . . .
1058(33) . . .
1105(33) . . .
1319(36) . . .
1408(38) . . .
1648(41) . . .
1826(43) . . .
1997(45) . . .
2274(48) . . .
2509(50) . . .
2697(52) . . .
3065(55) . . .
3394(58) . . .
3501(59) . . .
3735(61) . . .
3839(62) . . .
3821(62) . . .
3881(62) . . .
3778(61) . . .
3610(60) . . .
3475(59) . . .
3177(56) . . .
2845(53) . . .
2622(51) . . .
2352(48) . . .
2115(46) . . .
1826(43) . . .
1679(41) . . .
1525(39) . . .
1244(35) . . .
1169(34) . . .
1046(32) . . .
951(31) . . .
878(30) . . .
759(28) . . .
700(26) . . .
674(26) . . .
597(24) . . .
582(24) . . .
545(23) . . .
487(22) . . .
423(21) . . .
458(21) . . .
419(20) . . .
391(20) . . .
364(19) . . .
369(19) . . .
358(19) . . .
309(18) . . .
353(19) . . .
336(18) . . .
320(18) . . .
311(18) . . .
278(17) . . .
242(16) . . .
248(16) . . .
251(16) . . .
291(17) . . .
237(15) . . .
253(16) . . .
256(16) . . .
244(16) . . .
227(15) . . .
214(15) . . .
226(15) . . .
218(15) . . .
231(15) . . .
211(15) . . .
218(15) . . .
219(15) . . .
195(14) . . .
266(16) . . .
224(15) . . .
235(15) . . .
199(14) . . .
197(14) . . .
223(15) . . .
204(14) . . .
224(15) . . .
188(14) . . .
187(14) . . .
202(14) . . .
205(14) . . .
203(14) . . .
201(14) . . .
194(14) . . .
220(15) . . .
189(14) . . .
190(14) . . .
174(13) . . .
173(13) . . .
188(14) . . .
181(13) . . .
185(14) . . .
188(14) . . .
184(14) . . .
189(14) . . .
189(14) . . .
187(14) . . .
189(14) . . .
184(14) . . .
205(14) . . .
206(14) . . .
216(15) . . .
198(14) . . .
188(14) . . .
168(13) . . .
166(13) . . .
193(14) . . .
157(13) . . .
187(14) . . .
186(14) . . .
163(13) . . .
176(13) . . .
171(13) . . .
165(13) . . .
155(12) . . .
160(13) . . .
172(13) . . .
179(13) . . .
191(14) . . .
172(13) . . .
188(14) . . .
182(13) . . .
178(13) . . .
176(13) . . .
163(13) . . .
185(14) . . .
179(13) . . .
191(14) . . .
191(14) . . .
158(13) . . .
189(14) . . .
160(13) . . .
160(13) . . .
173(13) . . .
169(13) . . .
168(13) . . .
176(13) . . .
164(13) . . .
161(13) . . .
175(13) . . .
175(13) . . .
173(13) . . .
175(13) . . .
175(13) . . .
165(13) . . .
170(13) . . .
171(13) . . .
171(13) . . .
187(14) . . .
171(13) . . .
169(13) . . .
175(13) . . .
181(13) . . .
169(13) . . .
175(13) . . .
178(13) . . .
174(13) . . .
185(14) . . .
177(13) . . .
158(13) . . .
157(13) . . .
154(12) . . .
169(13) . . .
170(13) . . .
164(13) . . .
166(13) . . .
169(13) . . .
165(13) . . .
162(13) . . .
149(12) . . .
145(12) . . .
156(12) . . .
189(14) . . .
172(13) . . .
158(13) . . .
168(13) . . .
148(12) . . .
156(12) . . .
167(13) . . .
169(13) . . .
176(13) . . .
166(13) . . .
153(12) . . .
174(13) . . .
166(13) . . .
161(13) . . .
142(12) . . .
148(12) . . .
172(13) . . .
153(12) . . .
176(13) . . .
157(13) . . .
163(13) . . .
159(13) . . .
167(13) . . .
140(12) . . .
138(12) . . .
177(13) . . .
170(13) . . .
163(13) . . .
142(12) . . .
154(12) . . .
160(13) . . .
164(13) . . .
153(12) . . .
154(12) . . .
157(13) . . .
163(13) . . .
148(12) . . .
173(13) . . .
160(13) . . .
166(13) . . .
159(13) . . .
151(12) . . .
165(13) . . .
179(13) . . .
140(12) . . .
155(12) . . .
141(12) . . .
158(13) . . .
157(13) . . .
147(12) . . .
155(12) . . .
150(12) . . .
161(13) . . .
162(13) . . .
151(12) . . .
142(12) . . .
133(12) . . .
150(12) . . .
167(13) . . .
182(13) . . .
156(12) . . .
143(12) . . .
162(13) . . .
164(13) . . .
129(11) . . .
156(12) . . .
175(13) . . .
167(13) . . .
153(12) . . .
159(13) . . .
163(13) . . .
161(13) . . .
164(13) . . .
163(13) . . .
153(12) . . .
168(13) . . .
149(12) . . .
152(12) . . .
163(13) . . .
156(12) . . .
142(12) . . .
162(13) . . .
155(12) . . .
177(13) . . .
156(12) . . .
152(12) . . .
155(12) . . .
146(12) . . .
161(13) . . .
164(13) . . .
143(12) . . .
169(13) . . .
157(13) . . .
153(12) . . .
152(12) . . .
155(12) . . .
159(13) . . .
154(12) . . .
152(12) . . .
184(14) . . .
149(12) . . .
145(12) . . .
149(12) . . .
144(12) . . .
151(12) . . .
162(13) . . .
143(12) . . .
155(12) . . .
150(12) . . .
173(13) . . .
150(12) . . .
156(12) . . .
160(13) . . .
159(13) . . .
152(12) . . .
132(11) . . .
156(12) . . .
164(13) . . .
148(12) . . .
147(12) . . .
148(12) . . .
155(12) . . .
151(12) . . .
125(11) . . .
132(11) . . .
155(12) . . .
166(13) . . .
154(12) . . .
144(12) . . .
150(12) . . .
143(12) . . .
143(12) . . .
159(13) . . .
164(13) . . .
162(13) . . .
162(13) . . .
162(13) . . .
168(13) . . .
166(13) . . .
158(13) . . .
153(12) . . .
149(12) . . .
134(12) . . .
130(11) . . .
154(12) . . .
148(12) . . .
159(13) . . .
154(12) . . .
158(13) . . .
146(12) . . .
141(12) . . .
139(12) . . .
158(13) . . .
140(12) . . .
135(12) . . .
164(13) . . .
163(13) . . .
165(13) . . .
161(13) . . .
152(12) . . .
164(13) . . .
142(12) . . .
144(12) . . .
170(13) . . .
151(12) . . .
158(13) . . .
153(12) . . .
158(13) . . .
151(12) . . .
152(12) . . .
136(12) . . .
150(12) . . .
142(12) . . .
150(12) . . .
154(12) . . .
135(12) . . .
144(12) . . .
148(12) . . .
151(12) . . .
153(12) . . .
152(12) . . .
161(13) . . .
148(12) . . .
139(12) . . .
129(11) . . .
148(12) . . .
138(12) . . .
135(12) . . .
162(13) . . .
152(12) . . .
147(12) . . .
149(12) . . .
137(12) . . .
155(12) . . .
157(13) . . .
156(12) . . .
154(12) . . .
152(12) . . .
159(13) . . .
145(12) . . .
151(12) . . .
152(12) . . .
160(13) . . .
156(12) . . .
149(12) . . .
140(12) . . .
140(12) . . .
153(12) . . .
166(13) . . .
142(12) . . .
146(12) . . .
121(11) . . .
146(12) . . .
148(12) . . .
133(12) . . .
143(12) . . .
147(12) . . .
152(12) . . .
149(12) . . .
150(12) . . .
146(12) . . .
139(12) . . .
148(12) . . .
149(12) . . .
131(11) . . .
136(12) . . .
148(12) . . .
151(12) . . .
151(12) . . .
149(12) . . .
142(12) . . .
154(12) . . .
139(12) . . .
154(12) . . .
141(12) . . .
143(12) . . .
124(11) . . .
155(12) . . .
160(13) . . .
164(13) . . .
159(13) . . .
161(13) . . .
154(12) . . .
171(13) . . .
164(13) . . .
151(12) . . .
172(13) . . .
158(13) . . .
141(12) . . .
141(12) . . .
134(12) . . .
132(11) . . .
150(12) . . .
133(12) . . .
141(12) . . .
141(12) . . .
142(12) . . .
141(12) . . .
166(13) . . .
137(12) . . .
158(13) . . .
143(12) . . .
148(12) . . .
162(13) . . .
152(12) . . .
146(12) . . .
139(12) . . .
171(13) . . .
171(13) . . .
147(12) . . .
146(12) . . .
134(12) . . .
146(12) . . .
129(11) . . .
151(12) . . .
141(12) . . .
167(13) . . .
160(13) . . .
155(12) . . .
152(12) . . .
150(12) . . .
146(12) . . .
159(13) . . .
158(13) . . .
159(13) . . .
152(12) . . .
136(12) . . .
146(12) . . .
139(12) . . .
156(12) . . .
147(12) . . .
136(12) . . .
140(12) . . .
144(12) . . .
126(11) . . .
142(12) . . .
142(12) . . .
139(12) . . .
146(12) . . .
144(12) . . .
157(13) . . .
151(12) . . .
151(12) . . .
145(12) . . .
164(13) . . .
147(12) . . .
158(13) . . .
132(11) . . .
126(11) . . .
151(12) . . .
151(12) . . .
159(13) . . .
156(12) . . .
135(12) . . .
155(12) . . .
148(12) . . .
147(12) . . .
141(12) . . .
131(11) . . .
137(12) . . .
141(12) . . .
157(13) . . .
146(12) . . .
131(11) . . .
147(12) . . .
151(12) . . .
141(12) . . .
150(12) . . .
154(12) . . .
149(12) . . .
166(13) . . .
128(11) . . .
141(12) . . .
146(12) . . .
150(12) . . .
141(12) . . .
140(12) . . .
146(12) . . .
151(12) . . .
160(13) . . .
161(13) . . .
149(12) . . .
157(13) . . .
153(12) . . .
139(12) . . .
138(12) . . .
139(12) . . .
155(12) . . .
153(12) . . .
150(12) . . .
154(12) . . .
148(12) . . .
130(11) . . .
142(12) . . .
147(12) . . .
130(11) . . .
146(12) . . .
132(11) . . .
150(12) . . .
140(12) . . .
138(12) . . .
147(12) . . .
139(12) . . .
137(12) . . .
107(10) . . .
129(11) . . .
127(11) . . .
147(12) . . .
145(12) . . .
140(12) . . .
138(12) . . .
143(12) . . .
137(12) . . .
133(12) . . .
141(12) . . .
151(12) . . .
158(13) . . .
141(12) . . .
151(12) . . .
149(12) . . .
147(12) . . .
126(11) . . .
135(12) . . .
152(12) . . .
139(12) . . .
129(11) . . .
159(13) . . .
137(12) . . .
147(12) . . .
127(11) . . .
142(12) . . .
128(11) . . .
141(12) . . .
135(12) . . .
141(12) . . .
127(11) . . .
142(12) . . .
150(12) . . .
134(12) . . .
143(12) . . .
137(12) . . .
131(11) . . .
154(12) . . .
146(12) . . .
143(12) . . .
132(11) . . .
152(12) . . .
160(13) . . .
153(12) . . .
141(12) . . .
136(12) . . .
141(12) . . .
150(12) . . .
148(12) . . .
136(12) . . .
140(12) . . .
154(12) . . .
129(11) . . .
143(12) . . .
142(12) . . .
137(12) . . .
138(12) . . .
156(12) . . .
140(12) . . .
155(12) . . .
145(12) . . .
145(12) . . .
137(12) . . .
158(13) . . .
139(12) . . .
143(12) . . .
137(12) . . .
141(12) . . .
150(12) . . .
141(12) . . .
149(12) . . .
135(12) . . .
153(12) . . .
162(13) . . .
152(12) . . .
147(12) . . .
124(11) . . .
135(12) . . .
137(12) . . .
141(12) . . .
141(12) . . .
147(12) . . .
122(11) . . .
146(12) . . .
133(12) . . .
131(11) . . .
139(12) . . .
157(13) . . .
132(11) . . .
132(11) . . .
150(12) . . .
154(12) . . .
140(12) . . .
148(12) . . .
152(12) . . .
144(12) . . .
119(11) . . .
149(12) . . .
145(12) . . .
137(12) . . .
136(12) . . .
149(12) . . .
141(12) . . .
129(11) . . .
137(12) . . .
141(12) . . .
149(12) . . .
138(12) . . .
182(13) . . .
132(11) . . .
141(12) . . .
139(12) . . .
156(12) . . .
152(12) . . .
153(12) . . .
152(12) . . .
154(12) . . .
143(12) . . .
137(12) . . .
155(12) . . .
133(12) . . .
136(12) . . .
147(12) . . .
139(12) . . .
143(12) . . .
152(12) . . .
125(11) . . .
130(11) . . .
146(12) . . .
146(12) . . .
143(12) . . .
151(12) . . .
139(12) . . .
161(13) . . .
137(12) . . .
139(12) . . .
152(12) . . .
150(12) . . .
132(11) . . .
155(12) . . .
165(13) . . .
129(11) . . .
161(13) . . .
140(12) . . .
155(12) . . .
172(13) . . .
146(12) . . .
165(13) . . .
143(12) . . .
148(12) . . .
157(13) . . .
150(12) . . .
150(12) . . .
129(11) . . .
133(12) . . .
153(12) . . .
153(12) . . .
150(12) . . .
144(12) . . .
158(13) . . .
162(13) . . .
148(12) . . .
151(12) . . .
138(12) . . .
135(12) . . .
150(12) . . .
157(13) . . .
154(12) . . .
131(11) . . .
149(12) . . .
148(12) . . .
136(12) . . .
141(12) . . .
145(12) . . .
144(12) . . .
136(12) . . .
147(12) . . .
149(12) . . .
135(12) . . .
147(12) . . .
159(13) . . .
122(11) . . .
150(12) . . .
152(12) . . .
147(12) . . .
151(12) . . .
138(12) . . .
137(12) . . .
136(12) . . .
145(12) . . .
154(12) . . .
136(12) . . .
156(12) . . .
135(12) . . .
133(12) . . .
162(13) . . .
155(12) . . .
138(12) . . .
149(12) . . .
162(13) . . .
146(12) . . .
150(12) . . .
151(12) . . .
149(12) . . .
142(12) . . .
140(12) . . .
127(11) . . .
137(12) . . .
146(12) . . .
150(12) . . .
169(13) . . .
143(12) . . .
148(12) . . .
143(12) . . .
156(12) . . .
128(11) . . .
162(13) . . .
150(12) . . .
145(12) . . .
149(12) . . .
145(12) . . .
156(12) . . .
145(12) . . .
146(12) . . .
184(14) . . .
157(13) . . .
150(12) . . .
151(12) . . .
140(12) . . .
130(11) . . .
141(12) . . .
130(11) . . .
123(11) . . .
145(12) . . .
162(13) . . .
146(12) . . .
141(12) . . .
159(13) . . .
151(12) . . .
156(12) . . .
158(13) . . .
142(12) . . .
141(12) . . .
162(13) . . .
146(12) . . .
153(12) . . .
146(12) . . .
146(12) . . .
143(12) . . .
149(12) . . .
148(12) . . .
183(14) . . .
151(12) . . .
163(13) . . .
150(12) . . .
130(11) . . .
141(12) . . .
136(12) . . .
151(12) . . .
133(12) . . .
149(12) . . .
144(12) . . .
165(13) . . .
161(13) . . .
130(11) . . .
149(12) . . .
155(12) . . .
172(13) . . .
156(12) . . .
149(12) . . .
149(12) . . .
162(13) . . .
138(12) . . .
168(13) . . .
140(12) . . .
154(12) . . .
175(13) . . .
162(13) . . .
146(12) . . .
145(12) . . .
161(13) . . .
164(13) . . .
157(13) . . .
153(12) . . .
152(12) . . .
129(11) . . .
135(12) . . .
151(12) . . .
170(13) . . .
152(12) . . .
159(13) . . .
154(12) . . .
151(12) . . .
152(12) . . .
145(12) . . .
140(12) . . .
139(12) . . .
152(12) . . .
152(12) . . .
166(13) . . .
156(12) . . .
153(12) . . .
152(12) . . .
167(13) . . .
162(13) . . .
157(13) . . .
155(12) . . .
162(13) . . .
153(12) . . .
165(13) . . .
174(13) . . .
161(13) . . .
148(12) . . .
159(13) . . .
155(12) . . .
153(12) . . .
169(13) . . .
166(13) . . .
189(14) . . .
164(13) . . .
159(13) . . .
170(13) . . .
162(13) . . .
177(13) . . .
173(13) . . .
170(13) . . .
168(13) . . .
179(13) . . .
154(12) . . .
166(13) . . .
172(13) . . .
183(14) . . .
164(13) . . .
175(13) . . .
188(14) . . .
188(14) . . .
166(13) . . .
172(13) . . .
180(13) . . .
200(14) . . .
192(14) . . .
205(14) . . .
219(15) . . .
220(15) . . .
182(13) . . .
204(14) . . .
219(15) . . .
203(14) . . .
226(15) . . .
225(15) . . .
216(15) . . .
249(16) . . .
231(15) . . .
248(16) . . .
262(16) . . .
258(16) . . .
284(17) . . .
299(17) . . .
319(18) . . .
310(18) . . .
344(19) . . .
337(18) . . .
377(19) . . .
361(19) . . .
426(21) . . .
407(20) . . .
423(21) . . .
444(21) . . .
519(23) . . .
495(22) . . .
573(24) . . .
647(25) . . .
673(26) . . .
710(27) . . .
839(29) . . .
879(30) . . .
913(30) . . .
1014(32) . . .
1087(33) . . .
1247(35) . . .
1385(37) . . .
1503(39) . . .
1651(41) . . .
1730(42) . . .
1884(43) . . .
1955(44) . . .
2017(45) . . .
2078(46) . . .
2069(45) . . .
2069(45) . . .
1956(44) . . .
1876(43) . . .
1802(42) . . .
1729(42) . . .
1592(40) . . .
1384(37) . . .
1278(36) . . .
1161(34) . . .
1079(33) . . .
960(31) . . .
887(30) . . .
733(27) . . .
724(27) . . .
659(26) . . .
617(25) . . .
558(24) . . .
480(22) . . .
466(22) . . .
438(21) . . .
411(20) . . .
391(20) . . .
339(18) . . .
354(19) . . .
355(19) . . .
323(18) . . .
345(19) . . .
260(16) . . .
267(16) . . .
275(17) . . .
249(16) . . .
254(16) . . .
244(16) . . .
247(16) . . .
221(15) . . .
243(16) . . .
211(15) . . .
268(16) . . .
223(15) . . .
214(15) . . .
201(14) . . .
192(14) . . .
204(14) . . .
214(15) . . .
182(13) . . .
198(14) . . .
193(14) . . .
188(14) . . .
191(14) . . .
176(13) . . .
187(14) . . .
186(14) . . .
176(13) . . .
174(13) . . .
167(13) . . .
168(13) . . .
174(13) . . .
192(14) . . .
161(13) . . .
156(12) . . .
162(13) . . .
162(13) . . .
164(13) . . .
169(13) . . .
163(13) . . .
185(14) . . .
141(12) . . .
151(12) . . .
162(13) . . .
167(13) . . .
173(13) . . .
150(12) . . .
160(13) . . .
160(13) . . .
162(13) . . .
148(12) . . .
154(12) . . .
156(12) . . .
147(12) . . .
169(13) . . .
146(12) . . .
140(12) . . .
152(12) . . .
162(13) . . .
152(12) . . .
158(13) . . .
141(12) . . .
147(12) . . .
152(12) . . .
151(12) . . .
150(12) . . .
167(13) . . .
161(13) . . .
172(13) . . .
164(13) . . .
174(13) . . .
156(12) . . .
143(12) . . .
155(12) . . .
159(13) . . .
179(13) . . .
148(12) . . .
163(13) . . .
137(12) . . .
134(12) . . .
159(13) . . .
140(12) . . .
149(12) . . .
130(11) . . .
137(12) . . .
144(12) . . .
155(12) . . .
139(12) . . .
150(12) . . .
154(12) . . .
143(12) . . .
147(12) . . .
156(12) . . .
143(12) . . .
152(12) . . .
149(12) . . .
157(13) . . .
167(13) . . .
134(12) . . .
127(11) . . .
130(11) . . .
144(12) . . .
148(12) . . .
139(12) . . .
147(12) . . .
158(13) . . .
143(12) . . .
119(11) . . .
147(12) . . .
144(12) . . .
163(13) . . .
146(12) . . .
136(12) . . .
150(12) . . .
159(13) . . .
146(12) . . .
126(11) . . .
131(11) . . .
159(13) . . .
149(12) . . .
140(12) . . .
156(12) . . .
150(12) . . .
137(12) . . .
126(11) . . .
141(12) . . .
145(12) . . .
147(12) . . .
135(12) . . .
139(12) . . .
143(12) . . .
155(12) . . .
146(12) . . .
153(12) . . .
149(12) . . .
143(12) . . .
149(12) . . .
132(11) . . .
135(12) . . .
149(12) . . .
127(11) . . .
140(12) . . .
151(12) . . .
140(12) . . .
145(12) . . .
164(13) . . .
145(12) . . .
148(12) . . .
147(12) . . .
156(12) . . .
162(13) . . .
140(12) . . .
136(12) . . .
140(12) . . .
159(13) . . .
153(12) . . .
143(12) . . .
158(13) . . .
189(14) . . .
183(14) . . .
155(12) . . .
169(13) . . .
157(13) . . .
153(12) . . .
125(11) . . .
147(12) . . .
145(12) . . .
137(12) . . .
149(12) . . .
162(13) . . .
145(12) . . .
147(12) . . .
147(12) . . .
133(12) . . .
170(13) . . .
161(13) . . .
126(11) . . .
137(12) . . .
154(12) . . .
149(12) . . .
157(13) . . .
158(13) . . .
150(12) . . .
147(12) . . .
144(12) . . .
139(12) . . .
149(12) . . .
155(12) . . .
147(12) . . .
157(13) . . .
158(13) . . .
151(12) . . .
149(12) . . .
147(12) . . .
138(12) . . .
151(12) . . .
153(12) . . .
158(13) . . .
158(13) . . .
140(12) . . .
165(13) . . .
154(12) . . .
153(12) . . .
144(12) . . .
154(12) . . .
160(13) . . .
156(12) . . .
161(13) . . .
163(13) . . .
143(12) . . .
163(13) . . .
148(12) . . .
166(13) . . .
172(13) . . .
143(12) . . .
159(13) . . .
177(13) . . .
173(13) . . .
167(13) . . .
158(13) . . .
193(14) . . .
209(14) . . .
168(13) . . .
184(14) . . .
183(14) . . .
199(14) . . .
164(13) . . .
196(14) . . .
182(13) . . .
198(14) . . .
199(14) . . .
219(15) . . .
224(15) . . .
207(14) . . .
188(14) . . .
202(14) . . .
209(14) . . .
218(15) . . .
190(14) . . .
187(14) . . .
215(15) . . .
235(15) . . .
227(15) . . .
245(16) . . .
239(15) . . .
252(16) . . .
278(17) . . .
228(15) . . .
274(17) . . .
272(16) . . .
293(17) . . .
319(18) . . .
324(18) . . .
365(19) . . .
376(19) . . .
424(21) . . .
398(20) . . .
500(22) . . .
486(22) . . .
505(22) . . .
585(24) . . .
623(25) . . .
701(26) . . .
773(28) . . .
819(29) . . .
971(31) . . .
1044(32) . . .
1106(33) . . .
1210(35) . . .
1284(36) . . .
1394(37) . . .
1413(38) . . .
1555(39) . . .
1575(40) . . .
1527(39) . . .
1600(40) . . .
1516(39) . . .
1506(39) . . .
1445(38) . . .
1384(37) . . .
1272(36) . . .
1188(34) . . .
1052(32) . . .
975(31) . . .
859(29) . . .
807(28) . . .
730(27) . . .
657(26) . . .
619(25) . . .
562(24) . . .
513(23) . . .
502(22) . . .
455(21) . . .
418(20) . . .
390(20) . . .
390(20) . . .
333(18) . . .
350(19) . . .
310(18) . . .
312(18) . . .
286(17) . . .
275(17) . . .
253(16) . . .
282(17) . . .
236(15) . . .
246(16) . . .
220(15) . . .
233(15) . . .
230(15) . . .
228(15) . . .
218(15) . . .
221(15) . . .
206(14) . . .
196(14) . . .
177(13) . . .
198(14) . . .
184(14) . . .
179(13) . . .
191(14) . . .
164(13) . . .
174(13) . . .
170(13) . . .
178(13) . . .
176(13) . . .
172(13) . . .
181(13) . . .
156(12) . . .
150(12) . . .
157(13) . . .
151(12) . . .
161(13) . . .
158(13) . . .
146(12) . . .
158(13) . . .
165(13) . . .
163(13) . . .
152(12) . . .
159(13) . . .
166(13) . . .
159(13) . . .
137(12) . . .
145(12) . . .
152(12) . . .
143(12) . . .
151(12) . . .
163(13) . . .
145(12) . . .
156(12) . . .
140(12) . . .
138(12) . . .
153(12) . . .
139(12) . . .
134(12) . . .
131(11) . . .
155(12) . . .
156(12) . . .
146(12) . . .
147(12) . . .
139(12) . . .
152(12) . . .
146(12) . . .
131(11) . . .
151(12) . . .
134(12) . . .
149(12) . . .
158(13) . . .
127(11) . . .
130(11) . . .
129(11) . . .
153(12) . . .
153(12) . . .
161(13) . . .
139(12) . . .
149(12) . . .
136(12) . . .
187(14) . . .
126(11) . . .
173(13) . . .
151(12) . . .
139(12) . . .
140(12) . . .
126(11) . . .
129(11) . . .
147(12) . . .
155(12) . . .
141(12) . . .
115(11) . . .
128(11) . . .
120(11) . . .
154(12) . . .
139(12) . . .
159(13) . . .
125(11) . . .
135(12) . . .
148(12) . . .
137(12) . . .
145(12) . . .
151(12) . . .
152(12) . . .
142(12) . . .
119(11) . . .
126(11) . . .
138(12) . . .
125(11) . . .
136(12) . . .
136(12) . . .
145(12) . . .
135(12) . . .
135(12) . . .
134(12) . . .
147(12) . . .
122(11) . . .
130(11) . . .
140(12) . . .
131(11) . . .
141(12) . . .
136(12) . . .
138(12) . . .
127(11) . . .
162(13) . . .
143(12) . . .
138(12) . . .
133(12) . . .
137(12) . . .
128(11) . . .
133(12) . . .
139(12) . . .
112(11) . . .
127(11) . . .
137(12) . . .
130(11) . . .
127(11) . . .
136(12) . . .
125(11) . . .
126(11) . . .
138(12) . . .
145(12) . . .
146(12) . . .
123(11) . . .
150(12) . . .
127(11) . . .
115(11) . . .
161(13) . . .
137(12) . . .
136(12) . . .
129(11) . . .
152(12) . . .
126(11) . . .
132(11) . . .
136(12) . . .
121(11) . . .
116(11) . . .
144(12) . . .
126(11) . . .
141(12) . . .
162(13) . . .
121(11) . . .
128(11) . . .
140(12) . . .
143(12) . . .
131(11) . . .
131(11) . . .
106(10) . . .
111(11) . . .
137(12) . . .
152(12) . . .
136(12) . . .
131(11) . . .
127(11) . . .
133(12) . . .
145(12) . . .
139(12) . . .
149(12) . . .
131(11) . . .
152(12) . . .
131(11) . . .
129(11) . . .
113(11) . . .
144(12) . . .
126(11) . . .
140(12) . . .
129(11) . . .
166(13) . . .
146(12) . . .
141(12) . . .
123(11) . . .
135(12) . . .
146(12) . . .
120(11) . . .
131(11) . . .
130(11) . . .
122(11) . . .
134(12) . . .
131(11) . . .
133(12) . . .
135(12) . . .
148(12) . . .
142(12) . . .
136(12) . . .
133(12) . . .
113(11) . . .
140(12) . . .
116(11) . . .
124(11) . . .
139(12) . . .
135(12) . . .
134(12) . . .
140(12) . . .
130(11) . . .
128(11) . . .
135(12) . . .
133(12) . . .
155(12) . . .
141(12) . . .
126(11) . . .
132(11) . . .
130(11) . . .
143(12) . . .
140(12) . . .
141(12) . . .
129(11) . . .
149(12) . . .
131(11) . . .
116(11) . . .
156(12) . . .
141(12) . . .
133(12) . . .
141(12) . . .
124(11) . . .
135(12) . . .
137(12) . . .
135(12) . . .
124(11) . . .
118(11) . . .
128(11) . . .
114(11) . . .
146(12) . . .
126(11) . . .
149(12) . . .
126(11) . . .
137(12) . . .
129(11) . . .
156(12) . . .
131(11) . . .
136(12) . . .
131(11) . . .
122(11) . . .
160(13) . . .
139(12) . . .
129(11) . . .
138(12) . . .
132(11) . . .
122(11) . . .
127(11) . . .
126(11) . . .
148(12) . . .
145(12) . . .
138(12) . . .
138(12) . . .
150(12) . . .
139(12) . . .
134(12) . . .
137(12) . . .
132(11) . . .
142(12) . . .
129(11) . . .
134(12) . . .
118(11) . . .
131(11) . . .
121(11) . . .
137(12) . . .
144(12) . . .
137(12) . . .
146(12) . . .
130(11) . . .
147(12) . . .
136(12) . . .
133(12) . . .
126(11) . . .
145(12) . . .
131(11) . . .
132(11) . . .
150(12) . . .
131(11) . . .
135(12) . . .
129(11) . . .
150(12) . . .
128(11) . . .
120(11) . . .
115(11) . . .
144(12) . . .
119(11) . . .
128(11) . . .
139(12) . . .
123(11) . . .
134(12) . . .
133(12) . . .
129(11) . . .
121(11) . . .
131(11) . . .
138(12) . . .
135(12) . . .
141(12) . . .
125(11) . . .
140(12) . . .
140(12) . . .
127(11) . . .
129(11) . . .
139(12) . . .
155(12) . . .
155(12) . . .
158(13) . . .
123(11) . . .
173(13) . . .
130(11) . . .
118(11) . . .
116(11) . . .
150(12) . . .
133(12) . . .
126(11) . . .
129(11) . . .
126(11) . . .
131(11) . . .
143(12) . . .
152(12) . . .
157(13) . . .
124(11) . . .
130(11) . . .
138(12) . . .
130(11) . . .
117(11) . . .
142(12) . . .
137(12) . . .
136(12) . . .
138(12) . . .
130(11) . . .
119(11) . . .
133(12) . . .
138(12) . . .
138(12) . . .
142(12) . . .
147(12) . . .
136(12) . . .
137(12) . . .
121(11) . . .
139(12) . . .
131(11) . . .
125(11) . . .
121(11) . . .
136(12) . . .
131(11) . . .
135(12) . . .
143(12) . . .
147(12) . . .
130(11) . . .
137(12) . . .
122(11) . . .
99(10) . . .
138(12) . . .
117(11) . . .
133(12) . . .
134(12) . . .
133(12) . . .
127(11) . . .
139(12) . . .
127(11) . . .
117(11) . . .
130(11) . . .
124(11) . . .
134(12) . . .
128(11) . . .
124(11) . . .
134(12) . . .
145(12) . . .
138(12) . . .
147(12) . . .
126(11) . . .
115(11) . . .
124(11) . . .
120(11) . . .
133(12) . . .
131(11) . . .
122(11) . . .
139(12) . . .
120(11) . . .
120(11) . . .
121(11) . . .
114(11) . . .
112(11) . . .
148(12) . . .
133(12) . . .
137(12) . . .
133(12) . . .
135(12) . . .
116(11) . . .
125(11) . . .
117(11) . . .
128(11) . . .
118(11) . . .
132(11) . . .
114(11) . . .
121(11) . . .
145(12) . . .
117(11) . . .
135(12) . . .
132(11) . . .
119(11) . . .
140(12) . . .
117(11) . . .
132(11) . . .
130(11) . . .
142(12) . . .
136(12) . . .
128(11) . . .
131(11) . . .
140(12) . . .
127(11) . . .
135(12) . . .
126(11) . . .
126(11) . . .
127(11) . . .
129(11) . . .
125(11) . . .
133(12) . . .
119(11) . . .
137(12) . . .
128(11) . . .
133(12) . . .
127(11) . . .
113(11) . . .
119(11) . . .
131(11) . . .
141(12) . . .
130(11) . . .
122(11) . . .
126(11) . . .
122(11) . . .
124(11) . . .
110(10) . . .
135(12) . . .
124(11) . . .
103(10) . . .
123(11) . . .
130(11) . . .
137(12) . . .
133(12) . . .
122(11) . . .
126(11) . . .
126(11) . . .
137(12) . . .
119(11) . . .
125(11) . . .
132(11) . . .
135(12) . . .
121(11) . . .
133(12) . . .
110(10) . . .
129(11) . . .
126(11) . . .
117(11) . . .
126(11) . . .
113(11) . . .
120(11) . . .
134(12) . . .
121(11) . . .
138(12) . . .
127(11) . . .
127(11) . . .
131(11) . . .
128(11) . . .
148(12) . . .
131(11) . . .
135(12) . . .
119(11) . . .
136(12) . . .
118(11) . . .
134(12) . . .
150(12) . . .
108(10) . . .
123(11) . . .
137(12) . . .
128(11) . . .
125(11) . . .
146(12) . . .
129(11) . . .
131(11) . . .
128(11) . . .
119(11) . . .
120(11) . . .
114(11) . . .
132(11) . . .
128(11) . . .
137(12) . . .
128(11) . . .
117(11) . . .
125(11) . . .
140(12) . . .
133(12) . . .
133(12) . . .
110(10) . . .
109(10) . . .
119(11) . . .
139(12) . . .
132(11) . . .
135(12) . . .
127(11) . . .
124(11) . . .
139(12) . . .
132(11) . . .
118(11) . . .
127(11) . . .
115(11) . . .
127(11) . . .
128(11) . . .
125(11) . . .
136(12) . . .
133(12) . . .
136(12) . . .
129(11) . . .
113(11) . . .
120(11) . . .
125(11) . . .
115(11) . . .
133(12) . . .
130(11) . . .
120(11) . . .
128(11) . . .
113(11) . . .
113(11) . . .
142(12) . . .
132(11) . . .
125(11) . . .
141(12) . . .
133(12) . . .
123(11) . . .
113(11) . . .
137(12) . . .
140(12) . . .
142(12) . . .
123(11) . . .
140(12) . . .
134(12) . . .
127(11) . . .
138(12) . . .
129(11) . . .
126(11) . . .
128(11) . . .
125(11) . . .
112(11) . . .
148(12) . . .
135(12) . . .
139(12) . . .
115(11) . . .
126(11) . . .
133(12) . . .
149(12) . . .
150(12) . . .
144(12) . . .
141(12) . . .
133(12) . . .
136(12) . . .
125(11) . . .
132(11) . . .
115(11) . . .
149(12) . . .
146(12) . . .
122(11) . . .
142(12) . . .
126(11) . . .
129(11) . . .
144(12) . . .
127(11) . . .
126(11) . . .
117(11) . . .
138(12) . . .
142(12) . . .
138(12) . . .
135(12) . . .
118(11) . . .
140(12) . . .
131(11) . . .
129(11) . . .
137(12) . . .
116(11) . . .
123(11) . . .
125(11) . . .
126(11) . . .
128(11) . . .
136(12) . . .
137(12) . . .
133(12) . . .
122(11) . . .
133(12) . . .
132(11) . . .
115(11) . . .
129(11) . . .
125(11) . . .
137(12) . . .
110(10) . . .
139(12) . . .
128(11) . . .
123(11) . . .
136(12) . . .
137(12) . . .
139(12) . . .
120(11) . . .
139(12) . . .
114(11) . . .
168(13) . . .
125(11) . . .
103(10) . . .
135(12) . . .
128(11) . . .
120(11) . . .
136(12) . . .
140(12) . . .
122(11) . . .
127(11) . . .
117(11) . . .
122(11) . . .
139(12) . . .
136(12) . . .
124(11) . . .
141(12) . . .
120(11) . . .
129(11) . . .
115(11) . . .
135(12) . . .
137(12) . . .
104(10) . . .
123(11) . . .
111(11) . . .
140(12) . . .
126(11) . . .
142(12) . . .
127(11) . . .
107(10) . . .
139(12) . . .
121(11) . . .
122(11) . . .
126(11) . . .
124(11) . . .
147(12) . . .
138(12) . . .
130(11) . . .
140(12) . . .
128(11) . . .
119(11) . . .
131(11) . . .
131(11) . . .
131(11) . . .
127(11) . . .
125(11) . . .
131(11) . . .
132(11) . . .
126(11) . . .
133(12) . . .
120(11) . . .
137(12) . . .
110(10) . . .
117(11) . . .
134(12) . . .
120(11) . . .
118(11) . . .
153(12) . . .
121(11) . . .
121(11) . . .
130(11) . . .
126(11) . . .
127(11) . . .
134(12) . . .
135(12) . . .
124(11) . . .
113(11) . . .
136(12) . . .
127(11) . . .
126(11) . . .
129(11) . . .
133(12) . . .
117(11) . . .
112(11) . . .
148(12) . . .
107(10) . . .
125(11) . . .
140(12) . . .
136(12) . . .
106(10) . . .
130(11) . . .
112(11) . . .
142(12) . . .
111(11) . . .
117(11) . . .
111(11) . . .
129(11) . . .
112(11) . . .
125(11) . . .
121(11) . . .
125(11) . . .
125(11) . . .
112(11) . . .
128(11) . . .
112(11) . . .
128(11) . . .
135(12) . . .
135(12) . . .
131(11) . . .
143(12) . . .
118(11) . . .
115(11) . . .
133(12) . . .
122(11) . . .
117(11) . . .
129(11) . . .
134(12) . . .
125(11) . . .
121(11) . . .
109(10) . . .
139(12) . . .
133(12) . . .
140(12) . . .
123(11) . . .
127(11) . . .
126(11) . . .
120(11) . . .
112(11) . . .
141(12) . . .
139(12) . . .
121(11) . . .
146(12) . . .
128(11) . . .
122(11) . . .
135(12) . . .
127(11) . . .
134(12) . . .
105(10) . . .
135(12) . . .
144(12) . . .
126(11) . . .
123(11) . . .
133(12) . . .
136(12) . . .
136(12) . . .
138(12) . . .
137(12) . . .
118(11) . . .
116(11) . . .
146(12) . . .
129(11) . . .
139(12) . . .
126(11) . . .
141(12) . . .
132(11) . . .
139(12) . . .
118(11) . . .
118(11) . . .
119(11) . . .
137(12) . . .
122(11) . . .
117(11) . . .
131(11) . . .
140(12) . . .
144(12) . . .
153(12) . . .
134(12) . . .
131(11) . . .
140(12) . . .
131(11) . . .
123(11) . . .
142(12) . . .
126(11) . . .
135(12) . . .
120(11) . . .
143(12) . . .
136(12) . . .
157(13) . . .
132(11) . . .
116(11) . . .
121(11) . . .
156(12) . . .
125(11) . . .
137(12) . . .
136(12) . . .
136(12) . . .
141(12) . . .
133(12) . . .
126(11) . . .
145(12) . . .
132(11) . . .
127(11) . . .
123(11) . . .
151(12) . . .
144(12) . . .
123(11) . . .
123(11) . . .
126(11) . . .
129(11) . . .
150(12) . . .
131(11) . . .
124(11) . . .
134(12) . . .
140(12) . . .
134(12) . . .
138(12) . . .
144(12) . . .
137(12) . . .
141(12) . . .
152(12) . . .
134(12) . . .
137(12) . . .
126(11) . . .
140(12) . . .
128(11) . . .
131(11) . . .
117(11) . . .
122(11) . . .
117(11) . . .
130(11) . . .
140(12) . . .
126(11) . . .
137(12) . . .
127(11) . . .
132(11) . . .
146(12) . . .
145(12) . . .
137(12) . . .
138(12) . . .
135(12) . . .
116(11) . . .
133(12) . . .
131(11) . . .
124(11) . . .
129(11) . . .
145(12) . . .
129(11) . . .
129(11) . . .
152(12) . . .
117(11) . . .
130(11) . . .
143(12) . . .
127(11) . . .
123(11) . . .
116(11) . . .
133(12) . . .
158(13) . . .
141(12) . . .
156(12) . . .
141(12) . . .
127(11) . . .
145(12) . . .
147(12) . . .
138(12) . . .
140(12) . . .
117(11) . . .
120(11) . . .
141(12) . . .
151(12) . . .
114(11) . . .
118(11) . . .
147(12) . . .
149(12) . . .
125(11) . . .
127(11) . . .
139(12) . . .
132(11) . . .
142(12) . . .
123(11) . . .
150(12) . . .
135(12) . . .
130(11) . . .
145(12) . . .
138(12) . . .
131(11) . . .
122(11) . . .
129(11) . . .
111(11) . . .
126(11) . . .
139(12) . . .
135(12) . . .
151(12) . . .
128(11) . . .
134(12) . . .
149(12) . . .
120(11) . . .
123(11) . . .
136(12) . . .
139(12) . . .
142(12) . . .
128(11) . . .
140(12) . . .
125(11) . . .
136(12) . . .
143(12) . . .
130(11) . . .
127(11) . . .
122(11) . . .
136(12) . . .
119(11) . . .
142(12) . . .
130(11) . . .
121(11) . . .
159(13) . . .
151(12) . . .
134(12) . . .
135(12) . . .
131(11) . . .
140(12) . . .
152(12) . . .
132(11) . . .
119(11) . . .
137(12) . . .
124(11) . . .
124(11) . . .
147(12) . . .
116(11) . . .
145(12) . . .
142(12) . . .
142(12) . . .
119(11) . . .
136(12) . . .
116(11) . . .
104(10) . . .
133(12) . . .
120(11) . . .
116(11) . . .
139(12) . . .
135(12) . . .
121(11) . . .
129(11) . . .
134(12) . . .
135(12) . . .
131(11) . . .
124(11) . . .
128(11) . . .
145(12) . . .
132(11) . . .
136(12) . . .
132(11) . . .
145(12) . . .
144(12) . . .
123(11) . . .
135(12) . . .
131(11) . . .
134(12) . . .
114(11) . . .
124(11) . . .
105(10) . . .
122(11) . . .
155(12) . . .
131(11) . . .
139(12) . . .
105(10) . . .
134(12) . . .
116(11) . . .
116(11) . . .
113(11) . . .
147(12) . . .
141(12) . . .
120(11) . . .
118(11) . . .
126(11) . . .
124(11) . . .
139(12) . . .
131(11) . . .
134(12) . . .
125(11) . . .
111(11) . . .
108(10) . . .
115(11) . . .
128(11) . . .
130(11) . . .
116(11) . . .
138(12) . . .
134(12) . . .
139(12) . . .
138(12) . . .
131(11) . . .
127(11) . . .
129(11) . . .
131(11) . . .
140(12) . . .
137(12) . . .
136(12) . . .
139(12) . . .
139(12) . . .
138(12) . . .
131(11) . . .
135(12) . . .
128(11) . . .
126(11) . . .
142(12) . . .
143(12) . . .
117(11) . . .
130(11) . . .
126(11) . . .
115(11) . . .
132(11) . . .
146(12) . . .
138(12) . . .
134(12) . . .
132(11) . . .
120(11) . . .
133(12) . . .
149(12) . . .
134(12) . . .
123(11) . . .
137(12) . . .
137(12) . . .
142(12) . . .
114(11) . . .
126(11) . . .
141(12) . . .
146(12) . . .
139(12) . . .
121(11) . . .
121(11) . . .
115(11) . . .
114(11) . . .
134(12) . . .
125(11) . . .
123(11) . . .
142(12) . . .
146(12) . . .
133(12) . . .
152(12) . . .
131(11) . . .
117(11) . . .
133(12) . . .
132(11) . . .
123(11) . . .
137(12) . . .
133(12) . . .
132(11) . . .
123(11) . . .
132(11) . . .
137(12) . . .
122(11) . . .
143(12) . . .
140(12) . . .
147(12) . . .
133(12) . . .
123(11) . . .
122(11) . . .
125(11) . . .
142(12) . . .
137(12) . . .
121(11) . . .
128(11) . . .
122(11) . . .
121(11) . . .
112(11) . . .
120(11) . . .
134(12) . . .
135(12) . . .
119(11) . . .
151(12) . . .
117(11) . . .
133(12) . . .
128(11) . . .
142(12) . . .
121(11) . . .
131(11) . . .
124(11) . . .
119(11) . . .
118(11) . . .
125(11) . . .
125(11) . . .
123(11) . . .
149(12) . . .
123(11) . . .
145(12) . . .
136(12) . . .
146(12) . . .
123(11) . . .
133(12) . . .
142(12) . . .
133(12) . . .
138(12) . . .
127(11) . . .
109(10) . . .
131(11) . . .
125(11) . . .
151(12) . . .
130(11) . . .
140(12) . . .
142(12) . . .
129(11) . . .
129(11) . . .
126(11) . . .
121(11) . . .
133(12) . . .
136(12) . . .
137(12) . . .
119(11) . . .
121(11) . . .
141(12) . . .
132(11) . . .
146(12) . . .
138(12) . . .
120(11) . . .
118(11) . . .
125(11) . . .
141(12) . . .
134(12) . . .
124(11) . . .
127(11) . . .
107(10) . . .
111(11) . . .
129(11) . . .
132(11) . . .
129(11) . . .
128(11) . . .
137(12) . . .
116(11) . . .
152(12) . . .
136(12) . . .
121(11) . . .
126(11) . . .
126(11) . . .
136(12) . . .
137(12) . . .
132(11) . . .
122(11) . . .
122(11) . . .
135(12) . . .
134(12) . . .
127(11) . . .
137(12) . . .
135(12) . . .
130(11) . . .
142(12) . . .
141(12) . . .
128(11) . . .
120(11) . . .
132(11) . . .
144(12) . . .
151(12) . . .
151(12) . . .
131(11) . . .
133(12) . . .
140(12) . . .
137(12) . . .
139(12) . . .
134(12) . . .
125(11) . . .
111(11) . . .
145(12) . . .
134(12) . . .
125(11) . . .
155(12) . . .
131(11) . . .
133(12) . . .
144(12) . . .
138(12) . . .
140(12) . . .
138(12) . . .
129(11) . . .
137(12) . . .
159(13) . . .
148(12) . . .
159(13) . . .
150(12) . . .
153(12) . . .
158(13) . . .
166(13) . . .
159(13) . . .
163(13) . . .
178(13) . . .
170(13) . . .
181(13) . . .
160(13) . . .
219(15) . . .
199(14) . . .
218(15) . . .
232(15) . . .
242(16) . . .
254(16) . . .
247(16) . . .
260(16) . . .
267(16) . . .
262(16) . . .
257(16) . . .
275(17) . . .
269(16) . . .
243(16) . . .
214(15) . . .
221(15) . . .
226(15) . . .
206(14) . . .
194(14) . . .
179(13) . . .
199(14) . . .
171(13) . . .
166(13) . . .
179(13) . . .
150(12) . . .
151(12) . . .
153(12) . . .
139(12) . . .
159(13) . . .
162(13) . . .
138(12) . . .
135(12) . . .
117(11) . . .
141(12) . . .
145(12) . . .
153(12) . . .
124(11) . . .
145(12) . . .
140(12) . . .
134(12) . . .
135(12) . . .
145(12) . . .
142(12) . . .
129(11) . . .
148(12) . . .
133(12) . . .
133(12) . . .
134(12) . . .
146(12) . . .
132(11) . . .
136(12) . . .
128(11) . . .
118(11) . . .
123(11) . . .
131(11) . . .
125(11) . . .
125(11) . . .
113(11) . . .
123(11) . . .
116(11) . . .
115(11) . . .
116(11) . . .
142(12) . . .
112(11) . . .
123(11) . . .
132(11) . . .
125(11) . . .
112(11) . . .
135(12) . . .
125(11) . . .
135(12) . . .
119(11) . . .
115(11) . . .
131(11) . . .
131(11) . . .
134(12) . . .
121(11) . . .
136(12) . . .
122(11) . . .
119(11) . . .
132(11) . . .
130(11) . . .
115(11) . . .
131(11) . . .
129(11) . . .
116(11) . . .
135(12) . . .
115(11) . . .
111(11) . . .
142(12) . . .
116(11) . . .
131(11) . . .
120(11) . . .
119(11) . . .
127(11) . . .
137(12) . . .
126(11) . . .
128(11) . . .
119(11) . . .
112(11) . . .
137(12) . . .
136(12) . . .
116(11) . . .
127(11) . . .
132(11) . . .
136(12) . . .
107(10) . . .
133(12) . . .
115(11) . . .
126(11) . . .
129(11) . . .
129(11) . . .
143(12) . . .
135(12) . . .
127(11) . . .
113(11) . . .
135(12) . . .
128(11) . . .
139(12) . . .
123(11) . . .
118(11) . . .
127(11) . . .
122(11) . . .
127(11) . . .
131(11) . . .
142(12) . . .
139(12) . . .
115(11) . . .
121(11) . . .
116(11) . . .
107(10) . . .
111(11) . . .
135(12) . . .
124(11) . . .
115(11) . . .
132(11) . . .
101(10) . . .
123(11) . . .
134(12) . . .
148(12) . . .
144(12) . . .
104(10) . . .
117(11) . . .
132(11) . . .
126(11) . . .
142(12) . . .
123(11) . . .
123(11) . . .
138(12) . . .
141(12) . . .
137(12) . . .
111(11) . . .
133(12) . . .
126(11) . . .
124(11) . . .
129(11) . . .
126(11) . . .
125(11) . . .
132(11) . . .
116(11) . . .
120(11) . . .
126(11) . . .
134(12) . . .
126(11) . . .
129(11) . . .
120(11) . . .
140(12) . . .
133(12) . . .
120(11) . . .
121(11) . . .
136(12) . . .
123(11) . . .
138(12) . . .
132(11) . . .
113(11) . . .
111(11) . . .
128(11) . . .
132(11) . . .
133(12) . . .
120(11) . . .
115(11) . . .
115(11) . . .
113(11) . . .
145(12) . . .
113(11) . . .
121(11) . . .
128(11) . . .
117(11) . . .
119(11) . . .
130(11) . . .
138(12) . . .
145(12) . . .
131(11) . . .
122(11) . . .
132(11) . . .
128(11) . . .
116(11) . . .
123(11) . . .
121(11) . . .
150(12) . . .
122(11) . . .
148(12) . . .
118(11) . . .
145(12) . . .
138(12) . . .
135(12) . . .
120(11) . . .
133(12) . . .
125(11) . . .
127(11) . . .
127(11) . . .
140(12) . . .
129(11) . . .
139(12) . . .
134(12) . . .
144(12) . . .
116(11) . . .
117(11) . . .
130(11) . . .
134(12) . . .
133(12) . . .
151(12) . . .
127(11) . . .
124(11) . . .
137(12) . . .
133(12) . . .
123(11) . . .
142(12) . . .
131(11) . . .
140(12) . . .
145(12) . . .
127(11) . . .
120(11) . . .
115(11) . . .
132(11) . . .
138(12) . . .
117(11) . . .
138(12) . . .
132(11) . . .
133(12) . . .
129(11) . . .
132(11) . . .
139(12) . . .
120(11) . . .
118(11) . . .
127(11) . . .
133(12) . . .
144(12) . . .
134(12) . . .
119(11) . . .
124(11) . . .
125(11) . . .
127(11) . . .
126(11) . . .
146(12) . . .
139(12) . . .
130(11) . . .
125(11) . . .
134(12) . . .
130(11) . . .
130(11) . . .
140(12) . . .
135(12) . . .
149(12) . . .
130(11) . . .
129(11) . . .
137(12) . . .
132(11) . . .
122(11) . . .
135(12) . . .
131(11) . . .
115(11) . . .
123(11) . . .
133(12) . . .
133(12) . . .
122(11) . . .
122(11) . . .
145(12) . . .
133(12) . . .
124(11) . . .
115(11) . . .
130(11) . . .
124(11) . . .
130(11) . . .
140(12) . . .
158(13) . . .
135(12) . . .
131(11) . . .
129(11) . . .
140(12) . . .
122(11) . . .
129(11) . . .
118(11) . . .
128(11) . . .
127(11) . . .
118(11) . . .
139(12) . . .
130(11) . . .
135(12) . . .
125(11) . . .
113(11) . . .
124(11) . . .
152(12) . . .
126(11) . . .
125(11) . . .
124(11) . . .
135(12) . . .
135(12) . . .
129(11) . . .
146(12) . . .
135(12) . . .
142(12) . . .
129(11) . . .
132(11) . . .
121(11) . . .
131(11) . . .
134(12) . . .
128(11) . . .
138(12) . . .
128(11) . . .
123(11) . . .
141(12) . . .
124(11) . . .
140(12) . . .
133(12) . . .
147(12) . . .
133(12) . . .
113(11) . . .
133(12) . . .
125(11) . . .
137(12) . . .
130(11) . . .
131(11) . . .
127(11) . . .
136(12) . . .
158(13) . . .
139(12) . . .
118(11) . . .
136(12) . . .
146(12) . . .
147(12) . . .
145(12) . . .
138(12) . . .
142(12) . . .
142(12) . . .
137(12) . . .
130(11) . . .
129(11) . . .
123(11) . . .
122(11) . . .
126(11) . . .
118(11) . . .
126(11) . . .
143(12) . . .
130(11) . . .
119(11) . . .
149(12) . . .
136(12) . . .
142(12) . . .
144(12) . . .
142(12) . . .
144(12) . . .
125(11) . . .
135(12) . . .
131(11) . . .
139(12) . . .
138(12) . . .
127(11) . . .
118(11) . . .
121(11) . . .
127(11) . . .
128(11) . . .
124(11) . . .
136(12) . . .
142(12) . . .
150(12) . . .
123(11) . . .
137(12) . . .
129(11) . . .
127(11) . . .
138(12) . . .
137(12) . . .
120(11) . . .
138(12) . . .
139(12) . . .
133(12) . . .
138(12) . . .
136(12) . . .
134(12) . . .
134(12) . . .
153(12) . . .
129(11) . . .
126(11) . . .
140(12) . . .
122(11) . . .
110(10) . . .
116(11) . . .
116(11) . . .
127(11) . . .
128(11) . . .
128(11) . . .
131(11) . . .
134(12) . . .
137(12) . . .
120(11) . . .
129(11) . . .
141(12) . . .
124(11) . . .
123(11) . . .
135(12) . . .
133(12) . . .
128(11) . . .
136(12) . . .
128(11) . . .
125(11) . . .
136(12) . . .
116(11) . . .
146(12) . . .
131(11) . . .
140(12) . . .
139(12) . . .
125(11) . . .
115(11) . . .
129(11) . . .
122(11) . . .
143(12) . . .
138(12) . . .
129(11) . . .
131(11) . . .
140(12) . . .
125(11) . . .
145(12) . . .
123(11) . . .
126(11) . . .
120(11) . . .
143(12) . . .
133(12) . . .
135(12) . . .
144(12) . . .
151(12) . . .
137(12) . . .
152(12) . . .
135(12) . . .
149(12) . . .
124(11) . . .
135(12) . . .
141(12) . . .
123(11) . . .
131(11) . . .
116(11) . . .
144(12) . . .
152(12) . . .
120(11) . . .
141(12) . . .
141(12) . . .
139(12) . . .
142(12) . . .
141(12) . . .
147(12) . . .
117(11) . . .
122(11) . . .
129(11) . . .
136(12) . . .
131(11) . . .
149(12) . . .
126(11) . . .
142(12) . . .
146(12) . . .
144(12) . . .
146(12) . . .
122(11) . . .
132(11) . . .
119(11) . . .
125(11) . . .
136(12) . . .
146(12) . . .
151(12) . . .
136(12) . . .
137(12) . . .
125(11) . . .
135(12) . . .
133(12) . . .
150(12) . . .
147(12) . . .
131(11) . . .
145(12) . . .
137(12) . . .
128(11) . . .
153(12) . . .
139(12) . . .
143(12) . . .
128(11) . . .
133(12) . . .
132(11) . . .
152(12) . . .
139(12) . . .
116(11) . . .
131(11) . . .
125(11) . . .
130(11) . . .
133(12) . . .
150(12) . . .
135(12) . . .
144(12) . . .
129(11) . . .
131(11) . . .
99(10) . . .
147(12) . . .
132(11) . . .
149(12) . . .
133(12) . . .
133(12) . . .
140(12) . . .
137(12) . . .
121(11) . . .
128(11) . . .
128(11) . . .
124(11) . . .
114(11) . . .
129(11) . . .
134(12) . . .
142(12) . . .
133(12) . . .
122(11) . . .
149(12) . . .
125(11) . . .
128(11) . . .
126(11) . . .
123(11) . . .
149(12) . . .
117(11) . . .
142(12) . . .
122(11) . . .
137(12) . . .
147(12) . . .
135(12) . . .
131(11) . . .
127(11) . . .
131(11) . . .
133(12) . . .
155(12) . . .
131(11) . . .
129(11) . . .
145(12) . . .
139(12) . . .
136(12) . . .
141(12) . . .
144(12) . . .
130(11) . . .
121(11) . . .
148(12) . . .
134(12) . . .
136(12) . . .
135(12) . . .
138(12) . . .
146(12) . . .
124(11) . . .
119(11) . . .
138(12) . . .
136(12) . . .
137(12) . . .
130(11) . . .
142(12) . . .
138(12) . . .
138(12) . . .
123(11) . . .
129(11) . . .
147(12) . . .
136(12) . . .
129(11) . . .
147(12) . . .
135(12) . . .
141(12) . . .
144(12) . . .
126(11) . . .
124(11) . . .
128(11) . . .
136(12) . . .
144(12) . . .
129(11) . . .
158(13) . . .
150(12) . . .
132(11) . . .
135(12) . . .
138(12) . . .
140(12) . . .
148(12) . . .
155(12) . . .
154(12) . . .
131(11) . . .
131(11) . . .
139(12) . . .
154(12) . . .
166(13) . . .
133(12) . . .
143(12) . . .
139(12) . . .
142(12) . . .
122(11) . . .
141(12) . . .
158(13) . . .
138(12) . . .
138(12) . . .
136(12) . . .
130(11) . . .
142(12) . . .
128(11) . . .
124(11) . . .
134(12) . . .
133(12) . . .
134(12) . . .
138(12) . . .
141(12) . . .
139(12) . . .
134(12) . . .
145(12) . . .
136(12) . . .
128(11) . . .
145(12) . . .
162(13) . . .
124(11) . . .
125(11) . . .
134(12) . . .
145(12) . . .
144(12) . . .
137(12) . . .
143(12) . . .
152(12) . . .
142(12) . . .
147(12) . . .
149(12) . . .
143(12) . . .
141(12) . . .
147(12) . . .
145(12) . . .
157(13) . . .
156(12) . . .
166(13) . . .
148(12) . . .
154(12) . . .
153(12) . . .
167(13) . . .
144(12) . . .
150(12) . . .
151(12) . . .
152(12) . . .
142(12) . . .
150(12) . . .
154(12) . . .
144(12) . . .
141(12) . . .
135(12) . . .
140(12) . . .
152(12) . . .
159(13) . . .
123(11) . . .
141(12) . . .
164(13) . . .
130(11) . . .
131(11) . . .
134(12) . . .
139(12) . . .
131(11) . . .
149(12) . . .
147(12) . . .
138(12) . . .
150(12) . . .
147(12) . . .
155(12) . . .
155(12) . . .
151(12) . . .
144(12) . . .
132(11) . . .
152(12) . . .
139(12) . . .
128(11) . . .
134(12) . . .
131(11) . . .
140(12) . . .
131(11) . . .
156(12) . . .
143(12) . . .
143(12) . . .
139(12) . . .
144(12) . . .
135(12) . . .
131(11) . . .
139(12) . . .
159(13) . . .
151(12) . . .
138(12) . . .
144(12) . . .
147(12) . . .
137(12) . . .
145(12) . . .
164(13) . . .
153(12) . . .
150(12) . . .
147(12) . . .
153(12) . . .
166(13) . . .
134(12) . . .
167(13) . . .
140(12) . . .
139(12) . . .
137(12) . . .
155(12) . . .
126(11) . . .
151(12) . . .
158(13) . . .
144(12) . . .
138(12) . . .
146(12) . . .
161(13) . . .
148(12) . . .
143(12) . . .
146(12) . . .
154(12) . . .
154(12) . . .
147(12) . . .
161(13) . . .
139(12) . . .
136(12) . . .
154(12) . . .
139(12) . . .
134(12) . . .
159(13) . . .
167(13) . . .
156(12) . . .
139(12) . . .
144(12) . . .
147(12) . . .
144(12) . . .
157(13) . . .
153(12) . . .
148(12) . . .
145(12) . . .
154(12) . . .
134(12) . . .
162(13) . . .
150(12) . . .
159(13) . . .
130(11) . . .
138(12) . . .
151(12) . . .
170(13) . . .
147(12) . . .
141(12) . . .
152(12) . . .
153(12) . . .
143(12) . . .
149(12) . . .
159(13) . . .
160(13) . . .
149(12) . . .
143(12) . . .
155(12) . . .
157(13) . . .
162(13) . . .
153(12) . . .
141(12) . . .
143(12) . . .
151(12) . . .
145(12) . . .
155(12) . . .
159(13) . . .
147(12) . . .
177(13) . . .
165(13) . . .
166(13) . . .
165(13) . . .
143(12) . . .
169(13) . . .
159(13) . . .
164(13) . . .
159(13) . . .
149(12) . . .
149(12) . . .
155(12) . . .
177(13) . . .
168(13) . . .
160(13) . . .
162(13) . . .
183(14) . . .
172(13) . . .
151(12) . . .
174(13) . . .
166(13) . . .
147(12) . . .
154(12) . . .
166(13) . . .
151(12) . . .
164(13) . . .
167(13) . . .
157(13) . . .
149(12) . . .
188(14) . . .
157(13) . . .
162(13) . . .
164(13) . . .
172(13) . . .
181(13) . . .
168(13) . . .
163(13) . . .
162(13) . . .
169(13) . . .
152(12) . . .
154(12) . . .
173(13) . . .
175(13) . . .
156(12) . . .
172(13) . . .
166(13) . . .
185(14) . . .
153(12) . . .
171(13) . . .
161(13) . . .
174(13) . . .
176(13) . . .
173(13) . . .
179(13) . . .
184(14) . . .
187(14) . . .
179(13) . . .
170(13) . . .
183(14) . . .
208(14) . . .
184(14) . . .
189(14) . . .
202(14) . . .
202(14) . . .
180(13) . . .
182(13) . . .
204(14) . . .
189(14) . . .
207(14) . . .
177(13) . . .
213(15) . . .
222(15) . . .
216(15) . . .
199(14) . . .
198(14) . . .
192(14) . . .
208(14) . . .
241(16) . . .
213(15) . . .
201(14) . . .
231(15) . . .
214(15) . . .
227(15) . . .
246(16) . . .
233(15) . . .
236(15) . . .
228(15) . . .
248(16) . . .
248(16) . . .
250(16) . . .
260(16) . . .
276(17) . . .
278(17) . . .
283(17) . . .
281(17) . . .
276(17) . . .
279(17) . . .
307(18) . . .
304(17) . . .
316(18) . . .
327(18) . . .
329(18) . . .
338(18) . . .
357(19) . . .
346(19) . . .
405(20) . . .
402(20) . . .
409(20) . . .
459(21) . . .
453(21) . . .
451(21) . . .
472(22) . . .
481(22) . . .
531(23) . . .
540(23) . . .
601(25) . . .
627(25) . . .
617(25) . . .
699(26) . . .
736(27) . . .
808(28) . . .
829(29) . . .
869(29) . . .
986(31) . . .
1031(32) . . .
1140(34) . . .
1183(34) . . .
1325(36) . . .
1407(38) . . .
1476(38) . . .
1662(41) . . .
1817(43) . . .
2041(45) . . .
2178(47) . . .
2441(49) . . .
2651(51) . . .
2922(54) . . .
3238(57) . . .
3471(59) . . .
3789(62) . . .
3977(63) . . .
4341(66) . . .
4340(66) . . .
4581(68) . . .
4520(67) . . .
4571(68) . . .
4598(68) . . .
4424(67) . . .
4250(65) . . .
4146(64) . . .
4075(64) . . .
3710(61) . . .
3489(59) . . .
3260(57) . . .
3117(56) . . .
2672(52) . . .
2554(51) . . .
2360(49) . . .
2120(46) . . .
1873(43) . . .
1789(42) . . .
1526(39) . . .
1434(38) . . .
1280(36) . . .
1234(35) . . .
1117(33) . . .
1053(32) . . .
935(31) . . .
898(30) . . .
825(29) . . .
786(28) . . .
744(27) . . .
649(25) . . .
650(25) . . .
616(25) . . .
513(23) . . .
529(23) . . .
503(22) . . .
503(22) . . .
463(22) . . .
446(21) . . .
464(22) . . .
366(19) . . .
386(20) . . .
368(19) . . .
382(20) . . .
363(19) . . .
339(18) . . .
324(18) . . .
338(18) . . .
322(18) . . .
321(18) . . .
303(17) . . .
315(18) . . .
284(17) . . .
278(17) . . .
262(16) . . .
280(17) . . .
255(16) . . .
256(16) . . .
257(16) . . .
273(17) . . .
246(16) . . .
259(16) . . .
244(16) . . .
251(16) . . .
218(15) . . .
218(15) . . .
237(15) . . .
237(15) . . .
223(15) . . .
215(15) . . .
200(14) . . .
226(15) . . .
202(14) . . .
190(14) . . .
214(15) . . .
205(14) . . .
206(14) . . .
201(14) . . .
186(14) . . .
198(14) . . .
178(13) . . .
206(14) . . .
187(14) . . .
186(14) . . .
187(14) . . .
197(14) . . .
198(14) . . .
191(14) . . .
192(14) . . .
188(14) . . .
176(13) . . .
191(14) . . .
200(14) . . .
187(14) . . .
180(13) . . .
189(14) . . .
195(14) . . .
192(14) . . .
167(13) . . .
183(14) . . .
176(13) . . .
184(14) . . .
178(13) . . .
178(13) . . .
196(14) . . .
164(13) . . .
180(13) . . .
174(13) . . .
185(14) . . .
177(13) . . .
163(13) . . .
174(13) . . .
161(13) . . .
168(13) . . .
176(13) . . .
169(13) . . .
179(13) . . .
176(13) . . .
164(13) . . .
168(13) . . .
155(12) . . .
156(12) . . .
164(13) . . .
186(14) . . .
165(13) . . .
138(12) . . .
167(13) . . .
156(12) . . .
174(13) . . .
165(13) . . .
175(13) . . .
153(12) . . .
140(12) . . .
173(13) . . .
170(13) . . .
167(13) . . .
159(13) . . .
143(12) . . .
154(12) . . .
176(13) . . .
156(12) . . .
151(12) . . .
147(12) . . .
128(11) . . .
158(13) . . .
153(12) . . .
131(11) . . .
169(13) . . .
157(13) . . .
160(13) . . .
160(13) . . .
136(12) . . .
157(13) . . .
159(13) . . .
166(13) . . .
161(13) . . .
161(13) . . .
176(13) . . .
164(13) . . .
164(13) . . .
156(12) . . .
160(13) . . .
148(12) . . .
165(13) . . .
156(12) . . .
155(12) . . .
154(12) . . .
159(13) . . .
164(13) . . .
160(13) . . .
145(12) . . .
168(13) . . .
147(12) . . .
152(12) . . .
160(13) . . .
180(13) . . .
164(13) . . .
168(13) . . .
137(12) . . .
154(12) . . .
155(12) . . .
168(13) . . .
124(11) . . .
147(12) . . .
158(13) . . .
149(12) . . .
159(13) . . .
171(13) . . .
156(12) . . .
137(12) . . .
146(12) . . .
166(13) . . .
162(13) . . .
176(13) . . .
171(13) . . .
153(12) . . .
174(13) . . .
160(13) . . .
174(13) . . .
165(13) . . .
156(12) . . .
156(12) . . .
164(13) . . .
157(13) . . .
167(13) . . .
160(13) . . .
143(12) . . .
158(13) . . .
166(13) . . .
177(13) . . .
163(13) . . .
155(12) . . .
151(12) . . .
141(12) . . .
160(13) . . .
155(12) . . .
155(12) . . .
156(12) . . .
162(13) . . .
186(14) . . .
169(13) . . .
155(12) . . .
156(12) . . .
171(13) . . .
182(13) . . .
164(13) . . .
190(14) . . .
143(12) . . .
157(13) . . .
187(14) . . .
158(13) . . .
163(13) . . .
172(13) . . .
168(13) . . .
179(13) . . .
168(13) . . .
190(14) . . .
166(13) . . .
176(13) . . .
211(15) . . .
164(13) . . .
172(13) . . .
178(13) . . .
181(13) . . .
187(14) . . .
184(14) . . .
178(13) . . .
193(14) . . .
198(14) . . .
206(14) . . .
185(14) . . .
197(14) . . .
221(15) . . .
222(15) . . .
208(14) . . .
215(15) . . .
208(14) . . .
217(15) . . .
242(16) . . .
211(15) . . .
242(16) . . .
258(16) . . .
240(15) . . .
252(16) . . .
256(16) . . .
274(17) . . .
271(16) . . .
259(16) . . .
308(18) . . .
289(17) . . .
286(17) . . .
303(17) . . .
325(18) . . .
341(18) . . .
384(20) . . .
347(19) . . .
381(20) . . .
382(20) . . .
386(20) . . .
452(21) . . .
449(21) . . .
475(22) . . .
534(23) . . .
547(23) . . .
559(24) . . .
619(25) . . .
673(26) . . .
748(27) . . .
766(28) . . .
843(29) . . .
909(30) . . .
1009(32) . . .
1106(33) . . .
1215(35) . . .
1267(36) . . .
1425(38) . . .
1524(39) . . .
1659(41) . . .
1759(42) . . .
1916(44) . . .
1964(44) . . .
2065(45) . . .
2087(46) . . .
2130(46) . . .
2260(48) . . .
2202(47) . . .
2173(47) . . .
2117(46) . . .
2057(45) . . .
1942(44) . . .
1879(43) . . .
1731(42) . . .
1662(41) . . .
1559(39) . . .
1455(38) . . .
1301(36) . . .
1214(35) . . .
1093(33) . . .
1039(32) . . .
913(30) . . .
849(29) . . .
767(28) . . .
717(27) . . .
666(26) . . .
610(25) . . .
578(24) . . .
546(23) . . .
483(22) . . .
460(21) . . .
454(21) . . .
428(21) . . .
437(21) . . .
365(19) . . .
342(18) . . .
369(19) . . .
310(18) . . .
313(18) . . .
305(17) . . .
289(17) . . .
300(17) . . .
285(17) . . .
277(17) . . .
264(16) . . .
283(17) . . .
249(16) . . .
228(15) . . .
226(15) . . .
208(14) . . .
256(16) . . .
213(15) . . .
217(15) . . .
210(14) . . .
201(14) . . .
197(14) . . .
185(14) . . .
225(15) . . .
204(14) . . .
194(14) . . .
200(14) . . .
179(13) . . .
178(13) . . .
181(13) . . .
172(13) . . .
187(14) . . .
172(13) . . .
189(14) . . .
178(13) . . .
179(13) . . .
185(14) . . .
162(13) . . .
155(12) . . .
169(13) . . .
168(13) . . .
180(13) . . .
173(13) . . .
159(13) . . .
174(13) . . .
161(13) . . .
154(12) . . .
161(13) . . .
157(13) . . .
168(13) . . .
168(13) . . .
153(12) . . .
157(13) . . .
157(13) . . .
141(12) . . .
131(11) . . .
148(12) . . .
154(12) . . .
158(13) . . .
162(13) . . .
173(13) . . .
161(13) . . .
149(12) . . .
148(12) . . .
141(12) . . .
133(12) . . .
136(12) . . .
143(12) . . .
147(12) . . .
156(12) . . .
142(12) . . .
160(13) . . .
147(12) . . .
156(12) . . .
141(12) . . .
148(12) . . .
136(12) . . .
144(12) . . .
137(12) . . .
160(13) . . .
162(13) . . .
147(12) . . .
144(12) . . .
163(13) . . .
155(12) . . .
150(12) . . .
156(12) . . .
147(12) . . .
157(13) . . .
159(13) . . .
140(12) . . .
162(13) . . .
154(12) . . .
137(12) . . .
140(12) . . .
131(11) . . .
136(12) . . .
149(12) . . .
147(12) . . .
145(12) . . .
134(12) . . .
153(12) . . .
161(13) . . .
143(12) . . .
158(13) . . .
149(12) . . .
135(12) . . .
146(12) . . .
139(12) . . .
132(11) . . .
153(12) . . .
126(11) . . .
134(12) . . .
151(12) . . .
126(11) . . .
135(12) . . .
133(12) . . .
152(12) . . .
135(12) . . .
131(11) . . .
144(12) . . .
133(12) . . .
142(12) . . .
151(12) . . .
126(11) . . .
136(12) . . .
153(12) . . .
142(12) . . .
154(12) . . .
145(12) . . .
117(11) . . .
137(12) . . .
144(12) . . .
134(12) . . .
134(12) . . .
135(12) . . .
133(12) . . .
123(11) . . .
143(12) . . .
160(13) . . .
128(11) . . .
138(12) . . .
137(12) . . .
137(12) . . .
137(12) . . .
142(12) . . .
121(11) . . .
135(12) . . .
139(12) . . .
133(12) . . .
122(11) . . .
132(11) . . .
132(11) . . .
128(11) . . .
126(11) . . .
136(12) . . .
123(11) . . .
133(12) . . .
126(11) . . .
128(11) . . .
160(13) . . .
124(11) . . .
139(12) . . .
124(11) . . .
133(12) . . .
133(12) . . .
135(12) . . .
152(12) . . .
141(12) . . .
146(12) . . .
144(12) . . .
129(11) . . .
120(11) . . .
124(11) . . .
130(11) . . .
135(12) . . .
143(12) . . .
128(11) . . .
144(12) . . .
123(11) . . .
146(12) . . .
134(12) . . .
155(12) . . .
124(11) . . .
139(12) . . .
136(12) . . .
123(11) . . .
126(11) . . .
126(11) . . .
148(12) . . .
132(11) . . .
143(12) . . .
143(12) . . .
131(11) . . .
134(12) . . .
140(12) . . .
130(11) . . .
158(13) . . .
139(12) . . .
121(11) . . .
135(12) . . .
138(12) . . .
135(12) . . .
128(11) . . .
140(12) . . .
138(12) . . .
141(12) . . .
121(11) . . .
142(12) . . .
137(12) . . .
139(12) . . .
128(11) . . .
131(11) . . .
127(11) . . .
127(11) . . .
125(11) . . .
146(12) . . .
126(11) . . .
154(12) . . .
149(12) . . .
131(11) . . .
123(11) . . .
125(11) . . .
113(11) . . .
132(11) . . .
121(11) . . .
119(11) . . .
127(11) . . .
134(12) . . .
149(12) . . .
138(12) . . .
126(11) . . .
126(11) . . .
144(12) . . .
120(11) . . .
131(11) . . .
119(11) . . .
130(11) . . .
134(12) . . .
138(12) . . .
132(11) . . .
135(12) . . .
143(12) . . .
116(11) . . .
141(12) . . .
134(12) . . .
126(11) . . .
129(11) . . .
121(11) . . .
113(11) . . .
142(12) . . .
126(11) . . .
132(11) . . .
137(12) . . .
146(12) . . .
115(11) . . .
117(11) . . .
126(11) . . .
142(12) . . .
123(11) . . .
128(11) . . .
122(11) . . .
136(12) . . .
132(11) . . .
121(11) . . .
133(12) . . .
123(11) . . .
128(11) . . .
122(11) . . .
131(11) . . .
131(11) . . .
120(11) . . .
134(12) . . .
118(11) . . .
129(11) . . .
113(11) . . .
138(12) . . .
133(12) . . .
100(10) . . .
132(11) . . .
122(11) . . .
145(12) . . .
104(10) . . .
119(11) . . .
134(12) . . .
133(12) . . .
118(11) . . .
134(12) . . .
133(12) . . .
159(13) . . .
136(12) . . .
142(12) . . .
109(10) . . .
127(11) . . .
113(11) . . .
136(12) . . .
134(12) . . .
125(11) . . .
125(11) . . .
124(11) . . .
145(12) . . .
129(11) . . .
110(10) . . .
134(12) . . .
131(11) . . .
136(12) . . .
121(11) . . .
122(11) . . .
131(11) . . .
135(12) . . .
129(11) . . .
112(11) . . .
120(11) . . .
116(11) . . .
134(12) . . .
137(12) . . .
117(11) . . .
122(11) . . .
124(11) . . .
128(11) . . .
120(11) . . .
137(12) . . .
127(11) . . .
120(11) . . .
135(12) . . .
132(11) . . .
134(12) . . .
141(12) . . .
140(12) . . .
131(11) . . .
124(11) . . .
134(12) . . .
128(11) . . .
134(12) . . .
125(11) . . .
121(11) . . .
124(11) . . .
128(11) . . .
123(11) . . .
118(11) . . .
116(11) . . .
119(11) . . .
122(11) . . .
134(12) . . .
139(12) . . .
123(11) . . .
132(11) . . .
132(11) . . .
146(12) . . .
135(12) . . .
119(11) . . .
121(11) . . .
141(12) . . .
118(11) . . .
127(11) . . .
127(11) . . .
132(11) . . .
136(12) . . .
113(11) . . .
128(11) . . .
145(12) . . .
131(11) . . .
118(11) . . .
127(11) . . .
135(12) . . .
143(12) . . .
126(11) . . .
131(11) . . .
115(11) . . .
135(12) . . .
130(11) . . .
119(11) . . .
148(12) . . .
128(11) . . .
106(10) . . .
137(12) . . .
126(11) . . .
117(11) . . .
124(11) . . .
125(11) . . .
122(11) . . .
117(11) . . .
111(11) . . .
138(12) . . .
136(12) . . .
141(12) . . .
121(11) . . .
137(12) . . .
122(11) . . .
131(11) . . .
110(10) . . .
147(12) . . .
120(11) . . .
115(11) . . .
123(11) . . .
133(12) . . .
128(11) . . .
136(12) . . .
121(11) . . .
125(11) . . .
122(11) . . .
123(11) . . .
124(11) . . .
120(11) . . .
116(11) . . .
120(11) . . .
137(12) . . .
115(11) . . .
124(11) . . .
134(12) . . .
128(11) . . .
131(11) . . .
125(11) . . .
112(11) . . .
130(11) . . .
123(11) . . .
121(11) . . .
124(11) . . .
125(11) . . .
121(11) . . .
143(12) . . .
130(11) . . .
122(11) . . .
121(11) . . .
132(11) . . .
131(11) . . .
134(12) . . .
132(11) . . .
144(12) . . .
135(12) . . .
136(12) . . .
117(11) . . .
128(11) . . .
118(11) . . .
115(11) . . .
107(10) . . .
130(11) . . .
115(11) . . .
115(11) . . .
134(12) . . .
120(11) . . .
127(11) . . .
131(11) . . .
113(11) . . .
113(11) . . .
134(12) . . .
130(11) . . .
124(11) . . .
143(12) . . .
136(12) . . .
134(12) . . .
124(11) . . .
143(12) . . .
118(11) . . .
124(11) . . .
109(10) . . .
132(11) . . .
114(11) . . .
116(11) . . .
129(11) . . .
120(11) . . .
125(11) . . .
119(11) . . .
132(11) . . .
149(12) . . .
135(12) . . .
105(10) . . .
133(12) . . .
128(11) . . .
115(11) . . .
134(12) . . .
159(13) . . .
126(11) . . .
122(11) . . .
118(11) . . .
138(12) . . .
133(12) . . .
111(11) . . .
126(11) . . .
126(11) . . .
122(11) . . .
91(10) . . .
124(11) . . .
124(11) . . .
142(12) . . .
129(11) . . .
121(11) . . .
115(11) . . .
128(11) . . .
130(11) . . .
129(11) . . .
149(12) . . .
137(12) . . .
123(11) . . .
107(10) . . .
120(11) . . .
133(12) . . .
126(11) . . .
121(11) . . .
129(11) . . .
115(11) . . .
122(11) . . .
146(12) . . .
155(12) . . .
130(11) . . .
96(10) . . .
130(11) . . .
131(11) . . .
108(10) . . .
127(11) . . .
120(11) . . .
125(11) . . .
135(12) . . .
126(11) . . .
122(11) . . .
120(11) . . .
122(11) . . .
126(11) . . .
123(11) . . .
113(11) . . .
144(12) . . .
116(11) . . .
116(11) . . .
117(11) . . .
142(12) . . .
127(11) . . .
125(11) . . .
117(11) . . .
100(10) . . .
107(10) . . .
119(11) . . .
130(11) . . .
144(12) . . .
111(11) . . .
127(11) . . .
119(11) . . .
114(11) . . .
109(10) . . .
127(11) . . .
133(12) . . .
125(11) . . .
118(11) . . .
127(11) . . .
126(11) . . .
124(11) . . .
126(11) . . .
141(12) . . .
127(11) . . .
134(12) . . .
116(11) . . .
141(12) . . .
125(11) . . .
134(12) . . .
139(12) . . .
134(12) . . .
124(11) . . .
127(11) . . .
118(11) . . .
90(9) . . .
133(12) . . .
114(11) . . .
132(11) . . .
141(12) . . .
128(11) . . .
126(11) . . .
139(12) . . .
139(12) . . .
125(11) . . .
126(11) . . .
131(11) . . .
114(11) . . .
118(11) . . .
121(11) . . .
110(10) . . .
126(11) . . .
138(12) . . .
126(11) . . .
119(11) . . .
134(12) . . .
131(11) . . .
129(11) . . .
128(11) . . .
121(11) . . .
112(11) . . .
134(12) . . .
109(10) . . .
133(12) . . .
134(12) . . .
115(11) . . .
108(10) . . .
118(11) . . .
115(11) . . .
120(11) . . .
102(10) . . .
142(12) . . .
108(10) . . .
125(11) . . .
128(11) . . .
112(11) . . .
109(10) . . .
111(11) . . .
122(11) . . .
128(11) . . .
121(11) . . .
137(12) . . .
133(12) . . .
111(11) . . .
137(12) . . .
127(11) . . .
120(11) . . .
120(11) . . .
119(11) . . .
123(11) . . .
133(12) . . .
119(11) . . .
140(12) . . .
133(12) . . .
130(11) . . .
122(11) . . .
129(11) . . .
126(11) . . .
112(11) . . .
127(11) . . .
109(10) . . .
134(12) . . .
121(11) . . .
128(11) . . .
127(11) . . .
108(10) . . .
114(11) . . .
120(11) . . .
125(11) . . .
121(11) . . .
120(11) . . .
134(12) . . .
111(11) . . .
122(11) . . .
106(10) . . .
126(11) . . .
140(12) . . .
126(11) . . .
129(11) . . .
118(11) . . .
123(11) . . .
134(12) . . .
131(11) . . .
121(11) . . .
123(11) . . .
142(12) . . .
138(12) . . .
121(11) . . .
120(11) . . .
133(12) . . .
124(11) . . .
122(11) . . .
125(11) . . .
126(11) . . .
123(11) . . .
132(11) . . .
129(11) . . .
119(11) . . .
129(11) . . .
124(11) . . .
109(10) . . .
116(11) . . .
122(11) . . .
113(11) . . .
104(10) . . .
129(11) . . .
119(11) . . .
115(11) . . .
125(11) . . .
135(12) . . .
120(11) . . .
137(12) . . .
123(11) . . .
114(11) . . .
119(11) . . .
124(11) . . .
142(12) . . .
120(11) . . .
125(11) . . .
117(11) . . .
114(11) . . .
128(11) . . .
127(11) . . .
119(11) . . .
133(12) . . .
129(11) . . .
121(11) . . .
113(11) . . .
122(11) . . .
136(12) . . .
127(11) . . .
121(11) . . .
133(12) . . .
130(11) . . .
135(12) . . .
122(11) . . .
126(11) . . .
133(12) . . .
98(10) . . .
115(11) . . .
118(11) . . .
121(11) . . .
123(11) . . .
139(12) . . .
122(11) . . .
135(12) . . .
107(10) . . .
127(11) . . .
115(11) . . .
132(11) . . .
125(11) . . .
140(12) . . .
135(12) . . .
121(11) . . .
122(11) . . .
131(11) . . .
109(10) . . .
124(11) . . .
136(12) . . .
131(11) . . .
127(11) . . .
132(11) . . .
137(12) . . .
116(11) . . .
123(11) . . .
133(12) . . .
116(11) . . .
138(12) . . .
120(11) . . .
144(12) . . .
140(12) . . .
113(11) . . .
114(11) . . .
139(12) . . .
125(11) . . .
125(11) . . .
134(12) . . .
139(12) . . .
106(10) . . .
122(11) . . .
111(11) . . .
136(12) . . .
129(11) . . .
129(11) . . .
125(11) . . .
124(11) . . .
128(11) . . .
126(11) . . .
119(11) . . .
125(11) . . .
145(12) . . .
119(11) . . .
131(11) . . .
139(12) . . .
128(11) . . .
125(11) . . .
123(11) . . .
128(11) . . .
130(11) . . .
144(12) . . .
131(11) . . .
133(12) . . .
116(11) . . .
135(12) . . .
120(11) . . .
130(11) . . .
113(11) . . .
122(11) . . .
126(11) . . .
127(11) . . .
130(11) . . .
120(11) . . .
120(11) . . .
136(12) . . .
138(12) . . .
134(12) . . .
144(12) . . .
121(11) . . .
125(11) . . .
133(12) . . .
113(11) . . .
131(11) . . .
119(11) . . .
125(11) . . .
125(11) . . .
115(11) . . .
111(11) . . .
131(11) . . .
122(11) . . .
108(10) . . .
128(11) . . .
131(11) . . .
107(10) . . .
127(11) . . .
124(11) . . .
103(10) . . .
128(11) . . .
124(11) . . .
123(11) . . .
127(11) . . .
120(11) . . .
130(11) . . .
129(11) . . .
120(11) . . .
129(11) . . .
130(11) . . .
152(12) . . .
126(11) . . .
109(10) . . .
113(11) . . .
126(11) . . .
147(12) . . .
127(11) . . .
117(11) . . .
128(11) . . .
139(12) . . .
111(11) . . .
128(11) . . .
135(12) . . .
134(12) . . .
110(10) . . .
120(11) . . .
108(10) . . .
116(11) . . .
126(11) . . .
144(12) . . .
132(11) . . .
121(11) . . .
121(11) . . .
110(10) . . .
124(11) . . .
134(12) . . .
122(11) . . .
123(11) . . .
138(12) . . .
133(12) . . .
129(11) . . .
116(11) . . .
120(11) . . .
123(11) . . .
131(11) . . .
126(11) . . .
121(11) . . .
138(12) . . .
109(10) . . .
115(11) . . .
130(11) . . .
136(12) . . .
135(12) . . .
101(10) . . .
135(12) . . .
114(11) . . .
118(11) . . .
121(11) . . .
108(10) . . .
123(11) . . .
107(10) . . .
124(11) . . .
120(11) . . .
115(11) . . .
127(11) . . .
115(11) . . .
113(11) . . .
121(11) . . .
138(12) . . .
118(11) . . .
118(11) . . .
148(12) . . .
127(11) . . .
122(11) . . .
98(10) . . .
136(12) . . .
118(11) . . .
123(11) . . .
107(10) . . .
142(12) . . .
124(11) . . .
134(12) . . .
142(12) . . .
119(11) . . .
131(11) . . .
116(11) . . .
118(11) . . .
120(11) . . .
122(11) . . .
122(11) . . .
121(11) . . .
117(11) . . .
128(11) . . .
126(11) . . .
135(12) . . .
135(12) . . .
127(11) . . .
138(12) . . .
138(12) . . .
122(11) . . .
127(11) . . .
127(11) . . .
121(11) . . .
107(10) . . .
142(12) . . .
117(11) . . .
136(12) . . .
111(11) . . .
120(11) . . .
113(11) . . .
126(11) . . .
132(11) . . .
135(12) . . .
133(12) . . .
132(11) . . .
125(11) . . .
141(12) . . .
123(11) . . .
124(11) . . .
117(11) . . .
122(11) . . .
125(11) . . .
129(11) . . .
127(11) . . .
124(11) . . .
127(11) . . .
116(11) . . .
140(12) . . .
122(11) . . .
115(11) . . .
118(11) . . .
135(12) . . .
119(11) . . .
124(11) . . .
105(10) . . .
129(11) . . .
129(11) . . .
138(12) . . .
115(11) . . .
124(11) . . .
121(11) . . .
120(11) . . .
106(10) . . .
132(11) . . .
140(12) . . .
132(11) . . .
125(11) . . .
127(11) . . .
125(11) . . .
116(11) . . .
131(11) . . .
115(11) . . .
118(11) . . .
120(11) . . .
139(12) . . .
133(12) . . .
133(12) . . .
131(11) . . .
116(11) . . .
139(12) . . .
123(11) . . .
124(11) . . .
130(11) . . .
128(11) . . .
120(11) . . .
122(11) . . .
118(11) . . .
135(12) . . .
128(11) . . .
117(11) . . .
120(11) . . .
133(12) . . .
132(11) . . .
128(11) . . .
135(12) . . .
116(11) . . .
131(11) . . .
119(11) . . .
141(12) . . .
141(12) . . .
129(11) . . .
124(11) . . .
116(11) . . .
141(12) . . .
153(12) . . .
125(11) . . .
145(12) . . .
119(11) . . .
112(11) . . .
123(11) . . .
133(12) . . .
135(12) . . .
137(12) . . .
110(10) . . .
108(10) . . .
127(11) . . .
147(12) . . .
128(11) . . .
119(11) . . .
110(10) . . .
122(11) . . .
113(11) . . .
124(11) . . .
129(11) . . .
125(11) . . .
136(12) . . .
132(11) . . .
121(11) . . .
134(12) . . .
139(12) . . .
122(11) . . .
116(11) . . .
119(11) . . .
135(12) . . .
130(11) . . .
128(11) . . .
120(11) . . .
130(11) . . .
115(11) . . .
110(10) . . .
126(11) . . .
137(12) . . .
123(11) . . .
125(11) . . .
132(11) . . .
134(12) . . .
133(12) . . .
126(11) . . .
121(11) . . .
128(11) . . .
116(11) . . .
137(12) . . .
134(12) . . .
130(11) . . .
110(10) . . .
108(10) . . .
120(11) . . .
119(11) . . .
137(12) . . .
128(11) . . .
132(11) . . .
145(12) . . .
143(12) . . .
122(11) . . .
122(11) . . .
132(11) . . .
131(11) . . .
114(11) . . .
149(12) . . .
128(11) . . .
118(11) . . .
139(12) . . .
130(11) . . .
138(12) . . .
125(11) . . .
120(11) . . .
144(12) . . .
128(11) . . .
124(11) . . .
148(12) . . .
134(12) . . .
143(12) . . .
124(11) . . .
135(12) . . .
116(11) . . .
134(12) . . .
130(11) . . .
118(11) . . .
133(12) . . .
131(11) . . .
147(12) . . .
136(12) . . .
146(12) . . .
117(11) . . .
139(12) . . .
120(11) . . .
143(12) . . .
153(12) . . .
132(11) . . .
124(11) . . .
144(12) . . .
140(12) . . .
130(11) . . .
137(12) . . .
137(12) . . .
137(12) . . .
130(11) . . .
141(12) . . .
147(12) . . .
151(12) . . .
136(12) . . .
134(12) . . .
144(12) . . .
143(12) . . .
165(13) . . .
149(12) . . .
161(13) . . .
147(12) . . .
145(12) . . .
160(13) . . .
163(13) . . .
143(12) . . .
141(12) . . .
147(12) . . .
143(12) . . .
130(11) . . .
150(12) . . .
138(12) . . .
146(12) . . .
160(13) . . .
159(13) . . .
163(13) . . .
138(12) . . .
180(13) . . .
158(13) . . .
183(14) . . .
191(14) . . .
165(13) . . .
173(13) . . .
172(13) . . .
155(12) . . .
179(13) . . .
200(14) . . .
162(13) . . .
182(13) . . .
187(14) . . .
203(14) . . .
174(13) . . .
178(13) . . .
200(14) . . .
187(14) . . .
180(13) . . .
200(14) . . .
216(15) . . .
210(14) . . .
221(15) . . .
214(15) . . .
215(15) . . .
210(14) . . .
225(15) . . .
235(15) . . .
232(15) . . .
263(16) . . .
281(17) . . .
259(16) . . .
277(17) . . .
282(17) . . .
241(16) . . .
288(17) . . .
291(17) . . .
298(17) . . .
336(18) . . .
333(18) . . .
331(18) . . .
375(19) . . .
381(20) . . .
389(20) . . .
400(20) . . .
421(21) . . .
451(21) . . .
517(23) . . .
484(22) . . .
540(23) . . .
558(24) . . .
614(25) . . .
656(26) . . .
687(26) . . .
749(27) . . .
803(28) . . .
843(29) . . .
947(31) . . .
985(31) . . .
1096(33) . . .
1173(34) . . .
1272(36) . . .
1327(36) . . .
1443(38) . . .
1482(38) . . .
1635(40) . . .
1737(42) . . .
1853(43) . . .
1932(44) . . .
2031(45) . . .
2105(46) . . .
2206(47) . . .
2199(47) . . .
2275(48) . . .
2209(47) . . .
2175(47) . . .
2207(47) . . .
2193(47) . . .
2150(46) . . .
2012(45) . . .
1930(44) . . .
1873(43) . . .
1743(42) . . .
1654(41) . . .
1476(38) . . .
1437(38) . . .
1297(36) . . .
1254(35) . . .
1197(35) . . .
1013(32) . . .
918(30) . . .
885(30) . . .
887(30) . . .
756(27) . . .
703(27) . . .
659(26) . . .
617(25) . . .
547(23) . . .
540(23) . . .
516(23) . . .
500(22) . . .
452(21) . . .
453(21) . . .
407(20) . . .
387(20) . . .
375(19) . . .
340(18) . . .
336(18) . . .
326(18) . . .
310(18) . . .
325(18) . . .
308(18) . . .
276(17) . . .
253(16) . . .
249(16) . . .
265(16) . . .
242(16) . . .
233(15) . . .
260(16) . . .
237(15) . . .
246(16) . . .
246(16) . . .
217(15) . . .
215(15) . . .
219(15) . . .
197(14) . . .
204(14) . . .
203(14) . . .
188(14) . . .
188(14) . . .
203(14) . . .
192(14) . . .
185(14) . . .
189(14) . . .
195(14) . . .
177(13) . . .
174(13) . . .
165(13) . . .
150(12) . . .
175(13) . . .
146(12) . . .
178(13) . . .
166(13) . . .
152(12) . . .
164(13) . . .
154(12) . . .
156(12) . . .
142(12) . . .
134(12) . . .
145(12) . . .
167(13) . . .
157(13) . . .
172(13) . . .
172(13) . . .
132(11) . . .
154(12) . . .
141(12) . . .
143(12) . . .
157(13) . . .
145(12) . . .
156(12) . . .
147(12) . . .
145(12) . . .
156(12) . . .
137(12) . . .
132(11) . . .
146(12) . . .
140(12) . . .
145(12) . . .
143(12) . . .
129(11) . . .
128(11) . . .
141(12) . . .
144(12) . . .
138(12) . . .
140(12) . . .
145(12) . . .
146(12) . . .
132(11) . . .
153(12) . . .
159(13) . . .
133(12) . . .
142(12) . . .
139(12) . . .
133(12) . . .
146(12) . . .
141(12) . . .
132(11) . . .
122(11) . . .
121(11) . . .
138(12) . . .
129(11) . . .
126(11) . . .
136(12) . . .
137(12) . . .
130(11) . . .
142(12) . . .
129(11) . . .
128(11) . . .
125(11) . . .
122(11) . . .
134(12) . . .
138(12) . . .
138(12) . . .
131(11) . . .
145(12) . . .
139(12) . . .
131(11) . . .
141(12) . . .
129(11) . . .
121(11) . . .
116(11) . . .
109(10) . . .
126(11) . . .
114(11) . . .
128(11) . . .
134(12) . . .
116(11) . . .
122(11) . . .
119(11) . . .
114(11) . . .
122(11) . . .
118(11) . . .
124(11) . . .
111(11) . . .
119(11) . . .
149(12) . . .
132(11) . . .
130(11) . . .
105(10) . . .
128(11) . . .
127(11) . . .
116(11) . . .
116(11) . . .
112(11) . . .
129(11) . . .
129(11) . . .
132(11) . . .
120(11) . . .
117(11) . . .
117(11) . . .
108(10) . . .
126(11) . . .
108(10) . . .
128(11) . . .
123(11) . . .
133(12) . . .
124(11) . . .
117(11) . . .
121(11) . . .
105(10) . . .
125(11) . . .
105(10) . . .
130(11) . . .
137(12) . . .
121(11) . . .
129(11) . . .
129(11) . . .
131(11) . . .
124(11) . . .
126(11) . . .
121(11) . . .
133(12) . . .
135(12) . . .
105(10) . . .
127(11) . . .
125(11) . . .
131(11) . . .
112(11) . . .
137(12) . . .
114(11) . . .
122(11) . . .
105(10) . . .
117(11) . . .
128(11) . . .
134(12) . . .
108(10) . . .
121(11) . . .
128(11) . . .
125(11) . . .
128(11) . . .
121(11) . . .
136(12) . . .
129(11) . . .
120(11) . . .
128(11) . . .
114(11) . . .
121(11) . . .
125(11) . . .
110(10) . . .
129(11) . . .
119(11) . . .
106(10) . . .
120(11) . . .
98(10) . . .
95(10) . . .
117(11) . . .
108(10) . . .
104(10) . . .
128(11) . . .
111(11) . . .
103(10) . . .
122(11) . . .
108(10) . . .
107(10) . . .
140(12) . . .
121(11) . . .
111(11) . . .
128(11) . . .
108(10) . . .
115(11) . . .
121(11) . . .
118(11) . . .
116(11) . . .
118(11) . . .
130(11) . . .
132(11) . . .
98(10) . . .
111(11) . . .
113(11) . . .
128(11) . . .
138(12) . . .
121(11) . . .
99(10) . . .
125(11) . . .
126(11) . . .
122(11) . . .
113(11) . . .
111(11) . . .
126(11) . . .
126(11) . . .
122(11) . . .
123(11) . . .
104(10) . . .
136(12) . . .
133(12) . . .
106(10) . . .
124(11) . . .
110(10) . . .
123(11) . . .
92(10) . . .
125(11) . . .
121(11) . . .
131(11) . . .
142(12) . . .
106(10) . . .
124(11) . . .
108(10) . . .
126(11) . . .
109(10) . . .
117(11) . . .
118(11) . . .
113(11) . . .
111(11) . . .
119(11) . . .
106(10) . . .
116(11) . . .
110(10) . . .
121(11) . . .
111(11) . . .
102(10) . . .
91(10) . . .
118(11) . . .
117(11) . . .
116(11) . . .
101(10) . . .
116(11) . . .
125(11) . . .
129(11) . . .
122(11) . . .
106(10) . . .
113(11) . . .
122(11) . . .
115(11) . . .
123(11) . . .
122(11) . . .
117(11) . . .
120(11) . . .
125(11) . . .
101(10) . . .
118(11) . . .
116(11) . . .
114(11) . . .
118(11) . . .
128(11) . . .
104(10) . . .
117(11) . . .
107(10) . . .
121(11) . . .
109(10) . . .
116(11) . . .
128(11) . . .
111(11) . . .
108(10) . . .
117(11) . . .
111(11) . . .
93(10) . . .
102(10) . . .
121(11) . . .
115(11) . . .
94(10) . . .
104(10) . . .
107(10) . . .
117(11) . . .
110(10) . . .
113(11) . . .
127(11) . . .
104(10) . . .
122(11) . . .
114(11) . . .
114(11) . . .
120(11) . . .
129(11) . . .
117(11) . . .
116(11) . . .
125(11) . . .
113(11) . . .
118(11) . . .
115(11) . . .
112(11) . . .
108(10) . . .
137(12) . . .
125(11) . . .
118(11) . . .
112(11) . . .
102(10) . . .
119(11) . . .
117(11) . . .
110(10) . . .
114(11) . . .
112(11) . . .
115(11) . . .
120(11) . . .
108(10) . . .
122(11) . . .
104(10) . . .
103(10) . . .
116(11) . . .
100(10) . . .
113(11) . . .
104(10) . . .
106(10) . . .
115(11) . . .
114(11) . . .
94(10) . . .
119(11) . . .
98(10) . . .
117(11) . . .
111(11) . . .
105(10) . . .
105(10) . . .
113(11) . . .
130(11) . . .
117(11) . . .
104(10) . . .
121(11) . . .
106(10) . . .
118(11) . . .
114(11) . . .
107(10) . . .
99(10) . . .
127(11) . . .
107(10) . . .
101(10) . . .
89(9) . . .
120(11) . . .
112(11) . . .
109(10) . . .
115(11) . . .
104(10) . . .
118(11) . . .
118(11) . . .
130(11) . . .
100(10) . . .
96(10) . . .
116(11) . . .
119(11) . . .
104(10) . . .
119(11) . . .
104(10) . . .
102(10) . . .
101(10) . . .
102(10) . . .
117(11) . . .
112(11) . . .
116(11) . . .
117(11) . . .
113(11) . . .
105(10) . . .
112(11) . . .
114(11) . . .
121(11) . . .
98(10) . . .
115(11) . . .
93(10) . . .
121(11) . . .
119(11) . . .
106(10) . . .
112(11) . . .
103(10) . . .
99(10) . . .
99(10) . . .
102(10) . . .
112(11) . . .
109(10) . . .
117(11) . . .
107(10) . . .
105(10) . . .
111(11) . . .
108(10) . . .
108(10) . . .
115(11) . . .
103(10) . . .
112(11) . . .
93(10) . . .
109(10) . . .
106(10) . . .
112(11) . . .
110(10) . . .
101(10) . . .
121(11) . . .
122(11) . . .
97(10) . . .
105(10) . . .
99(10) . . .
132(11) . . .
114(11) . . .
103(10) . . .
106(10) . . .
117(11) . . .
98(10) . . .
112(11) . . .
120(11) . . .
96(10) . . .
97(10) . . .
127(11) . . .
112(11) . . .
110(10) . . .
110(10) . . .
101(10) . . .
102(10) . . .
103(10) . . .
111(11) . . .
101(10) . . .
109(10) . . .
104(10) . . .
99(10) . . .
98(10) . . .
123(11) . . .
113(11) . . .
108(10) . . .
126(11) . . .
95(10) . . .
97(10) . . .
109(10) . . .
101(10) . . .
109(10) . . .
91(10) . . .
102(10) . . .
95(10) . . .
110(10) . . .
109(10) . . .
124(11) . . .
105(10) . . .
100(10) . . .
115(11) . . .
101(10) . . .
117(11) . . .
94(10) . . .
122(11) . . .
121(11) . . .
122(11) . . .
131(11) . . .
103(10) . . .
122(11) . . .
111(11) . . .
116(11) . . .
116(11) . . .
121(11) . . .
126(11) . . .
108(10) . . .
108(10) . . .
103(10) . . .
109(10) . . .
123(11) . . .
119(11) . . .
113(11) . . .
109(10) . . .
112(11) . . .
118(11) . . .
111(11) . . .
101(10) . . .
111(11) . . .
114(11) . . .
98(10) . . .
98(10) . . .
111(11) . . .
100(10) . . .
109(10) . . .
103(10) . . .
99(10) . . .
117(11) . . .
113(11) . . .
95(10) . . .
110(10) . . .
100(10) . . .
122(11) . . .
108(10) . . .
118(11) . . .
113(11) . . .
113(11) . . .
96(10) . . .
107(10) . . .
101(10) . . .
115(11) . . .
111(11) . . .
120(11) . . .
108(10) . . .
122(11) . . .
112(11) . . .
112(11) . . .
104(10) . . .
100(10) . . .
108(10) . . .
87(9) . . .
108(10) . . .
110(10) . . .
92(10) . . .
118(11) . . .
108(10) . . .
108(10) . . .
101(10) . . .
104(10) . . .
109(10) . . .
97(10) . . .
102(10) . . .
103(10) . . .
116(11) . . .
90(9) . . .
103(10) . . .
100(10) . . .
113(11) . . .
111(11) . . .
108(10) . . .
117(11) . . .
128(11) . . .
117(11) . . .
101(10) . . .
115(11) . . .
90(9) . . .
110(10) . . .
107(10) . . .
124(11) . . .
111(11) . . .
109(10) . . .
133(12) . . .
107(10) . . .
113(11) . . .
110(10) . . .
109(10) . . .
110(10) . . .
120(11) . . .
120(11) . . .
117(11) . . .
110(10) . . .
108(10) . . .
118(11) . . .
110(10) . . .
125(11) . . .
119(11) . . .
111(11) . . .
112(11) . . .
103(10) . . .
99(10) . . .
109(10) . . .
118(11) . . .
125(11) . . .
124(11) . . .
123(11) . . .
120(11) . . .
88(9) . . .
107(10) . . .
111(11) . . .
123(11) . . .
115(11) . . .
109(10) . . .
106(10) . . .
114(11) . . .
105(10) . . .
111(11) . . .
122(11) . . .
104(10) . . .
122(11) . . .
95(10) . . .
111(11) . . .
112(11) . . .
98(10) . . .
95(10) . . .
115(11) . . .
117(11) . . .
111(11) . . .
104(10) . . .
115(11) . . .
101(10) . . .
102(10) . . .
114(11) . . .
106(10) . . .
102(10) . . .
95(10) . . .
108(10) . . .
106(10) . . .
106(10) . . .
109(10) . . .
122(11) . . .
98(10) . . .
114(11) . . .
109(10) . . .
113(11) . . .
99(10) . . .
107(10) . . .
108(10) . . .
109(10) . . .
108(10) . . .
105(10) . . .
119(11) . . .
123(11) . . .
112(11) . . .
106(10) . . .
128(11) . . .
114(11) . . .
116(11) . . .
105(10) . . .
128(11) . . .
104(10) . . .
149(12) . . .
108(10) . . .
103(10) . . .
108(10) . . .
101(10) . . .
116(11) . . .
107(10) . . .
120(11) . . .
112(11) . . .
126(11) . . .
121(11) . . .
107(10) . . .
127(11) . . .
106(10) . . .
117(11) . . .
106(10) . . .
121(11) . . .
104(10) . . .
112(11) . . .
101(10) . . .
119(11) . . .
119(11) . . .
88(9) . . .
102(10) . . .
125(11) . . .
105(10) . . .
113(11) . . .
119(11) . . .
101(10) . . .
116(11) . . .
116(11) . . .
116(11) . . .
117(11) . . .
118(11) . . .
110(10) . . .
125(11) . . .
125(11) . . .
108(10) . . .
113(11) . . .
113(11) . . .
113(11) . . .
112(11) . . .
118(11) . . .
115(11) . . .
126(11) . . .
121(11) . . .
114(11) . . .
109(10) . . .
117(11) . . .
113(11) . . .
108(10) . . .
112(11) . . .
120(11) . . .
120(11) . . .
118(11) . . .
120(11) . . .
123(11) . . .
121(11) . . .
105(10) . . .
114(11) . . .
96(10) . . .
104(10) . . .
121(11) . . .
119(11) . . .
126(11) . . .
119(11) . . .
110(10) . . .
110(10) . . .
114(11) . . .
118(11) . . .
107(10) . . .
111(11) . . .
119(11) . . .
123(11) . . .
117(11) . . .
107(10) . . .
101(10) . . .
118(11) . . .
124(11) . . .
119(11) . . .
111(11) . . .
119(11) . . .
106(10) . . .
109(10) . . .
101(10) . . .
113(11) . . .
104(10) . . .
121(11) . . .
138(12) . . .
132(11) . . .
122(11) . . .
100(10) . . .
98(10) . . .
114(11) . . .
106(10) . . .
105(10) . . .
109(10) . . .
110(10) . . .
115(11) . . .
109(10) . . .
118(11) . . .
109(10) . . .
110(10) . . .
120(11) . . .
109(10) . . .
127(11) . . .
116(11) . . .
124(11) . . .
117(11) . . .
118(11) . . .
109(10) . . .
139(12) . . .
111(11) . . .
135(12) . . .
120(11) . . .
110(10) . . .
126(11) . . .
134(12) . . .
114(11) . . .
117(11) . . .
127(11) . . .
114(11) . . .
117(11) . . .
107(10) . . .
114(11) . . .
107(10) . . .
119(11) . . .
107(10) . . .
133(12) . . .
106(10) . . .
104(10) . . .
112(11) . . .
114(11) . . .
125(11) . . .
114(11) . . .
120(11) . . .
113(11) . . .
121(11) . . .
130(11) . . .
129(11) . . .
117(11) . . .
118(11) . . .
122(11) . . .
130(11) . . .
134(12) . . .
102(10) . . .
120(11) . . .
124(11) . . .
116(11) . . .
121(11) . . .
144(12) . . .
107(10) . . .
121(11) . . .
111(11) . . .
124(11) . . .
134(12) . . .
122(11) . . .
118(11) . . .
136(12) . . .
125(11) . . .
129(11) . . .
114(11) . . .
131(11) . . .
138(12) . . .
124(11) . . .
129(11) . . .
113(11) . . .
120(11) . . .
121(11) . . .
123(11) . . .
144(12) . . .
147(12) . . .
133(12) . . .
139(12) . . .
132(11) . . .
125(11) . . .
156(12) . . .
119(11) . . .
136(12) . . .
134(12) . . .
140(12) . . .
137(12) . . .
129(11) . . .
142(12) . . .
136(12) . . .
139(12) . . .
139(12) . . .
154(12) . . .
146(12) . . .
121(11) . . .
128(11) . . .
152(12) . . .
136(12) . . .
142(12) . . .
129(11) . . .
150(12) . . .
172(13) . . .
126(11) . . .
140(12) . . .
159(13) . . .
148(12) . . .
169(13) . . .
164(13) . . .
164(13) . . .
176(13) . . .
170(13) . . .
161(13) . . .
159(13) . . .
170(13) . . .
198(14) . . .
173(13) . . .
182(13) . . .
188(14) . . .
174(13) . . .
199(14) . . .
191(14) . . .
185(14) . . .
201(14) . . .
202(14) . . .
214(15) . . .
215(15) . . .
212(15) . . .
239(15) . . .
226(15) . . .
233(15) . . .
259(16) . . .
251(16) . . .
273(17) . . .
287(17) . . .
289(17) . . .
266(16) . . .
285(17) . . .
296(17) . . .
364(19) . . .
332(18) . . .
359(19) . . .
410(20) . . .
380(19) . . .
414(20) . . .
464(22) . . .
461(21) . . .
535(23) . . .
545(23) . . .
602(25) . . .
645(25) . . .
713(27) . . .
744(27) . . .
790(28) . . .
846(29) . . .
946(31) . . .
989(31) . . .
1087(33) . . .
1165(34) . . .
1239(35) . . .
1286(36) . . .
1405(37) . . .
1499(39) . . .
1554(39) . . .
1581(40) . . .
1635(40) . . .
1692(41) . . .
1732(42) . . .
1686(41) . . .
1665(41) . . .
1716(41) . . .
1673(41) . . .
1614(40) . . .
1613(40) . . .
1499(39) . . .
1363(37) . . .
1354(37) . . .
1200(35) . . .
1230(35) . . .
1063(33) . . .
1098(33) . . .
945(31) . . .
903(30) . . .
834(29) . . .
735(27) . . .
663(26) . . .
601(25) . . .
593(24) . . .
558(24) . . .
484(22) . . .
492(22) . . .
465(22) . . .
451(21) . . .
414(20) . . .
388(20) . . .
369(19) . . .
380(19) . . .
327(18) . . .
325(18) . . .
326(18) . . .
302(17) . . .
287(17) . . .
276(17) . . .
274(17) . . .
273(17) . . .
255(16) . . .
222(15) . . .
198(14) . . .
217(15) . . .
215(15) . . .
210(14) . . .
194(14) . . .
217(15) . . .
205(14) . . .
198(14) . . .
183(14) . . .
182(13) . . .
177(13) . . .
170(13) . . .
187(14) . . .
165(13) . . .
178(13) . . .
171(13) . . .
166(13) . . .
153(12) . . .
151(12) . . .
162(13) . . .
175(13) . . .
177(13) . . .
144(12) . . .
141(12) . . .
173(13) . . .
155(12) . . .
158(13) . . .
143(12) . . .
162(13) . . .
172(13) . . .
139(12) . . .
151(12) . . .
128(11) . . .
146(12) . . .
122(11) . . .
127(11) . . .
133(12) . . .
144(12) . . .
138(12) . . .
139(12) . . .
127(11) . . .
133(12) . . .
120(11) . . .
126(11) . . .
137(12) . . .
154(12) . . .
128(11) . . .
130(11) . . .
130(11) . . .
125(11) . . .
121(11) . . .
128(11) . . .
127(11) . . .
143(12) . . .
144(12) . . .
121(11) . . .
152(12) . . .
128(11) . . .
125(11) . . .
125(11) . . .
127(11) . . .
122(11) . . .
123(11) . . .
106(10) . . .
111(11) . . .
123(11) . . .
126(11) . . .
118(11) . . .
122(11) . . .
111(11) . . .
108(10) . . .
116(11) . . .
107(10) . . .
128(11) . . .
118(11) . . .
120(11) . . .
116(11) . . .
133(12) . . .
126(11) . . .
122(11) . . .
118(11) . . .
113(11) . . .
107(10) . . .
120(11) . . .
110(10) . . .
118(11) . . .
117(11) . . .
111(11) . . .
130(11) . . .
127(11) . . .
106(10) . . .
115(11) . . .
109(10) . . .
115(11) . . .
99(10) . . .
111(11) . . .
101(10) . . .
107(10) . . .
105(10) . . .
102(10) . . .
113(11) . . .
112(11) . . .
128(11) . . .
113(11) . . .
112(11) . . .
119(11) . . .
106(10) . . .
111(11) . . .
114(11) . . .
103(10) . . .
123(11) . . .
111(11) . . .
110(10) . . .
111(11) . . .
110(10) . . .
113(11) . . .
109(10) . . .
106(10) . . .
120(11) . . .
119(11) . . .
102(10) . . .
105(10) . . .
117(11) . . .
101(10) . . .
104(10) . . .
108(10) . . .
114(11) . . .
104(10) . . .
110(10) . . .
120(11) . . .
104(10) . . .
116(11) . . .
88(9) . . .
108(10) . . .
103(10) . . .
123(11) . . .
111(11) . . .
109(10) . . .
124(11) . . .
99(10) . . .
106(10) . . .
131(11) . . .
114(11) . . .
116(11) . . .
106(10) . . .
104(10) . . .
119(11) . . .
108(10) . . .
116(11) . . .
110(10) . . .
108(10) . . .
108(10) . . .
89(9) . . .
113(11) . . .
110(10) . . .
129(11) . . .
95(10) . . .
91(10) . . .
108(10) . . .
105(10) . . .
116(11) . . .
94(10) . . .
115(11) . . .
114(11) . . .
104(10) . . .
93(10) . . .
102(10) . . .
100(10) . . .
110(10) . . .
110(10) . . .
86(9) . . .
102(10) . . .
93(10) . . .
110(10) . . .
111(11) . . .
112(11) . . .
109(10) . . .
109(10) . . .
121(11) . . .
120(11) . . .
103(10) . . .
111(11) . . .
112(11) . . .
105(10) . . .
112(11) . . .
107(10) . . .
114(11) . . .
95(10) . . .
103(10) . . .
105(10) . . .
105(10) . . .
99(10) . . .
108(10) . . .
100(10) . . .
85(9) . . .
106(10) . . .
96(10) . . .
114(11) . . .
115(11) . . .
112(11) . . .
118(11) . . .
115(11) . . .
96(10) . . .
92(10) . . .
110(10) . . .
99(10) . . .
111(11) . . .
113(11) . . .
116(11) . . .
97(10) . . .
112(11) . . .
108(10) . . .
90(9) . . .
93(10) . . .
103(10) . . .
91(10) . . .
98(10) . . .
113(11) . . .
88(9) . . .
96(10) . . .
109(10) . . .
95(10) . . .
111(11) . . .
112(11) . . .
115(11) . . .
106(10) . . .
107(10) . . .
111(11) . . .
88(9) . . .
96(10) . . .
95(10) . . .
100(10) . . .
106(10) . . .
108(10) . . .
93(10) . . .
97(10) . . .
98(10) . . .
113(11) . . .
93(10) . . .
109(10) . . .
117(11) . . .
101(10) . . .
103(10) . . .
111(11) . . .
105(10) . . .
99(10) . . .
94(10) . . .
115(11) . . .
99(10) . . .
107(10) . . .
102(10) . . .
98(10) . . .
123(11) . . .
102(10) . . .
102(10) . . .
105(10) . . .
103(10) . . .
98(10) . . .
92(10) . . .
109(10) . . .
97(10) . . .
108(10) . . .
119(11) . . .
95(10) . . .
106(10) . . .
106(10) . . .
102(10) . . .
100(10) . . .
102(10) . . .
103(10) . . .
108(10) . . .
93(10) . . .
103(10) . . .
107(10) . . .
108(10) . . .
103(10) . . .
101(10) . . .
113(11) . . .
86(9) . . .
95(10) . . .
117(11) . . .
101(10) . . .
124(11) . . .
89(9) . . .
95(10) . . .
108(10) . . .
109(10) . . .
111(11) . . .
98(10) . . .
95(10) . . .
114(11) . . .
101(10) . . .
104(10) . . .
112(11) . . .
100(10) . . .
96(10) . . .
79(9) . . .
109(10) . . .
98(10) . . .
118(11) . . .
78(9) . . .
116(11) . . .
92(10) . . .
108(10) . . .
90(9) . . .
102(10) . . .
126(11) . . .
100(10) . . .
101(10) . . .
108(10) . . .
104(10) . . .
109(10) . . .
101(10) . . .
95(10) . . .
107(10) . . .
110(10) . . .
90(9) . . .
95(10) . . .
94(10) . . .
111(11) . . .
89(9) . . .
85(9) . . .
92(10) . . .
115(11) . . .
97(10) . . .
105(10) . . .
108(10) . . .
107(10) . . .
92(10) . . .
85(9) . . .
123(11) . . .
111(11) . . .
89(9) . . .
101(10) . . .
105(10) . . .
89(9) . . .
101(10) . . .
100(10) . . .
96(10) . . .
109(10) . . .
102(10) . . .
106(10) . . .
104(10) . . .
99(10) . . .
107(10) . . .
89(9) . . .
96(10) . . .
106(10) . . .
101(10) . . .
97(10) . . .
96(10) . . .
105(10) . . .
98(10) . . .
115(11) . . .
111(11) . . .
83(9) . . .
105(10) . . .
106(10) . . .
89(9) . . .
101(10) . . .
100(10) . . .
115(11) . . .
102(10) . . .
113(11) . . .
108(10) . . .
95(10) . . .
108(10) . . .
89(9) . . .
109(10) . . .
120(11) . . .
109(10) . . .
111(11) . . .
101(10) . . .
103(10) . . .
96(10) . . .
97(10) . . .
107(10) . . .
94(10) . . .
91(10) . . .
85(9) . . .
92(10) . . .
130(11) . . .
98(10) . . .
89(9) . . .
97(10) . . .
96(10) . . .
97(10) . . .
110(10) . . .
94(10) . . .
96(10) . . .
101(10) . . .
103(10) . . .
95(10) . . .
91(10) . . .
94(10) . . .
102(10) . . .
106(10) . . .
85(9) . . .
89(9) . . .
104(10) . . .
109(10) . . .
92(10) . . .
78(9) . . .
98(10) . . .
79(9) . . .
108(10) . . .
83(9) . . .
103(10) . . .
89(9) . . .
89(9) . . .
107(10) . . .
97(10) . . .
92(10) . . .
100(10) . . .
105(10) . . .
103(10) . . .
86(9) . . .
102(10) . . .
90(9) . . .
92(10) . . .
106(10) . . .
98(10) . . .
97(10) . . .
93(10) . . .
92(10) . . .
84(9) . . .
108(10) . . .
98(10) . . .
106(10) . . .
103(10) . . .
89(9) . . .
101(10) . . .
105(10) . . .
103(10) . . .
77(9) . . .
100(10) . . .
103(10) . . .
93(10) . . .
104(10) . . .
108(10) . . .
115(11) . . .
86(9) . . .
99(10) . . .
110(10) . . .
93(10) . . .
95(10) . . .
99(10) . . .
107(10) . . .
106(10) . . .
88(9) . . .
105(10) . . .
89(9) . . .
83(9) . . .
103(10) . . .
98(10) . . .
93(10) . . .
95(10) . . .
88(9) . . .
98(10) . . .
86(9) . . .
94(10) . . .
104(10) . . .
96(10) . . .
95(10) . . .
91(10) . . .
75(9) . . .
91(10) . . .
106(10) . . .
100(10) . . .
102(10) . . .
110(10) . . .
94(10) . . .
95(10) . . .
104(10) . . .
86(9) . . .
89(9) . . .
103(10) . . .
87(9) . . .
96(10) . . .
98(10) . . .
101(10) . . .
99(10) . . .
93(10) . . .
98(10) . . .
91(10) . . .
93(10) . . .
98(10) . . .
90(9) . . .
102(10) . . .
122(11) . . .
92(10) . . .
102(10) . . .
92(10) . . .
89(9) . . .
99(10) . . .
93(10) . . .
110(10) . . .
117(11) . . .
91(10) . . .
86(9) . . .
101(10) . . .
99(10) . . .
104(10) . . .
92(10) . . .
103(10) . . .
103(10) . . .
100(10) . . .
90(9) . . .
87(9) . . .
97(10) . . .
94(10) . . .
102(10) . . .
105(10) . . .
104(10) . . .
114(11) . . .
107(10) . . .
103(10) . . .
103(10) . . .
109(10) . . .
84(9) . . .
82(9) . . .
99(10) . . .
99(10) . . .
99(10) . . .
107(10) . . .
102(10) . . .
102(10) . . .
90(9) . . .
93(10) . . .
101(10) . . .
97(10) . . .
98(10) . . .
86(9) . . .
93(10) . . .
93(10) . . .
91(10) . . .
89(9) . . .
97(10) . . .
78(9) . . .
81(9) . . .
102(10) . . .
85(9) . . .
91(10) . . .
91(10) . . .
96(10) . . .
96(10) . . .
93(10) . . .
94(10) . . .
88(9) . . .
96(10) . . .
102(10) . . .
86(9) . . .
103(10) . . .
86(9) . . .
98(10) . . .
98(10) . . .
97(10) . . .
95(10) . . .
96(10) . . .
96(10) . . .
102(10) . . .
85(9) . . .
107(10) . . .
100(10) . . .
92(10) . . .
97(10) . . .
80(9) . . .
106(10) . . .
99(10) . . .
94(10) . . .
101(10) . . .
98(10) . . .
100(10) . . .
104(10) . . .
114(11) . . .
99(10) . . .
90(9) . . .
108(10) . . .
100(10) . . .
89(9) . . .
84(9) . . .
103(10) . . .
102(10) . . .
80(9) . . .
76(9) . . .
105(10) . . .
90(9) . . .
92(10) . . .
90(9) . . .
97(10) . . .
97(10) . . .
88(9) . . .
104(10) . . .
99(10) . . .
100(10) . . .
96(10) . . .
116(11) . . .
83(9) . . .
86(9) . . .
92(10) . . .
88(9) . . .
94(10) . . .
86(9) . . .
99(10) . . .
91(10) . . .
101(10) . . .
95(10) . . .
87(9) . . .
99(10) . . .
105(10) . . .
95(10) . . .
93(10) . . .
106(10) . . .
104(10) . . .
103(10) . . .
84(9) . . .
96(10) . . .
94(10) . . .
88(9) . . .
85(9) . . .
86(9) . . .
95(10) . . .
90(9) . . .
94(10) . . .
98(10) . . .
96(10) . . .
75(9) . . .
78(9) . . .
95(10) . . .
80(9) . . .
93(10) . . .
98(10) . . .
111(11) . . .
89(9) . . .
97(10) . . .
85(9) . . .
92(10) . . .
101(10) . . .
82(9) . . .
103(10) . . .
96(10) . . .
92(10) . . .
88(9) . . .
97(10) . . .
94(10) . . .
105(10) . . .
99(10) . . .
99(10) . . .
106(10) . . .
96(10) . . .
93(10) . . .
92(10) . . .
81(9) . . .
91(10) . . .
97(10) . . .
90(9) . . .
84(9) . . .
90(9) . . .
95(10) . . .
102(10) . . .
88(9) . . .
95(10) . . .
108(10) . . .
98(10) . . .
104(10) . . .
91(10) . . .
95(10) . . .
94(10) . . .
87(9) . . .
84(9) . . .
83(9) . . .
92(10) . . .
98(10) . . .
81(9) . . .
89(9) . . .
98(10) . . .
76(9) . . .
89(9) . . .
83(9) . . .
83(9) . . .
95(10) . . .
97(10) . . .
99(10) . . .
104(10) . . .
91(10) . . .
85(9) . . .
92(10) . . .
96(10) . . .
112(11) . . .
120(11) . . .
99(10) . . .
79(9) . . .
85(9) . . .
100(10) . . .
100(10) . . .
92(10) . . .
84(9) . . .
88(9) . . .
97(10) . . .
84(9) . . .
93(10) . . .
95(10) . . .
95(10) . . .
88(9) . . .
96(10) . . .
106(10) . . .
95(10) . . .
91(10) . . .
104(10) . . .
89(9) . . .
92(10) . . .
97(10) . . .
92(10) . . .
97(10) . . .
86(9) . . .
90(9) . . .
88(9) . . .
91(10) . . .
99(10) . . .
97(10) . . .
92(10) . . .
94(10) . . .
80(9) . . .
92(10) . . .
87(9) . . .
88(9) . . .
93(10) . . .
105(10) . . .
92(10) . . .
86(9) . . .
81(9) . . .
94(10) . . .
88(9) . . .
92(10) . . .
97(10) . . .
81(9) . . .
104(10) . . .
96(10) . . .
98(10) . . .
103(10) . . .
98(10) . . .
76(9) . . .
92(10) . . .
94(10) . . .
92(10) . . .
102(10) . . .
100(10) . . .
101(10) . . .
78(9) . . .
110(10) . . .
102(10) . . .
105(10) . . .
98(10) . . .
98(10) . . .
113(11) . . .
107(10) . . .
95(10) . . .
98(10) . . .
86(9) . . .
105(10) . . .
90(9) . . .
83(9) . . .
88(9) . . .
97(10) . . .
92(10) . . .
81(9) . . .
90(9) . . .
88(9) . . .
100(10) . . .
81(9) . . .
84(9) . . .
92(10) . . .
102(10) . . .
77(9) . . .
91(10) . . .
92(10) . . .
93(10) . . .
81(9) . . .
105(10) . . .
88(9) . . .
85(9) . . .
103(10) . . .
89(9) . . .
73(9) . . .
95(10) . . .
95(10) . . .
97(10) . . .
91(10) . . .
94(10) . . .
89(9) . . .
104(10) . . .
86(9) . . .
93(10) . . .
86(9) . . .
89(9) . . .
83(9) . . .
88(9) . . .
88(9) . . .
81(9) . . .
91(10) . . .
75(9) . . .
82(9) . . .
109(10) . . .
81(9) . . .
93(10) . . .
94(10) . . .
91(10) . . .
86(9) . . .
93(10) . . .
91(10) . . .
86(9) . . .
91(10) . . .
87(9) . . .
99(10) . . .
85(9) . . .
83(9) . . .
102(10) . . .
87(9) . . .
95(10) . . .
86(9) . . .
93(10) . . .
91(10) . . .
90(9) . . .
83(9) . . .
106(10) . . .
101(10) . . .
88(9) . . .
89(9) . . .
84(9) . . .
100(10) . . .
98(10) . . .
83(9) . . .
101(10) . . .
97(10) . . .
89(9) . . .
85(9) . . .
103(10) . . .
83(9) . . .
94(10) . . .
112(11) . . .
83(9) . . .
86(9) . . .
95(10) . . .
88(9) . . .
87(9) . . .
93(10) . . .
106(10) . . .
97(10) . . .
89(9) . . .
92(10) . . .
96(10) . . .
107(10) . . .
85(9) . . .
95(10) . . .
86(9) . . .
82(9) . . .
86(9) . . .
98(10) . . .
95(10) . . .
83(9) . . .
77(9) . . .
106(10) . . .
96(10) . . .
98(10) . . .
83(9) . . .
103(10) . . .
96(10) . . .
85(9) . . .
86(9) . . .
86(9) . . .
92(10) . . .
85(9) . . .
91(10) . . .
89(9) . . .
80(9) . . .
90(9) . . .
93(10) . . .
86(9) . . .
84(9) . . .
77(9) . . .
89(9) . . .
95(10) . . .
98(10) . . .
93(10) . . .
102(10) . . .
95(10) . . .
99(10) . . .
94(10) . . .
96(10) . . .
109(10) . . .
79(9) . . .
84(9) . . .
88(9) . . .
92(10) . . .
88(9) . . .
92(10) . . .
110(10) . . .
90(9) . . .
103(10) . . .
83(9) . . .
99(10) . . .
97(10) . . .
94(10) . . .
84(9) . . .
81(9) . . .
90(9) . . .
98(10) . . .
99(10) . . .
82(9) . . .
104(10) . . .
97(10) . . .
86(9) . . .
90(9) . . .
88(9) . . .
107(10) . . .
95(10) . . .
96(10) . . .
93(10) . . .
91(10) . . .
93(10) . . .
100(10) . . .
89(9) . . .
83(9) . . .
89(9) . . .
90(9) . . .
89(9) . . .
93(10) . . .
85(9) . . .
82(9) . . .
89(9) . . .
97(10) . . .
99(10) . . .
103(10) . . .
97(10) . . .
89(9) . . .
90(9) . . .
91(10) . . .
90(9) . . .
103(10) . . .
86(9) . . .
84(9) . . .
90(9) . . .
96(10) . . .
92(10) . . .
72(8) . . .
83(9) . . .
92(10) . . .
82(9) . . .
88(9) . . .
100(10) . . .
97(10) . . .
99(10) . . .
97(10) . . .
82(9) . . .
86(9) . . .
100(10) . . .
81(9) . . .
80(9) . . .
89(9) . . .
73(9) . . .
94(10) . . .
88(9) . . .
83(9) . . .
105(10) . . .
89(9) . . .
89(9) . . .
100(10) . . .
92(10) . . .
96(10) . . .
102(10) . . .
82(9) . . .
87(9) . . .
83(9) . . .
87(9) . . .
99(10) . . .
80(9) . . .
92(10) . . .
93(10) . . .
88(9) . . .
79(9) . . .
85(9) . . .
86(9) . . .
103(10) . . .
86(9) . . .
89(9) . . .
84(9) . . .
101(10) . . .
85(9) . . .
91(10) . . .
89(9) . . .
96(10) . . .
95(10) . . .
88(9) . . .
90(9) . . .
95(10) . . .
91(10) . . .
89(9) . . .
93(10) . . .
89(9) . . .
96(10) . . .
94(10) . . .
92(10) . . .
81(9) . . .
97(10) . . .
85(9) . . .
80(9) . . .
97(10) . . .
84(9) . . .
91(10) . . .
93(10) . . .
83(9) . . .
95(10) . . .
99(10) . . .
81(9) . . .
85(9) . . .
92(10) . . .
97(10) . . .
99(10) . . .
103(10) . . .
94(10) . . .
92(10) . . .
100(10) . . .
95(10) . . .
90(9) . . .
97(10) . . .
85(9) . . .
95(10) . . .
97(10) . . .
82(9) . . .
87(9) . . .
92(10) . . .
84(9) . . .
91(10) . . .
87(9) . . .
87(9) . . .
82(9) . . .
85(9) . . .
76(9) . . .
94(10) . . .
107(10) . . .
86(9) . . .
82(9) . . .
90(9) . . .
98(10) . . .
81(9) . . .
88(9) . . .
96(10) . . .
84(9) . . .
106(10) . . .
83(9) . . .
84(9) . . .
82(9) . . .
89(9) . . .
93(10) . . .
83(9) . . .
91(10) . . .
79(9) . . .
84(9) . . .
87(9) . . .
94(10) . . .
90(9) . . .
79(9) . . .
83(9) . . .
90(9) . . .
93(10) . . .
81(9) . . .
91(10) . . .
97(10) . . .
87(9) . . .
83(9) . . .
89(9) . . .
100(10) . . .
90(9) . . .
84(9) . . .
88(9) . . .
91(10) . . .
82(9) . . .
79(9) . . .
78(9) . . .
79(9) . . .
88(9) . . .
106(10) . . .
90(9) . . .
90(9) . . .
91(10) . . .
101(10) . . .
98(10) . . .
90(9) . . .
85(9) . . .
81(9) . . .
87(9) . . .
99(10) . . .
91(10) . . .
100(10) . . .
103(10) . . .
84(9) . . .
98(10) . . .
93(10) . . .
93(10) . . .
103(10) . . .
90(9) . . .
78(9) . . .
87(9) . . .
84(9) . . .
80(9) . . .
88(9) . . .
99(10) . . .
105(10) . . .
86(9) . . .
92(10) . . .
100(10) . . .
92(10) . . .
93(10) . . .
88(9) . . .
72(8) . . .
103(10) . . .
77(9) . . .
90(9) . . .
88(9) . . .
104(10) . . .
99(10) . . .
88(9) . . .
90(9) . . .
85(9) . . .
83(9) . . .
81(9) . . .
92(10) . . .
91(10) . . .
91(10) . . .
83(9) . . .
86(9) . . .
90(9) . . .
88(9) . . .
91(10) . . .
73(9) . . .
96(10) . . .
83(9) . . .
87(9) . . .
71(8) . . .
88(9) . . .
99(10) . . .
76(9) . . .
80(9) . . .
86(9) . . .
83(9) . . .
90(9) . . .
93(10) . . .
93(10) . . .
88(9) . . .
78(9) . . .
97(10) . . .
92(10) . . .
107(10) . . .
98(10) . . .
95(10) . . .
97(10) . . .
79(9) . . .
81(9) . . .
88(9) . . .
80(9) . . .
74(9) . . .
87(9) . . .
86(9) . . .
79(9) . . .
84(9) . . .
88(9) . . .
91(10) . . .
77(9) . . .
95(10) . . .
97(10) . . .
74(9) . . .
88(9) . . .
96(10) . . .
84(9) . . .
78(9) . . .
92(10) . . .
86(9) . . .
100(10) . . .
97(10) . . .
94(10) . . .
100(10) . . .
87(9) . . .
82(9) . . .
81(9) . . .
87(9) . . .
92(10) . . .
92(10) . . .
88(9) . . .
93(10) . . .
98(10) . . .
91(10) . . .
89(9) . . .
89(9) . . .
112(11) . . .
88(9) . . .
93(10) . . .
87(9) . . .
95(10) . . .
82(9) . . .
91(10) . . .
89(9) . . .
94(10) . . .
80(9) . . .
86(9) . . .
85(9) . . .
98(10) . . .
87(9) . . .
86(9) . . .
83(9) . . .
90(9) . . .
114(11) . . .
96(10) . . .
104(10) . . .
80(9) . . .
97(10) . . .
94(10) . . .
90(9) . . .
89(9) . . .
84(9) . . .
81(9) . . .
90(9) . . .
96(10) . . .
84(9) . . .
80(9) . . .
78(9) . . .
81(9) . . .
90(9) . . .
85(9) . . .
92(10) . . .
102(10) . . .
77(9) . . .
90(9) . . .
78(9) . . .
92(10) . . .
88(9) . . .
94(10) . . .
98(10) . . .
103(10) . . .
87(9) . . .
91(10) . . .
87(9) . . .
97(10) . . .
94(10) . . .
80(9) . . .
78(9) . . .
81(9) . . .
82(9) . . .
91(10) . . .
89(9) . . .
83(9) . . .
86(9) . . .
108(10) . . .
79(9) . . .
82(9) . . .
85(9) . . .
107(10) . . .
98(10) . . .
83(9) . . .
82(9) . . .
82(9) . . .
81(9) . . .
92(10) . . .
85(9) . . .
87(9) . . .
85(9) . . .
100(10) . . .
89(9) . . .
95(10) . . .
94(10) . . .
88(9) . . .
90(9) . . .
90(9) . . .
94(10) . . .
87(9) . . .
77(9) . . .
67(8) . . .
93(10) . . .
94(10) . . .
88(9) . . .
89(9) . . .
80(9) . . .
88(9) . . .
93(10) . . .
97(10) . . .
87(9) . . .
84(9) . . .
84(9) . . .
100(10) . . .
90(9) . . .
79(9) . . .
82(9) . . .
97(10) . . .
93(10) . . .
90(9) . . .
90(9) . . .
83(9) . . .
78(9) . . .
88(9) . . .
102(10) . . .
96(10) . . .
84(9) . . .
95(10) . . .
99(10) . . .
89(9) . . .
92(10) . . .
97(10) . . .
94(10) . . .
85(9) . . .
96(10) . . .
86(9) . . .
78(9) . . .
102(10) . . .
95(10) . . .
86(9) . . .
94(10) . . .
97(10) . . .
92(10) . . .
91(10) . . .
95(10) . . .
96(10) . . .
98(10) . . .
99(10) . . .
83(9) . . .
81(9) . . .
95(10) . . .
91(10) . . .
86(9) . . .
75(9) . . .
95(10) . . .
86(9) . . .
95(10) . . .
96(10) . . .
93(10) . . .
87(9) . . .
98(10) . . .
93(10) . . .
87(9) . . .
93(10) . . .
85(9) . . .
68(8) . . .
90(9) . . .
89(9) . . .
103(10) . . .
96(10) . . .
76(9) . . .
92(10) . . .
97(10) . . .
96(10) . . .
89(9) . . .
95(10) . . .
75(9) . . .
90(9) . . .
91(10) . . .
103(10) . . .
103(10) . . .
73(9) . . .
96(10) . . .
99(10) . . .
80(9) . . .
100(10) . . .
75(9) . . .
96(10) . . .
98(10) . . .
86(9) . . .
93(10) . . .
94(10) . . .
86(9) . . .
92(10) . . .
93(10) . . .
92(10) . . .
85(9) . . .
91(10) . . .
81(9) . . .
98(10) . . .
106(10) . . .
84(9) . . .
86(9) . . .
87(9) . . .
95(10) . . .
88(9) . . .
91(10) . . .
79(9) . . .
72(8) . . .
93(10) . . .
93(10) . . .
90(9) . . .
90(9) . . .
98(10) . . .
107(10) . . .
81(9) . . .
89(9) . . .
100(10) . . .
89(9) . . .
86(9) . . .
90(9) . . .
91(10) . . .
90(9) . . .
85(9) . . .
96(10) . . .
97(10) . . .
80(9) . . .
94(10) . . .
80(9) . . .
87(9) . . .
101(10) . . .
105(10) . . .
108(10) . . .
104(10) . . .
109(10) . . .
96(10) . . .
94(10) . . .
84(9) . . .
88(9) . . .
98(10) . . .
100(10) . . .
86(9) . . .
95(10) . . .
93(10) . . .
116(11) . . .
100(10) . . .
99(10) . . .
105(10) . . .
97(10) . . .
78(9) . . .
93(10) . . .
98(10) . . .
85(9) . . .
96(10) . . .
89(9) . . .
86(9) . . .
92(10) . . .
94(10) . . .
81(9) . . .
97(10) . . .
84(9) . . .
102(10) . . .
71(8) . . .
96(10) . . .
81(9) . . .
90(9) . . .
104(10) . . .
112(11) . . .
98(10) . . .
84(9) . . .
92(10) . . .
96(10) . . .
69(8) . . .
86(9) . . .
83(9) . . .
100(10) . . .
88(9) . . .
89(9) . . .
88(9) . . .
90(9) . . .
99(10) . . .
91(10) . . .
96(10) . . .
91(10) . . .
82(9) . . .
108(10) . . .
102(10) . . .
83(9) . . .
80(9) . . .
93(10) . . .
111(11) . . .
102(10) . . .
98(10) . . .
91(10) . . .
92(10) . . .
95(10) . . .
93(10) . . .
93(10) . . .
95(10) . . .
109(10) . . .
102(10) . . .
105(10) . . .
117(11) . . .
90(9) . . .
118(11) . . .
85(9) . . .
117(11) . . .
114(11) . . .
105(10) . . .
101(10) . . .
118(11) . . .
104(10) . . .
117(11) . . .
113(11) . . .
117(11) . . .
117(11) . . .
106(10) . . .
115(11) . . .
131(11) . . .
113(11) . . .
126(11) . . .
127(11) . . .
131(11) . . .
128(11) . . .
136(12) . . .
131(11) . . .
145(12) . . .
128(11) . . .
136(12) . . .
156(12) . . .
121(11) . . .
146(12) . . .
153(12) . . .
157(13) . . .
171(13) . . .
148(12) . . .
167(13) . . .
176(13) . . .
201(14) . . .
188(14) . . .
194(14) . . .
211(15) . . .
193(14) . . .
223(15) . . .
239(15) . . .
251(16) . . .
243(16) . . .
275(17) . . .
268(16) . . .
276(17) . . .
289(17) . . .
289(17) . . .
343(19) . . .
351(19) . . .
337(18) . . .
331(18) . . .
370(19) . . .
339(18) . . .
329(18) . . .
360(19) . . .
341(18) . . .
349(19) . . .
354(19) . . .
371(19) . . .
354(19) . . .
354(19) . . .
343(19) . . .
314(18) . . .
302(17) . . .
300(17) . . .
268(16) . . .
277(17) . . .
244(16) . . .
232(15) . . .
233(15) . . .
228(15) . . .
203(14) . . .
199(14) . . .
207(14) . . .
210(14) . . .
156(12) . . .
166(13) . . .
167(13) . . .
188(14) . . .
143(12) . . .
163(13) . . .
157(13) . . .
135(12) . . .
154(12) . . .
137(12) . . .
144(12) . . .
134(12) . . .
145(12) . . .
121(11) . . .
127(11) . . .
132(11) . . .
116(11) . . .
130(11) . . .
121(11) . . .
106(10) . . .
107(10) . . .
107(10) . . .
101(10) . . .
122(11) . . .
100(10) . . .
84(9) . . .
119(11) . . .
99(10) . . .
104(10) . . .
96(10) . . .
111(11) . . .
99(10) . . .
96(10) . . .
91(10) . . .
112(11) . . .
98(10) . . .
104(10) . . .
98(10) . . .
89(9) . . .
108(10) . . .
96(10) . . .
85(9) . . .
105(10) . . .
100(10) . . .
88(9) . . .
76(9) . . .
89(9) . . .
89(9) . . .
88(9) . . .
92(10) . . .
90(9) . . .
77(9) . . .
98(10) . . .
104(10) . . .
95(10) . . .
108(10) . . .
74(9) . . .
96(10) . . .
96(10) . . .
92(10) . . .
80(9) . . .
90(9) . . .
101(10) . . .
92(10) . . .
89(9) . . .
91(10) . . .
106(10) . . .
88(9) . . .
74(9) . . .
109(10) . . .
84(9) . . .
90(9) . . .
78(9) . . .
82(9) . . .
84(9) . . .
83(9) . . .
87(9) . . .
91(10) . . .
89(9) . . .
103(10) . . .
92(10) . . .
91(10) . . .
87(9) . . .
84(9) . . .
78(9) . . .
90(9) . . .
89(9) . . .
91(10) . . .
88(9) . . .
91(10) . . .
79(9) . . .
89(9) . . .
81(9) . . .
91(10) . . .
101(10) . . .
97(10) . . .
103(10) . . .
86(9) . . .
75(9) . . .
86(9) . . .
88(9) . . .
86(9) . . .
100(10) . . .
81(9) . . .
86(9) . . .
85(9) . . .
80(9) . . .
73(9) . . .
89(9) . . .
84(9) . . .
92(10) . . .
79(9) . . .
98(10) . . .
100(10) . . .
90(9) . . .
99(10) . . .
93(10) . . .
83(9) . . .
89(9) . . .
72(8) . . .
79(9) . . .
86(9) . . .
98(10) . . .
86(9) . . .
92(10) . . .
100(10) . . .
92(10) . . .
90(9) . . .
87(9) . . .
88(9) . . .
90(9) . . .
87(9) . . .
100(10) . . .
80(9) . . .
90(9) . . .
91(10) . . .
95(10) . . .
97(10) . . .
82(9) . . .
105(10) . . .
90(9) . . .
81(9) . . .
87(9) . . .
88(9) . . .
87(9) . . .
81(9) . . .
92(10) . . .
104(10) . . .
82(9) . . .
97(10) . . .
91(10) . . .
84(9) . . .
79(9) . . .
79(9) . . .
93(10) . . .
89(9) . . .
95(10) . . .
87(9) . . .
93(10) . . .
98(10) . . .
84(9) . . .
84(9) . . .
88(9) . . .
90(9) . . .
74(9) . . .
91(10) . . .
83(9) . . .
89(9) . . .
79(9) . . .
85(9) . . .
83(9) . . .
84(9) . . .
94(10) . . .
94(10) . . .
86(9) . . .
78(9) . . .
74(9) . . .
88(9) . . .
79(9) . . .
86(9) . . .
97(10) . . .
82(9) . . .
81(9) . . .
90(9) . . .
84(9) . . .
93(10) . . .
74(9) . . .
89(9) . . .
90(9) . . .
90(9) . . .
93(10) . . .
92(10) . . .
87(9) . . .
84(9) . . .
88(9) . . .
81(9) . . .
82(9) . . .
69(8) . . .
92(10) . . .
75(9) . . .
77(9) . . .
81(9) . . .
91(10) . . .
89(9) . . .
85(9) . . .
109(10) . . .
96(10) . . .
94(10) . . .
80(9) . . .
93(10) . . .
92(10) . . .
82(9) . . .
98(10) . . .
83(9) . . .
75(9) . . .
98(10) . . .
90(9) . . .
92(10) . . .
85(9) . . .
99(10) . . .
83(9) . . .
91(10) . . .
91(10) . . .
85(9) . . .
87(9) . . .
84(9) . . .
98(10) . . .
88(9) . . .
77(9) . . .
88(9) . . .
90(9) . . .
69(8) . . .
89(9) . . .
74(9) . . .
89(9) . . .
84(9) . . .
95(10) . . .
84(9) . . .
80(9) . . .
87(9) . . .
88(9) . . .
85(9) . . .
75(9) . . .
89(9) . . .
88(9) . . .
87(9) . . .
76(9) . . .
91(10) . . .
84(9) . . .
85(9) . . .
95(10) . . .
90(9) . . .
93(10) . . .
90(9) . . .
89(9) . . .
81(9) . . .
86(9) . . .
85(9) . . .
93(10) . . .
83(9) . . .
98(10) . . .
80(9) . . .
96(10) . . .
68(8) . . .
80(9) . . .
79(9) . . .
93(10) . . .
94(10) . . .
75(9) . . .
87(9) . . .
89(9) . . .
75(9) . . .
90(9) . . .
85(9) . . .
90(9) . . .
90(9) . . .
94(10) . . .
90(9) . . .
72(8) . . .
91(10) . . .
80(9) . . .
90(9) . . .
101(10) . . .
86(9) . . .
94(10) . . .
68(8) . . .
76(9) . . .
92(10) . . .
97(10) . . .
89(9) . . .
89(9) . . .
97(10) . . .
90(9) . . .
90(9) . . .
98(10) . . .
89(9) . . .
79(9) . . .
90(9) . . .
85(9) . . .
86(9) . . .
86(9) . . .
99(10) . . .
95(10) . . .
95(10) . . .
81(9) . . .
79(9) . . .
77(9) . . .
82(9) . . .
93(10) . . .
82(9) . . .
85(9) . . .
72(8) . . .
65(8) . . .
94(10) . . .
90(9) . . .
83(9) . . .
93(10) . . .
69(8) . . .
82(9) . . .
72(8) . . .
84(9) . . .
91(10) . . .
87(9) . . .
93(10) . . .
82(9) . . .
82(9) . . .
99(10) . . .
75(9) . . .
80(9) . . .
81(9) . . .
69(8) . . .
96(10) . . .
83(9) . . .
82(9) . . .
93(10) . . .
71(8) . . .
89(9) . . .
82(9) . . .
79(9) . . .
113(11) . . .
91(10) . . .
97(10) . . .
86(9) . . .
87(9) . . .
96(10) . . .
99(10) . . .
93(10) . . .
84(9) . . .
73(9) . . .
101(10) . . .
92(10) . . .
73(9) . . .
78(9) . . .
90(9) . . .
99(10) . . .
93(10) . . .
84(9) . . .
95(10) . . .
98(10) . . .
96(10) . . .
85(9) . . .
96(10) . . .
93(10) . . .
92(10) . . .
91(10) . . .
87(9) . . .
87(9) . . .
88(9) . . .
83(9) . . .
74(9) . . .
71(8) . . .
92(10) . . .
94(10) . . .
88(9) . . .
96(10) . . .
93(10) . . .
86(9) . . .
88(9) . . .
84(9) . . .
86(9) . . .
76(9) . . .
91(10) . . .
77(9) . . .
87(9) . . .
89(9) . . .
81(9) . . .
89(9) . . .
97(10) . . .
85(9) . . .
77(9) . . .
82(9) . . .
91(10) . . .
94(10) . . .
83(9) . . .
75(9) . . .
93(10) . . .
78(9) . . .
93(10) . . .
89(9) . . .
89(9) . . .
85(9) . . .
93(10) . . .
83(9) . . .
79(9) . . .
92(10) . . .
98(10) . . .
81(9) . . .
99(10) . . .
94(10) . . .
78(9) . . .
93(10) . . .
100(10) . . .
96(10) . . .
77(9) . . .
81(9) . . .
92(10) . . .
91(10) . . .
79(9) . . .
86(9) . . .
81(9) . . .
83(9) . . .
88(9) . . .
85(9) . . .
100(10) . . .
84(9) . . .
96(10) . . .
94(10) . . .
86(9) . . .
88(9) . . .
87(9) . . .
94(10) . . .
77(9) . . .
73(9) . . .
89(9) . . .
90(9) . . .
84(9) . . .
66(8) . . .
76(9) . . .
93(10) . . .
86(9) . . .
107(10) . . .
95(10) . . .
85(9) . . .
73(9) . . .
85(9) . . .
80(9) . . .
95(10) . . .
88(9) . . .
92(10) . . .
94(10) . . .
73(9) . . .
71(8) . . .
100(10) . . .
92(10) . . .
82(9) . . .
84(9) . . .
94(10) . . .
87(9) . . .
83(9) . . .
100(10) . . .
87(9) . . .
96(10) . . .
77(9) . . .
90(9) . . .
81(9) . . .
78(9) . . .
89(9) . . .
93(10) . . .
87(9) . . .
81(9) . . .
83(9) . . .
77(9) . . .
81(9) . . .
93(10) . . .
81(9) . . .
70(8) . . .
75(9) . . .
91(10) . . .
85(9) . . .
68(8) . . .
94(10) . . .
85(9) . . .
75(9) . . .
83(9) . . .
91(10) . . .
79(9) . . .
81(9) . . .
90(9) . . .
76(9) . . .
88(9) . . .
99(10) . . .
92(10) . . .
70(8) . . .
89(9) . . .
91(10) . . .
85(9) . . .
75(9) . . .
80(9) . . .
85(9) . . .
100(10) . . .
97(10) . . .
91(10) . . .
84(9) . . .
87(9) . . .
91(10) . . .
93(10) . . .
103(10) . . .
85(9) . . .
88(9) . . .
92(10) . . .
81(9) . . .
73(9) . . .
92(10) . . .
83(9) . . .
83(9) . . .
95(10) . . .
83(9) . . .
91(10) . . .
83(9) . . .
84(9) . . .
102(10) . . .
87(9) . . .
86(9) . . .
82(9) . . .
87(9) . . .
78(9) . . .
86(9) . . .
89(9) . . .
85(9) . . .
84(9) . . .
89(9) . . .
94(10) . . .
77(9) . . .
90(9) . . .
79(9) . . .
87(9) . . .
95(10) . . .
76(9) . . .
82(9) . . .
93(10) . . .
76(9) . . .
87(9) . . .
87(9) . . .
92(10) . . .
73(9) . . .
85(9) . . .
83(9) . . .
93(10) . . .
87(9) . . .
94(10) . . .
88(9) . . .
79(9) . . .
79(9) . . .
83(9) . . .
103(10) . . .
98(10) . . .
90(9) . . .
87(9) . . .
92(10) . . .
80(9) . . .
81(9) . . .
93(10) . . .
74(9) . . .
92(10) . . .
90(9) . . .
95(10) . . .
86(9) . . .
72(8) . . .
97(10) . . .
81(9) . . .
88(9) . . .
80(9) . . .
94(10) . . .
95(10) . . .
86(9) . . .
80(9) . . .
95(10) . . .
93(10) . . .
100(10) . . .
84(9) . . .
80(9) . . .
79(9) . . .
72(8) . . .
95(10) . . .
76(9) . . .
91(10) . . .
85(9) . . .
80(9) . . .
82(9) . . .
89(9) . . .
79(9) . . .
85(9) . . .
87(9) . . .
94(10) . . .
105(10) . . .
83(9) . . .
96(10) . . .
86(9) . . .
93(10) . . .
107(10) . . .
93(10) . . .
94(10) . . .
86(9) . . .
88(9) . . .
85(9) . . .
91(10) . . .
89(9) . . .
86(9) . . .
78(9) . . .
95(10) . . .
97(10) . . .
96(10) . . .
91(10) . . .
93(10) . . .
89(9) . . .
90(9) . . .
93(10) . . .
97(10) . . .
88(9) . . .
98(10) . . .
99(10) . . .
95(10) . . .
80(9) . . .
88(9) . . .
88(9) . . .
87(9) . . .
81(9) . . .
96(10) . . .
85(9) . . .
93(10) . . .
92(10) . . .
91(10) . . .
91(10) . . .
81(9) . . .
91(10) . . .
86(9) . . .
81(9) . . .
73(9) . . .
91(10) . . .
95(10) . . .
76(9) . . .
80(9) . . .
68(8) . . .
73(9) . . .
85(9) . . .
84(9) . . .
86(9) . . .
77(9) . . .
83(9) . . .
76(9) . . .
91(10) . . .
80(9) . . .
86(9) . . .
83(9) . . .
81(9) . . .
89(9) . . .
78(9) . . .
80(9) . . .
84(9) . . .
90(9) . . .
90(9) . . .
89(9) . . .
78(9) . . .
75(9) . . .
77(9) . . .
101(10) . . .
87(9) . . .
85(9) . . .
65(8) . . .
89(9) . . .
91(10) . . .
87(9) . . .
95(10) . . .
95(10) . . .
96(10) . . .
75(9) . . .
83(9) . . .
80(9) . . .
86(9) . . .
82(9) . . .
87(9) . . .
95(10) . . .
80(9) . . .
98(10) . . .
107(10) . . .
88(9) . . .
89(9) . . .
95(10) . . .
79(9) . . .
83(9) . . .
96(10) . . .
93(10) . . .
80(9) . . .
95(10) . . .
95(10) . . .
85(9) . . .
88(9) . . .
98(10) . . .
78(9) . . .
87(9) . . .
92(10) . . .
85(9) . . .
80(9) . . .
82(9) . . .
94(10) . . .
94(10) . . .
91(10) . . .
90(9) . . .
86(9) . . .
102(10) . . .
94(10) . . .
79(9) . . .
92(10) . . .
88(9) . . .
90(9) . . .
82(9) . . .
78(9) . . .
95(10) . . .
82(9) . . .
84(9) . . .
80(9) . . .
102(10) . . .
95(10) . . .
89(9) . . .
83(9) . . .
94(10) . . .
96(10) . . .
87(9) . . .
91(10) . . .
74(9) . . .
82(9) . . .
75(9) . . .
92(10) . . .
83(9) . . .
71(8) . . .
97(10) . . .
81(9) . . .
82(9) . . .
101(10) . . .
86(9) . . .
90(9) . . .
92(10) . . .
86(9) . . .
86(9) . . .
82(9) . . .
96(10) . . .
85(9) . . .
92(10) . . .
83(9) . . .
90(9) . . .
103(10) . . .
95(10) . . .
98(10) . . .
92(10) . . .
87(9) . . .
89(9) . . .
113(11) . . .
85(9) . . .
89(9) . . .
91(10) . . .
85(9) . . .
90(9) . . .
87(9) . . .
80(9) . . .
84(9) . . .
105(10) . . .
94(10) . . .
95(10) . . .
79(9) . . .
83(9) . . .
95(10) . . .
98(10) . . .
81(9) . . .
92(10) . . .
101(10) . . .
85(9) . . .
83(9) . . .
93(10) . . .
82(9) . . .
81(9) . . .
92(10) . . .
86(9) . . .
103(10) . . .
97(10) . . .
78(9) . . .
87(9) . . .
85(9) . . .
78(9) . . .
81(9) . . .
94(10) . . .
85(9) . . .
97(10) . . .
87(9) . . .
85(9) . . .
84(9) . . .
90(9) . . .
80(9) . . .
84(9) . . .
86(9) . . .
92(10) . . .
89(9) . . .
77(9) . . .
84(9) . . .
103(10) . . .
95(10) . . .
84(9) . . .
101(10) . . .
93(10) . . .
83(9) . . .
99(10) . . .
90(9) . . .
101(10) . . .
94(10) . . .
80(9) . . .
89(9) . . .
80(9) . . .
97(10) . . .
91(10) . . .
84(9) . . .
85(9) . . .
81(9) . . .
92(10) . . .
86(9) . . .
91(10) . . .
92(10) . . .
79(9) . . .
84(9) . . .
92(10) . . .
90(9) . . .
103(10) . . .
101(10) . . .
103(10) . . .
106(10) . . .
90(9) . . .
101(10) . . .
93(10) . . .
99(10) . . .
90(9) . . .
86(9) . . .
86(9) . . .
101(10) . . .
94(10) . . .
101(10) . . .
97(10) . . .
88(9) . . .
100(10) . . .
113(11) . . .
97(10) . . .
82(9) . . .
94(10) . . .
86(9) . . .
87(9) . . .
88(9) . . .
92(10) . . .
96(10) . . .
106(10) . . .
109(10) . . .
92(10) . . .
100(10) . . .
84(9) . . .
97(10) . . .
97(10) . . .
100(10) . . .
105(10) . . .
87(9) . . .
101(10) . . .
96(10) . . .
93(10) . . .
98(10) . . .
93(10) . . .
105(10) . . .
94(10) . . .
89(9) . . .
96(10) . . .
93(10) . . .
87(9) . . .
101(10) . . .
91(10) . . .
109(10) . . .
102(10) . . .
90(9) . . .
89(9) . . .
108(10) . . .
87(9) . . .
95(10) . . .
105(10) . . .
100(10) . . .
99(10) . . .
107(10) . . .
95(10) . . .
102(10) . . .
108(10) . . .
109(10) . . .
97(10) . . .
96(10) . . .
114(11) . . .
113(11) . . .
128(11) . . .
124(11) . . .
118(11) . . .
109(10) . . .
120(11) . . .
121(11) . . .
114(11) . . .
124(11) . . .
133(12) . . .
146(12) . . .
126(11) . . .
138(12) . . .
156(12) . . .
151(12) . . .
143(12) . . .
141(12) . . .
141(12) . . .
162(13) . . .
138(12) . . .
150(12) . . .
185(14) . . .
151(12) . . .
161(13) . . .
170(13) . . .
158(13) . . .
164(13) . . .
166(13) . . .
188(14) . . .
211(15) . . .
173(13) . . .
202(14) . . .
212(15) . . .
218(15) . . .
222(15) . . .
227(15) . . .
228(15) . . .
228(15) . . .
246(16) . . .
272(16) . . .
286(17) . . .
291(17) . . .
331(18) . . .
348(19) . . .
350(19) . . .
399(20) . . .
415(20) . . .
382(20) . . .
421(21) . . .
434(21) . . .
439(21) . . .
471(22) . . .
449(21) . . .
478(22) . . .
476(22) . . .
508(23) . . .
457(21) . . .
506(22) . . .
489(22) . . .
474(22) . . .
437(21) . . .
413(20) . . .
452(21) . . .
398(20) . . .
413(20) . . .
385(20) . . .
371(19) . . .
349(19) . . .
356(19) . . .
309(18) . . .
279(17) . . .
313(18) . . .
281(17) . . .
251(16) . . .
227(15) . . .
262(16) . . .
223(15) . . .
217(15) . . .
228(15) . . .
221(15) . . .
210(14) . . .
196(14) . . .
189(14) . . .
170(13) . . .
191(14) . . .
174(13) . . .
171(13) . . .
181(13) . . .
171(13) . . .
161(13) . . .
169(13) . . .
148(12) . . .
147(12) . . .
160(13) . . .
137(12) . . .
121(11) . . .
164(13) . . .
147(12) . . .
130(11) . . .
138(12) . . .
130(11) . . .
129(11) . . .
108(10) . . .
109(10) . . .
108(10) . . .
114(11) . . .
103(10) . . .
144(12) . . .
112(11) . . .
113(11) . . .
129(11) . . .
106(10) . . .
112(11) . . .
107(10) . . .
115(11) . . .
112(11) . . .
107(10) . . .
113(11) . . .
106(10) . . .
117(11) . . .
98(10) . . .
115(11) . . .
105(10) . . .
103(10) . . .
109(10) . . .
104(10) . . .
99(10) . . .
94(10) . . .
108(10) . . .
124(11) . . .
111(11) . . .
102(10) . . .
95(10) . . .
87(9) . . .
105(10) . . .
102(10) . . .
97(10) . . .
102(10) . . .
91(10) . . .
103(10) . . .
89(9) . . .
93(10) . . .
100(10) . . .
107(10) . . .
89(9) . . .
92(10) . . .
112(11) . . .
98(10) . . .
90(9) . . .
94(10) . . .
89(9) . . .
90(9) . . .
98(10) . . .
103(10) . . .
108(10) . . .
107(10) . . .
94(10) . . .
86(9) . . .
97(10) . . .
94(10) . . .
91(10) . . .
97(10) . . .
93(10) . . .
95(10) . . .
99(10) . . .
93(10) . . .
108(10) . . .
120(11) . . .
101(10) . . .
91(10) . . .
90(9) . . .
104(10) . . .
103(10) . . .
99(10) . . .
93(10) . . .
105(10) . . .
92(10) . . .
96(10) . . .
98(10) . . .
100(10) . . .
97(10) . . .
85(9) . . .
107(10) . . .
104(10) . . .
114(11) . . .
101(10) . . .
87(9) . . .
96(10) . . .
102(10) . . .
91(10) . . .
90(9) . . .
98(10) . . .
93(10) . . .
80(9) . . .
105(10) . . .
107(10) . . .
83(9) . . .
85(9) . . .
102(10) . . .
94(10) . . .
106(10) . . .
84(9) . . .
93(10) . . .
97(10) . . .
89(9) . . .
85(9) . . .
86(9) . . .
96(10) . . .
81(9) . . .
101(10) . . .
98(10) . . .
112(11) . . .
104(10) . . .
86(9) . . .
79(9) . . .
93(10) . . .
82(9) . . .
110(10) . . .
88(9) . . .
100(10) . . .
91(10) . . .
89(9) . . .
99(10) . . .
90(9) . . .
92(10) . . .
94(10) . . .
97(10) . . .
98(10) . . .
78(9) . . .
87(9) . . .
106(10) . . .
97(10) . . .
85(9) . . .
93(10) . . .
101(10) . . .
102(10) . . .
86(9) . . .
81(9) . . .
104(10) . . .
113(11) . . .
96(10) . . .
83(9) . . .
95(10) . . .
108(10) . . .
98(10) . . .
83(9) . . .
98(10) . . .
110(10) . . .
103(10) . . .
98(10) . . .
83(9) . . .
92(10) . . .
78(9) . . .
93(10) . . .
107(10) . . .
101(10) . . .
89(9) . . .
84(9) . . .
91(10) . . .
94(10) . . .
99(10) . . .
97(10) . . .
102(10) . . .
76(9) . . .
81(9) . . .
112(11) . . .
102(10) . . .
106(10) . . .
99(10) . . .
99(10) . . .
100(10) . . .
100(10) . . .
97(10) . . .
84(9) . . .
105(10) . . .
90(9) . . .
93(10) . . .
98(10) . . .
85(9) . . .
102(10) . . .
105(10) . . .
113(11) . . .
113(11) . . .
105(10) . . .
92(10) . . .
84(9) . . .
106(10) . . .
88(9) . . .
94(10) . . .
91(10) . . .
97(10) . . .
111(11) . . .
105(10) . . .
94(10) . . .
116(11) . . .
113(11) . . .
107(10) . . .
103(10) . . .
101(10) . . .
119(11) . . .
106(10) . . .
100(10) . . .
108(10) . . .
92(10) . . .
102(10) . . .
89(9) . . .
107(10) . . .
102(10) . . .
105(10) . . .
105(10) . . .
118(11) . . .
120(11) . . .
97(10) . . .
113(11) . . .
112(11) . . .
132(11) . . .
117(11) . . .
111(11) . . .
112(11) . . .
111(11) . . .
121(11) . . .
114(11) . . .
136(12) . . .
128(11) . . .
125(11) . . .
123(11) . . .
123(11) . . .
122(11) . . .
135(12) . . .
136(12) . . .
136(12) . . .
136(12) . . .
128(11) . . .
122(11) . . .
138(12) . . .
141(12) . . .
134(12) . . .
137(12) . . .
154(12) . . .
159(13) . . .
170(13) . . .
140(12) . . .
159(13) . . .
148(12) . . .
168(13) . . .
163(13) . . .
183(14) . . .
193(14) . . .
204(14) . . .
191(14) . . .
202(14) . . .
196(14) . . .
200(14) . . .
205(14) . . .
207(14) . . .
227(15) . . .
223(15) . . .
238(15) . . .
256(16) . . .
268(16) . . .
282(17) . . .
330(18) . . .
300(17) . . .
302(17) . . .
333(18) . . .
344(19) . . .
376(19) . . .
392(20) . . .
397(20) . . .
460(21) . . .
463(22) . . .
490(22) . . .
533(23) . . .
543(23) . . .
606(25) . . .
594(24) . . .
653(26) . . .
676(26) . . .
712(27) . . .
728(27) . . .
809(28) . . .
785(28) . . .
794(28) . . .
815(29) . . .
814(29) . . .
862(29) . . .
831(29) . . .
831(29) . . .
874(30) . . .
824(29) . . .
849(29) . . .
853(29) . . .
798(28) . . .
760(28) . . .
750(27) . . .
732(27) . . .
710(27) . . .
688(26) . . .
671(26) . . .
648(25) . . .
622(25) . . .
586(24) . . .
559(24) . . .
551(23) . . .
488(22) . . .
450(21) . . .
445(21) . . .
400(20) . . .
401(20) . . .
352(19) . . .
356(19) . . .
324(18) . . .
317(18) . . .
291(17) . . .
285(17) . . .
269(16) . . .
260(16) . . .
236(15) . . .
247(16) . . .
228(15) . . .
223(15) . . .
191(14) . . .
224(15) . . .
200(14) . . .
204(14) . . .
209(14) . . .
180(13) . . .
195(14) . . .
179(13) . . .
193(14) . . .
174(13) . . .
166(13) . . .
151(12) . . .
139(12) . . .
155(12) . . .
134(12) . . .
133(12) . . .
141(12) . . .
126(11) . . .
134(12) . . .
131(11) . . .
122(11) . . .
139(12) . . .
126(11) . . .
128(11) . . .
115(11) . . .
124(11) . . .
122(11) . . .
126(11) . . .
109(10) . . .
124(11) . . .
118(11) . . .
121(11) . . .
103(10) . . .
119(11) . . .
126(11) . . .
115(11) . . .
122(11) . . .
115(11) . . .
113(11) . . .
119(11) . . .
107(10) . . .
111(11) . . .
124(11) . . .
104(10) . . .
106(10) . . .
117(11) . . .
103(10) . . .
114(11) . . .
112(11) . . .
103(10) . . .
106(10) . . .
107(10) . . .
101(10) . . .
87(9) . . .
103(10) . . .
117(11) . . .
90(9) . . .
105(10) . . .
89(9) . . .
106(10) . . .
93(10) . . .
83(9) . . .
90(9) . . .
95(10) . . .
103(10) . . .
85(9) . . .
94(10) . . .
84(9) . . .
117(11) . . .
124(11) . . .
99(10) . . .
91(10) . . .
121(11) . . .
103(10) . . .
88(9) . . .
98(10) . . .
101(10) . . .
102(10) . . .
103(10) . . .
97(10) . . .
93(10) . . .
100(10) . . .
100(10) . . .
83(9) . . .
112(11) . . .
101(10) . . .
94(10) . . .
94(10) . . .
94(10) . . .
68(8) . . .
94(10) . . .
98(10) . . .
93(10) . . .
99(10) . . .
91(10) . . .
94(10) . . .
94(10) . . .
89(9) . . .
94(10) . . .
86(9) . . .
97(10) . . .
112(11) . . .
88(9) . . .
86(9) . . .
96(10) . . .
85(9) . . .
89(9) . . .
100(10) . . .
103(10) . . .
94(10) . . .
94(10) . . .
87(9) . . .
95(10) . . .
98(10) . . .
94(10) . . .
91(10) . . .
84(9) . . .
98(10) . . .
114(11) . . .
86(9) . . .
80(9) . . .
86(9) . . .
87(9) . . .
83(9) . . .
86(9) . . .
90(9) . . .
86(9) . . .
84(9) . . .
104(10) . . .
107(10) . . .
74(9) . . .
91(10) . . .
94(10) . . .
106(10) . . .
100(10) . . .
99(10) . . .
103(10) . . .
88(9) . . .
86(9) . . .
88(9) . . .
84(9) . . .
102(10) . . .
91(10) . . .
91(10) . . .
91(10) . . .
86(9) . . .
88(9) . . .
90(9) . . .
79(9) . . .
72(8) . . .
101(10) . . .
96(10) . . .
100(10) . . .
98(10) . . .
98(10) . . .
85(9) . . .
98(10) . . .
82(9) . . .
91(10) . . .
87(9) . . .
91(10) . . .
83(9) . . .
83(9) . . .
83(9) . . .
78(9) . . .
80(9) . . .
97(10) . . .
79(9) . . .
86(9) . . .
78(9) . . .
82(9) . . .
91(10) . . .
98(10) . . .
82(9) . . .
89(9) . . .
99(10) . . .
94(10) . . .
84(9) . . .
101(10) . . .
88(9) . . .
82(9) . . .
80(9) . . .
90(9) . . .
82(9) . . .
94(10) . . .
76(9) . . .
94(10) . . .
89(9) . . .
94(10) . . .
93(10) . . .
89(9) . . .
69(8) . . .
82(9) . . .
78(9) . . .
97(10) . . .
75(9) . . .
85(9) . . .
79(9) . . .
78(9) . . .
78(9) . . .
89(9) . . .
98(10) . . .
96(10) . . .
96(10) . . .
106(10) . . .
90(9) . . .
85(9) . . .
91(10) . . .
93(10) . . .
89(9) . . .
85(9) . . .
94(10) . . .
80(9) . . .
90(9) . . .
90(9) . . .
97(10) . . .
87(9) . . .
99(10) . . .
82(9) . . .
85(9) . . .
116(11) . . .
71(8) . . .
86(9) . . .
75(9) . . .
83(9) . . .
93(10) . . .
78(9) . . .
92(10) . . .
91(10) . . .
84(9) . . .
91(10) . . .
86(9) . . .
86(9) . . .
84(9) . . .
84(9) . . .
92(10) . . .
100(10) . . .
69(8) . . .
93(10) . . .
92(10) . . .
99(10) . . .
82(9) . . .
86(9) . . .
96(10) . . .
91(10) . . .
77(9) . . .
82(9) . . .
97(10) . . .
98(10) . . .
76(9) . . .
76(9) . . .
73(9) . . .
89(9) . . .
107(10) . . .
98(10) . . .
86(9) . . .
85(9) . . .
79(9) . . .
81(9) . . .
88(9) . . .
78(9) . . .
91(10) . . .
92(10) . . .
88(9) . . .
79(9) . . .
59(8) . . .
77(9) . . .
92(10) . . .
106(10) . . .
90(9) . . .
88(9) . . .
73(9) . . .
82(9) . . .
88(9) . . .
92(10) . . .
91(10) . . .
85(9) . . .
98(10) . . .
86(9) . . .
91(10) . . .
86(9) . . .
72(8) . . .
82(9) . . .
89(9) . . .
81(9) . . .
105(10) . . .
86(9) . . .
69(8) . . .
79(9) . . .
82(9) . . .
82(9) . . .
76(9) . . .
76(9) . . .
74(9) . . .
95(10) . . .
98(10) . . .
96(10) . . .
72(8) . . .
81(9) . . .
88(9) . . .
86(9) . . .
89(9) . . .
84(9) . . .
84(9) . . .
91(10) . . .
89(9) . . .
96(10) . . .
96(10) . . .
95(10) . . .
90(9) . . .
84(9) . . .
88(9) . . .
93(10) . . .
99(10) . . .
79(9) . . .
73(9) . . .
92(10) . . .
90(9) . . .
93(10) . . .
87(9) . . .
95(10) . . .
80(9) . . .
73(9) . . .
92(10) . . .
80(9) . . .
86(9) . . .
90(9) . . .
95(10) . . .
86(9) . . .
86(9) . . .
83(9) . . .
87(9) . . .
84(9) . . .
80(9) . . .
92(10) . . .
93(10) . . .
93(10) . . .
92(10) . . .
84(9) . . .
87(9) . . .
84(9) . . .
87(9) . . .
101(10) . . .
82(9) . . .
75(9) . . .
79(9) . . .
90(9) . . .
96(10) . . .
91(10) . . .
68(8) . . .
82(9) . . .
74(9) . . .
85(9) . . .
79(9) . . .
88(9) . . .
75(9) . . .
86(9) . . .
80(9) . . .
66(8) . . .
94(10) . . .
92(10) . . .
95(10) . . .
92(10) . . .
103(10) . . .
80(9) . . .
85(9) . . .
95(10) . . .
81(9) . . .
75(9) . . .
96(10) . . .
91(10) . . .
86(9) . . .
86(9) . . .
88(9) . . .
90(9) . . .
81(9) . . .
79(9) . . .
86(9) . . .
78(9) . . .
85(9) . . .
82(9) . . .
79(9) . . .
78(9) . . .
88(9) . . .
83(9) . . .
73(9) . . .
83(9) . . .
94(10) . . .
95(10) . . .
86(9) . . .
94(10) . . .
84(9) . . .
89(9) . . .
79(9) . . .
69(8) . . .
86(9) . . .
83(9) . . .
95(10) . . .
86(9) . . .
88(9) . . .
92(10) . . .
88(9) . . .
99(10) . . .
78(9) . . .
83(9) . . .
78(9) . . .
94(10) . . .
86(9) . . .
92(10) . . .
79(9) . . .
92(10) . . .
75(9) . . .
87(9) . . .
80(9) . . .
94(10) . . .
67(8) . . .
92(10) . . .
104(10) . . .
87(9) . . .
85(9) . . .
104(10) . . .
83(9) . . .
83(9) . . .
82(9) . . .
78(9) . . .
96(10) . . .
88(9) . . .
106(10) . . .
85(9) . . .
79(9) . . .
86(9) . . .
96(10) . . .
84(9) . . .
74(9) . . .
87(9) . . .
80(9) . . .
86(9) . . .
97(10) . . .
86(9) . . .
78(9) . . .
87(9) . . .
77(9) . . .
91(10) . . .
81(9) . . .
81(9) . . .
87(9) . . .
90(9) . . .
87(9) . . .
79(9) . . .
89(9) . . .
86(9) . . .
86(9) . . .
76(9) . . .
85(9) . . .
77(9) . . .
102(10) . . .
66(8) . . .
84(9) . . .
88(9) . . .
87(9) . . .
79(9) . . .
80(9) . . .
86(9) . . .
93(10) . . .
86(9) . . .
75(9) . . .
90(9) . . .
78(9) . . .
99(10) . . .
97(10) . . .
82(9) . . .
80(9) . . .
74(9) . . .
89(9) . . .
95(10) . . .
97(10) . . .
88(9) . . .
72(8) . . .
94(10) . . .
88(9) . . .
89(9) . . .
80(9) . . .
73(9) . . .
95(10) . . .
88(9) . . .
81(9) . . .
96(10) . . .
89(9) . . .
76(9) . . .
83(9) . . .
78(9) . . .
103(10) . . .
77(9) . . .
89(9) . . .
78(9) . . .
94(10) . . .
89(9) . . .
78(9) . . .
86(9) . . .
76(9) . . .
77(9) . . .
83(9) . . .
88(9) . . .
79(9) . . .
80(9) . . .
72(8) . . .
85(9) . . .
92(10) . . .
96(10) . . .
97(10) . . .
81(9) . . .
84(9) . . .
77(9) . . .
88(9) . . .
84(9) . . .
81(9) . . .
80(9) . . .
102(10) . . .
87(9) . . .
82(9) . . .
88(9) . . .
82(9) . . .
80(9) . . .
86(9) . . .
84(9) . . .
82(9) . . .
91(10) . . .
79(9) . . .
88(9) . . .
91(10) . . .
89(9) . . .
74(9) . . .
83(9) . . .
94(10) . . .
89(9) . . .
63(8) . . .
102(10) . . .
86(9) . . .
87(9) . . .
76(9) . . .
90(9) . . .
80(9) . . .
74(9) . . .
86(9) . . .
90(9) . . .
91(10) . . .
83(9) . . .
76(9) . . .
84(9) . . .
79(9) . . .
82(9) . . .
82(9) . . .
88(9) . . .
80(9) . . .
81(9) . . .
90(9) . . .
73(9) . . .
81(9) . . .
73(9) . . .
84(9) . . .
94(10) . . .
89(9) . . .
94(10) . . .
87(9) . . .
88(9) . . .
75(9) . . .
81(9) . . .
102(10) . . .
90(9) . . .
85(9) . . .
85(9) . . .
86(9) . . .
88(9) . . .
85(9) . . .
92(10) . . .
80(9) . . .
80(9) . . .
76(9) . . .
89(9) . . .
98(10) . . .
74(9) . . .
94(10) . . .
98(10) . . .
98(10) . . .
90(9) . . .
69(8) . . .
79(9) . . .
88(9) . . .
77(9) . . .
85(9) . . .
72(8) . . .
80(9) . . .
92(10) . . .
87(9) . . .
90(9) . . .
88(9) . . .
88(9) . . .
86(9) . . .
80(9) . . .
93(10) . . .
77(9) . . .
84(9) . . .
79(9) . . .
76(9) . . .
78(9) . . .
80(9) . . .
78(9) . . .
90(9) . . .
73(9) . . .
75(9) . . .
71(8) . . .
91(10) . . .
84(9) . . .
77(9) . . .
90(9) . . .
93(10) . . .
98(10) . . .
78(9) . . .
89(9) . . .
90(9) . . .
82(9) . . .
99(10) . . .
86(9) . . .
80(9) . . .
87(9) . . .
97(10) . . .
88(9) . . .
82(9) . . .
90(9) . . .
84(9) . . .
81(9) . . .
84(9) . . .
76(9) . . .
87(9) . . .
82(9) . . .
93(10) . . .
84(9) . . .
93(10) . . .
87(9) . . .
92(10) . . .
86(9) . . .
78(9) . . .
86(9) . . .
95(10) . . .
69(8) . . .
91(10) . . .
93(10) . . .
103(10) . . .
87(9) . . .
63(8) . . .
97(10) . . .
90(9) . . .
85(9) . . .
84(9) . . .
92(10) . . .
105(10) . . .
72(8) . . .
81(9) . . .
84(9) . . .
84(9) . . .
81(9) . . .
88(9) . . .
80(9) . . .
89(9) . . .
82(9) . . .
82(9) . . .
80(9) . . .
92(10) . . .
73(9) . . .
85(9) . . .
68(8) . . .
80(9) . . .
74(9) . . .
90(9) . . .
81(9) . . .
81(9) . . .
80(9) . . .
81(9) . . .
80(9) . . .
93(10) . . .
77(9) . . .
72(8) . . .
76(9) . . .
80(9) . . .
84(9) . . .
87(9) . . .
82(9) . . .
87(9) . . .
81(9) . . .
81(9) . . .
84(9) . . .
78(9) . . .
82(9) . . .
86(9) . . .
85(9) . . .
85(9) . . .
81(9) . . .
93(10) . . .
83(9) . . .
90(9) . . .
114(11) . . .
91(10) . . .
84(9) . . .
87(9) . . .
77(9) . . .
79(9) . . .
76(9) . . .
83(9) . . .
78(9) . . .
79(9) . . .
80(9) . . .
86(9) . . .
102(10) . . .
84(9) . . .
92(10) . . .
70(8) . . .
82(9) . . .
94(10) . . .
83(9) . . .
90(9) . . .
94(10) . . .
85(9) . . .
91(10) . . .
87(9) . . .
95(10) . . .
90(9) . . .
101(10) . . .
74(9) . . .
92(10) . . .
77(9) . . .
79(9) . . .
94(10) . . .
85(9) . . .
81(9) . . .
93(10) . . .
94(10) . . .
85(9) . . .
82(9) . . .
101(10) . . .
84(9) . . .
95(10) . . .
73(9) . . .
88(9) . . .
95(10) . . .
86(9) . . .
90(9) . . .
95(10) . . .
91(10) . . .
96(10) . . .
89(9) . . .
78(9) . . .
104(10) . . .
98(10) . . .
89(9) . . .
88(9) . . .
74(9) . . .
86(9) . . .
94(10) . . .
73(9) . . .
83(9) . . .
78(9) . . .
85(9) . . .
81(9) . . .
82(9) . . .
93(10) . . .
76(9) . . .
73(9) . . .
86(9) . . .
83(9) . . .
85(9) . . .
78(9) . . .
95(10) . . .
95(10) . . .
82(9) . . .
87(9) . . .
85(9) . . .
92(10) . . .
81(9) . . .
94(10) . . .
87(9) . . .
96(10) . . .
86(9) . . .
73(9) . . .
77(9) . . .
81(9) . . .
80(9) . . .
89(9) . . .
82(9) . . .
88(9) . . .
91(10) . . .
100(10) . . .
79(9) . . .
90(9) . . .
79(9) . . .
96(10) . . .
88(9) . . .
74(9) . . .
85(9) . . .
98(10) . . .
100(10) . . .
78(9) . . .
85(9) . . .
96(10) . . .
83(9) . . .
80(9) . . .
86(9) . . .
93(10) . . .
86(9) . . .
90(9) . . .
81(9) . . .
82(9) . . .
80(9) . . .
76(9) . . .
85(9) . . .
88(9) . . .
91(10) . . .
83(9) . . .
86(9) . . .
80(9) . . .
81(9) . . .
71(8) . . .
82(9) . . .
90(9) . . .
81(9) . . .
85(9) . . .
90(9) . . .
87(9) . . .
79(9) . . .
87(9) . . .
74(9) . . .
84(9) . . .
97(10) . . .
97(10) . . .
89(9) . . .
96(10) . . .
90(9) . . .
90(9) . . .
101(10) . . .
81(9) . . .
87(9) . . .
94(10) . . .
91(10) . . .
71(8) . . .
76(9) . . .
86(9) . . .
75(9) . . .
84(9) . . .
78(9) . . .
81(9) . . .
74(9) . . .
82(9) . . .
93(10) . . .
71(8) . . .
87(9) . . .
86(9) . . .
89(9) . . .
85(9) . . .
84(9) . . .
94(10) . . .
83(9) . . .
78(9) . . .
83(9) . . .
89(9) . . .
83(9) . . .
80(9) . . .
81(9) . . .
83(9) . . .
86(9) . . .
96(10) . . .
81(9) . . .
85(9) . . .
86(9) . . .
82(9) . . .
78(9) . . .
93(10) . . .
85(9) . . .
94(10) . . .
78(9) . . .
91(10) . . .
82(9) . . .
93(10) . . .
98(10) . . .
89(9) . . .
90(9) . . .
83(9) . . .
72(8) . . .
72(8) . . .
76(9) . . .
93(10) . . .
87(9) . . .
75(9) . . .
84(9) . . .
92(10) . . .
81(9) . . .
90(9) . . .
87(9) . . .
92(10) . . .
89(9) . . .
86(9) . . .
98(10) . . .
91(10) . . .
88(9) . . .
93(10) . . .
67(8) . . .
102(10) . . .
75(9) . . .
90(9) . . .
87(9) . . .
90(9) . . .
97(10) . . .
94(10) . . .
91(10) . . .
82(9) . . .
106(10) . . .
91(10) . . .
77(9) . . .
76(9) . . .
79(9) . . .
97(10) . . .
74(9) . . .
91(10) . . .
85(9) . . .
87(9) . . .
91(10) . . .
75(9) . . .
92(10) . . .
83(9) . . .
76(9) . . .
82(9) . . .
83(9) . . .
101(10) . . .
90(9) . . .
71(8) . . .
81(9) . . .
82(9) . . .
108(10) . . .
91(10) . . .
85(9) . . .
85(9) . . .
89(9) . . .
97(10) . . .
95(10) . . .
80(9) . . .
90(9) . . .
84(9) . . .
100(10) . . .
86(9) . . .
89(9) . . .
93(10) . . .
83(9) . . .
77(9) . . .
85(9) . . .
88(9) . . .
77(9) . . .
86(9) . . .
80(9) . . .
86(9) . . .
105(10) . . .
92(10) . . .
92(10) . . .
91(10) . . .
105(10) . . .
90(9) . . .
79(9) . . .
77(9) . . .
77(9) . . .
95(10) . . .
85(9) . . .
92(10) . . .
73(9) . . .
75(9) . . .
91(10) . . .
88(9) . . .
95(10) . . .
79(9) . . .
86(9) . . .
93(10) . . .
86(9) . . .
89(9) . . .
80(9) . . .
73(9) . . .
87(9) . . .
84(9) . . .
94(10) . . .
77(9) . . .
98(10) . . .
88(9) . . .
88(9) . . .
95(10) . . .
99(10) . . .
86(9) . . .
88(9) . . .
86(9) . . .
86(9) . . .
87(9) . . .
93(10) . . .
86(9) . . .
87(9) . . .
81(9) . . .
85(9) . . .
87(9) . . .
93(10) . . .
87(9) . . .
78(9) . . .
91(10) . . .
84(9) . . .
86(9) . . .
84(9) . . .
101(10) . . .
96(10) . . .
79(9) . . .
88(9) . . .
95(10) . . .
93(10) . . .
99(10) . . .
93(10) . . .
84(9) . . .
90(9) . . .
102(10) . . .
86(9) . . .
90(9) . . .
89(9) . . .
89(9) . . .
91(10) . . .
76(9) . . .
105(10) . . .
103(10) . . .
93(10) . . .
85(9) . . .
90(9) . . .
101(10) . . .
88(9) . . .
100(10) . . .
90(9) . . .
92(10) . . .
88(9) . . .
75(9) . . .
87(9) . . .
77(9) . . .
103(10) . . .
85(9) . . .
82(9) . . .
95(10) . . .
82(9) . . .
88(9) . . .
87(9) . . .
108(10) . . .
78(9) . . .
93(10) . . .
86(9) . . .
96(10) . . .
89(9) . . .
78(9) . . .
97(10) . . .
83(9) . . .
78(9) . . .
104(10) . . .
80(9) . . .
100(10) . . .
90(9) . . .
103(10) . . .
101(10) . . .
90(9) . . .
90(9) . . .
99(10) . . .
79(9) . . .
80(9) . . .
97(10) . . .
87(9) . . .
105(10) . . .
92(10) . . .
104(10) . . .
100(10) . . .
85(9) . . .
79(9) . . .
90(9) . . .
101(10) . . .
80(9) . . .
93(10) . . .
121(11) . . .
81(9) . . .
94(10) . . .
73(9) . . .
84(9) . . .
86(9) . . .
96(10) . . .
101(10) . . .
85(9) . . .
95(10) . . .
104(10) . . .
86(9) . . .
82(9) . . .
99(10) . . .
86(9) . . .
97(10) . . .
71(8) . . .
91(10) . . .
86(9) . . .
89(9) . . .
94(10) . . .
81(9) . . .
105(10) . . .
93(10) . . .
87(9) . . .
86(9) . . .
82(9) . . .
81(9) . . .
107(10) . . .
90(9) . . .
93(10) . . .
88(9) . . .
97(10) . . .
84(9) . . .
87(9) . . .
96(10) . . .
97(10) . . .
91(10) . . .
101(10) . . .
96(10) . . .
96(10) . . .
99(10) . . .
94(10) . . .
91(10) . . .
81(9) . . .
105(10) . . .
89(9) . . .
110(10) . . .
89(9) . . .
97(10) . . .
78(9) . . .
102(10) . . .
106(10) . . .
102(10) . . .
85(9) . . .
94(10) . . .
85(9) . . .
73(9) . . .
88(9) . . .
102(10) . . .
94(10) . . .
103(10) . . .
109(10) . . .
95(10) . . .
95(10) . . .
102(10) . . .
88(9) . . .
109(10) . . .
93(10) . . .
106(10) . . .
92(10) . . .
110(10) . . .
100(10) . . .
78(9) . . .
83(9) . . .
80(9) . . .
79(9) . . .
104(10) . . .
87(9) . . .
94(10) . . .
89(9) . . .
81(9) . . .
109(10) . . .
78(9) . . .
89(9) . . .
85(9) . . .
101(10) . . .
100(10) . . .
100(10) . . .
91(10) . . .
88(9) . . .
100(10) . . .
101(10) . . .
92(10) . . .
98(10) . . .
101(10) . . .
93(10) . . .
108(10) . . .
106(10) . . .
104(10) . . .
95(10) . . .
95(10) . . .
92(10) . . .
98(10) . . .
99(10) . . .
81(9) . . .
99(10) . . .
91(10) . . .
98(10) . . .
87(9) . . .
102(10) . . .
98(10) . . .
89(9) . . .
85(9) . . .
97(10) . . .
99(10) . . .
99(10) . . .
110(10) . . .
107(10) . . .
88(9) . . .
110(10) . . .
100(10) . . .
89(9) . . .
98(10) . . .
92(10) . . .
119(11) . . .
104(10) . . .
100(10) . . .
106(10) . . .
105(10) . . .
98(10) . . .
110(10) . . .
104(10) . . .
100(10) . . .
96(10) . . .
87(9) . . .
96(10) . . .
119(11) . . .
112(11) . . .
104(10) . . .
100(10) . . .
110(10) . . .
88(9) . . .
99(10) . . .
96(10) . . .
93(10) . . .
110(10) . . .
108(10) . . .
90(9) . . .
93(10) . . .
111(11) . . .
100(10) . . .
112(11) . . .
113(11) . . .
100(10) . . .
100(10) . . .
104(10) . . .
110(10) . . .
115(11) . . .
104(10) . . .
100(10) . . .
104(10) . . .
111(11) . . .
118(11) . . .
105(10) . . .
111(11) . . .
112(11) . . .
114(11) . . .
106(10) . . .
121(11) . . .
124(11) . . .
110(10) . . .
103(10) . . .
114(11) . . .
114(11) . . .
116(11) . . .
91(10) . . .
118(11) . . .
127(11) . . .
105(10) . . .
129(11) . . .
127(11) . . .
129(11) . . .
106(10) . . .
137(12) . . .
123(11) . . .
117(11) . . .
122(11) . . .
141(12) . . .
138(12) . . .
134(12) . . .
130(11) . . .
152(12) . . .
136(12) . . .
134(12) . . .
163(13) . . .
154(12) . . .
145(12) . . .
163(13) . . .
155(12) . . .
174(13) . . .
168(13) . . .
171(13) . . .
150(12) . . .
167(13) . . .
184(14) . . .
200(14) . . .
204(14) . . .
193(14) . . .
193(14) . . .
191(14) . . .
202(14) . . .
211(15) . . .
223(15) . . .
223(15) . . .
227(15) . . .
225(15) . . .
254(16) . . .
242(16) . . .
276(17) . . .
289(17) . . .
257(16) . . .
257(16) . . .
315(18) . . .
322(18) . . .
333(18) . . .
329(18) . . .
369(19) . . .
373(19) . . .
395(20) . . .
383(20) . . .
406(20) . . .
428(21) . . .
502(22) . . .
513(23) . . .
528(23) . . .
521(23) . . .
558(24) . . .
591(24) . . .
611(25) . . .
634(25) . . .
705(27) . . .
669(26) . . .
683(26) . . .
738(27) . . .
728(27) . . .
792(28) . . .
800(28) . . .
801(28) . . .
823(29) . . .
810(28) . . .
812(28) . . .
826(29) . . .
843(29) . . .
821(29) . . .
777(28) . . .
788(28) . . .
830(29) . . .
738(27) . . .
739(27) . . .
671(26) . . .
710(27) . . .
640(25) . . .
636(25) . . .
641(25) . . .
574(24) . . .
555(24) . . .
547(23) . . .
502(22) . . .
511(23) . . .
471(22) . . .
458(21) . . .
453(21) . . .
406(20) . . .
393(20) . . .
364(19) . . .
350(19) . . .
321(18) . . .
329(18) . . .
298(17) . . .
293(17) . . .
296(17) . . .
261(16) . . .
274(17) . . .
236(15) . . .
265(16) . . .
227(15) . . .
221(15) . . .
209(14) . . .
226(15) . . .
209(14) . . .
205(14) . . .
221(15) . . .
195(14) . . .
165(13) . . .
192(14) . . .
166(13) . . .
172(13) . . .
160(13) . . .
174(13) . . .
162(13) . . .
174(13) . . .
161(13) . . .
158(13) . . .
152(12) . . .
151(12) . . .
150(12) . . .
161(13) . . .
133(12) . . .
153(12) . . .
150(12) . . .
135(12) . . .
120(11) . . .
137(12) . . .
123(11) . . .
133(12) . . .
136(12) . . .
151(12) . . .
141(12) . . .
131(11) . . .
129(11) . . .
136(12) . . .
133(12) . . .
129(11) . . .
116(11) . . .
129(11) . . .
123(11) . . .
120(11) . . .
116(11) . . .
124(11) . . .
109(10) . . .
122(11) . . .
110(10) . . .
117(11) . . .
127(11) . . .
103(10) . . .
127(11) . . .
128(11) . . .
108(10) . . .
100(10) . . .
98(10) . . .
114(11) . . .
114(11) . . .
110(10) . . .
92(10) . . .
118(11) . . .
109(10) . . .
103(10) . . .
111(11) . . .
99(10) . . .
104(10) . . .
89(9) . . .
114(11) . . .
130(11) . . .
100(10) . . .
111(11) . . .
118(11) . . .
98(10) . . .
87(9) . . .
118(11) . . .
97(10) . . .
85(9) . . .
104(10) . . .
105(10) . . .
105(10) . . .
116(11) . . .
111(11) . . .
87(9) . . .
87(9) . . .
88(9) . . .
96(10) . . .
94(10) . . .
97(10) . . .
95(10) . . .
87(9) . . .
106(10) . . .
84(9) . . .
100(10) . . .
96(10) . . .
98(10) . . .
107(10) . . .
89(9) . . .
84(9) . . .
102(10) . . .
93(10) . . .
83(9) . . .
113(11) . . .
89(9) . . .
92(10) . . .
92(10) . . .
102(10) . . .
92(10) . . .
96(10) . . .
97(10) . . .
97(10) . . .
93(10) . . .
98(10) . . .
107(10) . . .
82(9) . . .
90(9) . . .
79(9) . . .
89(9) . . .
101(10) . . .
99(10) . . .
96(10) . . .
127(11) . . .
100(10) . . .
92(10) . . .
102(10) . . .
92(10) . . .
110(10) . . .
96(10) . . .
90(9) . . .
102(10) . . .
76(9) . . .
97(10) . . .
99(10) . . .
89(9) . . .
78(9) . . .
106(10) . . .
90(9) . . .
90(9) . . .
104(10) . . .
89(9) . . .
108(10) . . .
89(9) . . .
90(9) . . .
94(10) . . .
105(10) . . .
91(10) . . .
83(9) . . .
97(10) . . .
101(10) . . .
91(10) . . .
85(9) . . .
113(11) . . .
111(11) . . .
98(10) . . .
94(10) . . .
78(9) . . .
89(9) . . .
91(10) . . .
112(11) . . .
98(10) . . .
93(10) . . .
103(10) . . .
88(9) . . .
93(10) . . .
104(10) . . .
96(10) . . .
86(9) . . .
88(9) . . .
95(10) . . .
89(9) . . .
97(10) . . .
94(10) . . .
99(10) . . .
107(10) . . .
99(10) . . .
100(10) . . .
86(9) . . .
101(10) . . .
96(10) . . .
89(9) . . .
99(10) . . .
77(9) . . .
77(9) . . .
94(10) . . .
86(9) . . .
94(10) . . .
94(10) . . .
95(10) . . .
94(10) . . .
97(10) . . .
100(10) . . .
99(10) . . .
86(9) . . .
93(10) . . .
83(9) . . .
89(9) . . .
91(10) . . .
84(9) . . .
101(10) . . .
88(9) . . .
94(10) . . .
104(10) . . .
87(9) . . .
87(9) . . .
92(10) . . .
97(10) . . .
86(9) . . .
81(9) . . .
95(10) . . .
100(10) . . .
72(8) . . .
86(9) . . .
102(10) . . .
93(10) . . .
108(10) . . .
102(10) . . .
94(10) . . .
92(10) . . .
99(10) . . .
110(10) . . .
87(9) . . .
89(9) . . .
87(9) . . .
86(9) . . .
93(10) . . .
107(10) . . .
97(10) . . .
90(9) . . .
103(10) . . .
89(9) . . .
90(9) . . .
92(10) . . .
83(9) . . .
100(10) . . .
93(10) . . .
83(9) . . .
99(10) . . .
81(9) . . .
97(10) . . .
80(9) . . .
92(10) . . .
92(10) . . .
86(9) . . .
92(10) . . .
84(9) . . .
99(10) . . .
85(9) . . .
102(10) . . .
77(9) . . .
87(9) . . .
72(8) . . .
96(10) . . .
102(10) . . .
88(9) . . .
82(9) . . .
75(9) . . .
104(10) . . .
104(10) . . .
88(9) . . .
104(10) . . .
90(9) . . .
96(10) . . .
111(11) . . .
93(10) . . .
95(10) . . .
96(10) . . .
81(9) . . .
83(9) . . .
96(10) . . .
94(10) . . .
95(10) . . .
93(10) . . .
94(10) . . .
92(10) . . .
95(10) . . .
93(10) . . .
103(10) . . .
98(10) . . .
86(9) . . .
95(10) . . .
100(10) . . .
88(9) . . .
96(10) . . .
98(10) . . .
84(9) . . .
96(10) . . .
91(10) . . .
93(10) . . .
93(10) . . .
87(9) . . .
87(9) . . .
94(10) . . .
103(10) . . .
91(10) . . .
86(9) . . .
82(9) . . .
72(8) . . .
96(10) . . .
86(9) . . .
84(9) . . .
86(9) . . .
98(10) . . .
106(10) . . .
83(9) . . .
108(10) . . .
117(11) . . .
101(10) . . .
94(10) . . .
84(9) . . .
107(10) . . .
95(10) . . .
86(9) . . .
97(10) . . .
99(10) . . .
104(10) . . .
99(10) . . .
97(10) . . .
82(9) . . .
107(10) . . .
81(9) . . .
89(9) . . .
89(9) . . .
92(10) . . .
79(9) . . .
94(10) . . .
96(10) . . .
84(9) . . .
92(10) . . .
82(9) . . .
80(9) . . .
104(10) . . .
117(11) . . .
76(9) . . .
99(10) . . .
91(10) . . .
82(9) . . .
95(10) . . .
97(10) . . .
96(10) . . .
98(10) . . .
100(10) . . .
89(9) . . .
94(10) . . .
92(10) . . .
94(10) . . .
94(10) . . .
91(10) . . .
96(10) . . .
91(10) . . .
81(9) . . .
80(9) . . .
88(9) . . .
97(10) . . .
89(9) . . .
94(10) . . .
92(10) . . .
101(10) . . .
95(10) . . .
99(10) . . .
82(9) . . .
79(9) . . .
94(10) . . .
89(9) . . .
106(10) . . .
87(9) . . .
73(9) . . .
101(10) . . .
91(10) . . .
80(9) . . .
96(10) . . .
81(9) . . .
96(10) . . .
103(10) . . .
87(9) . . .
83(9) . . .
84(9) . . .
97(10) . . .
79(9) . . .
103(10) . . .
105(10) . . .
102(10) . . .
105(10) . . .
95(10) . . .
96(10) . . .
99(10) . . .
87(9) . . .
83(9) . . .
96(10) . . .
100(10) . . .
81(9) . . .
87(9) . . .
80(9) . . .
105(10) . . .
91(10) . . .
102(10) . . .
90(9) . . .
102(10) . . .
85(9) . . .
87(9) . . .
90(9) . . .
87(9) . . .
88(9) . . .
98(10) . . .
80(9) . . .
107(10) . . .
102(10) . . .
84(9) . . .
82(9) . . .
101(10) . . .
88(9) . . .
87(9) . . .
99(10) . . .
89(9) . . .
93(10) . . .
86(9) . . .
100(10) . . .
91(10) . . .
85(9) . . .
96(10) . . .
118(11) . . .
98(10) . . .
85(9) . . .
80(9) . . .
82(9) . . .
86(9) . . .
88(9) . . .
91(10) . . .
94(10) . . .
97(10) . . .
95(10) . . .
92(10) . . .
93(10) . . .
75(9) . . .
108(10) . . .
101(10) . . .
88(9) . . .
71(8) . . .
88(9) . . .
101(10) . . .
96(10) . . .
82(9) . . .
78(9) . . .
93(10) . . .
91(10) . . .
88(9) . . .
91(10) . . .
102(10) . . .
80(9) . . .
77(9) . . .
97(10) . . .
88(9) . . .
91(10) . . .
92(10) . . .
94(10) . . .
103(10) . . .
99(10) . . .
94(10) . . .
93(10) . . .
87(9) . . .
85(9) . . .
94(10) . . .
99(10) . . .
101(10) . . .
95(10) . . .
108(10) . . .
103(10) . . .
94(10) . . .
92(10) . . .
99(10) . . .
94(10) . . .
88(9) . . .
92(10) . . .
101(10) . . .
90(9) . . .
78(9) . . .
95(10) . . .
86(9) . . .
90(9) . . .
90(9) . . .
95(10) . . .
109(10) . . .
94(10) . . .
81(9) . . .
99(10) . . .
94(10) . . .
92(10) . . .
100(10) . . .
100(10) . . .
101(10) . . .
97(10) . . .
83(9) . . .
86(9) . . .
90(9) . . .
102(10) . . .
87(9) . . .
87(9) . . .
112(11) . . .
91(10) . . .
90(9) . . .
116(11) . . .
86(9) . . .
82(9) . . .
97(10) . . .
94(10) . . .
89(9) . . .
95(10) . . .
100(10) . . .
93(10) . . .
82(9) . . .
93(10) . . .
98(10) . . .
91(10) . . .
99(10) . . .
98(10) . . .
68(8) . . .
94(10) . . .
108(10) . . .
102(10) . . .
100(10) . . .
102(10) . . .
94(10) . . .
89(9) . . .
94(10) . . .
103(10) . . .
99(10) . . .
91(10) . . .
104(10) . . .
84(9) . . .
100(10) . . .
99(10) . . .
97(10) . . .
92(10) . . .
101(10) . . .
83(9) . . .
93(10) . . .
89(9) . . .
100(10) . . .
87(9) . . .
91(10) . . .
87(9) . . .
95(10) . . .
92(10) . . .
87(9) . . .
102(10) . . .
108(10) . . .
93(10) . . .
92(10) . . .
95(10) . . .
96(10) . . .
94(10) . . .
83(9) . . .
88(9) . . .
75(9) . . .
87(9) . . .
94(10) . . .
99(10) . . .
88(9) . . .
107(10) . . .
97(10) . . .
98(10) . . .
97(10) . . .
91(10) . . .
96(10) . . .
101(10) . . .
80(9) . . .
88(9) . . .
102(10) . . .
81(9) . . .
102(10) . . .
83(9) . . .
84(9) . . .
82(9) . . .
97(10) . . .
94(10) . . .
95(10) . . .
86(9) . . .
96(10) . . .
99(10) . . .
90(9) . . .
103(10) . . .
97(10) . . .
99(10) . . .
93(10) . . .
85(9) . . .
92(10) . . .
98(10) . . .
101(10) . . .
100(10) . . .
86(9) . . .
80(9) . . .
106(10) . . .
102(10) . . .
93(10) . . .
105(10) . . .
98(10) . . .
96(10) . . .
111(11) . . .
91(10) . . .
97(10) . . .
89(9) . . .
76(9) . . .
83(9) . . .
102(10) . . .
112(11) . . .
106(10) . . .
90(9) . . .
98(10) . . .
101(10) . . .
78(9) . . .
100(10) . . .
98(10) . . .
96(10) . . .
93(10) . . .
95(10) . . .
92(10) . . .
89(9) . . .
101(10) . . .
90(9) . . .
107(10) . . .
106(10) . . .
99(10) . . .
91(10) . . .
94(10) . . .
95(10) . . .
100(10) . . .
67(8) . . .
89(9) . . .
83(9) . . .
79(9) . . .
89(9) . . .
92(10) . . .
85(9) . . .
93(10) . . .
101(10) . . .
92(10) . . .
88(9) . . .
98(10) . . .
99(10) . . .
109(10) . . .
88(9) . . .
83(9) . . .
96(10) . . .
102(10) . . .
95(10) . . .
91(10) . . .
97(10) . . .
93(10) . . .
112(11) . . .
114(11) . . .
98(10) . . .
86(9) . . .
103(10) . . .
83(9) . . .
92(10) . . .
101(10) . . .
113(11) . . .
108(10) . . .
90(9) . . .
99(10) . . .
96(10) . . .
87(9) . . .
90(9) . . .
109(10) . . .
108(10) . . .
105(10) . . .
98(10) . . .
104(10) . . .
106(10) . . .
101(10) . . .
91(10) . . .
87(9) . . .
117(11) . . .
94(10) . . .
94(10) . . .
97(10) . . .
99(10) . . .
79(9) . . .
93(10) . . .
88(9) . . .
89(9) . . .
95(10) . . .
92(10) . . .
105(10) . . .
92(10) . . .
95(10) . . .
101(10) . . .
87(9) . . .
106(10) . . .
88(9) . . .
99(10) . . .
109(10) . . .
104(10) . . .
96(10) . . .
89(9) . . .
92(10) . . .
88(9) . . .
91(10) . . .
86(9) . . .
89(9) . . .
106(10) . . .
91(10) . . .
87(9) . . .
93(10) . . .
83(9) . . .
93(10) . . .
98(10) . . .
77(9) . . .
89(9) . . .
77(9) . . .
105(10) . . .
83(9) . . .
94(10) . . .
99(10) . . .
114(11) . . .
87(9) . . .
101(10) . . .
95(10) . . .
89(9) . . .
91(10) . . .
100(10) . . .
87(9) . . .
102(10) . . .
92(10) . . .
87(9) . . .
101(10) . . .
95(10) . . .
99(10) . . .
103(10) . . .
93(10) . . .
91(10) . . .
94(10) . . .
103(10) . . .
88(9) . . .
108(10) . . .
91(10) . . .
83(9) . . .
116(11) . . .
105(10) . . .
95(10) . . .
108(10) . . .
90(9) . . .
101(10) . . .
97(10) . . .
117(11) . . .
112(11) . . .
96(10) . . .
93(10) . . .
107(10) . . .
99(10) . . .
71(8) . . .
80(9) . . .
98(10) . . .
108(10) . . .
113(11) . . .
97(10) . . .
114(11) . . .
106(10) . . .
102(10) . . .
96(10) . . .
102(10) . . .
95(10) . . .
91(10) . . .
117(11) . . .
93(10) . . .
85(9) . . .
81(9) . . .
92(10) . . .
97(10) . . .
91(10) . . .
97(10) . . .
91(10) . . .
96(10) . . .
101(10) . . .
101(10) . . .
89(9) . . .
88(9) . . .
100(10) . . .
85(9) . . .
90(9) . . .
101(10) . . .
85(9) . . .
82(9) . . .
95(10) . . .
98(10) . . .
99(10) . . .
107(10) . . .
100(10) . . .
80(9) . . .
94(10) . . .
97(10) . . .
103(10) . . .
86(9) . . .
99(10) . . .
101(10) . . .
96(10) . . .
100(10) . . .
96(10) . . .
96(10) . . .
109(10) . . .
129(11) . . .
109(10) . . .
93(10) . . .
91(10) . . .
120(11) . . .
96(10) . . .
86(9) . . .
94(10) . . .
99(10) . . .
88(9) . . .
95(10) . . .
98(10) . . .
107(10) . . .
109(10) . . .
97(10) . . .
99(10) . . .
100(10) . . .
99(10) . . .
87(9) . . .
94(10) . . .
97(10) . . .
103(10) . . .
104(10) . . .
95(10) . . .
90(9) . . .
96(10) . . .
111(11) . . .
102(10) . . .
116(11) . . .
94(10) . . .
98(10) . . .
93(10) . . .
97(10) . . .
102(10) . . .
89(9) . . .
102(10) . . .
95(10) . . .
105(10) . . .
98(10) . . .
108(10) . . .
94(10) . . .
110(10) . . .
95(10) . . .
91(10) . . .
93(10) . . .
106(10) . . .
90(9) . . .
94(10) . . .
101(10) . . .
100(10) . . .
105(10) . . .
110(10) . . .
100(10) . . .
92(10) . . .
92(10) . . .
93(10) . . .
107(10) . . .
101(10) . . .
105(10) . . .
99(10) . . .
107(10) . . .
98(10) . . .
103(10) . . .
86(9) . . .
94(10) . . .
85(9) . . .
92(10) . . .
105(10) . . .
106(10) . . .
104(10) . . .
93(10) . . .
98(10) . . .
100(10) . . .
117(11) . . .
107(10) . . .
102(10) . . .
101(10) . . .
111(11) . . .
104(10) . . .
117(11) . . .
114(11) . . .
112(11) . . .
101(10) . . .
102(10) . . .
118(11) . . .
96(10) . . .
105(10) . . .
101(10) . . .
101(10) . . .
106(10) . . .
110(10) . . .
96(10) . . .
125(11) . . .
102(10) . . .
103(10) . . .
108(10) . . .
94(10) . . .
105(10) . . .
122(11) . . .
94(10) . . .
101(10) . . .
111(11) . . .
111(11) . . .
91(10) . . .
125(11) . . .
133(12) . . .
110(10) . . .
111(11) . . .
96(10) . . .
119(11) . . .
95(10) . . .
109(10) . . .
105(10) . . .
99(10) . . .
107(10) . . .
108(10) . . .
106(10) . . .
110(10) . . .
109(10) . . .
115(11) . . .
129(11) . . .
104(10) . . .
116(11) . . .
117(11) . . .
118(11) . . .
104(10) . . .
114(11) . . .
103(10) . . .
115(11) . . .
115(11) . . .
117(11) . . .
115(11) . . .
117(11) . . .
112(11) . . .
118(11) . . .
115(11) . . .
120(11) . . .
122(11) . . .
112(11) . . .
128(11) . . .
130(11) . . .
125(11) . . .
124(11) . . .
124(11) . . .
103(10) . . .
128(11) . . .
130(11) . . .
115(11) . . .
123(11) . . .
127(11) . . .
126(11) . . .
129(11) . . .
115(11) . . .
128(11) . . .
124(11) . . .
138(12) . . .
141(12) . . .
123(11) . . .
137(12) . . .
131(11) . . .
124(11) . . .
139(12) . . .
136(12) . . .
163(13) . . .
136(12) . . .
136(12) . . .
184(14) . . .
142(12) . . .
151(12) . . .
143(12) . . .
171(13) . . .
158(13) . . .
146(12) . . .
154(12) . . .
170(13) . . .
170(13) . . .
166(13) . . .
184(14) . . .
164(13) . . .
191(14) . . .
170(13) . . .
175(13) . . .
175(13) . . .
182(13) . . .
185(14) . . .
214(15) . . .
188(14) . . .
216(15) . . .
192(14) . . .
215(15) . . .
214(15) . . .
204(14) . . .
230(15) . . .
226(15) . . .
231(15) . . .
224(15) . . .
234(15) . . .
237(15) . . .
280(17) . . .
248(16) . . .
279(17) . . .
277(17) . . .
328(18) . . .
290(17) . . .
322(18) . . .
334(18) . . .
324(18) . . .
342(18) . . .
339(18) . . .
401(20) . . .
351(19) . . .
362(19) . . .
435(21) . . .
430(21) . . .
435(21) . . .
446(21) . . .
471(22) . . .
502(22) . . .
529(23) . . .
541(23) . . .
550(23) . . .
606(25) . . .
615(25) . . .
597(24) . . .
647(25) . . .
691(26) . . .
748(27) . . .
726(27) . . .
795(28) . . .
852(29) . . .
884(30) . . .
913(30) . . .
970(31) . . .
1009(32) . . .
1024(32) . . .
1101(33) . . .
1106(33) . . .
1077(33) . . .
1150(34) . . .
1116(33) . . .
1190(34) . . .
1178(34) . . .
1208(35) . . .
1199(35) . . .
1213(35) . . .
1192(35) . . .
1110(33) . . .
1143(34) . . .
1134(34) . . .
1140(34) . . .
1063(33) . . .
1075(33) . . .
1072(33) . . .
1036(32) . . .
984(31) . . .
904(30) . . .
869(29) . . .
874(30) . . .
788(28) . . .
758(28) . . .
751(27) . . .
727(27) . . .
689(26) . . .
631(25) . . .
624(25) . . .
601(25) . . .
541(23) . . .
545(23) . . .
517(23) . . .
482(22) . . .
440(21) . . .
425(21) . . .
420(20) . . .
420(20) . . .
387(20) . . .
377(19) . . .
376(19) . . .
357(19) . . .
349(19) . . .
335(18) . . .
311(18) . . .
296(17) . . .
294(17) . . .
269(16) . . .
271(16) . . .
243(16) . . .
253(16) . . .
263(16) . . .
246(16) . . .
229(15) . . .
245(16) . . .
214(15) . . .
221(15) . . .
216(15) . . .
206(14) . . .
175(13) . . .
186(14) . . .
168(13) . . .
172(13) . . .
181(13) . . .
185(14) . . .
188(14) . . .
192(14) . . .
173(13) . . .
187(14) . . .
171(13) . . .
164(13) . . .
154(12) . . .
168(13) . . .
156(12) . . .
142(12) . . .
189(14) . . .
152(12) . . .
145(12) . . .
144(12) . . .
146(12) . . .
152(12) . . .
166(13) . . .
136(12) . . .
139(12) . . .
137(12) . . .
129(11) . . .
143(12) . . .
129(11) . . .
140(12) . . .
129(11) . . .
130(11) . . .
134(12) . . .
138(12) . . .
134(12) . . .
147(12) . . .
148(12) . . .
140(12) . . .
134(12) . . .
135(12) . . .
123(11) . . .
154(12) . . .
126(11) . . .
124(11) . . .
124(11) . . .
121(11) . . .
136(12) . . .
112(11) . . .
121(11) . . .
104(10) . . .
114(11) . . .
137(12) . . .
138(12) . . .
133(12) . . .
119(11) . . .
100(10) . . .
102(10) . . .
114(11) . . .
132(11) . . .
128(11) . . .
122(11) . . .
115(11) . . .
110(10) . . .
114(11) . . .
113(11) . . .
120(11) . . .
126(11) . . .
117(11) . . .
108(10) . . .
125(11) . . .
105(10) . . .
104(10) . . .
96(10) . . .
114(11) . . .
112(11) . . .
117(11) . . .
95(10) . . .
95(10) . . .
98(10) . . .
124(11) . . .
114(11) . . .
109(10) . . .
97(10) . . .
122(11) . . .
109(10) . . .
100(10) . . .
126(11) . . .
127(11) . . .
120(11) . . .
116(11) . . .
102(10) . . .
122(11) . . .
112(11) . . .
98(10) . . .
106(10) . . .
111(11) . . .
90(9) . . .
96(10) . . .
113(11) . . .
113(11) . . .
106(10) . . .
89(9) . . .
103(10) . . .
106(10) . . .
99(10) . . .
121(11) . . .
109(10) . . .
118(11) . . .
111(11) . . .
96(10) . . .
104(10) . . .
100(10) . . .
111(11) . . .
131(11) . . .
109(10) . . .
102(10) . . .
91(10) . . .
93(10) . . .
98(10) . . .
107(10) . . .
109(10) . . .
96(10) . . .
95(10) . . .
98(10) . . .
110(10) . . .
101(10) . . .
105(10) . . .
97(10) . . .
106(10) . . .
115(11) . . .
92(10) . . .
112(11) . . .
105(10) . . .
95(10) . . .
109(10) . . .
102(10) . . .
99(10) . . .
103(10) . . .
96(10) . . .
86(9) . . .
115(11) . . .
103(10) . . .
127(11) . . .
96(10) . . .
86(9) . . .
107(10) . . .
109(10) . . .
92(10) . . .
121(11) . . .
98(10) . . .
101(10) . . .
103(10) . . .
117(11) . . .
110(10) . . .
107(10) . . .
94(10) . . .
101(10) . . .
103(10) . . .
101(10) . . .
99(10) . . .
87(9) . . .
104(10) . . .
105(10) . . .
88(9) . . .
104(10) . . .
106(10) . . .
95(10) . . .
93(10) . . .
96(10) . . .
84(9) . . .
109(10) . . .
94(10) . . .
111(11) . . .
106(10) . . .
93(10) . . .
103(10) . . .
102(10) . . .
84(9) . . .
92(10) . . .
100(10) . . .
106(10) . . .
98(10) . . .
101(10) . . .
108(10) . . .
110(10) . . .
90(9) . . .
98(10) . . .
111(11) . . .
105(10) . . .
114(11) . . .
108(10) . . .
102(10) . . .
98(10) . . .
110(10) . . .
109(10) . . .
113(11) . . .
103(10) . . .
99(10) . . .
111(11) . . .
105(10) . . .
101(10) . . .
107(10) . . .
98(10) . . .
113(11) . . .
107(10) . . .
120(11) . . .
88(9) . . .
108(10) . . .
105(10) . . .
111(11) . . .
117(11) . . .
98(10) . . .
121(11) . . .
115(11) . . .
98(10) . . .
104(10) . . .
112(11) . . .
96(10) . . .
96(10) . . .
95(10) . . .
117(11) . . .
103(10) . . .
99(10) . . .
100(10) . . .
112(11) . . .
105(10) . . .
100(10) . . .
108(10) . . .
105(10) . . .
104(10) . . .
112(11) . . .
95(10) . . .
94(10) . . .
102(10) . . .
102(10) . . .
107(10) . . .
104(10) . . .
98(10) . . .
110(10) . . .
95(10) . . .
114(11) . . .
122(11) . . .
109(10) . . .
95(10) . . .
101(10) . . .
121(11) . . .
111(11) . . .
108(10) . . .
121(11) . . .
115(11) . . .
106(10) . . .
121(11) . . .
126(11) . . .
115(11) . . .
121(11) . . .
122(11) . . .
123(11) . . .
134(12) . . .
120(11) . . .
143(12) . . .
134(12) . . .
141(12) . . .
124(11) . . .
129(11) . . .
136(12) . . .
136(12) . . .
138(12) . . .
122(11) . . .
133(12) . . .
133(12) . . .
123(11) . . .
138(12) . . .
133(12) . . .
143(12) . . .
166(13) . . .
147(12) . . .
155(12) . . .
173(13) . . .
170(13) . . .
165(13) . . .
162(13) . . .
178(13) . . .
167(13) . . .
162(13) . . .
194(14) . . .
185(14) . . .
199(14) . . .
194(14) . . .
219(15) . . .
182(13) . . .
206(14) . . .
211(15) . . .
218(15) . . .
241(16) . . .
239(15) . . .
236(15) . . .
269(16) . . .
261(16) . . .
268(16) . . .
294(17) . . .
275(17) . . .
300(17) . . .
288(17) . . .
302(17) . . .
330(18) . . .
344(19) . . .
342(18) . . .
355(19) . . .
354(19) . . .
391(20) . . .
371(19) . . .
373(19) . . .
398(20) . . .
415(20) . . .
410(20) . . .
388(20) . . .
411(20) . . .
441(21) . . .
424(21) . . .
413(20) . . .
416(20) . . .
402(20) . . .
413(20) . . .
423(21) . . .
406(20) . . .
411(20) . . .
373(19) . . .
409(20) . . .
382(20) . . .
355(19) . . .
379(19) . . .
350(19) . . .
324(18) . . .
346(19) . . .
286(17) . . .
288(17) . . .
284(17) . . .
276(17) . . .
296(17) . . .
286(17) . . .
245(16) . . .
248(16) . . .
230(15) . . .
235(15) . . .
223(15) . . .
213(15) . . .
231(15) . . .
203(14) . . .
179(13) . . .
178(13) . . .
179(13) . . .
183(14) . . .
184(14) . . .
181(13) . . .
185(14) . . .
181(13) . . .
169(13) . . .
156(12) . . .
153(12) . . .
129(11) . . .
159(13) . . .
166(13) . . .
155(12) . . .
150(12) . . .
141(12) . . .
155(12) . . .
149(12) . . .
132(11) . . .
129(11) . . .
135(12) . . .
138(12) . . .
121(11) . . .
135(12) . . .
125(11) . . .
128(11) . . .
120(11) . . .
110(10) . . .
126(11) . . .
122(11) . . .
110(10) . . .
127(11) . . .
129(11) . . .
106(10) . . .
120(11) . . .
110(10) . . .
118(11) . . .
127(11) . . .
120(11) . . .
127(11) . . .
104(10) . . .
104(10) . . .
108(10) . . .
104(10) . . .
95(10) . . .
107(10) . . .
109(10) . . .
95(10) . . .
98(10) . . .
116(11) . . .
109(10) . . .
101(10) . . .
109(10) . . .
108(10) . . .
97(10) . . .
106(10) . . .
104(10) . . .
109(10) . . .
108(10) . . .
92(10) . . .
101(10) . . .
105(10) . . .
101(10) . . .
103(10) . . .
97(10) . . .
93(10) . . .
121(11) . . .
107(10) . . .
92(10) . . .
106(10) . . .
94(10) . . .
100(10) . . .
97(10) . . .
92(10) . . .
97(10) . . .
99(10) . . .
99(10) . . .
107(10) . . .
95(10) . . .
93(10) . . .
109(10) . . .
99(10) . . .
91(10) . . .
103(10) . . .
100(10) . . .
95(10) . . .
110(10) . . .
95(10) . . .
97(10) . . .
100(10) . . .
92(10) . . .
94(10) . . .
93(10) . . .
85(9) . . .
93(10) . . .
104(10) . . .
92(10) . . .
100(10) . . .
83(9) . . .
90(9) . . .
88(9) . . .
90(9) . . .
95(10) . . .
101(10) . . .
96(10) . . .
86(9) . . .
91(10) . . .
103(10) . . .
94(10) . . .
99(10) . . .
89(9) . . .
96(10) . . .
91(10) . . .
86(9) . . .
93(10) . . .
90(9) . . .
95(10) . . .
91(10) . . .
95(10) . . .
95(10) . . .
99(10) . . .
94(10) . . .
94(10) . . .
97(10) . . .
104(10) . . .
74(9) . . .
88(9) . . .
95(10) . . .
99(10) . . .
94(10) . . .
84(9) . . .
87(9) . . .
97(10) . . .
84(9) . . .
100(10) . . .
89(9) . . .
84(9) . . .
97(10) . . .
88(9) . . .
83(9) . . .
84(9) . . .
99(10) . . .
94(10) . . .
94(10) . . .
73(9) . . .
78(9) . . .
87(9) . . .
100(10) . . .
95(10) . . .
83(9) . . .
86(9) . . .
88(9) . . .
92(10) . . .
92(10) . . .
105(10) . . .
91(10) . . .
87(9) . . .
93(10) . . .
92(10) . . .
86(9) . . .
89(9) . . .
102(10) . . .
90(9) . . .
112(11) . . .
86(9) . . .
87(9) . . .
89(9) . . .
99(10) . . .
93(10) . . .
84(9) . . .
96(10) . . .
105(10) . . .
99(10) . . .
88(9) . . .
96(10) . . .
101(10) . . .
88(9) . . .
94(10) . . .
102(10) . . .
92(10) . . .
96(10) . . .
96(10) . . .
87(9) . . .
88(9) . . .
93(10) . . .
102(10) . . .
81(9) . . .
80(9) . . .
93(10) . . .
108(10) . . .
91(10) . . .
89(9) . . .
95(10) . . .
80(9) . . .
101(10) . . .
102(10) . . .
73(9) . . .
85(9) . . .
81(9) . . .
85(9) . . .
89(9) . . .
90(9) . . .
92(10) . . .
95(10) . . .
100(10) . . .
87(9) . . .
93(10) . . .
85(9) . . .
88(9) . . .
103(10) . . .
88(9) . . .
99(10) . . .
92(10) . . .
89(9) . . .
89(9) . . .
85(9) . . .
86(9) . . .
90(9) . . .
97(10) . . .
92(10) . . .
94(10) . . .
88(9) . . .
89(9) . . .
79(9) . . .
92(10) . . .
99(10) . . .
95(10) . . .
88(9) . . .
93(10) . . .
93(10) . . .
82(9) . . .
91(10) . . .
113(11) . . .
81(9) . . .
85(9) . . .
82(9) . . .
89(9) . . .
101(10) . . .
99(10) . . .
85(9) . . .
121(11) . . .
77(9) . . .
95(10) . . .
92(10) . . .
95(10) . . .
87(9) . . .
99(10) . . .
80(9) . . .
83(9) . . .
91(10) . . .
98(10) . . .
86(9) . . .
92(10) . . .
91(10) . . .
103(10) . . .
96(10) . . .
98(10) . . .
88(9) . . .
80(9) . . .
93(10) . . .
105(10) . . .
80(9) . . .
92(10) . . .
103(10) . . .
101(10) . . .
93(10) . . .
71(8) . . .
78(9) . . .
110(10) . . .
106(10) . . .
90(9) . . .
101(10) . . .
73(9) . . .
82(9) . . .
91(10) . . .
90(9) . . .
79(9) . . .
85(9) . . .
91(10) . . .
84(9) . . .
83(9) . . .
90(9) . . .
85(9) . . .
89(9) . . .
99(10) . . .
78(9) . . .
84(9) . . .
88(9) . . .
87(9) . . .
95(10) . . .
74(9) . . .
82(9) . . .
101(10) . . .
86(9) . . .
86(9) . . .
89(9) . . .
85(9) . . .
100(10) . . .
85(9) . . .
102(10) . . .
98(10) . . .
101(10) . . .
89(9) . . .
94(10) . . .
89(9) . . .
76(9) . . .
84(9) . . .
84(9) . . .
92(10) . . .
97(10) . . .
90(9) . . .
78(9) . . .
85(9) . . .
76(9) . . .
88(9) . . .
93(10) . . .
91(10) . . .
98(10) . . .
98(10) . . .
102(10) . . .
98(10) . . .
105(10) . . .
81(9) . . .
96(10) . . .
104(10) . . .
89(9) . . .
87(9) . . .
101(10) . . .
89(9) . . .
99(10) . . .
97(10) . . .
102(10) . . .
89(9) . . .
101(10) . . .
84(9) . . .
100(10) . . .
89(9) . . .
89(9) . . .
92(10) . . .
86(9) . . .
87(9) . . .
84(9) . . .
100(10) . . .
90(9) . . .
94(10) . . .
110(10) . . .
107(10) . . .
98(10) . . .
94(10) . . .
103(10) . . .
85(9) . . .
83(9) . . .
90(9) . . .
84(9) . . .
81(9) . . .
68(8) . . .
104(10) . . .
94(10) . . .
97(10) . . .
81(9) . . .
88(9) . . .
82(9) . . .
87(9) . . .
92(10) . . .
101(10) . . .
99(10) . . .
95(10) . . .
101(10) . . .
75(9) . . .
79(9) . . .
86(9) . . .
78(9) . . .
95(10) . . .
88(9) . . .
99(10) . . .
91(10) . . .
84(9) . . .
85(9) . . .
89(9) . . .
101(10) . . .
77(9) . . .
96(10) . . .
84(9) . . .
81(9) . . .
90(9) . . .
77(9) . . .
88(9) . . .
101(10) . . .
92(10) . . .
99(10) . . .
98(10) . . .
101(10) . . .
84(9) . . .
81(9) . . .
93(10) . . .
103(10) . . .
90(9) . . .
82(9) . . .
101(10) . . .
78(9) . . .
75(9) . . .
95(10) . . .
90(9) . . .
83(9) . . .
93(10) . . .
83(9) . . .
92(10) . . .
99(10) . . .
96(10) . . .
76(9) . . .
95(10) . . .
96(10) . . .
102(10) . . .
95(10) . . .
80(9) . . .
78(9) . . .
98(10) . . .
96(10) . . .
91(10) . . .
84(9) . . .
76(9) . . .
75(9) . . .
82(9) . . .
98(10) . . .
90(9) . . .
95(10) . . .
81(9) . . .
87(9) . . .
86(9) . . .
92(10) . . .
79(9) . . .
82(9) . . .
106(10) . . .
98(10) . . .
105(10) . . .
90(9) . . .
94(10) . . .
92(10) . . .
78(9) . . .
97(10) . . .
89(9) . . .
85(9) . . .
82(9) . . .
89(9) . . .
97(10) . . .
78(9) . . .
84(9) . . .
82(9) . . .
89(9) . . .
89(9) . . .
97(10) . . .
94(10) . . .
103(10) . . .
86(9) . . .
96(10) . . .
77(9) . . .
88(9) . . .
82(9) . . .
94(10) . . .
91(10) . . .
85(9) . . .
79(9) . . .
86(9) . . .
77(9) . . .
77(9) . . .
84(9) . . .
88(9) . . .
94(10) . . .
77(9) . . .
90(9) . . .
69(8) . . .
70(8) . . .
85(9) . . .
83(9) . . .
91(10) . . .
91(10) . . .
97(10) . . .
86(9) . . .
89(9) . . .
86(9) . . .
99(10) . . .
75(9) . . .
102(10) . . .
92(10) . . .
85(9) . . .
84(9) . . .
76(9) . . .
99(10) . . .
104(10) . . .
80(9) . . .
72(8) . . .
87(9) . . .
95(10) . . .
80(9) . . .
86(9) . . .
85(9) . . .
80(9) . . .
95(10) . . .
86(9) . . .
87(9) . . .
96(10) . . .
89(9) . . .
91(10) . . .
76(9) . . .
92(10) . . .
81(9) . . .
104(10) . . .
107(10) . . .
86(9) . . .
88(9) . . .
89(9) . . .
81(9) . . .
86(9) . . .
75(9) . . .
85(9) . . .
90(9) . . .
96(10) . . .
89(9) . . .
109(10) . . .
97(10) . . .
78(9) . . .
90(9) . . .
90(9) . . .
88(9) . . .
89(9) . . .
74(9) . . .
81(9) . . .
87(9) . . .
90(9) . . .
83(9) . . .
83(9) . . .
102(10) . . .
92(10) . . .
81(9) . . .
97(10) . . .
72(8) . . .
82(9) . . .
77(9) . . .
78(9) . . .
79(9) . . .
80(9) . . .
84(9) . . .
78(9) . . .
87(9) . . .
81(9) . . .
87(9) . . .
85(9) . . .
98(10) . . .
82(9) . . .
92(10) . . .
83(9) . . .
91(10) . . .
78(9) . . .
99(10) . . .
97(10) . . .
91(10) . . .
74(9) . . .
97(10) . . .
95(10) . . .
81(9) . . .
78(9) . . .
90(9) . . .
77(9) . . .
91(10) . . .
93(10) . . .
89(9) . . .
93(10) . . .
88(9) . . .
86(9) . . .
70(8) . . .
92(10) . . .
88(9) . . .
91(10) . . .
91(10) . . .
89(9) . . .
90(9) . . .
87(9) . . .
70(8) . . .
76(9) . . .
102(10) . . .
88(9) . . .
85(9) . . .
76(9) . . .
91(10) . . .
75(9) . . .
98(10) . . .
97(10) . . .
95(10) . . .
96(10) . . .
85(9) . . .
90(9) . . .
106(10) . . .
113(11) . . .
84(9) . . .
86(9) . . .
81(9) . . .
84(9) . . .
100(10) . . .
88(9) . . .
91(10) . . .
75(9) . . .
81(9) . . .
88(9) . . .
91(10) . . .
85(9) . . .
81(9) . . .
83(9) . . .
101(10) . . .
82(9) . . .
85(9) . . .
80(9) . . .
72(8) . . .
98(10) . . .
79(9) . . .
88(9) . . .
88(9) . . .
103(10) . . .
91(10) . . .
80(9) . . .
92(10) . . .
73(9) . . .
89(9) . . .
89(9) . . .
80(9) . . .
96(10) . . .
87(9) . . .
81(9) . . .
88(9) . . .
86(9) . . .
83(9) . . .
91(10) . . .
84(9) . . .
91(10) . . .
89(9) . . .
96(10) . . .
95(10) . . .
80(9) . . .
83(9) . . .
87(9) . . .
81(9) . . .
91(10) . . .
76(9) . . .
96(10) . . .
81(9) . . .
103(10) . . .
113(11) . . .
88(9) . . .
89(9) . . .
96(10) . . .
90(9) . . .
75(9) . . .
85(9) . . .
82(9) . . .
95(10) . . .
96(10) . . .
87(9) . . .
82(9) . . .
85(9) . . .
97(10) . . .
79(9) . . .
107(10) . . .
84(9) . . .
89(9) . . .
86(9) . . .
100(10) . . .
91(10) . . .
92(10) . . .
96(10) . . .
84(9) . . .
101(10) . . .
96(10) . . .
80(9) . . .
87(9) . . .
86(9) . . .
93(10) . . .
85(9) . . .
93(10) . . .
87(9) . . .
89(9) . . .
94(10) . . .
78(9) . . .
76(9) . . .
104(10) . . .
104(10) . . .
86(9) . . .
67(8) . . .
89(9) . . .
94(10) . . .
101(10) . . .
88(9) . . .
93(10) . . .
70(8) . . .
91(10) . . .
94(10) . . .
96(10) . . .
101(10) . . .
101(10) . . .
81(9) . . .
99(10) . . .
89(9) . . .
76(9) . . .
83(9) . . .
77(9) . . .
75(9) . . .
77(9) . . .
81(9) . . .
85(9) . . .
88(9) . . .
102(10) . . .
90(9) . . .
87(9) . . .
111(11) . . .
92(10) . . .
87(9) . . .
80(9) . . .
94(10) . . .
92(10) . . .
90(9) . . .
83(9) . . .
95(10) . . .
71(8) . . .
75(9) . . .
77(9) . . .
88(9) . . .
98(10) . . .
92(10) . . .
87(9) . . .
87(9) . . .
88(9) . . .
96(10) . . .
90(9) . . .
84(9) . . .
83(9) . . .
91(10) . . .
86(9) . . .
80(9) . . .
98(10) . . .
87(9) . . .
88(9) . . .
89(9) . . .
75(9) . . .
106(10) . . .
82(9) . . .
82(9) . . .
80(9) . . .
85(9) . . .
69(8) . . .
90(9) . . .
89(9) . . .
87(9) . . .
79(9) . . .
69(8) . . .
76(9) . . .
75(9) . . .
91(10) . . .
99(10) . . .
76(9) . . .
94(10) . . .
87(9) . . .
82(9) . . .
99(10) . . .
97(10) . . .
99(10) . . .
94(10) . . .
79(9) . . .
86(9) . . .
77(9) . . .
72(8) . . .
76(9) . . .
75(9) . . .
61(8) . . .
86(9) . . .
81(9) . . .
98(10) . . .
81(9) . . .
91(10) . . .
73(9) . . .
69(8) . . .
80(9) . . .
95(10) . . .
88(9) . . .
81(9) . . .
88(9) . . .
87(9) . . .
85(9) . . .
84(9) . . .
108(10) . . .
92(10) . . .
86(9) . . .
76(9) . . .
82(9) . . .
79(9) . . .
75(9) . . .
101(10) . . .
80(9) . . .
84(9) . . .
102(10) . . .
76(9) . . .
73(9) . . .
82(9) . . .
87(9) . . .
82(9) . . .
68(8) . . .
88(9) . . .
78(9) . . .
87(9) . . .
92(10) . . .
78(9) . . .
74(9) . . .
92(10) . . .
97(10) . . .
70(8) . . .
97(10) . . .
83(9) . . .
84(9) . . .
83(9) . . .
85(9) . . .
73(9) . . .
78(9) . . .
73(9) . . .
93(10) . . .
89(9) . . .
87(9) . . .
83(9) . . .
85(9) . . .
85(9) . . .
74(9) . . .
87(9) . . .
77(9) . . .
94(10) . . .
76(9) . . .
95(10) . . .
83(9) . . .
84(9) . . .
86(9) . . .
83(9) . . .
76(9) . . .
77(9) . . .
87(9) . . .
81(9) . . .
84(9) . . .
83(9) . . .
76(9) . . .
89(9) . . .
85(9) . . .
79(9) . . .
73(9) . . .
81(9) . . .
79(9) . . .
87(9) . . .
85(9) . . .
87(9) . . .
92(10) . . .
96(10) . . .
85(9) . . .
88(9) . . .
77(9) . . .
91(10) . . .
79(9) . . .
79(9) . . .
89(9) . . .
82(9) . . .
90(9) . . .
68(8) . . .
87(9) . . .
89(9) . . .
78(9) . . .
87(9) . . .
92(10) . . .
93(10) . . .
85(9) . . .
91(10) . . .
72(8) . . .
97(10) . . .
105(10) . . .
102(10) . . .
79(9) . . .
77(9) . . .
76(9) . . .
88(9) . . .
89(9) . . .
89(9) . . .
90(9) . . .
80(9) . . .
101(10) . . .
96(10) . . .
94(10) . . .
89(9) . . .
100(10) . . .
84(9) . . .
97(10) . . .
76(9) . . .
88(9) . . .
96(10) . . .
67(8) . . .
80(9) . . .
93(10) . . .
83(9) . . .
87(9) . . .
80(9) . . .
87(9) . . .
80(9) . . .
79(9) . . .
89(9) . . .
108(10) . . .
90(9) . . .
85(9) . . .
81(9) . . .
68(8) . . .
64(8) . . .
87(9) . . .
87(9) . . .
87(9) . . .
90(9) . . .
67(8) . . .
73(9) . . .
88(9) . . .
79(9) . . .
90(9) . . .
90(9) . . .
75(9) . . .
93(10) . . .
85(9) . . .
85(9) . . .
62(8) . . .
96(10) . . .
87(9) . . .
72(8) . . .
97(10) . . .
82(9) . . .
83(9) . . .
88(9) . . .
79(9) . . .
93(10) . . .
97(10) . . .
78(9) . . .
102(10) . . .
66(8) . . .
90(9) . . .
89(9) . . .
84(9) . . .
90(9) . . .
61(8) . . .
95(10) . . .
83(9) . . .
81(9) . . .
84(9) . . .
90(9) . . .
82(9) . . .
97(10) . . .
75(9) . . .
90(9) . . .
78(9) . . .
81(9) . . .
82(9) . . .
75(9) . . .
87(9) . . .
88(9) . . .
78(9) . . .
80(9) . . .
78(9) . . .
81(9) . . .
91(10) . . .
76(9) . . .
80(9) . . .
91(10) . . .
84(9) . . .
94(10) . . .
81(9) . . .
79(9) . . .
73(9) . . .
67(8) . . .
78(9) . . .
101(10) . . .
88(9) . . .
81(9) . . .
81(9) . . .
81(9) . . .
79(9) . . .
89(9) . . .
79(9) . . .
87(9) . . .
102(10) . . .
77(9) . . .
88(9) . . .
79(9) . . .
75(9) . . .
84(9) . . .
78(9) . . .
88(9) . . .
93(10) . . .
85(9) . . .
66(8) . . .
101(10) . . .
93(10) . . .
78(9) . . .
99(10) . . .
79(9) . . .
78(9) . . .
87(9) . . .
86(9) . . .
87(9) . . .
82(9) . . .
91(10) . . .
80(9) . . .
87(9) . . .
86(9) . . .
90(9) . . .
75(9) . . .
84(9) . . .
69(8) . . .
72(8) . . .
89(9) . . .
81(9) . . .
84(9) . . .
87(9) . . .
76(9) . . .
71(8) . . .
68(8) . . .
89(9) . . .
99(10) . . .
84(9) . . .
90(9) . . .
72(8) . . .
86(9) . . .
82(9) . . .
75(9) . . .
78(9) . . .
82(9) . . .
81(9) . . .
72(8) . . .
83(9) . . .
82(9) . . .
77(9) . . .
90(9) . . .
88(9) . . .
78(9) . . .
91(10) . . .
92(10) . . .
88(9) . . .
91(10) . . .
98(10) . . .
99(10) . . .
84(9) . . .
79(9) . . .
95(10) . . .
85(9) . . .
84(9) . . .
90(9) . . .
92(10) . . .
89(9) . . .
85(9) . . .
87(9) . . .
77(9) . . .
84(9) . . .
80(9) . . .
86(9) . . .
93(10) . . .
85(9) . . .
82(9) . . .
81(9) . . .
85(9) . . .
93(10) . . .
87(9) . . .
88(9) . . .
86(9) . . .
89(9) . . .
78(9) . . .
80(9) . . .
82(9) . . .
68(8) . . .
90(9) . . .
84(9) . . .
87(9) . . .
90(9) . . .
80(9) . . .
88(9) . . .
88(9) . . .
79(9) . . .
80(9) . . .
70(8) . . .
81(9) . . .
87(9) . . .
80(9) . . .
83(9) . . .
80(9) . . .
90(9) . . .
74(9) . . .
80(9) . . .
86(9) . . .
71(8) . . .
73(9) . . .
100(10) . . .
92(10) . . .
89(9) . . .
94(10) . . .
99(10) . . .
87(9) . . .
85(9) . . .
80(9) . . .
93(10) . . .
80(9) . . .
91(10) . . .
80(9) . . .
96(10) . . .
71(8) . . .
86(9) . . .
74(9) . . .
95(10) . . .
86(9) . . .
86(9) . . .
87(9) . . .
76(9) . . .
67(8) . . .
72(8) . . .
80(9) . . .
95(10) . . .
90(9) . . .
93(10) . . .
103(10) . . .
80(9) . . .
73(9) . . .
95(10) . . .
76(9) . . .
82(9) . . .
85(9) . . .
86(9) . . .
88(9) . . .
97(10) . . .
84(9) . . .
88(9) . . .
78(9) . . .
88(9) . . .
90(9) . . .
78(9) . . .
87(9) . . .
83(9) . . .
101(10) . . .
71(8) . . .
81(9) . . .
82(9) . . .
91(10) . . .
73(9) . . .
86(9) . . .
80(9) . . .
101(10) . . .
82(9) . . .
93(10) . . .
79(9) . . .
85(9) . . .
95(10) . . .
77(9) . . .
86(9) . . .
76(9) . . .
95(10) . . .
81(9) . . .
82(9) . . .
87(9) . . .
78(9) . . .
86(9) . . .
90(9) . . .
92(10) . . .
89(9) . . .
74(9) . . .
75(9) . . .
80(9) . . .
84(9) . . .
89(9) . . .
89(9) . . .
88(9) . . .
104(10) . . .
95(10) . . .
86(9) . . .
75(9) . . .
94(10) . . .
82(9) . . .
72(8) . . .
73(9) . . .
87(9) . . .
86(9) . . .
72(8) . . .
77(9) . . .
80(9) . . .
87(9) . . .
93(10) . . .
83(9) . . .
68(8) . . .
96(10) . . .
86(9) . . .
83(9) . . .
75(9) . . .
84(9) . . .
84(9) . . .
80(9) . . .
83(9) . . .
72(8) . . .
86(9) . . .
87(9) . . .
86(9) . . .
77(9) . . .
76(9) . . .
77(9) . . .
70(8) . . .
74(9) . . .
81(9) . . .
90(9) . . .
92(10) . . .
95(10) . . .
96(10) . . .
101(10) . . .
81(9) . . .
90(9) . . .
97(10) . . .
85(9) . . .
92(10) . . .
91(10) . . .
96(10) . . .
91(10) . . .
83(9) . . .
81(9) . . .
88(9) . . .
80(9) . . .
86(9) . . .
78(9) . . .
86(9) . . .
71(8) . . .
87(9) . . .
89(9) . . .
92(10) . . .
80(9) . . .
65(8) . . .
86(9) . . .
88(9) . . .
93(10) . . .
95(10) . . .
86(9) . . .
70(8) . . .
84(9) . . .
94(10) . . .
88(9) . . .
96(10) . . .
95(10) . . .
87(9) . . .
82(9) . . .
79(9) . . .
84(9) . . .
86(9) . . .
91(10) . . .
91(10) . . .
88(9) . . .
78(9) . . .
93(10) . . .
99(10) . . .
93(10) . . .
90(9) . . .
86(9) . . .
103(10) . . .
83(9) . . .
80(9) . . .
84(9) . . .
78(9) . . .
93(10) . . .
90(9) . . .
84(9) . . .
105(10) . . .
84(9) . . .
86(9) . . .
85(9) . . .
68(8) . . .
98(10) . . .
71(8) . . .
86(9) . . .
80(9) . . .
80(9) . . .
79(9) . . .
94(10) . . .
64(8) . . .
96(10) . . .
88(9) . . .
91(10) . . .
80(9) . . .
103(10) . . .
82(9) . . .
97(10) . . .
100(10) . . .
82(9) . . .
92(10) . . .
98(10) . . .
95(10) . . .
84(9) . . .
85(9) . . .
81(9) . . .
80(9) . . .
104(10) . . .
88(9) . . .
73(9) . . .
84(9) . . .
81(9) . . .
90(9) . . .
95(10) . . .
76(9) . . .
79(9) . . .
95(10) . . .
81(9) . . .
97(10) . . .
80(9) . . .
80(9) . . .
74(9) . . .
86(9) . . .
84(9) . . .
92(10) . . .
85(9) . . .
97(10) . . .
75(9) . . .
94(10) . . .
91(10) . . .
82(9) . . .
85(9) . . .
79(9) . . .
80(9) . . .
75(9) . . .
98(10) . . .
75(9) . . .
81(9) . . .
84(9) . . .
78(9) . . .
93(10) . . .
75(9) . . .
75(9) . . .
89(9) . . .
93(10) . . .
81(9) . . .
84(9) . . .
85(9) . . .
87(9) . . .
75(9) . . .
84(9) . . .
86(9) . . .
100(10) . . .
79(9) . . .
90(9) . . .
80(9) . . .
91(10) . . .
88(9) . . .
99(10) . . .
88(9) . . .
81(9) . . .
88(9) . . .
100(10) . . .
78(9) . . .
90(9) . . .
92(10) . . .
73(9) . . .
82(9) . . .
73(9) . . .
76(9) . . .
95(10) . . .
83(9) . . .
68(8) . . .
82(9) . . .
83(9) . . .
91(10) . . .
89(9) . . .
89(9) . . .
99(10) . . .
84(9) . . .
102(10) . . .
99(10) . . .
86(9) . . .
78(9) . . .
86(9) . . .
86(9) . . .
87(9) . . .
81(9) . . .
86(9) . . .
103(10) . . .
82(9) . . .
85(9) . . .
81(9) . . .
78(9) . . .
79(9) . . .
96(10) . . .
88(9) . . .
77(9) . . .
83(9) . . .
91(10) . . .
81(9) . . .
97(10) . . .
91(10) . . .
92(10) . . .
99(10) . . .
89(9) . . .
121(11) . . .
85(9) . . .
98(10) . . .
89(9) . . .
83(9) . . .
101(10) . . .
78(9) . . .
92(10) . . .
85(9) . . .
82(9) . . .
92(10) . . .
93(10) . . .
92(10) . . .
92(10) . . .
84(9) . . .
83(9) . . .
88(9) . . .
92(10) . . .
88(9) . . .
96(10) . . .
91(10) . . .
83(9) . . .
92(10) . . .
99(10) . . .
100(10) . . .
91(10) . . .
85(9) . . .
98(10) . . .
89(9) . . .
104(10) . . .
101(10) . . .
99(10) . . .
96(10) . . .
93(10) . . .
101(10) . . .
100(10) . . .
106(10) . . .
90(9) . . .
83(9) . . .
93(10) . . .
87(9) . . .
100(10) . . .
94(10) . . .
104(10) . . .
99(10) . . .
90(9) . . .
96(10) . . .
92(10) . . .
94(10) . . .
77(9) . . .
91(10) . . .
102(10) . . .
97(10) . . .
84(9) . . .
107(10) . . .
84(9) . . .
87(9) . . .
99(10) . . .
95(10) . . .
82(9) . . .
91(10) . . .
91(10) . . .
105(10) . . .
93(10) . . .
98(10) . . .
93(10) . . .
94(10) . . .
105(10) . . .
102(10) . . .
102(10) . . .
119(11) . . .
95(10) . . .
97(10) . . .
121(11) . . .
99(10) . . .
112(11) . . .
102(10) . . .
118(11) . . .
113(11) . . .
105(10) . . .
115(11) . . .
106(10) . . .
118(11) . . .
121(11) . . .
114(11) . . .
108(10) . . .
136(12) . . .
132(11) . . .
120(11) . . .
130(11) . . .
132(11) . . .
124(11) . . .
142(12) . . .
125(11) . . .
125(11) . . .
138(12) . . .
145(12) . . .
149(12) . . .
144(12) . . .
154(12) . . .
151(12) . . .
149(12) . . .
165(13) . . .
162(13) . . .
172(13) . . .
175(13) . . .
175(13) . . .
190(14) . . .
183(14) . . .
183(14) . . .
172(13) . . .
212(15) . . .
193(14) . . .
194(14) . . .
205(14) . . .
219(15) . . .
224(15) . . .
245(16) . . .
242(16) . . .
228(15) . . .
252(16) . . .
258(16) . . .
273(17) . . .
250(16) . . .
278(17) . . .
288(17) . . .
291(17) . . .
295(17) . . .
307(18) . . .
315(18) . . .
332(18) . . .
353(19) . . .
337(18) . . .
371(19) . . .
379(19) . . .
384(20) . . .
378(19) . . .
400(20) . . .
384(20) . . .
384(20) . . .
394(20) . . .
392(20) . . .
384(20) . . .
369(19) . . .
382(20) . . .
322(18) . . .
371(19) . . .
341(18) . . .
362(19) . . .
336(18) . . .
343(19) . . .
313(18) . . .
328(18) . . .
328(18) . . .
342(18) . . .
316(18) . . .
287(17) . . .
263(16) . . .
289(17) . . .
278(17) . . .
266(16) . . .
250(16) . . .
234(15) . . .
235(15) . . .
239(15) . . .
223(15) . . .
193(14) . . .
175(13) . . .
195(14) . . .
163(13) . . .
174(13) . . .
184(14) . . .
167(13) . . .
177(13) . . .
182(13) . . .
172(13) . . .
138(12) . . .
155(12) . . .
163(13) . . .
154(12) . . .
157(13) . . .
154(12) . . .
160(13) . . .
162(13) . . .
130(11) . . .
134(12) . . .
137(12) . . .
140(12) . . .
122(11) . . .
131(11) . . .
118(11) . . .
125(11) . . .
124(11) . . .
132(11) . . .
121(11) . . .
119(11) . . .
117(11) . . .
116(11) . . .
112(11) . . .
118(11) . . .
109(10) . . .
108(10) . . .
123(11) . . .
95(10) . . .
122(11) . . .
129(11) . . .
92(10) . . .
102(10) . . .
108(10) . . .
108(10) . . .
115(11) . . .
112(11) . . .
101(10) . . .
103(10) . . .
89(9) . . .
134(12) . . .
108(10) . . .
102(10) . . .
99(10) . . .
90(9) . . .
101(10) . . .
94(10) . . .
121(11) . . .
113(11) . . .
110(10) . . .
92(10) . . .
94(10) . . .
102(10) . . .
94(10) . . .
92(10) . . .
108(10) . . .
79(9) . . .
102(10) . . .
86(9) . . .
95(10) . . .
105(10) . . .
84(9) . . .
108(10) . . .
85(9) . . .
93(10) . . .
91(10) . . .
107(10) . . .
97(10) . . .
95(10) . . .
89(9) . . .
95(10) . . .
97(10) . . .
90(9) . . .
100(10) . . .
88(9) . . .
94(10) . . .
84(9) . . .
96(10) . . .
90(9) . . .
92(10) . . .
87(9) . . .
94(10) . . .
88(9) . . .
95(10) . . .
103(10) . . .
89(9) . . .
95(10) . . .
76(9) . . .
79(9) . . .
90(9) . . .
98(10) . . .
82(9) . . .
81(9) . . .
85(9) . . .
84(9) . . .
85(9) . . .
86(9) . . .
87(9) . . .
90(9) . . .
92(10) . . .
87(9) . . .
84(9) . . .
81(9) . . .
90(9) . . .
104(10) . . .
83(9) . . .
101(10) . . .
80(9) . . .
98(10) . . .
78(9) . . .
86(9) . . .
90(9) . . .
90(9) . . .
89(9) . . .
92(10) . . .
90(9) . . .
84(9) . . .
103(10) . . .
88(9) . . .
95(10) . . .
92(10) . . .
79(9) . . .
89(9) . . .
83(9) . . .
89(9) . . .
90(9) . . .
83(9) . . .
83(9) . . .
88(9) . . .
89(9) . . .
94(10) . . .
90(9) . . .
92(10) . . .
84(9) . . .
85(9) . . .
92(10) . . .
86(9) . . .
89(9) . . .
82(9) . . .
81(9) . . .
93(10) . . .
71(8) . . .
82(9) . . .
69(8) . . .
69(8) . . .
78(9) . . .
100(10) . . .
82(9) . . .
80(9) . . .
103(10) . . .
88(9) . . .
81(9) . . .
89(9) . . .
90(9) . . .
88(9) . . .
87(9) . . .
78(9) . . .
82(9) . . .
80(9) . . .
76(9) . . .
92(10) . . .
83(9) . . .
88(9) . . .
73(9) . . .
81(9) . . .
98(10) . . .
83(9) . . .
80(9) . . .
86(9) . . .
80(9) . . .
74(9) . . .
83(9) . . .
90(9) . . .
77(9) . . .
75(9) . . .
77(9) . . .
84(9) . . .
88(9) . . .
93(10) . . .
95(10) . . .
78(9) . . .
96(10) . . .
62(8) . . .
83(9) . . .
92(10) . . .
80(9) . . .
92(10) . . .
82(9) . . .
92(10) . . .
77(9) . . .
86(9) . . .
79(9) . . .
85(9) . . .
78(9) . . .
89(9) . . .
82(9) . . .
86(9) . . .
82(9) . . .
83(9) . . .
84(9) . . .
82(9) . . .
90(9) . . .
81(9) . . .
77(9) . . .
76(9) . . .
83(9) . . .
98(10) . . .
76(9) . . .
84(9) . . .
92(10) . . .
75(9) . . .
93(10) . . .
84(9) . . .
95(10) . . .
89(9) . . .
87(9) . . .
92(10) . . .
82(9) . . .
86(9) . . .
85(9) . . .
95(10) . . .
93(10) . . .
84(9) . . .
90(9) . . .
93(10) . . .
81(9) . . .
78(9) . . .
91(10) . . .
91(10) . . .
86(9) . . .
106(10) . . .
94(10) . . .
79(9) . . .
99(10) . . .
107(10) . . .
81(9) . . .
81(9) . . .
92(10) . . .
86(9) . . .
86(9) . . .
89(9) . . .
83(9) . . .
64(8) . . .
72(8) . . .
87(9) . . .
74(9) . . .
94(10) . . .
83(9) . . .
77(9) . . .
69(8) . . .
89(9) . . .
90(9) . . .
84(9) . . .
76(9) . . .
83(9) . . .
81(9) . . .
61(8) . . .
84(9) . . .
64(8) . . .
95(10) . . .
105(10) . . .
84(9) . . .
103(10) . . .
98(10) . . .
88(9) . . .
92(10) . . .
84(9) . . .
87(9) . . .
78(9) . . .
82(9) . . .
72(8) . . .
87(9) . . .
80(9) . . .
92(10) . . .
85(9) . . .
78(9) . . .
79(9) . . .
78(9) . . .
100(10) . . .
101(10) . . .
78(9) . . .
87(9) . . .
82(9) . . .
75(9) . . .
64(8) . . .
80(9) . . .
73(9) . . .
82(9) . . .
81(9) . . .
101(10) . . .
82(9) . . .
83(9) . . .
89(9) . . .
74(9) . . .
89(9) . . .
84(9) . . .
82(9) . . .
67(8) . . .
85(9) . . .
83(9) . . .
82(9) . . .
79(9) . . .
94(10) . . .
81(9) . . .
89(9) . . .
98(10) . . .
84(9) . . .
67(8) . . .
80(9) . . .
87(9) . . .
84(9) . . .
96(10) . . .
92(10) . . .
85(9) . . .
103(10) . . .
88(9) . . .
87(9) . . .
82(9) . . .
73(9) . . .
82(9) . . .
69(8) . . .
86(9) . . .
87(9) . . .
77(9) . . .
87(9) . . .
92(10) . . .
87(9) . . .
81(9) . . .
80(9) . . .
87(9) . . .
89(9) . . .
86(9) . . .
70(8) . . .
75(9) . . .
93(10) . . .
91(10) . . .
85(9) . . .
107(10) . . .
84(9) . . .
78(9) . . .
90(9) . . .
83(9) . . .
83(9) . . .
72(8) . . .
72(8) . . .
70(8) . . .
83(9) . . .
82(9) . . .
89(9) . . .
89(9) . . .
76(9) . . .
69(8) . . .
87(9) . . .
83(9) . . .
95(10) . . .
80(9) . . .
77(9) . . .
81(9) . . .
79(9) . . .
104(10) . . .
81(9) . . .
80(9) . . .
87(9) . . .
82(9) . . .
92(10) . . .
86(9) . . .
75(9) . . .
76(9) . . .
87(9) . . .
75(9) . . .
91(10) . . .
70(8) . . .
94(10) . . .
87(9) . . .
87(9) . . .
88(9) . . .
85(9) . . .
79(9) . . .
75(9) . . .
84(9) . . .
88(9) . . .
87(9) . . .
87(9) . . .
88(9) . . .
80(9) . . .
75(9) . . .
88(9) . . .
83(9) . . .
87(9) . . .
88(9) . . .
90(9) . . .
79(9) . . .
94(10) . . .
90(9) . . .
79(9) . . .
86(9) . . .
85(9) . . .
97(10) . . .
64(8) . . .
88(9) . . .
85(9) . . .
89(9) . . .
83(9) . . .
73(9) . . .
79(9) . . .
79(9) . . .
74(9) . . .
83(9) . . .
82(9) . . .
85(9) . . .
90(9) . . .
86(9) . . .
88(9) . . .
79(9) . . .
77(9) . . .
87(9) . . .
89(9) . . .
78(9) . . .
78(9) . . .
103(10) . . .
73(9) . . .
78(9) . . .
90(9) . . .
82(9) . . .
83(9) . . .
69(8) . . .
79(9) . . .
96(10) . . .
93(10) . . .
83(9) . . .
88(9) . . .
87(9) . . .
88(9) . . .
84(9) . . .
82(9) . . .
74(9) . . .
89(9) . . .
72(8) . . .
83(9) . . .
97(10) . . .
92(10) . . .
101(10) . . .
82(9) . . .
69(8) . . .
86(9) . . .
90(9) . . .
75(9) . . .
83(9) . . .
85(9) . . .
91(10) . . .
88(9) . . .
97(10) . . .
82(9) . . .
93(10) . . .
75(9) . . .
87(9) . . .
87(9) . . .
84(9) . . .
79(9) . . .
73(9) . . .
92(10) . . .
78(9) . . .
82(9) . . .
100(10) . . .
77(9) . . .
91(10) . . .
78(9) . . .
79(9) . . .
75(9) . . .
88(9) . . .
93(10) . . .
85(9) . . .
86(9) . . .
84(9) . . .
80(9) . . .
66(8) . . .
81(9) . . .
80(9) . . .
87(9) . . .
72(8) . . .
83(9) . . .
71(8) . . .
79(9) . . .
66(8) . . .
72(8) . . .
86(9) . . .
77(9) . . .
73(9) . . .
82(9) . . .
86(9) . . .
74(9) . . .
71(8) . . .
75(9) . . .
79(9) . . .
75(9) . . .
74(9) . . .
86(9) . . .
81(9) . . .
76(9) . . .
99(10) . . .
76(9) . . .
93(10) . . .
97(10) . . .
97(10) . . .
97(10) . . .
82(9) . . .
92(10) . . .
82(9) . . .
101(10) . . .
106(10) . . .
60(8) . . .
79(9) . . .
86(9) . . .
84(9) . . .
68(8) . . .
77(9) . . .
91(10) . . .
84(9) . . .
86(9) . . .
102(10) . . .
94(10) . . .
80(9) . . .
79(9) . . .
74(9) . . .
96(10) . . .
91(10) . . .
96(10) . . .
88(9) . . .
79(9) . . .
69(8) . . .
78(9) . . .
74(9) . . .
89(9) . . .
82(9) . . .
87(9) . . .
81(9) . . .
79(9) . . .
70(8) . . .
82(9) . . .
85(9) . . .
75(9) . . .
90(9) . . .
81(9) . . .
85(9) . . .
83(9) . . .
85(9) . . .
88(9) . . .
69(8) . . .
85(9) . . .
88(9) . . .
85(9) . . .
96(10) . . .
89(9) . . .
70(8) . . .
93(10) . . .
70(8) . . .
88(9) . . .
98(10) . . .
84(9) . . .
93(10) . . .
86(9) . . .
86(9) . . .
89(9) . . .
95(10) . . .
88(9) . . .
67(8) . . .
75(9) . . .
71(8) . . .
87(9) . . .
82(9) . . .
91(10) . . .
67(8) . . .
86(9) . . .
80(9) . . .
101(10) . . .
90(9) . . .
78(9) . . .
74(9) . . .
83(9) . . .
78(9) . . .
79(9) . . .
84(9) . . .
78(9) . . .
94(10) . . .
90(9) . . .
90(9) . . .
87(9) . . .
84(9) . . .
90(9) . . .
81(9) . . .
92(10) . . .
78(9) . . .
87(9) . . .
80(9) . . .
78(9) . . .
76(9) . . .
92(10) . . .
79(9) . . .
87(9) . . .
97(10) . . .
73(9) . . .
77(9) . . .
87(9) . . .
77(9) . . .
86(9) . . .
86(9) . . .
85(9) . . .
91(10) . . .
88(9) . . .
91(10) . . .
84(9) . . .
92(10) . . .
86(9) . . .
84(9) . . .
89(9) . . .
84(9) . . .
68(8) . . .
69(8) . . .
100(10) . . .
94(10) . . .
82(9) . . .
90(9) . . .
66(8) . . .
89(9) . . .
84(9) . . .
81(9) . . .
80(9) . . .
62(8) . . .
79(9) . . .
82(9) . . .
76(9) . . .
69(8) . . .
78(9) . . .
83(9) . . .
83(9) . . .
88(9) . . .
88(9) . . .
70(8) . . .
88(9) . . .
94(10) . . .
78(9) . . .
87(9) . . .
75(9) . . .
76(9) . . .
86(9) . . .
84(9) . . .
88(9) . . .
84(9) . . .
82(9) . . .
106(10) . . .
74(9) . . .
93(10) . . .
88(9) . . .
77(9) . . .
85(9) . . .
78(9) . . .
81(9) . . .
84(9) . . .
84(9) . . .
88(9) . . .
88(9) . . .
90(9) . . .
66(8) . . .
83(9) . . .
73(9) . . .
84(9) . . .
82(9) . . .
94(10) . . .
76(9) . . .
88(9) . . .
88(9) . . .
82(9) . . .
89(9) . . .
82(9) . . .
99(10) . . .
68(8) . . .
92(10) . . .
86(9) . . .
77(9) . . .
76(9) . . .
91(10) . . .
99(10) . . .
91(10) . . .
76(9) . . .
77(9) . . .
75(9) . . .
82(9) . . .
93(10) . . .
81(9) . . .
72(8) . . .
80(9) . . .
93(10) . . .
87(9) . . .
79(9) . . .
85(9) . . .
87(9) . . .
70(8) . . .
94(10) . . .
94(10) . . .
74(9) . . .
77(9) . . .
91(10) . . .
83(9) . . .
80(9) . . .
98(10) . . .
90(9) . . .
82(9) . . .
88(9) . . .
86(9) . . .
76(9) . . .
83(9) . . .
74(9) . . .
76(9) . . .
76(9) . . .
84(9) . . .
92(10) . . .
73(9) . . .
81(9) . . .
82(9) . . .
86(9) . . .
91(10) . . .
82(9) . . .
88(9) . . .
93(10) . . .
96(10) . . .
87(9) . . .
88(9) . . .
84(9) . . .
101(10) . . .
81(9) . . .
77(9) . . .
83(9) . . .
87(9) . . .
80(9) . . .
91(10) . . .
62(8) . . .
85(9) . . .
84(9) . . .
93(10) . . .
72(8) . . .
88(9) . . .
81(9) . . .
90(9) . . .
90(9) . . .
83(9) . . .
86(9) . . .
91(10) . . .
71(8) . . .
84(9) . . .
75(9) . . .
76(9) . . .
80(9) . . .
76(9) . . .
81(9) . . .
80(9) . . .
82(9) . . .
92(10) . . .
78(9) . . .
86(9) . . .
81(9) . . .
78(9) . . .
76(9) . . .
76(9) . . .
81(9) . . .
86(9) . . .
86(9) . . .
89(9) . . .
72(8) . . .
67(8) . . .
85(9) . . .
79(9) . . .
83(9) . . .
73(9) . . .
92(10) . . .
99(10) . . .
85(9) . . .
75(9) . . .
94(10) . . .
89(9) . . .
84(9) . . .
82(9) . . .
84(9) . . .
77(9) . . .
78(9) . . .
100(10) . . .
77(9) . . .
83(9) . . .
80(9) . . .
82(9) . . .
82(9) . . .
90(9) . . .
78(9) . . .
76(9) . . .
86(9) . . .
102(10) . . .
77(9) . . .
78(9) . . .
90(9) . . .
91(10) . . .
92(10) . . .
79(9) . . .
86(9) . . .
95(10) . . .
94(10) . . .
88(9) . . .
98(10) . . .
102(10) . . .
90(9) . . .
66(8) . . .
81(9) . . .
72(8) . . .
79(9) . . .
84(9) . . .
87(9) . . .
91(10) . . .
70(8) . . .
92(10) . . .
66(8) . . .
89(9) . . .
87(9) . . .
78(9) . . .
75(9) . . .
68(8) . . .
78(9) . . .
106(10) . . .
89(9) . . .
83(9) . . .
100(10) . . .
96(10) . . .
84(9) . . .
87(9) . . .
97(10) . . .
88(9) . . .
88(9) . . .
77(9) . . .
76(9) . . .
88(9) . . .
81(9) . . .
92(10) . . .
88(9) . . .
73(9) . . .
80(9) . . .
91(10) . . .
84(9) . . .
89(9) . . .
92(10) . . .
80(9) . . .
75(9) . . .
76(9) . . .
86(9) . . .
98(10) . . .
86(9) . . .
80(9) . . .
73(9) . . .
79(9) . . .
79(9) . . .
89(9) . . .
73(9) . . .
98(10) . . .
73(9) . . .
73(9) . . .
78(9) . . .
67(8) . . .
74(9) . . .
86(9) . . .
85(9) . . .
74(9) . . .
90(9) . . .
96(10) . . .
89(9) . . .
83(9) . . .
90(9) . . .
84(9) . . .
76(9) . . .
84(9) . . .
87(9) . . .
89(9) . . .
77(9) . . .
91(10) . . .
96(10) . . .
82(9) . . .
86(9) . . .
77(9) . . .
78(9) . . .
98(10) . . .
86(9) . . .
82(9) . . .
71(8) . . .
84(9) . . .
95(10) . . .
91(10) . . .
79(9) . . .
85(9) . . .
89(9) . . .
85(9) . . .
78(9) . . .
77(9) . . .
83(9) . . .
92(10) . . .
79(9) . . .
90(9) . . .
87(9) . . .
68(8) . . .
76(9) . . .
84(9) . . .
92(10) . . .
79(9) . . .
87(9) . . .
77(9) . . .
96(10) . . .
90(9) . . .
70(8) . . .
96(10) . . .
86(9) . . .
91(10) . . .
99(10) . . .
92(10) . . .
105(10) . . .
93(10) . . .
86(9) . . .
70(8) . . .
76(9) . . .
92(10) . . .
87(9) . . .
77(9) . . .
98(10) . . .
100(10) . . .
91(10) . . .
101(10) . . .
97(10) . . .
83(9) . . .
86(9) . . .
85(9) . . .
93(10) . . .
89(9) . . .
94(10) . . .
81(9) . . .
82(9) . . .
91(10) . . .
87(9) . . .
91(10) . . .
92(10) . . .
80(9) . . .
75(9) . . .
113(11) . . .
85(9) . . .
91(10) . . .
88(9) . . .
91(10) . . .
80(9) . . .
91(10) . . .
80(9) . . .
73(9) . . .
93(10) . . .
88(9) . . .
90(9) . . .
86(9) . . .
78(9) . . .
96(10) . . .
78(9) . . .
86(9) . . .
101(10) . . .
89(9) . . .
83(9) . . .
95(10) . . .
79(9) . . .
69(8) . . .
91(10) . . .
87(9) . . .
91(10) . . .
86(9) . . .
80(9) . . .
93(10) . . .
87(9) . . .
94(10) . . .
98(10) . . .
74(9) . . .
77(9) . . .
88(9) . . .
82(9) . . .
85(9) . . .
98(10) . . .
85(9) . . .
85(9) . . .
84(9) . . .
84(9) . . .
95(10) . . .
101(10) . . .
94(10) . . .
89(9) . . .
98(10) . . .
85(9) . . .
81(9) . . .
92(10) . . .
84(9) . . .
75(9) . . .
79(9) . . .
82(9) . . .
78(9) . . .
88(9) . . .
92(10) . . .
92(10) . . .
86(9) . . .
90(9) . . .
82(9) . . .
76(9) . . .
83(9) . . .
75(9) . . .
107(10) . . .
95(10) . . .
89(9) . . .
82(9) . . .
91(10) . . .
101(10) . . .
96(10) . . .
73(9) . . .
100(10) . . .
103(10) . . .
90(9) . . .
90(9) . . .
93(10) . . .
89(9) . . .
83(9) . . .
80(9) . . .
76(9) . . .
84(9) . . .
87(9) . . .
74(9) . . .
85(9) . . .
91(10) . . .
81(9) . . .
87(9) . . .
104(10) . . .
106(10) . . .
74(9) . . .
80(9) . . .
91(10) . . .
87(9) . . .
79(9) . . .
88(9) . . .
104(10) . . .
86(9) . . .
109(10) . . .
89(9) . . .
76(9) . . .
87(9) . . .
94(10) . . .
95(10) . . .
76(9) . . .
93(10) . . .
79(9) . . .
86(9) . . .
90(9) . . .
93(10) . . .
84(9) . . .
91(10) . . .
91(10) . . .
80(9) . . .
74(9) . . .
88(9) . . .
94(10) . . .
79(9) . . .
77(9) . . .
95(10) . . .
89(9) . . .
79(9) . . .
94(10) . . .
84(9) . . .
81(9) . . .
94(10) . . .
108(10) . . .
90(9) . . .
94(10) . . .
88(9) . . .
83(9) . . .
81(9) . . .
90(9) . . .
91(10) . . .
110(10) . . .
86(9) . . .
82(9) . . .
89(9) . . .
88(9) . . .
80(9) . . .
91(10) . . .
93(10) . . .
98(10) . . .
90(9) . . .
87(9) . . .
96(10) . . .
87(9) . . .
97(10) . . .
98(10) . . .
107(10) . . .
82(9) . . .
92(10) . . .
92(10) . . .
105(10) . . .
81(9) . . .
87(9) . . .
102(10) . . .
88(9) . . .
91(10) . . .
98(10) . . .
81(9) . . .
90(9) . . .
84(9) . . .
84(9) . . .
91(10) . . .
101(10) . . .
104(10) . . .
102(10) . . .
100(10) . . .
112(11) . . .
83(9) . . .
99(10) . . .
102(10) . . .
90(9) . . .
112(11) . . .
92(10) . . .
110(10) . . .
96(10) . . .
89(9) . . .
89(9) . . .
91(10) . . .
103(10) . . .
104(10) . . .
106(10) . . .
105(10) . . .
119(11) . . .
101(10) . . .
107(10) . . .
106(10) . . .
113(11) . . .
114(11) . . .
107(10) . . .
112(11) . . .
109(10) . . .
130(11) . . .
111(11) . . .
99(10) . . .
111(11) . . .
107(10) . . .
105(10) . . .
117(11) . . .
112(11) . . .
113(11) . . .
117(11) . . .
110(10) . . .
108(10) . . .
117(11) . . .
125(11) . . .
119(11) . . .
130(11) . . .
129(11) . . .
108(10) . . .
120(11) . . .
122(11) . . .
119(11) . . .
123(11) . . .
129(11) . . .
111(11) . . .
128(11) . . .
147(12) . . .
136(12) . . .
120(11) . . .
159(13) . . .
124(11) . . .
140(12) . . .
141(12) . . .
144(12) . . .
158(13) . . .
147(12) . . .
151(12) . . .
164(13) . . .
163(13) . . .
155(12) . . .
153(12) . . .
143(12) . . .
163(13) . . .
154(12) . . .
144(12) . . .
147(12) . . .
157(13) . . .
168(13) . . .
152(12) . . .
163(13) . . .
174(13) . . .
199(14) . . .
178(13) . . .
210(14) . . .
188(14) . . .
187(14) . . .
210(14) . . .
187(14) . . .
187(14) . . .
196(14) . . .
213(15) . . .
203(14) . . .
216(15) . . .
225(15) . . .
228(15) . . .
236(15) . . .
244(16) . . .
236(15) . . .
260(16) . . .
278(17) . . .
243(16) . . .
279(17) . . .
276(17) . . .
305(17) . . .
295(17) . . .
307(18) . . .
310(18) . . .
328(18) . . .
342(18) . . .
364(19) . . .
360(19) . . .
388(20) . . .
403(20) . . .
403(20) . . .
436(21) . . .
420(20) . . .
407(20) . . .
445(21) . . .
485(22) . . .
458(21) . . .
501(22) . . .
497(22) . . .
506(22) . . .
564(24) . . .
556(24) . . .
550(23) . . .
607(25) . . .
609(25) . . .
616(25) . . .
592(24) . . .
636(25) . . .
648(25) . . .
671(26) . . .
701(26) . . .
684(26) . . .
680(26) . . .
686(26) . . .
708(27) . . .
668(26) . . .
673(26) . . .
709(27) . . .
688(26) . . .
675(26) . . .
711(27) . . .
695(26) . . .
676(26) . . .
700(26) . . .
678(26) . . .
690(26) . . .
693(26) . . .
720(27) . . .
661(26) . . .
678(26) . . .
673(26) . . .
641(25) . . .
634(25) . . .
600(24) . . .
578(24) . . .
555(24) . . .
538(23) . . .
558(24) . . .
537(23) . . .
513(23) . . .
482(22) . . .
471(22) . . .
449(21) . . .
469(22) . . .
451(21) . . .
422(21) . . .
412(20) . . .
398(20) . . .
390(20) . . .
387(20) . . .
367(19) . . .
335(18) . . .
335(18) . . .
324(18) . . .
310(18) . . .
302(17) . . .
305(17) . . .
320(18) . . .
304(17) . . .
275(17) . . .
258(16) . . .
280(17) . . .
248(16) . . .
254(16) . . .
231(15) . . .
212(15) . . .
196(14) . . .
193(14) . . .
227(15) . . .
231(15) . . .
206(14) . . .
194(14) . . .
187(14) . . .
187(14) . . .
206(14) . . .
211(15) . . .
177(13) . . .
184(14) . . .
172(13) . . .
186(14) . . .
191(14) . . .
177(13) . . .
169(13) . . .
163(13) . . .
168(13) . . .
153(12) . . .
166(13) . . .
155(12) . . .
181(13) . . .
173(13) . . .
157(13) . . .
137(12) . . .
161(13) . . .
147(12) . . .
133(12) . . .
139(12) . . .
133(12) . . .
145(12) . . .
126(11) . . .
136(12) . . .
124(11) . . .
145(12) . . .
148(12) . . .
140(12) . . .
146(12) . . .
120(11) . . .
113(11) . . .
119(11) . . .
113(11) . . .
121(11) . . .
141(12) . . .
113(11) . . .
112(11) . . .
125(11) . . .
119(11) . . .
114(11) . . .
105(10) . . .
128(11) . . .
123(11) . . .
103(10) . . .
115(11) . . .
110(10) . . .
119(11) . . .
103(10) . . .
109(10) . . .
127(11) . . .
137(12) . . .
107(10) . . .
116(11) . . .
124(11) . . .
113(11) . . .
117(11) . . .
105(10) . . .
119(11) . . .
119(11) . . .
102(10) . . .
113(11) . . .
105(10) . . .
91(10) . . .
101(10) . . .
104(10) . . .
107(10) . . .
106(10) . . .
110(10) . . .
118(11) . . .
118(11) . . .
108(10) . . .
104(10) . . .
93(10) . . .
111(11) . . .
102(10) . . .
89(9) . . .
102(10) . . .
99(10) . . .
95(10) . . .
97(10) . . .
114(11) . . .
100(10) . . .
102(10) . . .
93(10) . . .
106(10) . . .
100(10) . . .
93(10) . . .
98(10) . . .
110(10) . . .
104(10) . . .
110(10) . . .
98(10) . . .
93(10) . . .
96(10) . . .
104(10) . . .
114(11) . . .
107(10) . . .
102(10) . . .
105(10) . . .
113(11) . . .
97(10) . . .
104(10) . . .
89(9) . . .
93(10) . . .
95(10) . . .
102(10) . . .
98(10) . . .
107(10) . . .
107(10) . . .
102(10) . . .
114(11) . . .
102(10) . . .
87(9) . . .
94(10) . . .
98(10) . . .
107(10) . . .
87(9) . . .
83(9) . . .
84(9) . . .
94(10) . . .
95(10) . . .
84(9) . . .
93(10) . . .
94(10) . . .
76(9) . . .
87(9) . . .
81(9) . . .
76(9) . . .
82(9) . . .
94(10) . . .
103(10) . . .
96(10) . . .
94(10) . . .
101(10) . . .
93(10) . . .
90(9) . . .
99(10) . . .
98(10) . . .
81(9) . . .
89(9) . . .
100(10) . . .
86(9) . . .
87(9) . . .
103(10) . . .
88(9) . . .
90(9) . . .
86(9) . . .
89(9) . . .
96(10) . . .
82(9) . . .
94(10) . . .
102(10) . . .
87(9) . . .
83(9) . . .
93(10) . . .
92(10) . . .
84(9) . . .
88(9) . . .
116(11) . . .
91(10) . . .
88(9) . . .
99(10) . . .
113(11) . . .
87(9) . . .
79(9) . . .
91(10) . . .
85(9) . . .
93(10) . . .
86(9) . . .
107(10) . . .
101(10) . . .
93(10) . . .
82(9) . . .
86(9) . . .
97(10) . . .
93(10) . . .
88(9) . . .
92(10) . . .
98(10) . . .
91(10) . . .
87(9) . . .
97(10) . . .
95(10) . . .
85(9) . . .
111(11) . . .
92(10) . . .
89(9) . . .
97(10) . . .
104(10) . . .
96(10) . . .
89(9) . . .
103(10) . . .
76(9) . . .
93(10) . . .
90(9) . . .
89(9) . . .
100(10) . . .
102(10) . . .
98(10) . . .
81(9) . . .
92(10) . . .
97(10) . . .
90(9) . . .
92(10) . . .
89(9) . . .
92(10) . . .
83(9) . . .
92(10) . . .
81(9) . . .
94(10) . . .
91(10) . . .
95(10) . . .
86(9) . . .
89(9) . . .
87(9) . . .
87(9) . . .
91(10) . . .
92(10) . . .
96(10) . . .
105(10) . . .
78(9) . . .
93(10) . . .
96(10) . . .
89(9) . . .
98(10) . . .
98(10) . . .
91(10) . . .
99(10) . . .
99(10) . . .
85(9) . . .
97(10) . . .
94(10) . . .
90(9) . . .
82(9) . . .
96(10) . . .
79(9) . . .
89(9) . . .
104(10) . . .
108(10) . . .
89(9) . . .
96(10) . . .
90(9) . . .
97(10) . . .
99(10) . . .
100(10) . . .
91(10) . . .
103(10) . . .
101(10) . . .
93(10) . . .
106(10) . . .
104(10) . . .
97(10) . . .
102(10) . . .
92(10) . . .
92(10) . . .
70(8) . . .
99(10) . . .
111(11) . . .
95(10) . . .
109(10) . . .
87(9) . . .
116(11) . . .
92(10) . . .
93(10) . . .
93(10) . . .
108(10) . . .
92(10) . . .
95(10) . . .
97(10) . . .
93(10) . . .
89(9) . . .
87(9) . . .
99(10) . . .
87(9) . . .
93(10) . . .
118(11) . . .
112(11) . . .
111(11) . . .
103(10) . . .
97(10) . . .
109(10) . . .
91(10) . . .
94(10) . . .
99(10) . . .
110(10) . . .
122(11) . . .
94(10) . . .
106(10) . . .
105(10) . . .
92(10) . . .
103(10) . . .
94(10) . . .
99(10) . . .
95(10) . . .
103(10) . . .
97(10) . . .
114(11) . . .
92(10) . . .
104(10) . . .
114(11) . . .
111(11) . . .
110(10) . . .
126(11) . . .
106(10) . . .
108(10) . . .
115(11) . . .
107(10) . . .
100(10) . . .
99(10) . . .
104(10) . . .
109(10) . . .
99(10) . . .
111(11) . . .
117(11) . . .
109(10) . . .
129(11) . . .
121(11) . . .
108(10) . . .
116(11) . . .
111(11) . . .
132(11) . . .
108(10) . . .
127(11) . . .
115(11) . . .
117(11) . . .
135(12) . . .
123(11) . . .
120(11) . . .
125(11) . . .
144(12) . . .
149(12) . . .
163(13) . . .
152(12) . . .
125(11) . . .
152(12) . . .
165(13) . . .
132(11) . . .
133(12) . . .
132(11) . . .
145(12) . . .
152(12) . . .
149(12) . . .
148(12) . . .
156(12) . . .
148(12) . . .
155(12) . . .
141(12) . . .
170(13) . . .
156(12) . . .
151(12) . . .
186(14) . . .
167(13) . . .
170(13) . . .
169(13) . . .
194(14) . . .
188(14) . . .
186(14) . . .
190(14) . . .
196(14) . . .
180(13) . . .
229(15) . . .
199(14) . . .
214(15) . . .
227(15) . . .
234(15) . . .
213(15) . . .
225(15) . . .
252(16) . . .
255(16) . . .
244(16) . . .
261(16) . . .
268(16) . . .
294(17) . . .
259(16) . . .
301(17) . . .
301(17) . . .
315(18) . . .
314(18) . . .
350(19) . . .
338(18) . . .
327(18) . . .
366(19) . . .
380(19) . . .
339(18) . . .
359(19) . . .
376(19) . . .
419(20) . . .
400(20) . . .
392(20) . . .
388(20) . . .
419(20) . . .
430(21) . . .
438(21) . . .
434(21) . . .
417(20) . . .
458(21) . . .
462(21) . . .
460(21) . . .
454(21) . . .
461(21) . . .
480(22) . . .
464(22) . . .
485(22) . . .
484(22) . . .
457(21) . . .
464(22) . . .
439(21) . . .
446(21) . . .
442(21) . . .
455(21) . . .
408(20) . . .
436(21) . . .
427(21) . . .
429(21) . . .
415(20) . . .
360(19) . . .
392(20) . . .
359(19) . . .
355(19) . . .
377(19) . . .
362(19) . . .
340(18) . . .
326(18) . . .
288(17) . . .
302(17) . . .
329(18) . . .
317(18) . . .
297(17) . . .
302(17) . . .
284(17) . . .
261(16) . . .
246(16) . . .
241(16) . . .
256(16) . . .
247(16) . . .
221(15) . . .
246(16) . . .
233(15) . . .
215(15) . . .
196(14) . . .
201(14) . . .
211(15) . . .
181(13) . . .
182(13) . . .
188(14) . . .
180(13) . . .
169(13) . . .
170(13) . . .
178(13) . . .
152(12) . . .
164(13) . . .
160(13) . . .
169(13) . . .
162(13) . . .
163(13) . . .
152(12) . . .
157(13) . . .
134(12) . . .
149(12) . . .
138(12) . . .
141(12) . . .
135(12) . . .
148(12) . . .
142(12) . . .
148(12) . . .
135(12) . . .
132(11) . . .
115(11) . . .
122(11) . . .
135(12) . . .
139(12) . . .
115(11) . . .
121(11) . . .
135(12) . . .
108(10) . . .
133(12) . . .
121(11) . . .
128(11) . . .
119(11) . . .
115(11) . . .
115(11) . . .
106(10) . . .
129(11) . . .
117(11) . . .
108(10) . . .
130(11) . . .
110(10) . . .
117(11) . . .
92(10) . . .
123(11) . . .
117(11) . . .
110(10) . . .
111(11) . . .
118(11) . . .
120(11) . . .
105(10) . . .
117(11) . . .
105(10) . . .
115(11) . . .
93(10) . . .
103(10) . . .
113(11) . . .
90(9) . . .
102(10) . . .
108(10) . . .
100(10) . . .
88(9) . . .
99(10) . . .
84(9) . . .
113(11) . . .
108(10) . . .
109(10) . . .
102(10) . . .
100(10) . . .
100(10) . . .
90(9) . . .
100(10) . . .
98(10) . . .
93(10) . . .
98(10) . . .
101(10) . . .
115(11) . . .
91(10) . . .
98(10) . . .
88(9) . . .
95(10) . . .
92(10) . . .
91(10) . . .
103(10) . . .
113(11) . . .
107(10) . . .
107(10) . . .
97(10) . . .
94(10) . . .
89(9) . . .
94(10) . . .
99(10) . . .
97(10) . . .
102(10) . . .
86(9) . . .
82(9) . . .
90(9) . . .
81(9) . . .
96(10) . . .
94(10) . . .
101(10) . . .
100(10) . . .
93(10) . . .
81(9) . . .
99(10) . . .
84(9) . . .
97(10) . . .
90(9) . . .
79(9) . . .
78(9) . . .
102(10) . . .
80(9) . . .
81(9) . . .
75(9) . . .
94(10) . . .
94(10) . . .
95(10) . . .
101(10) . . .
83(9) . . .
102(10) . . .
93(10) . . .
84(9) . . .
81(9) . . .
78(9) . . .
105(10) . . .
94(10) . . .
99(10) . . .
114(11) . . .
84(9) . . .
76(9) . . .
81(9) . . .
85(9) . . .
88(9) . . .
73(9) . . .
80(9) . . .
98(10) . . .
91(10) . . .
79(9) . . .
87(9) . . .
85(9) . . .
84(9) . . .
77(9) . . .
89(9) . . .
78(9) . . .
76(9) . . .
97(10) . . .
77(9) . . .
85(9) . . .
76(9) . . .
91(10) . . .
83(9) . . .
88(9) . . .
83(9) . . .
87(9) . . .
76(9) . . .
82(9) . . .
72(8) . . .
102(10) . . .
92(10) . . .
72(8) . . .
79(9) . . .
82(9) . . .
86(9) . . .
95(10) . . .
89(9) . . .
98(10) . . .
86(9) . . .
94(10) . . .
92(10) . . .
81(9) . . .
74(9) . . .
91(10) . . .
87(9) . . .
84(9) . . .
85(9) . . .
100(10) . . .
95(10) . . .
80(9) . . .
84(9) . . .
64(8) . . .
83(9) . . .
90(9) . . .
82(9) . . .
80(9) . . .
89(9) . . .
85(9) . . .
82(9) . . .
85(9) . . .
83(9) . . .
100(10) . . .
75(9) . . .
72(8) . . .
75(9) . . .
89(9) . . .
81(9) . . .
91(10) . . .
92(10) . . .
78(9) . . .
73(9) . . .
76(9) . . .
69(8) . . .
93(10) . . .
87(9) . . .
84(9) . . .
92(10) . . .
97(10) . . .
93(10) . . .
83(9) . . .
93(10) . . .
83(9) . . .
86(9) . . .
95(10) . . .
92(10) . . .
80(9) . . .
103(10) . . .
80(9) . . .
78(9) . . .
76(9) . . .
78(9) . . .
64(8) . . .
95(10) . . .
79(9) . . .
80(9) . . .
79(9) . . .
73(9) . . .
78(9) . . .
79(9) . . .
87(9) . . .
81(9) . . .
84(9) . . .
82(9) . . .
81(9) . . .
78(9) . . .
87(9) . . .
77(9) . . .
78(9) . . .
83(9) . . .
82(9) . . .
83(9) . . .
79(9) . . .
75(9) . . .
93(10) . . .
90(9) . . .
89(9) . . .
82(9) . . .
88(9) . . .
81(9) . . .
74(9) . . .
90(9) . . .
99(10) . . .
86(9) . . .
82(9) . . .
79(9) . . .
88(9) . . .
90(9) . . .
73(9) . . .
84(9) . . .
80(9) . . .
86(9) . . .
79(9) . . .
84(9) . . .
78(9) . . .
77(9) . . .
84(9) . . .
80(9) . . .
96(10) . . .
84(9) . . .
80(9) . . .
84(9) . . .
85(9) . . .
89(9) . . .
84(9) . . .
89(9) . . .
81(9) . . .
81(9) . . .
84(9) . . .
76(9) . . .
76(9) . . .
74(9) . . .
75(9) . . .
79(9) . . .
87(9) . . .
93(10) . . .
76(9) . . .
77(9) . . .
92(10) . . .
71(8) . . .
75(9) . . .
77(9) . . .
79(9) . . .
75(9) . . .
89(9) . . .
78(9) . . .
84(9) . . .
82(9) . . .
101(10) . . .
82(9) . . .
75(9) . . .
84(9) . . .
88(9) . . .
73(9) . . .
72(8) . . .
85(9) . . .
65(8) . . .
70(8) . . .
84(9) . . .
87(9) . . .
86(9) . . .
78(9) . . .
78(9) . . .
88(9) . . .
72(8) . . .
87(9) . . .
83(9) . . .
86(9) . . .
83(9) . . .
97(10) . . .
85(9) . . .
73(9) . . .
82(9) . . .
81(9) . . .
88(9) . . .
78(9) . . .
72(8) . . .
78(9) . . .
77(9) . . .
79(9) . . .
61(8) . . .
84(9) . . .
74(9) . . .
74(9) . . .
64(8) . . .
84(9) . . .
66(8) . . .
83(9) . . .
83(9) . . .
76(9) . . .
68(8) . . .
82(9) . . .
83(9) . . .
73(9) . . .
72(8) . . .
84(9) . . .
77(9) . . .
78(9) . . .
73(9) . . .
79(9) . . .
83(9) . . .
77(9) . . .
77(9) . . .
73(9) . . .
87(9) . . .
68(8) . . .
96(10) . . .
76(9) . . .
89(9) . . .
74(9) . . .
73(9) . . .
77(9) . . .
74(9) . . .
70(8) . . .
77(9) . . .
63(8) . . .
75(9) . . .
81(9) . . .
88(9) . . .
79(9) . . .
83(9) . . .
68(8) . . .
89(9) . . .
91(10) . . .
84(9) . . .
66(8) . . .
76(9) . . .
76(9) . . .
69(8) . . .
79(9) . . .
84(9) . . .
77(9) . . .
86(9) . . .
83(9) . . .
91(10) . . .
69(8) . . .
77(9) . . .
86(9) . . .
81(9) . . .
79(9) . . .
72(8) . . .
83(9) . . .
73(9) . . .
67(8) . . .
72(8) . . .
73(9) . . .
70(8) . . .
77(9) . . .
72(8) . . .
65(8) . . .
61(8) . . .
88(9) . . .
85(9) . . .
82(9) . . .
75(9) . . .
72(8) . . .
66(8) . . .
73(9) . . .
74(9) . . .
83(9) . . .
76(9) . . .
62(8) . . .
75(9) . . .
99(10) . . .
77(9) . . .
75(9) . . .
72(8) . . .
86(9) . . .
74(9) . . .
75(9) . . .
74(9) . . .
81(9) . . .
90(9) . . .
75(9) . . .
74(9) . . .
75(9) . . .
72(8) . . .
75(9) . . .
95(10) . . .
91(10) . . .
89(9) . . .
71(8) . . .
93(10) . . .
86(9) . . .
80(9) . . .
81(9) . . .
74(9) . . .
75(9) . . .
80(9) . . .
78(9) . . .
75(9) . . .
78(9) . . .
73(9) . . .
77(9) . . .
70(8) . . .
68(8) . . .
75(9) . . .
89(9) . . .
85(9) . . .
88(9) . . .
101(10) . . .
105(10) . . .
76(9) . . .
75(9) . . .
89(9) . . .
70(8) . . .
87(9) . . .
84(9) . . .
81(9) . . .
78(9) . . .
81(9) . . .
88(9) . . .
85(9) . . .
80(9) . . .
81(9) . . .
86(9) . . .
79(9) . . .
70(8) . . .
74(9) . . .
74(9) . . .
73(9) . . .
76(9) . . .
84(9) . . .
77(9) . . .
81(9) . . .
60(8) . . .
73(9) . . .
88(9) . . .
79(9) . . .
82(9) . . .
77(9) . . .
93(10) . . .
74(9) . . .
99(10) . . .
71(8) . . .
81(9) . . .
85(9) . . .
92(10) . . .
85(9) . . .
87(9) . . .
70(8) . . .
76(9) . . .
72(8) . . .
87(9) . . .
74(9) . . .
59(8) . . .
76(9) . . .
69(8) . . .
85(9) . . .
67(8) . . .
76(9) . . .
87(9) . . .
89(9) . . .
78(9) . . .
80(9) . . .
83(9) . . .
64(8) . . .
87(9) . . .
89(9) . . .
79(9) . . .
78(9) . . .
76(9) . . .
80(9) . . .
95(10) . . .
90(9) . . .
93(10) . . .
78(9) . . .
87(9) . . .
104(10) . . .
104(10) . . .
86(9) . . .
88(9) . . .
95(10) . . .
100(10) . . .
76(9) . . .
96(10) . . .
80(9) . . .
91(10) . . .
95(10) . . .
77(9) . . .
76(9) . . .
100(10) . . .
88(9) . . .
89(9) . . .
85(9) . . .
84(9) . . .
76(9) . . .
84(9) . . .
79(9) . . .
83(9) . . .
88(9) . . .
78(9) . . .
79(9) . . .
83(9) . . .
88(9) . . .
83(9) . . .
79(9) . . .
77(9) . . .
80(9) . . .
77(9) . . .
84(9) . . .
90(9) . . .
73(9) . . .
79(9) . . .
84(9) . . .
86(9) . . .
71(8) . . .
77(9) . . .
88(9) . . .
69(8) . . .
86(9) . . .
68(8) . . .
85(9) . . .
75(9) . . .
75(9) . . .
85(9) . . .
81(9) . . .
67(8) . . .
66(8) . . .
86(9) . . .
74(9) . . .
81(9) . . .
84(9) . . .
64(8) . . .
80(9) . . .
69(8) . . .
85(9) . . .
66(8) . . .
96(10) . . .
86(9) . . .
84(9) . . .
68(8) . . .
74(9) . . .
69(8) . . .
81(9) . . .
82(9) . . .
69(8) . . .
81(9) . . .
85(9) . . .
76(9) . . .
73(9) . . .
86(9) . . .
78(9) . . .
78(9) . . .
82(9) . . .
56(7) . . .
85(9) . . .
80(9) . . .
73(9) . . .
75(9) . . .
63(8) . . .
82(9) . . .
74(9) . . .
100(10) . . .
81(9) . . .
68(8) . . .
79(9) . . .
81(9) . . .
84(9) . . .
71(8) . . .
90(9) . . .
74(9) . . .
83(9) . . .
82(9) . . .
74(9) . . .
77(9) . . .
91(10) . . .
95(10) . . .
75(9) . . .
76(9) . . .
74(9) . . .
72(8) . . .
71(8) . . .
78(9) . . .
77(9) . . .
78(9) . . .
75(9) . . .
77(9) . . .
67(8) . . .
85(9) . . .
75(9) . . .
67(8) . . .
75(9) . . .
73(9) . . .
70(8) . . .
81(9) . . .
69(8) . . .
65(8) . . .
88(9) . . .
80(9) . . .
73(9) . . .
75(9) . . .
77(9) . . .
69(8) . . .
86(9) . . .
72(8) . . .
80(9) . . .
82(9) . . .
76(9) . . .
78(9) . . .
79(9) . . .
80(9) . . .
74(9) . . .
74(9) . . .
80(9) . . .
68(8) . . .
76(9) . . .
65(8) . . .
70(8) . . .
85(9) . . .
66(8) . . .
73(9) . . .
76(9) . . .
67(8) . . .
79(9) . . .
74(9) . . .
70(8) . . .
67(8) . . .
86(9) . . .
76(9) . . .
78(9) . . .
88(9) . . .
69(8) . . .
79(9) . . .
78(9) . . .
76(9) . . .
84(9) . . .
88(9) . . .
81(9) . . .
89(9) . . .
80(9) . . .
80(9) . . .
80(9) . . .
75(9) . . .
83(9) . . .
77(9) . . .
88(9) . . .
75(9) . . .
79(9) . . .
88(9) . . .
89(9) . . .
66(8) . . .
71(8) . . .
88(9) . . .
78(9) . . .
69(8) . . .
84(9) . . .
92(10) . . .
79(9) . . .
68(8) . . .
77(9) . . .
66(8) . . .
79(9) . . .
77(9) . . .
75(9) . . .
82(9) . . .
65(8) . . .
84(9) . . .
85(9) . . .
69(8) . . .
67(8) . . .
73(9) . . .
75(9) . . .
77(9) . . .
78(9) . . .
83(9) . . .
70(8) . . .
76(9) . . .
72(8) . . .
86(9) . . .
78(9) . . .
71(8) . . .
76(9) . . .
81(9) . . .
60(8) . . .
70(8) . . .
76(9) . . .
62(8) . . .
80(9) . . .
74(9) . . .
85(9) . . .
80(9) . . .
86(9) . . .
81(9) . . .
79(9) . . .
72(8) . . .
84(9) . . .
81(9) . . .
79(9) . . .
86(9) . . .
55(7) . . .
69(8) . . .
77(9) . . .
86(9) . . .
94(10) . . .
73(9) . . .
80(9) . . .
79(9) . . .
83(9) . . .
88(9) . . .
67(8) . . .
74(9) . . .
82(9) . . .
83(9) . . .
94(10) . . .
82(9) . . .
98(10) . . .
88(9) . . .
87(9) . . .
78(9) . . .
67(8) . . .
78(9) . . .
72(8) . . .
76(9) . . .
83(9) . . .
89(9) . . .
67(8) . . .
90(9) . . .
86(9) . . .
77(9) . . .
92(10) . . .
76(9) . . .
93(10) . . .
70(8) . . .
67(8) . . .
85(9) . . .
69(8) . . .
75(9) . . .
77(9) . . .
90(9) . . .
64(8) . . .
72(8) . . .
75(9) . . .
59(8) . . .
71(8) . . .
80(9) . . .
91(10) . . .
78(9) . . .
91(10) . . .
73(9) . . .
81(9) . . .
84(9) . . .
75(9) . . .
70(8) . . .
81(9) . . .
70(8) . . .
78(9) . . .
90(9) . . .
74(9) . . .
81(9) . . .
78(9) . . .
95(10) . . .
82(9) . . .
76(9) . . .
74(9) . . .
77(9) . . .
67(8) . . .
55(7) . . .
75(9) . . .
61(8) . . .
75(9) . . .
84(9) . . .
79(9) . . .
77(9) . . .
90(9) . . .
84(9) . . .
72(8) . . .
70(8) . . .
75(9) . . .
76(9) . . .
73(9) . . .
83(9) . . .
84(9) . . .
70(8) . . .
80(9) . . .
73(9) . . .
75(9) . . .
73(9) . . .
82(9) . . .
75(9) . . .
80(9) . . .
74(9) . . .
64(8) . . .
80(9) . . .
68(8) . . .
69(8) . . .
78(9) . . .
85(9) . . .
72(8) . . .
66(8) . . .
74(9) . . .
66(8) . . .
78(9) . . .
70(8) . . .
80(9) . . .
81(9) . . .
69(8) . . .
80(9) . . .
80(9) . . .
80(9) . . .
86(9) . . .
75(9) . . .
80(9) . . .
81(9) . . .
84(9) . . .
63(8) . . .
81(9) . . .
78(9) . . .
89(9) . . .
75(9) . . .
85(9) . . .
67(8) . . .
91(10) . . .
91(10) . . .
83(9) . . .
72(8) . . .
72(8) . . .
67(8) . . .
80(9) . . .
78(9) . . .
74(9) . . .
73(9) . . .
82(9) . . .
71(8) . . .
62(8) . . .
77(9) . . .
66(8) . . .
80(9) . . .
77(9) . . .
67(8) . . .
79(9) . . .
92(10) . . .
77(9) . . .
74(9) . . .
80(9) . . .
81(9) . . .
83(9) . . .
77(9) . . .
73(9) . . .
76(9) . . .
79(9) . . .
77(9) . . .
96(10) . . .
85(9) . . .
77(9) . . .
74(9) . . .
84(9) . . .
93(10) . . .
71(8) . . .
76(9) . . .
72(8) . . .
68(8) . . .
91(10) . . .
79(9) . . .
75(9) . . .
82(9) . . .
78(9) . . .
76(9) . . .
58(8) . . .
74(9) . . .
85(9) . . .
72(8) . . .
72(8) . . .
85(9) . . .
66(8) . . .
81(9) . . .
69(8) . . .
73(9) . . .
76(9) . . .
74(9) . . .
81(9) . . .
66(8) . . .
83(9) . . .
79(9) . . .
71(8) . . .
76(9) . . .
73(9) . . .
82(9) . . .
83(9) . . .
66(8) . . .
86(9) . . .
77(9) . . .
82(9) . . .
75(9) . . .
74(9) . . .
79(9) . . .
75(9) . . .
74(9) . . .
71(8) . . .
77(9) . . .
81(9) . . .
84(9) . . .
64(8) . . .
74(9) . . .
74(9) . . .
70(8) . . .
68(8) . . .
89(9) . . .
71(8) . . .
61(8) . . .
73(9) . . .
77(9) . . .
62(8) . . .
77(9) . . .
78(9) . . .
71(8) . . .
74(9) . . .
83(9) . . .
71(8) . . .
65(8) . . .
80(9) . . .
67(8) . . .
73(9) . . .
69(8) . . .
68(8) . . .
71(8) . . .
64(8) . . .
85(9) . . .
74(9) . . .
76(9) . . .
80(9) . . .
76(9) . . .
79(9) . . .
75(9) . . .
72(8) . . .
80(9) . . .
70(8) . . .
75(9) . . .
86(9) . . .
75(9) . . .
76(9) . . .
69(8) . . .
80(9) . . .
77(9) . . .
70(8) . . .
72(8) . . .
75(9) . . .
67(8) . . .
80(9) . . .
70(8) . . .
75(9) . . .
77(9) . . .
75(9) . . .
81(9) . . .
70(8) . . .
68(8) . . .
79(9) . . .
74(9) . . .
72(8) . . .
74(9) . . .
71(8) . . .
77(9) . . .
66(8) . . .
73(9) . . .
71(8) . . .
66(8) . . .
69(8) . . .
79(9) . . .
73(9) . . .
84(9) . . .
74(9) . . .
71(8) . . .
65(8) . . .
76(9) . . .
81(9) . . .
79(9) . . .
78(9) . . .
81(9) . . .
64(8) . . .
53(7) . . .
86(9) . . .
82(9) . . .
65(8) . . .
87(9) . . .
70(8) . . .
71(8) . . .
72(8) . . .
77(9) . . .
72(8) . . .
82(9) . . .
76(9) . . .
79(9) . . .
75(9) . . .
73(9) . . .
68(8) . . .
82(9) . . .
81(9) . . .
73(9) . . .
67(8) . . .
74(9) . . .
81(9) . . .
88(9) . . .
58(8) . . .
90(9) . . .
65(8) . . .
74(9) . . .
84(9) . . .
73(9) . . .
72(8) . . .
77(9) . . .
77(9) . . .
65(8) . . .
81(9) . . .
64(8) . . .
61(8) . . .
78(9) . . .
70(8) . . .
71(8) . . .
70(8) . . .
79(9) . . .
97(10) . . .
70(8) . . .
72(8) . . .
67(8) . . .
85(9) . . .
73(9) . . .
77(9) . . .
73(9) . . .
80(9) . . .
63(8) . . .
79(9) . . .
75(9) . . .
79(9) . . .
75(9) . . .
70(8) . . .
72(8) . . .
80(9) . . .
66(8) . . .
83(9) . . .
73(9) . . .
69(8) . . .
75(9) . . .
88(9) . . .
74(9) . . .
78(9) . . .
72(8) . . .
66(8) . . .
72(8) . . .
66(8) . . .
73(9) . . .
63(8) . . .
74(9) . . .
84(9) . . .
71(8) . . .
59(8) . . .
70(8) . . .
83(9) . . .
80(9) . . .
87(9) . . .
80(9) . . .
69(8) . . .
77(9) . . .
73(9) . . .
73(9) . . .
73(9) . . .
71(8) . . .
82(9) . . .
79(9) . . .
72(8) . . .
72(8) . . .
72(8) . . .
82(9) . . .
82(9) . . .
71(8) . . .
87(9) . . .
76(9) . . .
61(8) . . .
70(8) . . .
70(8) . . .
68(8) . . .
73(9) . . .
63(8) . . .
79(9) . . .
82(9) . . .
70(8) . . .
81(9) . . .
73(9) . . .
85(9) . . .
72(8) . . .
75(9) . . .
82(9) . . .
64(8) . . .
81(9) . . .
81(9) . . .
60(8) . . .
79(9) . . .
67(8) . . .
87(9) . . .
76(9) . . .
64(8) . . .
76(9) . . .
67(8) . . .
78(9) . . .
80(9) . . .
88(9) . . .
62(8) . . .
68(8) . . .
64(8) . . .
82(9) . . .
72(8) . . .
87(9) . . .
69(8) . . .
77(9) . . .
62(8) . . .
75(9) . . .
61(8) . . .
84(9) . . .
82(9) . . .
68(8) . . .
64(8) . . .
78(9) . . .
72(8) . . .
87(9) . . .
67(8) . . .
74(9) . . .
84(9) . . .
73(9) . . .
72(8) . . .
106(10) . . .
81(9) . . .
75(9) . . .
79(9) . . .
63(8) . . .
73(9) . . .
80(9) . . .
75(9) . . .
81(9) . . .
78(9) . . .
81(9) . . .
70(8) . . .
83(9) . . .
83(9) . . .
67(8) . . .
76(9) . . .
64(8) . . .
79(9) . . .
76(9) . . .
79(9) . . .
77(9) . . .
84(9) . . .
68(8) . . .
76(9) . . .
78(9) . . .
82(9) . . .
80(9) . . .
63(8) . . .
75(9) . . .
81(9) . . .
65(8) . . .
77(9) . . .
76(9) . . .
69(8) . . .
84(9) . . .
71(8) . . .
83(9) . . .
66(8) . . .
74(9) . . .
75(9) . . .
72(8) . . .
62(8) . . .
74(9) . . .
81(9) . . .
71(8) . . .
79(9) . . .
80(9) . . .
79(9) . . .
73(9) . . .
69(8) . . .
76(9) . . .
58(8) . . .
84(9) . . .
67(8) . . .
73(9) . . .
70(8) . . .
54(7) . . .
72(8) . . .
70(8) . . .
65(8) . . .
74(9) . . .
86(9) . . .
77(9) . . .
60(8) . . .
83(9) . . .
80(9) . . .
62(8) . . .
61(8) . . .
67(8) . . .
65(8) . . .
75(9) . . .
75(9) . . .
56(7) . . .
72(8) . . .
83(9) . . .
65(8) . . .
76(9) . . .
82(9) . . .
84(9) . . .
69(8) . . .
82(9) . . .
76(9) . . .
72(8) . . .
84(9) . . .
75(9) . . .
64(8) . . .
75(9) . . .
56(7) . . .
78(9) . . .
63(8) . . .
86(9) . . .
70(8) . . .
79(9) . . .
71(8) . . .
68(8) . . .
84(9) . . .
68(8) . . .
76(9) . . .
92(10) . . .
75(9) . . .
83(9) . . .
78(9) . . .
80(9) . . .
84(9) . . .
72(8) . . .
73(9) . . .
65(8) . . .
62(8) . . .
59(8) . . .
61(8) . . .
75(9) . . .
76(9) . . .
70(8) . . .
76(9) . . .
76(9) . . .
68(8) . . .
67(8) . . .
73(9) . . .
87(9) . . .
64(8) . . .
76(9) . . .
75(9) . . .
75(9) . . .
79(9) . . .
76(9) . . .
81(9) . . .
68(8) . . .
67(8) . . .
60(8) . . .
71(8) . . .
81(9) . . .
84(9) . . .
71(8) . . .
74(9) . . .
73(9) . . .
61(8) . . .
80(9) . . .
70(8) . . .
85(9) . . .
78(9) . . .
82(9) . . .
68(8) . . .
77(9) . . .
70(8) . . .
74(9) . . .
67(8) . . .
65(8) . . .
74(9) . . .
79(9) . . .
79(9) . . .
81(9) . . .
77(9) . . .
68(8) . . .
69(8) . . .
84(9) . . .
69(8) . . .
68(8) . . .
66(8) . . .
84(9) . . .
71(8) . . .
77(9) . . .
64(8) . . .
77(9) . . .
68(8) . . .
83(9) . . .
74(9) . . .
64(8) . . .
69(8) . . .
76(9) . . .
81(9) . . .
67(8) . . .
63(8) . . .
64(8) . . .
75(9) . . .
72(8) . . .
63(8) . . .
75(9) . . .
82(9) . . .
68(8) . . .
78(9) . . .
75(9) . . .
72(8) . . .
69(8) . . .
68(8) . . .
92(10) . . .
85(9) . . .
78(9) . . .
71(8) . . .
84(9) . . .
62(8) . . .
57(8) . . .
71(8) . . .
75(9) . . .
74(9) . . .
74(9) . . .
62(8) . . .
70(8) . . .
84(9) . . .
71(8) . . .
66(8) . . .
73(9) . . .
69(8) . . .
87(9) . . .
74(9) . . .
74(9) . . .
67(8) . . .
68(8) . . .
76(9) . . .
63(8) . . .
83(9) . . .
71(8) . . .
87(9) . . .
70(8) . . .
79(9) . . .
79(9) . . .
75(9) . . .
80(9) . . .
85(9) . . .
61(8) . . .
87(9) . . .
91(10) . . .
81(9) . . .
85(9) . . .
83(9) . . .
63(8) . . .
70(8) . . .
79(9) . . .
65(8) . . .
80(9) . . .
70(8) . . .
61(8) . . .
76(9) . . .
77(9) . . .
72(8) . . .
74(9) . . .
81(9) . . .
79(9) . . .
72(8) . . .
78(9) . . .
62(8) . . .
75(9) . . .
71(8) . . .
71(8) . . .
75(9) . . .
75(9) . . .
74(9) . . .
72(8) . . .
73(9) . . .
76(9) . . .
73(9) . . .
65(8) . . .
72(8) . . .
72(8) . . .
67(8) . . .
69(8) . . .
74(9) . . .
72(8) . . .
75(9) . . .
81(9) . . .
67(8) . . .
76(9) . . .
74(9) . . .
90(9) . . .
67(8) . . .
68(8) . . .
69(8) . . .
66(8) . . .
70(8) . . .
70(8) . . .
84(9) . . .
63(8) . . .
63(8) . . .
85(9) . . .
60(8) . . .
78(9) . . .
76(9) . . .
66(8) . . .
73(9) . . .
67(8) . . .
76(9) . . .
64(8) . . .
71(8) . . .
67(8) . . .
70(8) . . .
81(9) . . .
75(9) . . .
69(8) . . .
64(8) . . .
74(9) . . .
71(8) . . .
82(9) . . .
70(8) . . .
83(9) . . .
87(9) . . .
88(9) . . .
66(8) . . .
68(8) . . .
77(9) . . .
82(9) . . .
71(8) . . .
82(9) . . .
74(9) . . .
77(9) . . .
80(9) . . .
72(8) . . .
66(8) . . .
74(9) . . .
71(8) . . .
74(9) . . .
63(8) . . .
74(9) . . .
78(9) . . .
78(9) . . .
88(9) . . .
74(9) . . .
77(9) . . .
64(8) . . .
69(8) . . .
80(9) . . .
70(8) . . .
51(7) . . .
69(8) . . .
94(10) . . .
66(8) . . .
61(8) . . .
72(8) . . .
74(9) . . .
72(8) . . .
62(8) . . .
67(8) . . .
74(9) . . .
70(8) . . .
74(9) . . .
80(9) . . .
65(8) . . .
74(9) . . .
61(8) . . .
68(8) . . .
74(9) . . .
71(8) . . .
77(9) . . .
69(8) . . .
81(9) . . .
72(8) . . .
67(8) . . .
75(9) . . .
68(8) . . .
73(9) . . .
88(9) . . .
77(9) . . .
79(9) . . .
72(8) . . .
52(7) . . .
76(9) . . .
75(9) . . .
77(9) . . .
70(8) . . .
79(9) . . .
78(9) . . .
76(9) . . .
59(8) . . .
88(9) . . .
66(8) . . .
66(8) . . .
75(9) . . .
75(9) . . .
72(8) . . .
56(7) . . .
77(9) . . .
67(8) . . .
57(8) . . .
64(8) . . .
64(8) . . .
53(7) . . .
70(8) . . .
76(9) . . .
69(8) . . .
63(8) . . .
66(8) . . .
68(8) . . .
79(9) . . .
82(9) . . .
82(9) . . .
65(8) . . .
71(8) . . .
66(8) . . .
73(9) . . .
87(9) . . .
72(8) . . .
82(9) . . .
73(9) . . .
72(8) . . .
53(7) . . .
78(9) . . .
74(9) . . .
70(8) . . .
78(9) . . .
80(9) . . .
86(9) . . .
70(8) . . .
79(9) . . .
71(8) . . .
60(8) . . .
65(8) . . .
77(9) . . .
73(9) . . .
85(9) . . .
72(8) . . .
72(8) . . .
79(9) . . .
73(9) . . .
67(8) . . .
80(9) . . .
72(8) . . .
73(9) . . .
69(8) . . .
76(9) . . .
69(8) . . .
76(9) . . .
62(8) . . .
73(9) . . .
65(8) . . .
68(8) . . .
82(9) . . .
73(9) . . .
75(9) . . .
77(9) . . .
80(9) . . .
87(9) . . .
78(9) . . .
70(8) . . .
69(8) . . .
84(9) . . .
73(9) . . .
78(9) . . .
61(8) . . .
75(9) . . .
83(9) . . .
74(9) . . .
75(9) . . .
72(8) . . .
81(9) . . .
85(9) . . .
70(8) . . .
58(8) . . .
63(8) . . .
74(9) . . .
76(9) . . .
88(9) . . .
72(8) . . .
64(8) . . .
82(9) . . .
69(8) . . .
84(9) . . .
68(8) . . .
61(8) . . .
66(8) . . .
82(9) . . .
81(9) . . .
73(9) . . .
69(8) . . .
66(8) . . .
76(9) . . .
73(9) . . .
73(9) . . .
76(9) . . .
57(8) . . .
63(8) . . .
82(9) . . .
67(8) . . .
70(8) . . .
82(9) . . .
73(9) . . .
78(9) . . .
73(9) . . .
76(9) . . .
75(9) . . .
65(8) . . .
65(8) . . .
80(9) . . .
81(9) . . .
65(8) . . .
71(8) . . .
63(8) . . .
97(10) . . .
84(9) . . .
64(8) . . .
71(8) . . .
68(8) . . .
65(8) . . .
79(9) . . .
65(8) . . .
71(8) . . .
61(8) . . .
72(8) . . .
81(9) . . .
70(8) . . .
76(9) . . .
78(9) . . .
88(9) . . .
71(8) . . .
76(9) . . .
70(8) . . .
69(8) . . .
64(8) . . .
66(8) . . .
79(9) . . .
75(9) . . .
80(9) . . .
71(8) . . .
62(8) . . .
55(7) . . .
67(8) . . .
73(9) . . .
74(9) . . .
79(9) . . .
76(9) . . .
63(8) . . .
78(9) . . .
90(9) . . .
78(9) . . .
71(8) . . .
64(8) . . .
64(8) . . .
64(8) . . .
57(8) . . .
81(9) . . .
75(9) . . .
79(9) . . .
70(8) . . .
68(8) . . .
73(9) . . .
69(8) . . .
62(8) . . .
55(7) . . .
67(8) . . .
75(9) . . .
68(8) . . .
75(9) . . .
75(9) . . .
78(9) . . .
70(8) . . .
65(8) . . .
68(8) . . .
73(9) . . .
70(8) . . .
66(8) . . .
81(9) . . .
71(8) . . .
76(9) . . .
68(8) . . .
69(8) . . .
80(9) . . .
77(9) . . .
78(9) . . .
80(9) . . .
70(8) . . .
81(9) . . .
73(9) . . .
69(8) . . .
69(8) . . .
77(9) . . .
66(8) . . .
73(9) . . .
81(9) . . .
72(8) . . .
64(8) . . .
69(8) . . .
71(8) . . .
74(9) . . .
67(8) . . .
85(9) . . .
63(8) . . .
75(9) . . .
68(8) . . .
78(9) . . .
75(9) . . .
73(9) . . .
64(8) . . .
75(9) . . .
59(8) . . .
69(8) . . .
77(9) . . .
75(9) . . .
80(9) . . .
87(9) . . .
72(8) . . .
74(9) . . .
78(9) . . .
81(9) . . .
72(8) . . .
76(9) . . .
72(8) . . .
65(8) . . .
61(8) . . .
76(9) . . .
69(8) . . .
78(9) . . .
56(7) . . .
85(9) . . .
75(9) . . .
64(8) . . .
72(8) . . .
60(8) . . .
86(9) . . .
61(8) . . .
74(9) . . .
68(8) . . .
63(8) . . .
89(9) . . .
67(8) . . .
74(9) . . .
71(8) . . .
75(9) . . .
66(8) . . .
72(8) . . .
72(8) . . .
75(9) . . .
71(8) . . .
69(8) . . .
65(8) . . .
70(8) . . .
64(8) . . .
84(9) . . .
78(9) . . .
72(8) . . .
60(8) . . .
69(8) . . .
58(8) . . .
74(9) . . .
64(8) . . .
71(8) . . .
62(8) . . .
69(8) . . .
79(9) . . .
60(8) . . .
72(8) . . .
77(9) . . .
86(9) . . .
62(8) . . .
62(8) . . .
79(9) . . .
75(9) . . .
86(9) . . .
73(9) . . .
68(8) . . .
69(8) . . .
73(9) . . .
68(8) . . .
73(9) . . .
67(8) . . .
86(9) . . .
82(9) . . .
70(8) . . .
72(8) . . .
84(9) . . .
66(8) . . .
73(9) . . .
72(8) . . .
67(8) . . .
56(7) . . .
73(9) . . .
74(9) . . .
79(9) . . .
70(8) . . .
77(9) . . .
77(9) . . .
70(8) . . .
82(9) . . .
74(9) . . .
77(9) . . .
80(9) . . .
79(9) . . .
78(9) . . .
84(9) . . .
88(9) . . .
81(9) . . .
69(8) . . .
57(8) . . .
77(9) . . .
72(8) . . .
84(9) . . .
84(9) . . .
70(8) . . .
79(9) . . .
66(8) . . .
71(8) . . .
80(9) . . .
65(8) . . .
84(9) . . .
71(8) . . .
65(8) . . .
73(9) . . .
76(9) . . .
59(8) . . .
72(8) . . .
72(8) . . .
76(9) . . .
79(9) . . .
79(9) . . .
80(9) . . .
72(8) . . .
73(9) . . .
63(8) . . .
82(9) . . .
67(8) . . .
81(9) . . .
81(9) . . .
63(8) . . .
67(8) . . .
66(8) . . .
72(8) . . .
69(8) . . .
87(9) . . .
67(8) . . .
66(8) . . .
82(9) . . .
83(9) . . .
71(8) . . .
68(8) . . .
68(8) . . .
73(9) . . .
60(8) . . .
85(9) . . .
75(9) . . .
72(8) . . .
63(8) . . .
90(9) . . .
70(8) . . .
77(9) . . .
70(8) . . .
69(8) . . .
69(8) . . .
67(8) . . .
65(8) . . .
85(9) . . .
76(9) . . .
62(8) . . .
78(9) . . .
68(8) . . .
90(9) . . .
82(9) . . .
73(9) . . .
79(9) . . .
84(9) . . .
86(9) . . .
72(8) . . .
75(9) . . .
79(9) . . .
80(9) . . .
75(9) . . .
84(9) . . .
72(8) . . .
70(8) . . .
82(9) . . .
75(9) . . .
76(9) . . .
85(9) . . .
81(9) . . .
88(9) . . .
94(10) . . .
77(9) . . .
88(9) . . .
75(9) . . .
80(9) . . .
88(9) . . .
86(9) . . .
87(9) . . .
95(10) . . .
87(9) . . .
79(9) . . .
90(9) . . .
73(9) . . .
97(10) . . .
82(9) . . .
86(9) . . .
84(9) . . .
85(9) . . .
98(10) . . .
77(9) . . .
84(9) . . .
94(10) . . .
95(10) . . .
89(9) . . .
84(9) . . .
99(10) . . .
91(10) . . .
88(9) . . .
90(9) . . .
94(10) . . .
78(9) . . .
93(10) . . .
83(9) . . .
83(9) . . .
87(9) . . .
99(10) . . .
113(11) . . .
112(11) . . .
92(10) . . .
102(10) . . .
96(10) . . .
89(9) . . .
86(9) . . .
104(10) . . .
113(11) . . .
110(10) . . .
102(10) . . .
102(10) . . .
114(11) . . .
121(11) . . .
121(11) . . .
106(10) . . .
105(10) . . .
102(10) . . .
125(11) . . .
99(10) . . .
122(11) . . .
103(10) . . .
101(10) . . .
138(12) . . .
127(11) . . .
97(10) . . .
134(12) . . .
119(11) . . .
139(12) . . .
118(11) . . .
105(10) . . .
119(11) . . .
128(11) . . .
121(11) . . .
117(11) . . .
104(10) . . .
105(10) . . .
126(11) . . .
114(11) . . .
118(11) . . .
111(11) . . .
117(11) . . .
135(12) . . .
106(10) . . .
103(10) . . .
114(11) . . .
112(11) . . .
101(10) . . .
112(11) . . .
100(10) . . .
117(11) . . .
110(10) . . .
106(10) . . .
113(11) . . .
118(11) . . .
112(11) . . .
101(10) . . .
92(10) . . .
99(10) . . .
102(10) . . .
86(9) . . .
92(10) . . .
118(11) . . .
93(10) . . .
82(9) . . .
100(10) . . .
95(10) . . .
98(10) . . .
86(9) . . .
85(9) . . .
87(9) . . .
105(10) . . .
105(10) . . .
91(10) . . .
79(9) . . .
90(9) . . .
94(10) . . .
86(9) . . .
100(10) . . .
90(9) . . .
83(9) . . .
80(9) . . .
78(9) . . .
84(9) . . .
82(9) . . .
69(8) . . .
95(10) . . .
98(10) . . .
97(10) . . .
90(9) . . .
84(9) . . .
102(10) . . .
75(9) . . .
78(9) . . .
71(8) . . .
83(9) . . .
73(9) . . .
75(9) . . .
78(9) . . .
83(9) . . .
72(8) . . .
99(10) . . .
81(9) . . .
72(8) . . .
72(8) . . .
72(8) . . .
84(9) . . .
71(8) . . .
84(9) . . .
77(9) . . .
82(9) . . .
79(9) . . .
75(9) . . .
83(9) . . .
77(9) . . .
75(9) . . .
74(9) . . .
69(8) . . .
72(8) . . .
74(9) . . .
79(9) . . .
71(8) . . .
78(9) . . .
63(8) . . .
71(8) . . .
76(9) . . .
80(9) . . .
69(8) . . .
58(8) . . .
74(9) . . .
79(9) . . .
75(9) . . .
79(9) . . .
66(8) . . .
69(8) . . .
81(9) . . .
74(9) . . .
68(8) . . .
67(8) . . .
73(9) . . .
84(9) . . .
73(9) . . .
62(8) . . .
62(8) . . .
64(8) . . .
64(8) . . .
66(8) . . .
64(8) . . .
73(9) . . .
71(8) . . .
58(8) . . .
67(8) . . .
59(8) . . .
82(9) . . .
60(8) . . .
67(8) . . .
83(9) . . .
70(8) . . .
67(8) . . .
71(8) . . .
93(10) . . .
84(9) . . .
84(9) . . .
63(8) . . .
67(8) . . .
65(8) . . .
83(9) . . .
74(9) . . .
73(9) . . .
83(9) . . .
71(8) . . .
74(9) . . .
72(8) . . .
67(8) . . .
74(9) . . .
79(9) . . .
70(8) . . .
71(8) . . .
70(8) . . .
63(8) . . .
84(9) . . .
78(9) . . .
79(9) . . .
68(8) . . .
84(9) . . .
73(9) . . .
72(8) . . .
76(9) . . .
72(8) . . .
76(9) . . .
74(9) . . .
73(9) . . .
52(7) . . .
65(8) . . .
75(9) . . .
63(8) . . .
50(7) . . .
68(8) . . .
75(9) . . .
85(9) . . .
79(9) . . .
57(8) . . .
75(9) . . .
68(8) . . .
79(9) . . .
67(8) . . .
71(8) . . .
76(9) . . .
61(8) . . .
72(8) . . .
67(8) . . .
78(9) . . .
77(9) . . .
72(8) . . .
71(8) . . .
79(9) . . .
62(8) . . .
69(8) . . .
75(9) . . .
64(8) . . .
67(8) . . .
84(9) . . .
89(9) . . .
77(9) . . .
55(7) . . .
69(8) . . .
73(9) . . .
69(8) . . .
73(9) . . .
64(8) . . .
60(8) . . .
71(8) . . .
76(9) . . .
68(8) . . .
66(8) . . .
69(8) . . .
79(9) . . .
86(9) . . .
73(9) . . .
57(8) . . .
76(9) . . .
85(9) . . .
61(8) . . .
63(8) . . .
54(7) . . .
79(9) . . .
75(9) . . .
63(8) . . .
66(8) . . .
72(8) . . .
72(8) . . .
91(10) . . .
68(8) . . .
59(8) . . .
81(9) . . .
69(8) . . .
69(8) . . .
66(8) . . .
63(8) . . .
80(9) . . .
70(8) . . .
83(9) . . .
79(9) . . .
59(8) . . .
75(9) . . .
68(8) . . .
72(8) . . .
75(9) . . .
77(9) . . .
68(8) . . .
67(8) . . .
70(8) . . .
66(8) . . .
71(8) . . .
73(9) . . .
83(9) . . .
75(9) . . .
68(8) . . .
70(8) . . .
64(8) . . .
68(8) . . .
73(9) . . .
77(9) . . .
77(9) . . .
70(8) . . .
75(9) . . .
68(8) . . .
67(8) . . .
66(8) . . .
78(9) . . .
65(8) . . .
75(9) . . .
77(9) . . .
72(8) . . .
57(8) . . .
70(8) . . .
78(9) . . .
72(8) . . .
59(8) . . .
64(8) . . .
76(9) . . .
70(8) . . .
67(8) . . .
65(8) . . .
56(7) . . .
72(8) . . .
74(9) . . .
77(9) . . .
70(8) . . .
70(8) . . .
65(8) . . .
84(9) . . .
80(9) . . .
66(8) . . .
71(8) . . .
72(8) . . .
60(8) . . .
69(8) . . .
81(9) . . .
72(8) . . .
81(9) . . .
84(9) . . .
75(9) . . .
67(8) . . .
61(8) . . .
75(9) . . .
69(8) . . .
65(8) . . .
70(8) . . .
77(9) . . .
84(9) . . .
66(8) . . .
63(8) . . .
65(8) . . .
68(8) . . .
71(8) . . .
79(9) . . .
82(9) . . .
63(8) . . .
68(8) . . .
56(7) . . .
67(8) . . .
58(8) . . .
72(8) . . .
90(9) . . .
76(9) . . .
77(9) . . .
73(9) . . .
58(8) . . .
74(9) . . .
57(8) . . .
61(8) . . .
63(8) . . .
65(8) . . .
64(8) . . .
62(8) . . .
78(9) . . .
55(7) . . .
76(9) . . .
78(9) . . .
64(8) . . .
76(9) . . .
64(8) . . .
71(8) . . .
62(8) . . .
59(8) . . .
78(9) . . .
71(8) . . .
69(8) . . .
74(9) . . .
67(8) . . .
61(8) . . .
63(8) . . .
80(9) . . .
68(8) . . .
70(8) . . .
80(9) . . .
89(9) . . .
65(8) . . .
74(9) . . .
61(8) . . .
66(8) . . .
65(8) . . .
72(8) . . .
75(9) . . .
76(9) . . .
75(9) . . .
84(9) . . .
72(8) . . .
71(8) . . .
66(8) . . .
77(9) . . .
63(8) . . .
67(8) . . .
81(9) . . .
63(8) . . .
68(8) . . .
85(9) . . .
65(8) . . .
65(8) . . .
78(9) . . .
80(9) . . .
77(9) . . .
59(8) . . .
72(8) . . .
74(9) . . .
78(9) . . .
60(8) . . .
66(8) . . .
70(8) . . .
73(9) . . .
72(8) . . .
70(8) . . .
66(8) . . .
64(8) . . .
81(9) . . .
66(8) . . .
72(8) . . .
54(7) . . .
61(8) . . .
70(8) . . .
82(9) . . .
62(8) . . .
71(8) . . .
58(8) . . .
83(9) . . .
68(8) . . .
49(7) . . .
61(8) . . .
71(8) . . .
75(9) . . .
82(9) . . .
66(8) . . .
61(8) . . .
71(8) . . .
78(9) . . .
76(9) . . .
65(8) . . .
72(8) . . .
76(9) . . .
74(9) . . .
74(9) . . .
66(8) . . .
68(8) . . .
86(9) . . .
66(8) . . .
75(9) . . .
77(9) . . .
74(9) . . .
71(8) . . .
62(8) . . .
69(8) . . .
56(7) . . .
60(8) . . .
80(9) . . .
67(8) . . .
76(9) . . .
68(8) . . .
74(9) . . .
67(8) . . .
83(9) . . .
77(9) . . .
75(9) . . .
78(9) . . .
84(9) . . .
61(8) . . .
75(9) . . .
78(9) . . .
69(8) . . .
79(9) . . .
67(8) . . .
71(8) . . .
89(9) . . .
63(8) . . .
76(9) . . .
73(9) . . .
61(8) . . .
55(7) . . .
57(8) . . .
67(8) . . .
67(8) . . .
59(8) . . .
70(8) . . .
65(8) . . .
77(9) . . .
68(8) . . .
62(8) . . .
74(9) . . .
63(8) . . .
62(8) . . .
72(8) . . .
77(9) . . .
89(9) . . .
73(9) . . .
60(8) . . .
66(8) . . .
62(8) . . .
66(8) . . .
68(8) . . .
67(8) . . .
69(8) . . .
62(8) . . .
68(8) . . .
62(8) . . .
63(8) . . .
73(9) . . .
72(8) . . .
79(9) . . .
69(8) . . .
75(9) . . .
67(8) . . .
65(8) . . .
64(8) . . .
70(8) . . .
75(9) . . .
53(7) . . .
60(8) . . .
71(8) . . .
72(8) . . .
64(8) . . .
77(9) . . .
76(9) . . .
61(8) . . .
73(9) . . .
65(8) . . .
63(8) . . .
76(9) . . .
67(8) . . .
70(8) . . .
82(9) . . .
65(8) . . .
79(9) . . .
78(9) . . .
76(9) . . .
69(8) . . .
70(8) . . .
65(8) . . .
76(9) . . .
75(9) . . .
65(8) . . .
81(9) . . .
73(9) . . .
81(9) . . .
79(9) . . .
69(8) . . .
82(9) . . .
70(8) . . .
59(8) . . .
63(8) . . .
76(9) . . .
73(9) . . .
73(9) . . .
72(8) . . .
72(8) . . .
73(9) . . .
71(8) . . .
65(8) . . .
72(8) . . .
67(8) . . .
77(9) . . .
81(9) . . .
71(8) . . .
73(9) . . .
68(8) . . .
74(9) . . .
73(9) . . .
70(8) . . .
62(8) . . .
72(8) . . .
79(9) . . .
13(4) . . .
0.00(10) . . .
0.00(10) . . .
0.00(10) . . .
0.0(10) . . .
loop_
_refln_index_h
_refln_index_k
_refln_index_l
_refln_observed_status
_refln_F_squared_meas
_refln_F_squared_calc
_refln_phase_calc
_refln_d_spacing
_gsas_i100_meas
0 2 0 o 1405.701 1408.867 180.00 8.20743 5.58
0 0 2 o 8.566 159.009 180.00 6.58840 0.02
1 0 1 o 12636.308 12669.363 0.00 5.87402 51.40
0 3 1 o 1211.117 1267.050 180.00 5.05327 3.65
0 2 2 o 32118.629 31655.227 0.00 5.13781 100.00
0 1 3 o 3.223 1.704 0.00 4.24299 0.01
-1 2 1 o 2106.686 2136.294 0.00 4.78644 5.69
1 1 2 o 3342.761 3139.139 0.00 4.46942 7.88
1 2 1 o 1298.323 1342.434 0.00 4.76703 3.48
-1 1 2 o 4513.896 4338.224 0.00 4.47740 10.68
0 4 0 o 2326.536 1196.054 0.00 4.10372 2.31
1 0 3 o 151.472 211.839 180.00 3.65008 0.24
0 0 4 o 180.951 281.357 180.00 3.29420 0.12
-1 4 1 o 758.564 819.971 180.00 3.37087 1.02
-1 2 3 o 1207.120 1256.080 0.00 3.33844 1.59
1 2 3 o 313.343 351.232 0.00 3.33184 0.41
-1 3 2 o 4233.962 4743.192 0.00 3.54898 6.30
1 3 2 o 2912.535 3207.431 0.00 3.53710 4.31
0 4 2 o 4.832 22.010 0.00 3.48327 0.01
0 3 3 o 12250.789 12277.378 0.00 3.42521 16.99
1 4 1 o 817.982 847.324 180.00 3.35731 1.09
0 2 4 o 1046.077 1288.730 0.00 3.05714 1.16
0 5 1 o 38.740 36.781 180.00 3.18559 0.05
-1 1 4 o 129.453 82.409 0.00 2.89890 0.13
1 1 4 o 251.844 161.971 0.00 2.89674 0.25
2 0 0 o 2309.110 2363.799 180.00 3.28106 1.47
2 1 1 o 997.825 875.557 180.00 3.12288 1.15
-2 1 1 o 806.869 756.854 180.00 3.12832 0.93
2 2 0 o 2.672 2.951 0.00 3.04161 0.00
0 6 0 o 1741.537 1750.446 0.00 2.73581 0.77
-2 2 0 o 101.376 122.062 0.00 3.05169 0.06
0 1 5 o 1670.144 1825.862 180.00 2.60204 1.34
2 0 2 o 400.132 167.507 0.00 2.93701 0.41
-1 5 2 o 3028.548 2995.380 180.00 2.68610 2.59
1 0 5 o 569.260 841.731 180.00 2.44552 0.40
2 2 2 o 3026.591 2740.406 180.00 2.76153 2.74
-2 3 1 o 625.476 566.136 0.00 2.75746 0.56
-1 3 4 o 372.826 366.552 0.00 2.59493 0.30
1 5 2 o 2191.478 2381.363 180.00 2.67751 1.86
2 3 1 o 454.388 445.210 0.00 2.74632 0.41
1 3 4 o 113.079 114.491 180.00 2.59027 0.09
-2 2 2 o 1567.461 1332.572 180.00 2.76906 1.42
-1 6 1 o 791.868 1267.233 0.00 2.48410 0.58
1 4 3 o 4654.980 4707.814 0.00 2.72373 4.09
-2 1 3 o 701.805 670.887 0.00 2.59711 0.56
2 1 3 o 1215.924 1191.892 0.00 2.59399 0.97
-1 4 3 o 6245.678 6358.758 0.00 2.73096 5.52
0 4 4 o 10687.379 11799.139 0.00 2.56891 8.37
-2 4 0 o 1151.811 1272.813 180.00 2.56868 0.45
0 6 2 o 3.418 363.340 0.00 2.52664 0.00
0 3 5 o 132.352 151.965 0.00 2.37431 0.09
2 4 0 o 1251.459 1189.420 180.00 2.55669 0.49
1 6 1 o 265.506 434.662 0.00 2.47595 0.19
0 5 3 o 307.436 451.601 180.00 2.62960 0.25
0 0 6 o 2531.690 2797.202 0.00 2.19613 0.73
0 2 6 o 293.931 379.820 180.00 2.12150 0.16
2 3 3 o 323.691 264.755 180.00 2.36584 0.22
-2 4 2 o 28.033 230.513 180.00 2.39322 0.02
-1 1 6 o 741.734 638.728 180.00 2.06643 0.38
1 1 6 o 2106.475 1817.451 180.00 2.06564 1.07
-2 5 1 o 51.168 12.461 0.00 2.29089 0.03
2 4 2 o 176.714 352.731 180.00 2.38351 0.12
-2 3 3 o 15.554 17.324 0.00 2.37294 0.01
2 2 4 o 1.122 15.998 0.00 2.23471 0.00
-2 2 4 o 5.184 35.747 180.00 2.23870 0.00
2 5 1 o 343.452 132.338 0.00 2.28026 0.21
0 8 0 o 57.862 44.057 0.00 2.05186 0.01
-2 6 0 o 1400.450 1355.211 180.00 2.10618 0.37
1 4 5 o 779.104 706.847 180.00 2.09913 0.41
-1 7 2 o 3878.907 3537.899 0.00 2.09661 2.03
0 1 7 o 424.265 655.952 0.00 1.87014 0.18
-1 6 3 o 5074.898 4889.380 180.00 2.19196 2.90
-1 4 5 o 45.918 41.601 0.00 2.10243 0.02
1 7 2 o 1759.182 1573.952 0.00 2.09089 0.92
1 5 4 o 5447.933 5257.894 0.00 2.18948 3.11
1 6 3 o 4044.734 3845.839 180.00 2.18636 2.30
1 3 6 o 1325.127 1570.469 0.00 1.94540 0.60
2 6 0 o 3682.845 3390.209 180.00 2.09627 0.96
-1 5 4 o 7187.935 6879.766 0.00 2.19417 4.12
-1 3 6 o 252.806 305.375 0.00 1.94736 0.11
-1 8 1 o 600.231 708.126 180.00 1.93967 0.27
0 4 6 o 1556.252 1974.696 180.00 1.93630 0.70
0 5 5 o 23687.117 21236.484 0.00 2.05512 11.93
0 8 2 o 1817.829 2305.896 180.00 1.95905 0.83
3 0 1 o 2507.241 2353.212 180.00 2.15785 1.39
0 7 3 o 7309.821 6464.167 0.00 2.06862 3.73
1 0 7 o 1338.626 1095.156 0.00 1.80942 0.52
1 8 1 o 397.204 536.518 180.00 1.93450 0.18
3 2 1 o 17.931 12.616 0.00 2.08450 0.01
3 1 2 o 2206.331 2038.817 180.00 2.05838 1.11
-2 5 3 o 83.290 76.622 0.00 2.05578 0.04
-3 2 1 o 143.605 134.204 0.00 2.08936 0.07
0 6 4 o 7688.330 6846.854 180.00 2.10464 4.06
2 5 3 o 296.171 191.388 0.00 2.04809 0.15
2 3 5 o 405.616 832.479 0.00 1.92161 0.18
2 6 2 o 928.425 308.622 180.00 1.99759 0.44
-3 1 2 o 3509.151 3371.362 180.00 2.06072 1.78
-1 2 7 o 639.154 593.970 180.00 1.76748 0.24
1 2 7 o 1995.901 1865.521 180.00 1.76650 0.75
2 0 6 o 48.403 38.667 180.00 1.82504 0.02
-2 3 5 o 204.696 438.138 0.00 1.92541 0.09
0 3 7 o 1208.320 1124.736 0.00 1.78001 0.46
-2 7 1 o 65.483 302.631 180.00 1.89234 0.03
0 9 1 o 4620.833 3723.464 0.00 1.80665 1.81
3 0 3 o 2207.635 2576.497 0.00 1.95801 1.01
2 2 6 o 1050.695 978.875 180.00 1.78052 0.40
2 7 1 o 103.690 897.647 180.00 1.88394 0.04
0 0 8 o 9.854 16.703 180.00 1.64710 0.00
-2 2 6 o 1269.982 1194.050 180.00 1.78254 0.48
3 2 3 o 3440.844 3265.893 180.00 1.90272 1.49
3 3 2 o 562.674 600.523 0.00 1.93803 0.25
-3 4 1 o 465.107 509.530 180.00 1.91364 0.20
-3 3 2 o 896.679 872.787 0.00 1.94389 0.40
3 4 1 o 512.705 444.282 180.00 1.90619 0.22
0 2 8 o 385.061 649.269 180.00 1.61490 0.12
-3 2 3 o 5287.545 4555.691 180.00 1.90641 2.30
-2 8 0 o 45.352 42.266 0.00 1.74345 0.01
3 1 4 o 4090.019 3320.532 0.00 1.81032 1.60
-1 1 8 o 412.492 817.738 0.00 1.59021 0.13
1 1 8 o 457.487 920.334 0.00 1.58985 0.14
-1 8 3 o 335.584 335.895 0.00 1.79067 0.13
-3 1 4 o 3508.609 2820.802 0.00 1.81191 1.38
-1 5 6 o 1800.883 1829.503 0.00 1.75981 0.67
1 5 6 o 403.038 390.160 0.00 1.75739 0.15
1 4 7 o 57.895 119.638 180.00 1.65482 0.02
2 1 7 o 49.715 106.067 0.00 1.62437 0.02
-1 9 2 o 86.375 72.901 0.00 1.69987 0.03
1 8 3 o 10.228 10.077 0.00 1.78659 0.00
1 6 5 o 344.651 273.242 0.00 1.82165 0.14
-1 7 4 o 692.667 498.224 180.00 1.83617 0.28
0 10 0 o 6900.847 10643.494 180.00 1.64149 1.12
2 8 0 o 60.867 75.814 0.00 1.73595 0.01
-1 6 5 o 1116.490 917.435 0.00 1.82489 0.44
-1 4 7 o 156.813 315.204 180.00 1.65644 0.05
1 7 4 o 338.810 234.083 180.00 1.83232 0.14
-2 1 7 o 137.814 313.919 0.00 1.62513 0.04
1 9 2 o 5.169 4.444 0.00 1.69595 0.00
-2 7 3 o 1214.755 1008.226 180.00 1.75322 0.45
-2 8 2 o 1.056 0.941 180.00 1.68544 0.00
2 5 5 o 2834.826 2984.175 180.00 1.73933 1.03
2 6 4 o 1058.843 901.987 0.00 1.76855 0.40
0 6 6 o 5685.124 5362.208 0.00 1.71260 2.00
-2 4 6 o 1727.285 1908.108 0.00 1.66922 0.58
3 4 3 o 346.779 342.642 180.00 1.76422 0.13
2 7 3 o 1306.646 1073.354 180.00 1.74654 0.48
2 4 6 o 1227.758 1355.023 0.00 1.66592 0.41
3 3 4 o 34.840 63.876 180.00 1.72682 0.01
-2 5 5 o 1640.969 1461.500 180.00 1.74403 0.60
0 9 3 o 54.050 48.749 180.00 1.68442 0.02
0 8 4 o 875.854 845.969 0.00 1.74164 0.32
3 0 5 o 2887.410 2743.816 180.00 1.68314 0.98
-2 6 4 o 977.644 845.670 0.00 1.77449 0.37
-3 5 2 o 199.522 211.188 0.00 1.75821 0.07
-3 6 1 o 1552.384 1274.082 180.00 1.69817 0.54
0 5 7 o 11.289 35.619 0.00 1.63300 0.00
3 5 2 o 607.653 456.393 0.00 1.75100 0.22
-3 3 4 o 297.587 576.741 180.00 1.73096 0.11
-1 10 1 o 273.127 885.389 180.00 1.58268 0.08
-1 3 8 o 19.021 43.403 0.00 1.53400 0.01
1 3 8 o 23.078 56.356 0.00 1.53304 0.01
-3 4 3 o 113.501 94.015 180.00 1.77012 0.04
2 8 2 o 108.221 145.225 180.00 1.67866 0.04
0 10 2 o 342.392 571.603 0.00 1.59279 0.10
2 3 7 o 973.417 1150.412 180.00 1.56357 0.29
-2 9 1 o 0.804 2.324 180.00 1.58578 0.00
3 2 5 o 54.971 91.167 0.00 1.64763 0.02
1 10 1 o 88.314 274.445 180.00 1.57916 0.03
0 7 5 o 1031.379 744.066 180.00 1.75185 0.38
0 1 9 o 1808.225 1379.229 0.00 1.45830 0.47
0 4 8 o 32.831 109.561 180.00 1.52857 0.01
3 6 1 o 1640.674 1488.391 180.00 1.69038 0.56
-3 2 5 o 59.340 118.556 0.00 1.65002 0.02
-2 3 7 o 2419.793 2871.065 180.00 1.56562 0.71
2 9 1 o 4.538 17.176 180.00 1.57943 0.00
2 0 8 o 511.707 716.424 180.00 1.47203 0.13
-3 1 6 o 105.144 132.325 180.00 1.54342 0.03
3 1 6 o 23.062 30.010 180.00 1.54244 0.01
-1 2 9 o 8.527 4.207 0.00 1.40803 0.00
1 2 9 o 561.723 285.435 180.00 1.40753 0.13
-2 2 8 o 3146.372 1440.396 0.00 1.44945 0.80
2 2 8 o 448.885 191.254 0.00 1.44837 0.11
0 11 1 o 3854.802 4497.358 180.00 1.48278 1.02
-2 10 0 o 0.395 0.574 0.00 1.47084 0.00
-3 6 3 o 266.780 397.932 0.00 1.59548 0.08
3 5 4 o 143.483 232.514 180.00 1.59057 0.04
4 0 0 o 2655.329 3189.008 0.00 1.64053 0.43
-3 7 2 o 1347.660 1633.020 180.00 1.55790 0.39
3 4 5 o 16.132 21.258 180.00 1.55523 0.00
-1 9 4 o 461.655 614.794 0.00 1.55195 0.13
-1 10 3 o 0.074 0.658 180.00 1.49856 0.00
4 1 1 o 1227.987 1377.080 0.00 1.61926 0.39
4 2 0 o 145.936 237.149 180.00 1.60723 0.02
-1 6 7 o 223.581 1048.171 0.00 1.51012 0.06
3 6 3 o 154.880 330.514 0.00 1.58901 0.05
-3 4 5 o 116.542 134.349 180.00 1.55927 0.03
1 6 7 o 8.956 171.972 0.00 1.50828 0.00
3 3 6 o 15.377 25.278 0.00 1.48981 0.00
-4 1 1 o 896.896 889.621 0.00 1.62077 0.28
-3 5 4 o 193.013 283.089 180.00 1.59597 0.06
3 7 2 o 898.015 1151.626 180.00 1.55087 0.26
-2 9 3 o 11.303 183.472 0.00 1.50119 0.00
4 0 2 o 79.140 98.096 180.00 1.59192 0.02
1 9 4 o 31.455 37.346 0.00 1.54896 0.01
-4 2 0 o 87.266 102.528 180.00 1.61020 0.01
0 0 10 o 2569.052 4296.618 180.00 1.31768 0.27
1 10 3 o 1.925 21.962 180.00 1.49558 0.00
-3 3 6 o 0.483 1.447 180.00 1.49247 0.00
1 7 6 o 145.027 188.176 0.00 1.55598 0.04
-2 8 4 o 1272.855 1608.744 180.00 1.54094 0.36
-3 8 1 o 34.454 62.988 0.00 1.49047 0.01
4 2 2 o 2047.682 2279.826 0.00 1.56144 0.60
-1 8 5 o 399.982 630.523 180.00 1.57325 0.12
2 6 6 o 1647.027 3009.568 180.00 1.51636 0.46
2 10 0 o 172.883 177.678 0.00 1.46521 0.02
4 3 1 o 599.660 689.446 180.00 1.55834 0.18
-1 7 6 o 735.308 853.185 0.00 1.55833 0.22
2 5 7 o 1563.299 1347.749 0.00 1.46055 0.40
-2 6 6 o 768.942 1565.014 180.00 1.52010 0.21
1 8 5 o 176.371 229.134 180.00 1.57049 0.05
2 7 5 o 1175.962 1277.264 0.00 1.54308 0.34
4 1 3 o 30.702 334.426 180.00 1.52950 0.01
-4 2 2 o 1342.491 1398.087 0.00 1.56416 0.40
-4 3 1 o 463.167 502.567 180.00 1.56240 0.14
2 9 3 o 0.000 2.832 180.00 1.49580 0.00
-2 5 7 o 2032.108 1892.536 0.00 1.46334 0.53
2 1 9 o 362.521 630.868 180.00 1.33239 0.08
2 8 4 o 765.899 1496.874 180.00 1.53576 0.22
-2 7 5 o 1118.756 1274.544 0.00 1.54768 0.32
-1 4 9 o 0.282 0.547 0.00 1.34992 0.00
1 4 9 o 8.976 16.708 0.00 1.34904 0.00
3 2 7 o 0.585 0.269 0.00 1.40498 0.00
-4 1 3 o 68.110 365.694 180.00 1.53078 0.02
2 4 8 o 541.463 992.223 180.00 1.38464 0.13
0 10 4 o 23.063 32.059 180.00 1.46919 0.01
3 8 1 o 0.047 0.047 0.00 1.48344 0.00
0 7 7 o 2678.263 3362.062 0.00 1.46795 0.70
0 2 10 o 7.126 9.307 0.00 1.30102 0.00
4 4 0 o 690.214 1393.880 0.00 1.52081 0.10
-4 4 0 o 118.898 1277.821 0.00 1.52584 0.02
-3 2 7 o 2.123 0.840 0.00 1.40646 0.00
-2 1 9 o 1003.102 1692.263 180.00 1.33281 0.22
-2 4 8 o 1150.393 2311.468 180.00 1.38653 0.27
0 12 0 o 1930.873 1979.227 0.00 1.36791 0.22
-1 1 10 o 8.010 12.167 180.00 1.28800 0.00
1 1 10 o 211.496 323.302 0.00 1.28781 0.04
0 9 5 o 265.516 589.703 0.00 1.49974 0.07
4 0 4 o 488.699 648.079 0.00 1.46851 0.13
0 5 9 o 23.938 29.883 180.00 1.33715 0.01
-2 11 1 o 37.080 67.859 0.00 1.35363 0.01
4 3 3 o 1872.849 2595.785 0.00 1.47785 0.49
-1 12 1 o 17.848 28.611 180.00 1.33352 0.00
0 8 6 o 270.699 513.406 180.00 1.49929 0.07
4 4 2 o 944.195 886.929 180.00 1.48184 0.25
-4 4 2 o 774.981 715.400 180.00 1.48650 0.21
0 12 2 o 2913.306 3294.313 180.00 1.33934 0.64
-4 5 1 o 2068.143 1795.344 0.00 1.46126 0.53
-4 3 3 o 1414.213 1300.521 0.00 1.48131 0.37
4 2 4 o 1653.864 449.145 180.00 1.44447 0.42
-2 3 9 o 852.675 1049.259 0.00 1.29939 0.18
4 5 1 o 2015.515 1620.426 0.00 1.45573 0.52
3 5 6 o 140.241 284.007 180.00 1.39965 0.03
2 3 9 o 164.881 199.678 0.00 1.29822 0.03
1 12 1 o 13.629 29.908 180.00 1.33100 0.00
-1 3 10 o 29.315 39.951 0.00 1.25759 0.01
1 3 10 o 105.575 147.138 180.00 1.25706 0.02
-4 2 4 o 1087.378 379.084 180.00 1.44663 0.28
-3 9 2 o 8.789 15.751 180.00 1.37328 0.00
-3 7 4 o 59.105 11.140 0.00 1.44167 0.01
2 11 1 o 137.749 329.951 0.00 1.34880 0.03
3 4 7 o 163.533 277.425 0.00 1.34636 0.04
-3 1 8 o 595.288 956.262 180.00 1.31188 0.12
-3 5 6 o 951.171 429.772 180.00 1.40332 0.23
3 1 8 o 429.287 686.402 180.00 1.31127 0.09
4 1 5 o 435.719 743.893 0.00 1.38726 0.10
0 4 10 o 4.565 7.149 0.00 1.25459 0.00
-3 4 7 o 19.815 54.241 0.00 1.34898 0.00
0 1 11 o 505.897 912.278 180.00 1.19471 0.09
-4 1 5 o 301.854 577.275 0.00 1.38822 0.07
3 9 2 o 118.942 101.110 180.00 1.36709 0.03
4 6 0 o 4437.149 1783.853 180.00 1.40399 0.53
-1 11 4 o 1.495 2.942 180.00 1.33220 0.00
-2 10 4 o 797.912 853.462 0.00 1.34305 0.18
4 4 4 o 683.631 1156.740 0.00 1.38077 0.16
-2 12 0 o 166.641 174.176 180.00 1.26473 0.02
1 0 11 o 933.474 861.458 180.00 1.17842 0.16
4 5 3 o 96.291 248.483 180.00 1.38948 0.02
-3 10 1 o 57.003 90.573 0.00 1.30943 0.01
3 3 8 o 38.898 104.574 180.00 1.27847 0.01
-1 7 8 o 430.516 704.057 0.00 1.32099 0.09
4 3 5 o 4.538 14.157 180.00 1.34838 0.00
1 7 8 o 100.695 164.024 0.00 1.31956 0.02
0 13 1 o 1232.435 1727.577 0.00 1.25692 0.24
1 11 4 o 29.742 116.666 180.00 1.32989 0.01
-4 6 2 o 383.665 851.036 0.00 1.37873 0.09
-2 11 3 o 643.103 776.142 180.00 1.29987 0.13
-1 10 5 o 685.647 528.671 0.00 1.36406 0.15
-1 6 9 o 30.718 32.934 180.00 1.26713 0.01
-1 12 3 o 150.590 285.265 180.00 1.28204 0.03
2 7 7 o 3319.986 3490.084 180.00 1.33846 0.72
1 6 9 o 74.004 76.730 180.00 1.26605 0.01
-4 5 3 o 0.000 187.969 180.00 1.39428 0.00
-4 4 4 o 259.561 413.355 0.00 1.38453 0.06
4 6 2 o 409.323 791.396 0.00 1.37316 0.09
1 2 11 o 234.397 140.954 0.00 1.16631 0.04
2 6 8 o 1454.186 1642.255 0.00 1.29513 0.30
-3 3 8 o 15.736 35.134 180.00 1.28015 0.00
1 8 7 o 44.820 64.727 0.00 1.35623 0.01
-2 9 5 o 3276.160 2470.258 180.00 1.36604 0.74
-2 7 7 o 1929.587 1855.952 180.00 1.34145 0.42
-4 7 1 o 1918.244 1886.495 180.00 1.34028 0.42
4 0 6 o 407.401 648.109 180.00 1.31431 0.09
-4 3 5 o 14.306 65.268 180.00 1.35101 0.00
2 8 6 o 2759.492 2061.932 0.00 1.36186 0.62
1 10 5 o 70.943 53.337 0.00 1.36180 0.02
2 10 4 o 195.755 200.003 0.00 1.33876 0.04
-2 6 8 o 1916.667 2088.875 0.00 1.29746 0.39
4 2 6 o 70.685 75.085 0.00 1.29700 0.01
2 5 9 o 1338.290 1107.197 180.00 1.23742 0.25
-1 8 7 o 559.330 581.809 0.00 1.35801 0.13
2 11 3 o 547.792 590.116 180.00 1.29559 0.11
1 12 3 o 5.604 13.055 0.00 1.27979 0.00
0 3 11 o 118.791 72.057 0.00 1.17018 0.02
1 5 10 o 31.903 50.937 0.00 1.20177 0.01
2 9 5 o 3326.208 2460.266 180.00 1.36197 0.75
3 10 1 o 47.630 69.883 0.00 1.30348 0.01
-1 2 11 o 97.985 58.361 180.00 1.16660 0.02
2 12 0 o 412.332 496.324 180.00 1.26043 0.04
-2 8 6 o 2607.440 1888.862 0.00 1.36548 0.59
-4 2 6 o 165.627 179.801 0.00 1.29855 0.03
-2 12 2 o 386.864 392.397 0.00 1.24205 0.07
-1 9 6 o 244.624 454.172 180.00 1.37312 0.06
4 7 1 o 809.428 1047.910 180.00 1.33432 0.18
1 9 6 o 109.694 153.002 180.00 1.37105 0.03
-2 5 9 o 2494.310 2152.350 180.00 1.23911 0.47
0 12 4 o 141.677 144.116 180.00 1.26332 0.03
3 2 9 o 84.943 127.747 180.00 1.20308 0.02
-1 5 10 o 8.935 13.779 180.00 1.20255 0.00
-4 8 0 o 818.791 1342.004 0.00 1.28434 0.08
0 7 9 o 652.441 642.245 0.00 1.24191 0.12
3 6 7 o 366.513 366.135 180.00 1.26347 0.07
0 11 5 o 550.981 581.364 0.00 1.29853 0.11
-3 10 3 o 180.086 216.447 180.00 1.26059 0.03
-3 2 9 o 275.981 394.740 180.00 1.20401 0.05
0 8 8 o 275.232 448.745 0.00 1.28445 0.06
-2 4 10 o 1530.883 967.016 0.00 1.17242 0.26
0 6 10 o 213.806 468.740 180.00 1.18716 0.04
2 4 10 o 517.587 310.508 0.00 1.17127 0.09
-3 9 4 o 61.195 80.817 180.00 1.29168 0.01
3 7 6 o 84.899 120.193 0.00 1.29092 0.02
2 12 2 o 1030.658 845.630 0.00 1.23798 0.19
-1 4 11 o 37.029 102.924 0.00 1.13290 0.01
-3 8 5 o 51.033 85.981 180.00 1.30369 0.01
1 4 11 o 75.901 201.548 180.00 1.13238 0.01
-4 1 7 o 358.652 274.433 180.00 1.23360 0.07
4 1 7 o 73.740 54.373 180.00 1.23293 0.01
4 6 4 o 103.742 138.031 180.00 1.29158 0.02
4 5 5 o 353.576 773.690 0.00 1.28025 0.07
0 9 7 o 35.833 72.462 0.00 1.30988 0.01
0 0 12 o 1.852 8.117 0.00 1.09807 0.00
4 8 0 o 238.173 800.674 0.00 1.27834 0.02
3 8 5 o 87.034 90.222 180.00 1.29898 0.02
-3 6 7 o 835.198 671.007 180.00 1.26672 0.16
-4 7 3 o 344.246 607.209 0.00 1.28804 0.07
0 14 0 o 2673.644 1685.059 180.00 1.17249 0.23
0 10 6 o 48.576 66.515 180.00 1.31480 0.01
3 9 4 o 4.071 6.990 180.00 1.28653 0.00
-3 7 6 o 73.239 74.991 0.00 1.29496 0.01
4 4 6 o 0.573 2.477 0.00 1.25029 0.00
4 7 3 o 362.936 601.687 0.00 1.28274 0.07
-4 8 2 o 1280.751 1529.868 180.00 1.26061 0.25
-2 1 11 o 486.165 582.891 0.00 1.12273 0.08
2 1 11 o 855.747 1023.475 0.00 1.12248 0.13
-4 6 4 o 150.043 145.355 180.00 1.29621 0.03
3 10 3 o 324.584 446.269 180.00 1.25527 0.06
0 2 12 o 414.333 949.001 180.00 1.08837 0.06
-4 5 5 o 222.236 340.499 0.00 1.28401 0.04
-2 13 1 o 671.744 507.084 180.00 1.17562 0.11
5 0 1 o 1736.590 2256.612 0.00 1.30596 0.36
5 2 1 o 371.706 652.300 0.00 1.28878 0.08
4 8 2 o 660.666 880.024 180.00 1.25494 0.13
0 14 2 o 195.930 178.573 0.00 1.15435 0.03
0 5 11 o 166.839 214.679 0.00 1.12532 0.03
-1 1 12 o 156.868 443.516 180.00 1.08071 0.02
1 1 12 o 119.966 340.261 180.00 1.08060 0.02
5 1 2 o 270.648 445.166 0.00 1.28273 0.05
-4 4 6 o 81.944 131.639 180.00 1.25308 0.02
4 3 7 o 5.024 6.447 0.00 1.20539 0.00
-1 14 1 o 3.150 2.958 180.00 1.15076 0.00
-2 3 11 o 182.869 745.440 180.00 1.10253 0.03
2 13 1 o 1752.375 1036.598 180.00 1.17188 0.30
2 3 11 o 129.354 557.628 180.00 1.10182 0.02
-4 3 7 o 290.644 328.748 0.00 1.20727 0.05
-5 2 1 o 259.520 420.712 0.00 1.29069 0.05
-5 1 2 o 418.387 617.392 0.00 1.28367 0.08
-3 4 9 o 234.015 113.547 180.00 1.16735 0.04
-3 1 10 o 272.891 367.162 0.00 1.12623 0.04
3 1 10 o 148.226 194.287 0.00 1.12585 0.02
5 3 2 o 299.849 762.435 0.00 1.25162 0.06
1 14 1 o 133.337 125.964 0.00 1.14886 0.02
5 0 3 o 0.286 0.453 0.00 1.25749 0.00
-3 12 1 o 136.799 120.478 180.00 1.15781 0.02
-2 12 4 o 29.731 31.353 0.00 1.18070 0.01
5 4 1 o 24.290 24.127 180.00 1.24275 0.00
5 2 3 o 363.784 339.681 0.00 1.24213 0.07
4 2 8 o 3.315 3.127 180.00 1.15032 0.00
1 8 9 o 96.597 57.114 0.00 1.17204 0.02
2 8 8 o 147.840 306.831 180.00 1.19485 0.03
-1 12 5 o 8.125 16.706 180.00 1.19475 0.00
-3 3 10 o 36.064 116.095 180.00 1.10597 0.01
-5 3 2 o 355.541 429.853 0.00 1.25425 0.07
-1 7 10 o 40.572 170.574 180.00 1.13199 0.01
3 3 10 o 21.465 75.005 180.00 1.10489 0.00
-5 4 1 o 0.123 0.266 180.00 1.24619 0.00
1 7 10 o 3.006 9.345 180.00 1.13109 0.00
-5 2 3 o 405.239 433.252 0.00 1.24384 0.08
2 6 10 o 0.071 0.087 0.00 1.11559 0.00
-2 8 8 o 6.988 16.923 0.00 1.19729 0.00
-2 13 3 o 106.282 128.477 180.00 1.13989 0.02
-4 2 8 o 557.978 521.765 180.00 1.15141 0.09
2 11 5 o 471.143 556.445 180.00 1.20569 0.08
-1 8 9 o 1470.910 952.356 0.00 1.17319 0.25
1 12 5 o 31.172 57.404 180.00 1.19293 0.01
-1 9 8 o 102.774 174.813 0.00 1.20243 0.02
1 13 4 o 2.832 2.451 0.00 1.15955 0.00
1 9 8 o 21.727 37.283 0.00 1.20104 0.00
1 6 11 o 0.170 0.505 0.00 1.08195 0.00
-4 9 3 o 295.077 243.955 180.00 1.17785 0.05
2 12 4 o 286.534 231.850 0.00 1.17720 0.05
-2 14 0 o 262.343 865.187 0.00 1.10579 0.02
-1 14 3 o 65.092 76.693 180.00 1.11718 0.01
-2 6 10 o 1.406 1.659 180.00 1.11708 0.00
3 12 1 o 216.482 199.020 180.00 1.15286 0.04
0 15 1 o 123.241 300.780 180.00 1.09057 0.02
4 6 6 o 61.483 82.300 0.00 1.18292 0.01
2 13 3 o 36.658 118.881 180.00 1.13647 0.01
3 7 8 o 1444.769 1318.413 180.00 1.14608 0.23
-4 8 4 o 0.006 0.014 180.00 1.19661 0.00
-3 11 4 o 2197.085 1935.124 180.00 1.15680 0.36
-4 10 2 o 188.065 171.234 0.00 1.14545 0.03
4 5 7 o 290.098 256.793 0.00 1.15598 0.05
4 7 5 o 26.494 58.383 0.00 1.19532 0.00
-1 6 11 o 10.456 29.390 0.00 1.08262 0.00
5 4 3 o 992.114 1655.899 0.00 1.20076 0.18
4 8 4 o 4.578 7.724 0.00 1.19176 0.00
5 3 4 o 19.086 33.865 0.00 1.18892 0.00
1 14 3 o 87.862 105.852 180.00 1.11545 0.01
3 8 7 o 2445.137 1106.996 0.00 1.16971 0.41
5 5 2 o 220.567 542.916 180.00 1.19642 0.04
-2 14 2 o 14.499 35.296 0.00 1.09054 0.00
2 14 0 o 382.805 1650.024 0.00 1.10244 0.03
-4 6 6 o 0.000 32.476 180.00 1.18647 0.00
-3 10 5 o 595.346 476.345 0.00 1.17733 0.10
4 10 0 o 1426.056 1252.267 180.00 1.15760 0.12
-3 12 3 o 2221.618 2389.100 0.00 1.12362 0.35
-5 5 2 o 121.376 203.236 180.00 1.20025 0.02
5 0 5 o 27.193 19.783 180.00 1.17480 0.00
-4 7 5 o 61.789 122.304 0.00 1.19960 0.01
3 6 9 o 698.140 1084.998 0.00 1.11061 0.11
4 9 3 o 71.484 44.653 180.00 1.17265 0.01
0 8 10 o 72.374 159.889 0.00 1.10874 0.01
-5 6 1 o 194.937 206.762 0.00 1.18076 0.03
-5 4 3 o 732.522 1065.075 0.00 1.20386 0.13
3 9 6 o 1308.674 1133.856 180.00 1.17903 0.22
4 4 8 o 81.610 94.939 180.00 1.11736 0.01
0 13 5 o 44.704 62.078 180.00 1.13872 0.01
-4 5 7 o 92.686 81.202 0.00 1.15874 0.02
-3 7 8 o 1850.556 1777.967 180.00 1.14890 0.30
5 6 1 o 536.093 420.123 0.00 1.17639 0.09
0 14 4 o 92.618 371.931 180.00 1.10461 0.01
-5 3 4 o 25.287 36.367 0.00 1.19117 0.00
-3 9 6 o 1124.550 1305.562 180.00 1.18299 0.19
-3 8 7 o 1533.210 997.100 0.00 1.17315 0.26
-4 1 9 o 41.588 98.207 0.00 1.09016 0.01
3 10 5 o 925.003 594.755 0.00 1.17299 0.16
4 1 9 o 2.835 6.360 180.00 1.08970 0.00
-3 6 9 o 598.107 754.136 0.00 1.11281 0.09
3 11 4 o 2201.244 2020.748 180.00 1.15228 0.36
0 9 9 o 626.476 580.816 0.00 1.14174 0.10
-4 4 8 o 2.965 3.355 180.00 1.11935 0.00
-3 13 2 o 477.153 1843.687 180.00 1.08099 0.07
-4 11 1 o 38.045 148.911 180.00 1.10266 0.01
4 10 2 o 95.670 95.866 0.00 1.14013 0.02
2 14 2 o 23.144 40.738 0.00 1.08732 0.00
3 12 3 o 1757.212 1988.195 0.00 1.11910 0.27
-5 1 6 o 199.873 200.651 180.00 1.12426 0.03
5 1 6 o 109.369 111.369 180.00 1.12362 0.02
5 4 5 o 3.232 5.193 0.00 1.12815 0.00
0 11 7 o 2.059 0.861 180.00 1.16939 0.00
5 5 4 o 2016.105 1790.988 0.00 1.14129 0.32
5 6 3 o 962.282 862.390 180.00 1.14059 0.15
-5 6 3 o 784.101 725.965 180.00 1.14457 0.13
4 11 1 o 0.718 327.876 180.00 1.09744 0.00
-5 7 2 o 247.170 801.203 0.00 1.13058 0.04
-5 5 4 o 1951.746 1824.975 0.00 1.14462 0.32
5 3 6 o 37.850 121.809 0.00 1.10254 0.01
5 7 2 o 799.611 817.584 0.00 1.12611 0.13
-5 4 5 o 14.482 47.758 180.00 1.13072 0.00
-4 10 4 o 7.212 237.603 180.00 1.09680 0.00
-5 3 6 o 171.137 662.624 0.00 1.10434 0.03
-5 8 1 o 63.338 227.433 180.00 1.10412 0.01
4 7 7 o 67.027 180.788 0.00 1.09231 0.01
4 8 6 o 1.840 9.476 0.00 1.10480 0.00
-2 12 6 o 16.116 125.098 0.00 1.09598 0.00
-4 9 5 o 0.877 1.626 0.00 1.10909 0.00
5 8 1 o 0.000 84.233 180.00 1.09936 0.00
-1 13 6 o 5.587 31.378 180.00 1.08046 0.00
4 9 5 o 4.578 22.881 0.00 1.10474 0.00
-4 7 7 o 0.071 0.369 180.00 1.09558 0.00
2 10 8 o 161.804 474.410 0.00 1.09474 0.02
-4 8 6 o 17.525 38.790 0.00 1.10867 0.00
4 10 4 o 15.415 40.593 180.00 1.09213 0.00
2 12 6 o 0.544 1.226 180.00 1.09318 0.00
-2 10 8 o 0.000 200.606 0.00 1.09709 0.00
-2 11 7 o 226.807 465.090 180.00 1.10283 0.03
5 7 4 o 6.401 28.465 180.00 1.07978 0.00
2 11 7 o 61.958 694.936 180.00 1.10021 0.01
-1 12 7 o 128.469 336.855 0.00 1.09187 0.02
1 12 7 o 2.219 18.151 0.00 1.09049 0.00
-5 7 4 o 0.143 0.563 0.00 1.08373 0.00
1 11 8 o 7.840 81.974 180.00 1.08987 0.00
6 0 0 o 1103.239 2184.326 0.00 1.09369 0.08
6 1 1 o 498.621 360.337 0.00 1.08720 0.07
-1 11 8 o 33.228 125.405 180.00 1.09115 0.00
6 2 0 o 2.518 11.508 0.00 1.08343 0.00
-5 6 5 o 10.376 131.509 0.00 1.08117 0.00
-6 1 1 o 676.094 572.830 0.00 1.08789 0.10
-6 2 0 o 3.715 8.973 180.00 1.08479 0.00
