#------------------------------------------------------------------------------
#$Date: 2016-03-21 01:21:50 +0200 (Mon, 21 Mar 2016) $
#$Revision: 178377 $
#$URL: svn://www.crystallography.net/cod/cif/4/00/21/4002118.cif $
#------------------------------------------------------------------------------
#
# This file is available in the Crystallography Open Database (COD),
# http://www.crystallography.net/
#
# All data on this site have been placed in the public domain by the
# contributors.
#
data_4002118
loop_
_publ_author_name
'Nanthamathee, Chompoonoot'
'Ling, Sanliang'
'Slater, Ben'
'Attfield, Martin P.'
_publ_section_title
;
 Contradistinct Thermoresponsive Behavior of Isostructural MIL-53 Type
 Metal--Organic Frameworks by Modifying the Framework Inorganic Anion
;
_journal_name_full               'Chemistry of Materials'
_journal_page_first              141223143002002
_journal_paper_doi               10.1021/cm503311x
_journal_year                    2014
_chemical_formula_sum            'C8 Al O5'
_chemical_formula_weight         203.07
_chemical_name_systematic        ' ?'
_space_group_IT_number           74
_symmetry_cell_setting           orthorhombic
_symmetry_space_group_name_Hall  '-I 2b 2'
_symmetry_space_group_name_H-M   'I m m a'
_audit_creation_date             2014-08-28T12:14
_audit_creation_method           'from EXP file using GSAS2CIF'
_audit_update_record
' 2014-08-28T12:14  Initial CIF as created by GSAS2CIF'
_cell_angle_alpha                90.0
_cell_angle_beta                 90.0
_cell_angle_gamma                90.0
_cell_formula_units_Z            4
_cell_length_a                   6.63046(6)
_cell_length_b                   16.78318(17)
_cell_length_c                   12.76181(24)
_cell_volume                     1420.14(3)
_computing_structure_refinement  GSAS
_diffrn_radiation_polarisn_ratio 0.95
_diffrn_radiation_probe          x-ray
_diffrn_radiation_wavelength     0.825993
_exptl_absorpt_correction_T_max  1.00000
_exptl_absorpt_correction_T_min  1.00000
_exptl_absorpt_process_details
;   GSAS Absorption/surface roughness correction: function number 0
 No correction is applied.
;
_pd_block_id                     2014-08-28T12:14|200K|300k|i11
_pd_calc_method                  'Rietveld Refinement'
_pd_instr_location               ' ?'
_pd_meas_2theta_range_inc        0.003
_pd_meas_2theta_range_max        149.9955
_pd_meas_2theta_range_min        0.0015
_pd_meas_number_of_points        49999
_pd_phase_name                   300K
_pd_proc_2theta_range_inc        0.003
_pd_proc_2theta_range_max        150.00479
_pd_proc_2theta_range_min        0.010798
_pd_proc_info_datetime           2014-08-28T12:14:29
_pd_proc_info_excluded_regions   ' ?'
_pd_proc_ls_background_function
;   GSAS Background function number 1 with  2 terms.
 Shifted Chebyshev function of 1st kind
      1:    0.00000     2:    0.00000    
;
_pd_proc_ls_peak_cutoff          0.00100
_pd_proc_ls_profile_function
;
 CW Profile function number 4 with  18 terms
 Pseudovoigt profile coefficients as parameterized in
 P. Thompson, D.E. Cox & J.B. Hastings (1987). J. Appl. Cryst.,20,79-83.
 Asymmetry correction of L.W. Finger, D.E. Cox & A. P. Jephcoat (1994).
 J. Appl. Cryst.,27,892-900.
 Microstrain broadening by P.W. Stephens,  (1999). J. Appl. Cryst.,32,281-289.
 Peak tails are ignored  where the intensity is below 0.0010 times the peak
   Aniso. broadening axis   1.0   0.0   1.0
;
_pd_proc_ls_prof_R_factor        0.0345
_pd_proc_ls_prof_wR_expected     0.0223
_pd_proc_ls_prof_wR_factor       0.0457
_pd_proc_number_of_points        49999
_pd_spec_mounting                ' ?'
_refine_ls_goodness_of_fit_all   2.05
_refine_ls_matrix_type           full
_refine_ls_number_parameters     28
_refine_ls_number_restraints     0
_refine_ls_R_Fsqd_factor         0.23660
_refine_ls_shift/su_max          0.06
_refine_ls_shift/su_mean         0.01
_reflns_d_resolution_high        1.211
_reflns_d_resolution_low         8.392
_reflns_limit_h_max              5
_reflns_limit_h_min              0
_reflns_limit_k_max              13
_reflns_limit_k_min              0
_reflns_limit_l_max              10
_reflns_limit_l_min              0
_reflns_number_total             251
_cod_data_source_file            aloh200K.cif
_cod_data_source_block           200K_publ
_cod_depositor_comments
;
The following automatic conversions were performed:

'_geom_bond_publ_flag' value 'N' changed to 'n' according to
/home/saulius/struct/COD-crude-data--automatic-downloads/rss-feeds/ACS/lib/dictionaries/cif_core.dic
dictionary named 'cif_core.dic' version 2.4.2 from 2011-04-26 (18
times).

'_geom_angle_publ_flag' value 'N' changed to 'n' according
to
/home/saulius/struct/COD-crude-data--automatic-downloads/rss-feeds/ACS/lib/dictionaries/cif_core.dic
dictionary named 'cif_core.dic' version 2.4.2 from 2011-04-26 (24
times).

Automatic conversion script
Id: cif_fix_values 2935 2014-11-11 08:27:57Z andrius 
;
_cod_original_cell_volume        1420.137(33)
_cod_database_code               4002118
#BEGIN Tags that were not found in dictionaries:
_gsas_exptl_extinct_corr_t_min   1.00000
_gsas_exptl_extinct_corr_t_max   1.00000
#END Tags that were not found in dictionaries
loop_
_symmetry_equiv_pos_site_id
_symmetry_equiv_pos_as_xyz
1 +x,+y,+z
2 -x,+y,+z
3 +x,-y+1/2,+z
4 -x,-y+1/2,+z
-1 -x,-y,-z
-2 +x,-y,-z
-3 -x,+y+1/2,-z
-4 +x,+y+1/2,-z
101 +x+1/2,+y+1/2,+z+1/2
102 -x+1/2,+y+1/2,+z+1/2
103 +x+1/2,-y,+z+1/2
104 -x+1/2,-y,+z+1/2
-101 -x+1/2,-y+1/2,-z+1/2
-102 +x+1/2,-y+1/2,-z+1/2
-103 -x+1/2,+y,-z+1/2
-104 +x+1/2,+y,-z+1/2
loop_
_atom_site_type_symbol
_atom_site_label
_atom_site_fract_x
_atom_site_fract_y
_atom_site_fract_z
_atom_site_occupancy
_atom_site_thermal_displace_type
_atom_site_U_iso_or_equiv
_atom_site_symmetry_multiplicity
Al Al1 0.25 0.25 0.75 1.0 Uiso 0.0219(10) 4
O O2 0.0 0.25 0.6850(4) 1.0 Uiso 0.0160(8) 4
O O1 0.16783(31) 0.16769(13) 0.84308(21) 1.0 Uiso 0.0160(8) 16
C C3 -0.1917(4) 0.03508(28) 0.9682(4) 1.0 Uiso 0.0338(14) 16
C C2 0.0 0.0628(4) 0.9444(5) 1.0 Uiso 0.0338(14) 8
C C1 0.0 0.13835(35) 0.8704(6) 1.0 Uiso 0.0338(14) 8
loop_
_atom_type_symbol
_atom_type_number_in_cell
_atom_type_scat_dispersion_real
_atom_type_scat_dispersion_imag
_atom_type_scat_Cromer_Mann_a1
_atom_type_scat_Cromer_Mann_a2
_atom_type_scat_Cromer_Mann_a3
_atom_type_scat_Cromer_Mann_a4
_atom_type_scat_Cromer_Mann_b1
_atom_type_scat_Cromer_Mann_b2
_atom_type_scat_Cromer_Mann_b3
_atom_type_scat_Cromer_Mann_b4
_atom_type_scat_Cromer_Mann_c
_atom_type_scat_source
Al 4.0 0.000 0.000 6.42020 3.03870 1.90020 0.74260 1.59360 31.5472 1.96460
85.0886 1.11510 International_Tables_Vol_C
O 20.0 0.000 0.000 3.04850 13.2771 2.28680 5.70110 1.54630 0.32390 0.86700
32.9089 0.25080 International_Tables_Vol_C
C 32.0 0.000 0.000 2.31000 20.8439 1.02000 10.2075 1.58860 0.56870 0.86500
51.6512 0.21560 International_Tables_Vol_C
loop_
_geom_angle_atom_site_label_1
_geom_angle_atom_site_label_2
_geom_angle_atom_site_label_3
_geom_angle
_geom_angle_site_symmetry_1
_geom_angle_site_symmetry_3
_geom_angle_publ_flag
O2 Al1 O2 180.0 1_555 -101_546 n
O2 Al1 O1 91.34(12) 1_555 1_555 n
O2 Al1 O1 91.34(12) 1_555 3_555 n
O2 Al1 O1 88.66(12) 1_555 -101_566 n
O2 Al1 O1 88.66(12) 1_555 -103_566 n
O2 Al1 O1 88.66(12) -101_566 1_555 n
O2 Al1 O1 88.66(12) -101_566 3_555 n
O2 Al1 O1 91.34(12) -101_566 -101_566 n
O2 Al1 O1 91.34(12) -101_566 -103_566 n
O1 Al1 O1 93.18(17) 1_555 3_555 n
O1 Al1 O1 180.0 1_555 -101_566 n
O1 Al1 O1 86.82(17) 1_555 -103_566 n
O1 Al1 O1 86.82(17) 3_555 -101_566 n
O1 Al1 O1 180.0 3_555 -103_566 n
O1 Al1 O1 93.18(17) -101_566 -103_566 n
Al1 O2 Al1 126.82(30) 1_555 2_555 n
Al1 O1 C1 134.96(34) 1_555 1_555 n
C3 C3 C2 113.61(33) -2_557 1_555 n
C3 C2 C3 132.8(7) 1_555 2_555 n
C3 C2 C1 113.57(33) 1_555 1_555 n
C3 C2 C1 113.57(33) 2_555 1_555 n
O1 C1 O1 123.0(6) 1_555 2_555 n
O1 C1 C2 118.47(29) 1_555 1_555 n
O1 C1 C2 118.47(29) 2_555 1_555 n
loop_
_geom_bond_atom_site_label_1
_geom_bond_atom_site_label_2
_geom_bond_distance
_geom_bond_site_symmetry_2
_geom_bond_publ_flag
Al1 O2 1.8536(24) 1_555 n
Al1 O2 1.8536(24) -101_445 n
Al1 O1 1.9017(19) 1_555 n
Al1 O1 1.9017(19) 3_555 n
Al1 O1 1.9017(19) -101_445 n
Al1 O1 1.9017(19) -103_445 n
O2 Al1 1.8536(24) 1_555 n
O2 Al1 1.8536(24) 2_555 n
O1 Al1 1.9017(19) 1_555 n
O1 C1 1.2660(31) 1_555 n
C3 C3 1.430(7) -2_557 n
C3 C2 1.3874(30) 1_555 n
C2 C3 1.3874(30) 1_555 n
C2 C3 1.3874(30) 2_555 n
C2 C1 1.581(6) 1_555 n
C1 O1 1.2660(31) 1_555 n
C1 O1 1.2660(31) 2_555 n
C1 C2 1.581(6) 1_555 n
loop_
_pd_meas_intensity_total
_pd_proc_ls_weight
_pd_proc_intensity_bkg_calc
_pd_calc_intensity_total
18.9(24) 0.0 0.00 .
14.9(20) 0.0 0.00 .
20.1(24) 0.0 0.00 .
26.2(29) 0.0 0.00 .
46(4) 0.0 0.0 .
150(7) 0.0 0.0 .
119(6) 0.0 0.0 .
817(15) 0.0 0.0 .
1450(20) 0.0 0.0 .
2738(29) 0.0 0.0 .
3171(30) 0.0 0.0 .
3223(30) 0.0 0.0 .
3234(30) 0.0 0.0 .
1149(19) 0.0 0.0 .
92(5) 0.0 0.0 .
58(4) 0.0 0.0 .
48(4) 0.0 0.0 .
51(4) 0.0 0.0 .
48(4) 0.0 0.0 .
63(4) 0.0 0.0 .
239(8) 0.0 0.0 .
336(10) 0.0 0.0 .
720(14) 0.0 0.0 .
984(17) 0.0 0.0 .
1002(17) 0.0 0.0 .
1209(18) 0.0 0.0 .
1315(19) 0.0 0.0 .
1551(21) 0.0 0.0 .
1832(24) 0.0 0.0 .
1909(24) 0.0 0.0 .
2052(24) 0.0 0.0 .
2076(24) 0.0 0.0 .
1891(23) 0.0 0.0 .
1649(22) 0.0 0.0 .
1198(19) 0.0 0.0 .
679(14) 0.0 0.0 .
358(10) 0.0 0.0 .
216(8) 0.0 0.0 .
144(7) 0.0 0.0 .
70(4) 0.0 0.0 .
44.4(35) 0.0 0.00 .
41.5(34) 0.0 0.00 .
29.8(30) 0.0 0.00 .
31.7(31) 0.0 0.00 .
31.8(31) 0.0 0.00 .
30.7(29) 0.0 0.00 .
34.0(30) 0.0 0.00 .
32.8(32) 0.0 0.00 .
26.6(30) 0.0 0.00 .
26.2(28) 0.0 0.00 .
27.2(27) 0.0 0.00 .
31.9(30) 0.0 0.00 .
27.9(30) 0.0 0.00 .
29.2(30) 0.0 0.00 .
33.3(31) 0.0 0.00 .
31.5(29) 0.0 0.00 .
35.4(32) 0.0 0.00 .
29.2(28) 0.0 0.00 .
35.4(31) 0.0 0.00 .
36.0(32) 0.0 0.00 .
30.6(29) 0.0 0.00 .
36.8(33) 0.0 0.00 .
35.1(34) 0.0 0.00 .
35.9(32) 0.0 0.00 .
37.4(33) 0.0 0.00 .
40.9(33) 0.0 0.00 .
34.8(33) 0.0 0.00 .
32.1(31) 0.0 0.00 .
28.7(30) 0.0 0.00 .
37.2(32) 0.0 0.00 .
30.1(29) 0.0 0.00 .
35(4) 0.0 0.0 .
32.1(31) 0.0 0.00 .
32.7(30) 0.0 0.00 .
38.8(33) 0.0 0.00 .
42.6(34) 0.0 0.00 .
45(4) 0.0 0.0 .
43(4) 0.0 0.0 .
43(4) 0.0 0.0 .
37.5(31) 0.0 0.00 .
37.6(31) 0.0 0.00 .
39.6(33) 0.0 0.00 .
38.3(34) 0.0 0.00 .
33.6(31) 0.0 0.00 .
38.8(32) 0.0 0.00 .
36.1(31) 0.0 0.00 .
37.2(33) 0.0 0.00 .
37.8(34) 0.0 0.00 .
41.6(34) 0.0 0.00 .
45.5(35) 0.0 0.00 .
40.9(33) 0.0 0.00 .
45(4) 0.0 0.0 .
52(4) 0.0 0.0 .
45(4) 0.0 0.0 .
46.8(35) 0.0 0.00 .
58(4) 0.0 0.0 .
65(4) 0.0 0.0 .
82(5) 0.0 0.0 .
87(5) 0.0 0.0 .
91(5) 0.0 0.0 .
112(5) 0.0 0.0 .
116(6) 0.0 0.0 .
127(6) 0.0 0.0 .
122(6) 0.0 0.0 .
143(6) 0.0 0.0 .
153(6) 0.0 0.0 .
144(6) 0.0 0.0 .
149(7) 0.0 0.0 .
177(7) 0.0 0.0 .
188(7) 0.0 0.0 .
169(7) 0.0 0.0 .
183(7) 0.0 0.0 .
209(8) 0.0 0.0 .
216(8) 0.0 0.0 .
242(8) 0.0 0.0 .
227(8) 0.0 0.0 .
232(8) 0.0 0.0 .
258(9) 0.0 0.0 .
267(9) 0.0 0.0 .
275(9) 0.0 0.0 .
265(9) 0.0 0.0 .
288(9) 0.0 0.0 .
277(9) 0.0 0.0 .
285(9) 0.0 0.0 .
303(9) 0.0 0.0 .
307(9) 0.0 0.0 .
351(10) 0.0 0.0 .
354(10) 0.0 0.0 .
357(10) 0.0 0.0 .
341(10) 0.0 0.0 .
359(10) 0.0 0.0 .
367(11) 0.0 0.0 .
395(11) 0.0 0.0 .
393(10) 0.0 0.0 .
378(10) 0.0 0.0 .
420(11) 0.0 0.0 .
408(11) 0.0 0.0 .
411(11) 0.0 0.0 .
432(11) 0.0 0.0 .
478(11) 0.0 0.0 .
449(11) 0.0 0.0 .
473(12) 0.0 0.0 .
469(12) 0.0 0.0 .
466(11) 0.0 0.0 .
459(11) 0.0 0.0 .
468(12) 0.0 0.0 .
475(12) 0.0 0.0 .
525(12) 0.0 0.0 .
508(12) 0.0 0.0 .
493(12) 0.0 0.0 .
520(12) 0.0 0.0 .
546(13) 0.0 0.0 .
507(12) 0.0 0.0 .
538(12) 0.0 0.0 .
539(12) 0.0 0.0 .
545(12) 0.0 0.0 .
513(12) 0.0 0.0 .
540(12) 0.0 0.0 .
529(12) 0.0 0.0 .
558(13) 0.0 0.0 .
579(13) 0.0 0.0 .
571(13) 0.0 0.0 .
552(12) 0.0 0.0 .
578(12) 0.0 0.0 .
571(13) 0.0 0.0 .
539(12) 0.0 0.0 .
535(12) 0.0 0.0 .
566(13) 0.0 0.0 .
567(12) 0.0 0.0 .
594(13) 0.0 0.0 .
581(13) 0.0 0.0 .
568(13) 0.0 0.0 .
567(13) 0.0 0.0 .
578(13) 0.0 0.0 .
593(13) 0.0 0.0 .
613(13) 0.0 0.0 .
625(13) 0.0 0.0 .
619(13) 0.0 0.0 .
603(13) 0.0 0.0 .
642(13) 0.0 0.0 .
656(14) 0.0 0.0 .
619(13) 0.0 0.0 .
613(13) 0.0 0.0 .
603(13) 0.0 0.0 .
632(14) 0.0 0.0 .
642(14) 0.0 0.0 .
652(14) 0.0 0.0 .
644(13) 0.0 0.0 .
645(13) 0.0 0.0 .
649(14) 0.0 0.0 .
646(14) 0.0 0.0 .
652(14) 0.0 0.0 .
616(13) 0.0 0.0 .
662(13) 0.0 0.0 .
699(14) 0.0 0.0 .
646(14) 0.0 0.0 .
675(14) 0.0 0.0 .
674(13) 0.0 0.0 .
664(13) 0.0 0.0 .
684(14) 0.0 0.0 .
673(14) 0.0 0.0 .
702(14) 0.0 0.0 .
690(14) 0.0 0.0 .
648(13) 0.0 0.0 .
725(15) 0.0 0.0 .
717(15) 0.0 0.0 .
711(14) 0.0 0.0 .
679(14) 0.0 0.0 .
729(14) 0.0 0.0 .
734(15) 0.0 0.0 .
726(15) 0.0 0.0 .
718(14) 0.0 0.0 .
728(14) 0.0 0.0 .
732(14) 0.0 0.0 .
706(14) 0.0 0.0 .
723(15) 0.0 0.0 .
718(14) 0.0 0.0 .
748(14) 0.0 0.0 .
751(15) 0.0 0.0 .
732(15) 0.0 0.0 .
743(15) 0.0 0.0 .
740(14) 0.0 0.0 .
705(14) 0.0 0.0 .
778(15) 0.0 0.0 .
730(15) 0.0 0.0 .
763(15) 0.0 0.0 .
747(14) 0.0 0.0 .
754(14) 0.0 0.0 .
795(15) 0.0 0.0 .
805(16) 0.0 0.0 .
795(15) 0.0 0.0 .
819(15) 0.0 0.0 .
800(15) 0.0 0.0 .
782(15) 0.0 0.0 .
829(16) 0.0 0.0 .
813(15) 0.0 0.0 .
808(15) 0.0 0.0 .
793(15) 0.0 0.0 .
794(15) 0.0 0.0 .
791(15) 0.0 0.0 .
814(15) 0.0 0.0 .
830(15) 0.0 0.0 .
814(15) 0.0 0.0 .
886(16) 0.0 0.0 .
833(16) 0.0 0.0 .
789(15) 0.0 0.0 .
823(15) 0.0 0.0 .
804(15) 0.0 0.0 .
834(15) 0.0 0.0 .
842(16) 0.0 0.0 .
854(16) 0.0 0.0 .
846(15) 0.0 0.0 .
887(16) 0.0 0.0 .
838(15) 0.0 0.0 .
812(16) 0.0 0.0 .
817(15) 0.0 0.0 .
849(15) 0.0 0.0 .
852(15) 0.0 0.0 .
876(16) 0.0 0.0 .
834(16) 0.0 0.0 .
848(16) 0.0 0.0 .
880(15) 0.0 0.0 .
882(16) 0.0 0.0 .
868(16) 0.0 0.0 .
848(16) 0.0 0.0 .
886(16) 0.0 0.0 .
906(16) 0.0 0.0 .
869(16) 0.0 0.0 .
877(16) 0.0 0.0 .
877(16) 0.0 0.0 .
886(16) 0.0 0.0 .
884(15) 0.0 0.0 .
871(16) 0.0 0.0 .
893(16) 0.0 0.0 .
852(16) 0.0 0.0 .
878(16) 0.0 0.0 .
901(16) 0.0 0.0 .
924(16) 0.0 0.0 .
917(17) 0.0 0.0 .
874(16) 0.0 0.0 .
881(16) 0.0 0.0 .
866(15) 0.0 0.0 .
883(16) 0.0 0.0 .
900(16) 0.0 0.0 .
904(16) 0.0 0.0 .
908(16) 0.0 0.0 .
881(15) 0.0 0.0 .
910(16) 0.0 0.0 .
917(17) 0.0 0.0 .
925(16) 0.0 0.0 .
943(16) 0.0 0.0 .
906(16) 0.0 0.0 .
922(16) 0.0 0.0 .
917(17) 0.0 0.0 .
887(16) 0.0 0.0 .
908(16) 0.0 0.0 .
939(16) 0.0 0.0 .
949(17) 0.0 0.0 .
946(17) 0.0 0.0 .
965(17) 0.0 0.0 .
956(16) 0.0 0.0 .
936(16) 0.0 0.0 .
927(16) 0.0 0.0 .
946(17) 0.0 0.0 .
944(16) 0.0 0.0 .
966(16) 0.0 0.0 .
933(16) 0.0 0.0 .
921(16) 0.0 0.0 .
893(16) 0.0 0.0 .
984(17) 0.0 0.0 .
975(16) 0.0 0.0 .
976(17) 0.0 0.0 .
991(17) 0.0 0.0 .
963(17) 0.0 0.0 .
981(17) 0.0 0.0 .
994(16) 0.0 0.0 .
958(16) 0.0 0.0 .
922(16) 0.0 0.0 .
968(17) 0.0 0.0 .
981(17) 0.0 0.0 .
967(16) 0.0 0.0 .
1029(17) 0.0 0.0 .
981(17) 0.0 0.0 .
1000(17) 0.0 0.0 .
959(16) 0.0 0.0 .
996(16) 0.0 0.0 .
977(17) 0.0 0.0 .
1045(18) 0.0 0.0 .
1019(17) 0.0 0.0 .
997(17) 0.0 0.0 .
1006(16) 0.0 0.0 .
960(17) 0.0 0.0 .
1027(18) 0.0 0.0 .
1026(17) 0.0 0.0 .
1012(17) 0.0 0.0 .
1026(17) 0.0 0.0 .
989(17) 0.0 0.0 .
1012(18) 0.0 0.0 .
1028(17) 0.0 0.0 .
1030(17) 0.0 0.0 .
1009(16) 0.0 0.0 .
1064(18) 0.0 0.0 .
1008(17) 0.0 0.0 .
1052(17) 0.0 0.0 .
1058(17) 0.0 0.0 .
1017(17) 0.0 0.0 .
1068(18) 0.0 0.0 .
1042(18) 0.0 0.0 .
998(17) 0.0 0.0 .
1013(17) 0.0 0.0 .
1042(17) 0.0 0.0 .
1047(17) 0.0 0.0 .
1059(18) 0.0 0.0 .
1097(18) 0.0 0.0 .
1073(17) 0.0 0.0 .
1085(17) 0.0 0.0 .
1096(18) 0.0 0.0 .
1083(18) 0.0 0.0 .
1077(18) 0.0 0.0 .
1064(17) 0.0 0.0 .
1091(18) 0.0 0.0 .
1081(18) 0.0 0.0 .
1076(18) 0.0 0.0 .
1143(18) 0.0 0.0 .
1097(17) 0.0 0.0 .
1126(18) 0.0 0.0 .
1144(18) 0.0 0.0 .
1136(18) 0.0 0.0 .
1158(18) 0.0 0.0 .
1127(17) 0.0 0.0 .
1133(18) 0.0 0.0 .
1164(18) 0.0 0.0 .
1189(19) 0.0 0.0 .
1121(18) 0.0 0.0 .
1174(18) 0.0 0.0 .
1172(19) 0.0 0.0 .
1134(18) 0.0 0.0 .
1135(18) 0.0 0.0 .
1162(18) 0.0 0.0 .
1154(18) 0.0 0.0 .
1178(18) 0.0 0.0 .
1189(19) 0.0 0.0 .
1164(18) 0.0 0.0 .
1158(18) 0.0 0.0 .
1235(18) 0.0 0.0 .
1206(19) 0.0 0.0 .
1181(19) 0.0 0.0 .
1153(18) 0.0 0.0 .
1207(18) 0.0 0.0 .
1244(18) 0.0 0.0 .
1157(18) 0.0 0.0 .
1248(20) 0.0 0.0 .
1233(19) 0.0 0.0 .
1226(18) 0.0 0.0 .
1193(18) 0.0 0.0 .
1207(19) 0.0 0.0 .
1245(20) 0.0 0.0 .
1210(19) 0.0 0.0 .
1252(18) 0.0 0.0 .
1203(18) 0.0 0.0 .
1236(19) 0.0 0.0 .
1254(20) 0.0 0.0 .
1281(19) 0.0 0.0 .
1230(18) 0.0 0.0 .
1247(19) 0.0 0.0 .
1258(19) 0.0 0.0 .
1246(19) 0.0 0.0 .
1279(19) 0.0 0.0 .
1287(19) 0.0 0.0 .
1249(19) 0.0 0.0 .
1257(19) 0.0 0.0 .
1290(20) 0.0 0.0 .
1253(19) 0.0 0.0 .
1325(19) 0.0 0.0 .
1291(19) 0.0 0.0 .
1309(20) 0.0 0.0 .
1308(20) 0.0 0.0 .
1282(19) 0.0 0.0 .
1280(19) 0.0 0.0 .
1292(19) 0.0 0.0 .
1244(19) 0.0 0.0 .
1276(19) 0.0 0.0 .
1290(19) 0.0 0.0 .
1327(19) 0.0 0.0 .
1320(19) 0.0 0.0 .
1307(20) 0.0 0.0 .
1272(19) 0.0 0.0 .
1291(19) 0.0 0.0 .
1303(19) 0.0 0.0 .
1283(19) 0.0 0.0 .
1319(20) 0.0 0.0 .
1285(19) 0.0 0.0 .
1322(19) 0.0 0.0 .
1329(19) 0.0 0.0 .
1334(20) 0.0 0.0 .
1376(21) 0.0 0.0 .
1321(20) 0.0 0.0 .
1296(19) 0.0 0.0 .
1304(19) 0.0 0.0 .
1345(20) 0.0 0.0 .
1293(20) 0.0 0.0 .
1278(19) 0.0 0.0 .
1290(19) 0.0 0.0 .
1318(19) 0.0 0.0 .
1292(19) 0.0 0.0 .
1278(20) 0.0 0.0 .
1345(20) 0.0 0.0 .
1334(19) 0.0 0.0 .
1319(19) 0.0 0.0 .
1321(20) 0.0 0.0 .
1334(20) 0.0 0.0 .
1349(20) 0.0 0.0 .
1347(19) 0.0 0.0 .
1319(19) 0.0 0.0 .
1307(20) 0.0 0.0 .
1281(20) 0.0 0.0 .
1359(20) 0.0 0.0 .
1317(19) 0.0 0.0 .
1315(19) 0.0 0.0 .
1346(20) 0.0 0.0 .
1362(20) 0.0 0.0 .
1366(20) 0.0 0.0 .
1308(19) 0.0 0.0 .
1332(19) 0.0 0.0 .
1325(20) 0.0 0.0 .
1252(19) 0.0 0.0 .
1277(19) 0.0 0.0 .
1303(19) 0.0 0.0 .
1324(19) 0.0 0.0 .
1322(20) 0.0 0.0 .
1350(20) 0.0 0.0 .
1286(19) 0.0 0.0 .
1313(19) 0.0 0.0 .
1269(19) 0.0 0.0 .
1299(19) 0.0 0.0 .
1305(19) 0.0 0.0 .
1285(19) 0.0 0.0 .
1281(19) 0.0 0.0 .
1285(19) 0.0 0.0 .
1306(20) 0.0 0.0 .
1307(19) 0.0 0.0 .
1291(19) 0.0 0.0 .
1307(19) 0.0 0.0 .
1337(20) 0.0 0.0 .
1327(20) 0.0 0.0 .
1308(19) 0.0 0.0 .
1293(19) 0.0 0.0 .
1333(19) 0.0 0.0 .
1285(19) 0.0 0.0 .
1323(20) 0.0 0.0 .
1323(19) 0.0 0.0 .
1311(19) 0.0 0.0 .
1300(19) 0.0 0.0 .
1302(19) 0.0 0.0 .
1310(20) 0.0 0.0 .
1304(19) 0.0 0.0 .
1249(18) 0.0 0.0 .
1304(19) 0.0 0.0 .
1357(20) 0.0 0.0 .
1344(20) 0.0 0.0 .
1313(19) 0.0 0.0 .
1315(19) 0.0 0.0 .
1283(19) 0.0 0.0 .
1278(19) 0.0 0.0 .
1367(20) 0.0 0.0 .
1359(20) 0.0 0.0 .
1332(19) 0.0 0.0 .
1285(19) 0.0 0.0 .
1323(19) 0.0 0.0 .
1294(19) 0.0 0.0 .
1350(20) 0.0 0.0 .
1343(19) 0.0 0.0 .
1312(19) 0.0 0.0 .
1291(19) 0.0 0.0 .
1301(20) 0.0 0.0 .
1290(19) 0.0 0.0 .
1287(19) 0.0 0.0 .
1306(19) 0.0 0.0 .
1340(20) 0.0 0.0 .
1367(20) 0.0 0.0 .
1248(19) 0.0 0.0 .
1351(19) 0.0 0.0 .
1314(20) 0.0 0.0 .
1278(19) 0.0 0.0 .
1283(19) 0.0 0.0 .
1324(19) 0.0 0.0 .
1305(19) 0.0 0.0 .
1284(19) 0.0 0.0 .
1296(20) 0.0 0.0 .
1320(19) 0.0 0.0 .
1352(19) 0.0 0.0 .
1308(19) 0.0 0.0 .
1302(19) 0.0 0.0 .
1336(20) 0.0 0.0 .
1308(19) 0.0 0.0 .
1295(19) 0.0 0.0 .
1308(19) 0.0 0.0 .
1348(20) 0.0 0.0 .
1346(20) 0.0 0.0 .
1329(20) 0.0 0.0 .
1297(19) 0.0 0.0 .
1313(19) 0.0 0.0 .
1275(19) 0.0 0.0 .
1259(20) 0.0 0.0 .
1278(19) 0.0 0.0 .
1332(19) 0.0 0.0 .
1293(19) 0.0 0.0 .
1315(20) 0.0 0.0 .
1316(20) 0.0 0.0 .
1322(20) 0.0 0.0 .
1306(19) 0.0 0.0 .
1326(19) 0.0 0.0 .
1273(19) 0.0 0.0 .
1266(19) 0.0 0.0 .
1274(19) 0.0 0.0 .
1229(18) 0.0 0.0 .
1274(19) 0.0 0.0 .
1287(19) 0.0 0.0 .
1278(19) 0.0 0.0 .
1263(19) 0.0 0.0 .
1287(19) 0.0 0.0 .
1279(19) 0.0 0.0 .
1288(19) 0.0 0.0 .
1292(20) 0.0 0.0 .
1316(19) 0.0 0.0 .
1278(19) 0.0 0.0 .
1244(19) 0.0 0.0 .
1237(19) 0.0 0.0 .
1245(19) 0.0 0.0 .
1278(19) 0.0 0.0 .
1273(18) 0.0 0.0 .
1196(18) 0.0 0.0 .
1263(19) 0.0 0.0 .
1274(19) 0.0 0.0 .
1286(19) 0.0 0.0 .
1279(19) 0.0 0.0 .
1277(19) 0.0 0.0 .
1298(20) 0.0 0.0 .
1275(19) 0.0 0.0 .
1289(19) 0.0 0.0 .
1271(18) 0.0 0.0 .
1274(19) 0.0 0.0 .
1245(19) 0.0 0.0 .
1243(19) 0.0 0.0 .
1273(19) 0.0 0.0 .
1291(19) 0.0 0.0 .
1327(20) 0.0 0.0 .
1276(20) 0.0 0.0 .
1273(19) 0.0 0.0 .
1257(18) 0.0 0.0 .
1212(18) 0.0 0.0 .
1257(19) 0.0 0.0 .
1258(20) 0.0 0.0 .
1248(19) 0.0 0.0 .
1231(18) 0.0 0.0 .
1264(19) 0.0 0.0 .
1293(19) 0.0 0.0 .
1232(20) 0.0 0.0 .
1246(19) 0.0 0.0 .
1294(19) 0.0 0.0 .
1271(19) 0.0 0.0 .
1244(19) 0.0 0.0 .
1267(20) 0.0 0.0 .
1222(19) 0.0 0.0 .
1281(19) 0.0 0.0 .
1286(19) 0.0 0.0 .
1249(19) 0.0 0.0 .
1257(20) 0.0 0.0 .
1221(19) 0.0 0.0 .
1232(18) 0.0 0.0 .
1237(19) 0.0 0.0 .
1212(19) 0.0 0.0 .
1234(19) 0.0 0.0 .
1246(19) 0.0 0.0 .
1262(18) 0.0 0.0 .
1265(19) 0.0 0.0 .
1249(19) 0.0 0.0 .
1231(19) 0.0 0.0 .
1243(19) 0.0 0.0 .
1286(19) 0.0 0.0 .
1240(19) 0.0 0.0 .
1281(20) 0.0 0.0 .
1211(19) 0.0 0.0 .
1206(18) 0.0 0.0 .
1225(18) 0.0 0.0 .
1213(19) 0.0 0.0 .
1191(19) 0.0 0.0 .
1241(19) 0.0 0.0 .
1259(19) 0.0 0.0 .
1234(18) 0.0 0.0 .
1241(19) 0.0 0.0 .
1231(19) 0.0 0.0 .
1222(19) 0.0 0.0 .
1214(18) 0.0 0.0 .
1239(18) 0.0 0.0 .
1224(19) 0.0 0.0 .
1215(19) 0.0 0.0 .
1208(19) 0.0 0.0 .
1211(18) 0.0 0.0 .
1216(18) 0.0 0.0 .
1189(18) 0.0 0.0 .
1258(20) 0.0 0.0 .
1212(19) 0.0 0.0 .
1193(18) 0.0 0.0 .
1197(18) 0.0 0.0 .
1233(19) 0.0 0.0 .
1189(19) 0.0 0.0 .
1185(18) 0.0 0.0 .
1229(18) 0.0 0.0 .
1215(18) 0.0 0.0 .
1204(19) 0.0 0.0 .
1197(19) 0.0 0.0 .
1203(19) 0.0 0.0 .
1265(18) 0.0 0.0 .
1224(18) 0.0 0.0 .
1198(19) 0.0 0.0 .
1196(19) 0.0 0.0 .
1239(19) 0.0 0.0 .
1170(18) 0.0 0.0 .
1164(18) 0.0 0.0 .
1187(19) 0.0 0.0 .
1189(19) 0.0 0.0 .
1186(19) 0.0 0.0 .
1198(18) 0.0 0.0 .
1150(18) 0.0 0.0 .
1160(19) 0.0 0.0 .
1162(19) 0.0 0.0 .
1172(18) 0.0 0.0 .
1164(18) 0.0 0.0 .
1178(18) 0.0 0.0 .
1145(18) 0.0 0.0 .
1195(19) 0.0 0.0 .
1195(18) 0.0 0.0 .
1159(18) 0.0 0.0 .
1115(18) 0.0 0.0 .
1167(19) 0.0 0.0 .
1158(18) 0.0 0.0 .
1188(18) 0.0 0.0 .
1249(18) 0.0 0.0 .
1148(18) 0.0 0.0 .
1122(18) 0.0 0.0 .
1186(19) 0.0 0.0 .
1196(18) 0.0 0.0 .
1159(18) 0.0 0.0 .
1171(19) 0.0 0.0 .
1146(19) 0.0 0.0 .
1170(18) 0.0 0.0 .
1156(18) 0.0 0.0 .
1156(18) 0.0 0.0 .
1186(19) 0.0 0.0 .
1145(19) 0.0 0.0 .
1103(18) 0.0 0.0 .
1162(18) 0.0 0.0 .
1122(17) 0.0 0.0 .
1147(18) 0.0 0.0 .
1176(19) 0.0 0.0 .
1105(18) 0.0 0.0 .
1161(18) 0.0 0.0 .
1156(18) 0.0 0.0 .
1158(18) 0.0 0.0 .
1144(19) 0.0 0.0 .
1161(18) 0.0 0.0 .
1154(18) 0.0 0.0 .
1147(18) 0.0 0.0 .
1161(18) 0.0 0.0 .
1161(19) 0.0 0.0 .
1181(19) 0.0 0.0 .
1155(18) 0.0 0.0 .
1131(18) 0.0 0.0 .
1126(18) 0.0 0.0 .
1128(18) 0.0 0.0 .
1117(18) 0.0 0.0 .
1195(18) 0.0 0.0 .
1151(18) 0.0 0.0 .
1159(19) 0.0 0.0 .
1125(18) 0.0 0.0 .
1188(18) 0.0 0.0 .
1137(17) 0.0 0.0 .
1128(18) 0.0 0.0 .
1124(18) 0.0 0.0 .
1140(18) 0.0 0.0 .
1203(18) 0.0 0.0 .
1132(17) 0.0 0.0 .
1106(18) 0.0 0.0 .
1078(18) 0.0 0.0 .
1129(18) 0.0 0.0 .
1090(17) 0.0 0.0 .
1097(17) 0.0 0.0 .
1123(18) 0.0 0.0 .
1096(18) 0.0 0.0 .
1108(18) 0.0 0.0 .
1134(18) 0.0 0.0 .
1128(17) 0.0 0.0 .
1154(18) 0.0 0.0 .
1131(19) 0.0 0.0 .
1109(18) 0.0 0.0 .
1154(18) 0.0 0.0 .
1122(17) 0.0 0.0 .
1117(18) 0.0 0.0 .
1102(18) 0.0 0.0 .
1122(18) 0.0 0.0 .
1102(17) 0.0 0.0 .
1105(17) 0.0 0.0 .
1092(18) 0.0 0.0 .
1120(19) 0.0 0.0 .
1129(18) 0.0 0.0 .
1126(17) 0.0 0.0 .
1078(17) 0.0 0.0 .
1085(18) 0.0 0.0 .
1096(18) 0.0 0.0 .
1065(17) 0.0 0.0 .
1115(17) 0.0 0.0 .
1102(17) 0.0 0.0 .
1150(18) 0.0 0.0 .
1099(18) 0.0 0.0 .
1065(18) 0.0 0.0 .
1096(17) 0.0 0.0 .
1066(17) 0.0 0.0 .
1104(18) 0.0 0.0 .
1077(18) 0.0 0.0 .
1095(18) 0.0 0.0 .
1069(17) 0.0 0.0 .
1113(18) 0.0 0.0 .
1086(18) 0.0 0.0 .
1122(18) 0.0 0.0 .
1111(18) 0.0 0.0 .
1107(17) 0.0 0.0 .
1117(18) 0.0 0.0 .
1065(18) 0.0 0.0 .
1113(18) 0.0 0.0 .
1054(17) 0.0 0.0 .
1084(17) 0.0 0.0 .
1095(18) 0.0 0.0 .
1081(18) 0.0 0.0 .
1097(18) 0.0 0.0 .
1074(17) 0.0 0.0 .
1100(17) 0.0 0.0 .
1089(18) 0.0 0.0 .
1086(18) 0.0 0.0 .
1092(18) 0.0 0.0 .
1073(17) 0.0 0.0 .
1069(17) 0.0 0.0 .
1072(18) 0.0 0.0 .
1060(18) 0.0 0.0 .
1055(18) 0.0 0.0 .
1044(17) 0.0 0.0 .
1067(17) 0.0 0.0 .
1037(17) 0.0 0.0 .
1053(18) 0.0 0.0 .
1087(18) 0.0 0.0 .
1076(17) 0.0 0.0 .
1045(17) 0.0 0.0 .
1045(17) 0.0 0.0 .
1071(18) 0.0 0.0 .
1095(18) 0.0 0.0 .
1061(17) 0.0 0.0 .
1101(17) 0.0 0.0 .
1048(17) 0.0 0.0 .
1055(18) 0.0 0.0 .
1038(17) 0.0 0.0 .
1057(17) 0.0 0.0 .
1066(17) 0.0 0.0 .
1070(17) 0.0 0.0 .
1081(18) 0.0 0.0 .
1040(17) 0.0 0.0 .
1084(17) 0.0 0.0 .
1071(17) 0.0 0.0 .
1033(17) 0.0 0.0 .
1054(18) 0.0 0.0 .
1050(18) 0.0 0.0 .
1025(17) 0.0 0.0 .
1073(17) 0.0 0.0 .
1022(17) 0.0 0.0 .
1076(18) 0.0 0.0 .
1056(17) 0.0 0.0 .
1029(17) 0.0 0.0 .
1033(17) 0.0 0.0 .
1042(18) 0.0 0.0 .
1046(17) 0.0 0.0 .
1020(17) 0.0 0.0 .
1039(17) 0.0 0.0 .
1041(17) 0.0 0.0 .
1046(18) 0.0 0.0 .
1034(17) 0.0 0.0 .
1013(17) 0.0 0.0 .
1008(17) 0.0 0.0 .
1004(17) 0.0 0.0 .
1075(18) 0.0 0.0 .
1041(17) 0.0 0.0 .
1044(17) 0.0 0.0 .
1066(17) 0.0 0.0 .
1052(18) 0.0 0.0 .
1023(18) 0.0 0.0 .
1012(17) 0.0 0.0 .
1050(17) 0.0 0.0 .
1042(17) 0.0 0.0 .
1045(17) 0.0 0.0 .
1056(18) 0.0 0.0 .
1028(17) 0.0 0.0 .
1033(17) 0.0 0.0 .
1002(16) 0.0 0.0 .
1034(17) 0.0 0.0 .
1051(18) 0.0 0.0 .
975(17) 0.0 0.0 .
1006(17) 0.0 0.0 .
1010(16) 0.0 0.0 .
1087(18) 0.0 0.0 .
1074(18) 0.0 0.0 .
990(17) 0.0 0.0 .
1031(17) 0.0 0.0 .
1024(17) 0.0 0.0 .
991(17) 0.0 0.0 .
1038(18) 0.0 0.0 .
1034(17) 0.0 0.0 .
1041(17) 0.0 0.0 .
1009(17) 0.0 0.0 .
965(16) 0.0 0.0 .
1015(18) 0.0 0.0 .
954(17) 0.0 0.0 .
990(16) 0.0 0.0 .
1017(17) 0.0 0.0 .
1000(17) 0.0 0.0 .
999(17) 0.0 0.0 .
985(17) 0.0 0.0 .
975(16) 0.0 0.0 .
1016(17) 0.0 0.0 .
1042(18) 0.0 0.0 .
971(17) 0.0 0.0 .
1029(17) 0.0 0.0 .
980(16) 0.0 0.0 .
1002(17) 0.0 0.0 .
1049(18) 0.0 0.0 .
1011(17) 0.0 0.0 .
977(17) 0.0 0.0 .
1014(17) 0.0 0.0 .
986(17) 0.0 0.0 .
946(17) 0.0 0.0 .
997(17) 0.0 0.0 .
996(16) 0.0 0.0 .
972(16) 0.0 0.0 .
993(17) 0.0 0.0 .
1009(17) 0.0 0.0 .
1024(17) 0.0 0.0 .
994(17) 0.0 0.0 .
992(16) 0.0 0.0 .
1020(17) 0.0 0.0 .
982(17) 0.0 0.0 .
1038(17) 0.0 0.0 .
969(16) 0.0 0.0 .
1004(16) 0.0 0.0 .
1026(17) 0.0 0.0 .
975(17) 0.0 0.0 .
985(17) 0.0 0.0 .
988(16) 0.0 0.0 .
1004(16) 0.0 0.0 .
972(17) 0.0 0.0 .
968(17) 0.0 0.0 .
991(17) 0.0 0.0 .
968(16) 0.0 0.0 .
977(16) 0.0 0.0 .
1006(17) 0.0 0.0 .
988(17) 0.0 0.0 .
988(17) 0.0 0.0 .
985(16) 0.0 0.0 .
966(16) 0.0 0.0 .
956(16) 0.0 0.0 .
996(17) 0.0 0.0 .
1013(17) 0.0 0.0 .
1015(16) 0.0 0.0 .
1009(17) 0.0 0.0 .
980(17) 0.0 0.0 .
945(17) 0.0 0.0 .
956(17) 0.0 0.0 .
981(16) 0.0 0.0 .
957(16) 0.0 0.0 .
956(16) 0.0 0.0 .
954(17) 0.0 0.0 .
935(16) 0.0 0.0 .
976(16) 0.0 0.0 .
1039(17) 0.0 0.0 .
1004(17) 0.0 0.0 .
995(17) 0.0 0.0 .
956(16) 0.0 0.0 .
1022(17) 0.0 0.0 .
957(17) 0.0 0.0 .
943(17) 0.0 0.0 .
966(17) 0.0 0.0 .
930(16) 0.0 0.0 .
940(16) 0.0 0.0 .
946(17) 0.0 0.0 .
986(17) 0.0 0.0 .
944(16) 0.0 0.0 .
999(16) 0.0 0.0 .
944(16) 0.0 0.0 .
961(17) 0.0 0.0 .
920(17) 0.0 0.0 .
1010(17) 0.0 0.0 .
986(16) 0.0 0.0 .
977(16) 0.0 0.0 .
910(16) 0.0 0.0 .
916(17) 0.0 0.0 .
937(17) 0.0 0.0 .
944(16) 0.0 0.0 .
928(16) 0.0 0.0 .
941(16) 0.0 0.0 .
965(17) 0.0 0.0 .
954(17) 0.0 0.0 .
901(16) 0.0 0.0 .
994(16) 0.0 0.0 .
947(16) 0.0 0.0 .
964(17) 0.0 0.0 .
1014(17) 0.0 0.0 .
1001(16) 0.0 0.0 .
944(16) 0.0 0.0 .
939(16) 0.0 0.0 .
995(18) 0.0 0.0 .
931(16) 0.0 0.0 .
925(16) 0.0 0.0 .
888(16) 0.0 0.0 .
935(17) 0.0 0.0 .
930(17) 0.0 0.0 .
926(16) 0.0 0.0 .
914(16) 0.0 0.0 .
956(16) 0.0 0.0 .
971(17) 0.0 0.0 .
881(16) 0.0 0.0 .
938(17) 0.0 0.0 .
893(16) 0.0 0.0 .
962(16) 0.0 0.0 .
954(17) 0.0 0.0 .
945(16) 0.0 0.0 .
908(16) 0.0 0.0 .
925(16) 0.0 0.0 .
883(16) 0.0 0.0 .
892(16) 0.0 0.0 .
893(16) 0.0 0.0 .
943(16) 0.0 0.0 .
962(16) 0.0 0.0 .
951(17) 0.0 0.0 .
940(17) 0.0 0.0 .
886(16) 0.0 0.0 .
909(16) 0.0 0.0 .
905(16) 0.0 0.0 .
904(16) 0.0 0.0 .
958(17) 0.0 0.0 .
947(17) 0.0 0.0 .
937(16) 0.0 0.0 .
907(16) 0.0 0.0 .
912(16) 0.0 0.0 .
903(17) 0.0 0.0 .
879(16) 0.0 0.0 .
920(16) 0.0 0.0 .
900(16) 0.0 0.0 .
863(16) 0.0 0.0 .
891(17) 0.0 0.0 .
941(17) 0.0 0.0 .
898(16) 0.0 0.0 .
909(16) 0.0 0.0 .
905(16) 0.0 0.0 .
856(16) 0.0 0.0 .
879(16) 0.0 0.0 .
860(15) 0.0 0.0 .
908(16) 0.0 0.0 .
929(16) 0.0 0.0 .
901(16) 0.0 0.0 .
889(16) 0.0 0.0 .
878(15) 0.0 0.0 .
926(16) 0.0 0.0 .
916(16) 0.0 0.0 .
867(16) 0.0 0.0 .
865(16) 0.0 0.0 .
922(16) 0.0 0.0 .
901(16) 0.0 0.0 .
913(16) 0.0 0.0 .
916(17) 0.0 0.0 .
907(16) 0.0 0.0 .
873(15) 0.0 0.0 .
837(15) 0.0 0.0 .
876(16) 0.0 0.0 .
908(16) 0.0 0.0 .
900(16) 0.0 0.0 .
887(15) 0.0 0.0 .
870(16) 0.0 0.0 .
905(16) 0.0 0.0 .
864(16) 0.0 0.0 .
861(15) 0.0 0.0 .
901(16) 0.0 0.0 .
915(16) 0.0 0.0 .
867(16) 0.0 0.0 .
831(15) 0.0 0.0 .
884(16) 0.0 0.0 .
897(16) 0.0 0.0 .
866(16) 0.0 0.0 .
854(16) 0.0 0.0 .
855(16) 0.0 0.0 .
884(15) 0.0 0.0 .
901(16) 0.0 0.0 .
897(16) 0.0 0.0 .
880(17) 0.0 0.0 .
874(16) 0.0 0.0 .
910(16) 0.0 0.0 .
907(16) 0.0 0.0 .
876(16) 0.0 0.0 .
867(17) 0.0 0.0 .
849(16) 0.0 0.0 .
844(15) 0.0 0.0 .
865(15) 0.0 0.0 .
851(16) 0.0 0.0 .
831(16) 0.0 0.0 .
867(16) 0.0 0.0 .
859(15) 0.0 0.0 .
830(15) 0.0 0.0 .
850(16) 0.0 0.0 .
875(16) 0.0 0.0 .
888(16) 0.0 0.0 .
903(16) 0.0 0.0 .
884(15) 0.0 0.0 .
858(16) 0.0 0.0 .
841(16) 0.0 0.0 .
876(16) 0.0 0.0 .
851(15) 0.0 0.0 .
827(15) 0.0 0.0 .
849(16) 0.0 0.0 .
851(16) 0.0 0.0 .
833(15) 0.0 0.0 .
853(15) 0.0 0.0 .
855(16) 0.0 0.0 .
842(15) 0.0 0.0 .
872(16) 0.0 0.0 .
838(15) 0.0 0.0 .
801(15) 0.0 0.0 .
813(15) 0.0 0.0 .
852(16) 0.0 0.0 .
832(16) 0.0 0.0 .
840(15) 0.0 0.0 .
852(15) 0.0 0.0 .
878(16) 0.0 0.0 .
822(16) 0.0 0.0 .
859(16) 0.0 0.0 .
845(15) 0.0 0.0 .
832(15) 0.0 0.0 .
878(16) 0.0 0.0 .
870(16) 0.0 0.0 .
845(16) 0.0 0.0 .
858(15) 0.0 0.0 .
793(15) 0.0 0.0 .
750(15) 0.0 0.0 .
877(16) 0.0 0.0 .
858(16) 0.0 0.0 .
852(15) 0.0 0.0 .
814(15) 0.0 0.0 .
855(16) 0.0 0.0 .
823(16) 0.0 0.0 .
813(15) 0.0 0.0 .
828(15) 0.0 0.0 .
799(15) 0.0 0.0 .
790(15) 0.0 0.0 .
829(16) 0.0 0.0 .
874(16) 0.0 0.0 .
876(15) 0.0 0.0 .
833(15) 0.0 0.0 .
812(15) 0.0 0.0 .
813(16) 0.0 0.0 .
847(16) 0.0 0.0 .
813(15) 0.0 0.0 .
808(15) 0.0 0.0 .
806(15) 0.0 0.0 .
794(16) 0.0 0.0 .
859(16) 0.0 0.0 .
816(15) 0.0 0.0 .
848(15) 0.0 0.0 .
806(15) 0.0 0.0 .
804(15) 0.0 0.0 .
814(16) 0.0 0.0 .
828(15) 0.0 0.0 .
846(15) 0.0 0.0 .
842(16) 0.0 0.0 .
802(15) 0.0 0.0 .
814(15) 0.0 0.0 .
822(15) 0.0 0.0 .
801(15) 0.0 0.0 .
809(15) 0.0 0.0 .
792(15) 0.0 0.0 .
816(15) 0.0 0.0 .
818(15) 0.0 0.0 .
854(16) 0.0 0.0 .
813(16) 0.0 0.0 .
834(16) 0.0 0.0 .
820(15) 0.0 0.0 .
830(15) 0.0 0.0 .
812(15) 0.0 0.0 .
815(16) 0.0 0.0 .
807(15) 0.0 0.0 .
842(15) 0.0 0.0 .
818(15) 0.0 0.0 .
782(15) 0.0 0.0 .
821(16) 0.0 0.0 .
805(15) 0.0 0.0 .
816(15) 0.0 0.0 .
832(15) 0.0 0.0 .
789(15) 0.0 0.0 .
807(16) 0.0 0.0 .
815(15) 0.0 0.0 .
819(15) 0.0 0.0 .
842(15) 0.0 0.0 .
858(16) 0.0 0.0 .
854(16) 0.0 0.0 .
824(15) 0.0 0.0 .
789(15) 0.0 0.0 .
746(14) 0.0 0.0 .
782(15) 0.0 0.0 .
754(15) 0.0 0.0 .
775(15) 0.0 0.0 .
819(15) 0.0 0.0 .
800(15) 0.0 0.0 .
779(15) 0.0 0.0 .
792(16) 0.0 0.0 .
836(16) 0.0 0.0 .
794(15) 0.0 0.0 .
815(15) 0.0 0.0 .
807(15) 0.0 0.0 .
787(15) 0.0 0.0 .
777(15) 0.0 0.0 .
770(14) 0.0 0.0 .
816(15) 0.0 0.0 .
797(15) 0.0 0.0 .
804(15) 0.0 0.0 .
804(15) 0.0 0.0 .
754(14) 0.0 0.0 .
791(15) 0.0 0.0 .
805(15) 0.0 0.0 .
828(16) 0.0 0.0 .
768(15) 0.0 0.0 .
772(14) 0.0 0.0 .
795(15) 0.0 0.0 .
773(15) 0.0 0.0 .
758(15) 0.0 0.0 .
789(15) 0.0 0.0 .
802(15) 0.0 0.0 .
786(15) 0.0 0.0 .
801(15) 0.0 0.0 .
743(15) 0.0 0.0 .
762(15) 0.0 0.0 .
767(14) 0.0 0.0 .
765(15) 0.0 0.0 .
809(16) 0.0 0.0 .
775(15) 0.0 0.0 .
765(14) 0.0 0.0 .
801(15) 0.0 0.0 .
777(15) 0.0 0.0 .
759(15) 0.0 0.0 .
799(15) 0.0 0.0 .
756(14) 0.0 0.0 .
777(14) 0.0 0.0 .
783(15) 0.0 0.0 .
787(16) 0.0 0.0 .
733(14) 0.0 0.0 .
777(14) 0.0 0.0 .
783(15) 0.0 0.0 .
805(15) 0.0 0.0 .
775(16) 0.0 0.0 .
765(15) 0.0 0.0 .
789(15) 0.0 0.0 .
753(14) 0.0 0.0 .
774(15) 0.0 0.0 .
759(15) 0.0 0.0 .
738(14) 0.0 0.0 .
764(14) 0.0 0.0 .
777(15) 0.0 0.0 .
797(15) 0.0 0.0 .
790(15) 0.0 0.0 .
778(15) 0.0 0.0 .
790(15) 0.0 0.0 .
815(15) 0.0 0.0 .
788(15) 0.0 0.0 .
756(15) 0.0 0.0 .
725(14) 0.0 0.0 .
750(14) 0.0 0.0 .
727(14) 0.0 0.0 .
773(15) 0.0 0.0 .
765(15) 0.0 0.0 .
778(15) 0.0 0.0 .
758(14) 0.0 0.0 .
741(15) 0.0 0.0 .
767(15) 0.0 0.0 .
778(15) 0.0 0.0 .
761(15) 0.0 0.0 .
801(15) 0.0 0.0 .
762(15) 0.0 0.0 .
741(15) 0.0 0.0 .
773(15) 0.0 0.0 .
781(15) 0.0 0.0 .
770(14) 0.0 0.0 .
754(15) 0.0 0.0 .
744(15) 0.0 0.0 .
730(15) 0.0 0.0 .
778(15) 0.0 0.0 .
811(15) 0.0 0.0 .
772(15) 0.0 0.0 .
730(15) 0.0 0.0 .
747(15) 0.0 0.0 .
744(14) 0.0 0.0 .
686(14) 0.0 0.0 .
739(15) 0.0 0.0 .
761(16) 0.0 0.0 .
731(15) 0.0 0.0 .
721(14) 0.0 0.0 .
780(15) 0.0 0.0 .
771(15) 0.0 0.0 .
780(16) 0.0 0.0 .
770(15) 0.0 0.0 .
773(14) 0.0 0.0 .
751(14) 0.0 0.0 .
775(15) 0.0 0.0 .
748(15) 0.0 0.0 .
727(15) 0.0 0.0 .
704(14) 0.0 0.0 .
759(15) 0.0 0.0 .
734(15) 0.0 0.0 .
738(15) 0.0 0.0 .
735(15) 0.0 0.0 .
755(14) 0.0 0.0 .
743(14) 0.0 0.0 .
721(15) 0.0 0.0 .
751(15) 0.0 0.0 .
741(15) 0.0 0.0 .
739(14) 0.0 0.0 .
749(14) 0.0 0.0 .
757(15) 0.0 0.0 .
707(15) 0.0 0.0 .
728(14) 0.0 0.0 .
745(14) 0.0 0.0 .
737(15) 0.0 0.0 .
701(14) 0.0 0.0 .
724(14) 0.0 0.0 .
762(15) 0.0 0.0 .
783(14) 0.0 0.0 .
749(15) 0.0 0.0 .
762(15) 0.0 0.0 .
743(15) 0.0 0.0 .
725(14) 0.0 0.0 .
767(14) 0.0 0.0 .
693(14) 0.0 0.0 .
749(15) 0.0 0.0 .
749(15) 0.0 0.0 .
773(15) 0.0 0.0 .
696(14) 0.0 0.0 .
727(15) 0.0 0.0 .
731(15) 0.0 0.0 .
730(15) 0.0 0.0 .
744(14) 0.0 0.0 .
709(14) 0.0 0.0 .
722(14) 0.0 0.0 .
741(15) 0.0 0.0 .
749(15) 0.0 0.0 .
711(14) 0.0 0.0 .
759(14) 0.0 0.0 .
750(15) 0.0 0.0 .
705(15) 0.0 0.0 .
715(14) 0.0 0.0 .
734(14) 0.0 0.0 .
741(14) 0.0 0.0 .
737(14) 0.0 0.0 .
702(15) 0.0 0.0 .
754(15) 0.0 0.0 .
693(14) 0.0 0.0 .
729(14) 0.0 0.0 .
739(15) 0.0 0.0 .
736(15) 0.0 0.0 .
725(14) 0.0 0.0 .
712(14) 0.0 0.0 .
720(14) 0.0 0.0 .
744(15) 0.0 0.0 .
703(14) 0.0 0.0 .
736(15) 0.0 0.0 .
744(14) 0.0 0.0 .
754(14) 0.0 0.0 .
748(15) 0.0 0.0 .
715(15) 0.0 0.0 .
749(15) 0.0 0.0 .
743(14) 0.0 0.0 .
728(14) 0.0 0.0 .
705(14) 0.0 0.0 .
720(14) 0.0 0.0 .
748(15) 0.0 0.0 .
716(14) 0.0 0.0 .
725(14) 0.0 0.0 .
734(15) 0.0 0.0 .
731(15) 0.0 0.0 .
703(14) 0.0 0.0 .
709(14) 0.0 0.0 .
719(14) 0.0 0.0 .
745(15) 0.0 0.0 .
750(15) 0.0 0.0 .
707(14) 0.0 0.0 .
741(14) 0.0 0.0 .
700(14) 0.0 0.0 .
732(15) 0.0 0.0 .
740(15) 0.0 0.0 .
735(14) 0.0 0.0 .
739(14) 0.0 0.0 .
724(15) 0.0 0.0 .
741(15) 0.0 0.0 .
751(15) 0.0 0.0 .
711(14) 0.0 0.0 .
733(14) 0.0 0.0 .
704(14) 0.0 0.0 .
721(15) 0.0 0.0 .
747(15) 0.0 0.0 .
713(14) 0.0 0.0 .
717(14) 0.0 0.0 .
720(14) 0.0 0.0 .
745(15) 0.0 0.0 .
709(14) 0.0 0.0 .
738(14) 0.0 0.0 .
755(14) 0.0 0.0 .
766(15) 0.0 0.0 .
735(15) 0.0 0.0 .
740(15) 0.0 0.0 .
733(14) 0.0 0.0 .
706(14) 0.0 0.0 .
725(14) 0.0 0.0 .
674(14) 0.0 0.0 .
725(14) 0.0 0.0 .
738(14) 0.0 0.0 .
699(14) 0.0 0.0 .
710(14) 0.0 0.0 .
738(15) 0.0 0.0 .
717(14) 0.0 0.0 .
718(14) 0.0 0.0 .
729(14) 0.0 0.0 .
706(14) 0.0 0.0 .
726(15) 0.0 0.0 .
707(14) 0.0 0.0 .
709(14) 0.0 0.0 .
695(14) 0.0 0.0 .
661(14) 0.0 0.0 .
682(14) 0.0 0.0 .
719(14) 0.0 0.0 .
682(14) 0.0 0.0 .
747(15) 0.0 0.0 .
733(15) 0.0 0.0 .
719(14) 0.0 0.0 .
699(14) 0.0 0.0 .
699(14) 0.0 0.0 .
729(15) 0.0 0.0 .
686(14) 0.0 0.0 .
710(14) 0.0 0.0 .
737(14) 0.0 0.0 .
698(14) 0.0 0.0 .
688(14) 0.0 0.0 .
738(15) 0.0 0.0 .
702(14) 0.0 0.0 .
723(14) 0.0 0.0 .
738(14) 0.0 0.0 .
755(15) 0.0 0.0 .
752(15) 0.0 0.0 .
755(15) 0.0 0.0 .
722(14) 0.0 0.0 .
713(14) 0.0 0.0 .
726(15) 0.0 0.0 .
712(15) 0.0 0.0 .
686(14) 0.0 0.0 .
695(14) 0.0 0.0 .
694(14) 0.0 0.0 .
743(15) 0.0 0.0 .
742(15) 0.0 0.0 .
715(14) 0.0 0.0 .
712(14) 0.0 0.0 .
741(14) 0.0 0.0 .
705(14) 0.0 0.0 .
731(15) 0.0 0.0 .
731(15) 0.0 0.0 .
722(14) 0.0 0.0 .
734(14) 0.0 0.0 .
705(14) 0.0 0.0 .
731(15) 0.0 0.0 .
734(15) 0.0 0.0 .
750(14) 0.0 0.0 .
728(14) 0.0 0.0 .
754(15) 0.0 0.0 .
706(14) 0.0 0.0 .
730(14) 0.0 0.0 .
696(14) 0.0 0.0 .
693(14) 0.0 0.0 .
725(15) 0.0 0.0 .
733(15) 0.0 0.0 .
760(15) 0.0 0.0 .
745(14) 0.0 0.0 .
754(15) 0.0 0.0 .
691(14) 0.0 0.0 .
715(14) 0.0 0.0 .
761(15) 0.0 0.0 .
763(14) 0.0 0.0 .
736(15) 0.0 0.0 .
724(15) 0.0 0.0 .
719(14) 0.0 0.0 .
724(14) 0.0 0.0 .
746(14) 0.0 0.0 .
743(15) 0.0 0.0 .
727(15) 0.0 0.0 .
756(15) 0.0 0.0 .
767(14) 0.0 0.0 .
713(14) 0.0 0.0 .
744(15) 0.0 0.0 .
704(15) 0.0 0.0 .
728(14) 0.0 0.0 .
745(14) 0.0 0.0 .
727(14) 0.0 0.0 .
741(15) 0.0 0.0 .
718(15) 0.0 0.0 .
713(14) 0.0 0.0 .
733(14) 0.0 0.0 .
738(14) 0.0 0.0 .
740(15) 0.0 0.0 .
752(15) 0.0 0.0 .
767(15) 0.0 0.0 .
729(14) 0.0 0.0 .
759(15) 0.0 0.0 .
747(15) 0.0 0.0 .
743(15) 0.0 0.0 .
761(15) 0.0 0.0 .
705(14) 0.0 0.0 .
733(14) 0.0 0.0 .
783(15) 0.0 0.0 .
706(14) 0.0 0.0 .
709(14) 0.0 0.0 .
777(14) 0.0 0.0 .
765(15) 0.0 0.0 .
723(14) 0.0 0.0 .
774(15) 0.0 0.0 .
775(15) 0.0 0.0 .
750(14) 0.0 0.0 .
781(15) 0.0 0.0 .
769(15) 0.0 0.0 .
769(15) 0.0 0.0 .
787(15) 0.0 0.0 .
784(15) 0.0 0.0 .
777(15) 0.0 0.0 .
780(15) 0.0 0.0 .
777(15) 0.0 0.0 .
756(15) 0.0 0.0 .
805(15) 0.0 0.0 .
810(15) 0.0 0.0 .
804(16) 0.0 0.0 .
792(15) 0.0 0.0 .
819(15) 0.0 0.0 .
865(15) 0.0 0.0 .
865(16) 0.0 0.0 .
826(16) 0.0 0.0 .
814(15) 0.0 0.0 .
835(15) 0.0 0.0 .
834(15) 0.0 0.0 .
835(16) 0.0 0.0 .
862(16) 0.0 0.0 .
869(16) 0.0 0.0 .
922(16) 0.0 0.0 .
868(15) 0.0 0.0 .
913(16) 0.0 0.0 .
919(17) 0.0 0.0 .
909(16) 0.0 0.0 .
928(16) 0.0 0.0 .
935(16) 0.0 0.0 .
906(16) 0.0 0.0 .
917(17) 0.0 0.0 .
927(17) 0.0 0.0 .
926(16) 0.0 0.0 .
942(16) 0.0 0.0 .
985(17) 0.0 0.0 .
984(17) 0.0 0.0 .
1015(17) 0.0 0.0 .
1035(17) 0.0 0.0 .
1027(17) 0.0 0.0 .
1097(18) 0.0 0.0 .
1030(17) 0.0 0.0 .
1154(19) 0.0 0.0 .
1099(17) 0.0 0.0 .
1185(18) 0.0 0.0 .
1235(19) 0.0 0.0 .
1328(20) 0.0 0.0 .
1367(20) 0.0 0.0 .
1470(20) 0.0 0.0 .
1542(21) 0.0 0.0 .
1672(22) 0.0 0.0 .
1834(23) 0.0 0.0 .
1957(24) 0.0 0.0 .
2310(25) 0.0 0.0 .
2648(27) 0.0 0.0 .
3106(30) 0.0 0.0 .
3751(33) 0.0 0.0 .
4619(36) 0.0 0. .
5672(39) 0.0 0. .
6969(45) 0.0 0. .
8689(51) 0.0 0. .
10477(56) 0.0 0. .
12785(60) 0.0 0. .
15259(65) 0.0 0. .
17878(73) 0.0 0. .
20625(80) 0.0 0. .
23074(83) 0.0 0. .
25419(85) 0.0 0. .
28132(89) 0.0 0. .
31539(98) 0.0 0. .
34870(110) 0.0 0. .
39040(110) 0.0 0. .
44240(110) 0.0 0. .
50970(120) 0.0 0. .
59540(140) 0.0 0. .
69330(160) 0.0 0. .
78640(160) 0.0 0. .
85750(160) 0.0 0. .
84950(160) 0.0 0. .
74510(160) 0.0 0. .
60000(140) 0.0 0. .
46060(120) 0.0 0. .
34222(99) 0.0 0. .
25367(86) 0.0 0. .
18888(75) 0.0 0. .
14593(67) 0.0 0. .
11502(58) 0.0 0. .
9313(50) 0.0 0. .
7654(46) 0.0 0. .
6546(44) 0.0 0. .
5568(41) 0.0 0. .
4757(37) 0.0 0. .
4152(34) 0.0 0.0 .
3706(32) 0.0 0.0 .
3413(32) 0.0 0.0 .
3075(30) 0.0 0.0 .
2763(28) 0.0 0.0 .
2501(26) 0.0 0.0 .
2361(26) 0.0 0.0 .
2257(26) 0.0 0.0 .
2099(25) 0.0 0.0 .
1916(23) 0.0 0.0 .
1830(22) 0.0 0.0 .
1737(22) 0.0 0.0 .
1646(22) 0.0 0.0 .
1544(21) 0.0 0.0 .
1508(20) 0.0 0.0 .
1471(20) 0.0 0.0 .
1414(20) 0.0 0.0 .
1324(20) 0.0 0.0 .
1289(19) 0.0 0.0 .
1232(18) 0.0 0.0 .
1212(18) 0.0 0.0 .
1181(18) 0.0 0.0 .
1172(19) 0.0 0.0 .
1133(18) 0.0 0.0 .
1101(17) 0.0 0.0 .
1048(17) 0.0 0.0 .
1024(17) 0.0 0.0 .
1028(18) 0.0 0.0 .
1033(17) 0.0 0.0 .
994(17) 0.0 0.0 .
951(16) 0.0 0.0 .
961(16) 0.0 0.0 .
926(17) 0.0 0.0 .
895(16) 0.0 0.0 .
919(16) 0.0 0.0 .
876(15) 0.0 0.0 .
857(16) 0.0 0.0 .
894(17) 0.0 0.0 .
838(15) 0.0 0.0 .
876(15) 0.0 0.0 .
891(16) 0.0 0.0 .
855(16) 0.0 0.0 .
850(16) 0.0 0.0 .
798(15) 0.0 0.0 .
824(15) 0.0 0.0 .
827(15) 0.0 0.0 .
834(16) 0.0 0.0 .
827(16) 0.0 0.0 .
789(15) 0.0 0.0 .
792(15) 0.0 0.0 .
778(15) 0.0 0.0 .
770(15) 0.0 0.0 .
736(15) 0.0 0.0 .
796(15) 0.0 0.0 .
796(15) 0.0 0.0 .
777(15) 0.0 0.0 .
749(15) 0.0 0.0 .
755(15) 0.0 0.0 .
773(15) 0.0 0.0 .
771(14) 0.0 0.0 .
725(14) 0.0 0.0 .
742(15) 0.0 0.0 .
756(15) 0.0 0.0 .
806(15) 0.0 0.0 .
766(14) 0.0 0.0 .
718(14) 0.0 0.0 .
734(15) 0.0 0.0 .
751(15) 0.0 0.0 .
736(14) 0.0 0.0 .
726(14) 0.0 0.0 .
769(15) 0.0 0.0 .
716(14) 0.0 0.0 .
730(14) 0.0 0.0 .
740(14) 0.0 0.0 .
716(14) 0.0 0.0 .
701(14) 0.0 0.0 .
721(15) 0.0 0.0 .
696(14) 0.0 0.0 .
704(14) 0.0 0.0 .
702(14) 0.0 0.0 .
715(14) 0.0 0.0 .
706(15) 0.0 0.0 .
715(14) 0.0 0.0 .
691(14) 0.0 0.0 .
753(14) 0.0 0.0 .
692(14) 0.0 0.0 .
683(15) 0.0 0.0 .
684(14) 0.0 0.0 .
717(14) 0.0 0.0 .
708(14) 0.0 0.0 .
690(14) 0.0 0.0 .
708(15) 0.0 0.0 .
689(14) 0.0 0.0 .
698(14) 0.0 0.0 .
691(14) 0.0 0.0 .
685(14) 0.0 0.0 .
699(14) 0.0 0.0 .
694(14) 0.0 0.0 .
713(14) 0.0 0.0 .
697(14) 0.0 0.0 .
723(15) 0.0 0.0 .
712(15) 0.0 0.0 .
728(15) 0.00461 680.8 62.3
674(13) 0.00552 680.8 61.2
642(13) 0.00566 680.8 60.2
682(14) 0.00508 680.8 59.2
684(14) 0.00511 680.8 58.2
677(14) 0.00518 680.8 57.3
689(14) 0.00542 680.8 56.4
682(14) 0.00517 680.8 55.4
667(14) 0.00517 680.4 54.6
720(15) 0.00466 679.9 0.0
696(14) 0.00518 679.4 0.0
694(14) 0.00537 679.0 0.0
685(14) 0.00508 678.5 0.0
693(14) 0.00485 678.1 0.0
674(14) 0.00499 677.6 0.0
663(14) 0.00544 677.2 0.0
659(13) 0.00560 676.7 0.0
685(14) 0.00500 676.2 0.0
668(14) 0.00504 675.8 0.0
694(14) 0.00502 675.3 0.0
706(14) 0.00515 674.9 0.0
657(13) 0.00575 674.4 0.0
718(14) 0.00481 673.9 0.0
679(14) 0.00496 673.5 0.0
693(14) 0.00507 673.0 0.0
669(13) 0.00550 672.6 0.0
644(13) 0.00579 672.1 0.0
657(14) 0.00510 671.6 0.0
644(14) 0.00514 671.2 0.0
668(14) 0.00520 670.7 0.0
659(13) 0.00569 670.3 0.0
674(13) 0.00555 669.8 0.0
680(14) 0.00526 669.3 0.0
658(14) 0.00496 668.9 0.0
648(14) 0.00535 668.4 0.0
691(14) 0.00536 668.0 0.0
666(14) 0.00543 667.5 0.0
655(14) 0.00519 667.0 0.0
655(14) 0.00490 666.6 0.0
635(14) 0.00541 666.1 0.0
635(13) 0.00575 665.7 0.0
664(13) 0.00561 665.2 0.0
658(14) 0.00520 664.7 0.0
653(14) 0.00496 664.3 0.0
657(14) 0.00525 663.8 0.0
636(13) 0.00588 663.4 0.0
666(14) 0.00545 662.9 0.0
661(14) 0.00532 662.5 0.0
648(14) 0.00518 662.0 0.0
654(14) 0.00527 661.5 0.0
646(13) 0.00573 661.1 0.0
656(14) 0.00546 660.6 0.0
653(14) 0.00536 660.2 0.0
686(14) 0.00491 659.7 0.0
667(14) 0.00524 659.2 0.0
697(14) 0.00533 658.8 0.0
639(13) 0.00559 658.3 0.0
660(14) 0.00532 657.9 0.0
689(14) 0.00490 657.4 0.0
626(13) 0.00575 656.9 0.0
623(13) 0.00599 656.5 0.0
646(13) 0.00549 656.0 0.0
663(14) 0.00510 655.6 0.0
673(14) 0.00513 655.1 0.0
648(14) 0.00544 654.6 0.0
649(13) 0.00577 654.2 0.0
626(13) 0.00565 653.7 0.0
672(14) 0.00487 653.3 0.0
653(14) 0.00537 652.8 0.0
652(13) 0.00564 652.3 0.0
654(13) 0.00567 651.9 0.0
654(14) 0.00521 651.4 0.0
632(13) 0.00550 651.0 0.0
624(13) 0.00567 650.5 0.0
663(13) 0.00552 650.0 0.0
633(13) 0.00593 649.6 0.0
645(14) 0.00546 649.1 0.0
626(14) 0.00512 648.7 0.0
644(14) 0.00529 648.2 0.0
629(13) 0.00584 647.8 0.0
620(13) 0.00588 647.3 0.0
670(14) 0.00515 646.8 0.0
652(14) 0.00504 646.4 0.0
652(14) 0.00526 645.9 0.7
640(13) 0.00580 645.5 0.7
657(13) 0.00553 645.0 0.7
663(14) 0.00520 644.5 0.8
607(14) 0.00535 644.1 0.8
617(13) 0.00571 643.6 0.8
644(13) 0.00571 643.2 0.8
631(13) 0.00581 642.7 0.8
676(14) 0.00495 642.2 0.8
604(13) 0.00568 641.8 0.8
625(13) 0.00553 641.3 0.9
644(13) 0.00569 640.9 0.9
621(13) 0.00592 640.4 0.9
615(13) 0.00564 639.9 0.9
641(14) 0.00505 639.5 0.9
599(13) 0.00571 639.0 0.9
629(13) 0.00586 638.6 0.9
633(13) 0.00567 638.1 1.0
624(13) 0.00565 637.6 1.0
665(14) 0.00504 637.2 1.0
661(14) 0.00515 636.7 1.0
643(13) 0.00577 636.3 1.0
661(14) 0.00519 635.8 1.1
632(14) 0.00528 635.3 1.1
652(14) 0.00525 634.9 1.1
623(13) 0.00558 634.4 1.1
630(13) 0.00592 634.0 1.1
640(14) 0.00536 633.5 1.2
641(14) 0.00516 633.0 1.2
643(14) 0.00547 632.6 1.2
632(13) 0.00557 632.1 1.2
629(13) 0.00585 631.7 1.3
666(14) 0.00523 631.2 1.3
643(14) 0.00532 630.8 1.3
646(14) 0.00533 630.3 1.3
618(13) 0.00586 629.8 1.4
612(13) 0.00605 629.4 1.4
657(14) 0.00517 628.9 1.4
654(14) 0.00502 628.5 1.5
663(14) 0.00526 628.0 1.5
607(13) 0.00607 627.5 1.5
626(13) 0.00596 627.1 1.6
615(13) 0.00551 626.6 1.6
611(14) 0.00539 626.2 1.7
631(13) 0.00557 625.7 1.7
598(13) 0.00613 625.2 1.7
622(13) 0.00597 624.8 1.8
607(13) 0.00576 624.3 1.8
572(13) 0.00587 623.9 1.9
610(13) 0.00565 623.4 1.9
639(13) 0.00575 623.0 2.0
670(14) 0.00541 622.8 2.0
654(14) 0.00535 622.6 2.1
631(14) 0.00517 622.5 2.1
618(13) 0.00571 622.3 2.2
625(13) 0.00594 622.1 2.2
628(13) 0.00592 622.0 2.3
638(14) 0.00546 621.8 2.4
620(14) 0.00534 621.6 2.4
626(13) 0.00562 621.4 2.5
625(13) 0.00592 621.3 2.6
636(13) 0.00571 621.1 2.7
603(13) 0.00582 620.9 2.7
612(14) 0.00543 620.7 2.8
625(13) 0.00556 620.6 2.9
622(13) 0.00599 620.4 3.0
601(13) 0.00608 620.2 3.1
601(13) 0.00594 620.0 3.2
613(13) 0.00552 619.9 3.3
632(14) 0.00546 619.7 3.4
649(13) 0.00570 619.5 3.6
651(13) 0.00558 619.3 3.7
617(13) 0.00573 619.2 3.8
625(13) 0.00555 619.0 4.0
619(13) 0.00580 618.8 4.1
647(13) 0.00578 618.7 4.3
651(13) 0.00552 618.5 4.4
621(13) 0.00554 618.3 4.6
621(14) 0.00538 618.1 4.8
573(13) 0.00620 618.0 5.0
618(13) 0.00602 617.8 5.2
605(13) 0.00584 617.6 5.5
634(14) 0.00531 617.4 5.7
614(13) 0.00565 617.3 6.0
599(13) 0.00610 617.1 6.2
626(13) 0.00595 616.9 6.5
653(14) 0.00536 616.7 6.8
667(14) 0.00517 616.6 7.2
591(13) 0.00601 616.4 7.5
592(13) 0.00623 616.2 7.9
613(13) 0.00606 616.1 8.4
613(13) 0.00572 615.9 8.8
598(13) 0.00566 615.7 9.3
616(13) 0.00564 615.5 9.9
654(13) 0.00560 615.4 10.5
608(13) 0.00608 615.2 11.1
649(14) 0.00529 615.0 11.8
618(14) 0.00524 614.8 12.6
654(14) 0.00523 614.7 13.5
601(13) 0.00614 614.5 14.4
611(13) 0.00611 614.3 15.4
604(13) 0.00570 614.1 16.6
650(14) 0.00490 614.0 17.9
632(13) 0.00562 613.8 19.4
629(13) 0.00584 613.6 21.0
677(13) 0.00551 613.4 22.9
713(14) 0.00489 613.3 25.0
663(14) 0.00504 613.1 27.4
667(14) 0.00514 612.9 30.1
712(14) 0.00523 612.8 33.4
725(14) 0.00497 612.6 37.2
707(14) 0.00501 612.4 41.9
738(15) 0.00443 612.2 47.9
771(15) 0.00435 612.1 55.6
792(15) 0.00468 611.9 66.1
804(15) 0.00457 611.7 80.7
830(15) 0.00421 611.5 101.4
860(16) 0.00399 611.4 130.6
949(17) 0.00361 611.2 171.1
953(16) 0.00389 611.0 225.9
1006(17) 0.00355 610.8 297.3
1012(17) 0.003377 610.7 386.2
1068(18) 0.003120 610.5 491.2
1101(18) 0.003149 610.3 607.8
1187(18) 0.003125 610.2 727.3
1255(19) 0.002827 610.0 835.4
1278(19) 0.002675 609.8 913.3
1363(20) 0.002483 609.6 942.5
1388(20) 0.002559 609.5 915.0
1355(19) 0.002732 609.3 838.3
1217(19) 0.002845 609.1 730.8
1182(19) 0.002819 608.9 611.4
1015(17) 0.003395 608.8 494.5
866(15) 0.00418 608.6 389.1
836(15) 0.00443 608.4 299.7
737(15) 0.00460 608.2 227.8
703(15) 0.00464 608.1 172.6
696(14) 0.00501 607.9 131.6
653(13) 0.00561 607.7 102.1
620(13) 0.00599 607.5 81.2
626(14) 0.00540 607.4 66.5
632(14) 0.00511 607.2 55.9
595(13) 0.00596 607.0 48.1
656(13) 0.00562 606.9 42.1
640(13) 0.00580 606.7 37.4
614(13) 0.00568 606.5 33.5
643(14) 0.00500 606.3 30.2
595(13) 0.00583 606.2 27.4
624(13) 0.00592 606.0 25.0
630(13) 0.00585 605.8 22.9
609(13) 0.00574 605.6 21.1
648(14) 0.00486 605.5 19.4
610(13) 0.00578 605.3 18.0
614(13) 0.00605 605.1 16.6
610(13) 0.00598 604.9 15.5
593(13) 0.00578 604.8 14.4
589(13) 0.00551 604.6 13.5
629(13) 0.00550 604.4 12.6
628(13) 0.00593 604.3 11.8
589(13) 0.00632 604.1 11.1
622(13) 0.00562 603.9 10.5
622(14) 0.00528 603.7 9.9
608(13) 0.00568 603.6 9.3
604(13) 0.00615 603.4 8.8
580(13) 0.00623 603.2 8.4
610(13) 0.00562 603.0 8.0
623(14) 0.00529 602.9 7.6
619(14) 0.00537 602.7 7.2
584(13) 0.00634 602.5 6.9
609(13) 0.00587 602.3 6.5
582(13) 0.00607 602.2 6.2
622(14) 0.00534 602.0 6.0
609(13) 0.00579 601.8 5.7
627(13) 0.00589 601.7 5.5
606(13) 0.00580 601.5 5.2
589(13) 0.00571 601.3 5.0
564(13) 0.00607 601.1 4.8
605(13) 0.00584 601.0 4.6
620(13) 0.00600 600.8 4.5
588(13) 0.00612 600.6 4.3
633(14) 0.00531 600.4 4.1
615(13) 0.00553 600.3 4.0
602(13) 0.00600 600.1 3.8
605(13) 0.00611 599.9 3.7
581(13) 0.00603 599.7 3.6
595(13) 0.00566 599.6 3.4
613(13) 0.00568 599.4 3.3
636(13) 0.00565 599.2 3.2
594(13) 0.00621 599.0 3.1
628(13) 0.00552 598.9 3.0
596(13) 0.00558 598.7 2.9
599(13) 0.00567 598.5 2.8
586(13) 0.00625 598.4 2.8
582(13) 0.00633 598.2 2.7
562(13) 0.00639 598.0 2.6
609(14) 0.00523 597.8 2.5
566(13) 0.00605 597.7 2.4
605(13) 0.00604 597.5 2.4
597(13) 0.00623 597.3 2.3
589(13) 0.00595 597.1 2.2
623(14) 0.00519 597.0 2.2
608(13) 0.00578 596.8 2.1
583(13) 0.00636 596.6 2.1
586(13) 0.00633 596.4 2.0
597(13) 0.00576 596.3 2.0
564(13) 0.00567 596.1 1.9
570(13) 0.00614 595.9 1.9
623(13) 0.00594 595.8 1.8
552(12) 0.00677 595.6 1.8
592(13) 0.00583 595.4 1.7
603(13) 0.00553 595.2 1.7
600(13) 0.00575 595.1 1.7
613(13) 0.00601 594.9 1.6
587(13) 0.00626 594.7 1.6
584(13) 0.00608 594.5 1.5
609(13) 0.00549 594.4 1.5
594(13) 0.00594 594.2 1.5
579(12) 0.00641 594.0 1.4
607(13) 0.00597 593.8 1.4
560(13) 0.00624 593.7 1.4
592(13) 0.00570 593.5 1.3
588(13) 0.00583 593.3 1.3
554(12) 0.00671 593.1 1.3
604(13) 0.00589 593.0 1.3
613(13) 0.00564 592.8 1.2
608(13) 0.00562 592.6 1.2
600(13) 0.00579 592.5 1.2
579(12) 0.00644 592.3 1.2
592(13) 0.00590 592.1 1.1
618(14) 0.00546 591.9 1.1
608(13) 0.00560 591.8 1.1
577(13) 0.00617 591.6 1.1
576(12) 0.00644 591.4 1.1
601(13) 0.00579 591.2 1.0
604(13) 0.00550 591.1 1.0
568(13) 0.00610 591.0 1.0
576(13) 0.00622 591.0 1.0
622(13) 0.00600 591.0 1.0
606(13) 0.00575 590.9 0.9
576(13) 0.00575 590.9 0.9
588(13) 0.00577 590.9 0.9
625(13) 0.00588 590.9 0.9
612(13) 0.00609 590.9 0.9
617(13) 0.00562 590.9 0.9
625(14) 0.00518 590.9 0.9
605(13) 0.00576 590.9 0.8
576(13) 0.00638 590.8 0.8
586(13) 0.00634 590.8 0.8
603(13) 0.00567 590.8 0.8
592(13) 0.00555 590.8 0.8
598(13) 0.00564 590.8 0.8
545(12) 0.00678 590.8 0.8
594(13) 0.00616 590.8 0.0
588(13) 0.00612 590.8 0.0
609(14) 0.00537 590.8 0.0
573(13) 0.00619 590.7 0.0
586(12) 0.00641 590.7 0.0
600(13) 0.00614 590.7 0.0
607(13) 0.00580 590.7 0.0
608(14) 0.00539 590.7 0.0
585(13) 0.00611 590.7 0.0
607(13) 0.00618 590.7 0.0
577(13) 0.00627 590.7 0.0
605(13) 0.00568 590.7 0.0
584(13) 0.00564 590.6 0.0
560(13) 0.00633 590.6 0.0
593(13) 0.00630 590.6 0.0
623(13) 0.00575 590.6 0.0
608(13) 0.00578 590.6 0.0
592(13) 0.00568 590.6 0.0
573(13) 0.00602 590.6 0.0
592(13) 0.00629 590.6 0.0
618(13) 0.00569 590.6 0.0
601(13) 0.00558 590.5 0.0
546(12) 0.00641 590.5 0.0
561(13) 0.00634 590.5 0.0
595(13) 0.00618 590.5 0.0
633(13) 0.00561 590.5 0.0
595(13) 0.00583 590.5 0.0
615(13) 0.00557 590.5 0.0
548(12) 0.00654 590.5 0.0
581(12) 0.00641 590.4 0.0
589(13) 0.00587 590.4 0.0
596(13) 0.00571 590.4 0.0
611(13) 0.00554 590.4 0.0
577(13) 0.00631 590.4 0.0
549(12) 0.00676 590.4 0.0
583(13) 0.00599 590.4 0.0
552(13) 0.00610 590.4 0.0
561(13) 0.00620 590.4 0.0
577(13) 0.00630 590.3 0.0
594(13) 0.00625 590.3 0.0
565(13) 0.00621 590.3 0.0
591(13) 0.00568 590.3 0.0
608(13) 0.00565 590.3 0.0
595(13) 0.00609 590.3 0.0
591(13) 0.00621 590.3 0.0
594(13) 0.00576 590.3 0.0
561(13) 0.00582 590.3 0.0
605(13) 0.00559 590.2 0.0
555(12) 0.00672 590.2 0.0
578(13) 0.00634 590.2 0.0
555(13) 0.00626 590.2 0.0
571(13) 0.00552 590.2 0.0
587(13) 0.00591 590.2 0.0
604(13) 0.00615 590.2 0.0
592(13) 0.00619 590.2 0.0
589(13) 0.00587 590.2 0.0
556(13) 0.00590 590.1 0.0
575(13) 0.00595 590.1 0.0
566(12) 0.00664 590.1 0.0
598(13) 0.00603 590.1 0.0
605(13) 0.00574 590.1 0.0
583(13) 0.00563 590.1 0.0
564(13) 0.00616 590.1 0.0
615(13) 0.00604 590.1 0.0
610(13) 0.00601 590.1 0.0
610(13) 0.00573 590.0 0.0
588(13) 0.00572 590.0 0.0
593(13) 0.00568 590.0 0.0
581(13) 0.00638 590.0 0.0
590(13) 0.00606 590.0 0.0
576(13) 0.00597 590.0 0.0
564(13) 0.00602 590.0 0.0
556(12) 0.00642 590.0 0.0
567(12) 0.00658 589.9 0.0
576(13) 0.00626 589.9 0.0
550(13) 0.00630 589.9 0.0
595(13) 0.00571 589.9 0.0
576(13) 0.00613 589.9 0.0
548(12) 0.00677 589.9 0.0
597(13) 0.00591 589.9 0.0
551(13) 0.00627 589.9 0.0
583(13) 0.00608 589.9 0.0
572(13) 0.00638 589.8 0.0
561(12) 0.00665 589.8 0.0
615(13) 0.00566 589.8 0.0
636(14) 0.00520 589.8 0.0
593(13) 0.00600 589.8 0.0
609(13) 0.00593 589.8 0.0
572(12) 0.00655 589.8 0.0
597(13) 0.00582 589.8 0.0
606(13) 0.00561 589.8 0.0
605(13) 0.00577 589.7 0.0
570(13) 0.00633 589.7 0.0
593(13) 0.00631 589.7 0.0
598(13) 0.00582 589.7 0.0
593(14) 0.00546 589.7 0.0
594(13) 0.00587 589.7 0.0
620(13) 0.00594 589.7 0.0
565(12) 0.00653 589.7 0.0
581(13) 0.00609 589.7 0.0
579(13) 0.00572 589.6 0.0
597(13) 0.00583 589.6 0.0
542(12) 0.00680 589.6 0.0
610(13) 0.00609 589.6 0.0
598(13) 0.00578 589.6 0.0
550(13) 0.00582 589.6 0.0
565(13) 0.00616 589.6 0.0
594(13) 0.00617 589.6 0.0
563(12) 0.00655 589.5 0.0
595(13) 0.00570 589.5 0.0
603(14) 0.00534 589.5 0.0
567(13) 0.00611 589.5 0.0
590(13) 0.00635 589.5 0.0
600(13) 0.00602 589.5 0.0
564(13) 0.00630 589.5 0.0
572(13) 0.00591 589.5 0.0
576(13) 0.00601 589.5 0.0
615(13) 0.00597 589.4 0.0
571(13) 0.00638 589.4 0.0
561(13) 0.00602 589.4 0.0
563(13) 0.00605 589.4 0.0
606(13) 0.00565 589.4 0.0
602(13) 0.00615 589.4 0.0
588(13) 0.00619 589.4 0.0
566(13) 0.00595 589.4 0.0
571(13) 0.00591 589.4 0.0
620(14) 0.00547 589.3 0.0
597(13) 0.00624 589.3 0.0
610(13) 0.00576 589.3 0.0
599(13) 0.00566 589.3 0.0
585(13) 0.00591 589.3 0.0
562(12) 0.00648 589.3 0.0
582(12) 0.00641 589.3 0.0
564(13) 0.00601 589.3 0.0
599(14) 0.00546 589.3 0.0
592(13) 0.00574 589.2 0.0
570(12) 0.00642 589.2 0.0
562(12) 0.00659 589.2 0.0
613(13) 0.00556 589.2 0.0
608(14) 0.00546 589.2 0.0
579(13) 0.00596 589.2 0.0
583(13) 0.00616 589.2 0.0
571(12) 0.00641 589.2 0.0
588(13) 0.00584 589.1 0.0
559(13) 0.00588 589.1 0.0
579(13) 0.00604 589.1 0.0
616(13) 0.00602 589.1 0.0
613(13) 0.00608 589.1 0.0
557(13) 0.00618 589.1 0.0
562(13) 0.00559 589.1 0.0
573(13) 0.00616 589.1 0.0
611(13) 0.00613 589.1 0.0
559(12) 0.00667 589.0 0.0
581(13) 0.00608 589.0 0.0
592(13) 0.00549 589.0 0.0
595(13) 0.00592 589.0 0.0
597(13) 0.00624 589.0 0.0
602(13) 0.00609 589.0 0.0
589(13) 0.00590 589.0 0.0
602(14) 0.00527 589.0 0.0
573(13) 0.00611 589.0 0.0
594(13) 0.00625 588.9 0.0
566(12) 0.00644 588.9 0.0
566(13) 0.00608 588.9 0.0
575(13) 0.00584 588.9 0.0
599(13) 0.00571 588.9 0.0
566(12) 0.00658 588.9 0.0
549(12) 0.00656 588.9 0.0
581(13) 0.00597 588.9 0.0
538(12) 0.00654 588.9 0.0
597(13) 0.00568 588.8 0.0
592(13) 0.00630 588.8 0.0
572(13) 0.00623 588.8 0.0
555(13) 0.00639 588.8 0.0
582(13) 0.00602 588.8 0.0
607(13) 0.00599 588.8 0.0
584(13) 0.00632 588.8 0.0
578(13) 0.00615 588.8 0.0
593(13) 0.00593 588.7 0.0
603(13) 0.00565 588.7 0.0
574(13) 0.00624 588.7 0.0
577(12) 0.00644 588.7 0.0
591(13) 0.00585 588.7 0.0
587(13) 0.00577 588.7 0.0
581(13) 0.00582 588.7 0.0
563(12) 0.00643 588.7 0.0
605(13) 0.00613 588.7 0.0
590(13) 0.00595 588.6 0.0
569(13) 0.00594 588.6 0.0
584(13) 0.00595 588.6 0.0
589(13) 0.00621 588.6 0.0
586(13) 0.00635 588.6 0.0
590(13) 0.00585 588.6 0.0
577(13) 0.00579 588.6 0.0
584(13) 0.00597 588.6 0.0
568(12) 0.00650 588.6 0.0
590(13) 0.00626 588.5 0.0
588(13) 0.00591 588.5 0.0
608(14) 0.00536 588.5 0.0
561(12) 0.00643 588.5 0.0
577(12) 0.00643 588.5 0.0
608(13) 0.00601 588.5 0.0
583(13) 0.00602 588.5 0.0
600(14) 0.00530 588.5 0.0
559(13) 0.00632 588.5 0.0
563(12) 0.00669 588.4 0.0
594(13) 0.00610 588.4 0.0
552(13) 0.00636 588.4 0.0
595(14) 0.00547 588.4 0.0
594(13) 0.00572 588.4 0.0
595(13) 0.00625 588.4 0.0
555(12) 0.00645 588.4 0.0
603(13) 0.00560 588.4 0.0
569(13) 0.00587 588.3 0.0
573(13) 0.00612 588.3 0.0
554(12) 0.00666 588.3 0.0
601(13) 0.00604 588.3 0.0
593(13) 0.00571 588.3 0.0
588(13) 0.00576 588.4 0.0
577(13) 0.00609 588.4 0.0
547(12) 0.00683 588.4 0.0
574(13) 0.00627 588.5 0.0
596(13) 0.00589 588.5 0.0
619(13) 0.00558 588.5 0.0
594(13) 0.00601 588.6 0.0
595(13) 0.00628 588.6 0.0
596(13) 0.00598 588.7 0.0
602(13) 0.00553 588.7 0.0
567(13) 0.00597 588.7 0.0
560(13) 0.00617 588.8 0.0
584(13) 0.00636 588.8 0.0
607(13) 0.00571 588.8 0.0
603(13) 0.00564 588.9 0.0
568(13) 0.00609 588.9 0.0
572(13) 0.00627 588.9 0.0
605(13) 0.00614 589.0 0.0
561(13) 0.00615 589.0 0.0
573(13) 0.00587 589.0 0.0
589(13) 0.00585 589.1 0.0
591(13) 0.00618 589.1 0.0
600(13) 0.00617 589.2 0.0
568(13) 0.00621 589.2 0.0
594(14) 0.00538 589.2 0.0
609(13) 0.00553 589.3 0.0
587(13) 0.00626 589.3 0.0
593(13) 0.00624 589.3 0.0
570(13) 0.00604 589.4 0.0
593(14) 0.00546 589.4 0.0
610(13) 0.00576 589.4 0.0
597(13) 0.00618 589.5 0.0
576(12) 0.00642 589.5 0.0
599(13) 0.00567 589.6 0.0
576(13) 0.00550 589.6 0.0
558(13) 0.00629 589.6 0.0
579(12) 0.00647 589.7 0.0
599(13) 0.00611 589.7 0.0
605(13) 0.00588 589.7 0.0
597(13) 0.00558 589.8 0.0
563(13) 0.00632 589.8 0.0
563(12) 0.00661 589.8 0.0
556(12) 0.00656 589.9 0.0
577(13) 0.00594 589.9 0.0
585(13) 0.00550 589.9 0.0
567(13) 0.00605 590.0 0.0
588(13) 0.00632 590.0 0.0
584(13) 0.00626 590.1 0.0
607(13) 0.00569 590.1 0.0
587(13) 0.00577 590.1 0.0
565(13) 0.00607 590.2 0.0
580(13) 0.00639 590.2 0.0
557(12) 0.00642 590.2 0.0
586(13) 0.00580 590.3 0.0
630(14) 0.00512 590.3 0.0
627(13) 0.00566 590.3 0.0
595(13) 0.00629 590.4 0.0
587(13) 0.00608 590.4 0.0
592(13) 0.00574 590.5 0.0
547(12) 0.00655 590.5 0.0
582(13) 0.00606 590.5 0.0
579(12) 0.00647 590.6 0.0
617(13) 0.00558 590.6 0.0
571(13) 0.00600 590.6 0.0
601(13) 0.00567 590.7 0.0
588(13) 0.00623 590.7 0.0
616(13) 0.00605 590.7 0.0
555(13) 0.00616 590.8 0.0
559(13) 0.00606 590.8 0.0
583(13) 0.00593 590.8 0.0
600(13) 0.00605 590.9 0.0
596(13) 0.00621 590.9 0.0
596(13) 0.00586 591.0 0.0
605(14) 0.00546 591.0 0.0
569(13) 0.00616 591.0 0.0
575(13) 0.00639 591.1 0.0
591(13) 0.00638 591.1 0.0
602(13) 0.00572 591.1 0.0
585(13) 0.00556 591.2 0.0
567(13) 0.00621 591.2 0.0
591(13) 0.00615 591.2 0.0
588(13) 0.00635 591.3 0.0
592(13) 0.00594 591.3 0.0
604(14) 0.00531 591.3 0.0
587(13) 0.00582 591.4 0.0
587(13) 0.00629 591.4 0.0
583(13) 0.00624 591.5 0.0
574(13) 0.00617 591.5 0.0
591(14) 0.00548 591.5 0.0
596(13) 0.00580 591.6 0.0
577(12) 0.00651 591.6 0.0
584(13) 0.00622 591.6 0.0
574(13) 0.00602 591.7 0.0
568(13) 0.00579 591.7 0.0
582(13) 0.00594 591.7 0.0
595(13) 0.00617 591.8 0.0
590(13) 0.00626 591.8 0.0
575(13) 0.00594 591.9 0.0
579(13) 0.00562 591.9 0.0
561(13) 0.00618 591.9 0.0
593(13) 0.00621 592.0 0.0
601(13) 0.00603 592.0 0.0
601(13) 0.00589 592.0 0.0
596(13) 0.00578 592.1 0.0
603(13) 0.00590 592.1 0.0
598(13) 0.00623 592.1 0.0
571(13) 0.00640 592.2 0.0
588(13) 0.00585 592.2 0.0
576(13) 0.00593 592.2 0.0
598(13) 0.00582 592.3 0.0
585(13) 0.00637 592.3 0.0
604(13) 0.00586 592.4 0.0
609(14) 0.00546 592.4 0.0
601(13) 0.00570 592.4 0.0
596(13) 0.00615 592.5 0.0
606(13) 0.00617 592.5 0.0
614(13) 0.00574 592.5 0.0
584(13) 0.00582 592.6 0.0
591(13) 0.00585 592.6 0.0
597(13) 0.00609 592.6 0.0
596(13) 0.00625 592.7 0.0
600(13) 0.00586 592.7 0.0
578(13) 0.00582 592.8 0.0
577(13) 0.00599 592.8 0.0
572(13) 0.00640 592.8 0.0
556(12) 0.00667 592.9 0.0
577(13) 0.00605 592.9 0.0
574(13) 0.00576 592.9 0.0
575(13) 0.00600 593.0 0.0
586(13) 0.00638 593.0 0.0
611(13) 0.00611 593.0 0.0
592(13) 0.00613 593.1 0.0
622(14) 0.00518 593.1 0.0
599(13) 0.00578 593.1 0.0
570(12) 0.00654 593.2 0.0
564(12) 0.00660 593.2 0.0
586(13) 0.00608 593.3 0.0
616(14) 0.00522 593.3 0.0
589(13) 0.00594 593.3 0.0
607(13) 0.00612 593.4 0.0
603(13) 0.00614 593.4 0.0
578(13) 0.00599 593.4 0.0
571(13) 0.00574 593.5 0.0
584(13) 0.00594 593.5 0.0
609(13) 0.00594 593.5 0.0
613(13) 0.00590 593.6 0.0
611(13) 0.00566 593.6 0.0
612(14) 0.00524 593.7 0.0
574(13) 0.00610 593.7 0.0
632(13) 0.00590 593.7 0.0
610(13) 0.00603 593.8 0.0
602(13) 0.00571 593.8 0.0
583(13) 0.00567 593.8 0.0
610(13) 0.00566 593.9 0.0
601(13) 0.00622 593.9 0.0
585(13) 0.00605 593.9 0.0
623(13) 0.00561 594.0 0.0
623(13) 0.00549 594.0 0.0
599(13) 0.00591 594.0 0.0
602(13) 0.00619 594.1 0.0
594(13) 0.00588 594.1 0.0
615(14) 0.00540 594.2 0.0
599(13) 0.00568 594.2 0.0
584(13) 0.00604 594.2 0.0
621(13) 0.00599 594.3 0.0
580(13) 0.00604 594.3 0.0
588(13) 0.00584 594.3 0.0
605(13) 0.00549 594.4 0.0
584(13) 0.00614 594.4 0.0
591(13) 0.00627 594.4 0.0
582(13) 0.00601 594.5 0.0
603(13) 0.00563 594.5 0.0
596(13) 0.00593 594.6 0.0
605(13) 0.00598 594.6 0.0
590(13) 0.00629 594.6 0.1
610(13) 0.00579 594.7 0.1
583(13) 0.00563 594.7 0.1
586(13) 0.00599 594.7 0.1
569(12) 0.00644 594.8 0.1
589(13) 0.00635 594.8 0.1
602(13) 0.00578 594.8 0.1
593(14) 0.00549 594.9 0.1
573(13) 0.00610 594.9 0.1
598(13) 0.00618 594.9 0.1
633(13) 0.00584 595.0 0.1
624(13) 0.00556 595.0 0.1
594(14) 0.00543 595.1 0.1
602(13) 0.00572 595.1 0.1
577(13) 0.00639 595.1 0.1
604(13) 0.00610 595.2 0.1
584(13) 0.00598 595.2 0.1
567(13) 0.00570 595.2 0.1
601(13) 0.00578 595.3 0.1
614(13) 0.00607 595.3 0.1
635(13) 0.00567 595.3 0.1
607(14) 0.00531 595.4 0.1
585(13) 0.00560 595.4 0.1
598(13) 0.00575 595.4 0.1
583(12) 0.00642 595.5 0.1
577(13) 0.00626 595.5 0.1
618(13) 0.00551 595.6 0.1
602(14) 0.00543 595.6 0.1
633(14) 0.00532 595.6 0.1
616(13) 0.00602 595.7 0.1
580(13) 0.00595 595.7 0.1
588(13) 0.00580 595.7 0.1
623(14) 0.00532 595.8 0.1
573(13) 0.00617 595.8 0.1
599(13) 0.00621 595.8 0.2
613(13) 0.00553 595.9 0.2
567(13) 0.00602 595.9 0.2
579(13) 0.00588 596.0 0.2
580(13) 0.00615 596.0 0.2
568(12) 0.00653 596.0 0.2
598(13) 0.00578 596.1 0.2
591(13) 0.00577 596.1 0.2
615(13) 0.00562 596.1 0.2
584(13) 0.00620 596.2 0.2
585(13) 0.00629 596.2 0.3
566(13) 0.00622 596.2 0.3
586(13) 0.00577 596.3 0.3
589(13) 0.00591 596.3 0.3
599(13) 0.00603 596.3 0.3
591(13) 0.00625 596.4 0.4
559(13) 0.00604 596.4 0.4
590(13) 0.00559 596.5 0.4
558(13) 0.00628 596.5 0.5
592(13) 0.00606 596.5 0.5
622(13) 0.00600 596.6 0.6
639(14) 0.00532 596.6 0.6
593(13) 0.00561 596.6 0.7
618(13) 0.00564 596.7 0.8
597(13) 0.00621 596.7 0.9
624(13) 0.00588 596.7 1.0
608(13) 0.00575 596.8 1.1
559(13) 0.00599 596.8 1.3
567(13) 0.00615 596.9 1.5
593(13) 0.00626 596.9 1.6
621(13) 0.00591 596.9 1.8
610(13) 0.00565 597.0 2.0
604(14) 0.00541 597.0 2.3
606(13) 0.00574 597.0 2.5
626(13) 0.00594 597.1 2.8
580(13) 0.00629 597.1 3.0
601(13) 0.00572 597.1 3.3
581(13) 0.00580 597.2 3.5
617(13) 0.00559 597.2 3.7
607(13) 0.00614 597.2 3.9
603(13) 0.00601 597.3 4.1
589(13) 0.00601 597.3 4.2
586(13) 0.00573 597.4 4.3
586(13) 0.00594 597.4 4.2
629(13) 0.00587 597.4 4.2
595(13) 0.00599 597.5 4.1
612(13) 0.00563 597.5 3.9
604(13) 0.00563 597.5 3.7
609(13) 0.00572 597.6 3.4
614(13) 0.00604 597.6 3.2
580(13) 0.00615 597.6 2.9
613(13) 0.00554 597.8 2.7
593(13) 0.00578 598.1 2.4
636(13) 0.00558 598.3 2.2
601(13) 0.00619 598.5 2.0
602(13) 0.00572 598.8 1.8
620(14) 0.00547 599.0 1.6
602(13) 0.00571 599.2 1.4
625(13) 0.00586 599.5 1.3
633(13) 0.00585 599.7 1.1
613(13) 0.00574 599.9 1.0
609(14) 0.00542 600.1 0.9
581(13) 0.00588 600.4 0.8
627(13) 0.00567 600.6 0.7
602(13) 0.00620 600.8 0.6
616(13) 0.00565 601.1 0.6
623(14) 0.00534 601.3 0.5
632(14) 0.00540 601.5 0.5
628(13) 0.00586 601.7 0.4
581(12) 0.00644 602.0 0.4
620(13) 0.00560 602.2 0.4
570(13) 0.00578 602.4 0.3
606(13) 0.00566 602.7 0.3
570(12) 0.00657 602.9 0.3
560(12) 0.00658 603.1 0.3
584(13) 0.00592 603.4 0.3
623(14) 0.00502 603.6 0.2
598(13) 0.00584 603.8 0.2
600(13) 0.00622 604.0 0.2
609(13) 0.00611 604.3 0.2
588(13) 0.00585 604.5 0.2
612(14) 0.00526 604.7 0.2
609(13) 0.00560 605.0 0.2
597(13) 0.00619 605.2 0.2
605(13) 0.00612 605.4 0.2
602(13) 0.00588 605.7 0.2
639(14) 0.00504 605.9 0.1
571(13) 0.00627 606.1 0.1
604(13) 0.00617 606.3 0.1
566(13) 0.00637 606.6 0.1
584(13) 0.00608 606.8 0.1
601(13) 0.00556 607.0 0.1
599(13) 0.00575 607.3 0.1
595(13) 0.00630 607.5 0.1
637(13) 0.00566 607.7 0.1
608(13) 0.00576 608.0 0.1
597(13) 0.00580 608.2 0.1
601(13) 0.00588 608.4 0.1
608(13) 0.00613 608.6 0.1
588(13) 0.00604 608.9 0.1
596(13) 0.00573 609.1 0.1
601(13) 0.00579 609.3 0.1
612(13) 0.00565 609.6 0.1
578(12) 0.00646 609.8 0.1
613(13) 0.00563 610.0 0.1
586(13) 0.00590 610.3 0.1
599(13) 0.00560 610.5 0.1
567(12) 0.00641 610.7 0.1
599(13) 0.00622 610.9 0.1
601(13) 0.00578 611.2 0.1
618(14) 0.00532 611.4 0.1
604(13) 0.00582 611.6 0.1
616(13) 0.00587 611.9 0.1
611(13) 0.00604 612.1 0.1
616(13) 0.00549 612.3 0.1
586(13) 0.00589 612.6 0.1
619(13) 0.00549 612.8 0.1
623(13) 0.00585 613.0 0.1
637(13) 0.00578 613.2 0.1
602(13) 0.00575 613.5 0.0
589(13) 0.00552 613.7 0.0
607(13) 0.00577 613.9 0.0
637(13) 0.00575 614.2 0.0
603(13) 0.00608 614.4 0.0
625(13) 0.00552 614.6 0.0
605(14) 0.00538 614.9 0.0
589(13) 0.00585 615.1 6.6
614(13) 0.00596 615.3 6.7
608(13) 0.00608 615.5 6.8
596(13) 0.00589 615.8 6.9
603(14) 0.00526 616.0 7.0
618(13) 0.00557 616.2 7.1
652(13) 0.00562 616.5 7.3
591(13) 0.00626 616.7 7.4
581(13) 0.00608 616.9 7.5
595(13) 0.00551 617.1 7.6
609(13) 0.00575 617.4 7.8
635(13) 0.00579 617.6 7.9
576(12) 0.00643 617.8 8.0
604(13) 0.00575 618.1 8.2
590(13) 0.00558 618.3 8.3
599(13) 0.00586 618.5 8.5
618(13) 0.00606 618.8 8.6
603(13) 0.00597 619.0 8.8
639(14) 0.00535 619.2 8.9
629(14) 0.00542 619.4 9.1
584(13) 0.00608 619.7 9.3
604(13) 0.00613 619.9 9.5
620(13) 0.00591 620.1 9.6
621(13) 0.00562 620.4 9.8
629(14) 0.00534 620.6 10.0
606(13) 0.00578 620.8 10.2
605(13) 0.00617 621.1 10.4
620(13) 0.00550 621.3 10.6
610(13) 0.00565 621.5 10.9
633(13) 0.00553 621.7 11.1
621(13) 0.00570 622.0 11.3
578(13) 0.00639 622.2 11.6
633(13) 0.00556 622.4 11.8
625(14) 0.00535 622.7 12.1
619(13) 0.00560 622.9 12.3
639(13) 0.00571 623.1 12.6
618(13) 0.00600 623.4 12.9
601(13) 0.00572 623.6 13.2
599(13) 0.00549 623.8 13.5
604(13) 0.00572 624.0 13.8
635(13) 0.00562 624.3 14.1
609(13) 0.00616 624.5 14.4
626(13) 0.00550 624.7 14.8
619(14) 0.00523 625.0 15.1
603(13) 0.00575 625.2 15.5
646(13) 0.00568 625.4 15.9
633(13) 0.00577 625.7 16.3
633(14) 0.00539 625.9 16.7
634(14) 0.00523 626.1 17.1
599(13) 0.00582 626.3 17.6
620(13) 0.00593 626.6 18.0
653(13) 0.00571 626.8 18.5
614(13) 0.00567 627.0 19.0
604(14) 0.00534 627.3 19.5
628(13) 0.00556 627.5 20.1
620(13) 0.00601 627.7 20.7
629(13) 0.00589 628.0 21.2
628(13) 0.00555 628.2 21.9
625(14) 0.00521 628.4 22.5
640(14) 0.00536 628.6 23.2
603(13) 0.00614 628.9 23.9
592(13) 0.00613 629.1 24.6
672(14) 0.00511 629.3 25.4
610(13) 0.00566 629.6 26.2
629(14) 0.00545 629.8 27.1
623(13) 0.00599 630.0 28.0
641(13) 0.00555 630.3 28.9
593(13) 0.00598 630.5 29.9
625(14) 0.00533 630.7 30.9
670(14) 0.00516 630.9 32.0
639(13) 0.00579 631.2 33.2
630(13) 0.00569 631.4 34.4
615(13) 0.00560 631.6 35.7
629(13) 0.00551 631.9 37.0
660(14) 0.00518 632.1 38.4
636(13) 0.00587 632.3 40.0
643(13) 0.00549 632.5 41.6
638(14) 0.00531 632.8 43.3
623(13) 0.00562 633.0 45.1
667(14) 0.00535 633.2 47.0
635(13) 0.00584 633.5 49.1
609(13) 0.00574 633.7 51.3
626(14) 0.00538 633.9 53.6
648(14) 0.00531 634.2 56.1
664(14) 0.00519 634.4 58.8
641(13) 0.00579 634.6 61.7
649(14) 0.00531 634.8 64.8
667(14) 0.00497 635.1 68.1
641(14) 0.00543 635.3 71.7
643(13) 0.00561 635.5 75.6
626(13) 0.00593 635.8 79.9
623(13) 0.00568 636.0 84.4
678(14) 0.00484 636.2 89.4
659(14) 0.00526 636.5 94.9
637(13) 0.00573 636.7 100.8
687(14) 0.00537 636.9 107.3
691(14) 0.00485 637.1 114.5
665(14) 0.00483 637.4 122.4
676(14) 0.00510 637.6 131.1
675(13) 0.00552 637.8 140.9
680(14) 0.00545 638.1 151.7
678(14) 0.00517 638.3 163.8
749(15) 0.00431 638.5 177.3
758(15) 0.00464 638.8 192.6
731(14) 0.00506 639.0 210.0
780(15) 0.00471 639.2 229.8
791(15) 0.00441 639.4 252.4
799(16) 0.00407 639.7 278.5
849(16) 0.00404 639.9 308.9
872(15) 0.00426 640.1 344.6
934(16) 0.00393 640.4 387.1
960(17) 0.00356 640.6 438.9
1061(18) 0.003120 640.8 504.1
1210(19) 0.002839 641.1 589.7
1447(20) 0.002552 641.3 707.7
1746(22) 0.002097 641.5 877.1
2218(25) 0.001559 641.7 1126.5
2642(28) 0.001258 642.0 1495.0
3324(31) 0.001015 642.2 2028.7
4002(33) 0.000919 642.4 2774.8
4849(37) 0.000748 643. 3766.
5635(41) 0.000607 643. 5008.
6536(44) 0.000512 643. 6453.
7641(47) 0.000448 643. 7982.
9100(50) 0.000403 644. 9378.
10709(55) 0.0003287 644. 10331.
11730(59) 0.0002854 644. 10546.
11443(59) 0.0002914 644. 9944.
10035(53) 0.0003501 645. 8733.
7988(47) 0.000460 645. 7238.
6168(43) 0.000548 645. 5730.
4613(37) 0.000730 645. 4374.
3558(32) 0.000973 645.4 3251.8
2801(28) 0.001294 645.7 2382.6
2363(25) 0.001564 645.9 1745.1
1908(23) 0.001812 646.1 1298.0
1689(22) 0.002006 646.3 992.9
1512(21) 0.002285 646.6 786.6
1297(19) 0.002794 646.8 645.3
1229(18) 0.003017 647.0 544.9
1130(18) 0.003000 647.3 470.3
1067(18) 0.003073 647.5 412.3
984(17) 0.00356 647.7 365.4
983(16) 0.00371 647.9 326.5
920(16) 0.00397 648.2 293.5
870(16) 0.00405 648.4 265.3
860(16) 0.00383 648.6 241.0
813(15) 0.00433 648.9 219.8
769(14) 0.00483 649.1 201.3
809(15) 0.00456 649.3 184.9
780(15) 0.00454 649.6 170.5
790(16) 0.00398 649.8 157.7
748(15) 0.00466 650.0 146.2
766(14) 0.00482 650.2 136.0
743(14) 0.00494 650.5 126.8
726(14) 0.00487 650.7 118.5
734(15) 0.00444 650.9 110.9
686(14) 0.00522 651.2 104.1
732(14) 0.00507 651.4 97.9
722(14) 0.00516 651.6 92.2
728(15) 0.00475 651.9 86.9
686(14) 0.00486 652.1 82.2
743(15) 0.00451 652.3 77.8
710(14) 0.00523 652.5 73.7
688(14) 0.00528 652.8 70.0
674(14) 0.00526 653.0 66.5
684(14) 0.00500 653.2 63.3
680(14) 0.00522 653.5 60.3
678(13) 0.00549 653.7 57.5
656(14) 0.00524 653.9 54.9
627(14) 0.00545 654.2 52.5
644(14) 0.00515 654.4 50.2
673(14) 0.00518 654.6 48.1
654(13) 0.00571 654.8 46.1
665(14) 0.00535 655.1 44.2
660(14) 0.00520 655.3 42.4
637(14) 0.00541 655.5 40.8
663(14) 0.00527 655.8 39.2
660(13) 0.00564 656.0 37.7
678(14) 0.00512 656.2 36.3
629(14) 0.00543 656.5 35.0
683(14) 0.00496 656.7 33.8
677(14) 0.00521 656.9 32.6
656(13) 0.00566 657.1 31.5
646(13) 0.00549 657.4 30.4
673(14) 0.00500 657.6 29.4
672(14) 0.00521 657.8 28.4
668(14) 0.00536 658.1 27.5
658(13) 0.00563 658.3 26.6
665(14) 0.00526 658.5 25.8
675(14) 0.00496 658.8 25.0
655(14) 0.00537 659.0 24.3
676(14) 0.00533 659.2 23.5
679(14) 0.00543 659.4 22.8
653(14) 0.00520 659.7 22.2
649(14) 0.00506 659.9 21.6
651(14) 0.00539 660.1 20.9
631(13) 0.00574 660.4 20.4
665(13) 0.00557 660.6 19.8
676(14) 0.00517 660.8 19.3
659(14) 0.00494 661.1 18.8
672(14) 0.00515 661.3 18.3
649(13) 0.00566 661.5 17.8
656(13) 0.00566 661.7 17.3
662(14) 0.00533 662.0 16.9
687(15) 0.00464 662.2 16.5
666(14) 0.00523 662.4 16.1
657(13) 0.00562 662.7 15.7
659(13) 0.00563 662.9 15.3
674(14) 0.00518 663.1 14.9
660(14) 0.00508 663.3 14.6
667(14) 0.00526 663.6 14.2
637(13) 0.00580 663.8 13.9
625(13) 0.00586 664.0 13.6
653(14) 0.00537 664.3 13.3
635(14) 0.00531 664.5 13.0
657(14) 0.00518 664.7 12.7
623(13) 0.00594 665.0 12.4
661(13) 0.00554 665.2 12.2
694(14) 0.00492 665.4 11.9
638(14) 0.00526 665.6 11.7
667(14) 0.00522 665.9 11.4
651(13) 0.00573 666.1 11.2
674(14) 0.00532 666.3 10.9
663(14) 0.00522 666.6 10.7
695(14) 0.00486 666.8 10.5
671(14) 0.00527 667.0 10.3
686(14) 0.00544 667.3 10.1
657(14) 0.00525 667.5 9.9
644(14) 0.00524 667.7 9.7
633(14) 0.00538 667.9 9.5
666(14) 0.00528 668.2 9.3
672(13) 0.00549 668.4 9.2
662(14) 0.00527 668.6 9.0
643(14) 0.00533 668.9 8.8
658(14) 0.00536 669.1 8.7
656(13) 0.00551 669.3 8.5
689(14) 0.00538 669.6 8.4
687(14) 0.00497 669.8 8.2
653(14) 0.00520 670.0 8.1
678(14) 0.00515 670.2 7.9
659(14) 0.00542 670.5 7.8
652(13) 0.00573 670.7 7.7
668(14) 0.00518 670.9 7.5
648(14) 0.00511 671.2 7.4
645(14) 0.00537 671.4 7.3
710(14) 0.00503 671.6 7.2
654(13) 0.00568 671.9 7.0
665(14) 0.00514 672.1 6.9
649(14) 0.00508 672.3 6.8
657(14) 0.00533 672.5 6.7
646(13) 0.00568 672.8 6.6
690(14) 0.00534 673.0 0.0
656(14) 0.00520 673.2 0.0
669(14) 0.00486 673.5 0.0
677(14) 0.00523 673.7 0.0
672(13) 0.00551 673.9 0.0
647(13) 0.00573 674.2 0.0
668(14) 0.00512 674.4 0.0
672(14) 0.00491 674.6 0.0
699(14) 0.00500 674.8 0.0
681(14) 0.00543 675.1 0.0
656(13) 0.00564 675.3 0.0
657(14) 0.00528 675.5 0.0
689(14) 0.00480 675.8 0.0
652(14) 0.00542 676.0 0.0
670(13) 0.00558 676.2 0.0
622(13) 0.00585 676.5 0.0
627(13) 0.00563 676.7 0.0
696(14) 0.00477 676.9 0.0
664(14) 0.00522 677.1 0.0
644(13) 0.00576 677.4 0.0
679(14) 0.00533 677.6 0.0
679(14) 0.00516 677.8 0.0
708(15) 0.00474 678.1 0.0
670(14) 0.00517 678.3 0.0
697(14) 0.00533 678.5 0.0
661(14) 0.00538 678.7 0.0
685(14) 0.00513 679.0 0.0
725(15) 0.00475 679.2 0.0
688(14) 0.00514 679.4 0.0
711(14) 0.00522 679.7 0.0
677(14) 0.00515 679.9 0.0
664(14) 0.00515 680.1 0.0
690(14) 0.00497 680.4 0.0
651(13) 0.00555 680.6 0.0
683(14) 0.00543 680.8 0.0
666(14) 0.00518 681.0 0.0
660(14) 0.00506 681.3 0.0
717(15) 0.00468 681.5 0.0
672(14) 0.00538 681.7 0.0
662(13) 0.00560 682.0 0.0
682(14) 0.00505 682.2 0.0
700(15) 0.00459 682.4 0.0
665(14) 0.00529 682.7 0.0
680(14) 0.00541 682.9 0.0
713(14) 0.00523 683.1 0.0
672(14) 0.00523 683.3 0.0
665(14) 0.00492 683.6 0.0
729(15) 0.00462 683.8 0.0
661(13) 0.00567 684.0 0.0
673(13) 0.00551 684.3 0.0
708(14) 0.00484 684.5 0.0
677(14) 0.00487 684.7 0.0
680(14) 0.00503 685.0 0.0
664(13) 0.00559 685.2 0.0
701(14) 0.00526 685.4 0.0
657(14) 0.00543 685.6 0.0
704(15) 0.00463 685.9 0.0
703(14) 0.00497 686.1 0.0
684(14) 0.00540 686.3 0.0
733(14) 0.00494 686.6 0.0
713(14) 0.00481 686.8 0.0
681(14) 0.00489 687.0 0.0
664(14) 0.00519 687.3 0.0
655(13) 0.00570 687.5 0.0
692(14) 0.00529 687.7 0.0
676(14) 0.00511 687.9 0.0
703(14) 0.00481 688.2 0.0
672(14) 0.00519 688.4 0.0
676(13) 0.00552 688.6 0.0
712(14) 0.00507 688.9 0.0
691(14) 0.00507 689.1 0.0
690(14) 0.00492 689.3 0.0
651(14) 0.00531 689.6 0.0
687(14) 0.00542 689.8 0.0
657(14) 0.00539 690.0 0.0
692(14) 0.00488 690.2 0.0
687(14) 0.00483 690.5 0.0
731(15) 0.00473 690.7 0.0
732(14) 0.00505 690.9 0.0
694(14) 0.00504 691.2 0.0
667(14) 0.00506 691.4 0.0
667(14) 0.00517 691.6 0.0
697(14) 0.00510 692.1 0.0
684(14) 0.00545 692.7 0.0
686(14) 0.00513 693.2 0.0
685(14) 0.00488 693.7 0.0
687(14) 0.00510 694.3 0.0
714(14) 0.00498 694.8 0.0
693(14) 0.00539 695.4 0.0
704(14) 0.00491 695.9 0.0
733(15) 0.00459 696.5 0.0
708(14) 0.00497 697.0 0.0
753(14) 0.00481 697.5 0.0
709(14) 0.00524 698.1 0.0
685(14) 0.00505 698.6 0.0
685(14) 0.00481 699.2 0.0
700(14) 0.00497 699.7 0.0
715(14) 0.00517 700.2 0.0
684(14) 0.00543 700.8 0.0
685(14) 0.00501 701.3 0.0
684(14) 0.00484 701.9 0.0
735(14) 0.00477 702.4 0.0
707(14) 0.00525 703.0 0.0
714(14) 0.00516 703.5 0.0
712(14) 0.00487 704.0 0.0
737(15) 0.00431 704.6 0.0
701(14) 0.00496 705.1 0.0
685(14) 0.00541 705.7 0.0
715(14) 0.00506 706.2 0.0
719(14) 0.00477 706.8 0.0
686(15) 0.00474 707.3 0.0
669(14) 0.00519 707.8 0.0
715(14) 0.00520 708.4 0.0
729(14) 0.00501 708.9 0.0
723(14) 0.00479 709.5 0.0
721(15) 0.00453 710.0 0.0
660(14) 0.00534 710.6 0.0
757(14) 0.00488 711.1 0.0
706(14) 0.00517 711.6 0.0
718(14) 0.00483 712.2 0.0
719(15) 0.00466 712.7 0.0
726(15) 0.00468 713.3 0.0
695(14) 0.00534 713.8 0.0
720(14) 0.00502 714.4 0.0
728(14) 0.00481 714.9 9.3
729(15) 0.00457 715.4 9.4
678(14) 0.00514 716.0 9.5
718(14) 0.00521 716.5 9.6
686(14) 0.00511 717.1 9.7
700(14) 0.00485 717.6 9.8
709(14) 0.00494 718.2 9.9
725(14) 0.00501 718.7 10.0
692(14) 0.00540 719.2 10.2
712(14) 0.00482 719.8 10.3
748(15) 0.00453 720.3 10.4
731(15) 0.00473 720.9 10.5
727(14) 0.00488 721.4 10.7
710(14) 0.00527 721.9 10.8
723(14) 0.00476 722.5 10.9
707(15) 0.00469 723.0 11.1
706(14) 0.00500 723.6 11.2
695(14) 0.00518 724.1 11.3
720(14) 0.00516 724.7 11.5
703(14) 0.00490 725.2 11.6
715(15) 0.00458 725.7 11.8
695(14) 0.00493 726.3 12.4
702(14) 0.00524 726.8 12.5
745(14) 0.00494 727.4 12.7
715(14) 0.00479 727.9 12.9
704(15) 0.00455 728.5 13.1
732(15) 0.00473 729.0 13.2
756(14) 0.00490 729.5 13.4
715(14) 0.00516 730.1 13.6
696(14) 0.00505 730.6 13.8
712(15) 0.00444 731.2 14.0
739(15) 0.00473 731.7 14.2
735(14) 0.00508 732.3 14.4
727(14) 0.00504 732.8 14.6
717(14) 0.00477 733.3 14.8
713(15) 0.00445 733.9 15.0
706(14) 0.00485 734.4 15.2
752(14) 0.00491 735.0 15.4
706(14) 0.00514 735.5 15.7
727(14) 0.00476 736.1 15.9
752(15) 0.00433 736.6 16.1
724(14) 0.00477 737.1 16.4
730(14) 0.00508 737.7 16.6
773(15) 0.00475 738.2 16.9
733(15) 0.00474 738.8 17.1
736(15) 0.00450 739.3 17.4
755(15) 0.00449 739.9 17.7
757(14) 0.00492 740.4 17.9
691(14) 0.00526 740.9 18.2
744(15) 0.00469 741.5 18.5
744(15) 0.00459 742.0 18.8
742(14) 0.00477 742.6 19.1
739(14) 0.00501 743.1 19.4
734(14) 0.00478 743.6 19.8
740(15) 0.00457 744.2 20.1
736(15) 0.00457 744.7 20.4
749(15) 0.00469 745.3 20.8
734(14) 0.00504 745.8 21.1
750(15) 0.00468 746.4 21.5
737(15) 0.00463 746.9 21.9
737(15) 0.00459 747.4 22.2
739(14) 0.00492 748.0 22.6
738(14) 0.00505 748.5 23.0
737(15) 0.00471 749.1 23.5
754(15) 0.00431 749.6 23.9
735(15) 0.00450 750.2 24.3
746(14) 0.00488 750.7 24.8
774(14) 0.00478 751.2 25.2
763(15) 0.00453 751.8 25.7
731(15) 0.00444 752.3 26.2
757(15) 0.00449 752.9 26.7
777(15) 0.00472 753.4 27.2
731(14) 0.00510 754.0 27.8
704(14) 0.00497 754.5 28.3
742(15) 0.00446 755.0 28.9
754(15) 0.00475 755.6 29.5
753(14) 0.00490 756.1 30.1
741(14) 0.00501 756.7 30.7
752(15) 0.00457 757.2 31.3
728(15) 0.00439 757.8 32.0
723(15) 0.00474 758.3 32.7
760(14) 0.00488 758.8 33.4
751(14) 0.00492 759.4 34.1
758(15) 0.00464 759.9 34.8
758(15) 0.00432 760.5 35.6
781(15) 0.00444 761.0 36.4
777(14) 0.00479 761.6 37.2
722(14) 0.00502 762.1 38.1
779(15) 0.00439 762.6 39.0
770(15) 0.00434 763.2 39.9
753(15) 0.00473 763.7 40.9
746(14) 0.00495 764.3 41.9
811(15) 0.00446 764.8 42.9
771(15) 0.00446 765.3 43.9
795(15) 0.00420 765.9 45.0
787(15) 0.00429 766.4 46.2
804(15) 0.00457 767.0 47.4
777(15) 0.00469 767.5 48.6
814(15) 0.00418 768.1 49.9
804(16) 0.00415 768.6 51.2
782(15) 0.00453 769.1 52.6
799(15) 0.00465 769.7 54.1
776(15) 0.00454 770.2 55.6
793(15) 0.00433 770.8 57.2
822(16) 0.00416 771.3 58.9
782(15) 0.00447 771.9 60.6
790(15) 0.00471 772.4 62.4
770(15) 0.00460 772.9 64.3
784(15) 0.00429 773.5 66.2
798(15) 0.00418 774.0 68.3
830(15) 0.00422 774.6 70.5
835(15) 0.00449 775.1 72.8
818(15) 0.00426 775.7 75.2
794(15) 0.00431 776.2 77.7
796(15) 0.00436 776.7 80.3
786(15) 0.00463 777.3 83.1
806(15) 0.00462 777.8 86.1
818(16) 0.00415 778.4 89.2
821(16) 0.00399 778.9 92.5
817(15) 0.00431 779.5 96.0
857(15) 0.00427 780.0 99.7
843(15) 0.00438 780.5 103.6
822(15) 0.00418 781.1 107.8
812(16) 0.00403 781.6 112.2
852(16) 0.00399 782.2 117.0
825(15) 0.00451 782.7 122.1
831(15) 0.00435 783.3 127.5
827(16) 0.00408 783.8 133.4
865(17) 0.00367 784.3 139.7
873(16) 0.00395 784.9 146.5
865(15) 0.00425 785.4 154.0
887(16) 0.00407 786.0 162.1
903(16) 0.00387 786.5 171.0
921(17) 0.003448 787.0 180.9
939(17) 0.00365 787.6 192.0
966(16) 0.00381 788.1 204.8
981(16) 0.00369 788.7 220.0
961(17) 0.00357 789.2 238.7
976(17) 0.003319 789.8 262.5
1080(18) 0.003233 790.3 293.4
1089(17) 0.003359 790.8 334.1
1153(18) 0.003150 791.4 387.2
1253(19) 0.002724 791.9 455.1
1326(20) 0.002495 792.5 538.8
1422(20) 0.002427 793.0 637.2
1456(20) 0.002508 793.6 746.3
1578(21) 0.002264 794.1 857.6
1635(22) 0.002046 794.6 957.8
1731(23) 0.001936 795.2 1029.9
1849(23) 0.001847 795.7 1060.3
1924(23) 0.001923 796.3 1047.7
1856(23) 0.001904 796.8 1004.7
1686(22) 0.002040 797.4 949.4
1620(22) 0.002140 797.9 897.1
1498(21) 0.002302 798.4 858.6
1503(20) 0.002483 799.0 840.6
1530(21) 0.002303 799.5 847.2
1497(21) 0.002300 800.1 881.2
1618(22) 0.002119 800.6 945.0
1724(22) 0.002064 801.2 1042.2
1901(23) 0.001953 801.7 1178.2
2059(24) 0.001684 802.2 1361.1
2381(27) 0.001411 802.8 1601.1
2671(28) 0.001285 803.3 1911.3
3138(30) 0.001124 803.9 2305.3
3620(31) 0.001025 804.4 2797.5
4233(35) 0.000815 805.0 3399.7
5072(39) 0.000648 805. 4119.
6040(42) 0.000567 806. 4959.
7030(44) 0.000508 807. 5908.
8090(47) 0.000455 807. 6947.
9136(51) 0.000377 808. 8036.
10252(56) 0.0003159 808. 9113.
11327(58) 0.0003009 809. 10091.
12203(58) 0.0002959 809. 10860.
12548(59) 0.0002903 810. 11310.
12545(61) 0.0002724 810. 11363.
12033(62) 0.0002632 811. 11009.
11067(57) 0.0003094 811. 10310.
9873(52) 0.000372 812. 9373.
8786(49) 0.000414 813. 8310.
7699(47) 0.000447 813. 7215.
6769(46) 0.000476 814. 6158.
6006(42) 0.000581 814. 5181.
5169(37) 0.000716 815. 4310.
4498(35) 0.000810 815. 3557.
3993(34) 0.000856 815.8 2922.1
3479(33) 0.000938 816.3 2399.6
3088(30) 0.001129 816.9 1977.5
2800(27) 0.001326 817.4 1642.0
2524(26) 0.001427 818.0 1378.2
2353(26) 0.001469 818.5 1172.0
2211(26) 0.001487 819.1 1010.9
1934(24) 0.001808 819.6 884.1
1805(22) 0.002058 820.1 783.1
1736(22) 0.002085 820.7 701.4
1632(22) 0.002090 821.2 634.0
1560(22) 0.002162 821.8 577.4
1485(21) 0.002341 822.3 528.9
1345(19) 0.002759 822.9 487.0
1331(19) 0.002651 823.4 450.1
1318(20) 0.002603 823.9 417.4
1271(19) 0.002659 824.5 388.2
1201(18) 0.002923 825.0 362.0
1158(18) 0.003207 825.6 338.3
1139(18) 0.003140 826.1 316.9
1174(19) 0.002903 826.6 297.4
1134(18) 0.003003 827.2 279.7
1096(17) 0.003300 827.7 263.4
1080(17) 0.003464 828.3 248.6
1041(17) 0.003318 828.8 234.9
1137(19) 0.002897 829.4 222.3
1022(17) 0.003456 829.9 210.7
1049(17) 0.003448 830.4 200.0
1025(17) 0.00364 831.0 190.0
1065(18) 0.003166 831.5 180.8
974(17) 0.003447 832.1 172.2
952(17) 0.00361 832.6 164.3
981(16) 0.00369 833.2 156.8
946(16) 0.00390 833.7 149.9
1002(17) 0.003326 834.2 143.4
955(17) 0.003432 834.8 137.3
917(16) 0.00375 835.3 131.6
925(16) 0.00397 835.9 126.2
933(16) 0.00394 836.4 121.2
922(16) 0.00370 837.0 116.4
893(16) 0.00372 837.5 111.9
963(17) 0.00356 838.0 107.7
936(16) 0.00394 838.6 103.7
934(16) 0.00397 839.1 99.9
888(16) 0.00397 839.7 96.4
913(17) 0.00354 840.2 93.0
889(16) 0.00395 840.8 89.8
894(15) 0.00418 841.3 86.7
908(16) 0.00405 841.8 83.8
868(16) 0.00400 842.4 81.1
932(17) 0.00353 842.9 78.5
917(16) 0.00377 843.5 76.0
874(15) 0.00425 844.0 73.6
920(16) 0.00396 844.6 71.3
910(16) 0.00380 845.1 69.1
846(16) 0.00397 845.6 67.1
892(16) 0.00391 846.2 65.1
908(16) 0.00411 846.7 63.2
873(16) 0.00409 847.3 61.4
883(16) 0.00387 847.8 59.7
891(16) 0.00373 848.3 58.0
888(16) 0.00386 848.9 56.4
900(16) 0.00413 849.4 54.9
892(16) 0.00400 850.0 53.4
872(16) 0.00404 850.5 52.0
891(16) 0.00382 851.1 50.6
851(16) 0.00407 851.6 49.3
829(15) 0.00449 852.1 48.1
879(16) 0.00403 852.7 46.9
879(16) 0.00385 853.2 45.7
845(16) 0.00410 853.8 44.6
890(16) 0.00401 854.3 43.5
875(15) 0.00426 854.9 42.5
891(16) 0.00403 855.4 41.5
886(16) 0.00393 855.9 41.8
894(16) 0.00382 856.5 40.9
917(16) 0.00399 857.0 40.0
934(16) 0.00398 857.6 39.2
848(16) 0.00407 858.1 38.4
913(17) 0.00360 858.7 37.6
884(16) 0.00393 859.2 36.9
851(15) 0.00427 859.7 36.1
882(15) 0.00422 860.3 35.5
875(16) 0.00397 860.8 34.8
875(16) 0.00375 861.4 34.1
862(16) 0.00399 861.9 33.5
850(15) 0.00430 862.5 32.9
884(15) 0.00425 863.0 32.3
824(15) 0.00429 863.5 31.8
863(16) 0.00382 864.1 31.2
887(16) 0.00397 864.6 30.7
921(16) 0.00395 865.2 30.2
864(15) 0.00433 865.7 29.7
883(16) 0.00393 866.3 29.3
863(16) 0.00373 866.8 28.8
874(16) 0.00394 867.3 28.4
885(15) 0.00421 867.9 28.0
874(15) 0.00423 868.4 27.6
895(16) 0.00395 869.0 27.2
930(17) 0.003480 869.5 26.8
883(16) 0.00401 870.0 26.5
888(15) 0.00420 870.6 26.2
858(15) 0.00425 871.2 25.9
886(16) 0.00396 871.8 25.6
838(16) 0.00401 872.4 25.3
849(16) 0.00408 873.0 25.0
919(16) 0.00401 873.6 24.8
884(16) 0.00410 874.2 24.5
905(16) 0.00386 874.7 24.3
934(17) 0.00355 875.3 24.1
907(16) 0.00387 875.9 23.9
907(16) 0.00407 876.5 23.8
863(15) 0.00423 877.1 23.6
866(16) 0.00401 877.7 23.5
885(16) 0.00387 878.3 23.4
835(15) 0.00428 878.9 23.3
871(15) 0.00428 879.5 23.3
857(15) 0.00423 880.1 23.2
850(16) 0.00404 880.7 23.2
913(17) 0.00367 881.2 23.2
922(16) 0.00389 881.8 23.3
882(15) 0.00421 882.4 23.3
892(16) 0.00398 883.0 23.4
952(17) 0.00353 883.6 23.6
929(16) 0.00373 884.2 23.8
879(16) 0.00405 884.8 24.0
873(15) 0.00424 885.4 24.2
901(16) 0.00384 886.0 24.5
878(16) 0.00383 886.6 24.9
838(15) 0.00425 887.1 25.4
914(16) 0.00394 887.7 25.9
855(15) 0.00438 888.3 26.5
918(16) 0.00377 888.9 27.1
871(16) 0.00390 889.5 27.9
870(16) 0.00408 890.1 28.8
925(16) 0.00389 890.7 29.9
920(16) 0.00405 891.3 31.1
863(16) 0.00408 891.9 32.5
879(16) 0.00371 892.5 34.2
943(16) 0.00368 893.1 36.1
931(16) 0.00392 893.6 38.3
935(16) 0.00398 894.2 41.0
920(16) 0.00383 894.8 44.1
877(16) 0.00374 895.4 47.8
937(17) 0.00365 896.0 52.3
936(16) 0.00393 896.6 57.8
986(16) 0.00375 897.2 64.5
977(17) 0.00356 897.8 73.3
1035(18) 0.003095 898.4 85.2
1117(18) 0.003074 899.0 103.2
1141(18) 0.003246 899.5 133.2
1263(18) 0.002933 900.1 186.6
1360(20) 0.002574 900.7 282.4
1532(22) 0.002126 901.3 445.8
1710(22) 0.002008 901.9 702.3
1970(23) 0.001880 902.5 1063.2
2169(24) 0.001679 903.1 1508.5
2522(27) 0.001371 903.7 1973.7
2871(29) 0.001161 904.3 2343.1
3302(31) 0.001028 904.9 2479.4
3658(31) 0.001008 905.5 2317.7
3385(31) 0.001037 906.0 1933.8
2398(26) 0.001427 906.6 1466.2
1739(23) 0.001958 907.2 1026.3
1451(20) 0.002406 907.8 674.2
1294(19) 0.002863 908.4 426.5
1176(18) 0.002993 909.0 260.5
1086(18) 0.003180 909.6 169.3
1092(18) 0.003060 910.2 118.5
1018(17) 0.003484 910.8 89.7
1018(17) 0.00365 911.4 72.3
965(16) 0.00373 911.9 60.6
1001(17) 0.003338 912.5 52.0
970(17) 0.003507 913.1 45.2
948(16) 0.00370 913.7 39.6
948(16) 0.00390 914.3 35.1
966(17) 0.00361 914.9 31.2
954(17) 0.00360 915.5 28.0
936(16) 0.00378 916.1 25.2
919(16) 0.00397 916.7 22.9
943(16) 0.00393 917.3 20.8
964(17) 0.003488 917.8 19.0
966(17) 0.003308 918.4 17.4
917(16) 0.00375 919.0 16.0
917(16) 0.00400 919.6 14.8
940(16) 0.00396 920.2 13.7
932(16) 0.00371 920.8 12.7
919(17) 0.003504 921.4 11.8
938(17) 0.00366 922.0 11.1
928(16) 0.00388 922.6 10.3
958(16) 0.00394 923.2 9.7
952(17) 0.00366 923.8 9.1
983(18) 0.003226 924.3 8.6
954(17) 0.00361 924.9 8.1
975(16) 0.00377 925.5 7.6
913(16) 0.00407 926.1 7.2
938(17) 0.00367 926.7 6.8
960(17) 0.003317 927.3 6.5
919(16) 0.00376 927.9 6.2
906(16) 0.00412 928.5 5.9
963(16) 0.00383 929.1 5.6
897(16) 0.00395 929.7 5.3
947(17) 0.003448 930.2 5.1
983(17) 0.003465 930.8 4.8
939(16) 0.00400 931.4 4.6
908(16) 0.00406 932.0 4.4
900(16) 0.00384 932.6 4.3
961(17) 0.003427 933.2 4.1
966(17) 0.00357 933.8 3.9
979(16) 0.00378 934.4 5.1
914(16) 0.00396 935.0 4.9
964(17) 0.00355 935.6 4.8
924(17) 0.00363 936.2 4.7
971(17) 0.003493 936.7 4.6
971(16) 0.00380 937.3 4.5
952(16) 0.00379 937.9 4.4
938(16) 0.00367 938.5 4.3
887(16) 0.00395 939.1 4.2
905(16) 0.00390 939.7 4.1
934(16) 0.00401 940.3 4.1
980(17) 0.00356 940.9 4.0
1016(17) 0.003285 941.5 3.9
961(17) 0.00352 942.1 3.9
922(16) 0.00384 942.6 3.8
930(16) 0.00401 943.2 3.7
930(16) 0.00371 943.8 3.7
934(17) 0.00354 944.4 3.6
966(17) 0.003462 945.0 3.6
957(16) 0.00377 945.6 3.5
899(16) 0.00415 946.2 3.5
922(16) 0.00380 946.8 3.5
957(17) 0.003389 947.4 3.4
961(17) 0.00362 948.0 3.4
962(16) 0.00380 948.6 3.4
945(16) 0.00394 949.1 3.3
960(17) 0.00364 949.7 3.3
929(17) 0.00355 950.3 3.3
939(16) 0.00371 950.9 3.2
998(16) 0.00368 951.5 3.2
904(16) 0.00414 952.1 3.2
940(16) 0.00371 952.7 3.2
940(17) 0.00352 953.3 3.2
972(17) 0.00358 953.9 3.2
947(16) 0.00390 954.5 1.8
917(16) 0.00405 955.0 1.8
953(17) 0.00366 955.6 1.8
963(17) 0.003332 956.2 1.9
921(16) 0.00387 956.8 1.9
955(16) 0.00387 957.4 1.9
959(16) 0.00386 958.0 1.9
951(16) 0.00371 958.6 1.9
966(17) 0.003360 959.2 2.0
990(17) 0.00355 959.8 2.0
972(16) 0.00386 960.4 2.0
980(16) 0.00372 961.0 2.0
1003(17) 0.003421 961.5 2.0
966(17) 0.00355 962.1 2.1
946(16) 0.00375 962.7 2.1
943(16) 0.00394 963.3 2.1
956(16) 0.00381 963.9 2.1
990(17) 0.003462 964.5 2.2
987(17) 0.003349 965.1 2.2
966(17) 0.00358 965.7 2.2
953(16) 0.00390 966.3 2.2
957(16) 0.00376 966.9 2.2
935(16) 0.00376 967.4 2.3
972(17) 0.003490 968.0 2.3
955(17) 0.00363 968.6 2.3
1010(16) 0.00369 969.2 2.4
959(16) 0.00368 969.8 2.4
932(16) 0.00371 970.4 2.4
1010(17) 0.003302 971.0 2.4
935(16) 0.00379 971.6 2.5
966(16) 0.00389 972.2 2.5
1004(17) 0.003435 972.8 2.5
1018(18) 0.003251 973.3 2.6
978(17) 0.00355 973.9 2.6
994(17) 0.00359 974.5 2.6
954(16) 0.00390 975.1 2.6
940(17) 0.00361 975.7 2.7
971(17) 0.003487 976.3 2.7
998(17) 0.003463 977.0 2.7
956(16) 0.00382 977.6 2.8
951(16) 0.00393 978.2 2.8
991(17) 0.00355 978.9 2.8
987(17) 0.003398 979.5 2.9
982(17) 0.00364 980.1 2.9
1001(17) 0.00367 980.8 3.0
996(16) 0.00375 981.4 3.0
977(17) 0.00362 982.0 3.0
963(17) 0.003418 982.7 3.1
987(17) 0.00352 983.3 3.1
1016(16) 0.00368 983.9 3.2
977(16) 0.00376 984.6 3.2
995(17) 0.003482 985.2 3.2
960(17) 0.003402 985.9 3.3
966(17) 0.00359 986.5 3.3
990(16) 0.00372 987.1 3.4
1033(17) 0.00354 987.8 3.4
994(17) 0.00352 988.4 3.5
962(17) 0.003386 989.0 3.5
990(17) 0.00352 989.7 3.6
993(16) 0.00374 990.3 3.6
1047(17) 0.003472 990.9 3.7
1017(17) 0.003382 991.6 3.7
978(17) 0.003383 992.2 3.8
1022(17) 0.003429 992.8 3.8
993(16) 0.00373 993.5 3.9
986(16) 0.00368 994.1 3.9
1008(17) 0.003463 994.7 4.0
1024(18) 0.003219 995.4 4.1
1020(17) 0.003361 996.0 4.1
995(16) 0.00373 996.6 4.2
992(17) 0.00363 997.3 4.3
1027(17) 0.003293 997.9 4.3
948(17) 0.00360 998.5 4.4
958(16) 0.00370 999.2 4.5
991(16) 0.00375 999.8 4.5
1008(17) 0.00353 1000.4 4.6
993(17) 0.00353 1001.1 4.7
1052(17) 0.003266 1001.7 4.7
1032(17) 0.003405 1002.3 4.8
983(16) 0.00377 1003.0 4.9
965(17) 0.00356 1003.6 5.0
985(17) 0.003430 1004.2 5.1
1011(17) 0.003458 1004.9 5.2
1065(17) 0.003369 1005.5 5.2
989(16) 0.00376 1006.1 5.3
1041(17) 0.003368 1006.8 5.4
1016(17) 0.003338 1007.4 5.5
996(17) 0.003465 1008.0 5.6
999(17) 0.00363 1008.7 5.7
998(16) 0.00373 1009.3 5.8
994(17) 0.003488 1009.9 5.9
1025(17) 0.003302 1010.6 6.0
1016(17) 0.003439 1011.2 6.2
1024(17) 0.00359 1011.8 6.3
1036(17) 0.00361 1012.5 6.4
1027(17) 0.003280 1013.1 6.5
1023(18) 0.003247 1013.8 6.6
1043(17) 0.003427 1014.4 6.8
1041(17) 0.00354 1015.0 6.9
1020(17) 0.00365 1015.7 7.0
1035(17) 0.003424 1016.3 7.2
1059(18) 0.003058 1016.9 7.3
1066(18) 0.003257 1017.6 7.5
989(16) 0.00375 1018.2 7.6
1012(17) 0.00364 1018.8 7.8
1057(18) 0.003254 1019.5 7.9
1014(18) 0.003193 1020.1 8.1
1016(17) 0.003401 1020.7 8.3
1031(17) 0.00359 1021.4 8.5
1024(17) 0.00356 1022.0 8.6
1031(17) 0.003285 1022.6 8.8
1010(18) 0.003253 1023.3 9.0
1020(17) 0.003360 1023.9 9.2
1044(17) 0.00356 1024.5 9.5
1014(17) 0.00352 1025.2 9.7
986(17) 0.003473 1025.8 9.9
1041(18) 0.003166 1026.4 10.1
1015(17) 0.003446 1027.1 10.4
1103(17) 0.003366 1027.7 10.6
1010(17) 0.00361 1028.3 10.9
1047(17) 0.003357 1029.0 11.2
1050(18) 0.003207 1029.6 11.4
1054(17) 0.003373 1030.2 11.7
1072(17) 0.003452 1030.9 12.0
1071(17) 0.003344 1031.5 12.3
1066(18) 0.003228 1032.1 12.7
1050(17) 0.003267 1032.8 13.0
1070(17) 0.003297 1033.4 13.4
1063(17) 0.003506 1034.0 13.7
1060(17) 0.003368 1034.7 14.1
1069(18) 0.003121 1035.3 14.5
1059(18) 0.003215 1035.9 14.9
1068(17) 0.003366 1036.6 15.4
1078(17) 0.003438 1037.2 15.8
1067(18) 0.003234 1037.8 16.3
1054(18) 0.003143 1038.5 16.8
1091(18) 0.003138 1039.1 17.3
1064(17) 0.003426 1039.8 17.9
1074(17) 0.003435 1040.4 18.4
1076(18) 0.003161 1041.0 19.0
1034(17) 0.003293 1041.7 19.7
1031(17) 0.003359 1042.3 20.3
1099(17) 0.003311 1042.9 21.0
1153(18) 0.003244 1043.6 21.7
1072(18) 0.003262 1044.2 22.5
1067(18) 0.003054 1044.8 23.3
1086(18) 0.003176 1045.5 24.2
1064(17) 0.003476 1046.1 25.1
1049(17) 0.00355 1046.7 26.0
1053(17) 0.003300 1047.4 27.0
1032(18) 0.003134 1048.0 28.1
1088(18) 0.003165 1048.6 29.2
1091(17) 0.003415 1049.3 30.4
1098(17) 0.003354 1049.9 31.7
1076(18) 0.003256 1050.5 33.0
1064(18) 0.003121 1051.2 34.5
1083(18) 0.003255 1051.8 36.0
1104(17) 0.003391 1052.4 37.6
1106(17) 0.003327 1053.1 39.4
1085(17) 0.003275 1053.7 41.2
1089(18) 0.003099 1054.3 43.2
1117(18) 0.003107 1055.0 45.4
1156(18) 0.003223 1055.6 47.7
1086(17) 0.003371 1056.2 50.2
1107(18) 0.003202 1056.9 52.9
1130(18) 0.002949 1057.5 55.8
1125(18) 0.003069 1058.1 58.9
1079(17) 0.003468 1058.8 62.4
1149(18) 0.003140 1059.4 66.1
1101(18) 0.003139 1060.0 70.2
1074(18) 0.003170 1060.7 74.6
1123(18) 0.003028 1061.3 79.5
1111(17) 0.003356 1061.9 84.9
1135(18) 0.003164 1062.6 90.9
1119(18) 0.003084 1063.2 97.6
1149(19) 0.002878 1063.8 105.1
1148(18) 0.003086 1064.5 113.6
1202(18) 0.003091 1065.1 123.4
1202(18) 0.002978 1065.8 134.9
1214(19) 0.002805 1066.4 148.3
1243(19) 0.002790 1067.0 164.4
1235(19) 0.002872 1067.7 183.8
1236(18) 0.003005 1068.3 207.4
1279(19) 0.002745 1068.9 236.3
1326(20) 0.002567 1069.6 271.8
1354(20) 0.002536 1070.2 315.3
1410(20) 0.002535 1070.8 368.4
1443(20) 0.002572 1071.5 432.7
1540(21) 0.002261 1072.1 509.7
1591(22) 0.002135 1072.7 600.6
1739(22) 0.001986 1073.4 706.3
1845(22) 0.001976 1074.0 827.1
2056(24) 0.001800 1074.6 962.5
2183(25) 0.001579 1075.3 1110.8
2371(27) 0.001375 1075.9 1268.9
2577(27) 0.001330 1076.5 1431.6
2709(27) 0.001350 1077.2 1591.3
2886(28) 0.001285 1077.8 1737.9
3079(30) 0.001096 1078.4 1858.8
3004(30) 0.001082 1079.1 1940.9
3077(30) 0.001117 1079.7 1973.8
3065(29) 0.001196 1080.3 1952.8
2841(28) 0.001301 1081.0 1880.9
2732(28) 0.001268 1081.6 1767.6
2576(28) 0.001253 1082.2 1625.6
2442(26) 0.001426 1082.9 1467.9
2273(25) 0.001624 1083.5 1305.1
2116(24) 0.001737 1084.1 1145.5
2018(24) 0.001680 1084.8 994.7
1833(24) 0.001775 1085.4 856.2
1764(22) 0.001979 1086.0 732.0
1718(21) 0.002165 1086.7 623.0
1557(21) 0.002345 1087.3 528.8
1591(21) 0.002174 1087.9 448.8
1515(21) 0.002169 1088.6 381.8
1410(20) 0.002501 1089.2 326.4
1426(20) 0.002610 1089.8 280.8
1365(19) 0.002640 1090.5 243.6
1352(20) 0.002504 1091.1 213.4
1330(20) 0.002485 1091.8 188.7
1303(19) 0.002666 1092.4 168.4
1343(19) 0.002766 1093.0 151.7
1288(19) 0.002803 1093.7 137.7
1268(19) 0.002706 1094.3 125.9
1239(19) 0.002743 1094.9 115.7
1238(19) 0.002831 1095.6 106.9
1233(18) 0.003008 1096.2 99.2
1224(18) 0.002946 1096.8 92.4
1198(19) 0.002868 1097.5 86.2
1223(19) 0.002800 1098.1 80.7
1185(18) 0.002973 1098.7 75.7
1162(18) 0.003208 1099.4 71.2
1233(19) 0.002848 1100.0 67.1
1193(19) 0.002874 1100.6 63.3
1209(19) 0.002784 1101.3 59.8
1156(18) 0.003086 1101.9 56.6
1216(18) 0.003027 1102.5 53.6
1144(18) 0.003056 1103.2 50.9
1171(19) 0.002864 1103.8 48.4
1147(18) 0.003103 1104.4 46.0
1145(18) 0.003169 1105.1 43.8
1175(18) 0.003143 1105.7 41.8
1192(19) 0.002915 1106.3 39.9
1147(18) 0.002928 1107.0 38.1
1155(18) 0.002998 1107.6 36.5
1143(18) 0.003173 1108.2 34.9
1120(17) 0.003337 1108.9 33.5
1129(18) 0.003068 1109.5 32.1
1141(19) 0.002868 1110.1 30.8
1141(18) 0.003005 1110.8 29.6
1162(18) 0.003163 1111.4 28.5
1083(17) 0.003431 1112.0 27.4
1142(18) 0.003060 1112.7 26.4
1175(19) 0.002750 1113.3 25.4
1109(18) 0.003185 1113.9 24.5
1147(18) 0.003217 1114.6 23.7
1119(17) 0.003294 1115.2 22.9
1148(18) 0.003002 1115.8 22.1
1169(19) 0.002728 1116.5 21.3
1151(18) 0.003033 1117.1 20.6
1168(18) 0.003196 1117.8 20.0
1178(18) 0.003121 1118.4 19.3
1186(18) 0.002966 1119.0 18.7
1162(19) 0.002836 1119.7 18.2
1117(18) 0.003086 1120.3 17.6
1098(17) 0.003384 1120.9 17.1
1151(18) 0.003097 1121.6 16.6
1133(18) 0.003067 1122.2 16.1
1177(19) 0.002823 1122.8 15.7
1124(18) 0.003104 1123.5 15.2
1221(18) 0.003054 1124.1 14.8
1115(18) 0.003228 1124.7 14.4
1126(18) 0.003041 1125.4 14.0
1140(18) 0.003000 1126.0 13.7
1153(18) 0.003008 1126.6 13.3
1132(17) 0.003300 1127.3 13.0
1138(18) 0.003097 1127.9 12.6
1163(18) 0.002979 1128.5 12.3
1182(19) 0.002873 1129.2 12.0
1152(18) 0.003036 1129.8 11.7
1090(17) 0.003411 1130.4 11.5
1156(18) 0.003048 1131.1 11.2
1103(18) 0.003147 1131.7 10.9
1170(18) 0.002932 1132.3 10.7
1148(18) 0.003107 1133.0 10.4
1182(18) 0.003146 1133.6 10.2
1141(18) 0.003042 1134.2 10.0
1113(18) 0.003046 1134.9 9.8
1132(18) 0.003078 1135.5 9.6
1137(18) 0.003209 1136.1 9.3
1198(18) 0.003107 1136.8 9.2
1168(18) 0.002968 1137.4 9.0
1108(18) 0.003105 1138.0 8.8
1195(19) 0.002883 1138.7 8.6
1168(18) 0.003095 1139.3 8.4
1140(18) 0.003254 1139.9 8.3
1169(18) 0.002957 1140.6 8.1
1143(19) 0.002867 1141.2 8.0
1133(18) 0.003083 1141.8 7.8
1114(17) 0.003309 1142.5 7.7
1172(18) 0.003152 1143.1 7.5
1189(19) 0.002920 1143.7 7.4
1122(19) 0.002873 1144.4 7.3
1127(18) 0.003128 1145.0 7.1
1152(18) 0.003179 1145.7 7.0
1136(17) 0.003286 1146.3 6.9
1197(19) 0.002860 1146.9 6.8
1173(19) 0.002742 1147.6 6.7
1195(19) 0.002818 1148.2 6.6
1162(18) 0.003232 1148.8 6.5
1145(18) 0.003194 1149.5 6.4
1129(18) 0.003082 1150.1 6.3
1161(19) 0.002861 1150.7 6.2
1154(18) 0.003005 1151.4 6.1
1173(18) 0.003175 1152.0 6.0
1164(18) 0.003129 1152.6 5.9
1194(19) 0.002895 1153.3 5.8
1153(19) 0.002914 1153.9 5.7
1143(18) 0.002989 1154.5 5.7
1157(18) 0.003209 1155.2 5.6
1145(18) 0.003128 1155.4 5.5
1176(18) 0.002923 1155.6 5.4
1144(18) 0.002981 1155.7 5.4
1169(18) 0.002997 1155.9 5.3
1168(18) 0.003175 1156.1 5.2
1153(18) 0.003116 1156.2 5.2
1176(19) 0.002868 1156.4 5.1
1108(18) 0.003134 1156.5 5.1
1194(18) 0.002968 1156.7 5.0
1173(18) 0.003154 1156.9 5.0
1202(19) 0.002892 1157.0 4.9
1165(19) 0.002921 1157.2 4.9
1193(19) 0.002838 1157.4 4.8
1162(18) 0.003049 1157.5 4.8
1172(18) 0.003166 1157.7 4.7
1176(18) 0.002938 1157.8 4.7
1143(19) 0.002898 1158.0 4.7
1145(18) 0.003022 1158.2 4.6
1162(18) 0.003101 1158.3 4.6
1141(18) 0.003262 1158.5 4.6
1183(19) 0.002871 1158.6 4.5
1177(19) 0.002857 1158.8 4.5
1151(18) 0.002974 1159.0 4.5
1114(18) 0.003237 1159.1 4.5
1158(18) 0.003201 1159.3 4.5
1167(19) 0.002896 1159.5 4.4
1134(18) 0.002934 1159.6 4.4
1163(18) 0.002979 1159.8 4.4
1193(18) 0.003080 1159.9 4.4
1166(18) 0.003143 1160.1 4.4
1184(18) 0.002940 1160.3 4.4
1157(19) 0.002824 1160.4 4.4
1170(19) 0.002885 1160.6 4.4
1161(18) 0.003196 1160.8 4.4
1142(18) 0.003194 1160.9 4.4
1163(18) 0.003035 1161.1 4.5
1170(19) 0.002765 1161.2 4.5
1174(18) 0.002937 1161.4 4.5
1158(18) 0.003190 1161.6 4.5
1189(18) 0.003075 1161.7 4.6
1166(18) 0.002994 1161.9 4.6
1181(19) 0.002772 1162.1 4.7
1136(18) 0.003049 1162.2 4.7
1160(18) 0.003191 1162.4 4.8
1203(18) 0.003033 1162.5 4.8
1157(18) 0.003025 1162.7 4.9
1204(19) 0.002703 1162.9 5.0
1148(18) 0.003031 1163.0 5.1
1163(18) 0.003201 1163.2 5.2
1216(18) 0.002976 1163.4 5.3
1146(18) 0.003031 1163.5 5.4
1128(18) 0.003007 1163.7 5.6
1168(18) 0.002993 1163.8 5.7
1154(18) 0.003212 1164.0 5.9
1212(18) 0.002992 1164.2 6.1
1166(18) 0.002982 1164.3 6.3
1203(19) 0.002767 1164.5 6.6
1186(18) 0.002956 1164.6 6.9
1203(18) 0.003091 1164.8 7.2
1207(18) 0.002931 1165.0 7.6
1205(19) 0.002751 1165.1 8.1
1182(19) 0.002858 1165.3 8.6
1194(19) 0.002917 1165.5 9.3
1224(18) 0.003057 1165.6 10.0
1186(18) 0.002924 1165.8 11.0
1191(19) 0.002779 1165.9 12.2
1192(19) 0.002859 1166.1 13.6
1218(18) 0.002955 1166.3 15.3
1227(18) 0.003030 1166.4 17.4
1206(19) 0.002842 1166.6 19.9
1207(19) 0.002712 1166.8 22.9
1222(19) 0.002818 1166.9 26.3
1154(18) 0.003142 1167.1 30.3
1257(18) 0.002967 1167.2 34.9
1224(19) 0.002841 1167.4 39.9
1272(20) 0.002578 1167.6 45.5
1252(19) 0.002756 1167.7 51.4
1246(18) 0.002967 1167.9 57.6
1232(18) 0.003015 1168.1 63.8
1272(19) 0.002727 1168.2 69.9
1336(20) 0.002405 1168.4 75.4
1280(19) 0.002698 1168.5 79.9
1294(19) 0.002842 1168.7 83.0
1266(19) 0.002911 1168.9 84.5
1295(19) 0.002700 1169.0 84.0
1322(20) 0.002421 1169.2 81.7
1306(19) 0.002706 1169.4 77.8
1293(19) 0.002850 1169.5 72.8
1317(19) 0.002821 1169.7 67.0
1226(19) 0.002836 1169.8 60.8
1204(19) 0.002702 1170.0 54.5
1274(19) 0.002701 1170.2 48.3
1266(18) 0.002927 1170.3 42.6
1167(18) 0.003132 1170.5 37.2
1196(19) 0.002922 1170.7 32.4
1216(19) 0.002724 1170.8 28.1
1226(19) 0.002797 1171.0 24.3
1255(18) 0.002969 1171.1 21.1
1200(18) 0.003084 1171.3 18.3
1229(19) 0.002818 1171.5 16.0
1233(19) 0.002720 1171.6 14.0
1172(19) 0.002900 1171.8 12.4
1216(18) 0.003064 1171.9 11.1
1208(18) 0.003007 1172.1 10.0
1200(19) 0.002867 1172.3 9.1
1173(19) 0.002918 1172.4 8.3
1186(18) 0.002934 1172.6 7.7
1198(18) 0.003101 1172.8 7.2
1197(18) 0.002933 1172.9 6.7
1136(18) 0.002995 1173.1 6.3
1165(19) 0.002902 1173.2 6.0
1187(18) 0.003012 1173.4 5.7
1232(18) 0.003010 1173.6 5.4
1226(19) 0.002896 1173.7 5.2
1179(19) 0.002842 1173.9 5.0
1176(19) 0.002886 1174.1 3.5
1189(18) 0.003024 1174.2 3.4
1237(18) 0.003012 1174.4 3.2
1223(19) 0.002838 1174.5 3.1
1214(19) 0.002769 1174.7 3.0
1239(19) 0.002796 1174.9 2.9
1251(18) 0.002923 1175.0 2.8
1252(18) 0.002953 1175.2 2.8
1234(19) 0.002797 1175.4 2.7
1158(19) 0.002899 1175.5 2.7
1199(19) 0.002884 1175.7 2.7
1222(18) 0.002968 1175.8 2.7
1191(18) 0.003149 1176.0 2.7
1173(18) 0.002924 1176.2 2.7
1186(19) 0.002769 1176.3 2.7
1201(18) 0.002932 1176.5 2.7
1228(18) 0.003032 1176.7 2.8
1224(18) 0.003029 1176.8 2.8
1234(19) 0.002812 1177.0 2.9
1219(19) 0.002635 1177.1 3.0
1209(19) 0.002868 1177.3 3.1
1187(18) 0.003156 1177.5 3.2
1209(18) 0.003044 1177.6 3.3
1215(19) 0.002886 1177.8 3.4
1218(19) 0.002707 1177.9 3.5
1228(19) 0.002780 1178.1 3.6
1204(18) 0.003080 1178.3 3.8
1210(18) 0.003049 1178.4 3.9
1207(19) 0.002874 1178.6 4.0
1227(19) 0.002709 1178.8 4.1
1236(19) 0.002784 1178.9 4.2
1221(18) 0.003030 1179.1 4.3
1202(18) 0.003058 1179.2 4.3
1179(18) 0.002951 1179.4 4.3
1192(19) 0.002802 1179.6 4.3
1239(19) 0.002725 1179.7 4.3
1185(18) 0.003137 1179.9 4.3
1192(18) 0.003027 1180.1 4.2
1232(19) 0.002804 1180.2 4.1
1194(19) 0.002827 1180.4 4.0
1218(19) 0.002840 1180.5 3.8
1169(18) 0.003202 1180.7 3.7
1208(19) 0.002868 1180.9 3.5
1210(19) 0.002838 1181.0 3.4
1227(19) 0.002809 1181.2 3.2
1213(19) 0.002914 1181.4 3.0
1160(18) 0.003191 1181.5 2.8
1192(18) 0.002938 1181.7 2.7
1232(19) 0.002736 1181.8 2.5
1175(18) 0.002966 1182.0 2.4
1164(18) 0.003087 1182.2 2.2
1199(18) 0.003089 1182.3 2.1
1200(18) 0.002939 1182.5 1.9
1254(19) 0.002703 1182.7 1.8
1230(19) 0.002877 1182.8 1.7
1184(18) 0.003064 1183.0 1.6
1196(18) 0.003127 1183.1 1.5
1206(19) 0.002853 1183.3 1.4
1232(19) 0.002737 1183.5 1.3
1200(18) 0.002924 1183.6 1.2
1202(18) 0.003043 1183.8 1.1
1187(18) 0.003153 1183.9 1.1
1177(18) 0.002970 1184.1 1.0
1168(19) 0.002799 1184.3 0.9
1178(18) 0.002961 1184.4 0.9
1195(18) 0.003076 1184.6 0.9
1192(18) 0.003121 1184.8 0.8
1204(19) 0.002813 1184.9 0.8
1159(19) 0.002789 1185.1 0.7
1214(19) 0.002852 1185.2 0.7
1131(17) 0.003296 1185.4 0.7
1182(18) 0.003112 1185.6 0.6
1213(19) 0.002895 1185.7 0.6
1187(19) 0.002787 1185.9 0.6
1184(19) 0.002907 1186.1 0.6
1181(18) 0.003144 1186.2 0.6
1188(18) 0.003107 1186.4 0.5
1243(19) 0.002774 1186.5 0.5
1202(19) 0.002742 1186.7 0.5
1153(18) 0.003080 1186.9 0.5
1187(18) 0.003130 1187.0 0.5
1245(18) 0.002929 1187.2 0.5
1177(18) 0.002950 1187.4 0.5
1177(19) 0.002811 1187.5 0.4
1194(19) 0.002884 1187.7 0.4
1216(18) 0.003058 1187.8 0.4
1195(18) 0.002989 1188.0 0.4
1207(19) 0.002872 1188.2 0.4
1177(19) 0.002898 1188.3 0.4
1156(18) 0.002958 1188.5 0.4
1201(18) 0.003119 1188.7 0.4
1217(18) 0.002930 1188.8 0.4
1214(19) 0.002870 1189.0 0.4
1195(19) 0.002875 1189.1 0.3
1251(19) 0.002806 1189.3 0.3
1225(18) 0.003031 1189.5 0.3
1229(19) 0.002818 1189.6 0.3
1254(19) 0.002732 1189.8 0.3
1220(19) 0.002813 1190.0 0.3
1162(18) 0.003084 1190.1 0.3
1202(18) 0.003085 1190.3 0.3
1184(18) 0.002940 1190.4 0.3
1171(19) 0.002911 1190.6 0.3
1162(18) 0.003009 1190.8 0.3
1237(19) 0.002893 1190.9 0.3
1224(18) 0.003056 1191.1 0.3
1234(19) 0.002784 1191.2 0.3
1243(19) 0.002708 1191.4 0.3
1190(18) 0.002984 1191.6 0.3
1212(18) 0.003037 1191.7 0.3
1227(18) 0.003032 1191.9 0.2
1215(19) 0.002852 1192.1 0.2
1188(19) 0.002776 1192.2 0.2
1187(19) 0.002906 1192.4 0.2
1204(18) 0.003033 1192.5 0.2
1205(18) 0.003054 1192.7 0.2
1211(19) 0.002850 1192.9 0.2
1207(19) 0.002646 1193.0 0.2
1186(19) 0.002910 1193.2 0.2
1161(18) 0.003209 1193.4 0.2
1166(18) 0.003173 1193.5 0.2
1208(19) 0.002871 1193.7 0.2
1188(19) 0.002726 1193.8 0.2
1175(18) 0.003015 1194.0 0.2
1194(18) 0.003093 1194.2 0.2
1168(18) 0.003146 1194.3 0.2
1218(19) 0.002836 1194.5 0.2
1232(19) 0.002633 1194.7 0.2
1171(18) 0.002938 1194.8 0.2
1168(18) 0.003179 1195.0 0.2
1189(18) 0.003080 1195.1 0.2
1249(19) 0.002758 1195.3 0.2
1211(19) 0.002784 1194.9 0.2
1231(19) 0.002847 1194.4 0.2
1221(18) 0.003052 1194.0 0.2
1225(18) 0.002958 1193.5 0.2
1186(19) 0.002906 1193.0 0.2
1145(18) 0.002986 1192.5 0.2
1211(19) 0.002846 1192.0 0.2
1164(18) 0.003175 1191.6 0.2
1129(18) 0.003220 1191.1 0.2
1217(19) 0.002758 1190.6 0.2
1178(19) 0.002862 1190.1 0.2
1189(19) 0.002909 1189.6 0.2
1193(18) 0.003121 1189.1 0.1
1244(19) 0.002873 1188.7 0.1
1201(19) 0.002871 1188.2 0.1
1170(19) 0.002919 1187.7 0.1
1144(18) 0.003143 1187.2 0.1
1163(18) 0.003201 1186.7 0.1
1237(19) 0.002766 1186.3 0.1
1253(19) 0.002702 1185.8 0.1
1233(19) 0.002791 1185.3 0.1
1185(18) 0.002987 1184.8 0.1
1143(17) 0.003283 1184.3 0.1
1190(19) 0.002871 1183.9 0.1
1201(19) 0.002814 1183.4 0.1
1218(19) 0.002854 1182.9 0.1
1178(18) 0.003055 1182.4 0.1
1200(18) 0.003104 1181.9 0.1
1150(18) 0.003022 1181.4 0.1
1215(19) 0.002689 1181.0 0.1
1248(19) 0.002790 1180.5 0.1
1225(18) 0.003019 1180.0 0.1
1167(18) 0.003201 1179.5 0.1
1195(19) 0.002886 1179.0 0.1
1148(19) 0.002843 1178.6 0.1
1204(19) 0.002896 1178.1 0.1
1188(18) 0.003091 1177.6 0.1
1187(18) 0.003143 1177.1 0.1
1211(19) 0.002864 1176.6 0.1
1164(19) 0.002787 1176.1 0.1
1157(18) 0.003053 1175.7 0.1
1169(18) 0.003184 1175.2 0.1
1201(18) 0.003079 1174.7 0.1
1178(18) 0.002999 1174.2 0.1
1247(20) 0.002603 1173.7 0.1
1198(19) 0.002902 1173.3 0.1
1231(18) 0.003039 1172.8 0.1
1245(18) 0.002951 1172.3 0.1
1176(18) 0.002957 1171.8 0.1
1168(19) 0.002810 1171.3 0.1
1127(18) 0.003155 1170.9 0.1
1199(18) 0.003089 1170.4 0.1
1205(18) 0.003034 1169.9 0.1
1255(19) 0.002747 1169.4 0.1
1184(19) 0.002848 1168.9 0.1
1185(19) 0.002883 1168.4 0.1
1162(18) 0.003196 1168.0 0.1
1153(18) 0.003132 1167.5 0.1
1172(18) 0.002957 1167.0 0.1
1187(19) 0.002863 1166.5 0.1
1199(18) 0.002931 1166.0 0.1
1208(18) 0.003075 1165.6 0.1
1178(18) 0.003064 1165.1 0.1
1182(18) 0.002935 1164.6 0.1
1189(19) 0.002882 1164.1 0.1
1207(19) 0.002902 1163.6 0.1
1245(18) 0.002992 1163.1 0.1
1184(18) 0.002974 1162.7 0.1
1209(19) 0.002801 1162.2 0.1
1198(19) 0.002862 1161.7 0.1
1235(19) 0.002870 1161.2 0.1
1188(18) 0.003132 1160.7 0.1
1212(19) 0.002826 1160.3 0.1
1240(19) 0.002662 1159.8 0.1
1171(18) 0.002962 1159.3 0.1
1166(18) 0.003092 1158.8 0.1
1170(18) 0.003171 1158.3 0.1
1194(19) 0.002866 1157.8 0.1
1147(18) 0.003001 1157.4 0.1
1196(19) 0.002875 1156.9 0.1
1219(18) 0.002996 1156.4 0.1
1222(18) 0.003050 1155.9 0.1
1216(19) 0.002860 1155.4 0.1
1181(19) 0.002800 1155.0 0.1
1181(18) 0.002948 1154.5 0.1
1112(17) 0.003322 1154.0 0.1
1143(18) 0.003249 1153.5 0.1
1176(18) 0.002970 1153.0 0.1
1186(19) 0.002688 1152.6 0.1
1173(18) 0.002938 1152.1 0.1
1211(18) 0.003032 1151.6 0.1
1177(18) 0.003104 1151.1 0.1
1157(18) 0.003029 1150.6 0.1
1136(19) 0.002909 1150.1 0.1
1146(18) 0.003060 1149.7 0.1
1159(18) 0.003207 1149.2 0.1
1153(18) 0.003198 1148.7 0.1
1153(18) 0.003004 1148.2 0.1
1157(19) 0.002867 1147.7 0.1
1175(18) 0.002948 1147.3 0.1
1142(18) 0.003235 1146.8 0.1
1147(18) 0.003174 1146.3 0.1
1144(18) 0.003085 1145.8 0.1
1198(19) 0.002754 1145.3 0.1
1162(18) 0.002982 1144.8 0.1
1190(18) 0.003135 1144.4 0.1
1172(18) 0.003076 1143.9 0.1
1148(18) 0.003024 1143.4 0.1
1131(18) 0.003018 1142.9 0.1
1138(18) 0.003061 1142.4 0.1
1173(18) 0.003162 1142.0 0.1
1154(18) 0.003124 1141.5 0.1
1213(19) 0.002845 1141.0 0.1
1194(19) 0.002876 1140.5 0.1
1179(18) 0.003028 1140.0 0.1
1172(18) 0.003163 1139.5 0.1
1161(18) 0.003087 1139.1 0.1
1168(19) 0.002910 1138.6 0.1
1170(19) 0.002890 1138.1 0.1
1158(18) 0.003094 1137.6 0.1
1192(18) 0.003120 1137.1 0.1
1144(18) 0.003083 1136.7 0.1
1132(18) 0.002985 1136.2 0.1
1165(18) 0.002981 1135.7 0.1
1168(18) 0.003111 1135.2 0.1
1173(18) 0.003175 1134.7 0.1
1161(18) 0.002967 1134.3 0.1
1167(19) 0.002840 1133.8 0.1
1119(18) 0.003091 1133.3 0.1
1118(17) 0.003272 1132.8 0.1
1149(18) 0.003237 1132.3 0.1
1207(19) 0.002833 1131.8 0.1
1139(19) 0.002909 1131.4 0.1
1200(19) 0.002862 1130.9 0.1
1202(18) 0.003052 1130.4 0.1
1205(18) 0.003098 1129.9 0.1
1193(18) 0.002933 1129.4 0.1
1198(19) 0.002663 1129.0 0.1
1178(18) 0.002946 1128.5 0.1
1170(18) 0.003173 1128.0 0.1
1168(18) 0.003182 1127.5 0.1
1134(18) 0.003036 1127.0 0.1
1106(18) 0.002959 1126.5 0.1
1175(18) 0.003001 1126.1 0.1
1149(18) 0.003229 1125.6 0.1
1155(18) 0.003187 1125.1 0.1
1165(18) 0.003013 1124.6 0.1
1184(19) 0.002777 1124.1 0.1
1152(18) 0.003021 1123.7 0.1
1223(18) 0.003030 1123.2 0.1
1152(18) 0.003137 1122.7 0.1
1094(18) 0.003191 1122.2 0.1
1135(18) 0.002948 1121.7 0.1
1159(18) 0.002965 1121.2 0.1
1147(18) 0.003240 1120.8 0.1
1120(18) 0.003182 1120.3 0.1
1115(18) 0.003123 1119.8 0.1
1136(19) 0.002899 1119.3 0.1
1163(18) 0.002985 1118.8 0.1
1155(18) 0.003210 1118.4 0.1
1164(18) 0.003030 1117.9 0.1
1115(18) 0.003075 1117.4 0.1
1097(18) 0.003132 1116.9 0.1
1109(18) 0.003185 1116.4 0.1
1120(17) 0.003316 1116.0 0.1
1171(18) 0.003001 1115.5 0.1
1129(18) 0.003029 1115.0 0.1
1131(18) 0.003055 1114.5 0.1
1125(18) 0.003140 1114.0 0.1
1103(17) 0.003390 1113.5 0.1
1092(18) 0.003153 1113.1 0.1
1110(18) 0.003051 1112.6 0.1
1148(18) 0.002983 1112.1 0.1
1123(18) 0.003215 1111.6 0.1
1113(17) 0.003334 1111.1 0.1
1113(18) 0.003067 1110.7 0.1
1130(18) 0.002955 1110.2 0.1
1144(18) 0.002975 1109.7 0.1
1105(17) 0.003298 1109.2 0.1
1133(17) 0.003289 1108.7 0.1
1093(18) 0.003227 1108.2 0.1
1145(19) 0.002878 1107.8 0.1
1124(18) 0.003152 1107.3 0.1
1095(17) 0.003381 1106.8 0.1
1121(17) 0.003309 1106.3 0.1
1117(18) 0.003166 1105.8 0.1
1158(19) 0.002826 1105.4 0.1
1095(18) 0.003241 1104.9 0.1
1133(18) 0.003247 1104.4 0.1
1100(17) 0.003396 1103.9 0.1
1102(18) 0.003232 1103.4 0.1
1119(19) 0.002895 1102.9 0.1
1119(18) 0.003101 1102.5 0.1
1122(17) 0.003314 1102.0 0.1
1072(17) 0.003459 1101.5 0.1
1135(18) 0.003032 1101.0 0.1
1109(18) 0.002970 1100.5 0.1
1094(18) 0.003208 1100.1 0.1
1132(17) 0.003302 1099.6 0.1
1077(17) 0.003429 1099.1 0.1
1138(18) 0.003008 1098.6 0.1
1089(18) 0.003042 1098.1 0.1
1059(18) 0.003253 1097.7 0.1
1052(17) 0.00355 1097.2 0.1
1070(17) 0.003404 1096.7 0.1
1091(18) 0.003183 1096.2 0.1
1143(19) 0.002905 1095.7 0.1
1146(18) 0.003007 1095.2 0.1
1119(17) 0.003324 1094.8 0.1
1076(17) 0.003389 1094.3 0.1
1097(18) 0.003096 1093.8 0.1
1073(18) 0.003172 1093.3 0.1
1106(18) 0.003194 1092.8 0.1
1122(17) 0.003325 1092.4 0.1
1104(18) 0.003185 1091.9 0.1
1089(18) 0.003143 1091.4 0.1
1107(18) 0.003085 1090.9 0.1
1099(18) 0.003209 1090.4 0.1
1109(17) 0.003371 1089.9 0.1
1144(18) 0.003042 1089.5 0.1
1139(18) 0.002981 1089.0 0.1
1085(18) 0.003188 1088.5 0.1
1100(17) 0.003274 1088.0 0.1
1092(17) 0.003413 1087.5 0.1
1086(18) 0.003138 1087.1 0.1
1054(18) 0.003193 1086.6 0.1
1081(18) 0.003200 1086.1 0.1
1092(17) 0.003297 1085.6 0.1
1108(17) 0.003364 1085.1 0.1
1094(18) 0.003171 1084.7 0.1
1084(18) 0.003039 1084.2 0.1
1102(18) 0.003196 1083.7 0.1
1086(17) 0.003398 1083.2 0.1
1045(17) 0.00351 1082.7 0.1
1074(18) 0.003249 1082.2 0.1
1065(18) 0.003084 1081.8 0.1
1144(18) 0.002992 1081.3 0.1
1129(17) 0.003284 1080.8 0.1
1126(17) 0.003304 1080.3 0.1
1076(18) 0.003263 1079.8 0.1
1090(18) 0.002971 1079.4 0.1
1125(18) 0.003119 1078.9 0.1
1089(17) 0.003412 1078.4 0.1
1083(17) 0.003390 1077.9 0.1
1089(18) 0.003195 1077.4 0.1
1076(18) 0.003054 1076.9 0.1
1084(18) 0.003217 1076.5 0.1
1134(17) 0.003269 1076.0 0.1
1046(17) 0.00351 1075.5 0.1
1099(18) 0.003127 1075.0 0.1
1076(18) 0.003073 1074.5 0.1
1089(18) 0.003181 1074.1 0.1
1110(17) 0.003309 1073.6 0.1
1054(17) 0.003445 1073.1 0.1
1057(17) 0.003300 1072.6 0.1
1083(18) 0.003126 1072.1 0.1
1093(18) 0.003190 1071.6 0.1
1100(17) 0.003372 1071.2 0.1
1119(18) 0.003207 1070.7 0.1
1110(18) 0.003162 1070.2 0.1
1085(18) 0.003154 1069.7 0.1
1123(18) 0.003092 1069.2 0.1
1046(17) 0.00356 1068.8 0.1
1038(17) 0.003452 1068.3 0.1
1078(18) 0.003182 1067.8 0.1
1070(18) 0.003172 1067.3 0.1
1064(17) 0.003426 1066.8 0.1
1089(17) 0.003440 1066.4 0.1
1063(17) 0.003294 1065.9 0.1
1083(18) 0.003196 1065.4 0.1
1041(17) 0.003416 1064.9 0.1
1052(17) 0.003416 1064.4 0.1
1100(17) 0.003366 1063.9 0.1
1103(18) 0.003133 1063.5 0.1
1076(18) 0.003100 1063.0 0.1
1047(17) 0.003356 1062.5 0.1
1080(17) 0.003390 1062.0 0.1
1077(17) 0.003454 1061.5 0.1
1074(18) 0.003217 1061.1 0.1
1055(18) 0.003134 1060.6 0.1
1066(18) 0.003256 1060.1 0.1
1113(17) 0.003284 1059.6 0.1
1049(17) 0.00356 1059.1 0.1
1050(17) 0.003292 1058.6 0.1
1028(18) 0.003249 1058.2 0.1
1046(17) 0.003402 1057.7 0.1
1035(17) 0.00358 1057.2 0.1
1067(17) 0.003475 1056.7 0.1
1087(18) 0.003187 1056.2 0.1
1059(18) 0.003097 1055.8 0.1
1107(18) 0.003131 1055.3 0.1
1056(17) 0.00354 1054.8 0.1
1055(17) 0.003505 1054.3 0.1
1046(17) 0.003371 1053.8 0.1
1060(18) 0.003097 1053.3 0.1
1054(17) 0.003368 1052.9 0.1
1081(17) 0.003468 1052.4 0.1
1082(17) 0.003382 1051.9 0.1
1081(18) 0.003235 1051.4 0.1
1086(18) 0.003056 1050.9 0.1
1056(17) 0.003314 1050.5 0.1
1047(17) 0.00357 1050.0 0.1
1088(17) 0.003320 1049.5 0.1
1030(17) 0.003403 1049.0 0.1
1048(18) 0.003218 1048.5 0.1
1067(18) 0.003253 1048.1 0.1
1051(17) 0.00353 1047.6 0.1
1054(17) 0.003375 1047.1 0.1
1070(18) 0.003236 1046.6 0.1
1045(18) 0.003241 1046.1 0.1
1005(17) 0.003454 1045.6 0.1
1027(17) 0.00362 1045.2 0.1
1105(18) 0.003225 1044.7 0.1
1098(18) 0.003157 1044.1 0.1
1031(17) 0.003362 1043.6 0.1
1021(17) 0.003411 1043.0 0.1
1025(17) 0.00365 1042.4 0.1
1072(18) 0.003225 1041.8 0.1
1079(18) 0.003133 1041.2 0.1
1039(17) 0.003283 1040.6 0.1
1063(17) 0.003316 1040.0 0.1
1095(17) 0.003416 1039.4 0.1
1045(17) 0.003278 1038.9 0.1
1045(18) 0.003153 1038.3 0.1
1027(17) 0.003404 1037.7 0.1
1038(17) 0.003484 1037.1 0.1
1094(17) 0.003391 1036.5 0.1
1036(17) 0.003321 1035.9 0.1
997(17) 0.003366 1035.3 0.1
1042(17) 0.003366 1034.7 0.1
1025(17) 0.00356 1034.1 0.1
1037(17) 0.00357 1033.6 0.1
987(17) 0.003482 1033.0 0.1
1047(18) 0.003113 1032.4 0.1
1025(17) 0.003448 1031.8 0.1
1071(17) 0.003426 1031.2 0.1
1069(17) 0.003454 1030.6 0.1
1061(18) 0.003259 1030.0 0.1
1008(18) 0.003237 1029.4 0.1
1011(17) 0.003420 1028.9 0.1
1025(17) 0.00362 1028.3 0.1
1031(17) 0.00358 1027.7 0.1
1040(17) 0.003315 1027.1 0.1
990(17) 0.003297 1026.5 0.1
1065(17) 0.003283 1025.9 0.1
1033(17) 0.00358 1025.3 0.1
999(16) 0.00372 1024.7 0.1
1067(18) 0.003167 1024.1 0.1
992(17) 0.003309 1023.6 0.1
1024(17) 0.003305 1023.0 0.1
1027(17) 0.00364 1022.4 0.1
1073(17) 0.003365 1021.8 0.1
1032(17) 0.003398 1021.2 0.1
1038(18) 0.003213 1020.6 0.1
1032(17) 0.003332 1020.0 0.1
1044(17) 0.00357 1019.4 0.1
1039(17) 0.00352 1018.9 0.1
1023(17) 0.003371 1018.3 0.1
1034(18) 0.003224 1017.7 0.1
1049(18) 0.003233 1017.1 0.1
1027(17) 0.00363 1016.5 0.1
1035(17) 0.003452 1015.9 0.1
1052(18) 0.003253 1015.3 0.1
1033(17) 0.003316 1014.7 0.1
1026(17) 0.003438 1014.1 0.1
1024(17) 0.00364 1013.6 0.2
965(17) 0.00366 1013.0 0.2
1037(17) 0.003282 1012.4 0.2
993(17) 0.003476 1011.8 0.2
1036(17) 0.003446 1011.2 0.2
1010(17) 0.00367 1010.6 0.2
1022(17) 0.003363 1010.0 0.2
1011(17) 0.003360 1009.4 0.2
1038(17) 0.003357 1008.9 0.2
1030(17) 0.003461 1008.3 0.2
1009(17) 0.00367 1007.7 0.2
1068(18) 0.003200 1007.1 0.2
986(17) 0.003353 1006.5 0.2
994(17) 0.003472 1005.9 0.2
1053(17) 0.003438 1005.3 0.2
993(16) 0.00375 1004.7 0.2
969(17) 0.00361 1004.1 0.2
978(17) 0.003398 1003.6 0.2
1008(17) 0.003416 1003.0 0.2
1001(17) 0.00367 1002.4 0.2
1010(16) 0.00368 1001.8 0.2
1014(17) 0.003448 1001.2 0.2
1003(18) 0.003260 1000.6 0.2
1003(17) 0.00354 1000.0 0.2
1041(17) 0.00354 999.4 0.2
1047(17) 0.00353 998.9 0.2
1000(17) 0.003496 998.3 0.2
1010(18) 0.003206 997.7 0.2
1009(17) 0.003486 997.1 0.3
986(16) 0.00381 996.5 0.3
952(16) 0.00388 995.9 1.4
961(17) 0.00359 995.3 1.4
1024(18) 0.003133 994.7 1.4
1012(17) 0.003443 994.1 1.4
957(16) 0.00390 993.6 1.5
986(16) 0.00371 993.0 1.5
977(17) 0.003464 992.4 1.5
978(17) 0.003345 991.8 1.5
960(17) 0.00354 991.2 1.6
972(16) 0.00382 990.6 1.6
971(16) 0.00375 990.0 1.6
999(17) 0.003479 989.4 1.6
988(17) 0.003459 988.9 1.7
1011(17) 0.003446 988.3 1.7
989(16) 0.00378 987.7 1.7
991(17) 0.00358 987.1 1.8
957(17) 0.00360 986.5 1.8
951(17) 0.00361 985.9 1.8
952(16) 0.00372 985.3 1.9
977(16) 0.00382 984.7 1.9
1008(17) 0.003481 984.2 2.0
987(17) 0.00351 983.6 2.0
968(17) 0.00354 983.0 2.0
999(17) 0.003471 982.4 2.1
979(16) 0.00378 981.8 2.1
979(17) 0.00360 981.2 2.2
975(17) 0.003461 980.6 2.2
955(17) 0.00359 980.0 2.3
962(16) 0.00374 979.4 2.3
999(16) 0.00373 978.9 2.4
989(17) 0.00356 978.3 2.4
976(17) 0.003428 977.7 2.5
973(17) 0.00354 977.1 2.6
1034(17) 0.003472 976.5 2.6
997(16) 0.00371 975.9 2.7
963(17) 0.00362 975.3 2.8
977(17) 0.003347 974.7 2.8
970(17) 0.00357 974.2 2.9
1000(17) 0.00362 973.6 3.0
931(16) 0.00400 973.0 3.0
987(17) 0.003463 972.4 3.1
956(17) 0.003370 971.8 3.2
975(17) 0.00352 971.2 3.3
929(16) 0.00392 970.6 3.4
947(16) 0.00392 970.0 3.5
944(17) 0.00361 969.4 3.6
957(17) 0.003279 968.9 3.7
962(17) 0.00358 968.3 3.8
973(16) 0.00380 967.7 3.9
1004(16) 0.00369 967.1 4.0
968(17) 0.00364 966.5 4.2
960(17) 0.003382 965.9 4.3
974(17) 0.003463 965.3 4.5
942(16) 0.00388 964.7 4.6
963(16) 0.00378 964.2 4.8
953(17) 0.00365 963.6 5.0
982(17) 0.003329 963.0 5.2
962(17) 0.00357 962.4 5.4
957(16) 0.00390 961.8 5.6
935(16) 0.00387 961.2 5.8
988(17) 0.00354 960.6 6.1
976(17) 0.003372 960.0 6.4
961(17) 0.00356 959.4 6.7
1013(17) 0.00367 958.9 7.0
974(17) 0.00364 958.3 7.4
972(17) 0.003484 957.7 7.8
942(17) 0.00360 957.1 8.2
973(17) 0.00355 956.5 8.7
1006(16) 0.00368 955.9 9.3
987(17) 0.00355 955.3 9.8
942(17) 0.00364 954.7 10.5
932(17) 0.00360 954.2 11.1
913(16) 0.00380 953.6 11.9
942(16) 0.00392 953.0 12.7
966(17) 0.00362 952.4 13.5
947(17) 0.00356 951.8 14.5
945(16) 0.00368 951.2 15.5
958(16) 0.00376 950.6 16.5
908(16) 0.00409 950.0 17.6
953(16) 0.00370 949.4 18.8
959(17) 0.003497 948.9 20.0
972(17) 0.00356 948.3 21.3
985(16) 0.00371 947.7 22.6
1011(16) 0.00368 947.1 23.9
965(17) 0.00356 946.5 25.2
941(17) 0.00351 945.9 26.5
1013(17) 0.003398 945.3 27.8
1046(17) 0.003469 944.7 29.1
985(16) 0.00380 944.2 30.2
987(17) 0.003460 943.6 31.3
970(17) 0.003421 943.0 32.3
987(17) 0.00353 942.4 33.1
987(16) 0.00373 941.8 33.8
941(16) 0.00394 941.2 34.5
974(17) 0.00353 940.6 35.0
954(17) 0.003450 940.0 35.5
965(17) 0.00361 939.4 35.9
950(16) 0.00384 938.9 36.4
962(16) 0.00386 938.3 36.9
955(17) 0.00356 937.7 37.5
953(17) 0.003377 937.1 38.3
993(17) 0.003448 936.5 39.2
949(16) 0.00388 935.9 40.4
954(16) 0.00388 935.3 41.8
939(16) 0.00369 934.7 43.6
980(17) 0.003338 934.2 45.7
975(17) 0.00353 933.6 48.4
947(16) 0.00394 933.0 51.5
993(16) 0.00368 932.4 55.3
1001(17) 0.003448 931.8 60.0
993(17) 0.003305 931.2 65.5
964(17) 0.00354 930.6 72.3
1027(17) 0.00361 930.0 81.9
1013(17) 0.00360 929.4 92.5
1042(17) 0.003340 928.9 106.5
1029(17) 0.003307 928.3 125.9
1060(18) 0.003260 927.7 154.4
1078(17) 0.003466 927.1 198.0
1153(18) 0.003162 926.5 265.5
1303(19) 0.002632 925.9 368.9
1361(20) 0.002533 925.3 521.1
1574(21) 0.002231 924.7 733.0
1850(22) 0.002004 924.2 1008.0
2080(24) 0.001703 923.6 1336.3
2406(27) 0.001405 923.0 1688.9
2891(29) 0.001175 922.4 2011.3
3169(30) 0.001120 921.8 2224.8
3313(30) 0.001118 921.2 2256.7
3149(30) 0.001092 920.6 2094.0
2704(28) 0.001240 920.0 1796.5
2300(26) 0.001507 919.4 1445.9
1942(23) 0.001864 918.9 1105.4
1648(21) 0.002267 918.3 811.7
1520(21) 0.002240 917.7 579.8
1323(20) 0.002518 917.1 409.6
1257(19) 0.002769 916.5 292.0
1186(18) 0.003120 915.9 214.3
1152(18) 0.003207 915.3 164.0
1090(18) 0.003151 914.7 131.3
1076(18) 0.003083 914.2 109.1
1037(17) 0.003382 913.6 93.3
1009(17) 0.00364 913.0 81.4
1005(16) 0.00371 912.4 71.9
995(17) 0.003457 911.8 64.1
992(17) 0.003298 911.2 57.6
973(16) 0.00367 910.6 52.1
986(16) 0.00377 910.0 47.3
949(16) 0.00393 909.5 43.2
974(17) 0.003490 908.9 39.6
924(17) 0.003464 908.3 36.5
925(16) 0.00377 907.7 33.8
946(16) 0.00394 907.1 31.4
922(16) 0.00399 906.5 29.2
918(16) 0.00381 905.9 27.3
937(17) 0.003476 905.3 25.6
927(16) 0.00371 904.7 24.0
926(16) 0.00401 904.2 22.7
924(16) 0.00391 903.6 21.4
915(16) 0.00383 903.0 20.3
934(17) 0.00358 902.4 19.2
915(16) 0.00373 901.8 18.3
899(16) 0.00415 901.2 17.4
945(16) 0.00383 900.6 16.6
897(16) 0.00389 900.0 15.9
910(16) 0.00375 899.5 15.3
952(17) 0.00361 898.9 14.7
939(16) 0.00396 898.3 14.1
955(16) 0.00371 897.7 13.6
943(17) 0.00358 897.1 13.1
899(16) 0.00387 896.5 12.6
952(17) 0.00365 895.9 12.2
914(16) 0.00406 895.3 11.9
884(16) 0.00404 894.7 11.5
886(16) 0.00384 894.2 11.2
912(16) 0.00378 893.6 10.9
875(16) 0.00409 893.0 10.6
851(15) 0.00438 892.4 10.4
840(16) 0.00416 891.8 10.2
865(16) 0.00401 891.2 10.2
896(16) 0.00384 890.6 10.1
867(16) 0.00412 890.0 10.2
878(15) 0.00423 889.5 10.4
906(16) 0.00372 888.9 10.9
881(16) 0.00382 888.3 11.5
891(16) 0.00391 887.7 12.1
884(16) 0.00415 887.1 12.4
923(16) 0.00402 886.5 12.4
872(16) 0.00400 885.9 11.8
913(17) 0.00363 885.3 11.0
898(16) 0.00390 884.7 10.2
854(15) 0.00431 884.2 9.4
883(15) 0.00422 883.6 8.8
897(16) 0.00389 883.0 8.4
891(16) 0.00371 882.4 8.2
933(17) 0.00366 881.8 8.0
905(16) 0.00408 881.2 7.9
847(15) 0.00439 880.6 7.8
900(16) 0.00385 880.0 7.7
861(16) 0.00380 879.5 7.7
857(16) 0.00416 878.9 7.6
885(15) 0.00423 878.3 7.6
876(15) 0.00421 877.7 7.5
845(16) 0.00416 877.1 7.5
899(17) 0.00366 876.5 7.5
905(16) 0.00383 875.9 7.5
905(16) 0.00412 875.3 7.5
895(16) 0.00408 874.7 7.4
894(16) 0.00388 874.2 7.4
859(16) 0.00374 873.6 7.4
872(16) 0.00387 873.0 7.4
924(16) 0.00404 872.4 7.4
910(16) 0.00401 871.8 7.5
850(16) 0.00405 871.2 7.5
912(17) 0.00362 870.7 7.5
887(16) 0.00389 870.2 7.5
910(16) 0.00408 869.6 7.5
870(15) 0.00424 869.1 7.6
896(16) 0.00386 868.6 7.6
876(16) 0.00378 868.1 7.6
827(15) 0.00418 867.5 7.7
874(15) 0.00428 867.0 7.7
879(16) 0.00409 866.5 7.8
842(16) 0.00414 866.0 7.8
856(16) 0.00400 865.4 7.9
856(16) 0.00408 864.9 8.0
852(15) 0.00436 864.4 8.0
856(16) 0.00413 863.9 8.1
895(16) 0.00386 863.3 8.2
840(16) 0.00403 862.8 8.3
805(15) 0.00446 862.3 8.3
837(15) 0.00445 861.8 8.4
856(16) 0.00403 861.2 8.5
834(16) 0.00412 860.7 8.6
885(16) 0.00399 860.2 8.7
866(15) 0.00425 859.7 8.8
871(15) 0.00427 859.2 8.9
877(16) 0.00387 858.6 9.1
870(16) 0.00374 858.1 9.2
903(16) 0.00381 857.6 9.3
866(16) 0.00416 857.1 9.4
856(15) 0.00434 856.5 9.6
884(16) 0.00388 856.0 9.7
874(16) 0.00368 855.5 9.9
793(15) 0.00441 855.0 10.1
852(15) 0.00434 854.4 10.2
818(15) 0.00450 853.9 10.4
859(16) 0.00408 853.4 10.6
850(16) 0.00385 852.9 10.8
861(16) 0.00401 852.3 11.0
859(15) 0.00436 851.8 11.2
889(16) 0.00416 851.3 11.4
875(16) 0.00404 850.8 11.6
880(16) 0.00368 850.2 11.9
860(16) 0.00409 849.7 12.1
866(15) 0.00431 849.2 12.4
848(15) 0.00433 848.7 12.7
874(16) 0.00403 848.1 13.0
846(16) 0.00395 847.6 13.3
860(16) 0.00408 847.1 13.6
894(16) 0.00414 846.6 13.9
838(15) 0.00440 846.1 14.3
845(16) 0.00411 845.5 14.6
856(16) 0.00387 845.0 15.0
822(15) 0.00429 844.5 15.4
846(15) 0.00439 844.0 15.8
892(16) 0.00414 843.4 16.3
850(16) 0.00411 842.9 16.8
888(16) 0.00375 842.4 17.3
843(15) 0.00424 841.9 17.8
888(15) 0.00420 841.3 18.4
835(15) 0.00427 840.8 19.0
859(16) 0.00398 840.3 19.7
891(16) 0.00379 839.8 20.4
864(16) 0.00416 839.2 21.1
875(15) 0.00425 838.7 21.9
836(15) 0.00420 838.2 22.7
859(16) 0.00395 837.7 23.7
853(16) 0.00402 837.1 24.6
838(15) 0.00430 836.6 25.7
840(15) 0.00443 836.1 26.9
845(16) 0.00409 835.6 28.2
846(16) 0.00396 835.0 29.5
879(16) 0.00388 834.5 31.1
844(15) 0.00426 834.0 32.8
880(15) 0.00421 833.5 34.7
941(17) 0.00366 832.9 36.9
886(16) 0.00380 832.4 39.4
862(16) 0.00412 831.9 42.4
939(16) 0.00385 831.4 46.0
913(16) 0.00411 830.9 50.4
894(16) 0.00389 830.3 55.9
891(16) 0.00370 829.8 62.8
874(16) 0.00397 829.3 71.7
899(16) 0.00410 828.8 82.9
936(16) 0.00396 828.2 97.0
969(17) 0.00364 827.7 114.4
962(17) 0.003444 827.2 135.4
981(17) 0.00357 826.7 160.3
992(16) 0.00373 826.1 189.0
1044(17) 0.00352 825.6 220.7
1062(17) 0.003299 825.1 254.6
1083(18) 0.002992 824.6 288.6
1105(18) 0.003128 824.0 320.1
1133(18) 0.003242 823.5 345.3
1161(18) 0.003151 823.0 360.6
1223(19) 0.002868 822.5 363.4
1248(19) 0.002682 821.9 353.4
1240(19) 0.002850 821.4 333.1
1160(18) 0.003202 820.9 306.0
1128(18) 0.003220 820.4 275.9
1072(18) 0.003198 819.8 245.7
1038(18) 0.003217 819.3 217.5
973(17) 0.00362 818.8 192.5
953(16) 0.00389 818.3 171.3
939(16) 0.00381 817.7 154.3
899(16) 0.00385 817.2 141.2
922(17) 0.00361 816.7 131.9
929(16) 0.00373 816.2 126.0
900(16) 0.00414 815.7 123.1
949(16) 0.00371 815.1 122.8
864(16) 0.00406 814.6 125.0
878(16) 0.00388 814.1 129.3
924(16) 0.00387 813.6 135.8
962(16) 0.00388 813.0 144.6
966(17) 0.00366 812.5 155.8
974(17) 0.003468 812.0 169.9
978(17) 0.003472 811.5 187.1
972(16) 0.00372 810.9 208.2
1044(17) 0.00355 810.4 233.5
1084(18) 0.003226 809.9 263.7
1050(18) 0.003232 809.4 299.5
1096(18) 0.003091 808.8 341.4
1137(18) 0.003199 808.3 390.1
1222(18) 0.003057 807.8 445.7
1280(19) 0.002746 807.3 508.8
1341(20) 0.002563 806.7 579.1
1447(20) 0.002397 806.2 656.5
1555(21) 0.002333 805.7 740.2
1643(21) 0.002257 805.2 829.1
1776(23) 0.001953 804.6 921.2
1870(24) 0.001768 804.1 1014.2
2014(24) 0.001712 803.6 1104.5
2066(24) 0.001793 803.1 1187.7
2222(24) 0.001674 802.6 1258.6
2242(25) 0.001561 802.0 1312.1
2308(27) 0.001412 801.5 1343.4
2215(25) 0.001577 801.0 1349.5
2182(24) 0.001688 800.5 1329.6
2097(24) 0.001772 799.9 1285.9
2038(24) 0.001690 799.4 1222.3
1870(24) 0.001729 798.9 1143.9
1836(23) 0.001879 798.4 1056.0
1760(22) 0.002121 797.8 963.4
1692(21) 0.002178 797.3 870.0
1579(21) 0.002167 796.8 778.9
1497(21) 0.002164 796.3 692.0
1452(20) 0.002391 795.7 610.9
1349(19) 0.002755 795.2 536.6
1332(19) 0.002720 794.7 469.5
1201(19) 0.002893 794.2 409.6
1200(19) 0.002748 793.6 357.0
1148(18) 0.003039 793.1 311.1
1150(18) 0.003216 792.6 271.6
1086(17) 0.003290 792.1 237.8
1035(17) 0.003315 791.5 209.2
1071(18) 0.003070 791.0 185.0
1012(17) 0.003382 790.5 164.7
989(16) 0.00375 790.0 147.5
969(16) 0.00370 789.4 133.2
986(17) 0.003454 788.9 121.0
909(16) 0.00372 788.4 110.7
905(16) 0.00388 787.9 101.9
905(16) 0.00411 787.4 94.3
906(16) 0.00391 786.8 87.6
883(16) 0.00384 786.3 81.8
879(16) 0.00389 785.8 76.7
843(15) 0.00425 785.3 72.1
882(15) 0.00424 784.7 68.0
831(15) 0.00425 784.2 64.2
850(16) 0.00393 783.7 60.8
832(16) 0.00412 783.2 57.7
817(15) 0.00448 782.6 54.9
836(15) 0.00445 782.1 52.2
827(15) 0.00422 781.6 49.8
844(16) 0.00403 781.1 47.5
837(16) 0.00412 780.5 45.4
852(15) 0.00422 780.0 43.5
831(15) 0.00451 779.5 41.6
814(15) 0.00423 779.0 40.0
834(16) 0.00389 778.4 38.4
840(16) 0.00410 777.9 36.9
811(15) 0.00455 777.4 35.5
805(15) 0.00465 776.9 34.2
772(15) 0.00449 776.3 33.0
779(15) 0.00421 775.8 31.9
826(15) 0.00423 775.3 31.1
808(15) 0.00457 774.8 30.1
809(15) 0.00457 774.2 29.2
809(15) 0.00437 773.7 28.3
809(16) 0.00385 773.2 27.5
770(15) 0.00457 772.7 26.8
798(15) 0.00471 772.2 26.0
781(15) 0.00466 771.6 25.4
771(15) 0.00450 771.1 24.7
750(15) 0.00452 770.6 24.1
790(15) 0.00451 770.1 23.6
801(15) 0.00463 769.5 23.0
797(15) 0.00460 769.0 22.6
720(14) 0.00480 768.5 22.1
737(15) 0.00444 768.0 21.7
732(14) 0.00482 767.4 21.3
783(15) 0.00473 766.9 20.9
786(15) 0.00460 766.4 20.6
771(15) 0.00450 765.9 20.3
794(15) 0.00421 765.3 20.0
789(15) 0.00433 764.8 19.8
762(14) 0.00490 764.3 19.6
764(15) 0.00465 763.8 19.4
817(16) 0.00416 763.2 19.2
780(15) 0.00431 762.7 19.1
803(15) 0.00428 762.2 19.0
764(14) 0.00487 761.7 18.9
761(15) 0.00474 761.1 18.9
767(15) 0.00460 760.6 18.9
788(15) 0.00434 760.1 18.9
787(15) 0.00454 759.6 19.0
776(14) 0.00480 759.1 19.1
766(15) 0.00458 758.5 19.3
747(15) 0.00458 758.0 19.5
734(15) 0.00476 757.5 19.8
735(14) 0.00482 757.0 20.2
779(14) 0.00478 756.4 20.6
754(15) 0.00446 755.9 21.2
740(15) 0.00454 755.4 21.9
763(15) 0.00448 754.9 22.8
741(14) 0.00495 754.3 24.0
770(14) 0.00482 753.8 25.6
779(15) 0.00449 753.3 28.2
752(15) 0.00438 752.8 33.2
768(15) 0.00446 752.2 43.2
788(15) 0.00464 751.7 63.3
817(15) 0.00456 751.2 100.5
897(16) 0.00392 750.7 160.8
924(17) 0.00361 750.1 244.9
1013(17) 0.003459 749.6 342.2
1103(17) 0.003327 749.1 429.3
1254(18) 0.002972 748.6 474.6
1377(20) 0.002559 748.0 456.9
1249(20) 0.002616 747.5 385.5
1050(17) 0.003348 747.0 290.6
876(15) 0.00425 746.5 200.4
832(15) 0.00444 745.9 131.2
817(15) 0.00428 745.4 86.6
802(16) 0.00412 744.9 62.3
763(15) 0.00454 744.4 51.1
765(14) 0.00486 743.9 47.2
767(14) 0.00478 743.3 46.9
739(14) 0.00477 742.8 48.6
797(16) 0.00400 742.3 51.3
758(15) 0.00460 741.8 54.9
768(14) 0.00489 741.2 59.3
785(15) 0.00464 740.7 64.5
844(16) 0.00414 740.2 70.6
825(16) 0.00406 739.7 77.4
803(15) 0.00426 739.1 85.2
838(15) 0.00442 738.6 93.7
790(15) 0.00465 738.1 103.1
830(16) 0.00412 737.6 113.3
845(16) 0.00398 737.0 124.1
860(16) 0.00404 736.5 135.4
828(15) 0.00454 736.0 147.2
858(16) 0.00415 735.5 159.2
910(16) 0.00369 734.9 171.1
880(16) 0.00391 734.4 182.6
924(16) 0.00384 733.9 193.1
895(16) 0.00416 733.4 202.2
895(16) 0.00393 732.8 209.4
905(16) 0.00376 732.3 214.3
917(16) 0.00369 731.8 216.6
901(16) 0.00400 731.3 216.0
910(16) 0.00408 730.7 212.5
903(16) 0.00384 730.2 206.5
907(16) 0.00381 729.7 198.4
894(16) 0.00390 729.2 188.5
823(15) 0.00437 728.7 177.3
885(15) 0.00420 728.1 165.4
901(16) 0.00388 727.6 153.2
841(16) 0.00397 727.1 141.0
846(16) 0.00404 726.6 129.0
826(15) 0.00440 726.0 117.4
816(15) 0.00453 725.5 106.5
829(15) 0.00419 725.0 96.2
772(15) 0.00432 724.5 86.7
783(15) 0.00444 723.9 78.0
767(14) 0.00486 723.4 70.1
792(15) 0.00468 722.9 63.0
775(15) 0.00448 722.4 56.6
725(15) 0.00452 721.8 50.9
742(14) 0.00482 721.3 45.9
776(15) 0.00475 720.8 41.5
773(14) 0.00479 720.3 37.6
755(15) 0.00474 719.7 34.3
769(15) 0.00423 719.2 31.3
740(15) 0.00468 718.7 28.8
731(14) 0.00509 718.2 26.6
749(14) 0.00494 717.6 24.7
748(15) 0.00461 717.1 23.0
682(14) 0.00496 716.6 21.5
729(14) 0.00479 716.1 20.2
714(14) 0.00521 715.6 19.1
715(14) 0.00503 715.0 18.1
711(14) 0.00486 714.5 17.2
715(15) 0.00454 714.0 16.3
728(15) 0.00464 713.5 15.6
742(14) 0.00503 712.9 14.9
740(14) 0.00485 712.4 14.3
719(14) 0.00485 711.9 13.8
707(15) 0.00473 711.4 13.3
740(15) 0.00470 710.8 12.8
726(14) 0.00514 710.3 12.3
707(14) 0.00494 709.8 11.9
715(15) 0.00475 709.3 11.6
730(15) 0.00454 708.7 11.2
720(14) 0.00483 708.2 10.9
728(14) 0.00512 707.7 10.7
721(14) 0.00497 707.2 10.5
737(15) 0.00460 706.6 10.3
745(15) 0.00459 706.1 10.1
710(14) 0.00501 705.6 9.9
701(14) 0.00528 705.1 9.8
710(14) 0.00485 704.5 9.8
729(15) 0.00459 704.0 9.7
704(14) 0.00502 703.5 9.8
704(14) 0.00516 703.0 9.9
687(14) 0.00543 702.4 10.0
744(15) 0.00447 701.9 10.2
684(14) 0.00495 701.4 10.5
703(14) 0.00490 700.9 10.9
729(14) 0.00488 700.4 11.3
667(13) 0.00560 699.8 11.8
692(14) 0.00508 699.3 12.3
701(15) 0.00474 698.8 12.9
704(14) 0.00494 698.3 13.5
708(14) 0.00526 697.7 14.2
694(14) 0.00531 697.2 14.8
728(15) 0.00474 696.7 15.3
678(14) 0.00484 696.2 15.7
695(14) 0.00495 695.6 16.0
711(14) 0.00520 695.1 16.0
711(14) 0.00522 694.6 15.8
691(14) 0.00504 694.1 15.4
671(14) 0.00482 693.5 14.9
701(14) 0.00496 693.0 14.2
675(13) 0.00556 692.5 13.4
684(14) 0.00543 692.0 12.5
678(14) 0.00521 691.4 11.7
721(15) 0.00449 690.9 10.8
710(14) 0.00494 690.4 10.0
712(14) 0.00522 689.9 9.3
722(14) 0.00505 689.3 8.6
697(14) 0.00503 688.8 8.0
665(14) 0.00512 688.3 7.4
722(15) 0.00475 687.8 6.9
695(14) 0.00539 687.2 6.5
672(14) 0.00544 686.7 6.1
676(14) 0.00515 686.2 5.8
676(14) 0.00504 685.7 5.5
689(14) 0.00498 685.2 5.3
676(13) 0.00551 684.6 5.1
697(14) 0.00516 684.1 4.9
736(15) 0.00455 683.6 4.8
695(14) 0.00497 683.1 4.6
706(14) 0.00500 682.5 4.5
725(14) 0.00511 682.0 4.4
688(14) 0.00513 681.5 4.3
673(14) 0.00517 681.0 4.2
698(14) 0.00493 680.4 4.1
694(14) 0.00516 679.9 4.1
681(14) 0.00545 679.4 4.0
679(14) 0.00518 678.9 3.9
682(14) 0.00504 678.3 3.9
670(14) 0.00522 677.8 3.8
697(14) 0.00512 677.3 3.8
712(14) 0.00524 676.8 3.7
699(14) 0.00484 676.2 3.7
665(14) 0.00491 675.7 3.7
651(14) 0.00530 675.2 3.6
671(14) 0.00537 674.7 3.6
694(14) 0.00535 674.1 3.6
677(14) 0.00501 673.6 3.6
670(14) 0.00505 673.2 3.6
697(14) 0.00490 672.8 3.5
666(14) 0.00548 672.5 3.5
686(14) 0.00543 672.1 3.5
702(14) 0.00494 671.8 3.5
653(14) 0.00513 671.4 3.5
681(14) 0.00499 671.1 3.5
689(14) 0.00525 670.8 3.6
675(13) 0.00555 670.4 3.6
671(14) 0.00528 670.1 3.6
669(15) 0.00471 669.7 3.6
722(15) 0.00471 669.4 3.7
682(14) 0.00535 669.0 3.7
645(13) 0.00573 668.7 3.8
700(14) 0.00494 668.3 3.8
651(14) 0.00498 668.0 3.9
660(14) 0.00531 667.6 3.9
662(13) 0.00559 667.3 4.0
694(14) 0.00525 666.9 4.1
680(14) 0.00506 666.6 4.1
664(14) 0.00497 666.2 4.2
668(14) 0.00525 665.9 4.8
673(13) 0.00555 665.5 4.9
666(13) 0.00553 665.2 5.0
675(14) 0.00522 664.8 5.1
680(14) 0.00489 664.5 5.2
642(14) 0.00541 664.2 5.3
700(14) 0.00530 663.8 5.5
677(14) 0.00539 663.5 5.6
693(14) 0.00506 663.1 5.7
668(14) 0.00500 662.8 5.9
664(14) 0.00533 662.4 6.0
657(13) 0.00561 662.1 6.1
677(14) 0.00542 661.7 6.3
681(14) 0.00516 661.4 6.4
718(14) 0.00487 661.0 6.5
687(14) 0.00524 660.7 6.7
672(13) 0.00555 660.3 6.8
692(14) 0.00502 660.0 6.9
696(14) 0.00493 659.6 7.0
711(14) 0.00478 659.3 7.0
664(14) 0.00547 658.9 7.1
695(14) 0.00536 658.6 7.1
687(14) 0.00498 658.2 7.2
683(14) 0.00487 657.9 7.2
708(14) 0.00489 657.5 7.2
667(13) 0.00549 657.2 7.2
685(14) 0.00541 656.9 7.1
656(14) 0.00532 656.5 7.1
670(14) 0.00489 656.2 7.0
677(14) 0.00500 655.8 7.0
658(13) 0.00556 655.5 6.9
681(14) 0.00544 655.1 6.8
673(14) 0.00522 654.8 6.7
683(14) 0.00480 654.4 6.6
660(14) 0.00531 654.1 6.5
641(13) 0.00574 653.7 6.4
665(13) 0.00563 653.4 6.3
648(14) 0.00538 653.0 6.2
646(14) 0.00499 652.7 6.1
636(14) 0.00546 652.3 6.0
675(14) 0.00538 652.0 5.9
653(13) 0.00568 651.6 5.9
680(14) 0.00505 651.3 5.8
632(14) 0.00513 650.9 5.7
649(14) 0.00536 650.6 5.7
625(13) 0.00594 650.2 5.6
666(13) 0.00553 649.9 5.6
675(14) 0.00503 649.6 5.6
650(14) 0.00512 649.2 5.6
647(14) 0.00548 648.9 5.6
681(14) 0.00547 648.5 5.7
647(13) 0.00561 648.2 5.7
669(14) 0.00510 647.8 5.8
634(14) 0.00527 647.5 5.9
688(14) 0.00482 647.1 6.0
678(13) 0.00549 646.8 6.1
649(13) 0.00554 646.4 6.3
674(14) 0.00510 646.1 6.5
634(14) 0.00544 645.7 6.7
627(13) 0.00558 645.4 7.0
612(13) 0.00610 645.0 7.4
648(14) 0.00542 644.7 7.7
625(13) 0.00549 644.3 8.2
669(14) 0.00503 644.0 8.7
661(14) 0.00535 643.6 9.3
661(13) 0.00561 643.3 10.0
645(14) 0.00548 643.0 10.8
625(14) 0.00537 642.6 11.8
650(14) 0.00523 642.3 12.9
663(14) 0.00542 641.9 14.3
678(13) 0.00549 641.6 16.0
670(14) 0.00534 641.2 18.0
705(14) 0.00476 640.9 20.7
662(14) 0.00532 640.5 24.4
641(13) 0.00571 640.2 29.7
664(13) 0.00558 639.8 38.3
693(14) 0.00492 639.5 52.6
674(14) 0.00499 639.1 76.3
721(14) 0.00484 638.8 114.2
762(14) 0.00481 638.4 170.6
802(15) 0.00466 638.1 247.6
934(16) 0.00370 637.7 341.8
1001(18) 0.003205 637.4 442.2
1090(18) 0.003166 637.0 528.5
1233(18) 0.002975 636.7 573.2
1262(18) 0.002958 636.3 557.1
1169(19) 0.002914 636.0 487.5
1020(18) 0.003208 635.7 390.8
864(16) 0.00401 635.3 291.6
819(15) 0.00451 635.0 205.4
772(14) 0.00477 634.6 138.9
749(15) 0.00460 634.3 92.4
713(15) 0.00448 633.9 62.4
684(14) 0.00503 633.6 44.1
676(14) 0.00546 633.2 33.1
698(14) 0.00522 632.9 26.4
644(14) 0.00543 632.5 22.0
655(14) 0.00495 632.2 18.8
658(14) 0.00519 631.8 16.5
646(13) 0.00571 631.5 14.6
677(14) 0.00528 631.1 13.0
604(13) 0.00578 630.8 11.7
640(14) 0.00507 630.4 10.6
609(13) 0.00563 630.1 9.7
652(13) 0.00561 629.7 8.9
604(13) 0.00617 629.4 8.2
622(13) 0.00571 629.0 7.6
629(14) 0.00538 628.7 7.0
630(13) 0.00551 628.4 6.6
635(13) 0.00582 628.0 6.2
660(14) 0.00547 627.7 5.8
650(14) 0.00521 627.3 5.5
629(14) 0.00530 627.0 5.2
627(13) 0.00552 626.6 4.9
611(13) 0.00611 626.3 4.7
642(14) 0.00542 625.9 4.5
625(14) 0.00537 625.6 4.3
595(13) 0.00572 625.2 4.1
608(13) 0.00594 624.9 3.9
641(13) 0.00578 624.5 3.8
607(13) 0.00576 624.2 3.6
603(14) 0.00543 623.8 3.5
624(14) 0.00533 623.5 3.4
609(13) 0.00595 623.1 3.3
603(13) 0.00613 622.8 3.2
605(13) 0.00576 622.4 3.1
646(14) 0.00523 622.1 3.0
642(14) 0.00529 621.8 2.9
640(13) 0.00570 621.4 2.8
617(13) 0.00605 621.1 2.7
604(13) 0.00560 620.7 2.7
589(13) 0.00556 620.4 2.6
659(14) 0.00528 620.0 2.6
592(13) 0.00620 619.7 2.5
581(13) 0.00638 619.3 2.5
596(13) 0.00584 619.0 2.4
622(14) 0.00520 618.6 2.4
635(13) 0.00551 618.3 2.3
649(13) 0.00568 617.9 2.3
635(13) 0.00580 617.6 2.2
635(14) 0.00539 617.2 2.2
639(14) 0.00492 616.9 2.2
631(14) 0.00542 616.5 2.1
625(13) 0.00595 616.2 2.1
611(13) 0.00603 615.8 2.1
586(13) 0.00600 615.5 2.1
636(14) 0.00510 615.1 2.0
610(13) 0.00574 614.8 2.0
638(13) 0.00583 614.5 2.0
607(13) 0.00600 614.1 2.0
607(13) 0.00566 613.8 1.9
610(14) 0.00542 613.4 1.9
617(13) 0.00550 613.1 1.9
595(13) 0.00627 612.7 1.9
584(13) 0.00613 612.4 1.9
605(13) 0.00558 612.0 1.9
613(13) 0.00549 611.7 1.9
624(13) 0.00560 611.3 1.9
597(13) 0.00626 611.0 1.9
609(13) 0.00585 610.6 1.9
595(13) 0.00589 610.3 1.9
639(14) 0.00521 609.9 1.8
607(13) 0.00583 609.6 1.8
624(13) 0.00598 609.2 1.9
641(13) 0.00566 608.9 1.9
617(14) 0.00546 608.5 1.9
568(13) 0.00589 608.2 1.9
574(13) 0.00621 607.8 1.9
589(13) 0.00629 607.5 1.9
583(13) 0.00610 607.2 1.9
612(13) 0.00563 606.8 1.9
611(13) 0.00568 606.5 2.0
614(13) 0.00585 606.1 2.0
648(13) 0.00571 605.8 2.0
626(14) 0.00548 605.4 2.1
625(14) 0.00537 605.1 2.1
593(13) 0.00599 604.7 2.2
605(13) 0.00596 604.4 2.2
603(13) 0.00620 604.0 2.3
615(13) 0.00556 603.7 2.4
588(13) 0.00558 603.3 2.5
638(14) 0.00532 603.0 2.6
589(13) 0.00621 602.6 2.8
580(12) 0.00640 602.3 3.0
636(14) 0.00542 601.9 3.2
640(14) 0.00499 601.6 3.6
633(14) 0.00540 601.2 4.2
612(13) 0.00597 600.9 5.0
576(12) 0.00648 600.6 6.5
590(13) 0.00592 600.2 8.8
607(14) 0.00533 599.9 12.3
629(13) 0.00561 599.5 17.4
614(13) 0.00610 599.2 24.0
621(13) 0.00589 598.8 31.9
576(13) 0.00597 598.5 40.1
611(14) 0.00534 598.1 46.7
683(14) 0.00491 597.8 49.8
625(13) 0.00594 597.4 47.9
601(13) 0.00604 597.1 42.0
634(14) 0.00543 596.7 34.0
608(14) 0.00543 596.4 26.0
613(13) 0.00569 596.0 18.9
588(13) 0.00634 595.7 13.4
611(13) 0.00605 595.3 9.5
625(13) 0.00555 595.0 6.9
581(13) 0.00574 594.6 5.3
596(13) 0.00572 594.3 4.3
587(13) 0.00638 593.9 3.7
597(13) 0.00608 593.6 3.3
628(13) 0.00550 593.3 3.0
585(13) 0.00594 592.9 2.8
581(13) 0.00604 592.6 2.6
593(13) 0.00629 592.2 2.5
567(13) 0.00638 591.9 2.4
586(13) 0.00590 591.5 2.3
584(13) 0.00575 591.2 2.2
602(13) 0.00586 590.8 2.1
572(12) 0.00645 590.5 2.1
624(13) 0.00559 590.1 2.0
616(13) 0.00560 589.8 2.0
555(12) 0.00641 589.4 2.0
568(13) 0.00632 589.1 1.9
621(13) 0.00601 588.7 1.9
568(13) 0.00586 588.4 1.9
613(14) 0.00527 588.0 1.9
569(13) 0.00591 587.7 1.8
588(13) 0.00612 587.3 1.8
606(13) 0.00611 587.0 1.8
579(13) 0.00609 586.7 1.8
578(13) 0.00580 586.3 1.8
597(13) 0.00580 586.0 1.8
587(13) 0.00626 585.6 1.8
604(13) 0.00617 585.3 1.8
607(13) 0.00563 584.9 1.8
596(14) 0.00546 584.6 1.8
612(13) 0.00558 584.2 1.8
573(12) 0.00641 583.9 1.8
587(13) 0.00638 583.5 1.8
597(13) 0.00582 583.2 1.8
611(14) 0.00519 582.8 1.8
595(13) 0.00584 582.5 1.8
604(13) 0.00609 582.1 1.8
600(13) 0.00622 581.8 1.8
591(13) 0.00594 581.4 1.8
583(13) 0.00561 581.1 1.8
568(13) 0.00627 580.7 1.8
587(12) 0.00642 580.4 1.8
613(13) 0.00597 580.0 1.8
584(13) 0.00600 579.7 1.9
575(13) 0.00582 579.4 1.9
613(13) 0.00564 579.0 1.9
596(13) 0.00631 578.7 1.9
594(13) 0.00617 578.3 1.9
572(13) 0.00604 578.0 1.9
561(13) 0.00600 577.6 1.9
584(13) 0.00599 577.3 2.0
578(12) 0.00643 576.9 2.0
604(13) 0.00588 576.6 2.0
582(13) 0.00609 576.2 2.0
591(13) 0.00588 575.9 2.0
601(13) 0.00571 575.5 2.0
605(13) 0.00615 575.2 2.1
563(13) 0.00640 574.8 2.1
573(13) 0.00582 574.5 2.1
552(13) 0.00620 574.1 2.1
570(13) 0.00625 573.8 2.2
615(13) 0.00606 573.4 2.2
555(12) 0.00645 573.1 2.2
535(12) 0.00645 572.7 2.2
585(13) 0.00569 572.4 2.3
602(13) 0.00593 572.1 2.3
594(13) 0.00622 571.8 2.4
599(13) 0.00574 571.6 2.4
589(13) 0.00573 571.4 2.4
582(13) 0.00588 571.2 2.5
557(12) 0.00669 570.9 2.5
570(12) 0.00653 570.7 2.5
559(13) 0.00616 570.5 2.6
616(14) 0.00530 570.3 2.6
565(13) 0.00621 570.1 2.7
578(13) 0.00623 569.9 2.7
570(12) 0.00661 569.7 2.7
543(13) 0.00639 569.5 2.8
562(13) 0.00586 569.3 2.8
585(13) 0.00589 569.1 2.9
544(12) 0.00672 568.9 2.9
555(12) 0.00672 568.7 3.0
585(13) 0.00593 568.5 3.0
597(13) 0.00551 568.3 3.1
575(13) 0.00595 568.0 3.2
576(12) 0.00645 567.8 3.2
633(13) 0.00582 567.6 3.3
591(13) 0.00584 567.4 3.3
519(13) 0.00629 567.2 3.4
553(13) 0.00618 567.0 3.5
578(12) 0.00642 566.8 3.5
567(12) 0.00655 566.6 3.6
579(13) 0.00603 566.4 3.7
575(13) 0.00564 566.2 3.8
571(13) 0.00608 566.0 3.9
560(12) 0.00666 565.8 3.9
592(13) 0.00615 565.6 4.0
578(13) 0.00613 565.4 4.1
546(13) 0.00614 565.2 4.2
586(13) 0.00574 564.9 4.3
560(12) 0.00658 564.7 4.4
567(12) 0.00647 564.5 4.6
573(13) 0.00581 564.3 4.7
559(13) 0.00604 564.1 4.8
547(13) 0.00637 563.9 4.9
596(13) 0.00626 563.7 5.1
594(13) 0.00593 563.5 5.2
588(13) 0.00590 563.3 5.4
581(13) 0.00581 563.1 5.5
554(12) 0.00641 562.9 5.7
555(12) 0.00674 562.7 5.9
557(13) 0.00632 562.5 6.1
551(13) 0.00616 562.3 6.3
603(13) 0.00561 562.0 6.5
590(13) 0.00598 561.8 6.7
600(13) 0.00623 561.6 6.9
544(12) 0.00648 561.4 7.2
550(13) 0.00620 561.2 7.5
553(13) 0.00623 561.0 7.8
581(13) 0.00621 560.8 8.1
591(13) 0.00635 560.6 8.5
575(13) 0.00577 560.4 8.8
585(13) 0.00564 560.2 9.3
575(13) 0.00592 560.0 9.7
557(12) 0.00657 559.8 10.2
592(13) 0.00629 559.6 10.7
570(13) 0.00625 559.4 11.3
568(13) 0.00568 559.1 11.9
533(12) 0.00640 558.9 12.6
564(12) 0.00652 558.7 13.4
560(12) 0.00668 558.5 14.2
566(13) 0.00605 558.3 15.1
568(13) 0.00560 558.1 16.1
550(13) 0.00632 557.9 17.2
606(13) 0.00602 557.7 18.4
603(13) 0.00620 557.5 19.6
580(13) 0.00610 557.3 21.0
575(13) 0.00564 557.1 22.5
565(13) 0.00624 556.9 24.1
588(13) 0.00625 556.7 25.8
576(12) 0.00643 556.5 27.7
589(13) 0.00590 556.2 29.7
594(13) 0.00551 556.0 31.8
600(13) 0.00591 555.8 34.1
598(13) 0.00623 555.6 36.4
587(13) 0.00621 555.4 39.0
590(13) 0.00609 555.2 41.6
610(14) 0.00544 555.0 44.4
589(13) 0.00595 554.8 47.3
597(13) 0.00620 554.6 50.3
596(13) 0.00604 554.4 53.5
581(13) 0.00581 554.2 56.7
587(13) 0.00565 554.0 60.0
615(13) 0.00560 553.8 63.3
639(13) 0.00583 553.6 66.7
632(13) 0.00576 553.4 70.0
654(14) 0.00513 553.1 73.3
629(14) 0.00544 552.9 76.6
622(13) 0.00572 552.7 79.7
649(13) 0.00575 552.5 82.7
625(13) 0.00570 552.3 85.4
641(14) 0.00517 552.1 87.8
625(13) 0.00558 551.9 90.0
625(13) 0.00574 551.7 91.7
620(13) 0.00598 551.5 93.0
601(13) 0.00592 551.3 93.9
642(14) 0.00528 551.1 94.3
665(14) 0.00526 550.9 94.2
619(13) 0.00585 550.7 93.6
646(13) 0.00573 550.5 92.5
611(13) 0.00571 550.2 91.0
619(14) 0.00537 550.0 89.1
607(13) 0.00555 549.8 86.9
621(13) 0.00584 549.6 84.3
638(13) 0.00584 549.4 81.5
592(13) 0.00574 549.2 78.5
601(13) 0.00551 549.0 75.3
634(14) 0.00540 548.8 72.0
605(13) 0.00602 548.6 68.7
631(13) 0.00587 548.4 65.3
579(13) 0.00611 548.2 62.0
594(13) 0.00554 548.0 58.7
606(13) 0.00579 547.8 55.5
614(13) 0.00605 547.6 52.3
636(13) 0.00588 547.3 49.2
593(13) 0.00588 547.1 46.3
609(14) 0.00518 546.9 43.4
592(13) 0.00585 546.7 40.7
581(13) 0.00639 546.5 38.1
561(12) 0.00658 546.3 35.7
563(13) 0.00619 546.1 33.4
600(14) 0.00541 545.9 31.2
605(13) 0.00583 545.7 29.2
601(13) 0.00617 545.5 27.3
590(13) 0.00629 545.3 25.5
550(13) 0.00633 545.1 23.8
573(13) 0.00581 544.9 22.3
582(13) 0.00608 544.7 20.9
592(13) 0.00629 544.4 19.6
562(12) 0.00641 544.2 18.4
551(13) 0.00629 544.0 17.3
559(13) 0.00590 543.8 16.3
533(12) 0.00649 543.6 15.4
542(12) 0.00688 543.4 14.6
556(12) 0.00650 543.2 13.8
580(13) 0.00594 543.0 13.1
574(13) 0.00574 542.8 12.5
542(13) 0.00633 542.6 12.0
558(12) 0.00665 542.4 11.5
568(12) 0.00642 542.2 11.0
550(13) 0.00620 542.0 10.6
551(13) 0.00607 541.8 10.3
569(13) 0.00607 541.5 10.0
576(12) 0.00651 541.3 9.7
540(12) 0.00656 541.1 9.5
554(13) 0.00617 540.9 9.3
588(13) 0.00576 540.7 9.3
569(13) 0.00622 540.5 9.2
537(12) 0.00697 540.3 9.1
566(13) 0.00604 540.1 9.1
539(13) 0.00622 539.9 9.2
544(13) 0.00632 539.7 9.3
520(12) 0.00696 539.5 9.5
560(12) 0.00666 539.3 9.8
565(13) 0.00620 539.1 10.2
550(13) 0.00608 538.9 10.9
568(13) 0.00598 538.7 11.7
551(12) 0.00662 538.4 12.9
544(12) 0.00689 538.2 14.4
548(13) 0.00636 538.0 16.4
555(13) 0.00589 537.8 18.9
608(13) 0.00555 537.6 22.0
557(12) 0.00659 537.4 25.7
549(12) 0.00682 537.2 29.9
560(13) 0.00625 537.0 34.7
583(13) 0.00569 536.8 39.7
635(14) 0.00545 536.6 44.7
573(12) 0.00647 536.4 49.3
593(13) 0.00622 536.2 52.9
582(13) 0.00596 536.0 54.8
569(13) 0.00580 535.8 54.7
596(13) 0.00587 535.5 52.7
615(13) 0.00608 535.3 49.0
564(12) 0.00652 535.1 44.2
587(13) 0.00577 534.9 39.0
553(13) 0.00611 534.7 33.8
577(13) 0.00602 534.5 28.9
562(12) 0.00657 534.3 24.5
544(12) 0.00681 534.1 20.6
517(12) 0.00671 533.9 17.3
537(13) 0.00621 533.7 14.6
563(13) 0.00603 533.5 12.4
551(12) 0.00676 533.3 10.7
556(12) 0.00648 533.1 9.3
545(13) 0.00634 532.9 8.2
547(13) 0.00617 532.6 7.4
559(13) 0.00615 532.4 6.7
573(12) 0.00647 532.2 6.2
555(12) 0.00641 532.0 5.7
541(13) 0.00624 531.8 5.3
531(12) 0.00643 531.6 5.0
526(12) 0.00669 531.4 4.8
513(12) 0.00723 531.2 4.5
538(12) 0.00663 531.0 4.3
521(12) 0.00672 530.8 4.1
523(12) 0.00642 530.6 3.9
519(12) 0.00691 530.4 3.8
547(12) 0.00683 530.2 3.6
560(13) 0.00604 530.0 3.5
519(13) 0.00636 529.7 3.4
543(13) 0.00621 529.5 3.3
540(12) 0.00671 529.3 3.1
498(12) 0.00743 529.1 3.0
524(12) 0.00656 528.9 3.0
511(12) 0.00656 528.7 2.9
554(13) 0.00623 528.5 2.8
553(12) 0.00660 528.3 2.7
552(12) 0.00676 528.1 2.6
570(13) 0.00612 527.9 2.6
553(13) 0.00594 527.7 2.5
514(12) 0.00678 527.5 2.4
500(12) 0.00749 527.3 2.4
528(12) 0.00704 527.1 2.3
534(12) 0.00652 526.9 2.3
550(13) 0.00594 526.6 2.2
569(13) 0.00616 526.4 2.2
547(12) 0.00670 526.2 2.1
519(12) 0.00715 526.0 2.1
533(12) 0.00651 525.8 2.1
546(13) 0.00588 525.6 2.0
508(12) 0.00699 525.4 2.0
500(12) 0.00741 525.2 1.9
528(12) 0.00689 525.0 1.9
521(12) 0.00675 524.8 1.9
490(12) 0.00710 524.6 1.8
540(12) 0.00664 524.4 1.8
540(12) 0.00684 524.2 1.8
540(12) 0.00681 524.0 1.8
568(13) 0.00603 523.7 1.7
527(13) 0.00610 523.5 1.7
510(12) 0.00660 523.3 1.7
505(12) 0.00738 523.1 1.6
539(12) 0.00674 522.9 1.6
537(12) 0.00645 522.7 1.6
527(12) 0.00644 522.5 1.6
531(12) 0.00660 522.3 1.6
532(12) 0.00696 522.1 1.5
509(12) 0.00720 521.9 1.5
510(12) 0.00677 521.7 1.5
546(13) 0.00612 521.5 1.5
544(13) 0.00637 521.3 1.5
492(11) 0.00762 521.1 1.4
531(12) 0.00674 520.8 1.4
549(13) 0.00605 520.6 1.4
515(12) 0.00658 520.4 1.4
536(12) 0.00656 520.2 1.4
506(12) 0.00737 520.0 1.4
546(12) 0.00647 519.8 1.3
505(12) 0.00695 519.6 1.3
508(12) 0.00685 519.4 1.3
515(12) 0.00692 519.2 1.3
519(12) 0.00715 519.0 1.3
522(12) 0.00664 518.8 1.3
483(12) 0.00701 518.6 1.3
517(12) 0.00657 518.4 1.3
515(12) 0.00698 518.2 1.2
510(12) 0.00735 517.9 1.2
513(12) 0.00680 517.7 1.2
539(13) 0.00597 517.5 1.2
551(13) 0.00631 517.3 1.2
545(12) 0.00667 517.1 1.2
534(12) 0.00699 516.9 1.2
517(12) 0.00662 516.7 1.2
490(12) 0.00678 516.5 1.2
528(12) 0.00643 516.3 1.1
503(12) 0.00735 516.1 1.1
507(12) 0.00733 515.9 1.1
504(12) 0.00701 515.7 1.1
549(13) 0.00570 515.5 1.1
514(12) 0.00676 515.3 1.1
530(12) 0.00689 515.0 1.1
502(12) 0.00739 514.8 1.1
518(12) 0.00674 514.6 1.1
527(13) 0.00609 514.4 1.1
515(12) 0.00680 514.2 1.1
483(11) 0.00767 514.0 1.1
530(12) 0.00688 513.8 1.1
523(12) 0.00673 513.6 1.1
509(13) 0.00635 513.4 1.0
500(12) 0.00688 513.2 1.0
497(12) 0.00751 513.0 1.0
528(12) 0.00677 512.8 1.0
529(12) 0.00645 512.6 1.0
521(13) 0.00627 512.4 1.0
508(12) 0.00692 512.2 1.0
508(12) 0.00733 511.9 1.0
511(12) 0.00711 511.7 1.0
536(13) 0.00639 511.5 1.0
497(12) 0.00678 511.3 1.0
526(12) 0.00659 511.1 1.0
535(12) 0.00695 510.9 1.0
529(12) 0.00674 510.7 1.0
531(12) 0.00650 510.5 1.0
490(12) 0.00723 510.3 1.0
545(13) 0.00638 510.2 1.0
526(12) 0.00705 510.1 1.0
499(12) 0.00706 509.9 1.0
501(12) 0.00690 509.8 1.0
475(12) 0.00729 509.6 1.0
497(12) 0.00699 509.5 1.0
512(12) 0.00729 509.4 1.0
488(12) 0.00711 509.2 1.0
531(12) 0.00649 509.1 0.8
521(12) 0.00677 508.9 0.8
521(12) 0.00691 508.8 0.8
519(12) 0.00718 508.7 0.8
515(12) 0.00660 508.5 0.8
510(13) 0.00635 508.4 0.8
497(12) 0.00681 508.2 0.8
508(12) 0.00716 508.1 0.8
513(12) 0.00728 507.9 0.8
520(12) 0.00677 507.8 0.8
494(12) 0.00667 507.7 0.8
501(12) 0.00703 507.5 0.9
512(12) 0.00726 507.4 0.9
501(12) 0.00743 507.2 0.9
468(12) 0.00731 507.1 0.9
497(12) 0.00647 507.0 0.9
506(12) 0.00702 506.8 0.9
507(12) 0.00732 506.7 0.9
498(12) 0.00754 506.5 0.9
505(12) 0.00710 506.4 0.9
503(12) 0.00654 506.3 0.9
511(12) 0.00663 506.1 0.9
492(11) 0.00761 506.0 0.9
508(12) 0.00717 505.8 0.9
537(12) 0.00647 505.7 0.9
499(12) 0.00697 505.6 0.9
540(12) 0.00645 505.4 1.0
521(12) 0.00713 505.3 1.0
500(12) 0.00728 505.1 1.0
510(12) 0.00695 505.0 1.0
518(12) 0.00642 504.8 1.0
483(12) 0.00723 504.7 1.0
507(12) 0.00733 504.6 1.0
506(12) 0.00713 504.4 1.1
515(12) 0.00675 504.3 1.1
496(12) 0.00677 504.1 1.1
512(12) 0.00665 504.0 1.1
491(12) 0.00753 503.9 1.2
493(12) 0.00717 503.7 1.2
510(12) 0.00674 503.6 1.2
519(12) 0.00650 503.4 1.3
521(12) 0.00694 503.3 1.3
499(12) 0.00749 503.2 1.4
525(12) 0.00649 503.0 1.4
523(13) 0.00640 502.9 1.5
525(13) 0.00640 502.7 1.5
519(12) 0.00691 502.6 1.6
538(12) 0.00689 502.5 1.6
493(12) 0.00712 502.3 1.7
519(13) 0.00640 502.2 1.9
507(12) 0.00699 502.0 2.0
524(12) 0.00697 501.9 2.1
532(12) 0.00699 501.8 2.2
496(12) 0.00669 501.6 2.3
503(12) 0.00663 501.5 2.4
530(12) 0.00654 501.3 2.5
511(12) 0.00713 501.2 2.6
464(11) 0.00804 501.0 2.7
496(12) 0.00700 500.9 2.8
505(12) 0.00657 500.8 2.9
518(12) 0.00676 500.6 3.1
544(12) 0.00675 500.5 3.2
515(12) 0.00723 500.3 3.3
506(12) 0.00701 500.2 3.4
487(12) 0.00672 500.1 3.5
494(12) 0.00693 499.9 4.3
506(12) 0.00740 499.8 4.4
505(12) 0.00730 499.6 4.6
515(12) 0.00676 499.5 4.7
523(13) 0.00607 499.4 4.8
503(12) 0.00696 499.2 4.9
525(12) 0.00705 499.1 5.0
530(12) 0.00680 498.9 5.0
525(12) 0.00658 498.8 5.1
533(13) 0.00621 498.7 5.2
507(12) 0.00682 498.5 5.2
507(12) 0.00736 498.4 5.2
514(12) 0.00705 498.2 5.2
470(11) 0.00772 498.1 5.2
502(12) 0.00664 497.9 5.2
533(13) 0.00631 497.8 5.2
500(12) 0.00742 497.7 5.1
503(12) 0.00718 497.5 5.1
480(12) 0.00727 497.4 5.1
503(12) 0.00665 497.2 5.0
491(12) 0.00704 497.1 5.0
488(11) 0.00757 497.0 4.9
510(12) 0.00693 496.8 4.8
522(12) 0.00651 496.7 4.8
523(12) 0.00645 496.5 4.8
527(12) 0.00662 496.4 4.7
535(12) 0.00695 496.3 4.7
514(12) 0.00701 496.1 4.7
496(12) 0.00682 496.0 4.6
511(12) 0.00656 495.8 4.6
526(12) 0.00671 495.7 4.6
480(11) 0.00773 495.6 4.6
504(12) 0.00686 495.4 4.6
523(13) 0.00629 495.3 4.6
511(12) 0.00664 495.1 4.7
523(12) 0.00693 495.0 4.7
512(12) 0.00726 494.8 4.7
512(12) 0.00663 494.7 4.8
494(12) 0.00680 494.6 4.9
511(12) 0.00673 494.4 5.0
475(11) 0.00757 494.3 5.0
525(12) 0.00711 494.1 5.1
511(12) 0.00678 494.0 5.3
465(12) 0.00721 493.9 5.4
500(12) 0.00692 493.7 5.5
500(12) 0.00743 493.6 5.7
492(11) 0.00762 493.4 5.9
485(12) 0.00720 493.3 6.1
494(12) 0.00647 493.2 6.3
499(12) 0.00706 493.0 6.5
497(12) 0.00751 492.9 6.8
510(12) 0.00723 492.7 7.1
499(12) 0.00707 492.6 7.4
506(13) 0.00634 492.5 7.8
507(12) 0.00690 492.3 8.3
479(11) 0.00774 492.2 8.8
479(11) 0.00780 492.0 9.4
480(12) 0.00733 491.9 10.0
504(12) 0.00652 491.8 10.7
484(12) 0.00735 491.6 11.5
501(12) 0.00739 491.5 12.4
474(11) 0.00777 491.3 14.3
486(12) 0.00715 491.2 15.4
489(12) 0.00675 491.0 16.7
478(11) 0.00760 490.9 18.1
479(11) 0.00770 490.8 19.7
505(12) 0.00717 490.6 21.5
513(12) 0.00681 490.5 23.4
523(13) 0.00640 490.3 25.4
500(12) 0.00673 490.2 27.7
525(12) 0.00716 490.1 30.0
477(12) 0.00750 489.9 32.6
500(12) 0.00691 489.8 35.2
547(13) 0.00622 489.6 38.0
517(12) 0.00674 489.5 40.8
522(12) 0.00717 489.4 43.7
528(12) 0.00670 489.2 46.5
524(12) 0.00646 489.1 49.3
501(12) 0.00679 488.9 51.8
513(12) 0.00671 488.8 54.2
551(12) 0.00678 488.7 56.2
508(12) 0.00682 488.5 57.8
523(13) 0.00629 488.4 58.9
539(12) 0.00640 488.2 59.5
550(12) 0.00651 488.1 59.6
538(12) 0.00691 487.9 59.2
528(12) 0.00650 487.8 58.4
535(13) 0.00620 487.7 57.3
508(12) 0.00700 487.5 55.9
538(12) 0.00676 487.4 54.4
530(12) 0.00706 487.2 52.8
499(12) 0.00704 487.1 51.2
509(12) 0.00664 487.0 49.7
538(12) 0.00644 486.8 48.5
523(12) 0.00695 486.7 47.4
525(12) 0.00701 486.5 46.7
533(12) 0.00648 486.4 46.4
520(13) 0.00633 486.3 46.6
504(12) 0.00701 486.1 47.4
525(12) 0.00704 486.0 49.2
526(12) 0.00701 485.8 52.3
529(12) 0.00674 485.7 57.6
554(13) 0.00577 485.6 66.1
550(12) 0.00646 485.4 79.5
571(12) 0.00652 485.3 99.6
579(13) 0.00636 485.1 128.0
616(13) 0.00557 485.0 165.8
659(14) 0.00476 484.8 212.5
691(14) 0.00495 484.7 264.9
729(14) 0.00512 484.6 317.1
797(15) 0.00466 484.4 358.9
867(16) 0.00407 484.3 379.2
912(17) 0.00359 484.1 372.4
842(15) 0.00418 484.0 344.4
765(14) 0.00485 483.9 307.6
686(14) 0.00523 483.7 273.9
656(14) 0.00517 483.6 251.6
680(14) 0.00493 483.4 245.8
686(14) 0.00515 483.3 259.2
715(14) 0.00520 483.2 292.4
797(15) 0.00454 483.0 344.1
872(16) 0.00398 482.9 411.4
955(17) 0.00355 482.7 489.4
1027(17) 0.003393 482.6 570.4
1161(18) 0.003204 482.5 643.1
1237(19) 0.002848 482.3 692.9
1236(19) 0.002780 482.2 707.0
1152(18) 0.002991 482.0 680.6
1065(17) 0.003301 481.9 620.6
997(16) 0.00373 481.8 540.8
967(17) 0.00352 481.6 454.5
839(16) 0.00407 481.5 371.2
809(15) 0.00426 481.3 296.6
688(14) 0.00523 481.2 233.3
683(14) 0.00542 481.0 182.2
641(14) 0.00519 480.9 142.5
587(13) 0.00576 480.8 112.6
595(13) 0.00563 480.6 91.3
573(13) 0.00628 480.5 75.3
582(13) 0.00636 480.3 63.6
541(12) 0.00643 480.2 55.0
523(13) 0.00626 480.1 48.5
573(13) 0.00575 479.9 43.5
552(12) 0.00658 479.8 39.4
540(12) 0.00684 479.6 36.0
544(13) 0.00634 479.5 33.2
477(12) 0.00684 479.4 30.7
485(12) 0.00711 479.2 28.6
541(12) 0.00677 479.1 26.8
501(12) 0.00734 478.9 25.2
486(12) 0.00722 478.8 23.7
497(12) 0.00642 478.7 22.5
488(12) 0.00710 478.5 21.4
492(12) 0.00736 478.4 20.4
469(11) 0.00771 478.2 19.5
486(12) 0.00717 478.1 18.7
489(12) 0.00670 477.9 18.0
516(12) 0.00670 477.8 17.4
471(11) 0.00788 477.7 16.8
515(12) 0.00711 477.5 16.3
478(12) 0.00735 477.4 15.9
488(12) 0.00663 477.2 15.5
478(12) 0.00735 477.1 15.2
510(12) 0.00730 477.0 14.8
483(12) 0.00747 476.8 14.6
492(12) 0.00679 476.7 14.3
452(12) 0.00718 476.5 14.1
447(11) 0.00775 476.4 14.0
498(12) 0.00752 476.3 13.8
491(12) 0.00734 476.1 13.7
500(12) 0.00673 476.0 13.6
485(12) 0.00699 475.8 13.6
477(12) 0.00719 475.7 13.5
448(11) 0.00830 475.6 13.5
482(12) 0.00746 475.4 13.5
451(11) 0.00778 475.3 13.6
479(12) 0.00712 475.1 13.6
512(12) 0.00684 475.0 13.7
483(11) 0.00772 474.8 13.8
469(12) 0.00723 474.7 13.9
456(12) 0.00734 474.6 14.1
488(12) 0.00716 474.4 14.3
503(12) 0.00718 474.3 14.5
484(11) 0.00764 474.1 14.7
475(12) 0.00744 474.0 14.9
501(12) 0.00672 473.9 15.2
501(12) 0.00691 473.7 15.5
488(12) 0.00734 473.6 15.8
465(11) 0.00795 473.4 16.2
482(12) 0.00706 473.3 16.6
497(12) 0.00667 473.2 17.0
478(12) 0.00736 473.0 17.4
480(11) 0.00763 472.9 17.9
440(11) 0.00847 472.7 18.4
462(12) 0.00737 472.6 19.0
452(12) 0.00741 472.5 19.6
475(12) 0.00732 472.3 20.3
446(11) 0.00831 472.2 21.1
469(11) 0.00803 472.0 21.9
490(12) 0.00729 471.9 22.7
475(12) 0.00703 471.8 23.7
491(12) 0.00706 471.6 24.7
452(11) 0.00829 471.5 25.8
477(11) 0.00774 471.3 27.1
477(12) 0.00737 471.2 28.4
491(12) 0.00658 471.0 29.9
490(12) 0.00712 470.9 31.5
487(11) 0.00765 470.8 33.2
460(11) 0.00797 470.6 35.1
499(12) 0.00702 470.5 37.3
497(12) 0.00653 470.3 39.6
500(12) 0.00668 470.2 42.2
491(11) 0.00757 470.1 45.1
472(11) 0.00785 469.9 48.4
495(12) 0.00696 469.8 52.0
497(12) 0.00666 469.6 56.1
524(12) 0.00654 469.5 60.9
507(12) 0.00739 469.4 66.3
539(12) 0.00666 469.2 72.7
519(12) 0.00680 469.1 80.4
525(12) 0.00653 468.9 89.8
569(13) 0.00609 468.8 101.6
583(12) 0.00644 468.7 116.6
622(13) 0.00566 468.5 136.1
621(13) 0.00549 468.4 161.5
653(14) 0.00517 468.2 194.8
661(14) 0.00526 468.1 238.0
689(14) 0.00544 467.9 293.2
760(15) 0.00466 467.8 362.2
884(16) 0.00383 467.7 446.5
1000(17) 0.003406 467.5 546.3
1106(18) 0.003128 467.4 660.6
1206(18) 0.003083 467.2 786.2
1371(20) 0.002567 467.1 917.1
1559(22) 0.002128 467.0 1043.6
1659(22) 0.002108 466.8 1151.9
1763(22) 0.002030 466.7 1225.9
1748(22) 0.002123 466.5 1251.7
1631(22) 0.002118 466.4 1224.0
1603(22) 0.002041 466.3 1148.8
1458(21) 0.002370 466.1 1040.7
1311(19) 0.002793 466.0 915.7
1209(18) 0.003072 465.8 787.4
1072(18) 0.003195 465.7 665.1
1001(17) 0.003325 465.6 554.6
937(16) 0.00376 465.4 459.1
875(15) 0.00419 465.3 379.6
821(15) 0.00450 465.1 315.8
784(15) 0.00431 465.0 266.5
719(15) 0.00450 464.8 230.2
738(15) 0.00468 464.7 205.2
726(14) 0.00506 464.6 190.4
726(14) 0.00510 464.4 185.0
688(14) 0.00503 464.3 189.1
686(14) 0.00477 464.1 203.7
737(15) 0.00473 464.0 229.6
766(14) 0.00481 463.9 268.5
781(14) 0.00481 463.7 321.8
870(16) 0.00405 463.6 389.6
926(17) 0.003485 463.4 470.9
991(17) 0.003432 463.3 561.9
1109(17) 0.003346 463.2 655.8
1233(18) 0.003018 463.0 741.6
1364(20) 0.002569 462.9 804.3
1390(20) 0.002387 462.7 828.8
1338(20) 0.002620 462.6 807.8
1392(19) 0.002653 462.5 746.5
1195(18) 0.003043 462.3 658.9
1028(17) 0.003386 462.2 560.3
918(16) 0.00367 462.0 462.7
823(15) 0.00416 461.9 373.6
735(14) 0.00504 461.7 296.7
680(14) 0.00532 461.6 233.6
645(14) 0.00528 461.5 183.9
630(14) 0.00521 461.3 145.9
576(13) 0.00607 461.2 117.7
563(12) 0.00658 461.0 97.1
595(13) 0.00579 460.9 82.0
526(12) 0.00655 460.8 70.8
510(12) 0.00652 460.6 62.4
513(12) 0.00702 460.5 55.8
497(12) 0.00743 460.3 50.5
480(12) 0.00723 460.2 46.1
485(12) 0.00687 460.1 42.4
485(12) 0.00719 459.9 39.2
490(12) 0.00727 459.8 36.3
499(12) 0.00747 459.6 33.8
487(12) 0.00717 459.5 31.6
488(12) 0.00703 459.4 29.6
490(12) 0.00721 459.2 27.8
496(12) 0.00732 459.1 26.2
531(12) 0.00700 458.9 24.7
501(12) 0.00681 458.8 23.4
459(12) 0.00724 458.7 22.1
452(11) 0.00768 458.5 21.0
469(11) 0.00778 458.4 20.0
458(11) 0.00811 458.2 19.0
447(11) 0.00786 458.1 18.1
455(12) 0.00736 457.9 17.3
468(11) 0.00776 457.8 16.6
476(11) 0.00774 457.7 15.9
427(11) 0.00860 457.5 15.2
422(11) 0.00823 457.4 14.6
484(12) 0.00644 457.2 14.0
467(11) 0.00764 457.1 13.5
492(12) 0.00755 457.0 13.0
473(11) 0.00777 456.8 12.5
442(11) 0.00789 456.7 12.1
459(12) 0.00703 456.5 11.7
465(11) 0.00781 456.4 11.3
484(11) 0.00770 456.3 10.9
438(11) 0.00850 456.1 10.6
467(12) 0.00751 456.0 10.2
459(12) 0.00713 455.8 9.9
422(11) 0.00820 455.7 9.6
438(11) 0.00859 455.6 9.3
474(11) 0.00771 455.4 9.1
466(11) 0.00761 455.3 8.8
461(12) 0.00723 455.1 8.5
430(11) 0.00796 455.0 8.3
443(11) 0.00830 454.8 8.1
439(11) 0.00829 454.7 7.9
458(11) 0.00773 454.6 7.7
453(12) 0.00755 454.4 7.5
453(11) 0.00777 454.3 7.3
457(11) 0.00811 454.1 7.1
430(11) 0.00851 454.0 6.9
480(12) 0.00721 453.9 6.8
462(12) 0.00737 453.7 6.6
426(11) 0.00825 453.6 6.5
452(11) 0.00828 453.4 6.3
451(11) 0.00763 453.3 6.2
425(11) 0.00804 453.2 6.0
428(11) 0.00790 453.0 5.9
423(11) 0.00823 452.9 5.8
442(11) 0.00847 452.7 5.8
435(11) 0.00785 452.6 5.7
427(11) 0.00797 452.5 5.6
457(11) 0.00777 452.3 5.5
451(11) 0.00818 452.2 5.4
441(11) 0.00840 452.0 5.3
480(12) 0.00721 451.9 5.2
458(12) 0.00732 451.7 5.1
444(11) 0.00798 451.6 5.0
467(11) 0.00790 451.5 4.9
465(11) 0.00797 451.3 4.8
482(12) 0.00713 451.2 4.7
458(12) 0.00719 451.0 4.7
459(12) 0.00750 450.9 4.6
468(11) 0.00786 450.8 4.6
447(11) 0.00833 450.6 4.5
407(11) 0.00887 450.5 4.5
449(12) 0.00717 450.3 4.4
429(11) 0.00834 450.2 4.3
454(11) 0.00809 450.1 4.3
444(11) 0.00838 449.9 4.2
445(11) 0.00775 449.8 4.2
464(12) 0.00671 449.6 4.1
439(11) 0.00808 449.5 4.1
449(11) 0.00811 449.4 4.0
452(11) 0.00823 449.2 4.0
441(11) 0.00791 449.1 3.9
439(11) 0.00763 448.9 4.5
438(11) 0.00806 448.8 4.4
450(11) 0.00826 448.7 4.4
464(11) 0.00791 448.5 4.4
445(11) 0.00773 448.4 4.3
453(12) 0.00729 448.2 4.3
478(12) 0.00728 448.1 4.3
448(11) 0.00832 447.9 4.2
455(11) 0.00800 447.8 4.2
455(11) 0.00768 447.7 4.2
452(12) 0.00747 447.5 4.2
446(11) 0.00788 447.4 4.1
444(11) 0.00836 447.3 4.1
457(11) 0.00774 447.1 4.1
457(12) 0.00740 447.0 4.1
451(12) 0.00748 446.9 4.1
454(11) 0.00788 446.7 4.0
459(11) 0.00809 446.6 4.0
417(11) 0.00833 446.5 4.0
421(11) 0.00804 446.3 4.0
432(11) 0.00762 446.2 4.0
417(11) 0.00841 446.1 4.0
461(11) 0.00799 445.9 4.0
419(11) 0.00842 445.8 4.0
423(11) 0.00821 445.7 3.9
428(11) 0.00822 445.5 3.9
431(11) 0.00821 445.4 3.9
441(11) 0.00846 445.3 3.9
450(11) 0.00780 445.1 3.9
417(11) 0.00798 445.0 3.9
446(11) 0.00782 444.9 4.0
488(12) 0.00751 444.7 4.0
438(11) 0.00853 444.6 4.0
430(11) 0.00796 444.5 4.0
433(11) 0.00761 444.3 4.0
453(11) 0.00771 444.2 4.1
435(11) 0.00849 444.1 4.1
466(11) 0.00802 443.9 4.1
473(12) 0.00729 443.8 4.1
468(12) 0.00691 443.6 4.1
449(11) 0.00796 443.5 4.2
432(11) 0.00854 443.4 4.2
431(11) 0.00842 443.2 4.2
439(11) 0.00792 443.1 4.3
416(11) 0.00784 443.0 4.3
475(12) 0.00724 442.8 4.4
445(11) 0.00843 442.7 4.4
437(11) 0.00846 442.6 4.5
432(11) 0.00818 442.4 4.6
432(12) 0.00747 442.3 4.7
466(12) 0.00745 442.2 4.8
424(11) 0.00879 442.0 4.9
414(11) 0.00897 441.9 5.0
429(11) 0.00795 441.8 5.1
434(11) 0.00763 441.6 5.3
449(11) 0.00774 441.5 5.5
425(11) 0.00871 441.4 5.7
447(11) 0.00807 441.2 6.0
450(11) 0.00765 441.1 6.3
445(12) 0.00753 441.0 6.7
423(11) 0.00813 440.8 7.3
441(11) 0.00839 440.7 8.0
424(11) 0.00858 440.6 9.2
454(12) 0.00753 440.4 11.2
450(11) 0.00773 440.3 14.6
440(11) 0.00795 440.2 20.3
431(11) 0.00864 440.0 29.3
466(12) 0.00749 439.9 42.4
507(12) 0.00664 439.8 59.7
495(12) 0.00696 439.6 79.7
527(12) 0.00662 439.5 99.5
597(13) 0.00625 439.3 113.9
572(13) 0.00626 439.2 117.7
596(13) 0.00570 439.1 109.2
533(12) 0.00655 438.9 92.1
511(12) 0.00692 438.8 71.9
484(11) 0.00769 438.7 52.7
469(12) 0.00746 438.5 37.0
469(12) 0.00712 438.4 25.6
434(11) 0.00790 438.3 18.1
450(11) 0.00813 438.1 13.5
467(11) 0.00791 438.0 10.8
458(11) 0.00776 437.9 9.3
443(12) 0.00747 437.7 8.4
450(11) 0.00789 437.6 7.8
460(11) 0.00804 437.5 7.3
454(11) 0.00819 437.3 7.0
454(11) 0.00766 437.2 6.8
463(12) 0.00698 437.1 6.6
439(11) 0.00811 436.9 6.5
454(11) 0.00807 436.8 6.4
414(11) 0.00903 436.7 6.3
421(11) 0.00844 436.5 6.2
444(12) 0.00722 436.4 6.2
438(11) 0.00801 436.3 6.1
436(11) 0.00848 436.1 6.1
447(11) 0.00838 436.0 6.1
421(11) 0.00837 435.9 6.2
422(11) 0.00810 435.7 6.2
469(12) 0.00741 435.6 6.2
441(11) 0.00842 435.5 6.3
472(11) 0.00784 435.3 6.3
403(11) 0.00886 435.2 6.4
427(11) 0.00786 435.1 6.5
432(11) 0.00810 434.9 6.5
460(11) 0.00810 434.8 6.6
465(11) 0.00770 434.6 6.7
422(11) 0.00823 434.5 6.9
456(12) 0.00729 434.4 7.0
447(11) 0.00780 434.2 7.0
446(11) 0.00835 434.1 7.1
427(11) 0.00861 434.0 7.3
464(12) 0.00730 433.8 7.4
468(12) 0.00722 433.7 7.6
449(11) 0.00797 433.6 7.8
434(11) 0.00862 433.4 8.0
439(11) 0.00806 433.3 8.2
455(11) 0.00757 433.2 8.5
459(12) 0.00728 433.0 8.8
453(11) 0.00776 432.9 9.0
452(11) 0.00827 432.8 9.4
461(11) 0.00759 432.6 9.7
439(12) 0.00756 432.5 10.1
409(11) 0.00832 432.4 10.5
439(11) 0.00794 432.2 10.9
441(11) 0.00843 432.1 11.4
458(12) 0.00755 432.0 11.9
445(12) 0.00748 431.8 12.5
456(12) 0.00746 431.7 13.2
438(11) 0.00810 431.6 13.9
448(11) 0.00835 431.4 14.8
476(12) 0.00701 431.3 15.8
464(12) 0.00700 431.2 16.9
452(11) 0.00782 431.0 18.3
458(11) 0.00797 430.9 20.0
451(11) 0.00820 430.8 22.1
454(11) 0.00767 430.6 24.8
446(12) 0.00724 430.5 28.3
434(11) 0.00804 430.3 32.7
447(11) 0.00827 430.2 38.4
458(11) 0.00804 430.1 45.6
480(12) 0.00727 429.9 54.6
480(12) 0.00686 429.8 65.6
511(12) 0.00684 429.7 78.8
523(12) 0.00701 429.5 94.0
524(12) 0.00711 429.4 111.1
572(13) 0.00606 429.3 129.4
572(13) 0.00563 429.1 148.0
586(13) 0.00585 429.0 165.3
624(13) 0.00596 428.9 179.5
597(13) 0.00612 428.7 188.3
604(13) 0.00587 428.6 190.1
668(14) 0.00491 428.5 184.7
622(13) 0.00565 428.3 173.1
608(13) 0.00613 428.2 157.4
594(13) 0.00609 428.1 139.8
579(13) 0.00591 427.9 121.9
528(13) 0.00622 427.8 104.9
505(12) 0.00680 427.7 89.6
509(12) 0.00730 427.5 76.3
504(12) 0.00704 427.4 65.2
470(12) 0.00738 427.3 56.2
494(12) 0.00673 427.1 49.1
460(11) 0.00773 427.0 43.8
482(11) 0.00774 426.9 39.9
464(11) 0.00757 426.7 37.3
449(12) 0.00747 426.6 35.6
439(11) 0.00787 426.5 34.7
452(11) 0.00774 426.3 34.5
453(11) 0.00824 426.2 34.9
432(11) 0.00775 426.0 35.8
446(11) 0.00757 425.9 37.3
450(12) 0.00750 425.8 39.2
459(11) 0.00775 425.6 41.8
459(11) 0.00808 425.5 44.9
480(12) 0.00705 425.4 48.6
455(12) 0.00738 425.2 53.1
465(12) 0.00743 425.1 58.2
483(12) 0.00747 425.0 64.2
485(11) 0.00767 424.8 70.9
495(12) 0.00694 424.7 78.4
495(12) 0.00689 424.6 86.7
528(12) 0.00676 424.4 95.7
538(12) 0.00668 424.3 105.4
587(13) 0.00634 424.2 115.6
561(13) 0.00620 424.0 126.2
528(13) 0.00640 423.9 136.8
580(13) 0.00609 423.8 147.2
576(13) 0.00638 423.6 156.9
614(13) 0.00596 423.5 165.5
639(14) 0.00542 423.4 172.3
652(14) 0.00518 423.2 177.1
603(13) 0.00590 423.1 179.2
617(13) 0.00602 423.0 178.7
618(13) 0.00593 422.8 175.5
617(13) 0.00558 422.7 169.8
585(13) 0.00560 422.6 162.2
569(13) 0.00604 422.4 153.1
598(13) 0.00621 422.3 143.0
548(12) 0.00674 422.2 132.5
543(12) 0.00656 422.0 121.8
535(13) 0.00630 421.9 111.3
568(13) 0.00611 421.8 101.3
493(12) 0.00750 421.6 91.8
545(12) 0.00674 421.5 82.9
519(12) 0.00677 421.3 74.8
511(12) 0.00651 421.2 67.5
507(12) 0.00680 421.1 61.0
473(11) 0.00787 420.9 55.1
467(11) 0.00787 420.8 50.0
471(12) 0.00718 420.7 45.6
479(12) 0.00705 420.5 41.8
463(12) 0.00744 420.4 38.5
434(11) 0.00858 420.3 35.7
444(11) 0.00811 420.1 33.3
448(11) 0.00761 420.0 31.4
445(12) 0.00749 419.9 29.7
406(11) 0.00880 419.7 28.3
464(11) 0.00800 419.6 27.2
480(12) 0.00730 419.5 26.3
452(12) 0.00756 419.3 25.5
433(11) 0.00779 419.2 24.9
431(11) 0.00820 419.1 24.4
454(11) 0.00819 418.9 24.0
466(12) 0.00748 418.8 23.7
461(12) 0.00729 418.7 23.5
476(12) 0.00700 418.5 23.5
426(11) 0.00837 418.4 23.5
453(11) 0.00817 418.3 23.6
423(11) 0.00831 418.1 23.8
433(11) 0.00757 418.0 24.1
457(11) 0.00760 417.9 24.5
440(11) 0.00837 417.7 25.0
417(11) 0.00879 417.6 25.7
442(11) 0.00783 417.5 26.5
425(11) 0.00766 417.3 27.5
458(12) 0.00746 417.2 28.6
456(11) 0.00812 417.0 29.9
448(11) 0.00825 416.9 31.3
425(11) 0.00826 416.8 32.8
439(12) 0.00731 416.6 34.5
386(11) 0.00905 416.5 36.1
426(11) 0.00842 416.4 37.7
463(11) 0.00810 416.2 39.3
438(11) 0.00805 416.1 40.6
452(12) 0.00721 416.0 41.6
448(11) 0.00778 415.8 42.3
462(11) 0.00805 415.7 42.8
460(11) 0.00811 415.6 43.0
441(11) 0.00800 415.4 43.1
481(12) 0.00669 415.3 43.0
446(11) 0.00762 415.2 43.0
435(11) 0.00848 415.0 43.1
434(11) 0.00834 414.9 43.2
447(11) 0.00787 414.8 43.4
474(12) 0.00691 414.6 43.7
452(12) 0.00751 414.5 44.2
466(11) 0.00799 414.4 44.7
448(11) 0.00816 414.2 45.4
452(11) 0.00796 414.1 46.2
467(12) 0.00715 414.0 47.2
419(11) 0.00849 413.8 48.2
440(11) 0.00846 413.7 49.4
437(11) 0.00829 413.6 50.8
455(12) 0.00751 413.4 52.4
458(12) 0.00751 413.3 54.2
468(12) 0.00751 413.2 56.2
474(11) 0.00782 413.0 58.6
459(11) 0.00782 412.9 61.3
450(11) 0.00792 412.7 64.4
489(12) 0.00693 412.6 67.9
485(12) 0.00734 412.5 72.0
484(11) 0.00764 412.3 76.8
484(12) 0.00690 412.2 82.3
441(11) 0.00756 412.1 88.6
471(12) 0.00722 411.9 95.9
473(11) 0.00768 411.8 104.2
489(11) 0.00757 411.7 113.8
520(12) 0.00658 411.5 124.7
518(12) 0.00658 411.4 137.1
507(12) 0.00694 411.3 151.1
525(12) 0.00674 411.1 166.8
525(12) 0.00715 411.0 184.3
582(13) 0.00603 410.9 203.8
604(13) 0.00557 410.7 225.3
596(13) 0.00585 410.6 248.7
618(13) 0.00587 410.5 274.2
622(13) 0.00594 410.3 301.6
654(14) 0.00547 410.2 330.7
708(15) 0.00463 410.1 361.4
732(14) 0.00485 409.9 393.3
784(15) 0.00469 409.8 426.1
833(15) 0.00448 409.7 459.2
821(15) 0.00421 409.5 491.8
912(17) 0.003453 409.4 523.2
904(16) 0.00384 409.3 552.4
934(16) 0.00393 409.1 578.1
940(16) 0.00394 409.0 599.5
955(17) 0.00361 408.9 615.2
950(17) 0.003422 408.7 624.6
963(17) 0.00359 408.6 627.0
935(16) 0.00398 408.4 622.5
893(16) 0.00407 408.3 611.3
887(16) 0.00390 408.2 594.1
894(16) 0.00368 408.0 572.0
831(16) 0.00415 407.9 546.0
830(15) 0.00450 407.8 517.3
821(15) 0.00440 407.6 487.0
813(15) 0.00426 407.5 456.0
750(15) 0.00455 407.4 425.1
757(15) 0.00461 407.2 394.9
716(14) 0.00519 407.1 366.0
713(14) 0.00501 407.0 338.6
708(14) 0.00486 406.8 313.2
673(14) 0.00512 406.7 289.9
682(14) 0.00508 406.6 268.8
649(13) 0.00572 406.4 250.0
642(13) 0.00554 406.3 233.5
580(13) 0.00604 406.2 219.3
622(13) 0.00556 406.0 207.4
627(13) 0.00559 405.9 197.6
579(12) 0.00642 405.8 189.8
595(13) 0.00584 405.6 184.0
596(13) 0.00584 405.5 179.8
611(13) 0.00562 405.4 177.2
582(13) 0.00615 405.2 175.8
630(13) 0.00587 405.1 175.6
601(13) 0.00568 405.0 176.2
614(14) 0.00542 404.8 177.2
566(13) 0.00611 404.7 178.5
614(13) 0.00586 404.6 179.7
582(13) 0.00635 404.4 180.3
566(13) 0.00631 404.3 180.2
630(14) 0.00521 404.2 179.1
580(13) 0.00610 404.0 176.8
592(13) 0.00613 403.9 173.3
563(12) 0.00665 403.7 168.8
585(13) 0.00589 403.6 163.4
557(13) 0.00571 403.5 157.3
550(13) 0.00611 403.3 150.8
569(12) 0.00650 403.2 144.0
571(12) 0.00646 403.1 137.2
523(12) 0.00682 402.9 130.4
501(12) 0.00647 402.8 123.7
511(12) 0.00679 402.7 117.3
490(11) 0.00761 402.5 111.1
501(12) 0.00743 402.4 105.2
496(12) 0.00698 402.3 99.7
509(13) 0.00628 402.1 94.5
497(12) 0.00696 402.0 89.7
505(12) 0.00734 401.9 85.1
503(12) 0.00730 401.7 80.9
475(12) 0.00752 401.6 77.0
467(12) 0.00704 401.5 73.4
459(11) 0.00768 401.3 70.0
443(11) 0.00838 401.2 66.8
456(11) 0.00793 401.1 63.8
450(11) 0.00792 400.9 61.0
475(12) 0.00706 400.8 58.4
497(12) 0.00680 400.7 55.9
450(11) 0.00829 400.5 53.6
461(11) 0.00781 400.4 51.4
466(12) 0.00716 400.3 49.2
460(12) 0.00730 400.1 47.2
440(11) 0.00795 400.0 45.3
436(11) 0.00857 399.9 43.4
429(11) 0.00817 399.7 41.6
458(12) 0.00724 399.6 39.9
444(11) 0.00762 399.4 38.3
435(11) 0.00812 399.3 36.8
440(11) 0.00838 399.2 35.3
427(11) 0.00820 399.0 33.8
416(11) 0.00816 398.9 32.5
456(12) 0.00730 398.8 31.2
412(11) 0.00854 398.6 29.9
403(10) 0.00921 398.5 28.7
400(11) 0.00873 398.4 27.6
416(11) 0.00788 398.2 26.5
413(11) 0.00833 398.1 25.4
440(11) 0.00823 398.0 24.4
449(11) 0.00828 397.8 23.5
429(11) 0.00819 397.7 22.6
417(11) 0.00813 397.6 21.7
423(11) 0.00824 397.4 20.9
420(11) 0.00840 397.3 20.2
394(10) 0.00950 397.2 19.4
417(11) 0.00831 397.0 18.7
447(12) 0.00727 396.9 18.1
418(11) 0.00826 396.8 17.5
432(11) 0.00845 396.6 16.9
423(11) 0.00881 396.5 16.3
411(11) 0.00866 396.4 15.8
433(12) 0.00726 396.2 15.3
395(11) 0.00877 396.1 14.8
425(11) 0.00869 396.0 14.3
413(11) 0.00889 395.8 13.9
382(10) 0.00930 395.7 13.5
421(11) 0.00792 395.6 13.1
422(11) 0.00847 395.4 12.7
420(11) 0.00889 395.3 12.4
438(11) 0.00843 395.1 12.0
410(11) 0.00868 395.0 11.7
400(11) 0.00819 394.9 11.4
397(11) 0.00873 394.7 11.1
403(10) 0.00933 394.6 10.8
394(11) 0.00902 394.5 10.6
401(11) 0.00832 394.3 10.3
402(11) 0.00816 394.2 10.1
406(11) 0.00854 394.1 9.8
389(10) 0.00957 393.9 9.6
411(11) 0.00900 393.8 9.4
406(11) 0.00864 393.7 9.2
384(11) 0.00900 393.5 9.0
382(10) 0.00921 393.4 8.8
384(10) 0.00960 393.3 8.6
398(10) 0.00909 393.1 8.4
394(11) 0.00882 393.0 8.3
375(10) 0.00935 392.9 8.1
376(10) 0.00944 392.7 8.0
379(10) 0.00987 392.6 7.8
406(11) 0.00839 392.5 7.7
390(11) 0.00903 392.3 7.5
389(11) 0.00885 392.2 7.4
415(11) 0.00837 392.1 7.2
393(10) 0.00943 391.9 7.1
387(11) 0.00896 391.8 7.0
406(11) 0.00830 391.7 6.9
401(11) 0.00850 391.5 6.7
377(10) 0.00943 391.4 6.6
421(11) 0.00871 391.3 6.5
414(11) 0.00853 391.1 6.4
402(11) 0.00830 391.0 6.3
397(11) 0.00853 390.9 6.2
403(10) 0.00918 390.7 6.1
456(11) 0.00804 390.6 6.0
397(11) 0.00892 390.4 5.9
424(12) 0.00753 390.3 5.8
417(11) 0.00846 390.2 5.7
391(10) 0.00947 390.0 5.6
373(10) 0.01002 389.9 5.5
353(10) 0.00977 389.8 5.5
386(11) 0.00837 389.6 5.4
407(11) 0.00845 389.5 5.3
400(10) 0.00915 389.4 5.2
367(10) 0.01012 389.2 5.1
404(11) 0.00848 389.1 5.1
372(11) 0.00873 389.0 5.0
373(10) 0.00938 388.8 4.9
397(10) 0.00942 388.7 4.9
412(11) 0.00891 388.6 4.8
376(10) 0.00936 388.4 4.7
368(10) 0.00912 388.3 4.7
397(11) 0.00858 388.2 4.6
381(10) 0.00968 388.0 4.5
380(10) 0.00955 387.9 4.5
384(11) 0.00885 387.8 4.4
396(11) 0.00798 387.6 4.3
380(11) 0.00883 387.5 4.3
369(10) 0.01008 387.4 4.2
390(10) 0.00918 387.2 4.2
422(11) 0.00800 387.1 4.1
404(11) 0.00825 387.0 4.1
379(10) 0.00909 386.8 4.0
384(10) 0.00968 386.7 4.0
378(10) 0.00953 386.6 3.9
399(11) 0.00835 386.4 3.9
412(11) 0.00816 386.3 3.8
410(11) 0.00855 386.1 3.8
388(10) 0.00957 386.0 3.7
380(10) 0.00910 385.9 3.7
376(10) 0.00940 385.7 3.6
395(11) 0.00868 385.6 3.6
371(10) 0.00935 385.5 3.6
379(10) 0.00981 385.3 3.5
401(11) 0.00883 385.2 3.5
385(11) 0.00892 385.1 3.4
383(11) 0.00897 384.9 3.4
383(10) 0.00929 384.8 3.4
379(10) 0.00985 384.7 3.3
371(10) 0.00931 384.5 3.3
376(10) 0.00914 384.4 3.2
412(11) 0.00826 384.3 3.2
383(10) 0.00927 384.1 3.2
383(10) 0.00971 384.0 3.1
369(10) 0.00927 383.9 3.1
371(11) 0.00888 383.7 3.1
373(10) 0.00930 383.6 3.0
370(10) 0.00980 383.5 3.0
367(10) 0.01003 383.3 3.0
375(10) 0.00935 383.2 3.0
378(11) 0.00858 383.1 2.9
380(10) 0.00932 382.9 2.9
415(11) 0.00890 382.8 2.9
409(10) 0.00911 382.7 2.8
392(11) 0.00876 382.5 2.8
394(11) 0.00799 382.4 2.8
398(11) 0.00898 382.3 2.8
414(11) 0.00905 382.1 2.7
398(10) 0.00935 382.0 2.7
395(11) 0.00855 381.8 2.7
376(11) 0.00874 381.7 2.6
383(10) 0.00934 381.6 2.6
358(10) 0.01041 381.4 2.6
351(10) 0.01057 381.3 2.6
383(11) 0.00876 381.2 2.6
373(11) 0.00867 381.1 2.6
385(11) 0.00883 381.0 2.6
395(10) 0.00952 380.9 2.5
375(10) 0.00956 380.8 2.5
374(11) 0.00898 380.7 2.5
367(11) 0.00902 380.6 2.5
377(10) 0.00950 380.5 2.5
387(10) 0.00960 380.4 2.4
363(10) 0.01002 380.3 2.4
385(11) 0.00880 380.2 2.4
377(11) 0.00899 380.1 2.4
403(11) 0.00830 380.0 2.4
396(10) 0.00936 379.9 2.3
389(11) 0.00903 379.8 2.3
386(11) 0.00866 379.8 2.3
405(11) 0.00829 379.7 2.3
391(10) 0.00907 379.6 2.3
358(10) 0.01038 379.5 2.3
420(11) 0.00831 379.4 2.2
408(11) 0.00821 379.3 2.2
406(11) 0.00833 379.2 2.2
375(10) 0.00959 379.1 2.2
399(10) 0.00942 379.0 2.2
379(11) 0.00889 378.9 2.2
356(10) 0.00935 378.8 2.1
367(10) 0.00942 378.7 2.1
385(10) 0.00948 378.6 2.1
369(10) 0.01013 378.5 2.1
374(11) 0.00906 378.4 2.1
388(11) 0.00867 378.3 2.1
404(11) 0.00868 378.2 2.1
365(10) 0.01005 378.1 2.0
393(10) 0.00938 378.0 2.0
377(10) 0.00915 377.9 2.0
375(11) 0.00868 377.8 2.0
369(10) 0.00950 377.7 2.0
362(10) 0.01001 377.6 2.0
395(10) 0.00945 377.6 2.0
389(11) 0.00888 377.5 1.9
369(11) 0.00906 377.4 1.9
399(11) 0.00855 377.3 1.9
375(10) 0.01008 377.2 1.9
362(10) 0.01017 377.1 1.9
381(10) 0.00941 377.0 1.9
363(11) 0.00899 376.9 1.9
397(11) 0.00862 376.8 1.9
388(10) 0.00947 376.7 1.9
392(10) 0.00918 376.6 1.8
390(11) 0.00849 376.5 1.8
371(11) 0.00880 376.4 1.8
371(10) 0.00927 376.3 1.8
368(10) 0.01011 376.2 1.8
369(10) 0.00994 376.1 1.8
393(11) 0.00886 376.0 1.8
366(10) 0.00955 375.9 1.8
388(11) 0.00891 375.8 1.8
391(10) 0.00947 375.7 1.8
357(10) 0.01009 375.6 1.8
379(10) 0.00923 375.5 1.8
393(11) 0.00864 375.5 1.8
378(11) 0.00885 375.4 1.8
398(10) 0.00934 375.3 1.7
374(10) 0.00937 375.2 1.7
391(11) 0.00853 375.1 1.7
354(10) 0.00978 375.0 1.7
340(10) 0.01055 374.9 1.7
353(10) 0.01057 374.8 1.7
382(10) 0.00918 374.7 1.7
375(10) 0.00923 374.6 1.7
389(11) 0.00884 374.5 1.7
377(10) 0.00916 374.4 1.7
360(10) 0.01036 374.3 1.7
369(10) 0.00957 374.2 1.7
383(10) 0.00916 374.1 1.7
392(11) 0.00898 374.0 1.7
375(10) 0.00967 373.9 1.7
357(10) 0.01042 373.8 1.7
361(10) 0.00979 373.7 1.7
390(11) 0.00868 373.6 1.7
392(11) 0.00893 373.5 1.6
398(10) 0.00914 373.4 1.6
390(10) 0.00963 373.3 1.6
415(11) 0.00831 373.3 1.6
393(11) 0.00846 373.2 1.6
395(11) 0.00881 373.1 1.6
378(10) 0.00982 373.0 1.6
392(10) 0.00946 372.9 1.6
394(11) 0.00849 372.8 1.6
360(11) 0.00900 372.7 1.6
333(10) 0.01057 372.6 1.6
382(10) 0.00981 372.5 1.6
375(10) 0.00989 372.4 1.6
385(10) 0.00913 372.3 1.6
349(10) 0.00987 372.2 1.6
348(10) 0.01013 372.1 1.6
380(10) 0.00983 372.0 1.6
399(10) 0.00914 371.9 1.6
368(10) 0.00970 371.8 1.6
369(11) 0.00874 371.7 1.6
365(10) 0.00962 371.6 1.6
381(10) 0.00979 371.5 1.6
383(10) 0.00949 371.4 1.6
369(10) 0.00933 371.3 1.7
363(10) 0.00919 371.2 1.7
375(10) 0.00936 371.2 1.7
367(10) 0.01015 371.1 1.7
367(10) 0.00972 371.0 1.7
345(10) 0.01045 370.9 1.7
383(11) 0.00884 370.8 1.7
364(10) 0.00948 370.7 1.7
365(10) 0.01017 370.6 1.7
400(11) 0.00872 370.5 1.8
386(11) 0.00895 370.4 1.8
373(11) 0.00896 370.3 1.8
376(10) 0.00931 370.2 1.8
396(10) 0.00943 370.1 1.8
411(11) 0.00859 370.0 1.9
359(10) 0.00935 369.9 1.9
363(10) 0.00933 369.8 2.0
351(10) 0.01023 369.7 2.0
363(10) 0.01031 369.6 2.1
378(11) 0.00905 369.5 2.1
366(10) 0.00930 369.4 2.2
369(10) 0.00969 369.3 2.3
385(10) 0.00941 369.2 2.4
373(10) 0.00990 369.1 2.6
362(10) 0.00933 369.0 2.8
360(11) 0.00904 369.0 3.1
356(10) 0.00965 368.9 3.6
377(10) 0.00968 368.8 4.4
379(10) 0.00989 368.7 5.7
374(11) 0.00897 368.6 7.6
357(10) 0.00953 368.5 10.2
384(11) 0.00895 368.4 13.6
426(11) 0.00879 368.3 17.4
395(10) 0.00939 368.2 21.3
416(11) 0.00830 368.1 24.3
401(11) 0.00802 368.0 25.5
391(11) 0.00897 367.9 24.4
400(11) 0.00905 367.8 21.4
408(11) 0.00901 367.7 17.6
370(10) 0.00947 367.6 13.8
360(10) 0.00925 367.5 10.4
381(10) 0.00953 367.4 7.8
372(10) 0.01010 367.3 5.9
369(10) 0.00992 367.2 4.6
392(11) 0.00882 367.1 3.8
389(11) 0.00840 367.0 3.3
387(10) 0.00919 366.9 3.0
374(10) 0.00998 366.9 2.8
382(10) 0.00977 366.8 2.7
372(10) 0.00947 366.7 2.6
365(10) 0.00913 366.6 2.6
365(10) 0.00985 366.5 2.5
383(10) 0.00966 366.4 2.5
388(10) 0.00936 366.3 2.5
378(10) 0.00935 366.2 2.4
363(10) 0.00946 366.1 2.4
366(10) 0.00917 366.0 2.4
390(10) 0.00966 365.9 2.5
393(11) 0.00904 365.8 2.5
372(10) 0.00926 365.7 2.5
376(10) 0.00909 365.6 2.5
333(10) 0.01055 365.5 2.6
345(10) 0.01075 365.4 2.6
339(10) 0.01053 365.3 2.7
345(10) 0.01010 365.2 2.7
353(10) 0.01001 365.1 2.8
359(10) 0.00990 365.0 2.8
363(10) 0.01029 364.9 2.9
354(10) 0.01022 364.8 3.0
352(10) 0.00979 364.7 3.1
388(11) 0.00884 364.7 3.2
378(10) 0.00972 364.6 3.2
377(10) 0.00983 364.5 3.3
363(10) 0.00951 364.4 3.5
364(10) 0.00947 364.3 3.6
402(11) 0.00851 364.2 3.7
359(10) 0.01030 364.1 3.8
387(10) 0.00953 364.0 3.9
384(11) 0.00892 363.9 4.1
376(11) 0.00896 363.8 4.2
389(11) 0.00896 363.7 4.4
379(10) 0.00946 363.6 4.5
378(10) 0.00987 363.5 4.7
393(11) 0.00847 363.4 4.9
366(11) 0.00904 363.3 5.1
373(10) 0.00933 363.2 5.3
366(10) 0.01018 363.1 5.5
401(10) 0.00922 363.0 5.6
384(10) 0.00930 362.9 5.9
387(11) 0.00861 362.8 6.1
419(11) 0.00830 362.7 6.3
374(10) 0.00994 362.6 6.5
388(10) 0.00939 362.6 6.7
363(10) 0.00958 362.5 6.9
383(11) 0.00836 362.4 7.1
359(10) 0.01012 362.3 7.4
386(10) 0.00966 362.2 7.6
366(10) 0.00964 362.1 7.8
343(10) 0.01039 362.0 8.0
380(11) 0.00879 361.9 8.2
387(10) 0.00918 361.8 8.4
379(10) 0.00982 361.7 8.6
374(10) 0.00964 361.6 8.8
368(10) 0.00938 361.5 8.9
361(11) 0.00905 361.4 9.1
385(11) 0.00891 361.3 9.2
389(10) 0.00961 361.2 9.3
388(10) 0.00936 361.1 9.4
385(11) 0.00891 361.0 9.5
378(11) 0.00887 360.9 9.6
376(10) 0.00911 360.8 9.6
378(10) 0.00986 360.7 9.6
382(10) 0.00922 360.6 9.6
366(10) 0.00954 360.5 9.6
395(11) 0.00860 360.4 9.5
381(11) 0.00907 360.4 9.5
381(10) 0.00982 360.3 9.4
374(10) 0.00937 360.2 9.3
384(11) 0.00886 360.1 9.2
381(10) 0.00913 360.0 9.1
361(10) 0.00989 359.9 9.0
368(10) 0.01017 359.8 8.9
385(10) 0.00915 359.7 8.8
373(11) 0.00898 359.6 8.6
386(11) 0.00903 359.5 8.5
401(10) 0.00914 359.4 8.4
370(10) 0.01003 359.3 8.3
376(10) 0.00922 359.2 8.3
348(10) 0.01021 359.1 8.3
382(10) 0.00910 359.0 8.3
391(10) 0.00920 358.9 8.3
362(10) 0.01035 358.8 8.5
365(10) 0.00937 358.7 8.7
364(11) 0.00902 358.6 9.0
360(10) 0.00975 358.5 9.4
363(10) 0.01000 358.4 9.9
392(10) 0.00951 358.3 10.6
387(11) 0.00897 358.3 11.4
351(10) 0.00938 358.2 12.4
369(10) 0.00952 358.1 13.6
378(10) 0.00981 358.0 14.9
349(10) 0.01046 357.9 16.2
361(10) 0.00967 357.8 17.7
381(11) 0.00841 357.7 19.1
342(10) 0.01044 357.6 20.4
390(10) 0.00929 357.5 21.4
358(10) 0.01027 357.4 22.0
361(10) 0.00949 357.3 22.2
359(10) 0.00941 357.2 21.8
369(10) 0.00940 357.1 21.0
361(10) 0.01032 357.0 19.8
362(10) 0.01014 356.9 18.4
371(11) 0.00897 356.8 16.9
390(11) 0.00875 356.7 15.3
418(11) 0.00822 356.6 13.9
371(10) 0.01002 356.5 12.6
379(10) 0.00947 356.4 11.4
355(10) 0.00981 356.3 10.4
339(10) 0.01013 356.2 9.6
341(10) 0.01053 356.1 8.9
363(10) 0.01019 356.1 8.4
388(10) 0.00908 356.0 8.1
355(10) 0.00976 355.9 7.9
351(10) 0.00984 355.8 7.8
353(10) 0.01043 355.7 7.8
363(10) 0.01020 355.6 7.9
366(10) 0.00971 355.5 8.1
364(10) 0.00926 355.4 8.4
367(10) 0.00940 355.3 8.7
348(10) 0.01038 355.2 9.1
384(10) 0.00977 355.1 9.5
351(10) 0.01014 355.0 10.0
342(10) 0.01024 354.9 10.5
342(10) 0.01060 354.8 11.0
358(10) 0.01026 354.7 11.6
359(10) 0.01039 354.6 12.1
359(10) 0.00942 354.5 12.7
352(10) 0.00947 354.4 13.2
369(10) 0.00936 354.3 13.7
375(10) 0.00954 354.2 14.1
317(9) 0.01164 354.1 14.5
365(10) 0.00939 354.0 14.7
371(10) 0.00917 354.0 14.9
355(10) 0.00985 353.9 14.9
402(11) 0.00901 353.8 14.8
378(10) 0.00989 353.7 14.5
363(10) 0.00944 353.6 14.2
358(10) 0.00921 353.5 13.8
354(10) 0.00978 353.4 13.3
381(10) 0.00980 353.3 12.7
390(10) 0.00933 353.2 12.1
358(10) 0.00980 353.1 11.5
374(11) 0.00850 353.0 10.8
387(11) 0.00887 352.9 10.2
362(10) 0.01027 352.8 9.6
331(9) 0.01129 352.7 9.0
350(10) 0.00980 352.6 8.4
343(10) 0.00967 352.5 7.8
350(10) 0.01009 352.4 7.3
378(10) 0.00981 352.3 6.8
339(10) 0.01089 352.2 6.4
384(10) 0.00909 352.1 5.9
385(11) 0.00853 352.0 5.6
376(10) 0.00920 351.9 5.2
380(10) 0.00987 351.8 4.9
341(10) 0.01054 351.8 4.6
367(10) 0.00926 351.7 4.4
331(10) 0.01050 351.6 4.2
372(10) 0.00914 351.5 4.0
363(10) 0.01024 351.4 3.8
350(10) 0.01007 351.3 3.6
379(11) 0.00876 351.2 3.5
375(10) 0.00926 351.1 3.4
352(10) 0.00991 351.0 3.3
367(10) 0.01004 350.9 3.2
339(10) 0.01043 350.8 3.1
341(10) 0.00985 350.7 3.0
348(10) 0.00952 350.6 3.0
335(10) 0.01059 350.5 2.9
361(10) 0.01038 350.4 2.9
360(10) 0.00968 350.3 2.8
356(10) 0.00957 350.2 2.8
347(10) 0.00985 350.1 2.8
331(10) 0.01094 350.0 2.8
357(10) 0.01040 349.9 2.7
355(10) 0.00933 349.8 2.7
379(11) 0.00849 349.7 2.7
340(10) 0.01063 349.7 2.7
382(10) 0.00967 349.6 2.7
367(10) 0.01001 349.5 2.7
323(10) 0.01093 349.4 2.7
342(10) 0.00973 349.3 2.7
329(10) 0.01051 349.2 2.7
349(10) 0.01048 349.1 2.8
340(10) 0.01096 349.0 2.8
354(10) 0.01006 348.9 2.8
377(11) 0.00885 348.8 2.8
347(10) 0.00991 348.7 2.8
356(10) 0.01041 348.6 2.9
353(10) 0.01068 348.5 2.9
324(10) 0.01097 348.4 2.9
373(11) 0.00833 348.3 3.0
341(10) 0.01028 348.2 3.0
347(10) 0.01067 348.1 3.1
322(9) 0.01155 348.0 3.1
350(10) 0.00989 347.9 3.2
361(11) 0.00887 347.8 3.3
360(10) 0.00969 347.8 3.3
344(10) 0.01095 347.7 3.4
358(10) 0.01038 347.7 3.5
322(10) 0.01082 347.6 3.6
367(11) 0.00854 347.6 3.7
359(10) 0.00931 347.5 3.7
342(10) 0.01090 347.5 3.9
343(10) 0.01063 347.4 4.0
363(10) 0.00934 347.3 4.1
334(10) 0.01002 347.3 4.2
343(10) 0.00999 347.2 4.3
335(10) 0.01100 347.2 4.5
369(10) 0.00974 347.1 4.6
358(10) 0.00979 347.1 4.7
344(10) 0.00996 347.0 4.9
341(10) 0.01023 347.0 5.1
358(10) 0.01033 346.9 5.2
344(10) 0.01044 346.9 5.4
353(10) 0.00979 346.8 5.6
348(10) 0.00963 346.8 5.7
337(10) 0.01037 346.7 5.9
343(10) 0.01081 346.7 6.1
373(10) 0.00962 346.6 6.3
371(10) 0.00927 346.6 6.5
373(11) 0.00903 346.5 6.7
346(10) 0.01033 346.4 6.9
359(10) 0.01032 346.4 7.1
376(10) 0.00912 346.3 7.2
370(11) 0.00883 346.3 7.4
353(10) 0.00947 346.2 7.6
341(10) 0.01055 346.2 7.8
350(10) 0.01064 346.1 7.9
368(10) 0.00930 346.1 8.1
360(10) 0.00919 346.0 8.2
376(10) 0.00918 346.0 8.3
348(10) 0.01071 345.9 8.4
359(10) 0.01024 345.9 8.5
325(10) 0.01058 345.8 8.5
339(10) 0.00968 345.8 8.6
378(10) 0.00931 345.7 8.6
326(9) 0.01134 345.6 8.7
347(10) 0.01076 345.6 8.7
353(10) 0.01007 345.5 8.7
369(11) 0.00882 345.5 8.7
355(10) 0.00984 345.4 8.6
385(10) 0.00970 345.4 8.6
365(10) 0.01007 345.3 8.6
378(10) 0.00910 345.3 8.6
366(11) 0.00871 345.2 8.6
363(10) 0.00948 345.2 8.5
358(10) 0.01046 345.1 8.5
366(10) 0.01006 345.1 8.5
364(10) 0.00916 345.0 8.5
351(10) 0.00961 345.0 8.5
349(10) 0.00995 344.9 8.5
370(10) 0.01006 344.8 8.5
363(10) 0.00988 344.8 8.6
367(10) 0.00912 344.7 8.6
351(10) 0.00953 344.7 8.7
344(10) 0.01020 344.6 8.8
371(10) 0.01001 344.6 8.9
373(10) 0.00979 344.5 9.0
378(11) 0.00867 344.5 9.2
335(10) 0.01013 344.4 9.4
349(10) 0.00982 344.4 9.6
344(10) 0.01074 344.3 9.9
357(10) 0.00987 344.3 10.1
371(11) 0.00901 344.2 10.5
344(10) 0.01032 344.2 10.8
367(10) 0.00952 344.1 11.3
349(10) 0.01061 344.0 11.7
352(10) 0.01012 344.0 12.3
357(10) 0.00952 343.9 12.9
355(10) 0.00945 343.9 13.5
366(10) 0.00951 343.8 14.3
357(10) 0.01049 343.8 15.1
347(10) 0.01016 343.7 16.1
366(10) 0.00917 343.7 17.1
369(10) 0.00950 343.6 18.2
363(10) 0.00980 343.6 19.5
371(10) 0.01004 343.5 20.9
375(10) 0.00953 343.5 22.4
375(10) 0.00907 343.4 24.0
388(10) 0.00924 343.4 25.8
345(10) 0.01072 343.3 27.8
380(10) 0.00966 343.3 29.9
381(11) 0.00905 343.2 32.1
385(11) 0.00861 343.1 34.6
401(11) 0.00872 343.1 37.1
397(10) 0.00918 343.0 39.9
402(10) 0.00944 343.0 42.8
385(11) 0.00889 342.9 45.8
397(11) 0.00799 342.9 48.9
378(10) 0.00926 342.8 52.2
407(10) 0.00919 342.8 55.6
412(11) 0.00887 342.7 59.0
429(11) 0.00792 342.7 62.5
415(11) 0.00800 342.6 65.9
428(11) 0.00839 342.6 69.3
430(11) 0.00876 342.5 72.6
448(11) 0.00823 342.5 75.7
442(11) 0.00770 342.4 78.6
434(12) 0.00746 342.3 81.2
486(12) 0.00682 342.3 83.4
416(11) 0.00894 342.2 85.3
413(11) 0.00881 342.2 86.6
442(11) 0.00760 342.1 87.4
442(12) 0.00738 342.1 87.7
445(11) 0.00762 342.0 87.6
432(11) 0.00855 342.0 86.9
416(11) 0.00878 341.9 85.8
450(11) 0.00764 341.9 84.3
435(11) 0.00794 341.8 82.4
411(11) 0.00864 341.8 80.3
433(11) 0.00850 341.7 78.0
423(11) 0.00856 341.7 75.5
404(11) 0.00869 341.6 73.0
394(11) 0.00880 341.5 70.4
401(11) 0.00884 341.5 67.8
397(10) 0.00939 341.4 65.2
400(11) 0.00894 341.4 62.6
400(11) 0.00829 341.3 60.1
402(11) 0.00824 341.3 57.7
383(10) 0.00908 341.2 55.3
402(10) 0.00923 341.2 53.0
416(11) 0.00859 341.1 50.8
396(11) 0.00878 341.1 48.7
409(11) 0.00865 341.0 46.7
409(11) 0.00888 341.0 44.8
419(11) 0.00888 340.9 42.9
369(10) 0.00958 340.9 41.1
395(11) 0.00843 340.8 39.4
383(10) 0.00917 340.8 37.7
376(10) 0.00971 340.7 36.1
408(10) 0.00910 340.6 34.6
379(10) 0.00923 340.6 33.1
395(11) 0.00837 340.5 31.7
388(11) 0.00887 340.5 30.3
348(10) 0.01043 340.4 29.0
347(10) 0.01077 340.4 27.7
393(11) 0.00885 340.3 26.5
364(11) 0.00898 340.3 25.1
367(10) 0.00955 340.2 24.0
386(10) 0.00953 340.2 22.9
354(10) 0.01060 340.1 21.9
369(10) 0.00953 340.1 20.9
364(10) 0.00912 340.0 19.9
381(11) 0.00902 340.0 19.0
349(10) 0.01057 339.9 18.1
366(10) 0.01003 339.8 17.3
366(10) 0.00961 339.8 16.5
354(10) 0.00918 339.7 15.7
358(10) 0.00973 339.7 15.0
385(10) 0.00965 339.6 14.3
351(10) 0.01050 339.6 13.6
343(10) 0.01036 339.5 13.0
357(10) 0.00957 339.5 12.4
348(10) 0.01023 339.4 11.8
353(10) 0.01066 339.4 11.2
347(10) 0.01042 339.3 10.7
366(10) 0.00962 339.3 10.2
361(10) 0.00978 339.2 9.8
344(10) 0.01023 339.2 9.3
330(9) 0.01135 339.1 8.9
334(10) 0.01084 339.0 8.5
332(10) 0.01050 339.0 8.1
342(10) 0.01000 338.9 7.7
353(10) 0.00986 338.9 7.4
373(10) 0.01005 338.8 7.1
349(10) 0.01017 338.8 6.8
363(10) 0.00947 338.7 6.5
356(10) 0.00950 338.7 6.2
372(10) 0.00930 338.6 6.0
350(10) 0.01070 338.6 5.8
367(10) 0.00947 338.5 5.5
344(10) 0.00988 338.5 5.3
333(10) 0.01057 338.4 5.1
351(10) 0.00999 338.4 5.0
350(10) 0.01061 338.3 4.8
329(10) 0.01072 338.2 4.6
329(10) 0.01036 338.2 4.5
350(10) 0.01014 338.1 4.3
350(10) 0.01047 338.1 4.2
374(10) 0.00990 338.0 4.0
339(10) 0.01008 338.0 3.9
338(10) 0.00972 337.9 3.8
345(10) 0.00982 337.9 3.7
343(10) 0.01064 337.8 3.6
383(10) 0.00976 337.8 3.5
345(10) 0.01002 337.7 3.4
356(11) 0.00898 337.7 3.3
335(10) 0.01035 337.6 3.2
365(10) 0.00995 337.6 3.1
352(10) 0.01051 337.5 3.1
313(10) 0.01107 337.5 3.0
339(10) 0.00939 337.4 2.9
375(10) 0.00911 337.3 2.8
344(10) 0.01091 337.3 2.8
356(10) 0.01041 337.2 2.7
336(10) 0.01049 337.2 2.7
338(10) 0.00955 337.1 2.6
358(10) 0.00964 337.1 2.5
343(10) 0.01064 337.0 2.5
345(10) 0.01047 337.0 2.4
312(9) 0.01113 336.9 2.4
342(10) 0.00950 336.9 2.3
356(10) 0.00954 336.8 2.3
324(9) 0.01152 336.8 2.2
324(9) 0.01127 336.7 2.2
344(10) 0.00980 336.7 2.2
323(10) 0.01061 336.6 2.1
359(10) 0.00915 336.5 2.1
326(9) 0.01127 336.5 2.0
332(10) 0.01089 336.4 2.0
347(10) 0.00983 336.4 2.0
362(11) 0.00898 336.3 1.9
350(10) 0.00991 336.3 1.9
318(9) 0.01174 336.2 1.9
336(10) 0.01012 336.2 1.8
332(10) 0.01000 336.1 1.8
345(10) 0.00973 336.1 1.8
360(10) 0.00934 336.0 1.7
338(10) 0.01091 336.0 1.7
350(10) 0.01008 335.9 1.7
343(10) 0.00989 335.9 1.7
330(10) 0.01065 335.8 1.6
322(9) 0.01120 335.7 1.6
346(10) 0.01077 335.7 1.6
347(10) 0.00976 335.6 1.5
330(10) 0.01002 335.6 1.5
347(10) 0.00980 335.5 1.5
346(10) 0.01061 335.5 1.5
330(10) 0.01102 335.4 1.5
341(10) 0.01029 335.4 1.4
377(11) 0.00846 335.3 1.4
329(10) 0.01064 335.3 1.4
323(9) 0.01116 335.2 1.4
354(10) 0.01023 335.2 1.4
351(10) 0.00998 335.1 1.3
304(9) 0.01115 335.1 1.3
329(10) 0.01022 335.0 1.3
341(10) 0.01064 334.9 1.8
328(9) 0.01124 334.9 1.8
333(10) 0.01009 334.8 1.7
338(10) 0.00938 334.8 1.7
357(10) 0.00959 334.7 1.7
345(10) 0.01074 334.7 1.7
331(10) 0.01090 334.6 1.7
336(10) 0.01047 334.6 1.7
345(11) 0.00901 334.5 1.7
314(10) 0.01081 334.5 1.7
361(10) 0.01024 334.4 1.7
337(10) 0.01081 334.4 1.6
338(10) 0.01000 334.3 1.6
335(10) 0.00936 334.3 1.6
345(10) 0.00995 334.2 1.6
341(10) 0.01086 334.2 1.6
341(10) 0.01063 334.1 1.6
348(10) 0.00990 334.0 1.6
339(10) 0.00977 334.0 1.6
351(10) 0.00949 333.9 1.6
371(10) 0.00996 333.9 1.6
331(10) 0.01084 333.8 1.6
345(10) 0.00976 333.8 1.6
328(10) 0.01069 333.7 1.6
346(10) 0.01008 333.7 1.6
345(10) 0.01062 333.6 1.6
324(9) 0.01112 333.6 1.6
349(10) 0.00909 333.5 1.5
348(10) 0.00938 333.5 1.5
332(10) 0.01047 333.4 1.5
359(10) 0.01039 333.4 1.5
330(10) 0.01084 333.3 1.5
352(10) 0.00980 333.2 1.5
355(10) 0.00948 333.2 1.5
338(10) 0.01071 333.1 1.5
343(10) 0.01081 333.2 1.5
325(10) 0.01065 333.2 1.5
331(10) 0.01013 333.2 1.5
342(10) 0.01005 333.3 1.5
335(10) 0.01064 333.3 1.5
347(10) 0.01066 333.4 1.5
346(10) 0.01000 333.4 1.5
349(10) 0.00970 333.5 1.5
326(10) 0.01024 333.5 1.5
344(10) 0.01076 333.5 1.5
342(10) 0.01081 333.6 1.5
359(10) 0.00950 333.6 1.5
342(10) 0.00966 333.7 1.5
345(10) 0.01005 333.7 1.5
331(9) 0.01111 333.7 1.5
338(10) 0.01104 333.8 1.5
347(10) 0.00991 333.8 1.5
351(10) 0.00919 333.9 1.6
318(10) 0.01104 333.9 1.6
346(10) 0.01077 334.0 1.6
323(9) 0.01149 334.0 1.6
331(10) 0.01065 334.0 1.6
346(10) 0.00925 334.1 1.6
319(9) 0.01116 334.1 1.6
318(9) 0.01165 334.2 1.6
335(10) 0.01098 334.2 1.6
363(10) 0.00928 334.2 1.6
329(10) 0.01007 334.3 1.6
330(10) 0.01047 334.3 1.6
330(9) 0.01129 334.4 1.6
352(10) 0.01018 334.4 1.6
359(10) 0.00962 334.5 1.6
340(10) 0.00996 334.5 1.6
345(10) 0.00996 334.5 1.7
344(10) 0.01086 334.6 1.7
333(10) 0.01073 334.6 1.7
332(10) 0.01058 334.7 1.7
340(10) 0.00998 334.7 1.7
357(10) 0.00915 334.7 1.7
328(9) 0.01132 334.8 1.7
333(10) 0.01101 334.8 1.7
369(11) 0.00901 334.9 1.7
310(10) 0.01092 334.9 1.7
354(10) 0.00958 335.0 1.8
329(9) 0.01140 335.0 2.7
341(10) 0.01008 335.0 2.8
344(10) 0.01003 335.1 2.8
339(10) 0.01044 335.1 2.9
330(10) 0.01074 335.2 2.9
344(10) 0.01091 335.2 2.9
365(10) 0.00961 335.2 3.0
347(10) 0.00980 335.3 3.0
349(10) 0.00992 335.3 3.1
325(10) 0.01084 335.4 3.2
352(10) 0.01045 335.4 3.2
356(10) 0.00959 335.5 3.3
323(10) 0.01074 335.5 3.4
352(10) 0.00954 335.5 3.4
336(10) 0.01089 335.6 3.5
337(10) 0.01107 335.6 3.6
328(10) 0.01083 335.7 3.6
361(11) 0.00878 335.7 3.7
347(10) 0.01014 335.7 3.8
355(10) 0.01013 335.8 3.9
336(10) 0.01104 335.8 4.0
359(10) 0.00972 335.9 4.1
339(10) 0.00993 335.9 4.2
318(9) 0.01146 336.0 4.3
351(10) 0.01061 336.0 4.4
355(10) 0.01050 336.0 4.5
351(10) 0.00993 336.1 4.7
346(10) 0.00958 336.1 4.8
348(10) 0.01013 336.2 5.0
335(9) 0.01111 336.2 5.1
345(10) 0.01086 336.2 5.3
342(10) 0.01030 336.3 5.4
336(10) 0.01037 336.3 5.6
368(10) 0.00945 336.4 5.8
352(10) 0.01059 336.4 6.0
372(10) 0.00973 336.5 6.2
346(10) 0.01025 336.5 6.4
342(10) 0.00974 336.5 6.6
344(10) 0.01024 336.6 6.8
364(10) 0.01018 336.6 7.0
329(9) 0.01136 336.7 7.2
365(10) 0.00968 336.7 7.5
342(10) 0.01007 336.7 7.7
350(10) 0.00973 336.8 7.9
343(10) 0.01091 336.8 8.1
344(10) 0.01052 336.9 8.3
372(10) 0.00947 336.9 8.6
359(10) 0.00966 337.0 8.8
359(10) 0.01003 337.0 9.1
350(10) 0.01063 337.0 9.3
321(9) 0.01139 337.1 9.6
352(10) 0.00992 337.1 9.9
331(10) 0.01038 337.2 10.2
354(10) 0.01002 337.2 10.6
368(10) 0.01010 337.2 11.0
361(10) 0.00981 337.3 11.5
366(10) 0.00914 337.3 11.9
359(10) 0.00962 337.4 12.5
382(10) 0.00948 337.4 13.1
344(10) 0.01074 337.5 13.8
361(10) 0.00988 337.5 14.6
383(11) 0.00859 337.5 15.4
358(10) 0.00959 337.6 16.4
361(10) 0.01010 337.6 17.5
370(10) 0.01006 337.7 18.8
367(10) 0.00984 337.7 20.2
397(11) 0.00839 337.7 21.8
391(11) 0.00893 337.8 23.7
397(10) 0.00915 337.8 25.9
392(10) 0.00952 337.9 28.5
359(10) 0.00963 337.9 31.6
396(11) 0.00823 338.0 35.3
415(11) 0.00865 338.0 39.8
410(11) 0.00902 338.0 45.5
440(11) 0.00846 338.1 53.2
437(11) 0.00810 338.1 64.2
470(12) 0.00665 338.2 81.4
480(12) 0.00747 338.2 109.3
559(12) 0.00666 338.2 155.1
590(13) 0.00629 338.3 227.7
672(14) 0.00518 338.3 336.1
780(15) 0.00423 338.4 485.8
926(16) 0.00375 338.4 673.9
1154(18) 0.003214 338.5 883.5
1420(20) 0.002592 338.5 1081.6
1585(21) 0.002205 338.5 1216.8
1714(23) 0.001938 338.6 1239.9
1635(22) 0.002131 338.6 1140.9
1338(19) 0.002786 338.7 959.5
1019(17) 0.00354 338.7 749.3
789(15) 0.00434 338.7 551.5
658(14) 0.00521 338.8 387.4
608(13) 0.00572 338.8 264.5
549(12) 0.00679 338.9 180.3
519(12) 0.00691 338.9 126.2
499(12) 0.00695 339.0 93.1
440(12) 0.00753 339.0 73.1
449(11) 0.00761 339.0 60.5
463(11) 0.00800 339.1 52.2
398(11) 0.00901 339.1 46.3
404(11) 0.00883 339.2 41.8
384(10) 0.00919 339.2 38.3
377(10) 0.00954 339.2 35.4
381(10) 0.00984 339.3 33.0
338(10) 0.01085 339.3 31.1
385(11) 0.00867 339.4 29.6
373(11) 0.00899 339.4 28.3
359(10) 0.01008 339.5 27.3
375(10) 0.00986 339.5 26.5
374(10) 0.00937 339.5 25.9
353(10) 0.00944 339.6 25.4
383(11) 0.00879 339.6 25.1
390(10) 0.00907 339.7 24.9
361(10) 0.01030 339.7 24.9
367(10) 0.00934 339.7 24.9
394(11) 0.00816 339.8 25.1
375(10) 0.00909 339.8 25.4
380(10) 0.00970 339.9 25.8
350(10) 0.01049 339.9 26.5
347(10) 0.00993 340.0 27.1
381(11) 0.00847 340.0 27.9
382(10) 0.00915 340.0 28.7
377(10) 0.00965 340.1 29.7
349(10) 0.01055 340.1 30.8
384(11) 0.00906 340.2 32.1
383(11) 0.00857 340.2 33.5
383(10) 0.00910 340.2 35.1
382(10) 0.00963 340.3 36.9
388(10) 0.00963 340.3 39.1
382(10) 0.00932 340.4 41.5
386(11) 0.00822 340.4 44.3
388(11) 0.00884 340.5 47.5
408(10) 0.00917 340.5 51.4
396(10) 0.00918 340.5 55.9
402(11) 0.00855 340.6 61.3
384(11) 0.00838 340.6 67.9
427(11) 0.00806 340.7 75.8
424(11) 0.00879 340.7 85.3
432(11) 0.00828 340.7 96.8
419(11) 0.00840 340.8 110.7
461(12) 0.00753 340.8 127.2
469(12) 0.00741 340.9 146.7
494(11) 0.00757 340.9 169.6
500(12) 0.00718 341.0 196.0
543(12) 0.00642 341.0 226.3
557(13) 0.00624 341.0 260.2
640(14) 0.00544 341.1 297.8
654(13) 0.00567 341.1 338.7
720(14) 0.00494 341.2 381.9
756(15) 0.00450 341.2 426.7
827(16) 0.00406 341.2 471.2
859(16) 0.00411 341.3 513.3
890(15) 0.00418 341.3 550.6
933(16) 0.00369 341.4 579.8
933(17) 0.00365 341.4 598.4
906(16) 0.00383 341.5 604.2
899(16) 0.00391 341.5 596.7
852(15) 0.00440 341.5 576.7
889(16) 0.00383 341.6 546.7
758(15) 0.00457 341.6 509.3
766(15) 0.00449 341.7 467.8
714(14) 0.00497 341.7 424.5
673(14) 0.00547 341.7 381.7
656(14) 0.00522 341.8 341.1
621(14) 0.00546 341.8 304.1
590(13) 0.00588 341.9 272.3
563(12) 0.00647 341.9 247.3
595(13) 0.00627 342.0 231.5
564(13) 0.00605 342.0 228.0
549(13) 0.00601 342.0 239.4
576(13) 0.00618 342.1 267.2
661(13) 0.00558 342.1 309.7
759(14) 0.00492 342.2 360.8
801(15) 0.00438 342.2 408.0
878(16) 0.00370 342.2 433.9
938(17) 0.00360 342.3 423.5
761(14) 0.00490 342.3 378.0
676(14) 0.00542 342.4 312.6
609(13) 0.00551 342.4 244.0
560(13) 0.00575 342.5 182.9
512(12) 0.00689 342.5 134.7
459(11) 0.00810 342.5 100.0
441(11) 0.00844 342.6 76.6
416(11) 0.00825 342.6 61.6
408(11) 0.00809 342.7 52.0
407(11) 0.00874 342.7 45.5
380(10) 0.00981 342.7 41.0
395(10) 0.00913 342.8 37.4
372(10) 0.00918 342.8 34.5
382(11) 0.00869 342.9 32.0
386(11) 0.00879 342.9 29.9
385(10) 0.00938 342.9 28.0
366(10) 0.00974 343.0 26.4
361(10) 0.00958 343.0 24.9
375(10) 0.00912 343.1 23.5
385(11) 0.00906 343.1 22.3
386(10) 0.00964 343.2 21.2
385(10) 0.00907 343.2 20.2
371(10) 0.00923 343.2 19.3
345(10) 0.00990 343.3 18.4
350(10) 0.00988 343.3 17.6
322(9) 0.01144 343.4 16.9
374(10) 0.00943 343.4 16.3
383(11) 0.00866 343.4 15.6
334(10) 0.01053 343.5 15.1
371(10) 0.00933 343.5 14.5
363(10) 0.01032 343.6 14.1
372(10) 0.00958 343.6 13.6
371(10) 0.00927 343.7 13.2
365(10) 0.00943 343.7 12.8
384(10) 0.00919 343.7 12.4
378(10) 0.00990 343.8 12.0
333(10) 0.01041 343.8 11.7
348(10) 0.00982 343.9 11.4
348(10) 0.01012 343.9 11.1
354(10) 0.01041 343.9 10.8
359(10) 0.01027 344.0 10.5
365(10) 0.00948 344.0 10.3
374(11) 0.00904 344.1 10.1
367(10) 0.00953 344.1 9.9
367(10) 0.00992 344.2 9.7
360(10) 0.01029 344.2 9.5
340(10) 0.01023 344.2 9.3
339(10) 0.00970 344.3 9.1
354(10) 0.00999 344.3 9.0
357(10) 0.01062 344.4 8.8
380(10) 0.00972 344.4 8.7
346(10) 0.01019 344.4 8.5
354(11) 0.00876 344.5 8.4
333(10) 0.01039 344.5 8.3
359(10) 0.01010 344.6 8.2
345(10) 0.01077 344.6 8.1
368(10) 0.00949 344.7 8.0
331(10) 0.01008 344.7 7.9
350(10) 0.00998 344.7 7.8
346(10) 0.01065 344.8 7.7
334(9) 0.01122 344.8 7.7
347(10) 0.01015 344.9 7.6
370(11) 0.00889 344.9 7.5
366(10) 0.00942 344.9 7.5
359(10) 0.01040 345.0 7.4
363(10) 0.00997 345.0 7.4
337(10) 0.01095 345.1 7.4
362(10) 0.00928 345.1 7.3
359(10) 0.00947 345.2 7.3
344(10) 0.01078 345.2 7.3
367(10) 0.00975 345.2 7.3
357(10) 0.01001 345.3 7.3
360(10) 0.00948 345.3 7.3
339(10) 0.01030 345.3 7.3
355(10) 0.01053 345.4 7.3
360(10) 0.00988 345.4 7.3
350(10) 0.00988 345.5 7.3
359(10) 0.00959 345.5 7.3
359(10) 0.00989 345.5 7.4
351(10) 0.01041 345.6 7.4
343(10) 0.01037 345.6 7.4
343(10) 0.00993 345.7 7.5
382(10) 0.00914 345.7 7.5
380(10) 0.00953 345.7 7.6
358(10) 0.01029 345.8 8.0
376(10) 0.00910 345.8 8.1
377(11) 0.00847 345.9 8.1
351(10) 0.00974 345.9 8.2
375(10) 0.00963 345.9 8.3
381(10) 0.00981 346.0 8.4
348(10) 0.00981 346.0 8.5
366(10) 0.00936 346.0 8.7
354(10) 0.01017 346.1 8.8
347(10) 0.01062 346.1 8.9
350(10) 0.01051 346.2 9.1
356(10) 0.00990 346.2 9.3
342(10) 0.00950 346.2 9.4
370(10) 0.00935 346.3 9.6
358(10) 0.01021 346.3 9.8
381(10) 0.00975 346.4 10.1
349(10) 0.01032 346.4 10.3
384(11) 0.00820 346.4 10.6
379(11) 0.00903 346.5 10.8
379(10) 0.00984 346.5 11.1
360(10) 0.01000 346.5 11.5
339(10) 0.01081 346.6 11.8
345(10) 0.00982 346.6 12.2
362(10) 0.00944 346.7 12.7
343(10) 0.01074 346.7 13.1
369(10) 0.01009 346.7 13.7
365(10) 0.00979 346.8 14.3
364(10) 0.00946 346.8 14.9
382(10) 0.00907 346.9 15.7
364(10) 0.01014 346.9 16.6
351(10) 0.01064 346.9 17.6
370(10) 0.00934 347.0 18.7
380(11) 0.00853 347.0 20.0
384(11) 0.00905 347.0 21.5
371(10) 0.01005 347.1 23.2
382(10) 0.00935 347.1 25.2
374(10) 0.00924 347.2 27.4
373(10) 0.00909 347.2 29.9
380(10) 0.00924 347.2 32.8
397(10) 0.00938 347.3 35.9
390(11) 0.00904 347.3 39.4
386(11) 0.00896 347.4 43.2
364(10) 0.00961 347.4 47.3
389(11) 0.00897 347.4 51.7
402(10) 0.00923 347.5 56.2
421(11) 0.00827 347.5 60.9
402(11) 0.00874 347.6 65.7
389(11) 0.00904 347.6 70.3
421(11) 0.00833 347.6 74.7
419(11) 0.00886 347.7 78.5
402(11) 0.00852 347.7 81.7
427(12) 0.00753 347.7 83.9
437(11) 0.00777 347.8 85.4
455(11) 0.00777 347.8 85.6
429(11) 0.00869 347.9 84.8
410(11) 0.00858 347.9 83.1
428(11) 0.00771 347.9 80.7
455(12) 0.00715 348.0 77.8
432(11) 0.00836 348.0 74.6
395(10) 0.00940 348.1 71.4
405(11) 0.00884 348.1 68.2
430(11) 0.00793 348.1 65.1
429(11) 0.00802 348.2 62.4
413(11) 0.00893 348.2 59.9
403(10) 0.00926 348.2 57.8
397(11) 0.00833 348.3 56.1
436(12) 0.00732 348.3 54.9
415(11) 0.00850 348.4 54.0
437(11) 0.00842 348.4 53.7
413(11) 0.00895 348.4 53.8
403(11) 0.00853 348.5 54.3
396(11) 0.00839 348.5 56.0
410(11) 0.00856 348.6 57.6
427(11) 0.00872 348.6 59.9
416(11) 0.00867 348.6 62.7
424(11) 0.00822 348.7 66.3
442(12) 0.00713 348.7 70.6
465(12) 0.00743 348.7 75.8
447(11) 0.00818 348.8 81.9
442(11) 0.00824 348.8 89.0
443(11) 0.00783 348.9 97.1
463(12) 0.00729 348.9 106.4
494(12) 0.00680 348.9 116.7
476(11) 0.00783 349.0 128.2
482(12) 0.00754 349.0 140.8
488(12) 0.00707 349.1 154.4
504(12) 0.00669 349.1 168.8
530(13) 0.00632 349.1 183.7
567(12) 0.00656 349.2 198.9
564(13) 0.00639 349.2 213.9
560(13) 0.00617 349.3 228.0
601(13) 0.00567 349.3 240.6
588(13) 0.00605 349.3 250.9
591(13) 0.00629 349.4 258.0
657(14) 0.00537 349.4 261.5
677(14) 0.00509 349.4 260.9
654(14) 0.00531 349.5 256.3
634(13) 0.00557 349.5 248.1
608(13) 0.00612 349.6 236.9
555(13) 0.00634 349.6 223.5
577(13) 0.00585 349.6 208.8
563(13) 0.00619 349.7 193.3
520(12) 0.00691 349.7 177.7
503(12) 0.00741 349.8 162.3
485(12) 0.00707 349.8 147.7
468(12) 0.00713 349.8 133.9
458(11) 0.00768 349.9 121.1
456(11) 0.00787 349.9 109.4
422(11) 0.00882 349.9 98.9
430(11) 0.00789 350.0 89.4
396(11) 0.00865 350.0 81.0
393(11) 0.00892 350.1 73.7
393(10) 0.00948 350.1 67.2
418(11) 0.00884 350.1 61.7
413(11) 0.00811 350.2 56.8
391(11) 0.00811 350.2 52.7
359(10) 0.00993 350.3 49.1
382(10) 0.00973 350.3 45.9
399(10) 0.00928 350.3 43.2
386(11) 0.00898 350.4 40.9
387(11) 0.00818 350.4 38.8
390(11) 0.00899 350.4 37.0
392(10) 0.00947 350.5 35.4
382(10) 0.00978 350.5 33.9
365(10) 0.00963 350.6 32.6
390(11) 0.00847 350.6 31.5
373(10) 0.00966 350.6 30.4
380(10) 0.00980 350.7 29.4
381(10) 0.00956 350.7 28.6
401(11) 0.00857 350.8 27.8
402(11) 0.00827 350.8 27.0
375(10) 0.00923 350.8 26.4
367(10) 0.01009 350.9 25.8
372(10) 0.00958 350.9 25.3
378(11) 0.00893 351.0 24.8
360(10) 0.00946 351.0 24.4
349(10) 0.01020 351.0 24.0
379(10) 0.00978 351.1 23.7
390(10) 0.00927 351.1 23.5
368(10) 0.00947 351.1 23.3
356(10) 0.00970 351.2 23.2
346(10) 0.01041 351.2 23.2
375(10) 0.00990 351.3 23.2
352(10) 0.01029 351.3 23.3
363(10) 0.00936 351.3 23.5
391(11) 0.00878 351.4 23.7
375(10) 0.00957 351.4 24.1
398(10) 0.00929 351.5 24.5
366(10) 0.00973 351.5 25.1
387(11) 0.00865 351.5 25.8
380(10) 0.00928 351.6 26.6
398(10) 0.00910 351.6 27.8
411(11) 0.00888 351.6 29.2
405(11) 0.00869 351.7 31.2
377(11) 0.00879 351.7 33.7
364(10) 0.00986 351.8 36.9
412(11) 0.00893 351.8 40.7
403(10) 0.00930 351.8 44.9
407(11) 0.00836 351.9 49.3
419(11) 0.00769 351.9 53.3
400(11) 0.00903 352.0 57.1
389(10) 0.00941 352.0 61.2
421(11) 0.00886 352.0 66.9
394(11) 0.00897 352.1 75.3
414(11) 0.00808 352.1 88.1
476(12) 0.00738 352.1 105.6
472(11) 0.00783 352.2 129.5
509(12) 0.00726 352.2 160.8
575(13) 0.00603 352.3 200.4
598(14) 0.00531 352.3 248.6
695(14) 0.00497 352.3 304.7
746(14) 0.00494 352.4 367.1
891(16) 0.00410 352.4 432.5
1039(17) 0.003336 352.5 495.4
1144(19) 0.002877 352.5 548.1
1201(19) 0.002838 352.5 581.4
1166(18) 0.003214 352.6 588.3
1083(17) 0.003403 352.6 567.1
985(17) 0.003483 352.6 522.7
897(17) 0.00365 352.7 463.6
819(15) 0.00423 352.7 398.6
758(14) 0.00486 352.8 334.3
686(14) 0.00536 352.8 274.7
647(14) 0.00532 352.8 222.5
566(13) 0.00597 352.9 178.5
528(12) 0.00663 352.9 143.0
482(11) 0.00773 353.0 115.1
512(12) 0.00669 353.0 93.7
488(12) 0.00708 353.0 77.8
479(12) 0.00691 353.1 65.9
450(11) 0.00771 353.1 57.2
431(11) 0.00864 353.2 50.7
447(11) 0.00776 353.2 45.8
406(11) 0.00867 353.2 42.1
453(12) 0.00737 353.3 39.1
416(11) 0.00845 353.3 36.7
406(10) 0.00911 353.3 34.8
397(11) 0.00883 353.4 33.2
391(11) 0.00853 353.4 32.0
397(11) 0.00856 353.5 31.0
408(11) 0.00871 353.5 30.2
409(10) 0.00908 353.5 29.6
404(11) 0.00840 353.6 29.1
396(11) 0.00827 353.6 28.9
396(11) 0.00847 353.7 28.8
407(11) 0.00877 353.7 29.0
417(11) 0.00893 353.7 29.3
429(11) 0.00820 353.8 29.9
422(11) 0.00803 353.8 30.6
392(10) 0.00924 353.8 31.6
403(10) 0.00927 353.9 32.8
431(11) 0.00853 353.9 34.5
394(11) 0.00890 354.0 36.6
412(11) 0.00783 354.0 39.3
432(11) 0.00807 354.0 43.0
449(11) 0.00823 354.1 47.9
439(11) 0.00836 354.1 54.6
456(12) 0.00742 354.2 63.7
480(12) 0.00645 354.2 76.1
469(12) 0.00733 354.2 92.7
486(11) 0.00758 354.3 114.3
503(12) 0.00738 354.3 141.9
563(13) 0.00631 354.3 175.9
648(14) 0.00501 354.4 216.3
675(14) 0.00516 354.4 262.2
680(14) 0.00543 354.5 311.7
750(14) 0.00496 354.5 361.4
844(15) 0.00417 354.5 406.4
885(16) 0.00371 354.6 439.8
929(17) 0.00366 354.6 455.3
917(16) 0.00410 354.7 449.3
939(16) 0.00383 354.7 423.1
803(15) 0.00437 354.7 382.3
761(15) 0.00429 354.8 333.9
639(14) 0.00537 354.8 283.5
552(12) 0.00670 354.9 235.6
500(12) 0.00728 354.9 192.4
456(11) 0.00775 354.9 155.3
451(12) 0.00753 355.0 124.7
445(11) 0.00758 355.0 100.3
415(11) 0.00898 355.0 81.3
405(11) 0.00891 355.1 67.0
431(12) 0.00756 355.1 56.3
405(11) 0.00846 355.2 48.4
404(11) 0.00874 355.2 42.6
381(10) 0.00978 355.2 38.2
359(10) 0.01020 355.3 34.8
349(10) 0.01010 355.3 32.1
406(11) 0.00850 355.4 30.0
398(11) 0.00904 355.4 28.3
391(10) 0.00952 355.4 26.8
370(10) 0.00962 355.5 25.6
388(11) 0.00858 355.5 24.6
391(11) 0.00883 355.5 23.8
376(10) 0.00951 355.6 23.1
379(10) 0.00982 355.6 22.5
369(10) 0.00911 355.7 22.1
377(11) 0.00864 355.7 21.7
368(10) 0.00981 355.7 21.5
389(10) 0.00936 355.8 21.4
383(10) 0.00986 355.8 21.3
376(11) 0.00897 355.9 21.4
373(11) 0.00870 355.9 21.6
388(11) 0.00900 355.9 21.8
361(10) 0.01022 356.0 22.2
354(10) 0.01053 356.0 22.7
358(10) 0.00989 356.0 23.3
363(11) 0.00882 356.1 24.1
383(11) 0.00872 356.1 25.0
374(10) 0.00981 356.2 26.1
361(10) 0.01031 356.2 27.4
376(10) 0.00920 356.2 29.0
394(11) 0.00798 356.3 30.9
393(11) 0.00873 356.3 33.2
391(10) 0.00942 356.4 36.2
406(10) 0.00919 356.4 39.9
405(11) 0.00853 356.4 44.8
379(11) 0.00858 356.5 51.6
387(10) 0.00915 356.5 60.7
433(11) 0.00865 356.6 73.5
409(11) 0.00902 356.6 90.9
473(12) 0.00736 356.6 114.2
464(12) 0.00725 356.7 144.7
526(12) 0.00658 356.7 183.1
570(12) 0.00653 356.7 229.5
622(13) 0.00580 356.8 282.7
707(14) 0.00493 356.8 340.0
753(15) 0.00455 356.9 396.5
819(15) 0.00432 356.9 444.2
848(15) 0.00437 356.9 473.9
852(15) 0.00421 357.0 477.8
806(15) 0.00432 357.0 454.9
752(15) 0.00452 357.1 411.3
664(14) 0.00538 357.1 356.5
638(13) 0.00582 357.1 298.8
599(13) 0.00580 357.2 244.1
523(12) 0.00663 357.2 195.8
496(12) 0.00687 357.2 155.1
482(12) 0.00739 357.3 122.5
480(11) 0.00776 357.3 97.2
414(11) 0.00815 357.4 78.3
427(11) 0.00767 357.4 64.4
454(12) 0.00754 357.4 54.4
414(11) 0.00892 357.5 47.1
415(11) 0.00897 357.5 41.7
404(11) 0.00871 357.6 37.7
409(11) 0.00817 357.6 34.7
405(11) 0.00833 357.6 32.2
417(11) 0.00840 357.7 30.3
374(10) 0.00979 357.7 28.7
384(11) 0.00888 357.7 27.4
386(11) 0.00853 357.8 26.4
385(11) 0.00895 357.8 25.6
375(10) 0.00982 357.9 25.1
386(10) 0.00951 357.9 24.9
384(11) 0.00904 357.9 25.2
401(11) 0.00794 358.0 26.0
413(11) 0.00824 358.0 27.6
400(10) 0.00921 358.1 30.5
393(10) 0.00939 358.1 34.8
394(11) 0.00865 358.1 41.0
398(11) 0.00804 358.2 49.1
431(11) 0.00792 358.2 58.8
415(11) 0.00894 358.2 69.4
441(11) 0.00840 358.3 79.2
448(11) 0.00757 358.3 86.0
449(12) 0.00710 358.4 87.7
442(11) 0.00799 358.4 83.4
453(11) 0.00817 358.4 74.7
397(10) 0.00933 358.5 63.9
419(11) 0.00852 358.5 53.1
399(11) 0.00841 358.6 43.5
361(10) 0.00979 358.6 35.6
396(10) 0.00940 358.6 29.6
385(10) 0.00948 358.7 25.3
397(11) 0.00875 358.7 22.3
364(10) 0.00931 358.8 20.3
381(11) 0.00882 358.8 19.0
388(10) 0.00946 358.8 18.1
369(10) 0.00983 358.9 17.4
382(10) 0.00931 358.9 16.9
404(11) 0.00840 358.9 16.6
382(10) 0.00928 359.0 16.3
356(10) 0.01036 359.0 16.0
363(10) 0.01013 359.1 15.8
348(10) 0.00989 359.1 15.6
369(11) 0.00884 359.1 15.5
385(11) 0.00891 359.2 15.4
367(10) 0.01015 359.2 15.3
384(11) 0.00899 359.3 15.3
385(11) 0.00877 359.3 15.2
362(10) 0.00944 359.3 15.2
344(10) 0.01017 359.4 15.2
358(10) 0.01041 359.4 15.2
342(10) 0.00997 359.4 15.2
365(10) 0.00929 359.5 15.3
362(10) 0.00941 359.5 15.3
376(10) 0.00966 359.6 15.4
388(10) 0.00964 359.6 15.5
393(11) 0.00878 359.6 15.6
368(10) 0.00910 359.7 15.7
374(10) 0.00923 359.7 15.9
357(10) 0.01017 359.8 16.0
330(9) 0.01139 359.8 16.2
345(10) 0.01015 359.8 16.3
357(10) 0.00962 359.8 16.5
398(11) 0.00885 359.8 16.7
386(10) 0.00960 359.7 16.9
381(10) 0.00964 359.7 17.1
346(10) 0.01019 359.6 17.4
344(10) 0.00915 359.6 17.6
363(10) 0.00988 359.5 17.9
381(10) 0.00967 359.5 18.2
343(10) 0.01080 359.5 18.5
396(11) 0.00896 359.4 18.8
396(11) 0.00801 359.4 19.2
354(10) 0.01018 359.3 19.6
361(10) 0.01025 359.3 19.9
354(10) 0.01055 359.2 20.3
374(10) 0.00912 359.2 20.8
356(10) 0.00934 359.2 21.2
370(10) 0.00956 359.1 21.7
370(10) 0.01019 359.1 22.2
373(10) 0.00953 359.0 22.7
376(10) 0.00909 359.0 23.3
367(10) 0.00914 358.9 23.9
355(10) 0.00968 358.9 24.5
383(10) 0.00969 358.9 25.1
374(10) 0.00967 358.8 25.8
371(10) 0.00932 358.8 26.5
388(11) 0.00876 358.7 27.3
386(10) 0.00910 358.7 28.1
387(10) 0.00957 358.6 28.9
351(10) 0.01013 358.6 29.8
353(10) 0.00966 358.6 30.8
366(10) 0.00919 358.5 31.8
392(11) 0.00867 358.5 32.9
373(10) 0.00993 358.4 34.0
366(10) 0.00932 358.4 35.2
408(11) 0.00804 358.3 36.5
384(10) 0.00923 358.3 37.9
415(11) 0.00868 358.3 39.5
378(10) 0.00988 358.2 41.1
370(10) 0.00927 358.2 42.9
390(11) 0.00870 358.1 44.8
397(11) 0.00849 358.1 46.9
374(10) 0.00965 358.0 49.3
417(11) 0.00897 358.0 51.8
377(10) 0.00927 358.0 54.6
412(11) 0.00787 357.9 57.7
402(11) 0.00862 357.9 61.1
415(11) 0.00895 357.8 64.9
414(11) 0.00900 357.8 69.2
410(11) 0.00828 357.8 73.9
413(11) 0.00800 357.7 79.1
426(11) 0.00822 357.7 84.9
458(11) 0.00795 357.6 91.4
441(11) 0.00855 357.6 98.6
442(11) 0.00808 357.5 106.6
435(11) 0.00758 357.5 115.4
456(11) 0.00774 357.5 125.1
467(11) 0.00798 357.4 135.8
481(11) 0.00772 357.4 147.6
485(12) 0.00722 357.3 160.4
499(12) 0.00662 357.3 174.4
523(12) 0.00661 357.2 189.5
536(12) 0.00697 357.2 205.8
544(12) 0.00681 357.2 223.4
574(13) 0.00605 357.1 242.1
594(13) 0.00555 357.1 262.1
616(13) 0.00567 357.0 283.1
645(13) 0.00572 357.0 305.2
667(14) 0.00547 356.9 328.3
707(14) 0.00498 356.9 352.1
728(15) 0.00460 356.9 376.6
763(15) 0.00451 356.8 401.3
805(15) 0.00460 356.8 426.2
830(15) 0.00434 356.7 450.8
855(16) 0.00406 356.7 474.6
912(16) 0.00371 356.6 497.3
877(16) 0.00398 356.6 518.2
935(16) 0.00397 356.6 536.8
901(16) 0.00400 356.5 552.6
895(16) 0.00387 356.5 565.1
920(16) 0.00368 356.4 573.7
904(16) 0.00393 356.4 578.3
924(16) 0.00403 356.3 578.7
890(16) 0.00399 356.3 574.8
880(16) 0.00391 356.3 567.1
882(16) 0.00385 356.2 555.7
858(16) 0.00405 356.2 541.4
815(15) 0.00459 356.1 524.7
771(15) 0.00459 356.1 506.1
798(16) 0.00408 356.0 486.4
746(15) 0.00466 356.0 466.0
757(14) 0.00488 356.0 445.7
728(14) 0.00510 355.9 425.6
722(15) 0.00472 355.9 406.1
717(15) 0.00472 355.8 387.4
698(14) 0.00495 355.8 369.4
678(14) 0.00546 355.7 352.1
684(14) 0.00539 355.7 335.1
643(14) 0.00545 355.7 318.0
681(15) 0.00473 355.6 300.3
662(14) 0.00527 355.6 281.7
650(13) 0.00567 355.5 262.4
617(13) 0.00602 355.5 242.8
581(13) 0.00596 355.4 223.3
579(14) 0.00545 355.4 204.6
542(12) 0.00642 355.4 186.8
549(12) 0.00669 355.3 170.5
543(12) 0.00674 355.3 155.6
483(12) 0.00727 355.2 142.2
483(12) 0.00672 355.2 130.4
488(12) 0.00715 355.1 119.9
469(11) 0.00806 355.1 110.9
445(11) 0.00829 355.1 103.1
479(12) 0.00725 355.0 96.3
468(12) 0.00723 355.0 90.6
455(11) 0.00768 354.9 85.8
466(11) 0.00799 354.9 81.7
478(11) 0.00759 354.8 78.4
450(11) 0.00798 354.8 75.6
437(11) 0.00777 354.8 73.4
422(11) 0.00813 354.7 71.8
454(11) 0.00815 354.7 70.7
436(11) 0.00820 354.6 70.1
443(11) 0.00767 354.6 70.0
440(11) 0.00758 354.5 70.4
449(11) 0.00787 354.5 71.4
424(11) 0.00874 354.5 72.9
455(11) 0.00790 354.4 74.9
452(11) 0.00756 354.4 77.6
428(11) 0.00766 354.3 80.8
425(11) 0.00824 354.3 84.6
446(11) 0.00839 354.2 89.0
456(11) 0.00780 354.2 93.9
455(11) 0.00758 354.2 99.4
440(11) 0.00788 354.1 105.3
449(11) 0.00801 354.1 111.5
467(11) 0.00793 354.0 117.9
442(11) 0.00800 354.0 124.3
464(12) 0.00710 353.9 130.5
474(12) 0.00705 353.9 136.2
466(11) 0.00760 353.9 141.2
508(12) 0.00733 353.8 145.0
484(12) 0.00731 353.8 147.3
509(12) 0.00654 353.7 148.1
493(12) 0.00687 353.7 147.2
493(12) 0.00726 353.6 144.8
478(11) 0.00784 353.6 140.9
475(12) 0.00718 353.6 135.9
485(12) 0.00676 353.5 130.1
473(12) 0.00745 353.5 123.8
441(11) 0.00832 353.4 117.2
455(11) 0.00824 353.4 110.7
465(12) 0.00747 353.3 104.4
440(11) 0.00758 353.3 98.3
442(11) 0.00801 353.3 92.6
424(11) 0.00876 353.2 87.3
456(11) 0.00814 353.2 82.5
439(11) 0.00786 353.1 78.1
457(12) 0.00678 353.1 74.2
418(11) 0.00838 353.0 70.8
428(11) 0.00858 353.0 67.8
410(10) 0.00911 353.0 65.1
434(11) 0.00774 352.9 62.8
439(12) 0.00712 352.9 60.9
412(11) 0.00837 352.8 59.1
414(11) 0.00891 352.8 57.7
395(10) 0.00935 352.7 56.4
416(11) 0.00812 352.7 55.2
406(11) 0.00824 352.7 54.2
411(11) 0.00822 352.6 53.2
415(11) 0.00896 352.6 52.3
412(11) 0.00880 352.5 51.5
422(11) 0.00829 352.5 50.6
436(11) 0.00758 352.4 49.8
419(11) 0.00819 352.4 49.0
384(10) 0.00969 352.4 48.2
408(11) 0.00867 352.3 47.3
418(11) 0.00813 352.3 46.4
374(10) 0.00927 352.2 45.5
392(11) 0.00905 352.2 44.6
419(11) 0.00886 352.1 43.7
403(11) 0.00876 352.1 42.7
375(10) 0.00921 352.1 41.7
398(11) 0.00842 352.0 40.7
392(10) 0.00914 352.0 39.8
423(11) 0.00879 351.9 38.8
411(11) 0.00839 351.9 37.8
425(11) 0.00791 351.8 36.8
399(11) 0.00889 351.8 35.9
389(10) 0.00915 351.8 34.9
394(10) 0.00941 351.7 34.0
395(11) 0.00857 351.7 33.1
398(11) 0.00843 351.6 32.3
384(11) 0.00891 351.6 31.5
398(10) 0.00911 351.5 30.7
397(10) 0.00936 351.5 29.9
411(11) 0.00810 351.5 29.2
379(11) 0.00868 351.4 28.6
385(11) 0.00887 351.4 28.0
393(10) 0.00929 351.3 27.4
368(10) 0.01004 351.3 26.9
371(10) 0.00961 351.2 26.5
390(11) 0.00833 351.2 26.1
396(11) 0.00887 351.2 25.8
407(10) 0.00913 351.1 25.5
400(10) 0.00939 351.1 25.4
371(10) 0.00945 351.0 25.3
367(11) 0.00868 351.0 25.3
400(11) 0.00854 350.9 25.5
404(10) 0.00924 350.9 25.8
384(10) 0.00948 350.9 26.2
389(11) 0.00891 350.8 26.7
388(11) 0.00833 350.8 27.4
401(11) 0.00858 350.7 28.3
393(10) 0.00952 350.7 29.4
383(10) 0.00955 350.6 30.7
405(11) 0.00870 350.6 32.2
420(11) 0.00802 350.6 34.0
436(11) 0.00794 350.5 36.0
390(10) 0.00953 350.5 38.2
406(11) 0.00892 350.4 40.7
425(11) 0.00820 350.4 43.5
417(11) 0.00825 350.3 46.5
427(11) 0.00812 350.3 49.7
423(11) 0.00876 350.3 53.1
403(10) 0.00909 350.2 56.8
419(11) 0.00828 350.2 60.5
421(11) 0.00823 350.1 64.4
455(11) 0.00783 350.1 68.3
468(11) 0.00795 350.0 72.1
443(11) 0.00820 350.0 75.7
440(11) 0.00777 350.0 79.1
446(11) 0.00763 349.9 82.0
469(12) 0.00749 349.9 84.4
436(11) 0.00849 349.8 86.1
463(12) 0.00755 349.8 87.0
461(12) 0.00734 349.7 87.1
510(12) 0.00662 349.7 86.3
453(11) 0.00804 349.7 84.7
485(11) 0.00769 349.6 82.4
413(11) 0.00832 349.6 79.5
456(12) 0.00734 349.5 76.1
443(11) 0.00779 349.5 72.4
443(11) 0.00823 349.4 68.4
475(11) 0.00774 349.4 64.3
445(11) 0.00779 349.4 60.2
467(12) 0.00687 349.3 56.1
459(12) 0.00745 349.3 52.1
414(11) 0.00880 349.2 48.3
420(11) 0.00900 349.2 44.7
385(11) 0.00892 349.1 41.3
381(11) 0.00854 349.1 38.2
370(10) 0.00922 349.1 35.2
368(10) 0.01011 349.0 32.6
378(10) 0.00986 349.0 30.1
351(10) 0.01003 348.9 27.9
387(11) 0.00820 348.9 26.0
363(10) 0.00987 348.8 24.2
386(10) 0.00960 348.8 22.6
354(10) 0.01037 348.8 21.3
355(10) 0.00946 348.7 20.1
361(11) 0.00883 348.7 19.1
382(10) 0.00936 348.6 18.2
388(10) 0.00955 348.6 17.4
377(10) 0.00982 348.6 16.8
413(11) 0.00805 348.5 16.2
367(10) 0.00913 348.5 15.7
367(10) 0.00948 348.4 15.4
391(10) 0.00951 348.4 15.1
383(10) 0.00962 348.3 14.8
361(10) 0.00942 348.3 14.7
350(10) 0.00967 348.3 14.6
384(10) 0.00910 348.2 14.6
341(10) 0.01088 348.2 14.6
362(10) 0.00986 348.1 14.7
376(10) 0.00908 348.1 14.9
393(11) 0.00866 348.0 15.1
395(11) 0.00868 348.0 15.4
356(10) 0.01050 348.0 15.7
388(10) 0.00919 347.9 16.2
382(10) 0.00908 347.9 16.7
397(11) 0.00851 347.8 17.3
384(11) 0.00906 347.8 18.0
374(10) 0.00993 347.7 18.7
350(10) 0.01007 347.7 19.6
376(11) 0.00876 347.7 20.5
366(10) 0.00936 347.6 21.6
377(10) 0.00953 347.6 22.7
387(10) 0.00954 347.5 23.9
371(10) 0.00927 347.5 25.3
342(10) 0.01024 347.4 26.7
362(10) 0.00938 347.4 28.1
381(10) 0.00950 347.4 29.7
380(10) 0.00966 347.3 31.3
390(10) 0.00909 347.3 32.9
383(11) 0.00866 347.2 34.6
392(11) 0.00907 347.2 36.2
409(10) 0.00909 347.1 37.9
393(10) 0.00951 347.1 39.4
408(11) 0.00850 347.1 40.9
367(11) 0.00904 347.0 42.2
397(11) 0.00844 347.0 43.4
374(10) 0.00993 346.9 44.3
390(10) 0.00946 346.9 45.0
389(11) 0.00903 346.8 45.5
396(11) 0.00823 346.8 45.6
388(11) 0.00895 346.8 45.4
379(10) 0.00964 346.7 44.9
403(10) 0.00916 346.7 44.2
399(11) 0.00864 346.6 43.1
402(11) 0.00787 346.6 41.9
394(11) 0.00866 346.5 40.5
365(10) 0.01006 346.5 39.0
381(10) 0.00958 346.5 37.4
397(11) 0.00893 346.4 35.7
375(11) 0.00882 346.4 34.0
395(11) 0.00871 346.3 32.3
384(10) 0.00959 346.3 30.6
394(10) 0.00929 346.2 29.0
358(10) 0.00981 346.2 27.4
380(11) 0.00861 346.2 25.9
368(10) 0.00948 346.1 24.5
331(9) 0.01115 346.1 23.2
362(10) 0.00968 346.0 21.9
378(10) 0.00916 346.0 20.8
389(11) 0.00846 345.9 19.7
379(11) 0.00905 345.9 18.7
361(10) 0.01028 345.9 17.9
365(10) 0.00978 345.8 17.1
378(10) 0.00927 345.8 16.4
373(11) 0.00897 345.7 15.8
350(10) 0.00999 345.7 15.3
367(10) 0.01020 345.6 14.8
341(10) 0.01038 345.6 14.5
346(10) 0.00973 345.6 14.2
354(10) 0.00974 345.5 14.0
363(10) 0.00962 345.5 13.9
348(10) 0.01071 345.4 13.8
367(10) 0.00927 345.4 13.8
341(10) 0.00964 345.3 13.9
347(10) 0.00994 345.3 14.1
357(10) 0.00988 345.3 14.4
354(10) 0.01049 345.2 14.7
349(10) 0.00963 345.2 15.2
354(10) 0.00908 345.1 15.8
342(10) 0.01008 345.1 16.6
345(10) 0.01061 345.0 17.6
352(10) 0.01051 345.0 18.8
355(10) 0.00983 345.0 20.3
371(11) 0.00900 344.9 22.1
373(10) 0.00966 344.9 24.3
351(10) 0.01057 344.8 27.0
353(10) 0.01051 344.8 30.2
366(10) 0.00944 344.7 33.9
354(11) 0.00906 344.7 38.3
390(11) 0.00880 344.7 43.7
379(10) 0.00975 344.6 49.4
398(10) 0.00922 344.6 55.9
404(11) 0.00866 344.5 63.0
406(11) 0.00798 344.5 70.7
388(11) 0.00901 344.4 78.8
420(11) 0.00871 344.4 87.1
420(11) 0.00874 344.4 95.2
455(11) 0.00761 344.3 102.8
446(12) 0.00716 344.3 109.3
469(12) 0.00738 344.2 114.2
462(11) 0.00806 344.2 117.0
457(11) 0.00806 344.1 117.5
439(11) 0.00809 344.1 115.5
431(11) 0.00786 344.1 111.3
460(12) 0.00748 344.0 105.5
465(11) 0.00801 344.0 98.6
421(11) 0.00874 343.9 91.2
422(11) 0.00811 343.9 83.7
422(11) 0.00794 343.8 76.5
403(11) 0.00843 343.8 70.1
431(11) 0.00863 343.8 64.9
412(11) 0.00891 343.7 61.4
431(11) 0.00818 343.7 60.2
440(11) 0.00767 343.6 62.0
427(11) 0.00832 343.6 67.5
479(11) 0.00774 343.5 77.2
517(12) 0.00696 343.5 91.0
535(12) 0.00652 343.5 108.1
564(13) 0.00614 343.4 126.2
647(14) 0.00539 343.4 141.7
619(13) 0.00600 343.3 149.7
605(13) 0.00581 343.3 146.6
584(13) 0.00587 343.2 133.2
577(13) 0.00592 343.2 113.5
490(12) 0.00747 343.2 92.0
476(11) 0.00785 343.1 72.0
451(11) 0.00766 343.1 55.1
424(11) 0.00795 343.0 41.9
411(11) 0.00854 343.0 32.2
399(10) 0.00931 342.9 25.5
403(10) 0.00913 342.9 20.9
387(10) 0.00918 342.9 17.8
393(11) 0.00834 342.8 15.7
380(10) 0.00911 342.8 14.1
374(10) 0.00961 342.7 13.0
372(10) 0.01005 342.7 12.0
366(10) 0.00937 342.6 11.2
356(11) 0.00884 342.6 10.6
352(10) 0.00992 342.6 10.0
334(10) 0.01085 342.5 9.5
337(10) 0.01105 342.5 9.0
358(10) 0.00940 342.4 8.6
370(11) 0.00856 342.4 8.3
374(11) 0.00906 342.3 8.0
350(10) 0.01081 342.3 7.7
366(10) 0.01018 342.3 7.4
350(10) 0.00999 342.2 7.2
366(11) 0.00902 342.2 7.0
351(10) 0.00992 342.1 6.8
359(10) 0.01026 342.1 6.6
354(10) 0.01020 342.0 6.4
338(10) 0.01043 342.0 6.2
351(10) 0.00923 342.0 6.1
347(10) 0.00974 341.9 6.0
338(10) 0.01099 341.9 5.9
343(10) 0.01053 341.8 5.7
350(10) 0.00999 341.8 5.7
368(11) 0.00903 341.7 5.6
370(10) 0.00921 341.7 5.5
363(10) 0.01038 341.7 5.4
356(10) 0.01029 341.6 5.3
359(10) 0.00961 341.6 5.3
345(10) 0.00967 341.5 5.2
341(10) 0.00989 341.5 5.2
346(10) 0.01077 341.4 5.1
378(10) 0.00926 341.4 5.1
357(10) 0.00975 341.4 5.0
314(10) 0.01094 341.3 5.0
323(10) 0.01073 341.3 4.9
338(10) 0.01094 341.2 4.9
356(10) 0.01006 341.2 4.9
327(10) 0.01061 341.1 4.8
332(10) 0.01044 341.1 4.8
336(10) 0.01075 341.1 4.8
330(9) 0.01132 341.0 4.8
351(10) 0.01011 341.0 4.8
328(10) 0.01050 340.9 4.8
336(10) 0.01032 340.9 4.7
356(10) 0.01013 340.9 4.7
326(9) 0.01137 340.8 4.7
375(11) 0.00906 340.8 4.8
351(10) 0.00961 340.8 4.8
364(10) 0.00958 340.7 4.8
356(10) 0.00998 340.7 4.8
306(9) 0.01233 340.6 4.8
323(10) 0.01044 340.6 4.8
345(10) 0.00918 340.6 4.9
362(10) 0.00914 340.5 4.9
367(10) 0.01005 340.5 5.0
350(10) 0.01053 340.4 5.0
359(10) 0.00943 340.4 5.1
346(10) 0.00908 340.4 5.1
318(9) 0.01114 340.3 5.2
334(10) 0.01105 340.3 5.3
327(9) 0.01135 340.2 5.3
360(10) 0.00989 340.2 5.4
371(11) 0.00863 340.2 5.5
341(10) 0.01007 340.1 5.7
327(9) 0.01138 340.1 5.8
361(10) 0.01017 340.0 6.0
356(10) 0.00931 340.0 6.1
346(10) 0.00944 340.0 6.3
342(10) 0.01002 339.9 6.6
329(9) 0.01138 339.9 6.9
352(10) 0.01042 339.8 7.2
370(10) 0.00953 339.8 7.5
328(10) 0.01014 339.8 8.0
371(10) 0.00908 339.7 8.6
383(10) 0.00978 339.7 9.3
383(10) 0.00942 339.6 10.4
378(10) 0.00932 339.6 11.8
369(10) 0.00937 339.6 13.8
370(10) 0.00965 339.5 16.6
396(10) 0.00934 339.5 20.4
377(10) 0.00967 339.4 25.5
399(11) 0.00855 339.4 32.0
429(11) 0.00779 339.4 39.9
420(11) 0.00848 339.3 49.1
473(11) 0.00784 339.3 58.8
447(11) 0.00799 339.2 68.2
477(12) 0.00710 339.2 75.7
521(12) 0.00657 339.2 79.6
513(12) 0.00685 339.1 78.7
497(12) 0.00738 339.1 73.3
469(12) 0.00746 339.0 65.0
452(12) 0.00735 339.0 55.4
431(11) 0.00815 339.0 45.9
461(11) 0.00782 338.9 37.3
392(10) 0.00952 338.9 30.0
377(10) 0.00929 338.8 24.1
388(11) 0.00854 338.8 19.6
369(10) 0.00942 338.8 16.3
374(10) 0.00976 338.7 14.0
359(10) 0.01029 338.7 12.3
342(10) 0.01034 338.7 11.2
364(10) 0.00929 338.6 10.4
363(10) 0.00965 338.6 9.9
341(10) 0.01071 338.5 9.4
348(10) 0.01070 338.5 9.2
350(10) 0.01002 338.5 8.9
343(10) 0.00947 338.4 8.8
341(10) 0.01029 338.4 8.7
365(10) 0.00998 338.3 8.6
386(10) 0.00972 338.3 8.6
354(10) 0.01002 338.3 8.6
343(10) 0.00929 338.2 8.6
330(10) 0.01040 338.2 8.7
349(10) 0.01070 338.1 8.8
358(10) 0.01037 338.1 9.0
372(10) 0.00961 338.1 9.2
380(11) 0.00880 338.0 9.4
370(10) 0.00953 338.0 9.7
342(10) 0.01074 337.9 10.0
352(10) 0.01037 337.9 10.4
333(10) 0.01071 337.9 10.8
350(10) 0.00933 337.8 11.3
351(10) 0.00996 337.8 11.8
341(10) 0.01087 337.7 12.5
345(10) 0.01060 337.7 13.2
352(10) 0.00961 337.7 13.9
331(10) 0.01005 337.6 14.8
354(10) 0.00936 337.6 15.7
339(10) 0.01093 337.5 16.8
319(9) 0.01160 337.5 17.9
359(10) 0.00960 337.5 19.1
372(10) 0.00917 337.4 20.3
373(10) 0.00953 337.4 21.6
368(10) 0.01019 337.3 22.9
365(10) 0.00982 337.3 24.2
374(10) 0.00910 337.3 25.5
356(10) 0.00963 337.2 26.7
337(10) 0.01044 337.2 27.9
351(10) 0.01060 337.1 28.8
374(10) 0.00919 337.1 29.6
361(10) 0.00924 337.1 30.2
379(11) 0.00886 337.0 30.5
370(10) 0.00970 337.0 30.6
362(10) 0.01024 336.9 30.4
384(11) 0.00892 336.9 30.1
348(10) 0.00981 336.9 29.6
380(10) 0.00919 336.8 29.0
370(10) 0.00964 336.8 28.4
349(10) 0.01056 336.7 27.7
326(10) 0.01065 336.7 27.1
343(10) 0.00947 336.7 26.5
362(10) 0.00968 336.6 26.0
383(10) 0.00953 336.6 25.6
389(10) 0.00955 336.6 25.3
364(10) 0.00958 336.5 25.1
348(10) 0.00949 336.5 25.1
340(10) 0.00987 336.4 25.1
352(10) 0.01023 336.4 25.4
366(10) 0.01018 336.4 25.7
360(10) 0.00979 336.3 26.3
385(11) 0.00803 336.3 27.0
359(10) 0.00998 336.2 27.9
378(10) 0.00991 336.2 28.9
370(10) 0.00996 336.2 30.2
400(11) 0.00891 336.1 31.7
374(11) 0.00891 336.1 33.5
387(10) 0.00913 336.0 35.7
403(10) 0.00926 336.0 38.2
407(10) 0.00908 336.0 41.3
386(11) 0.00892 335.9 44.9
377(11) 0.00890 335.9 49.4
404(11) 0.00850 335.8 54.9
404(10) 0.00911 335.8 61.6
393(10) 0.00955 335.8 69.8
447(11) 0.00781 335.7 79.8
464(12) 0.00722 335.7 92.0
477(12) 0.00715 335.6 106.6
477(11) 0.00779 335.6 124.0
503(12) 0.00705 335.6 144.4
502(12) 0.00683 335.5 167.9
556(13) 0.00598 335.5 194.5
605(13) 0.00569 335.4 223.8
595(13) 0.00629 335.4 255.5
667(14) 0.00531 335.4 288.8
757(15) 0.00448 335.3 322.1
800(15) 0.00429 335.3 353.6
803(15) 0.00434 335.2 381.0
827(15) 0.00453 335.2 401.4
821(15) 0.00420 335.2 412.6
797(15) 0.00422 335.1 412.9
808(16) 0.00410 335.1 402.6
758(14) 0.00477 335.0 383.1
742(14) 0.00501 335.0 356.9
678(14) 0.00503 335.0 326.8
646(14) 0.00517 334.9 295.2
620(13) 0.00550 334.9 263.8
592(13) 0.00601 334.8 234.0
579(12) 0.00641 334.8 206.7
557(13) 0.00633 334.8 182.2
534(13) 0.00624 334.7 160.8
504(12) 0.00701 334.7 142.5
503(12) 0.00706 334.6 127.3
498(12) 0.00750 334.6 114.8
503(12) 0.00693 334.6 104.8
473(12) 0.00703 334.5 96.9
459(12) 0.00740 334.5 90.8
469(11) 0.00768 334.5 86.2
436(11) 0.00848 334.4 82.8
446(11) 0.00777 334.4 80.3
444(12) 0.00709 334.3 78.7
446(11) 0.00769 334.3 77.6
446(11) 0.00834 334.3 77.0
456(11) 0.00804 334.2 76.7
427(11) 0.00818 334.2 76.6
433(12) 0.00734 334.1 76.7
428(11) 0.00782 334.1 77.0
433(11) 0.00854 334.1 77.2
444(11) 0.00812 334.0 77.6
459(11) 0.00769 334.0 77.8
420(11) 0.00798 333.9 78.1
453(11) 0.00767 333.9 78.2
445(11) 0.00829 333.9 78.3
433(11) 0.00825 333.8 78.2
446(11) 0.00764 333.8 77.9
468(12) 0.00701 333.7 77.5
432(11) 0.00787 333.7 77.0
429(11) 0.00853 333.7 76.3
423(11) 0.00850 333.6 75.4
434(11) 0.00783 333.6 74.4
418(11) 0.00827 333.5 73.3
435(11) 0.00823 333.5 72.1
424(11) 0.00872 333.5 70.8
432(11) 0.00821 333.4 69.5
411(11) 0.00822 333.4 68.1
452(12) 0.00734 333.3 66.6
391(10) 0.00919 333.3 65.2
435(11) 0.00857 333.3 63.7
415(11) 0.00851 333.2 62.2
419(11) 0.00835 333.2 60.7
450(12) 0.00739 333.1 59.2
396(11) 0.00900 333.1 57.7
422(11) 0.00885 333.1 56.2
408(11) 0.00807 333.0 54.7
390(11) 0.00839 333.0 53.2
409(11) 0.00810 332.9 51.7
400(10) 0.00913 332.9 50.2
415(11) 0.00888 332.9 48.8
394(11) 0.00899 332.8 47.3
385(11) 0.00894 332.8 45.8
374(10) 0.00964 332.7 44.4
388(10) 0.00946 332.7 43.0
382(10) 0.00976 332.7 41.5
390(11) 0.00901 332.6 40.1
363(11) 0.00906 332.6 38.7
391(11) 0.00874 332.6 37.4
387(10) 0.00941 332.5 36.0
394(10) 0.00952 332.5 34.7
378(11) 0.00905 332.4 33.4
381(11) 0.00827 332.4 32.1
388(11) 0.00877 332.4 30.9
361(10) 0.01023 332.3 29.7
347(10) 0.01064 332.3 28.5
379(10) 0.00916 332.2 27.4
375(11) 0.00863 332.2 26.3
360(10) 0.00963 332.2 25.3
381(10) 0.00974 332.1 24.3
354(10) 0.01048 332.1 23.3
367(10) 0.00940 332.0 22.3
351(10) 0.00928 332.0 21.4
372(10) 0.00923 332.0 20.6
378(10) 0.00992 331.9 19.7
371(10) 0.00946 331.9 18.9
358(10) 0.00965 331.8 18.2
346(10) 0.00972 331.8 17.4
356(10) 0.00979 331.8 16.7
359(10) 0.01034 331.7 16.0
350(10) 0.01057 331.7 15.4
365(10) 0.00942 331.6 14.8
328(10) 0.01018 331.6 14.2
350(10) 0.01010 331.6 13.7
330(9) 0.01134 331.5 13.1
339(10) 0.01021 331.5 12.6
353(10) 0.00969 331.4 12.1
381(11) 0.00901 331.4 11.7
379(11) 0.00907 331.4 11.3
329(9) 0.01138 331.3 10.9
340(10) 0.01077 331.3 10.5
334(10) 0.01024 331.2 10.1
314(9) 0.01122 331.2 9.8
368(10) 0.00971 331.2 9.4
340(10) 0.01098 331.1 9.1
355(10) 0.00996 331.1 8.8
357(10) 0.00941 331.0 8.5
361(10) 0.00954 331.0 8.3
304(9) 0.01196 331.0 8.0
339(10) 0.01107 330.9 7.8
345(10) 0.00990 330.9 7.6
347(10) 0.00959 330.8 7.4
335(10) 0.01066 330.8 7.2
320(9) 0.01156 330.8 7.0
325(9) 0.01144 330.7 6.9
342(10) 0.00988 330.7 6.7
343(10) 0.00958 330.6 6.6
342(10) 0.01042 330.6 6.4
336(9) 0.01117 330.6 6.3
332(9) 0.01112 330.5 6.1
334(10) 0.01036 330.5 6.0
337(10) 0.00996 330.5 5.9
344(10) 0.01016 330.4 5.8
362(10) 0.01009 330.4 5.7
333(9) 0.01120 330.3 5.5
336(10) 0.01040 330.3 5.5
325(10) 0.00957 330.3 5.4
334(10) 0.01053 330.2 5.3
349(10) 0.01070 330.2 5.2
306(9) 0.01202 330.1 5.1
351(10) 0.00971 330.1 5.0
334(10) 0.01011 330.1 4.9
350(10) 0.00944 330.0 4.9
315(9) 0.01194 330.0 4.8
346(10) 0.01066 329.9 4.7
340(10) 0.00998 329.9 4.7
346(10) 0.00948 329.9 4.6
324(10) 0.01101 329.8 4.5
327(9) 0.01131 329.8 4.5
328(9) 0.01130 329.7 4.4
320(10) 0.01074 329.7 4.4
306(9) 0.01133 329.7 4.3
296(9) 0.01204 329.6 4.2
333(9) 0.01117 329.6 4.2
337(10) 0.01100 329.5 4.1
344(10) 0.01009 329.5 4.1
339(10) 0.01009 329.5 4.0
334(10) 0.01070 329.4 4.0
353(10) 0.01060 329.4 3.9
353(10) 0.01010 329.3 3.9
322(10) 0.01086 329.3 3.9
326(10) 0.01019 329.3 3.8
318(9) 0.01124 329.2 3.8
334(9) 0.01112 329.2 3.8
329(10) 0.01055 329.1 3.7
322(10) 0.01064 329.1 3.7
325(10) 0.01058 329.1 3.7
316(9) 0.01151 329.0 3.6
346(10) 0.01073 329.0 3.6
340(10) 0.01017 328.9 3.6
347(10) 0.00966 328.9 3.5
360(10) 0.00966 328.9 3.5
368(10) 0.00977 328.8 3.5
317(9) 0.01183 328.8 3.5
345(10) 0.01006 328.7 3.4
334(10) 0.00989 328.7 3.4
345(10) 0.01018 328.7 3.4
361(10) 0.01033 328.6 3.4
356(10) 0.01039 328.6 3.4
345(10) 0.01007 328.5 3.3
330(10) 0.01035 328.5 3.3
346(10) 0.01034 328.5 3.3
326(9) 0.01151 328.4 3.3
324(9) 0.01135 328.4 3.3
341(10) 0.00977 328.4 3.3
341(10) 0.00926 328.3 3.3
312(9) 0.01134 328.3 3.2
330(9) 0.01133 328.2 3.2
345(10) 0.01073 328.2 3.2
350(10) 0.00998 328.2 3.2
338(10) 0.00975 328.1 3.2
336(10) 0.01049 328.1 3.2
340(10) 0.01080 328.0 3.2
301(9) 0.01223 328.0 3.2
319(9) 0.01131 328.0 3.2
346(10) 0.00960 327.9 3.2
354(10) 0.00966 327.9 3.2
321(9) 0.01149 327.8 3.2
340(10) 0.01091 327.8 3.1
325(10) 0.01091 327.8 3.1
341(10) 0.00981 327.7 3.1
336(10) 0.01019 327.7 3.1
322(9) 0.01149 327.7 3.1
333(10) 0.01092 327.6 3.1
321(10) 0.01075 327.6 3.1
330(10) 0.01027 327.6 3.2
329(10) 0.01099 327.5 3.2
345(10) 0.01079 327.5 3.2
325(10) 0.01078 327.5 3.2
350(10) 0.00963 327.4 3.2
333(10) 0.01052 327.4 3.2
329(10) 0.01090 327.4 3.2
310(9) 0.01182 327.3 3.2
319(9) 0.01117 327.3 3.2
333(10) 0.01010 327.3 3.2
355(10) 0.00966 327.2 3.2
329(10) 0.01091 327.2 3.2
355(10) 0.01048 327.2 3.3
361(10) 0.00948 327.1 3.3
353(10) 0.00985 327.1 3.3
319(9) 0.01145 327.1 3.3
338(10) 0.01078 327.0 3.3
337(10) 0.01105 327.0 3.4
340(10) 0.01022 327.0 3.4
335(10) 0.00985 326.9 3.4
326(10) 0.01087 326.9 3.4
343(10) 0.01077 326.9 3.5
343(10) 0.01074 326.8 3.5
312(9) 0.01161 326.8 3.5
343(10) 0.00969 326.8 3.5
329(10) 0.01104 326.7 3.6
345(10) 0.01076 326.7 3.6
328(9) 0.01118 326.7 3.6
322(10) 0.01091 326.6 3.7
350(10) 0.00928 326.6 3.7
353(10) 0.00987 326.6 3.8
326(9) 0.01141 326.5 3.8
331(9) 0.01121 326.5 3.9
325(10) 0.01071 326.5 3.9
319(10) 0.00989 326.4 4.0
335(10) 0.00988 326.4 4.0
328(9) 0.01143 326.4 4.1
336(10) 0.01094 326.3 4.2
343(10) 0.01042 326.3 4.3
308(10) 0.01080 326.3 4.3
319(10) 0.01071 326.2 4.4
355(10) 0.01057 326.2 4.5
332(10) 0.01065 326.2 4.5
326(10) 0.01049 326.1 4.6
322(10) 0.01027 326.1 4.7
324(10) 0.01091 326.1 4.8
328(9) 0.01144 326.0 4.9
320(9) 0.01141 326.0 5.0
322(10) 0.01104 326.0 5.1
352(10) 0.00943 325.9 5.2
333(10) 0.01070 325.9 5.4
352(10) 0.01052 325.9 5.5
313(9) 0.01190 325.8 5.6
333(10) 0.00989 325.8 5.8
319(10) 0.01032 325.8 6.0
342(10) 0.00991 325.7 6.1
344(10) 0.01082 325.7 6.3
341(10) 0.01031 325.7 6.5
356(10) 0.00932 325.6 6.7
357(10) 0.00933 325.6 7.0
354(10) 0.01025 325.6 7.3
357(10) 0.01043 325.5 7.5
315(9) 0.01138 325.5 7.9
344(10) 0.00980 325.5 8.2
343(10) 0.01021 325.4 8.6
350(10) 0.01030 325.4 9.0
336(9) 0.01110 325.4 9.4
340(10) 0.01018 325.3 9.9
338(10) 0.00961 325.3 10.5
330(10) 0.01032 325.3 11.1
330(10) 0.01094 325.2 11.7
362(10) 0.01027 325.2 12.4
364(10) 0.00953 325.2 13.2
348(10) 0.00924 325.1 14.1
320(10) 0.01082 325.1 15.0
364(10) 0.00996 325.1 16.0
326(9) 0.01145 325.1 17.1
347(10) 0.01017 325.0 18.2
337(10) 0.00965 325.0 19.5
339(10) 0.01003 325.0 20.9
340(10) 0.01087 324.9 22.3
355(10) 0.01048 324.9 23.9
355(10) 0.00983 324.9 25.5
362(10) 0.00909 324.8 27.3
363(10) 0.00976 324.8 29.2
374(10) 0.00999 324.8 31.1
337(10) 0.01104 324.7 33.1
363(10) 0.00985 324.7 35.3
361(10) 0.00933 324.7 37.5
330(10) 0.01070 324.6 39.7
349(10) 0.01073 324.6 42.1
365(10) 0.00999 324.6 44.4
365(10) 0.00960 324.5 46.8
372(11) 0.00902 324.5 49.2
381(11) 0.00894 324.5 51.5
394(10) 0.00951 324.4 53.8
383(10) 0.00948 324.4 56.0
360(10) 0.00985 324.4 58.1
402(11) 0.00825 324.3 60.0
368(10) 0.00960 324.3 61.7
378(10) 0.00986 324.3 63.2
383(10) 0.00930 324.2 64.4
391(11) 0.00845 324.2 65.3
386(11) 0.00882 324.2 65.8
386(10) 0.00933 324.1 66.1
381(10) 0.00976 324.1 65.9
384(10) 0.00927 324.1 65.5
421(11) 0.00806 324.0 64.8
422(11) 0.00823 324.0 63.8
418(11) 0.00847 324.0 62.5
415(11) 0.00891 323.9 61.2
400(11) 0.00874 323.9 59.7
379(11) 0.00885 323.9 58.4
362(10) 0.00959 323.8 57.3
368(10) 0.00988 323.8 57.0
404(10) 0.00923 323.8 57.9
409(11) 0.00854 323.7 60.9
382(11) 0.00862 323.7 66.5
394(11) 0.00891 323.7 75.1
429(11) 0.00856 323.6 86.3
420(11) 0.00885 323.6 98.5
448(11) 0.00775 323.6 109.0
451(12) 0.00741 323.5 113.9
457(12) 0.00750 323.5 110.3
445(11) 0.00813 323.5 99.0
400(10) 0.00930 323.4 83.5
372(10) 0.00915 323.4 67.5
365(11) 0.00888 323.4 53.2
396(11) 0.00883 323.3 41.9
340(10) 0.01101 323.3 33.5
366(10) 0.00995 323.3 27.7
323(10) 0.01069 323.2 23.8
349(10) 0.00920 323.2 21.1
342(10) 0.01036 323.2 19.1
361(10) 0.01022 323.1 17.5
348(10) 0.01038 323.1 16.2
352(10) 0.00988 323.1 15.1
338(10) 0.00973 323.0 14.1
352(10) 0.00976 323.0 13.2
359(10) 0.01036 323.0 12.4
331(10) 0.01101 322.9 11.7
325(10) 0.01091 322.9 11.1
360(11) 0.00897 322.9 10.5
355(10) 0.00960 322.8 10.0
323(9) 0.01148 322.8 9.5
338(10) 0.01089 322.8 9.1
340(10) 0.01032 322.7 8.7
324(10) 0.01061 322.7 8.2
341(10) 0.00993 322.7 7.9
337(10) 0.01102 322.6 7.6
324(10) 0.01093 322.6 7.3
335(10) 0.01017 322.6 7.1
317(10) 0.01055 322.5 6.9
335(10) 0.01024 322.5 6.7
330(9) 0.01122 322.5 6.5
317(10) 0.01098 322.4 6.3
317(10) 0.01073 322.4 6.2
333(10) 0.01021 322.4 6.0
320(10) 0.01108 322.3 5.9
317(9) 0.01178 322.3 5.8
313(9) 0.01129 322.3 5.7
317(10) 0.01085 322.2 5.6
326(10) 0.01058 322.2 5.5
348(10) 0.01027 322.2 5.4
316(9) 0.01171 322.1 5.3
320(10) 0.01077 322.1 5.2
319(10) 0.01042 322.1 5.2
295(9) 0.01176 322.0 5.1
321(9) 0.01127 322.0 5.0
326(9) 0.01133 322.0 5.0
326(10) 0.01072 321.9 4.9
336(10) 0.00974 321.9 4.9
336(10) 0.01049 321.9 4.9
329(9) 0.01118 321.8 4.8
322(9) 0.01159 321.8 4.8
315(9) 0.01123 321.8 4.8
337(10) 0.00916 321.7 4.7
313(9) 0.01120 321.7 4.7
340(10) 0.01092 321.7 4.7
334(9) 0.01112 321.6 4.7
318(10) 0.01098 321.6 4.7
339(10) 0.00919 321.6 4.7
333(10) 0.01063 321.5 4.7
332(9) 0.01108 321.5 4.7
309(9) 0.01199 321.5 4.7
329(10) 0.01053 321.4 4.7
340(10) 0.00966 321.4 4.7
325(10) 0.01075 321.4 4.7
322(9) 0.01155 321.3 4.7
314(9) 0.01168 321.3 4.7
317(9) 0.01123 321.3 4.8
340(10) 0.00988 321.2 4.8
343(10) 0.00980 321.2 4.8
324(9) 0.01157 321.2 4.9
354(10) 0.01005 321.1 4.9
342(10) 0.01047 321.1 4.9
328(10) 0.01077 321.1 5.0
338(10) 0.01027 321.1 5.0
295(9) 0.01257 321.1 5.1
310(9) 0.01133 321.1 5.1
327(10) 0.01061 321.1 5.2
328(10) 0.01058 321.1 5.3
350(10) 0.00966 321.1 5.4
298(9) 0.01252 321.1 5.4
310(9) 0.01158 321.1 5.5
323(10) 0.01057 321.1 5.6
337(10) 0.00961 321.1 5.7
327(10) 0.01036 321.1 5.8
310(9) 0.01208 321.1 5.9
298(9) 0.01193 321.1 6.0
327(10) 0.01071 321.1 6.1
323(10) 0.01083 321.1 6.2
333(10) 0.01078 321.1 6.3
343(10) 0.01073 321.1 6.5
348(10) 0.01015 321.1 6.6
342(10) 0.00954 321.1 6.8
317(10) 0.01068 321.1 6.9
313(9) 0.01187 321.1 7.1
323(9) 0.01157 321.1 7.2
344(10) 0.01025 321.1 7.4
343(10) 0.00993 321.1 7.6
353(10) 0.00989 321.1 7.8
330(9) 0.01113 321.1 8.0
353(10) 0.01041 321.1 8.2
329(10) 0.01073 321.1 8.5
324(10) 0.01031 321.1 8.7
361(10) 0.00964 321.1 9.0
322(9) 0.01167 321.1 9.3
348(10) 0.01077 321.1 9.6
292(9) 0.01212 321.1 9.9
315(10) 0.00994 321.1 10.3
354(10) 0.00927 321.1 10.7
305(9) 0.01208 321.1 11.1
319(9) 0.01163 321.1 11.6
303(9) 0.01196 321.1 12.1
339(10) 0.00946 321.1 12.6
321(10) 0.01086 321.1 13.3
317(9) 0.01175 321.1 14.0
339(10) 0.01105 321.1 14.7
356(10) 0.00967 321.1 15.6
321(10) 0.01042 321.1 16.5
365(10) 0.00953 321.1 17.5
341(10) 0.01097 321.1 18.6
311(9) 0.01166 321.1 19.8
358(10) 0.00941 321.1 21.1
340(10) 0.01001 321.1 22.4
347(10) 0.01009 321.1 23.9
335(9) 0.01114 321.1 25.4
332(10) 0.01078 321.1 27.0
329(10) 0.01069 321.1 28.7
336(10) 0.01012 321.1 30.4
356(10) 0.00991 321.1 32.0
368(10) 0.01014 321.1 33.7
358(10) 0.01005 321.1 35.3
335(10) 0.01056 321.1 36.8
357(10) 0.00937 321.1 38.1
329(10) 0.01021 321.1 39.2
361(10) 0.01034 321.1 40.1
363(10) 0.00940 321.1 40.8
343(10) 0.00997 321.1 41.4
344(10) 0.01012 321.1 41.8
362(10) 0.00961 321.1 42.1
368(10) 0.01018 321.1 42.5
347(10) 0.00997 321.1 42.8
374(11) 0.00847 321.1 43.3
354(10) 0.00969 321.1 44.0
377(10) 0.00934 321.1 45.0
370(10) 0.01014 321.1 46.2
380(11) 0.00893 321.1 47.7
371(10) 0.00915 321.1 49.6
383(10) 0.00909 321.1 51.8
360(10) 0.01025 321.1 54.3
382(10) 0.00964 321.1 57.2
364(10) 0.00978 321.1 60.3
382(11) 0.00857 321.1 63.7
369(10) 0.00926 321.1 67.3
376(10) 0.00968 321.1 71.3
389(10) 0.00941 321.1 75.6
406(11) 0.00868 321.1 80.2
413(11) 0.00827 321.1 85.3
437(11) 0.00784 321.1 90.8
419(11) 0.00873 321.1 96.7
421(11) 0.00865 321.1 103.0
462(12) 0.00744 321.1 109.7
439(11) 0.00758 321.1 116.6
463(12) 0.00750 321.1 123.6
473(11) 0.00784 321.1 130.6
484(11) 0.00763 321.1 137.4
495(12) 0.00687 321.1 143.7
478(12) 0.00690 321.1 149.4
482(12) 0.00727 321.1 154.1
486(11) 0.00765 321.1 157.7
479(11) 0.00769 321.1 159.8
486(12) 0.00682 321.1 160.5
478(12) 0.00686 321.1 159.5
471(12) 0.00723 321.1 157.0
490(12) 0.00755 321.1 153.1
465(11) 0.00796 321.1 147.9
447(11) 0.00768 321.1 141.8
432(11) 0.00792 321.1 134.8
476(12) 0.00747 321.1 127.3
475(11) 0.00784 321.1 119.5
424(11) 0.00852 321.1 111.7
421(11) 0.00826 321.1 103.8
429(11) 0.00773 321.1 96.0
402(11) 0.00858 321.1 88.6
407(10) 0.00910 321.1 81.4
382(10) 0.00950 321.1 74.6
406(11) 0.00843 321.1 68.2
403(11) 0.00860 321.1 62.3
396(10) 0.00916 321.1 56.8
371(10) 0.00993 321.1 51.8
349(10) 0.00986 321.1 47.2
355(10) 0.00946 321.1 43.0
346(10) 0.00998 321.1 39.3
354(10) 0.00989 321.1 35.9
344(10) 0.01098 321.1 32.9
357(10) 0.00964 321.1 30.2
368(10) 0.00929 321.1 27.8
344(10) 0.01031 321.1 25.6
342(10) 0.01053 321.1 23.8
350(10) 0.01059 321.1 22.1
370(10) 0.00948 321.1 20.6
321(10) 0.01084 321.1 19.3
350(10) 0.00981 321.1 18.1
330(10) 0.01087 321.1 17.0
343(10) 0.01092 321.1 16.1
340(10) 0.01049 321.1 15.3
338(10) 0.00992 321.1 14.5
324(10) 0.01096 321.1 13.8
335(9) 0.01110 321.1 13.2
316(9) 0.01174 321.1 12.7
329(10) 0.01097 321.1 12.2
346(10) 0.00928 321.1 11.7
338(10) 0.01035 321.1 11.3
327(9) 0.01132 321.1 10.9
357(10) 0.01029 321.1 10.5
361(10) 0.00969 321.1 10.2
346(10) 0.00959 321.1 9.8
324(10) 0.01085 321.1 9.5
345(10) 0.01065 321.1 9.3
312(9) 0.01189 321.1 9.0
315(9) 0.01123 321.1 8.7
335(10) 0.01001 321.1 8.5
329(10) 0.01090 321.1 8.3
340(10) 0.01096 321.1 8.1
316(9) 0.01141 321.1 7.9
316(10) 0.01078 321.1 7.7
312(10) 0.01087 321.1 7.5
318(10) 0.01086 321.1 7.4
340(10) 0.01073 321.1 7.2
309(9) 0.01177 321.1 7.1
298(9) 0.01166 321.1 6.9
326(10) 0.01042 321.1 6.8
335(10) 0.01068 321.1 6.7
340(10) 0.01089 321.1 6.6
315(9) 0.01120 321.1 6.5
319(10) 0.01076 321.1 6.4
329(10) 0.01030 321.1 6.3
316(10) 0.01097 321.1 6.2
304(9) 0.01224 321.1 6.1
314(9) 0.01141 321.1 6.0
328(10) 0.01067 321.1 6.0
321(10) 0.01104 321.1 5.9
327(10) 0.01089 321.1 5.8
353(10) 0.01057 321.1 5.8
303(9) 0.01132 321.1 5.7
312(10) 0.01039 321.1 5.7
287(9) 0.01242 321.1 5.6
325(9) 0.01134 321.1 5.6
339(10) 0.01099 321.1 5.5
340(10) 0.00993 321.1 5.5
329(10) 0.01006 321.1 5.4
330(10) 0.01066 321.1 5.4
319(9) 0.01168 321.1 5.4
325(9) 0.01137 321.1 5.3
327(10) 0.01063 321.1 5.3
339(10) 0.00965 321.1 5.3
328(10) 0.01077 321.1 5.3
304(9) 0.01214 321.1 5.2
314(9) 0.01171 321.1 5.2
314(10) 0.01079 321.1 5.2
338(10) 0.00954 321.1 5.2
322(10) 0.01101 321.1 5.2
327(9) 0.01156 321.1 5.2
320(9) 0.01144 321.1 5.2
314(10) 0.01100 321.1 5.2
318(10) 0.01022 321.1 5.2
316(10) 0.01080 321.2 5.2
335(9) 0.01112 321.2 5.2
333(10) 0.01074 321.2 5.2
324(10) 0.01081 321.2 5.2
334(10) 0.01004 321.2 5.2
328(10) 0.01053 321.2 5.3
335(10) 0.01097 321.2 5.3
319(9) 0.01165 321.2 5.3
320(10) 0.01100 321.2 5.4
306(10) 0.01100 321.2 5.4
320(10) 0.01078 321.2 5.5
310(9) 0.01208 321.2 5.5
329(10) 0.01095 321.2 5.6
305(9) 0.01139 321.2 5.6
312(10) 0.01066 321.2 5.7
324(10) 0.01102 321.2 5.8
334(9) 0.01113 321.3 5.9
337(10) 0.01059 321.3 6.0
311(9) 0.01144 321.3 6.1
338(10) 0.01014 321.3 6.2
311(9) 0.01167 321.3 6.3
315(9) 0.01173 321.3 6.5
303(9) 0.01185 321.3 6.6
322(10) 0.01022 321.3 6.8
321(10) 0.01092 321.3 7.0
322(10) 0.01099 321.3 7.2
323(9) 0.01144 321.3 7.4
313(9) 0.01114 321.3 7.6
322(10) 0.01108 321.3 7.9
342(10) 0.01025 321.3 8.2
305(9) 0.01193 321.3 8.5
331(9) 0.01126 321.3 8.9
314(10) 0.01107 321.3 9.3
318(10) 0.01045 321.4 9.7
345(10) 0.00998 321.4 10.2
318(9) 0.01131 321.4 10.9
332(9) 0.01113 321.4 11.5
343(10) 0.01007 321.4 12.3
343(10) 0.00970 321.4 13.1
340(10) 0.01044 321.4 14.2
349(10) 0.01061 321.4 15.4
338(10) 0.01100 321.4 17.0
334(10) 0.01057 321.4 19.0
352(10) 0.00915 321.4 21.6
338(10) 0.01093 321.4 25.1
347(10) 0.01058 321.4 29.6
378(10) 0.00966 321.4 35.5
343(10) 0.01021 321.4 43.1
378(11) 0.00843 321.4 52.8
408(11) 0.00842 321.5 64.6
404(10) 0.00933 321.5 78.7
443(11) 0.00837 321.5 95.0
502(12) 0.00680 321.5 112.7
478(12) 0.00706 321.5 130.9
500(12) 0.00679 321.5 148.3
546(12) 0.00680 321.5 163.3
533(12) 0.00690 321.5 174.2
509(12) 0.00684 321.5 179.6
513(12) 0.00644 321.5 178.3
477(12) 0.00727 321.5 170.3
479(11) 0.00776 321.5 157.0
464(11) 0.00783 321.5 140.8
479(12) 0.00733 321.5 123.8
454(11) 0.00757 321.5 108.0
436(11) 0.00816 321.5 94.5
415(11) 0.00889 321.5 84.0
395(10) 0.00909 321.6 77.0
384(11) 0.00901 321.6 73.3
401(11) 0.00844 321.6 72.7
405(11) 0.00870 321.6 74.3
427(11) 0.00863 321.6 77.0
427(11) 0.00827 321.6 79.3
417(11) 0.00806 321.6 79.6
424(11) 0.00803 321.6 76.8
397(11) 0.00897 321.6 71.1
408(11) 0.00899 321.6 63.4
372(11) 0.00907 321.6 55.2
367(10) 0.00922 321.6 47.3
376(11) 0.00885 321.6 40.3
346(10) 0.01053 321.6 34.5
377(10) 0.00989 321.6 30.0
370(10) 0.00944 321.6 26.7
349(10) 0.00940 321.6 24.3
343(10) 0.01009 321.7 22.8
348(10) 0.01039 321.7 21.9
376(10) 0.00997 321.7 21.5
362(10) 0.00956 321.7 21.6
368(11) 0.00879 321.7 22.0
367(10) 0.00927 321.7 22.9
353(10) 0.01049 321.7 24.3
355(10) 0.01046 321.7 26.4
366(10) 0.00971 321.7 29.3
361(11) 0.00906 321.7 33.3
365(10) 0.00940 321.7 38.9
381(10) 0.00959 321.7 46.2
415(11) 0.00893 321.7 55.5
379(10) 0.00939 321.7 67.2
426(12) 0.00738 321.7 81.1
416(11) 0.00850 321.7 97.1
464(11) 0.00810 321.8 114.7
477(11) 0.00778 321.8 132.7
488(12) 0.00712 321.8 149.5
481(12) 0.00684 321.8 162.8
485(12) 0.00717 321.8 170.0
531(12) 0.00693 321.8 169.6
509(12) 0.00735 321.8 161.6
456(11) 0.00784 321.8 147.9
446(11) 0.00770 321.8 130.9
447(11) 0.00787 321.8 112.9
426(11) 0.00876 321.8 95.5
410(11) 0.00879 321.8 79.8
404(11) 0.00868 321.8 66.1
378(11) 0.00874 321.8 54.7
361(10) 0.00970 321.8 45.6
353(10) 0.01051 321.8 38.5
364(10) 0.00995 321.8 33.1
357(10) 0.00972 321.9 29.1
354(10) 0.00955 321.9 26.1
348(10) 0.00992 321.9 24.0
350(10) 0.01080 321.9 22.4
332(10) 0.01031 321.9 21.2
331(10) 0.01028 321.9 20.3
331(10) 0.01031 321.9 19.7
335(10) 0.01069 321.9 19.2
345(10) 0.01076 321.9 18.8
339(10) 0.01028 321.9 18.5
345(10) 0.00967 321.9 18.3
347(10) 0.00969 321.9 18.1
340(10) 0.01046 321.9 18.0
320(9) 0.01171 321.9 18.0
332(10) 0.01004 321.9 18.0
330(10) 0.01005 321.9 18.0
341(10) 0.01012 322.0 18.1
337(10) 0.01103 322.0 18.2
320(9) 0.01158 322.0 18.4
319(10) 0.01070 322.0 18.6
331(10) 0.00970 322.0 18.8
333(10) 0.00997 322.0 19.0
327(9) 0.01140 322.0 19.2
354(10) 0.01057 322.0 19.5
328(10) 0.01053 322.0 19.8
328(10) 0.01006 322.0 20.1
334(10) 0.01024 322.0 20.4
342(10) 0.01061 322.0 20.8
335(9) 0.01116 322.0 21.2
320(10) 0.01094 322.0 21.5
354(11) 0.00899 322.0 22.0
321(10) 0.01087 322.0 22.4
336(9) 0.01127 322.0 22.8
329(9) 0.01127 322.1 23.3
347(10) 0.01022 322.1 23.8
352(10) 0.00942 322.1 24.3
352(10) 0.00985 322.1 24.8
336(9) 0.01113 322.1 25.4
340(10) 0.01088 322.1 26.0
361(10) 0.00949 322.1 26.6
342(10) 0.00981 322.1 27.2
367(10) 0.00947 322.1 27.8
344(10) 0.01075 322.1 28.5
345(10) 0.01078 322.1 29.2
355(10) 0.00994 322.1 30.0
354(10) 0.00946 322.1 30.8
339(10) 0.01034 322.1 31.6
353(10) 0.01056 322.1 32.5
341(10) 0.01054 322.1 33.5
340(10) 0.01043 322.1 34.5
362(10) 0.00921 322.2 35.6
330(10) 0.01060 322.2 36.9
388(10) 0.00956 322.2 38.4
387(10) 0.00925 322.2 40.4
354(10) 0.00976 322.2 43.2
383(11) 0.00870 322.2 47.2
383(10) 0.00963 322.2 53.0
418(11) 0.00881 322.2 61.2
410(11) 0.00867 322.2 71.8
391(11) 0.00893 322.2 84.5
433(11) 0.00783 322.2 98.0
428(11) 0.00836 322.2 110.0
462(11) 0.00808 322.2 117.1
503(12) 0.00680 322.2 117.1
463(12) 0.00707 322.2 110.2
432(11) 0.00790 322.2 99.3
408(11) 0.00906 322.3 87.5
430(11) 0.00864 322.3 76.8
410(11) 0.00859 322.3 68.2
385(11) 0.00887 322.3 62.2
371(10) 0.00971 322.3 58.3
407(10) 0.00907 322.3 56.1
379(10) 0.00975 322.3 55.1
394(11) 0.00886 322.3 54.8
380(11) 0.00868 322.3 54.9
380(11) 0.00899 322.3 55.4
385(10) 0.00955 322.3 56.1
380(10) 0.00973 322.3 57.0
355(10) 0.00968 322.3 58.2
365(11) 0.00874 322.3 59.7
372(10) 0.00935 322.3 61.5
383(10) 0.00980 322.3 63.6
390(10) 0.00948 322.3 66.0
400(11) 0.00881 322.4 68.6
402(11) 0.00838 322.4 71.5
388(10) 0.00910 322.4 74.5
397(10) 0.00946 322.4 77.5
403(10) 0.00911 322.4 80.3
445(11) 0.00774 322.4 82.7
431(11) 0.00776 322.4 84.4
440(11) 0.00790 322.4 85.2
441(11) 0.00854 322.4 84.8
431(11) 0.00825 322.4 83.2
414(11) 0.00842 322.4 80.5
412(11) 0.00804 322.4 76.9
387(11) 0.00877 322.4 72.7
416(11) 0.00886 322.4 68.1
389(10) 0.00945 322.4 63.5
384(11) 0.00898 322.4 58.9
377(11) 0.00873 322.4 54.5
374(10) 0.00932 322.5 50.4
384(10) 0.00964 322.5 46.6
353(10) 0.00966 322.5 43.2
363(10) 0.00932 322.5 40.2
357(10) 0.00956 322.5 37.6
367(10) 0.00969 322.5 35.4
373(10) 0.01002 322.5 33.4
363(10) 0.00977 322.5 31.8
347(10) 0.00991 322.5 30.4
350(10) 0.01011 322.5 29.2
343(10) 0.01022 322.5 28.3
357(10) 0.01045 322.5 27.5
339(10) 0.01010 322.5 26.9
329(10) 0.01043 322.5 26.4
338(10) 0.01030 322.5 26.0
343(10) 0.01053 322.5 25.7
347(10) 0.01083 322.6 25.5
342(10) 0.01018 322.6 25.3
345(10) 0.00998 322.6 25.3
356(10) 0.00971 322.6 25.3
357(10) 0.01024 322.6 25.4
327(9) 0.01138 322.6 25.6
339(10) 0.01041 322.6 25.8
336(10) 0.01044 322.6 26.1
354(10) 0.01014 322.6 26.5
347(10) 0.01074 322.6 27.0
343(10) 0.01061 322.6 27.5
344(10) 0.01020 322.6 28.1
342(10) 0.00949 322.6 28.7
363(10) 0.00950 322.6 29.5
339(9) 0.01108 322.6 30.3
325(9) 0.01143 322.6 31.2
333(10) 0.01037 322.6 32.2
333(10) 0.00943 322.7 33.3
322(10) 0.01087 322.7 34.5
342(10) 0.01089 322.7 35.7
348(10) 0.01060 322.7 37.1
353(10) 0.01019 322.7 38.6
344(10) 0.00975 322.7 40.2
350(10) 0.01000 322.7 41.9
330(9) 0.01129 322.7 43.7
319(9) 0.01163 322.7 45.7
376(10) 0.00922 322.7 47.8
366(10) 0.00921 322.7 50.1
358(10) 0.00982 322.7 52.6
369(10) 0.01018 322.7 55.2
381(10) 0.00974 322.7 58.0
369(11) 0.00898 322.7 61.0
377(11) 0.00884 322.7 64.2
358(10) 0.00968 322.8 67.6
364(10) 0.01020 322.8 71.3
421(11) 0.00852 322.8 75.2
411(11) 0.00855 322.8 79.3
388(11) 0.00902 322.8 83.7
409(11) 0.00878 322.8 88.3
404(10) 0.00917 322.8 93.1
412(11) 0.00871 322.8 98.1
408(11) 0.00816 322.8 103.4
386(11) 0.00869 322.8 108.8
408(11) 0.00892 322.8 114.3
409(10) 0.00910 322.8 120.0
431(11) 0.00815 322.8 125.7
426(11) 0.00797 322.8 131.4
469(12) 0.00741 322.8 137.1
465(11) 0.00778 322.8 142.6
446(11) 0.00836 322.8 147.9
457(12) 0.00756 322.9 152.9
417(11) 0.00805 322.9 157.4
447(11) 0.00784 322.9 161.3
472(11) 0.00771 322.9 164.4
452(11) 0.00824 322.9 166.7
453(12) 0.00753 322.9 168.0
453(12) 0.00733 322.9 168.1
479(12) 0.00724 322.9 167.2
465(11) 0.00775 322.9 165.1
455(11) 0.00831 322.9 162.0
458(11) 0.00769 322.9 157.9
419(11) 0.00788 322.9 153.1
433(11) 0.00778 322.9 147.6
437(11) 0.00843 322.9 141.7
423(11) 0.00883 322.9 135.5
422(11) 0.00822 322.9 129.2
410(11) 0.00788 322.9 122.9
416(11) 0.00836 323.0 116.6
429(11) 0.00857 323.0 110.6
411(11) 0.00898 323.0 104.7
389(10) 0.00909 323.0 99.2
371(10) 0.00918 323.0 94.0
387(11) 0.00881 323.0 89.2
379(10) 0.00987 323.0 84.7
399(11) 0.00902 323.0 80.5
384(10) 0.00912 323.0 76.6
390(11) 0.00845 323.0 73.1
374(10) 0.00917 323.0 69.8
367(10) 0.01017 323.0 66.7
375(10) 0.00993 323.0 63.7
359(10) 0.00957 323.0 60.9
352(10) 0.00950 323.0 58.2
373(10) 0.00960 323.0 55.6
381(10) 0.00975 323.1 53.1
340(10) 0.01067 323.1 50.7
361(10) 0.00954 323.1 48.4
365(10) 0.00932 323.1 46.2
369(10) 0.00956 323.1 44.2
342(10) 0.01082 323.1 42.3
364(10) 0.00956 323.1 40.6
370(10) 0.00948 323.1 39.0
359(10) 0.00943 323.1 37.5
343(10) 0.01008 323.1 36.2
349(10) 0.01062 323.1 35.0
366(10) 0.00945 323.1 34.0
360(10) 0.00939 323.1 33.1
348(10) 0.00991 323.1 32.3
341(10) 0.01033 323.1 31.6
373(10) 0.01004 323.1 31.0
348(10) 0.01001 323.1 30.5
353(10) 0.00953 323.2 30.1
357(10) 0.00984 323.2 29.8
377(10) 0.00945 323.2 29.6
340(10) 0.01101 323.2 29.4
334(10) 0.00976 323.2 29.4
354(10) 0.00909 323.2 29.4
352(10) 0.00964 323.2 29.4
349(10) 0.01052 323.2 29.6
382(10) 0.00988 323.2 29.8
374(10) 0.00944 323.2 30.2
371(11) 0.00895 323.2 30.6
359(10) 0.00985 323.2 31.2
376(10) 0.00981 323.2 31.9
336(9) 0.01109 323.2 32.8
369(10) 0.00968 323.2 33.9
386(11) 0.00822 323.2 35.4
363(10) 0.00951 323.3 37.2
344(10) 0.01080 323.3 39.4
369(10) 0.01011 323.3 42.2
402(11) 0.00872 323.3 45.6
365(10) 0.00925 323.3 49.6
393(11) 0.00892 323.3 54.4
381(10) 0.00972 323.3 59.9
416(11) 0.00885 323.3 66.3
413(11) 0.00829 323.3 73.5
422(11) 0.00793 323.3 81.4
466(12) 0.00737 323.3 89.8
446(11) 0.00832 323.3 98.6
465(11) 0.00796 323.3 107.3
452(11) 0.00792 323.3 115.6
473(12) 0.00712 323.3 122.7
490(12) 0.00682 323.3 127.9
490(12) 0.00753 323.3 130.7
495(12) 0.00719 323.4 130.7
471(12) 0.00740 323.4 127.7
496(12) 0.00693 323.4 122.3
483(12) 0.00718 323.4 114.9
458(11) 0.00815 323.4 106.2
428(11) 0.00822 323.4 96.9
424(11) 0.00817 323.4 87.6
379(11) 0.00903 323.4 78.5
391(11) 0.00863 323.4 70.0
391(10) 0.00942 323.4 62.2
371(10) 0.00961 323.4 55.2
355(10) 0.00942 323.4 49.0
373(10) 0.00920 323.4 43.7
343(10) 0.01066 323.4 39.0
334(9) 0.01118 323.4 35.1
364(10) 0.00968 323.4 31.8
373(10) 0.00930 323.4 29.1
374(10) 0.00925 323.5 26.8
348(10) 0.01053 323.5 24.8
358(10) 0.01038 323.5 23.2
355(10) 0.00954 323.5 21.8
354(10) 0.00937 323.5 20.7
330(10) 0.01050 323.5 19.7
324(9) 0.01139 323.5 18.8
342(10) 0.01093 323.5 18.0
354(10) 0.00976 323.5 17.3
340(10) 0.00966 323.5 16.7
340(10) 0.01026 323.5 16.1
343(10) 0.01097 323.5 15.6
347(10) 0.01061 323.5 15.1
324(10) 0.01095 323.5 14.7
326(10) 0.01032 323.5 14.2
333(10) 0.01059 323.5 13.9
335(10) 0.01093 323.6 13.5
357(10) 0.01043 323.6 13.2
326(10) 0.01078 323.6 13.0
338(10) 0.00957 323.6 12.7
345(10) 0.01012 323.6 12.5
333(9) 0.01125 323.6 12.3
339(10) 0.01080 323.6 12.1
351(10) 0.01006 323.6 12.0
335(10) 0.00973 323.6 11.9
341(10) 0.01023 323.6 11.8
378(10) 0.00994 323.6 11.7
362(10) 0.01015 323.6 11.7
331(10) 0.01032 323.6 11.7
338(10) 0.00953 323.6 11.7
319(10) 0.01076 323.6 11.7
321(9) 0.01155 323.6 11.8
323(10) 0.01101 323.6 11.9
331(10) 0.01057 323.7 12.0
349(10) 0.00967 323.7 12.1
325(10) 0.01108 323.7 12.2
328(9) 0.01121 323.7 12.3
344(10) 0.01003 323.7 12.4
355(10) 0.00971 323.7 12.4
340(10) 0.01026 323.7 12.5
337(10) 0.01066 323.7 12.5
342(10) 0.01093 323.7 12.4
340(10) 0.01008 323.7 12.3
327(10) 0.01028 323.7 12.2
354(10) 0.00950 323.7 12.0
328(9) 0.01131 323.7 11.8
337(10) 0.01107 323.7 11.6
319(10) 0.01086 323.7 11.4
323(10) 0.01037 323.7 11.2
305(9) 0.01148 323.8 11.0
326(9) 0.01125 323.8 10.8
346(10) 0.01074 323.8 10.6
319(10) 0.01093 323.8 10.5
303(10) 0.01105 323.8 10.3
341(10) 0.00982 323.8 10.2
311(9) 0.01159 323.8 10.1
323(9) 0.01135 323.8 10.0
320(10) 0.01085 323.8 10.0
301(10) 0.01083 323.7 9.9
316(9) 0.01138 323.7 9.9
340(10) 0.01101 323.7 9.9
341(10) 0.01089 323.7 9.9
316(10) 0.01079 323.6 10.0
319(10) 0.01009 323.6 10.0
314(10) 0.01093 323.6 10.1
317(9) 0.01177 323.6 10.2
318(9) 0.01137 323.6 10.3
317(10) 0.01090 323.5 10.4
316(10) 0.01008 323.5 10.6
318(10) 0.01103 323.5 10.7
324(9) 0.01140 323.5 10.9
314(9) 0.01175 323.5 11.1
312(9) 0.01131 323.4 11.3
322(10) 0.01021 323.4 11.5
322(10) 0.01078 323.4 11.8
328(9) 0.01123 323.4 12.0
312(9) 0.01169 323.3 12.4
325(10) 0.01033 323.3 12.7
324(10) 0.01032 323.3 13.0
330(10) 0.01063 323.3 13.4
335(10) 0.01106 323.3 13.9
328(9) 0.01118 323.2 14.4
315(9) 0.01109 323.2 14.9
318(10) 0.01076 323.2 15.5
319(10) 0.01099 323.2 16.1
341(10) 0.01080 323.1 16.8
334(10) 0.01043 323.1 17.6
345(10) 0.00988 323.1 18.4
320(10) 0.01094 323.1 19.3
331(10) 0.01048 323.1 20.3
311(9) 0.01201 323.0 21.4
323(9) 0.01131 323.0 22.6
336(10) 0.01049 323.0 23.9
355(10) 0.00960 323.0 25.3
363(10) 0.00984 323.0 26.8
324(9) 0.01146 322.9 28.5
322(10) 0.01102 322.9 30.3
331(10) 0.01026 322.9 32.2
345(10) 0.00978 322.9 34.3
359(10) 0.01017 322.8 36.5
372(10) 0.01000 322.8 38.9
338(10) 0.00993 322.8 41.4
359(11) 0.00904 322.8 44.0
370(10) 0.00923 322.8 46.9
368(10) 0.01006 322.7 49.8
362(10) 0.01027 322.7 52.9
361(10) 0.00958 322.7 56.2
372(11) 0.00871 322.7 59.5
387(11) 0.00898 322.6 63.0
361(10) 0.01009 322.6 66.6
374(10) 0.01010 322.6 70.2
352(10) 0.00982 322.6 73.9
388(11) 0.00827 322.6 77.6
409(11) 0.00811 322.5 81.3
411(11) 0.00892 322.5 85.0
392(10) 0.00953 322.5 88.5
388(11) 0.00877 322.5 91.9
411(11) 0.00766 322.4 95.0
428(11) 0.00794 322.4 97.9
408(11) 0.00907 322.4 100.5
410(11) 0.00901 322.4 102.7
429(11) 0.00813 322.4 104.5
402(11) 0.00830 322.3 105.7
396(11) 0.00883 322.3 106.5
425(11) 0.00876 322.3 106.7
385(10) 0.00958 322.3 106.4
390(11) 0.00885 322.3 105.6
386(11) 0.00843 322.2 104.2
394(11) 0.00880 322.2 102.4
414(11) 0.00905 322.2 100.2
366(10) 0.00995 322.2 97.6
418(11) 0.00818 322.1 94.7
433(12) 0.00742 322.1 91.5
394(11) 0.00879 322.1 88.2
398(10) 0.00923 322.1 84.7
377(10) 0.00966 322.1 81.2
365(10) 0.00933 322.0 77.6
361(10) 0.00942 322.0 74.0
407(11) 0.00850 322.0 70.5
373(10) 0.00992 322.0 67.0
336(10) 0.01055 321.9 63.6
349(10) 0.00984 321.9 60.3
372(10) 0.00932 321.9 57.1
377(10) 0.00927 321.9 54.0
343(10) 0.01079 321.9 51.1
362(10) 0.00961 321.8 48.4
379(11) 0.00900 321.8 45.8
360(10) 0.00944 321.8 43.3
367(10) 0.00964 321.8 41.0
365(10) 0.01018 321.8 38.9
356(10) 0.00956 321.7 36.9
341(10) 0.00956 321.7 35.1
347(10) 0.01004 321.7 33.5
386(10) 0.00950 321.7 31.9
369(10) 0.01013 321.6 30.6
332(10) 0.01032 321.6 29.3
332(10) 0.01001 321.6 28.2
360(10) 0.00965 321.6 27.3
332(9) 0.01121 321.6 26.4
355(10) 0.01046 321.5 25.7
348(10) 0.00991 321.5 25.1
321(10) 0.01001 321.5 24.6
347(10) 0.00956 321.5 24.2
329(10) 0.01106 321.4 23.9
348(10) 0.01068 321.4 23.7
334(10) 0.01034 321.4 23.6
348(11) 0.00896 321.4 23.7
336(10) 0.01045 321.4 23.8
325(9) 0.01157 321.3 24.0
341(10) 0.01090 321.3 24.2
328(10) 0.01055 321.3 24.6
354(10) 0.00913 321.3 25.1
349(10) 0.01006 321.2 25.7
339(10) 0.01104 321.2 26.3
344(10) 0.01066 321.2 27.1
322(10) 0.01107 321.2 27.9
367(11) 0.00896 321.2 28.9
357(10) 0.00978 321.1 29.9
363(10) 0.01022 321.1 31.1
343(10) 0.01065 321.1 32.3
331(10) 0.00999 321.1 33.7
354(10) 0.00911 321.1 35.1
365(11) 0.00902 321.0 36.7
341(10) 0.01086 321.0 38.3
365(10) 0.00981 321.0 40.1
368(10) 0.00928 321.0 42.0
361(10) 0.00932 320.9 43.9
347(10) 0.00999 320.9 46.0
343(10) 0.01079 320.9 48.1
340(10) 0.01070 320.9 50.4
372(11) 0.00905 320.9 52.7
376(11) 0.00890 320.8 55.0
376(10) 0.00944 320.8 57.4
378(10) 0.00995 320.8 59.9
371(10) 0.00936 320.8 62.4
381(10) 0.00908 320.7 64.9
393(11) 0.00868 320.7 67.5
399(11) 0.00894 320.7 70.0
401(10) 0.00927 320.7 72.4
369(10) 0.00925 320.7 74.8
395(11) 0.00850 320.6 77.0
371(10) 0.00975 320.6 79.2
399(10) 0.00919 320.6 81.1
372(10) 0.01003 320.6 82.9
388(11) 0.00884 320.6 84.4
391(11) 0.00854 320.5 85.7
409(11) 0.00827 320.5 86.8
380(10) 0.00962 320.5 87.5
382(10) 0.00983 320.5 87.9
408(11) 0.00825 320.4 88.0
370(10) 0.00907 320.4 87.8
405(11) 0.00867 320.4 87.3
441(11) 0.00826 320.4 86.6
416(11) 0.00899 320.4 85.5
422(11) 0.00824 320.3 84.3
425(11) 0.00761 320.3 82.8
419(11) 0.00848 320.3 81.2
422(11) 0.00879 320.3 79.4
410(11) 0.00896 320.2 77.6
398(11) 0.00858 320.2 75.6
398(11) 0.00801 320.2 73.7
397(11) 0.00886 320.2 71.7
384(10) 0.00976 320.2 69.8
404(10) 0.00912 320.1 67.8
386(11) 0.00905 320.1 66.0
390(11) 0.00837 320.1 64.2
390(10) 0.00908 320.1 62.6
360(10) 0.01033 320.1 61.0
359(10) 0.01030 320.0 59.6
362(10) 0.00973 320.0 58.3
360(11) 0.00901 320.0 57.1
353(10) 0.00983 320.0 56.1
370(10) 0.01013 319.9 55.2
363(10) 0.00984 319.9 54.4
350(10) 0.01009 319.9 53.9
356(10) 0.00958 319.9 53.4
357(10) 0.00973 319.9 53.1
337(10) 0.01106 319.8 52.9
370(10) 0.00940 319.8 52.8
380(11) 0.00896 319.8 52.9
381(11) 0.00878 319.8 53.0
359(10) 0.00976 319.7 53.2
370(10) 0.01000 319.7 53.5
401(11) 0.00884 319.7 53.8
367(10) 0.00922 319.7 54.2
372(11) 0.00896 319.7 54.5
392(11) 0.00889 319.6 54.8
368(10) 0.01011 319.6 55.0
339(10) 0.01064 319.6 55.1
400(11) 0.00829 319.6 55.1
397(11) 0.00859 319.5 55.0
361(10) 0.01019 319.5 54.7
366(10) 0.01016 319.5 54.3
357(10) 0.00947 319.5 53.7
359(11) 0.00892 319.5 52.9
374(11) 0.00891 319.4 51.9
326(9) 0.01114 319.4 50.8
371(10) 0.00991 319.4 49.5
369(10) 0.00936 319.4 48.1
362(10) 0.00908 319.4 46.6
335(10) 0.01045 319.3 45.0
347(10) 0.01085 319.3 43.4
355(10) 0.01047 319.3 41.7
347(10) 0.01022 319.3 40.0
335(10) 0.01016 319.2 38.2
349(10) 0.01003 319.2 36.5
360(10) 0.01009 319.2 34.9
370(10) 0.01017 319.2 33.2
350(10) 0.01015 319.2 31.6
357(11) 0.00907 319.1 30.0
347(10) 0.01006 319.1 28.5
347(10) 0.01058 319.1 27.1
336(10) 0.01092 319.1 25.7
324(10) 0.01060 319.0 24.3
318(10) 0.01018 319.0 23.1
334(10) 0.01019 319.0 21.9
321(9) 0.01163 319.0 20.8
312(9) 0.01127 319.0 19.7
357(10) 0.00938 318.9 18.8
327(10) 0.00996 318.9 17.8
320(10) 0.01050 318.9 17.0
322(9) 0.01146 318.9 16.2
340(10) 0.01070 318.9 15.4
350(10) 0.00993 318.8 14.7
312(10) 0.01105 318.8 14.1
332(10) 0.01054 318.8 13.5
323(9) 0.01153 318.8 12.9
322(10) 0.01105 318.7 12.4
326(10) 0.01088 318.7 11.9
335(10) 0.01035 318.7 11.5
337(10) 0.01079 318.7 11.1
317(9) 0.01166 318.7 10.7
325(10) 0.01091 318.6 10.4
330(10) 0.01027 318.6 10.1
338(10) 0.01008 318.6 9.8
362(10) 0.00988 318.6 9.5
314(9) 0.01190 318.5 9.3
316(9) 0.01138 318.5 9.1
349(10) 0.00946 318.5 8.9
333(10) 0.01027 318.5 8.7
317(9) 0.01130 318.5 8.5
342(10) 0.01079 318.4 8.4
339(10) 0.01049 318.5 8.3
335(10) 0.01028 318.5 8.1
337(10) 0.01066 318.5 8.0
326(9) 0.01109 318.5 7.9
342(10) 0.01085 318.5 7.9
322(10) 0.01060 318.5 7.8
303(9) 0.01123 318.5 7.7
310(10) 0.01099 318.6 7.7
319(9) 0.01151 318.6 7.7
325(9) 0.01164 318.6 7.6
325(10) 0.01091 318.6 7.6
335(10) 0.00958 318.6 7.7
319(9) 0.01113 318.6 7.7
351(10) 0.01048 318.6 7.8
332(10) 0.01107 318.7 7.9
300(9) 0.01156 318.7 8.0
306(10) 0.01051 318.7 8.2
295(9) 0.01230 318.7 8.5
315(9) 0.01194 318.7 9.0
322(9) 0.01137 318.7 9.9
332(10) 0.01039 318.8 11.8
350(10) 0.00949 318.8 15.7
343(10) 0.01026 318.8 23.2
327(9) 0.01147 318.8 36.0
382(10) 0.00948 318.8 55.0
400(11) 0.00867 318.8 78.6
411(11) 0.00799 318.8 102.1
414(11) 0.00873 318.9 118.1
407(10) 0.00921 318.9 119.5
364(10) 0.01019 318.9 105.6
379(11) 0.00861 318.9 82.8
334(10) 0.00995 318.9 58.9
366(10) 0.00907 318.9 39.0
364(10) 0.01018 318.9 25.2
361(10) 0.00965 319.0 17.0
339(10) 0.01037 319.0 12.6
334(10) 0.01044 319.0 10.6
315(9) 0.01119 319.0 9.6
335(10) 0.01101 319.0 9.1
343(10) 0.01026 319.0 8.9
318(10) 0.01090 319.0 8.8
317(9) 0.01133 319.1 8.7
337(10) 0.01086 319.1 8.7
307(9) 0.01217 319.1 8.8
324(10) 0.01077 319.1 8.8
328(10) 0.01035 319.1 8.9
329(10) 0.01056 319.1 9.1
346(10) 0.01027 319.1 9.3
307(9) 0.01223 319.2 9.5
327(10) 0.01062 319.2 9.7
299(9) 0.01148 319.2 10.0
318(10) 0.01068 319.2 10.3
331(10) 0.01102 319.2 10.6
342(10) 0.01076 319.2 11.0
332(10) 0.01025 319.2 11.4
326(10) 0.01001 319.3 11.8
312(9) 0.01126 319.3 12.3
347(10) 0.01021 319.3 12.8
330(9) 0.01134 319.3 13.3
346(10) 0.00998 319.3 13.9
316(10) 0.01041 319.3 14.5
332(10) 0.01030 319.4 15.2
343(10) 0.01070 319.4 15.9
342(10) 0.01076 319.4 16.7
322(10) 0.01062 319.4 17.5
357(11) 0.00869 319.4 18.3
326(10) 0.01087 319.4 19.2
327(9) 0.01117 319.4 20.1
335(9) 0.01108 319.5 21.1
369(10) 0.00915 319.5 22.2
338(10) 0.00975 319.5 23.2
343(10) 0.01018 319.5 24.3
352(10) 0.01044 319.5 25.5
359(10) 0.01014 319.5 26.8
341(10) 0.01030 319.5 28.0
365(11) 0.00849 319.6 29.2
369(10) 0.00948 319.6 30.5
358(10) 0.01043 319.6 31.8
358(10) 0.01012 319.6 33.1
350(10) 0.00976 319.6 34.5
359(11) 0.00904 319.6 35.8
345(10) 0.01031 319.6 37.1
381(10) 0.00977 319.7 38.3
364(10) 0.00987 319.7 39.6
376(10) 0.00938 319.7 40.8
387(11) 0.00863 319.7 41.9
386(11) 0.00877 319.7 42.9
361(10) 0.01028 319.7 43.9
377(10) 0.00930 319.7 44.8
361(10) 0.00960 319.8 45.5
377(10) 0.00914 319.8 46.1
380(10) 0.00909 319.8 46.5
376(10) 0.00992 319.8 46.8
355(10) 0.00998 319.8 47.0
361(10) 0.00963 319.8 46.9
370(10) 0.00943 319.9 46.8
374(10) 0.00976 319.9 46.4
369(10) 0.01012 319.9 45.9
389(10) 0.00915 319.9 45.3
375(10) 0.00915 319.9 44.5
354(10) 0.00970 319.9 43.6
376(10) 0.00966 319.9 42.7
362(10) 0.01026 320.0 41.6
359(10) 0.00950 320.0 40.4
371(11) 0.00889 320.0 39.2
355(10) 0.00975 320.0 38.0
344(10) 0.01060 320.0 36.7
354(10) 0.01058 320.0 35.4
394(11) 0.00869 320.0 34.1
366(11) 0.00897 320.1 32.7
349(10) 0.00980 320.1 31.4
316(9) 0.01177 320.1 30.1
346(10) 0.01074 320.1 28.8
345(10) 0.01006 320.1 27.6
347(10) 0.00933 320.1 26.4
347(10) 0.01009 320.1 25.2
343(10) 0.01075 320.2 24.1
346(10) 0.01070 320.2 23.0
348(10) 0.01002 320.2 21.9
360(11) 0.00892 320.2 20.9
307(9) 0.01181 320.2 20.0
339(10) 0.01103 320.2 19.0
330(9) 0.01132 320.2 18.2
301(9) 0.01188 320.3 17.4
331(10) 0.00962 320.3 16.6
333(10) 0.01019 320.3 15.9
334(10) 0.01107 320.3 15.2
364(10) 0.00999 320.3 14.6
340(10) 0.01038 320.3 14.0
346(10) 0.00948 320.3 13.5
352(10) 0.00999 320.4 13.0
331(9) 0.01135 320.4 12.6
327(10) 0.01092 320.4 12.2
323(10) 0.01078 320.4 11.8
328(10) 0.01035 320.4 11.5
317(10) 0.01105 320.4 11.2
335(10) 0.01102 320.5 11.0
332(10) 0.01070 320.5 10.8
324(10) 0.01032 320.5 10.6
320(10) 0.01041 320.5 10.5
329(10) 0.01058 320.5 10.5
324(9) 0.01143 320.5 10.5
320(10) 0.01104 320.5 10.5
333(10) 0.01043 320.6 10.6
355(10) 0.00967 320.6 10.9
351(10) 0.01024 320.6 11.2
360(10) 0.01030 320.6 11.7
330(10) 0.01066 320.6 12.6
329(10) 0.01030 320.6 14.0
362(10) 0.00922 320.6 16.5
358(10) 0.01003 320.7 21.0
337(10) 0.01106 320.7 28.6
358(10) 0.00968 320.7 40.6
397(11) 0.00842 320.7 58.1
408(11) 0.00860 320.7 80.9
470(11) 0.00765 320.7 107.1
496(12) 0.00753 320.7 132.0
544(12) 0.00654 320.8 148.6
530(13) 0.00625 320.8 150.3
480(12) 0.00716 320.8 136.1
459(11) 0.00780 320.8 112.0
404(10) 0.00919 320.8 85.5
431(11) 0.00803 320.8 61.5
381(11) 0.00872 320.8 42.6
377(10) 0.00915 320.9 29.3
332(9) 0.01128 320.9 20.7
357(10) 0.01034 320.9 15.4
345(10) 0.01067 320.9 12.4
366(11) 0.00872 320.9 10.5
319(9) 0.01111 320.9 9.3
345(10) 0.01061 321.0 8.5
344(10) 0.01071 321.0 7.9
363(10) 0.00946 321.0 7.4
347(10) 0.00961 321.0 6.9
334(10) 0.01040 321.0 6.6
341(10) 0.01075 321.0 6.3
351(10) 0.01052 321.0 6.1
332(10) 0.01028 321.1 5.8
334(10) 0.00995 321.1 5.7
333(10) 0.01039 321.1 5.5
299(9) 0.01238 321.1 5.4
315(9) 0.01134 321.1 5.3
344(10) 0.01033 321.1 5.2
327(10) 0.01047 321.1 5.1
320(10) 0.01091 321.2 5.0
331(9) 0.01131 321.2 5.0
333(10) 0.01052 321.2 4.9
328(10) 0.01056 321.2 4.9
333(10) 0.01051 321.2 4.8
322(9) 0.01121 321.2 4.8
303(9) 0.01234 321.2 4.8
326(10) 0.01061 321.3 4.8
314(10) 0.01099 321.3 4.8
350(10) 0.00955 321.3 4.9
344(10) 0.01071 321.3 4.9
337(10) 0.01093 321.3 4.9
333(10) 0.01066 321.3 5.0
330(10) 0.01060 321.3 5.1
342(10) 0.01037 321.4 5.1
332(10) 0.01082 321.4 5.2
334(9) 0.01114 321.4 5.3
333(10) 0.01079 321.4 5.4
317(10) 0.01070 321.4 5.6
342(10) 0.01031 321.4 5.7
373(10) 0.00977 321.4 5.9
364(10) 0.01019 321.5 6.1
324(10) 0.01072 321.5 6.3
350(10) 0.00944 321.5 6.6
336(10) 0.01050 321.5 7.0
346(10) 0.01075 321.5 7.5
350(10) 0.01054 321.5 8.3
356(10) 0.00963 321.6 9.5
323(10) 0.01040 321.6 11.4
342(10) 0.00971 321.6 14.0
346(10) 0.01052 321.6 17.3
354(10) 0.01060 321.6 21.1
358(10) 0.00989 321.6 24.8
359(11) 0.00892 321.6 27.4
379(10) 0.00944 321.7 27.9
390(10) 0.00959 321.7 26.3
366(10) 0.00997 321.7 23.4
385(11) 0.00904 321.7 20.1
369(11) 0.00895 321.7 17.3
342(10) 0.01035 321.7 15.2
350(10) 0.01073 321.7 13.8
346(10) 0.01032 321.8 13.1
339(10) 0.01028 321.8 12.8
344(10) 0.00970 321.8 12.8
359(10) 0.00941 321.8 13.0
341(10) 0.01088 321.8 13.2
335(10) 0.01099 321.8 13.5
330(10) 0.01053 321.8 13.7
346(10) 0.00981 321.9 14.0
319(9) 0.01116 321.9 14.2
331(9) 0.01121 321.9 14.4
333(10) 0.01072 321.9 14.6
319(10) 0.01088 321.9 14.7
322(10) 0.01058 321.9 14.8
353(10) 0.00987 321.9 14.9
319(9) 0.01176 322.0 14.9
336(10) 0.01057 322.0 14.9
346(10) 0.00998 322.0 14.8
328(10) 0.01045 322.0 14.7
348(10) 0.01029 322.0 14.6
341(10) 0.01086 322.0 14.5
291(9) 0.01212 322.1 14.3
343(10) 0.00969 322.1 14.1
320(10) 0.01081 322.1 13.9
328(10) 0.01081 322.1 13.7
320(9) 0.01174 322.1 13.5
329(10) 0.01006 322.1 13.3
326(10) 0.01048 322.1 13.1
350(10) 0.01016 322.2 12.9
337(10) 0.01083 322.2 12.7
342(10) 0.01092 322.2 12.5
329(10) 0.01081 322.2 12.3
321(10) 0.01044 322.2 12.2
349(10) 0.00977 322.2 12.0
321(9) 0.01134 322.2 11.9
324(9) 0.01139 322.3 11.8
320(9) 0.01123 322.3 11.7
327(10) 0.01025 322.3 11.7
322(10) 0.01076 322.3 11.7
327(9) 0.01137 322.3 11.7
339(10) 0.01091 322.3 11.7
333(10) 0.01035 322.3 11.7
345(10) 0.00914 322.4 11.8
311(9) 0.01141 322.4 11.9
332(9) 0.01125 322.4 12.1
311(9) 0.01195 322.4 12.3
335(10) 0.01062 322.4 12.5
343(10) 0.00925 322.4 12.7
328(10) 0.01054 322.4 13.0
318(9) 0.01148 322.5 13.2
335(10) 0.01095 322.5 13.6
333(10) 0.01038 322.5 13.9
331(10) 0.01000 322.5 14.3
350(10) 0.00998 322.5 14.7
338(10) 0.01106 322.5 15.1
358(10) 0.01018 322.6 15.5
317(9) 0.01145 322.6 16.0
330(10) 0.01040 322.6 16.5
323(10) 0.01080 322.6 16.9
345(10) 0.01072 322.6 17.4
363(10) 0.01001 322.6 17.9
333(10) 0.01040 322.6 18.3
334(10) 0.01026 322.7 18.8
355(10) 0.00988 322.7 19.2
306(9) 0.01215 322.7 19.5
345(10) 0.01015 322.7 19.9
357(10) 0.00972 322.7 20.2
354(10) 0.00960 322.7 20.4
336(10) 0.01039 322.7 20.6
343(10) 0.01088 322.8 20.6
333(10) 0.01055 322.8 20.7
336(10) 0.00981 322.8 20.6
318(9) 0.01114 322.8 20.5
354(10) 0.01021 322.8 20.3
325(9) 0.01134 322.8 20.1
326(10) 0.01048 322.8 19.8
321(10) 0.01021 322.9 19.4
333(10) 0.01040 322.9 19.0
359(10) 0.01033 322.9 18.5
335(10) 0.01104 322.9 18.0
300(9) 0.01205 322.9 17.5
338(10) 0.00993 322.9 16.9
324(10) 0.01102 322.9 16.3
332(10) 0.01099 323.0 15.8
331(9) 0.01112 323.0 15.2
332(10) 0.01051 323.0 14.7
360(10) 0.00908 323.0 14.1
358(10) 0.00959 323.0 13.5
341(10) 0.01072 323.0 13.0
324(9) 0.01145 323.0 12.4
332(10) 0.01084 323.1 11.9
306(9) 0.01108 323.1 11.4
304(9) 0.01165 323.1 10.9
331(9) 0.01116 323.1 10.5
321(9) 0.01170 323.1 10.1
320(10) 0.01105 323.1 9.7
330(10) 0.01016 323.2 9.4
339(10) 0.01024 323.2 9.1
332(10) 0.01102 323.2 8.8
318(9) 0.01182 323.2 8.6
349(10) 0.00991 323.2 8.4
333(10) 0.00967 323.2 8.3
319(10) 0.01078 323.2 8.2
330(9) 0.01121 323.3 8.1
336(10) 0.01098 323.3 8.2
336(10) 0.01009 323.3 8.3
326(10) 0.01055 323.3 8.4
349(10) 0.01009 323.3 8.7
346(10) 0.01080 323.3 9.2
320(9) 0.01132 323.3 10.0
322(10) 0.01089 323.4 11.1
335(10) 0.00953 323.4 12.9
312(10) 0.01075 323.4 15.6
313(9) 0.01186 323.4 19.4
323(9) 0.01120 323.4 24.8
352(10) 0.00992 323.4 31.8
350(10) 0.00982 323.4 40.5
350(10) 0.01014 323.5 50.5
363(10) 0.01033 323.5 61.0
379(10) 0.00929 323.5 70.4
371(10) 0.00935 323.5 76.8
357(10) 0.00976 323.5 78.2
358(10) 0.00973 323.5 74.2
357(10) 0.01058 323.5 66.4
334(10) 0.01040 323.6 56.8
350(10) 0.00949 323.6 47.3
343(10) 0.00986 323.6 38.8
359(10) 0.00990 323.6 32.0
364(10) 0.01024 323.6 26.8
371(10) 0.00917 323.6 22.9
358(10) 0.00932 323.7 20.0
362(10) 0.00967 323.7 17.6
354(10) 0.01042 323.7 15.5
363(10) 0.01028 323.7 13.6
332(10) 0.01025 323.7 12.0
339(10) 0.00941 323.7 10.5
357(10) 0.00958 323.7 9.3
330(9) 0.01124 323.8 8.3
330(9) 0.01111 323.8 7.5
355(10) 0.00967 323.8 6.9
330(10) 0.01072 323.8 6.5
342(10) 0.01039 323.8 6.1
315(9) 0.01184 323.8 5.9
349(10) 0.01042 323.8 5.7
311(9) 0.01137 323.9 5.6
341(10) 0.00940 323.9 5.5
325(10) 0.01105 323.9 5.4
323(9) 0.01149 323.9 5.4
331(9) 0.01127 323.9 5.5
331(10) 0.01054 323.9 5.5
343(11) 0.00898 323.9 5.6
312(9) 0.01149 324.0 5.7
312(9) 0.01180 324.0 5.9
319(9) 0.01158 324.0 6.1
314(9) 0.01125 324.0 6.4
343(10) 0.00973 324.0 6.8
350(10) 0.00986 324.0 7.3
322(9) 0.01161 324.0 7.9
340(10) 0.01060 324.1 8.7
336(10) 0.01033 324.1 9.7
309(10) 0.01096 324.1 10.8
327(10) 0.01065 324.1 12.3
343(10) 0.01079 324.1 13.9
354(10) 0.00990 324.1 15.8
331(10) 0.01042 324.1 18.0
334(10) 0.00981 324.2 20.4
315(9) 0.01131 324.2 23.0
329(9) 0.01131 324.2 25.7
342(10) 0.01065 324.2 28.4
344(10) 0.00977 324.2 30.8
341(10) 0.00999 324.2 32.9
335(10) 0.01087 324.3 34.3
333(10) 0.01107 324.3 34.8
354(10) 0.01004 324.3 34.5
360(11) 0.00897 324.3 33.3
319(10) 0.01098 324.3 31.4
345(10) 0.01018 324.3 29.1
293(9) 0.01275 324.3 26.5
332(10) 0.01041 324.4 23.9
345(10) 0.00989 324.4 21.4
338(10) 0.01019 324.4 19.0
342(10) 0.01069 324.4 16.8
351(10) 0.01056 324.4 14.9
317(9) 0.01141 324.4 13.3
340(10) 0.00981 324.4 11.9
343(10) 0.01029 324.5 10.8
332(10) 0.01098 324.5 9.8
322(9) 0.01151 324.5 9.1
335(10) 0.00967 324.5 8.6
338(10) 0.01027 324.5 8.1
301(9) 0.01208 324.5 7.8
315(9) 0.01188 324.5 7.5
330(10) 0.01057 324.6 7.3
315(10) 0.01063 324.6 7.2
310(9) 0.01135 324.6 7.1
322(9) 0.01131 324.6 7.0
301(9) 0.01231 324.6 6.9
320(10) 0.01079 324.6 6.9
326(10) 0.00993 324.6 6.9
337(10) 0.01037 324.7 6.8
337(9) 0.01109 324.7 6.9
315(9) 0.01173 324.7 6.9
344(10) 0.00971 324.7 6.9
325(10) 0.01003 324.7 6.9
334(10) 0.01032 324.7 6.9
293(9) 0.01268 324.8 7.0
298(9) 0.01218 324.8 7.0
314(9) 0.01121 324.8 7.0
322(10) 0.01014 324.8 7.1
322(10) 0.01054 324.8 7.1
326(9) 0.01147 324.8 7.1
320(9) 0.01130 324.8 7.2
354(10) 0.00961 324.9 7.2
307(10) 0.01076 324.9 7.2
335(10) 0.01027 324.9 7.3
316(9) 0.01169 324.9 7.3
328(10) 0.01097 324.9 7.3
342(10) 0.00968 324.9 7.3
345(10) 0.00957 324.9 7.3
306(9) 0.01154 325.0 7.3
322(9) 0.01150 325.0 7.3
313(9) 0.01138 325.0 7.4
325(10) 0.01005 325.0 7.3
345(10) 0.00985 325.0 7.3
317(9) 0.01116 325.0 7.3
321(9) 0.01160 325.0 7.3
324(10) 0.01081 325.1 7.2
345(10) 0.00954 325.1 7.2
345(10) 0.00965 325.1 7.1
325(9) 0.01123 325.1 7.1
328(9) 0.01123 325.1 7.0
335(10) 0.01021 325.1 6.9
333(10) 0.00978 325.1 6.9
342(10) 0.01007 325.1 6.8
339(10) 0.01056 325.1 6.7
341(10) 0.01096 325.1 6.7
327(10) 0.01063 325.1 6.6
331(10) 0.00981 325.1 6.5
348(10) 0.01027 325.1 6.4
336(9) 0.01113 325.1 6.4
332(9) 0.01122 325.1 6.3
334(10) 0.01022 325.1 6.2
327(10) 0.00985 325.1 6.1
328(10) 0.01070 325.1 6.1
337(10) 0.01072 325.1 6.0
337(10) 0.01101 325.1 5.9
329(10) 0.01059 325.1 5.9
329(10) 0.00953 325.1 5.8
333(10) 0.01021 325.1 5.8
336(10) 0.01093 325.1 5.7
326(9) 0.01127 325.1 5.7
325(10) 0.01074 325.1 5.6
351(10) 0.00912 325.1 5.6
345(10) 0.00985 325.1 5.6
319(9) 0.01165 325.1 5.5
339(10) 0.01073 325.1 5.5
319(10) 0.01097 325.1 5.5
342(10) 0.00927 325.1 5.5
299(9) 0.01204 325.1 5.4
347(10) 0.01076 325.1 5.4
319(9) 0.01119 325.1 5.5
338(10) 0.01006 325.1 5.5
323(10) 0.01025 325.1 5.5
328(10) 0.01060 325.1 5.5
331(9) 0.01142 325.1 5.5
327(9) 0.01112 325.1 5.6
328(10) 0.01063 325.1 5.6
329(10) 0.01035 325.1 5.7
332(10) 0.01056 325.1 5.8
348(10) 0.01068 325.1 5.8
332(10) 0.01069 325.1 5.9
321(9) 0.01114 325.1 6.0
355(10) 0.00963 325.1 6.1
309(9) 0.01164 325.1 6.3
348(10) 0.01066 325.1 6.4
325(10) 0.01098 325.1 6.6
339(10) 0.00955 325.1 6.7
336(10) 0.01017 325.1 6.9
336(10) 0.01078 325.1 7.1
340(10) 0.01093 325.1 7.4
331(10) 0.01059 325.1 7.6
315(10) 0.01065 325.1 8.0
327(10) 0.01059 325.1 8.3
333(10) 0.01095 325.1 8.6
320(9) 0.01179 325.1 9.0
331(10) 0.01021 325.1 9.4
309(10) 0.01091 325.1 9.9
302(9) 0.01138 325.1 10.4
337(10) 0.01070 325.1 11.0
346(10) 0.01082 325.1 11.7
363(10) 0.00945 325.1 12.4
350(10) 0.00931 325.1 13.3
381(11) 0.00898 325.1 14.3
332(9) 0.01113 325.1 15.5
336(9) 0.01116 325.1 16.9
340(10) 0.01039 325.1 18.7
377(11) 0.00819 325.1 21.1
341(10) 0.01066 325.1 24.4
334(10) 0.01099 325.1 29.3
368(10) 0.01010 325.1 36.3
378(10) 0.00920 325.1 46.3
392(11) 0.00816 325.1 59.7
406(11) 0.00838 325.1 76.7
406(10) 0.00923 325.1 96.6
457(11) 0.00802 325.1 117.5
488(12) 0.00711 325.1 136.4
510(12) 0.00661 325.1 150.2
517(12) 0.00657 325.1 158.1
478(11) 0.00780 325.1 163.0
483(12) 0.00754 325.1 169.6
477(12) 0.00739 325.1 181.2
504(12) 0.00677 325.1 198.8
536(12) 0.00653 325.1 220.9
543(12) 0.00686 325.1 243.7
522(12) 0.00677 325.1 261.4
553(13) 0.00613 325.1 269.1
503(12) 0.00699 325.1 265.8
523(12) 0.00669 325.1 254.9
497(12) 0.00750 325.1 240.6
537(12) 0.00666 325.1 226.3
514(12) 0.00674 325.1 213.3
482(12) 0.00695 325.1 201.9
502(12) 0.00705 325.1 191.5
524(12) 0.00715 325.1 181.2
496(12) 0.00708 325.1 169.8
473(12) 0.00726 325.1 157.0
457(11) 0.00758 325.1 142.6
449(11) 0.00788 325.1 127.5
398(10) 0.00940 325.1 112.4
386(11) 0.00901 325.1 97.9
381(11) 0.00870 325.1 84.5
359(10) 0.00989 325.1 72.5
380(10) 0.00910 325.1 62.0
353(10) 0.01050 325.1 53.0
384(10) 0.00909 325.1 45.5
341(10) 0.00979 325.1 39.3
336(10) 0.01036 325.1 34.2
333(10) 0.01091 325.1 30.0
336(10) 0.01091 325.1 26.7
376(10) 0.00948 325.1 23.9
367(11) 0.00905 325.1 21.7
353(10) 0.00958 325.1 19.9
350(10) 0.01031 325.1 18.4
342(10) 0.01102 325.1 17.1
349(10) 0.01032 325.1 16.1
356(10) 0.00914 325.1 15.2
368(11) 0.00902 325.1 14.4
366(10) 0.01028 325.1 13.7
377(10) 0.00989 325.1 13.1
327(9) 0.01116 325.1 12.6
344(10) 0.00945 325.1 12.2
332(10) 0.01050 325.1 11.8
367(10) 0.01009 325.1 11.4
334(9) 0.01121 325.1 11.1
347(10) 0.01017 325.1 10.8
322(10) 0.01076 325.1 10.5
326(10) 0.01093 325.1 10.3
339(10) 0.01085 325.1 10.1
323(9) 0.01135 325.1 9.9
318(10) 0.01097 325.1 9.7
365(11) 0.00882 325.1 9.6
349(10) 0.00959 325.1 9.4
323(9) 0.01146 325.1 9.3
342(10) 0.01054 325.1 9.3
355(10) 0.00993 325.1 9.2
337(10) 0.01052 325.1 9.1
347(10) 0.01002 325.1 9.1
367(10) 0.01009 325.1 9.0
344(10) 0.01057 325.1 8.9
371(10) 0.00912 325.1 8.9
329(10) 0.01074 325.1 8.9
335(10) 0.01033 325.1 8.9
349(10) 0.01058 325.1 8.9
343(10) 0.01015 325.1 8.9
319(10) 0.01060 325.1 9.0
316(10) 0.01089 325.1 9.2
312(9) 0.01193 325.1 9.4
326(9) 0.01135 325.1 9.6
332(10) 0.01060 325.1 10.0
341(10) 0.00989 325.1 10.6
336(10) 0.01045 325.1 11.2
327(10) 0.01099 325.1 12.1
312(9) 0.01189 325.1 13.1
344(10) 0.01007 325.1 14.3
358(10) 0.00930 325.1 15.6
327(10) 0.01100 325.1 17.1
337(10) 0.01070 325.1 18.5
328(9) 0.01140 325.1 19.8
316(9) 0.01130 325.1 20.9
340(10) 0.00956 325.1 21.5
338(10) 0.01070 325.1 21.5
349(10) 0.01042 325.1 20.9
347(10) 0.01066 325.1 19.8
342(10) 0.01017 325.1 18.4
346(10) 0.00943 325.1 16.8
308(9) 0.01160 325.1 15.2
336(9) 0.01124 325.1 13.7
323(9) 0.01131 325.1 12.4
332(10) 0.00995 325.1 11.2
319(10) 0.01004 325.1 10.2
351(10) 0.00965 325.1 9.3
323(9) 0.01149 325.1 8.6
296(9) 0.01273 325.1 8.1
353(10) 0.00982 325.1 7.6
364(11) 0.00876 325.1 7.3
360(10) 0.00948 325.1 7.0
344(10) 0.01085 325.1 6.8
340(10) 0.01070 325.1 6.6
335(10) 0.01050 325.1 6.5
353(10) 0.00959 325.1 6.3
351(10) 0.00957 325.1 6.2
332(10) 0.01105 325.1 6.1
319(9) 0.01125 325.1 6.0
348(10) 0.00999 325.1 6.0
340(10) 0.00972 325.1 5.9
354(10) 0.00942 325.1 5.9
328(9) 0.01140 325.1 5.8
297(9) 0.01209 325.1 5.8
336(10) 0.00985 325.1 5.8
321(10) 0.01075 325.1 5.7
312(9) 0.01155 325.1 5.7
312(9) 0.01187 325.1 5.7
329(10) 0.01069 325.1 5.7
335(10) 0.01052 325.1 5.7
331(10) 0.01081 325.1 5.7
332(10) 0.01076 325.1 5.7
341(10) 0.01084 325.1 5.7
317(10) 0.01097 325.1 5.7
340(10) 0.00948 325.1 5.7
354(10) 0.00951 325.1 5.7
326(10) 0.01091 325.1 5.7
325(9) 0.01122 325.1 5.7
313(9) 0.01171 325.1 5.8
342(10) 0.00951 325.1 5.8
337(10) 0.01000 325.1 5.9
352(10) 0.01040 325.1 5.9
337(9) 0.01117 325.1 6.0
329(10) 0.01030 325.1 6.0
331(10) 0.01009 325.1 6.1
339(10) 0.01034 325.2 6.2
343(10) 0.01058 325.2 6.3
331(9) 0.01112 325.3 6.3
334(10) 0.01052 325.3 6.4
325(10) 0.00993 325.3 6.5
330(10) 0.01070 325.4 6.7
343(10) 0.01083 325.4 6.8
329(9) 0.01115 325.4 6.9
315(10) 0.01085 325.5 7.1
322(10) 0.00993 325.5 7.2
337(10) 0.01059 325.6 7.4
312(9) 0.01198 325.6 7.6
324(9) 0.01146 325.6 7.8
314(9) 0.01129 325.7 8.0
321(10) 0.01032 325.7 8.2
313(10) 0.01073 325.7 8.4
331(9) 0.01127 325.8 8.7
312(9) 0.01193 325.8 9.0
336(10) 0.01042 325.9 9.3
348(10) 0.00965 325.9 9.6
348(10) 0.00974 325.9 9.9
332(9) 0.01123 326.0 10.3
318(9) 0.01137 326.0 10.7
330(10) 0.01040 326.0 11.1
325(10) 0.01002 326.1 11.5
356(10) 0.00955 326.1 12.0
337(10) 0.01106 326.1 12.5
343(10) 0.01041 326.2 13.1
333(10) 0.01060 326.2 13.7
337(10) 0.01017 326.3 14.3
335(10) 0.01064 326.3 15.0
347(10) 0.01077 326.3 15.8
354(10) 0.01027 326.4 16.6
339(10) 0.01034 326.4 17.5
329(10) 0.01041 326.4 18.5
345(10) 0.01016 326.5 19.7
330(9) 0.01128 326.5 21.1
354(10) 0.00962 326.6 22.8
354(10) 0.00952 326.6 24.9
384(11) 0.00904 326.6 27.7
344(10) 0.01072 326.7 31.6
362(10) 0.01019 326.7 37.2
388(11) 0.00856 326.7 45.3
366(10) 0.00938 326.8 57.0
395(11) 0.00880 326.8 73.1
436(11) 0.00840 326.9 94.6
431(11) 0.00864 326.9 121.6
470(12) 0.00732 326.9 153.6
467(12) 0.00700 327.0 188.1
526(12) 0.00656 327.0 221.2
572(13) 0.00635 327.0 246.6
575(12) 0.00642 327.1 257.7
565(13) 0.00621 327.1 250.9
523(13) 0.00622 327.2 228.9
502(12) 0.00685 327.2 198.4
479(11) 0.00766 327.2 165.8
428(11) 0.00867 327.3 135.5
442(11) 0.00796 327.3 110.0
430(12) 0.00735 327.3 90.3
394(11) 0.00874 327.4 76.2
384(10) 0.00957 327.4 67.1
400(10) 0.00922 327.5 62.1
408(11) 0.00865 327.5 60.2
403(11) 0.00796 327.5 60.7
423(11) 0.00773 327.6 62.9
405(10) 0.00918 327.6 66.6
398(10) 0.00926 327.6 71.5
425(11) 0.00811 327.7 77.4
462(12) 0.00700 327.7 84.2
452(11) 0.00761 327.8 91.8
444(11) 0.00842 327.8 100.0
458(11) 0.00789 327.8 108.6
446(11) 0.00776 327.9 117.0
476(12) 0.00690 327.9 125.0
484(12) 0.00713 327.9 131.7
470(11) 0.00783 328.0 136.6
466(11) 0.00770 328.0 139.0
460(12) 0.00738 328.1 138.6
438(12) 0.00747 328.1 135.5
439(11) 0.00772 328.1 129.8
455(11) 0.00813 328.2 122.4
429(11) 0.00804 328.2 113.7
465(12) 0.00706 328.2 104.5
417(11) 0.00819 328.3 95.3
436(11) 0.00806 328.3 86.5
396(10) 0.00937 328.4 78.2
366(10) 0.00987 328.4 70.7
391(11) 0.00861 328.4 64.0
401(11) 0.00854 328.5 58.3
384(10) 0.00941 328.5 53.4
396(10) 0.00932 328.5 49.3
359(10) 0.00976 328.6 46.1
376(11) 0.00863 328.6 43.7
394(11) 0.00889 328.7 42.1
393(10) 0.00912 328.7 41.3
365(10) 0.01019 328.7 41.4
351(10) 0.00957 328.8 42.6
376(11) 0.00859 328.8 45.0
350(10) 0.01011 328.8 48.8
365(10) 0.01009 328.9 54.1
365(10) 0.01014 328.9 61.0
388(11) 0.00857 329.0 69.2
390(11) 0.00826 329.0 78.3
406(11) 0.00838 329.0 87.3
396(10) 0.00935 329.1 95.1
399(10) 0.00942 329.1 99.7
414(11) 0.00861 329.1 100.0
402(11) 0.00807 329.2 95.9
394(11) 0.00881 329.2 88.5
361(10) 0.01036 329.3 79.6
348(10) 0.01075 329.3 70.6
401(11) 0.00849 329.3 62.3
372(11) 0.00878 329.4 55.4
385(11) 0.00894 329.4 49.8
375(10) 0.00990 329.4 45.8
387(10) 0.00957 329.5 43.1
389(11) 0.00884 329.5 41.4
390(11) 0.00866 329.6 40.7
375(10) 0.00930 329.6 40.7
392(10) 0.00936 329.6 41.3
364(10) 0.01000 329.7 42.4
414(11) 0.00797 329.7 43.9
363(10) 0.00954 329.7 45.8
381(11) 0.00880 329.8 48.0
401(10) 0.00934 329.8 50.5
412(11) 0.00889 329.9 53.2
388(10) 0.00937 329.9 56.1
400(11) 0.00867 329.9 58.9
408(11) 0.00842 330.0 61.6
409(10) 0.00912 330.0 63.8
396(11) 0.00906 330.0 65.3
409(11) 0.00819 330.1 66.0
404(11) 0.00824 330.1 65.7
412(11) 0.00851 330.2 64.7
428(11) 0.00866 330.2 63.0
406(11) 0.00851 330.2 60.8
388(11) 0.00829 330.3 58.5
371(10) 0.00933 330.3 56.2
394(11) 0.00902 330.3 53.9
398(10) 0.00924 330.4 51.8
410(11) 0.00848 330.4 49.8
395(11) 0.00841 330.5 48.1
376(10) 0.00919 330.5 46.6
399(11) 0.00900 330.5 45.2
377(10) 0.01001 330.6 44.1
371(10) 0.00938 330.6 43.0
391(11) 0.00858 330.6 42.1
373(10) 0.00914 330.7 41.3
362(10) 0.00983 330.7 40.5
375(10) 0.00986 330.8 39.7
357(10) 0.00984 330.8 39.0
355(11) 0.00904 330.8 38.3
350(10) 0.00997 330.9 37.6
340(10) 0.01064 330.9 36.8
364(10) 0.01028 330.9 36.1
342(10) 0.01043 331.0 35.3
341(10) 0.00935 331.0 34.6
374(10) 0.00926 331.1 33.8
369(10) 0.00996 331.1 33.0
365(10) 0.01011 331.1 32.2
376(11) 0.00886 331.2 31.4
373(11) 0.00836 331.2 30.6
358(10) 0.00984 331.2 29.8
377(10) 0.00986 331.3 29.0
350(10) 0.01055 331.3 28.2
371(10) 0.00921 331.4 27.4
380(11) 0.00821 331.4 26.6
344(10) 0.01020 331.4 25.8
370(10) 0.00991 331.5 25.1
347(10) 0.01071 331.5 24.3
349(10) 0.00971 331.5 23.6
360(10) 0.00908 331.6 22.9
379(11) 0.00886 331.6 22.2
333(10) 0.01104 331.7 21.5
344(10) 0.01058 331.7 20.8
369(10) 0.00948 331.7 20.2
359(10) 0.00911 331.8 19.5
341(10) 0.01023 331.8 18.9
326(9) 0.01131 331.8 18.3
352(10) 0.01005 331.9 17.7
342(10) 0.01005 331.9 17.2
349(10) 0.00969 332.0 16.6
343(10) 0.01002 332.0 16.1
347(10) 0.01067 332.0 15.6
339(10) 0.01044 332.1 15.2
350(10) 0.00968 332.1 14.7
340(10) 0.00989 332.1 14.3
374(10) 0.00964 332.2 13.9
353(10) 0.01057 332.2 13.5
358(10) 0.00975 332.3 13.1
332(10) 0.01015 332.3 12.8
372(11) 0.00898 332.3 12.4
322(9) 0.01145 332.4 12.1
353(10) 0.01044 332.4 11.8
375(10) 0.00917 332.4 11.5
359(10) 0.00907 332.5 11.2
357(10) 0.00938 332.5 11.0
372(10) 0.00956 332.6 10.7
340(10) 0.01093 332.6 10.5
351(10) 0.00969 332.6 10.3
346(10) 0.00972 332.7 10.1
362(10) 0.00911 332.7 9.9
325(9) 0.01126 332.7 9.7
354(10) 0.01060 332.8 9.6
344(10) 0.01035 332.8 9.4
329(10) 0.00981 332.9 9.3
325(10) 0.01063 332.9 9.2
355(10) 0.01016 332.9 9.0
380(10) 0.00970 333.0 8.9
330(10) 0.01047 333.0 8.8
336(10) 0.00954 333.0 8.8
330(10) 0.01053 333.1 8.7
378(10) 0.00985 333.1 8.6
323(9) 0.01157 333.2 8.6
344(10) 0.00991 333.2 8.5
353(10) 0.00922 333.2 8.5
330(10) 0.01030 333.3 8.4
335(10) 0.01102 333.3 8.4
343(10) 0.01040 333.3 8.4
348(10) 0.00978 333.4 8.4
347(10) 0.00974 333.4 8.4
366(10) 0.00932 333.5 8.4
354(10) 0.01041 333.5 8.4
324(9) 0.01121 333.5 8.5
353(10) 0.00968 333.6 8.5
326(10) 0.01048 333.6 8.5
355(10) 0.00995 333.6 8.6
371(10) 0.01008 333.7 8.6
337(10) 0.01067 333.7 8.7
320(10) 0.01075 333.8 8.8
323(10) 0.01040 333.8 8.9
373(10) 0.00939 333.8 9.0
379(10) 0.00991 333.9 9.1
350(10) 0.01024 333.9 9.2
356(10) 0.00945 333.9 9.3
318(10) 0.01104 334.0 9.5
353(10) 0.00979 334.0 9.6
348(10) 0.01069 334.1 9.8
344(10) 0.00994 334.1 10.0
348(10) 0.00987 334.1 10.2
356(10) 0.00991 334.2 10.5
363(10) 0.00984 334.2 10.7
330(9) 0.01119 334.2 11.0
332(10) 0.01016 334.3 11.3
347(10) 0.00943 334.3 11.7
375(10) 0.00930 334.4 12.1
369(10) 0.00993 334.4 12.5
356(10) 0.01045 334.4 13.0
364(10) 0.00925 334.5 13.5
355(10) 0.00975 334.5 14.1
354(10) 0.01003 334.5 14.7
348(10) 0.01035 334.6 15.4
345(10) 0.01080 334.6 16.1
351(10) 0.01023 334.7 17.0
358(10) 0.00912 334.7 17.9
358(10) 0.00985 334.7 18.9
365(10) 0.01003 334.8 19.9
346(10) 0.01087 334.8 21.1
374(10) 0.00916 334.8 22.3
371(11) 0.00849 334.9 23.7
353(10) 0.00984 334.9 25.1
379(10) 0.00974 335.0 26.6
370(10) 0.01011 335.0 28.2
359(10) 0.00956 335.0 29.8
372(11) 0.00885 335.1 31.4
376(10) 0.00939 335.1 33.1
365(10) 0.01033 335.1 34.8
389(10) 0.00911 335.2 36.5
359(10) 0.00982 335.2 38.1
388(11) 0.00839 335.3 39.6
385(11) 0.00906 335.3 41.0
379(10) 0.00974 335.3 42.4
370(10) 0.00994 335.4 43.6
428(11) 0.00785 335.4 44.8
389(11) 0.00870 335.4 46.0
396(11) 0.00878 335.5 47.2
388(10) 0.00961 335.5 48.4
409(11) 0.00886 335.6 49.5
364(10) 0.00923 335.6 50.7
351(10) 0.00935 335.6 52.0
371(11) 0.00906 335.7 53.2
392(10) 0.00946 335.7 54.5
396(10) 0.00923 335.7 55.8
416(11) 0.00823 335.8 57.0
389(11) 0.00898 335.8 58.3
389(10) 0.00929 335.9 59.5
393(10) 0.00937 335.9 60.7
391(11) 0.00901 335.9 61.7
397(11) 0.00882 336.0 62.6
413(11) 0.00823 336.0 63.5
387(10) 0.00911 336.0 64.1
411(10) 0.00908 336.1 64.6
380(11) 0.00884 336.1 65.0
417(11) 0.00784 336.2 65.2
402(11) 0.00845 336.2 65.2
392(10) 0.00909 336.2 65.0
410(10) 0.00910 336.3 64.7
434(11) 0.00766 336.3 64.2
411(11) 0.00814 336.3 63.5
399(11) 0.00887 336.4 62.7
428(11) 0.00849 336.4 61.8
400(10) 0.00929 336.5 60.9
393(11) 0.00838 336.5 59.8
383(11) 0.00859 336.5 58.8
406(11) 0.00850 336.6 57.7
400(10) 0.00916 336.6 56.5
422(11) 0.00879 336.6 55.5
377(10) 0.00916 336.7 54.4
386(11) 0.00824 336.7 53.5
390(11) 0.00904 336.8 52.6
402(10) 0.00919 336.8 51.8
384(10) 0.00966 336.8 51.1
374(11) 0.00904 336.9 50.4
378(11) 0.00827 336.9 50.0
392(11) 0.00855 336.9 49.6
384(10) 0.00972 337.0 49.4
366(10) 0.01004 337.0 49.3
389(11) 0.00877 337.0 49.4
364(10) 0.00919 337.1 49.7
365(10) 0.00956 337.1 50.1
387(10) 0.00958 337.2 50.7
371(10) 0.00992 337.2 51.4
391(11) 0.00902 337.2 52.3
373(11) 0.00889 337.3 53.3
377(11) 0.00905 337.3 54.6
402(10) 0.00922 337.3 55.9
389(10) 0.00940 337.4 57.4
396(11) 0.00876 337.4 59.1
388(11) 0.00863 337.5 60.9
364(10) 0.00960 337.5 62.9
386(10) 0.00954 337.5 65.0
416(11) 0.00865 337.6 67.3
417(11) 0.00851 337.6 69.6
431(11) 0.00808 337.6 72.0
426(11) 0.00828 337.7 74.5
399(10) 0.00935 337.7 76.9
422(11) 0.00832 337.8 79.3
409(11) 0.00811 337.8 81.6
403(11) 0.00854 337.8 83.7
399(11) 0.00887 337.9 85.6
435(11) 0.00855 337.9 87.2
392(11) 0.00882 337.9 88.5
409(11) 0.00846 338.0 89.3
426(11) 0.00818 338.0 89.8
382(10) 0.00952 338.1 89.8
402(10) 0.00917 338.1 89.3
388(10) 0.00915 338.1 88.3
384(11) 0.00853 338.2 86.9
377(10) 0.00912 338.2 85.1
406(11) 0.00890 338.2 83.0
382(10) 0.00975 338.3 80.6
399(11) 0.00829 338.3 78.2
383(11) 0.00868 338.4 76.1
397(11) 0.00886 338.4 75.1
392(10) 0.00946 338.4 76.3
392(10) 0.00947 338.5 81.1
398(11) 0.00888 338.5 89.8
398(11) 0.00815 338.5 101.1
436(11) 0.00799 338.6 111.2
434(11) 0.00855 338.6 115.3
410(11) 0.00893 338.7 109.9
437(11) 0.00771 338.7 96.2
405(11) 0.00798 338.7 78.9
386(11) 0.00899 338.8 62.7
367(10) 0.01002 338.8 50.2
387(10) 0.00959 338.8 41.7
371(11) 0.00902 338.9 36.4
400(11) 0.00803 338.9 32.9
379(10) 0.00942 339.0 30.4
339(10) 0.01102 339.0 28.4
359(10) 0.00991 339.0 26.7
353(10) 0.00978 339.1 25.1
361(10) 0.00930 339.1 23.7
376(10) 0.00907 339.1 22.4
381(10) 0.00967 339.2 21.2
347(10) 0.01018 339.2 20.1
363(10) 0.00932 339.3 19.2
349(10) 0.00972 339.3 18.3
376(11) 0.00880 339.3 17.6
345(10) 0.01076 339.4 16.9
392(11) 0.00899 339.4 16.3
370(10) 0.00945 339.4 15.8
352(10) 0.00982 339.5 15.3
349(10) 0.01030 339.5 14.9
383(10) 0.00970 339.6 14.6
366(10) 0.00989 339.6 14.3
345(10) 0.00953 339.6 14.1
352(10) 0.00937 339.7 13.9
357(10) 0.01002 339.7 13.8
359(10) 0.01030 339.7 13.7
356(10) 0.00991 339.8 13.7
358(10) 0.00953 339.8 13.8
369(10) 0.00949 339.9 13.9
379(10) 0.00957 339.9 14.0
387(10) 0.00952 339.9 14.3
377(11) 0.00888 340.0 14.6
359(10) 0.00945 340.0 15.0
365(10) 0.00960 340.0 15.6
330(10) 0.01078 340.1 16.3
348(10) 0.01071 340.1 17.2
356(10) 0.00999 340.2 18.7
367(11) 0.00888 340.2 20.7
394(11) 0.00855 340.2 23.7
380(10) 0.00949 340.3 28.4
410(11) 0.00898 340.3 35.3
431(11) 0.00798 340.3 45.3
419(11) 0.00787 340.4 58.9
441(11) 0.00808 340.4 76.3
517(12) 0.00718 340.5 96.5
532(12) 0.00697 340.5 117.7
551(13) 0.00632 340.5 136.3
580(13) 0.00559 340.6 147.6
522(12) 0.00688 340.6 147.6
489(11) 0.00764 340.6 136.3
484(11) 0.00765 340.7 117.8
452(11) 0.00767 340.7 96.9
438(11) 0.00773 340.8 76.9
399(11) 0.00884 340.8 59.9
401(10) 0.00920 340.8 46.6
411(11) 0.00890 340.9 36.9
373(10) 0.00935 340.9 30.3
373(11) 0.00902 340.9 25.9
408(11) 0.00817 341.0 23.1
354(10) 0.01040 341.0 21.4
354(10) 0.01033 341.1 20.3
399(11) 0.00869 341.1 19.6
369(10) 0.00928 341.1 19.2
364(10) 0.00920 341.2 19.0
370(10) 0.00999 341.2 18.9
356(10) 0.01006 341.2 19.0
358(10) 0.00964 341.3 19.2
358(10) 0.00972 341.3 19.5
358(10) 0.01003 341.4 20.0
377(10) 0.00995 341.4 20.6
369(10) 0.00958 341.4 21.4
387(11) 0.00894 341.5 22.2
374(10) 0.00923 341.5 23.1
388(10) 0.00910 341.5 24.2
372(10) 0.01002 341.6 25.4
378(11) 0.00905 341.6 26.6
376(11) 0.00902 341.7 27.9
363(10) 0.00951 341.7 29.2
368(10) 0.00963 341.7 30.5
388(10) 0.00955 341.8 31.7
406(11) 0.00788 341.8 32.8
366(10) 0.00910 341.8 33.8
362(10) 0.00944 341.9 34.6
358(10) 0.01025 341.9 35.1
388(10) 0.00962 342.0 35.3
398(11) 0.00863 342.0 35.3
371(10) 0.00908 342.0 35.0
363(10) 0.00930 342.1 34.5
374(10) 0.00976 342.1 33.8
352(10) 0.01067 342.1 33.0
377(10) 0.00917 342.2 32.1
367(11) 0.00895 342.2 31.2
369(10) 0.00915 342.3 30.3
348(10) 0.01057 342.3 29.5
370(10) 0.01007 342.3 28.8
374(10) 0.00924 342.4 28.3
347(10) 0.00928 342.4 27.8
367(10) 0.00940 342.4 27.5
371(10) 0.00990 342.5 27.4
388(10) 0.00945 342.5 27.4
404(11) 0.00870 342.6 27.7
389(11) 0.00839 342.6 28.1
376(10) 0.00941 342.6 28.9
373(10) 0.00982 342.7 30.0
360(10) 0.01009 342.7 31.6
385(11) 0.00871 342.7 33.7
388(11) 0.00858 342.8 36.5
382(10) 0.00930 342.8 40.1
395(10) 0.00945 342.9 44.9
439(11) 0.00789 342.9 51.1
428(11) 0.00817 342.9 58.8
439(11) 0.00782 343.0 68.1
466(12) 0.00742 343.0 79.3
456(11) 0.00812 343.0 92.1
466(11) 0.00762 343.1 106.2
506(12) 0.00686 343.1 121.1
536(13) 0.00627 343.2 135.8
548(13) 0.00613 343.2 148.8
518(12) 0.00717 343.2 158.3
553(13) 0.00632 343.3 162.5
540(12) 0.00650 343.3 160.7
492(12) 0.00712 343.3 153.1
481(12) 0.00732 343.4 141.4
475(11) 0.00778 343.4 127.2
445(11) 0.00812 343.5 112.4
434(11) 0.00766 343.5 97.9
443(11) 0.00766 343.5 84.5
414(11) 0.00887 343.6 72.7
420(11) 0.00885 343.6 62.6
395(11) 0.00878 343.6 54.2
413(11) 0.00805 343.7 47.4
430(11) 0.00801 343.7 41.9
401(10) 0.00920 343.8 37.6
356(10) 0.01047 343.8 34.2
390(11) 0.00877 343.8 31.6
379(11) 0.00892 343.9 29.4
367(10) 0.00939 343.9 27.7
379(10) 0.00974 343.9 26.3
364(10) 0.01009 344.0 25.1
385(10) 0.00910 344.0 24.1
363(10) 0.00923 344.1 23.2
393(11) 0.00875 344.1 22.4
333(9) 0.01116 344.1 21.6
363(10) 0.01024 344.2 20.9
367(10) 0.00966 344.2 20.1
375(11) 0.00890 344.2 19.4
395(11) 0.00898 344.3 18.6
346(10) 0.01078 344.3 17.9
358(10) 0.01023 344.4 17.1
355(10) 0.00932 344.4 16.3
352(10) 0.00917 344.4 15.6
366(10) 0.00956 344.5 14.9
352(10) 0.01060 344.5 14.2
359(10) 0.01031 344.5 13.5
361(10) 0.00957 344.6 12.9
349(10) 0.00935 344.6 12.3
365(10) 0.00944 344.7 11.8
356(10) 0.01046 344.7 11.3
373(10) 0.00984 344.7 10.8
341(10) 0.01032 344.8 10.4
357(10) 0.00926 344.8 10.0
370(10) 0.00955 344.8 9.7
351(10) 0.01065 344.9 9.3
362(10) 0.00979 344.9 9.1
343(10) 0.01057 345.0 8.8
367(11) 0.00895 345.0 8.6
346(10) 0.00989 345.0 8.4
354(10) 0.01047 345.1 8.2
372(10) 0.00945 345.1 8.1
347(10) 0.01007 345.1 7.9
355(10) 0.00946 345.2 7.8
352(10) 0.01017 345.2 7.7
365(10) 0.01032 345.3 7.6
366(10) 0.00968 345.3 7.6
379(11) 0.00897 345.3 7.5
351(10) 0.00971 345.4 7.5
343(10) 0.01037 345.4 7.5
323(9) 0.01156 345.4 7.5
376(10) 0.00930 345.5 7.5
339(10) 0.01008 345.5 7.6
350(10) 0.00954 345.6 7.7
348(10) 0.01031 345.6 7.8
351(10) 0.01057 345.6 7.9
368(10) 0.00939 345.7 8.0
357(10) 0.00935 345.7 8.2
372(10) 0.00917 345.7 8.4
363(10) 0.00996 345.8 8.6
366(10) 0.01014 345.8 8.9
339(10) 0.01077 345.9 9.2
374(11) 0.00885 345.9 9.5
393(11) 0.00861 345.9 9.9
347(10) 0.01067 346.0 10.4
349(10) 0.01043 346.0 10.9
344(10) 0.00989 346.0 11.6
367(11) 0.00878 346.1 12.3
360(10) 0.00975 346.1 13.3
371(10) 0.00998 346.2 14.4
407(10) 0.00916 346.2 15.8
363(10) 0.00982 346.2 17.6
375(11) 0.00878 346.3 20.0
384(10) 0.00911 346.3 23.3
386(10) 0.00962 346.3 27.5
367(10) 0.01001 346.4 33.2
417(11) 0.00850 346.4 40.7
403(11) 0.00827 346.5 50.2
429(11) 0.00783 346.5 62.1
423(11) 0.00873 346.5 76.5
422(11) 0.00870 346.6 93.2
462(12) 0.00730 346.6 111.7
425(11) 0.00786 346.6 131.2
466(12) 0.00741 346.7 149.9
526(12) 0.00691 346.7 165.6
513(12) 0.00710 346.8 175.5
530(13) 0.00633 346.8 177.5
536(13) 0.00625 346.8 171.0
522(12) 0.00662 346.9 157.7
474(11) 0.00775 346.9 140.1
444(11) 0.00795 346.9 120.7
442(12) 0.00751 347.0 101.6
415(11) 0.00814 347.0 84.0
396(11) 0.00884 347.1 68.6
410(11) 0.00907 347.1 55.6
384(10) 0.00959 347.1 45.1
389(11) 0.00882 347.2 36.8
400(11) 0.00830 347.2 30.4
369(10) 0.00967 347.2 25.6
393(10) 0.00942 347.3 22.0
379(10) 0.00940 347.3 19.4
373(11) 0.00904 347.3 17.4
352(10) 0.00990 347.4 16.0
355(10) 0.00973 347.4 14.9
365(10) 0.01009 347.5 14.1
352(10) 0.01014 347.5 13.6
366(10) 0.00908 347.5 13.2
378(10) 0.00936 347.6 12.9
361(10) 0.01027 347.6 12.8
356(10) 0.01045 347.6 12.8
356(10) 0.00955 347.7 13.0
340(10) 0.00955 347.7 13.2
359(10) 0.00964 347.8 13.5
384(10) 0.00961 347.8 14.0
361(10) 0.01033 347.8 14.5
337(10) 0.01072 347.9 15.2
370(11) 0.00882 347.9 15.9
349(10) 0.01001 347.9 16.7
362(10) 0.01024 348.0 17.5
366(10) 0.01006 348.0 18.4
350(10) 0.00980 348.1 19.3
346(10) 0.00928 348.1 20.1
368(10) 0.00934 348.1 20.9
335(9) 0.01120 348.2 21.5
351(10) 0.01041 348.2 22.0
353(10) 0.00985 348.2 22.3
359(11) 0.00886 348.3 22.4
359(10) 0.00936 348.3 22.3
360(10) 0.01023 348.4 21.9
359(10) 0.01023 348.4 21.3
367(10) 0.00964 348.4 20.5
349(10) 0.00986 348.5 19.6
385(10) 0.00921 348.5 18.6
379(10) 0.00975 348.5 17.5
336(10) 0.01083 348.6 16.4
355(10) 0.01002 348.6 15.3
349(10) 0.00935 348.7 14.3
341(10) 0.00969 348.7 13.3
368(10) 0.01010 348.7 12.3
358(10) 0.01026 348.8 11.4
366(10) 0.00940 348.8 10.6
337(10) 0.01050 348.8 9.8
354(10) 0.00960 348.9 9.1
351(10) 0.01066 348.9 8.5
339(10) 0.01071 349.0 7.9
370(10) 0.00926 349.0 7.4
370(10) 0.00918 349.0 7.0
373(10) 0.00957 349.1 6.6
378(10) 0.00972 349.1 6.3
362(10) 0.00988 349.1 6.0
368(10) 0.00917 349.2 5.7
355(10) 0.00969 349.2 5.5
343(10) 0.01050 349.3 5.3
345(10) 0.01072 349.3 5.1
366(10) 0.00982 349.3 5.0
368(10) 0.00915 349.4 4.9
352(10) 0.00986 349.4 4.8
354(10) 0.01023 349.4 4.7
381(10) 0.00964 349.5 4.6
348(10) 0.01007 349.5 4.5
328(10) 0.01022 349.6 4.4
371(10) 0.00928 349.6 4.4
379(10) 0.00981 349.6 4.3
391(10) 0.00950 349.7 4.3
364(10) 0.00953 349.7 4.2
338(10) 0.00968 349.7 4.2
333(10) 0.01047 349.8 4.2
320(9) 0.01176 349.8 4.2
333(9) 0.01113 349.9 4.1
346(10) 0.01029 349.9 4.1
384(11) 0.00839 349.9 4.1
372(10) 0.00908 350.0 4.1
331(10) 0.01102 350.0 4.1
375(10) 0.00994 350.0 4.1
349(10) 0.01000 350.1 4.1
346(10) 0.00912 350.1 4.1
350(10) 0.00946 350.2 4.1
343(10) 0.01079 350.2 4.1
350(10) 0.01017 350.2 4.2
364(10) 0.00953 350.3 4.2
366(11) 0.00905 350.3 4.2
372(10) 0.00911 350.3 4.2
363(10) 0.01027 350.4 4.2
364(10) 0.01003 350.4 4.3
375(11) 0.00904 350.5 4.3
357(10) 0.00950 350.5 4.3
368(10) 0.00939 350.5 4.4
344(10) 0.01083 350.5 4.4
333(10) 0.01069 350.6 4.5
355(10) 0.00971 350.6 4.5
358(10) 0.01004 350.6 4.6
374(10) 0.00946 350.6 4.7
376(10) 0.00991 350.7 4.7
365(10) 0.00965 350.7 4.8
354(10) 0.00971 350.7 4.9
373(10) 0.00907 350.7 5.0
330(10) 0.01064 350.8 5.1
360(10) 0.01028 350.8 5.2
349(10) 0.01038 350.8 5.4
337(10) 0.00981 350.8 5.5
340(10) 0.00981 350.9 5.6
331(10) 0.01101 350.9 5.8
322(9) 0.01169 350.9 6.0
350(10) 0.00955 350.9 6.2
382(11) 0.00844 351.0 6.4
356(10) 0.00985 351.0 6.6
386(10) 0.00946 351.0 6.8
365(10) 0.01026 351.0 7.0
355(10) 0.00951 351.1 7.3
365(11) 0.00903 351.1 7.6
353(10) 0.00989 351.1 7.9
350(10) 0.01043 351.1 8.2
359(10) 0.01020 351.2 8.5
361(10) 0.00951 351.2 8.8
374(11) 0.00878 351.2 9.2
362(10) 0.00964 351.2 9.5
336(9) 0.01109 351.3 9.9
355(10) 0.01040 351.3 10.2
346(10) 0.00983 351.3 10.6
361(10) 0.00915 351.3 11.0
410(11) 0.00850 351.4 11.4
377(10) 0.00980 351.4 11.7
347(10) 0.01077 351.4 12.1
347(10) 0.01038 351.4 12.4
377(11) 0.00856 351.5 12.7
358(10) 0.00969 351.5 13.0
362(10) 0.01021 351.5 13.2
379(10) 0.00979 351.5 13.5
374(10) 0.00952 351.6 13.7
375(11) 0.00867 351.6 13.8
349(10) 0.00974 351.6 14.0
355(10) 0.01041 351.6 14.1
365(10) 0.01008 351.7 14.2
343(10) 0.01036 351.7 14.3
351(10) 0.00961 351.7 14.4
362(10) 0.00965 351.7 14.5
347(10) 0.01067 351.8 14.6
370(10) 0.00989 351.8 14.8
355(10) 0.00964 351.8 15.0
361(11) 0.00892 351.8 15.2
336(10) 0.01041 351.8 15.4
372(10) 0.00994 351.9 15.7
387(10) 0.00909 351.9 16.0
350(10) 0.00980 351.9 16.4
360(10) 0.00934 351.9 16.8
375(10) 0.00936 352.0 17.3
368(10) 0.01003 352.0 17.8
370(10) 0.00952 352.0 18.5
368(10) 0.00947 352.0 19.1
345(10) 0.00957 352.1 19.8
373(10) 0.00961 352.1 20.6
376(10) 0.00993 352.1 21.4
356(10) 0.00991 352.1 22.3
373(11) 0.00895 352.2 23.3
367(10) 0.00940 352.2 24.3
361(10) 0.01011 352.2 25.4
364(10) 0.01022 352.2 26.5
361(11) 0.00904 352.3 27.7
360(10) 0.00936 352.3 29.0
402(11) 0.00885 352.3 30.3
382(10) 0.00975 352.3 31.7
397(10) 0.00933 352.4 33.1
389(11) 0.00879 352.4 34.5
369(10) 0.00910 352.4 35.9
390(11) 0.00885 352.4 37.4
404(10) 0.00908 352.5 38.9
364(10) 0.01008 352.5 40.5
396(11) 0.00874 352.5 42.0
405(11) 0.00797 352.5 43.5
376(10) 0.00959 352.6 44.9
369(10) 0.00986 352.6 46.4
383(10) 0.00979 352.6 47.7
385(11) 0.00895 352.6 49.1
394(11) 0.00794 352.7 50.3
391(10) 0.00908 352.7 51.5
416(11) 0.00887 352.7 52.6
429(11) 0.00861 352.7 53.7
411(11) 0.00867 352.8 54.6
390(11) 0.00843 352.8 55.5
401(11) 0.00845 352.8 56.2
391(10) 0.00955 352.8 57.0
387(10) 0.00939 352.9 57.6
409(11) 0.00855 352.9 58.2
392(11) 0.00843 352.9 58.9
395(11) 0.00887 352.9 59.5
400(10) 0.00934 353.0 60.1
409(11) 0.00870 353.0 60.7
413(11) 0.00839 353.0 61.4
401(11) 0.00848 353.0 62.1
410(11) 0.00831 353.1 62.8
405(10) 0.00926 353.1 63.5
449(11) 0.00791 353.1 64.1
434(11) 0.00775 353.1 64.8
443(12) 0.00736 353.2 65.3
425(11) 0.00844 353.2 65.6
428(11) 0.00869 353.2 65.8
407(11) 0.00860 353.2 65.7
421(11) 0.00821 353.3 65.3
447(12) 0.00740 353.3 64.6
397(11) 0.00867 353.3 63.7
413(11) 0.00904 353.3 62.5
413(11) 0.00843 353.4 61.1
393(11) 0.00857 353.4 59.4
431(11) 0.00766 353.4 57.3
408(11) 0.00877 353.4 54.8
411(11) 0.00900 353.4 52.1
406(11) 0.00858 353.5 49.3
408(11) 0.00830 353.5 46.6
420(11) 0.00810 353.5 44.0
360(10) 0.01012 353.5 41.7
428(11) 0.00868 353.6 39.6
380(11) 0.00898 353.6 37.8
360(10) 0.00926 353.6 36.3
387(11) 0.00897 353.6 35.0
373(10) 0.00994 353.7 33.9
355(10) 0.01053 353.7 33.1
414(11) 0.00802 353.7 32.4
371(11) 0.00896 353.7 31.8
400(11) 0.00884 353.8 31.4
381(10) 0.00972 353.8 31.1
402(10) 0.00921 353.8 31.0
405(11) 0.00855 353.8 30.9
375(11) 0.00870 353.9 30.9
411(11) 0.00845 353.9 31.0
406(10) 0.00919 353.9 31.2
417(11) 0.00870 353.9 31.5
358(10) 0.00985 354.0 31.8
385(11) 0.00836 354.0 32.2
397(11) 0.00863 354.0 32.6
403(10) 0.00912 354.0 33.1
413(11) 0.00882 354.1 33.6
422(11) 0.00821 354.1 34.1
407(11) 0.00818 354.1 34.7
405(11) 0.00841 354.1 35.2
396(10) 0.00920 354.2 35.8
388(10) 0.00943 354.2 36.4
406(11) 0.00868 354.2 37.0
422(11) 0.00782 354.2 37.5
406(11) 0.00827 354.3 38.0
404(10) 0.00921 354.3 38.5
418(11) 0.00863 354.3 39.0
391(11) 0.00883 354.3 39.4
400(11) 0.00848 354.4 39.8
406(11) 0.00860 354.4 40.1
415(11) 0.00899 354.4 40.3
402(11) 0.00870 354.4 40.5
361(10) 0.00957 354.5 40.6
426(11) 0.00765 354.5 40.6
383(10) 0.00930 354.5 40.6
384(10) 0.00961 354.5 40.4
372(10) 0.00951 354.6 40.2
400(11) 0.00848 354.6 39.9
414(11) 0.00841 354.6 39.6
413(11) 0.00856 354.6 39.2
378(10) 0.00986 354.7 38.7
397(11) 0.00871 354.7 38.2
426(11) 0.00789 354.7 37.6
415(11) 0.00844 354.7 37.0
375(10) 0.01003 354.8 36.3
412(11) 0.00896 354.8 35.6
404(11) 0.00856 354.8 35.0
400(11) 0.00824 354.8 34.2
410(11) 0.00842 354.9 33.5
371(10) 0.01004 354.9 32.8
395(10) 0.00944 354.9 32.1
379(10) 0.00929 354.9 31.4
375(11) 0.00866 355.0 30.6
371(10) 0.00934 355.0 29.9
403(10) 0.00922 355.0 29.3
401(10) 0.00919 355.0 28.6
391(11) 0.00896 355.1 27.9
367(11) 0.00880 355.1 27.3
379(10) 0.00932 355.1 26.7
414(11) 0.00887 355.1 26.1
393(10) 0.00922 355.1 25.6
399(11) 0.00830 355.2 25.1
399(11) 0.00804 355.2 24.6
400(11) 0.00869 355.2 24.1
366(10) 0.01019 355.2 23.7
379(10) 0.00978 355.3 23.3
415(11) 0.00803 355.3 22.9
400(11) 0.00828 355.3 22.6
379(10) 0.00929 355.3 22.2
386(10) 0.00967 355.4 21.9
379(10) 0.00977 355.4 21.7
371(10) 0.00960 355.4 21.4
391(11) 0.00865 355.4 21.2
375(10) 0.00911 355.5 21.0
369(10) 0.01015 355.5 20.8
365(10) 0.00979 355.5 20.6
393(11) 0.00850 355.5 20.4
374(11) 0.00889 355.6 20.3
365(10) 0.00956 355.6 20.1
371(10) 0.01005 355.6 20.0
350(10) 0.00998 355.6 19.8
365(10) 0.00949 355.7 19.6
405(11) 0.00783 355.7 19.5
358(10) 0.00973 355.7 19.3
322(9) 0.01145 355.7 19.1
379(10) 0.00928 355.8 18.9
368(10) 0.00925 355.8 18.8
382(11) 0.00879 355.8 18.6
356(10) 0.01021 355.8 18.4
383(10) 0.00967 355.9 18.3
375(10) 0.00926 355.9 18.2
363(11) 0.00898 355.9 18.1
387(11) 0.00869 355.9 18.0
386(10) 0.00923 356.0 18.1
388(10) 0.00967 356.0 18.2
352(10) 0.00984 356.0 18.4
365(11) 0.00905 356.0 18.7
364(10) 0.00949 356.1 19.3
381(10) 0.00948 356.1 19.9
371(10) 0.01001 356.1 20.8
371(10) 0.00945 356.1 22.0
374(11) 0.00894 356.2 23.4
381(10) 0.00934 356.2 25.1
373(10) 0.00980 356.2 27.1
363(10) 0.01011 356.2 29.3
399(11) 0.00881 356.3 31.6
374(11) 0.00894 356.3 34.1
380(10) 0.00921 356.3 36.6
377(10) 0.00964 356.3 38.8
353(10) 0.01052 356.4 40.5
393(11) 0.00889 356.4 41.6
413(11) 0.00773 356.4 41.8
402(11) 0.00888 356.4 41.0
404(10) 0.00908 356.5 39.4
387(10) 0.00965 356.5 37.2
400(11) 0.00865 356.5 34.5
393(11) 0.00834 356.5 31.6
378(10) 0.00938 356.6 28.8
392(10) 0.00941 356.6 26.0
364(10) 0.00964 356.6 23.4
386(11) 0.00857 356.6 21.1
387(11) 0.00834 356.7 19.0
378(11) 0.00882 356.7 17.3
366(10) 0.01002 356.7 15.8
378(10) 0.00967 356.7 14.5
356(10) 0.00959 356.7 13.5
334(10) 0.00989 356.8 12.7
356(10) 0.00968 356.8 12.1
359(10) 0.01035 356.8 11.6
380(10) 0.00909 356.8 11.2
361(10) 0.00989 356.9 10.9
380(11) 0.00892 356.9 10.6
379(10) 0.00911 356.9 10.5
353(10) 0.01047 356.9 10.4
363(10) 0.00980 357.0 10.4
361(10) 0.00917 357.0 10.4
372(11) 0.00875 357.0 10.4
365(10) 0.00993 357.0 10.5
367(10) 0.00992 357.1 10.6
359(10) 0.00949 357.1 10.8
405(11) 0.00813 357.1 11.0
363(10) 0.00967 357.1 11.3
383(10) 0.00931 357.2 11.7
381(10) 0.00972 357.2 12.2
364(10) 0.00943 357.2 12.7
381(11) 0.00888 357.2 13.4
375(10) 0.00942 357.3 14.3
363(10) 0.00996 357.3 15.4
370(10) 0.01014 357.3 16.8
372(10) 0.00964 357.3 18.6
398(11) 0.00847 357.4 20.8
362(10) 0.01011 357.4 23.4
413(11) 0.00870 357.4 26.7
405(11) 0.00905 357.4 30.6
408(11) 0.00843 357.5 35.2
385(11) 0.00860 357.5 40.6
444(11) 0.00774 357.5 46.8
424(11) 0.00870 357.5 53.6
387(10) 0.00960 357.6 61.0
419(11) 0.00858 357.6 68.9
435(11) 0.00758 357.6 76.8
431(11) 0.00810 357.6 84.4
457(11) 0.00801 357.7 91.1
484(12) 0.00753 357.7 96.1
474(12) 0.00737 357.7 99.0
452(12) 0.00741 357.7 99.2
486(12) 0.00699 357.8 96.9
502(12) 0.00744 357.8 92.2
479(12) 0.00749 357.8 85.8
432(11) 0.00809 357.8 78.3
427(11) 0.00777 357.9 70.5
442(11) 0.00777 357.9 62.6
405(10) 0.00917 357.9 55.1
404(10) 0.00911 357.9 48.1
410(11) 0.00865 358.0 41.9
390(11) 0.00871 358.0 36.4
375(10) 0.00910 358.0 31.6
403(10) 0.00922 358.0 27.6
373(10) 0.00968 358.1 24.3
374(10) 0.00932 358.1 21.5
372(10) 0.00925 358.1 19.2
376(10) 0.00930 358.1 17.4
363(10) 0.01028 358.2 16.0
361(10) 0.00983 358.2 14.8
367(10) 0.00923 358.2 13.9
383(10) 0.00909 358.2 13.2
382(11) 0.00905 358.3 12.6
348(10) 0.01055 358.3 12.1
399(11) 0.00851 358.3 11.7
311(9) 0.01113 358.3 11.4
355(10) 0.00930 358.4 11.1
361(10) 0.01010 358.4 10.9
350(10) 0.01059 358.4 10.7
374(11) 0.00898 358.4 10.6
367(10) 0.00932 358.4 10.5
380(11) 0.00898 358.5 10.4
386(10) 0.00946 358.5 10.3
360(10) 0.01019 358.5 10.3
385(11) 0.00850 358.5 10.3
358(10) 0.00911 358.6 10.3
381(11) 0.00905 358.6 10.3
370(10) 0.00974 358.6 10.3
364(10) 0.01021 358.6 10.4
359(10) 0.00983 358.7 10.4
367(11) 0.00865 358.7 10.5
376(10) 0.00912 358.7 10.6
379(10) 0.00979 358.7 10.7
378(10) 0.00997 358.8 10.8
353(10) 0.01011 358.8 10.9
355(11) 0.00898 358.8 11.0
338(10) 0.01023 358.8 11.1
340(10) 0.01095 358.9 11.2
359(10) 0.01013 358.9 11.4
353(10) 0.01007 358.9 11.5
364(11) 0.00900 358.9 11.7
392(11) 0.00861 359.0 11.9
380(10) 0.00962 359.0 12.0
359(10) 0.01025 359.0 12.2
342(10) 0.01035 359.0 12.4
352(10) 0.00954 359.1 12.5
373(10) 0.00924 359.1 12.7
346(10) 0.01090 359.1 12.9
367(10) 0.00988 359.1 13.1
371(10) 0.00942 359.2 13.3
387(11) 0.00834 359.2 13.5
345(10) 0.00998 359.2 13.6
363(10) 0.01028 359.2 13.8
365(10) 0.00994 359.3 14.0
374(10) 0.00930 359.3 14.2
378(11) 0.00880 359.3 14.4
356(10) 0.01010 359.3 14.6
386(10) 0.00970 359.4 14.8
385(10) 0.00910 359.4 14.9
404(11) 0.00834 359.4 15.1
386(11) 0.00892 359.4 15.3
369(10) 0.00985 359.5 15.4
374(10) 0.00987 359.5 15.6
369(10) 0.00939 359.5 15.8
361(10) 0.00970 359.5 15.9
369(10) 0.00953 359.6 16.0
384(10) 0.00925 359.6 16.2
395(10) 0.00942 359.6 16.3
367(10) 0.00943 359.6 16.4
364(10) 0.00928 359.7 16.5
369(10) 0.00909 359.7 16.6
374(10) 0.00984 359.7 16.7
369(10) 0.01009 359.7 16.8
378(10) 0.00920 359.8 16.9
384(11) 0.00859 359.8 17.0
394(11) 0.00838 359.8 17.1
375(10) 0.00978 359.8 17.1
386(10) 0.00939 359.8 17.2
367(10) 0.00934 359.9 17.3
363(11) 0.00898 359.9 17.3
396(11) 0.00859 359.9 17.4
376(10) 0.00993 359.9 17.4
383(10) 0.00978 359.9 17.4
386(11) 0.00870 360.0 17.5
362(11) 0.00895 360.0 17.5
350(10) 0.00991 360.0 17.5
381(10) 0.00972 360.0 17.5
382(10) 0.00968 360.0 17.5
377(10) 0.00938 360.0 17.5
383(11) 0.00812 360.1 17.5
385(11) 0.00902 360.1 17.5
390(10) 0.00943 360.1 17.5
378(10) 0.00970 360.1 17.5
364(10) 0.00967 360.1 17.5
384(11) 0.00868 360.1 17.5
350(10) 0.01019 360.2 17.5
361(10) 0.01024 360.2 17.5
385(10) 0.00947 360.2 17.4
384(11) 0.00876 360.2 17.4
369(11) 0.00894 360.2 17.4
379(10) 0.00923 360.2 17.4
358(10) 0.01043 360.3 17.4
364(10) 0.00974 360.3 17.4
352(10) 0.00987 360.3 17.3
359(10) 0.00929 360.3 17.3
366(10) 0.00930 360.3 17.3
395(10) 0.00950 360.3 17.3
358(10) 0.00996 360.4 17.3
375(11) 0.00903 360.4 17.2
365(10) 0.00941 360.4 17.2
395(11) 0.00853 360.4 17.2
352(10) 0.01043 360.4 17.2
371(10) 0.00938 360.4 17.2
407(11) 0.00801 360.5 17.2
376(11) 0.00905 360.5 17.2
361(10) 0.01002 360.5 17.1
365(10) 0.01007 360.5 17.1
366(10) 0.00918 360.5 17.2
369(10) 0.00938 360.5 17.2
389(11) 0.00884 360.6 17.2
366(10) 0.00979 360.6 17.2
365(10) 0.01008 360.6 17.2
354(10) 0.00989 360.6 17.3
354(10) 0.00954 360.6 17.3
389(11) 0.00883 360.7 17.4
372(10) 0.00982 360.7 17.4
384(10) 0.00970 360.7 17.5
382(10) 0.00917 360.7 17.5
379(11) 0.00886 360.7 17.6
363(10) 0.00980 360.7 17.6
380(10) 0.00971 360.8 17.7
369(10) 0.00996 360.8 17.8
364(10) 0.00945 360.8 17.8
381(11) 0.00842 360.8 17.9
395(11) 0.00875 360.8 18.0
368(10) 0.00997 360.8 18.1
379(10) 0.00977 360.9 18.1
374(10) 0.00945 360.9 18.2
361(10) 0.00911 360.9 18.3
364(10) 0.00982 360.9 18.3
379(10) 0.00981 360.9 18.4
359(10) 0.01027 360.9 18.4
371(10) 0.00925 361.0 18.5
384(11) 0.00835 361.0 18.5
372(10) 0.00970 361.0 18.5
395(10) 0.00930 361.0 18.5
365(10) 0.01017 361.0 18.5
381(11) 0.00893 361.0 18.5
393(11) 0.00814 361.1 18.5
371(10) 0.00930 361.1 18.5
368(10) 0.01013 361.1 18.4
360(10) 0.01000 361.1 18.4
406(11) 0.00842 361.1 18.3
392(11) 0.00844 361.1 18.2
396(11) 0.00888 361.2 18.1
387(10) 0.00969 361.2 18.0
379(10) 0.00919 361.2 17.9
365(10) 0.00943 361.2 17.8
355(10) 0.00952 361.2 17.6
370(10) 0.00916 361.3 17.5
354(10) 0.01057 361.3 17.4
375(10) 0.00916 361.3 17.3
361(10) 0.00946 361.3 17.2
339(10) 0.01037 361.3 17.1
378(10) 0.00949 361.3 17.0
388(10) 0.00951 361.4 17.0
380(11) 0.00903 361.4 17.0
378(11) 0.00894 361.4 17.1
362(10) 0.00970 361.4 17.4
377(10) 0.00955 361.4 17.8
382(10) 0.00969 361.4 18.6
419(11) 0.00801 361.5 19.7
383(11) 0.00886 361.5 21.5
391(11) 0.00887 361.5 23.8
367(10) 0.00985 361.5 26.9
387(10) 0.00965 361.5 30.7
404(11) 0.00866 361.5 34.9
407(11) 0.00832 361.6 39.3
434(11) 0.00782 361.6 43.1
422(11) 0.00859 361.6 45.5
420(11) 0.00885 361.6 45.8
424(11) 0.00807 361.6 43.8
416(11) 0.00771 361.6 40.2
388(10) 0.00911 361.7 35.7
373(10) 0.01005 361.7 31.2
393(10) 0.00939 361.7 27.0
408(11) 0.00845 361.7 23.5
376(11) 0.00858 361.7 20.7
384(11) 0.00881 361.7 18.6
401(10) 0.00917 361.8 17.0
362(10) 0.01033 361.8 16.0
379(10) 0.00927 361.8 15.3
389(11) 0.00812 361.8 14.8
358(10) 0.00952 361.8 14.5
373(10) 0.01005 361.8 14.3
359(10) 0.01027 361.9 14.3
358(10) 0.00969 361.9 14.2
372(11) 0.00863 361.9 14.2
333(10) 0.01055 361.9 14.3
332(10) 0.01105 361.9 14.3
349(10) 0.01028 362.0 14.4
358(10) 0.00971 362.0 14.5
348(10) 0.00977 362.0 14.7
377(10) 0.00917 362.0 14.8
396(10) 0.00931 362.0 15.0
371(10) 0.00962 362.0 15.1
366(10) 0.00952 362.1 15.3
390(11) 0.00856 362.1 15.4
365(10) 0.00963 362.1 15.6
360(10) 0.01033 362.1 15.8
377(10) 0.00938 362.1 15.9
413(11) 0.00809 362.1 16.0
379(10) 0.00909 362.2 16.2
402(11) 0.00873 362.2 16.3
395(10) 0.00941 362.2 16.4
387(11) 0.00888 362.2 16.5
373(11) 0.00885 362.2 16.5
409(11) 0.00813 362.2 16.5
366(10) 0.00973 362.3 16.5
385(10) 0.00964 362.3 16.5
384(10) 0.00909 362.3 16.5
357(10) 0.00940 362.3 16.5
356(10) 0.00967 362.3 16.4
370(10) 0.00959 362.3 16.3
379(10) 0.00982 362.4 16.2
389(11) 0.00868 362.4 16.1
374(11) 0.00896 362.4 16.0
346(10) 0.01038 362.4 15.9
371(10) 0.00991 362.4 15.8
407(11) 0.00896 362.4 15.7
370(10) 0.00957 362.5 15.6
384(11) 0.00856 362.5 15.5
376(10) 0.00938 362.5 15.4
369(10) 0.00995 362.5 15.3
371(10) 0.00992 362.5 15.2
364(10) 0.00989 362.5 15.2
371(11) 0.00840 362.6 15.1
339(10) 0.01041 362.6 15.2
342(10) 0.01084 362.6 15.2
363(10) 0.01028 362.6 15.2
378(10) 0.00937 362.6 15.2
398(11) 0.00798 362.7 15.3
365(10) 0.00959 362.7 15.4
356(10) 0.01039 362.7 15.5
356(10) 0.01036 362.7 15.6
377(10) 0.00912 362.7 15.7
378(11) 0.00852 362.7 15.9
370(10) 0.00934 362.8 16.0
354(10) 0.01049 362.8 16.2
379(10) 0.00961 362.8 16.4
384(11) 0.00900 362.8 16.5
355(10) 0.00933 362.8 16.7
364(10) 0.00932 362.8 16.9
324(9) 0.01133 362.9 17.1
406(11) 0.00867 362.9 17.2
364(10) 0.00959 362.9 17.4
388(11) 0.00865 362.9 17.6
404(11) 0.00854 362.9 17.8
384(10) 0.00964 362.9 18.0
357(10) 0.01003 363.0 18.3
378(11) 0.00884 363.0 18.7
383(11) 0.00902 363.0 19.2
381(11) 0.00902 363.0 20.0
364(10) 0.01021 363.0 21.0
381(11) 0.00902 363.0 22.5
378(11) 0.00879 363.1 24.5
380(10) 0.00929 363.1 27.2
384(10) 0.00947 363.1 30.7
385(10) 0.00959 363.1 35.1
374(11) 0.00894 363.1 40.4
401(11) 0.00824 363.1 46.7
399(11) 0.00837 363.2 53.7
397(11) 0.00904 363.2 61.1
402(10) 0.00928 363.2 68.4
409(11) 0.00871 363.2 74.8
419(11) 0.00781 363.2 79.2
423(11) 0.00799 363.3 80.9
420(11) 0.00877 363.3 79.3
440(11) 0.00842 363.3 74.8
392(11) 0.00900 363.3 68.4
387(11) 0.00866 363.3 61.0
383(11) 0.00901 363.3 53.4
397(10) 0.00935 363.4 46.3
389(10) 0.00933 363.4 39.9
367(10) 0.00972 363.4 34.5
389(11) 0.00825 363.4 30.0
391(11) 0.00884 363.4 26.5
363(10) 0.01028 363.4 23.8
361(10) 0.01016 363.5 21.9
392(11) 0.00823 363.5 20.7
372(11) 0.00840 363.5 20.0
360(10) 0.00969 363.5 19.8
375(10) 0.00970 363.5 20.0
353(10) 0.01056 363.5 20.5
377(10) 0.00914 363.6 21.4
376(11) 0.00854 363.6 22.6
378(10) 0.00934 363.6 24.1
392(10) 0.00947 363.6 25.9
401(10) 0.00911 363.6 28.0
379(10) 0.00933 363.6 30.4
360(10) 0.00956 363.7 32.9
375(10) 0.00930 363.7 35.6
412(11) 0.00903 363.7 38.4
432(11) 0.00837 363.7 41.0
419(11) 0.00823 363.7 43.4
409(11) 0.00821 363.7 45.5
391(11) 0.00897 363.8 46.9
390(10) 0.00959 363.8 47.6
397(10) 0.00916 363.8 47.6
409(11) 0.00854 363.8 46.9
401(11) 0.00835 363.8 45.8
388(10) 0.00923 363.8 44.3
406(10) 0.00909 363.9 42.6
373(10) 0.00963 363.9 40.9
420(11) 0.00808 363.9 39.3
406(11) 0.00835 363.9 37.9
379(10) 0.00957 363.9 36.7
372(10) 0.00993 364.0 35.8
408(11) 0.00881 364.0 35.0
388(11) 0.00878 364.0 34.6
396(11) 0.00845 364.0 34.3
406(11) 0.00904 364.0 34.2
368(10) 0.01003 364.0 34.3
409(11) 0.00821 364.1 34.5
386(11) 0.00871 364.1 34.7
409(11) 0.00827 364.1 35.0
387(10) 0.00941 364.1 35.2
399(10) 0.00921 364.1 35.4
363(10) 0.01016 364.1 35.5
370(11) 0.00890 364.2 35.5
387(11) 0.00867 364.2 35.3
380(10) 0.00976 364.2 35.0
391(10) 0.00959 364.2 34.4
379(10) 0.00936 364.2 33.7
382(11) 0.00826 364.2 32.9
373(11) 0.00899 364.3 32.0
374(10) 0.00988 364.3 30.9
380(10) 0.00971 364.3 29.8
397(11) 0.00889 364.3 28.6
361(11) 0.00888 364.3 27.4
379(10) 0.00918 364.3 26.1
361(10) 0.01022 364.4 24.9
375(10) 0.00996 364.4 23.7
364(10) 0.00976 364.4 22.5
386(11) 0.00840 364.4 21.4
385(11) 0.00873 364.4 20.3
355(10) 0.01054 364.4 19.2
375(10) 0.00957 364.5 18.2
374(10) 0.00917 364.5 17.3
393(11) 0.00843 364.5 16.4
362(10) 0.00955 364.5 15.6
372(10) 0.01006 364.5 14.8
353(10) 0.01045 364.6 14.1
359(10) 0.00990 364.6 13.5
369(10) 0.00915 364.6 12.9
378(11) 0.00900 364.6 12.4
343(10) 0.01088 364.6 12.0
373(10) 0.00958 364.6 11.6
370(10) 0.00941 364.7 11.2
374(10) 0.00911 364.7 10.9
340(10) 0.01046 364.7 10.6
348(10) 0.01070 364.7 10.4
345(10) 0.01058 364.7 10.2
370(11) 0.00905 364.7 10.0
337(10) 0.01026 364.8 9.9
337(10) 0.01030 364.8 9.8
336(10) 0.01097 364.8 9.8
353(10) 0.01001 364.8 9.7
353(10) 0.00951 364.8 9.7
345(10) 0.01004 364.8 9.7
379(10) 0.00952 364.9 9.8
340(10) 0.01086 364.9 9.9
362(10) 0.00968 364.9 9.9
341(10) 0.00981 364.9 10.1
366(11) 0.00903 364.9 10.2
377(10) 0.00962 364.9 10.3
376(10) 0.00987 365.0 10.5
361(10) 0.00986 365.0 10.7
376(11) 0.00860 365.0 10.8
379(11) 0.00902 365.0 11.0
385(10) 0.00936 365.0 11.2
347(10) 0.01072 365.0 11.5
356(10) 0.00949 365.1 11.7
355(10) 0.00917 365.1 11.9
370(10) 0.00945 365.1 12.1
344(10) 0.01068 365.1 12.3
366(10) 0.00995 365.1 12.5
356(10) 0.00957 365.1 12.7
373(11) 0.00849 365.2 12.9
375(10) 0.00916 365.2 13.1
374(10) 0.00987 365.1 13.3
393(10) 0.00924 365.1 13.4
351(10) 0.01023 365.0 13.5
361(10) 0.00929 364.9 13.6
396(11) 0.00862 364.9 13.7
378(10) 0.00990 364.8 13.7
366(10) 0.00985 364.8 13.7
344(10) 0.01012 364.7 13.6
373(11) 0.00841 364.7 13.6
342(10) 0.01016 364.6 13.5
366(10) 0.01017 364.6 13.4
368(10) 0.00969 364.5 13.2
364(10) 0.00929 364.4 13.1
364(10) 0.00911 364.4 12.9
373(11) 0.00900 364.3 12.7
373(10) 0.00987 364.3 12.5
360(10) 0.01013 364.2 12.4
370(10) 0.00948 364.2 12.2
381(11) 0.00895 364.1 12.0
354(10) 0.00993 364.0 11.8
380(10) 0.00984 364.0 11.6
361(10) 0.00979 363.9 11.4
385(11) 0.00871 363.9 11.3
368(10) 0.00946 363.8 11.1
351(10) 0.01012 363.8 11.0
335(9) 0.01111 363.7 10.9
362(10) 0.00958 363.7 10.8
378(11) 0.00892 363.6 10.7
352(10) 0.00992 363.5 10.6
385(11) 0.00900 363.5 10.6
362(10) 0.01027 363.4 10.6
363(10) 0.00963 363.4 10.6
351(10) 0.00968 363.3 10.6
348(10) 0.00997 363.3 10.6
378(10) 0.00956 363.2 10.7
328(9) 0.01126 363.1 10.9
354(10) 0.01011 363.1 11.0
373(11) 0.00903 363.0 11.2
364(10) 0.00937 363.0 11.5
357(10) 0.01043 362.9 11.8
383(10) 0.00975 362.9 12.2
389(11) 0.00897 362.8 12.7
376(11) 0.00883 362.7 13.2
378(10) 0.00922 362.7 13.9
343(10) 0.01078 362.6 14.7
384(10) 0.00971 362.6 15.7
389(11) 0.00874 362.5 16.8
358(10) 0.00930 362.5 18.3
388(10) 0.00914 362.4 20.0
384(10) 0.00967 362.4 22.2
416(11) 0.00893 362.3 24.8
391(11) 0.00897 362.2 28.0
390(11) 0.00855 362.2 31.9
410(11) 0.00857 362.1 36.4
444(11) 0.00843 362.1 41.8
427(11) 0.00841 362.0 48.0
416(11) 0.00846 362.0 55.6
459(12) 0.00702 361.9 65.2
462(12) 0.00750 361.8 78.1
500(12) 0.00749 361.8 96.1
499(12) 0.00733 361.7 121.1
543(13) 0.00633 361.7 153.9
566(13) 0.00589 361.6 193.7
629(14) 0.00533 361.6 237.2
671(13) 0.00555 361.5 277.9
679(14) 0.00536 361.5 306.1
655(14) 0.00528 361.4 312.1
618(13) 0.00552 361.3 293.2
602(13) 0.00578 361.3 256.0
546(12) 0.00677 361.2 210.9
499(12) 0.00704 361.2 166.2
492(12) 0.00697 361.1 127.2
449(12) 0.00744 361.1 95.9
417(11) 0.00842 361.0 72.7
419(11) 0.00892 360.9 56.7
419(11) 0.00841 360.9 46.1
431(11) 0.00802 360.8 39.4
419(11) 0.00840 360.8 35.3
386(10) 0.00938 360.7 32.8
373(10) 0.00990 360.7 31.2
398(11) 0.00854 360.6 30.3
378(10) 0.00915 360.6 29.8
409(11) 0.00828 360.5 29.5
384(10) 0.00947 360.4 29.5
424(11) 0.00878 360.4 29.7
418(11) 0.00829 360.3 30.0
373(10) 0.00912 360.3 30.4
387(10) 0.00909 360.2 31.0
391(10) 0.00925 360.2 31.7
401(10) 0.00927 360.1 32.4
393(11) 0.00881 360.0 33.2
419(11) 0.00786 360.0 34.1
407(11) 0.00855 359.9 35.0
361(10) 0.01004 359.9 36.0
378(10) 0.00976 359.8 37.0
405(11) 0.00850 359.8 38.0
362(10) 0.00923 359.7 39.0
376(10) 0.00912 359.7 40.1
401(10) 0.00927 359.6 41.1
389(10) 0.00942 359.5 42.1
381(10) 0.00928 359.5 43.1
393(11) 0.00825 359.4 44.0
386(10) 0.00918 359.4 44.9
430(11) 0.00860 359.3 45.7
375(10) 0.00988 359.3 46.4
390(11) 0.00906 359.2 47.1
399(11) 0.00843 359.1 47.6
375(10) 0.00937 359.1 48.1
399(10) 0.00930 359.0 48.4
400(10) 0.00932 359.0 48.7
388(11) 0.00896 358.9 48.8
389(11) 0.00863 358.9 48.9
418(11) 0.00832 358.8 48.8
410(11) 0.00904 358.8 48.7
383(10) 0.00944 358.7 48.6
400(11) 0.00856 358.6 48.3
407(11) 0.00802 358.6 48.1
420(11) 0.00822 358.5 47.8
404(10) 0.00926 358.5 47.6
434(11) 0.00823 358.4 47.3
408(11) 0.00850 358.4 47.2
401(11) 0.00834 358.3 47.1
389(11) 0.00897 358.2 47.0
385(10) 0.00974 358.2 47.2
394(11) 0.00891 358.1 47.4
391(11) 0.00887 358.1 47.9
400(11) 0.00872 358.0 48.6
393(10) 0.00909 358.0 49.5
395(10) 0.00935 357.9 50.6
392(11) 0.00883 357.9 52.1
426(11) 0.00793 357.8 54.0
438(11) 0.00788 357.7 56.1
453(11) 0.00794 357.7 58.7
421(11) 0.00885 357.6 61.7
448(11) 0.00773 357.6 65.0
465(12) 0.00722 357.5 68.8
456(11) 0.00767 357.5 72.9
455(11) 0.00797 357.4 77.3
465(11) 0.00795 357.3 82.1
486(12) 0.00727 357.3 87.1
502(12) 0.00644 357.2 92.2
478(12) 0.00737 357.2 97.2
507(12) 0.00719 357.1 102.1
525(12) 0.00712 357.1 106.6
504(12) 0.00691 357.0 110.4
505(13) 0.00634 357.0 113.4
482(12) 0.00729 356.9 115.3
504(12) 0.00730 356.8 116.0
497(12) 0.00742 356.8 115.5
479(12) 0.00719 356.7 113.7
492(12) 0.00653 356.7 110.9
496(12) 0.00700 356.6 107.1
445(11) 0.00834 356.6 102.7
455(11) 0.00815 356.5 97.9
452(11) 0.00792 356.4 92.8
470(12) 0.00688 356.4 87.6
453(12) 0.00753 356.3 82.5
413(11) 0.00892 356.3 77.6
452(11) 0.00818 356.2 72.9
426(11) 0.00777 356.2 68.5
425(11) 0.00761 356.1 64.5
417(11) 0.00846 356.1 60.7
426(11) 0.00872 356.0 57.4
448(11) 0.00800 355.9 54.3
413(11) 0.00826 355.9 51.6
401(11) 0.00839 355.8 49.2
408(11) 0.00819 355.8 47.2
407(10) 0.00919 355.7 45.3
416(11) 0.00861 355.7 43.7
426(11) 0.00792 355.6 42.4
421(11) 0.00803 355.5 41.2
441(11) 0.00790 355.5 40.2
404(10) 0.00916 355.4 39.4
385(10) 0.00930 355.4 38.7
402(11) 0.00831 355.3 38.2
401(11) 0.00866 355.3 37.8
425(11) 0.00850 355.2 37.6
390(10) 0.00951 355.2 37.4
386(11) 0.00893 355.1 37.5
373(11) 0.00893 355.0 37.7
383(10) 0.00912 355.0 38.1
403(11) 0.00888 354.9 38.8
418(11) 0.00884 354.9 39.7
427(11) 0.00767 354.8 41.0
439(12) 0.00718 354.8 42.7
408(11) 0.00858 354.7 44.8
434(11) 0.00833 354.6 47.5
420(11) 0.00876 354.6 50.8
426(11) 0.00811 354.5 54.8
413(11) 0.00814 354.5 59.5
403(11) 0.00886 354.4 64.9
424(11) 0.00869 354.4 71.1
489(12) 0.00754 354.3 78.1
456(11) 0.00757 354.2 85.7
480(12) 0.00667 354.2 94.0
472(12) 0.00739 354.1 102.6
501(12) 0.00734 354.1 111.4
500(12) 0.00745 354.0 120.0
529(12) 0.00653 354.0 127.9
500(13) 0.00639 353.9 134.5
516(12) 0.00668 353.9 139.4
518(12) 0.00712 353.8 142.1
509(12) 0.00713 353.7 142.2
546(13) 0.00634 353.7 139.7
527(13) 0.00632 353.6 134.9
530(12) 0.00661 353.6 128.0
501(12) 0.00722 353.5 119.8
484(12) 0.00746 353.5 110.6
476(12) 0.00737 353.4 101.1
450(12) 0.00735 353.3 91.5
442(11) 0.00793 353.3 82.2
428(11) 0.00854 353.2 73.5
423(11) 0.00840 353.2 65.3
417(11) 0.00817 353.1 57.9
387(11) 0.00859 353.1 51.3
406(11) 0.00846 353.0 45.5
385(10) 0.00948 353.0 40.4
371(10) 0.00998 352.9 35.9
373(10) 0.00930 352.8 32.1
396(11) 0.00835 352.8 28.9
384(10) 0.00910 352.7 26.2
381(10) 0.00973 352.7 23.8
374(10) 0.00950 352.6 21.9
374(10) 0.00945 352.6 20.2
392(11) 0.00858 352.5 18.8
399(11) 0.00893 352.4 17.6
386(10) 0.00969 352.4 16.6
380(10) 0.00927 352.3 15.6
365(10) 0.00917 352.3 14.8
354(10) 0.00937 352.2 14.1
384(11) 0.00902 352.2 13.5
349(10) 0.01071 352.1 12.9
351(10) 0.00975 352.1 12.4
336(10) 0.01041 352.0 12.0
366(10) 0.00969 351.9 11.6
384(10) 0.00942 351.9 11.2
348(10) 0.01073 351.8 10.9
355(10) 0.00923 351.8 10.5
361(11) 0.00889 351.7 10.3
380(10) 0.00919 351.7 10.0
388(10) 0.00939 351.6 9.8
364(10) 0.01033 351.5 9.6
373(10) 0.00932 351.5 9.5
357(11) 0.00896 351.4 9.3
357(10) 0.00953 351.4 9.2
346(10) 0.01063 351.3 9.1
353(10) 0.01045 351.3 9.0
356(10) 0.00996 351.2 9.0
340(10) 0.00963 351.2 8.9
355(10) 0.01025 351.1 8.9
354(10) 0.01045 351.0 8.9
380(10) 0.00973 351.0 9.0
356(10) 0.01004 350.9 9.0
370(11) 0.00872 350.9 9.0
355(10) 0.00967 350.8 9.1
354(10) 0.01054 350.8 9.1
337(10) 0.01089 350.7 9.2
372(10) 0.00909 350.6 9.2
374(11) 0.00861 350.6 9.3
377(10) 0.00934 350.5 9.3
367(10) 0.01018 350.5 9.3
396(10) 0.00930 350.4 9.3
377(11) 0.00894 350.4 9.3
356(10) 0.00927 350.3 9.3
352(10) 0.00992 350.3 9.2
369(10) 0.01008 350.2 9.2
360(10) 0.00981 350.1 9.1
375(10) 0.00941 350.1 9.0
353(10) 0.00965 350.0 8.9
349(10) 0.01007 350.0 8.8
350(10) 0.01062 349.9 8.7
331(10) 0.01106 349.9 8.6
362(10) 0.00944 349.8 8.5
381(10) 0.00911 349.7 8.3
359(10) 0.00999 349.7 8.2
360(10) 0.01026 349.6 8.0
338(10) 0.01051 349.6 7.8
373(10) 0.00920 349.5 7.7
343(10) 0.00992 349.5 7.5
355(10) 0.01007 349.4 7.3
363(10) 0.01028 349.4 7.1
335(10) 0.01065 349.3 6.9
379(11) 0.00869 349.2 6.7
352(10) 0.00985 349.2 6.5
342(10) 0.01075 349.1 6.3
363(10) 0.01021 349.1 6.2
359(10) 0.00963 349.0 6.0
364(10) 0.00923 349.0 5.8
345(10) 0.00993 348.9 5.6
356(10) 0.00994 348.8 5.5
345(10) 0.01089 348.8 5.3
333(10) 0.01059 348.7 5.2
345(10) 0.00943 348.7 5.0
337(10) 0.01057 348.6 4.9
329(9) 0.01131 348.6 4.8
350(10) 0.01068 348.5 4.7
338(10) 0.01001 348.5 4.6
323(10) 0.01034 348.4 4.4
370(10) 0.00940 348.3 4.4
340(9) 0.01110 348.3 4.3
369(10) 0.00985 348.2 4.2
333(10) 0.01066 348.2 4.1
329(10) 0.00970 348.1 4.0
343(10) 0.01031 348.1 4.0
369(10) 0.01013 348.0 3.9
368(10) 0.01015 347.9 3.8
358(10) 0.00979 347.9 3.8
353(10) 0.00941 347.8 3.7
362(10) 0.00970 347.8 3.7
365(10) 0.01019 347.7 3.6
361(10) 0.01011 347.7 3.6
331(10) 0.01083 347.6 3.6
344(10) 0.00958 347.6 3.5
331(10) 0.01061 347.5 3.5
359(10) 0.01038 347.4 3.5
363(10) 0.00988 347.4 3.4
367(10) 0.00918 347.3 3.4
347(10) 0.01004 347.3 3.4
372(10) 0.00938 347.2 3.4
368(10) 0.01011 347.2 3.3
363(10) 0.00986 347.1 3.3
354(10) 0.00956 347.0 3.3
337(10) 0.01021 347.0 3.3
331(10) 0.01084 346.9 3.3
364(10) 0.01032 346.9 3.3
334(10) 0.01058 346.8 3.3
317(10) 0.01077 346.8 3.3
361(10) 0.00971 346.7 3.3
361(10) 0.00976 346.6 3.3
354(10) 0.01055 346.6 3.3
353(10) 0.00979 346.5 3.3
330(10) 0.01033 346.5 3.3
333(10) 0.01054 346.5 3.3
333(10) 0.01067 346.5 3.3
389(10) 0.00946 346.5 3.3
381(10) 0.00935 346.5 3.3
369(10) 0.00921 346.5 3.3
362(10) 0.00984 346.5 3.3
362(10) 0.01018 346.5 3.3
360(10) 0.01027 346.5 3.3
341(10) 0.00985 346.5 3.3
340(10) 0.00945 346.5 3.3
323(10) 0.01086 346.5 3.3
353(10) 0.01026 346.5 3.3
344(10) 0.01087 346.5 3.3
351(10) 0.01000 346.5 3.4
377(11) 0.00859 346.5 3.4
351(10) 0.00992 346.5 3.4
361(10) 0.01025 346.5 3.4
346(10) 0.01080 346.5 3.4
367(10) 0.00958 346.5 3.5
359(11) 0.00900 346.5 3.5
371(10) 0.00935 346.5 3.5
360(10) 0.01026 346.5 3.5
349(10) 0.01060 346.5 3.6
370(10) 0.00947 346.5 3.6
337(10) 0.00971 346.5 3.6
352(10) 0.00974 346.5 3.7
347(10) 0.01075 346.5 3.7
353(10) 0.01048 346.5 3.8
363(10) 0.00965 346.4 3.8
354(10) 0.00935 346.4 3.8
332(10) 0.01017 346.4 3.9
345(10) 0.01073 346.4 3.9
357(10) 0.01009 346.4 4.0
337(10) 0.01064 346.4 4.0
342(10) 0.00986 346.4 4.1
324(10) 0.01060 346.4 4.2
375(10) 0.00985 346.4 4.2
357(10) 0.01017 346.4 4.3
350(10) 0.00990 346.4 4.4
370(11) 0.00904 346.4 4.4
349(10) 0.00984 346.4 4.5
359(10) 0.01043 346.4 4.6
362(10) 0.01020 346.4 4.7
364(10) 0.00954 346.4 4.8
347(10) 0.01002 346.4 4.8
354(10) 0.01008 346.4 4.9
342(10) 0.01085 346.4 5.0
347(10) 0.01011 346.4 5.2
377(11) 0.00874 346.4 5.3
338(10) 0.01045 346.4 5.4
334(10) 0.01099 346.4 5.5
353(10) 0.01055 346.4 5.6
362(10) 0.00955 346.4 5.8
375(11) 0.00900 346.4 5.9
364(10) 0.00980 346.4 6.1
334(10) 0.01089 346.4 6.2
354(10) 0.01042 346.4 6.4
371(10) 0.00949 346.4 6.6
340(10) 0.00985 346.4 6.8
354(10) 0.00969 346.4 7.0
364(10) 0.00972 346.4 7.2
352(10) 0.01073 346.4 7.4
371(10) 0.00967 346.4 7.6
367(10) 0.00910 346.4 7.9
363(10) 0.00948 346.4 8.2
388(10) 0.00958 346.4 8.5
360(10) 0.01033 346.4 8.8
345(10) 0.01018 346.4 9.1
334(10) 0.01014 346.4 9.5
361(10) 0.00941 346.4 9.9
361(10) 0.01029 346.4 10.3
363(10) 0.01026 346.4 10.8
354(10) 0.00983 346.4 11.2
375(11) 0.00841 346.4 11.8
350(10) 0.00981 346.4 12.3
357(10) 0.01032 346.4 12.9
365(10) 0.00998 346.4 13.6
361(10) 0.00967 346.4 14.3
355(10) 0.00920 346.4 15.0
336(10) 0.01027 346.4 15.9
359(10) 0.01039 346.4 16.7
364(10) 0.01016 346.4 17.6
355(10) 0.00987 346.4 18.6
337(10) 0.00959 346.4 19.7
363(10) 0.00954 346.4 20.8
350(10) 0.01063 346.4 22.0
360(10) 0.00998 346.4 23.3
348(10) 0.00988 346.4 24.6
367(11) 0.00901 346.4 26.0
374(10) 0.00956 346.4 27.5
374(10) 0.00987 346.4 29.1
392(10) 0.00909 346.4 30.7
398(11) 0.00857 346.4 32.4
381(10) 0.00913 346.4 34.1
380(10) 0.00947 346.4 35.9
396(10) 0.00941 346.4 37.7
392(11) 0.00905 346.4 39.6
386(11) 0.00877 346.4 41.5
394(11) 0.00867 346.4 43.4
391(10) 0.00913 346.3 45.3
393(10) 0.00947 346.3 47.2
421(11) 0.00818 346.3 49.1
421(11) 0.00772 346.3 50.9
378(10) 0.00911 346.3 52.6
384(10) 0.00959 346.3 54.2
411(11) 0.00904 346.3 55.7
407(11) 0.00833 346.3 57.1
402(11) 0.00834 346.3 58.2
382(11) 0.00891 346.3 59.2
386(10) 0.00946 346.3 59.9
385(10) 0.00957 346.3 60.4
404(11) 0.00827 346.3 60.6
391(11) 0.00791 346.3 60.5
405(11) 0.00843 346.3 60.2
385(10) 0.00958 346.3 59.6
398(10) 0.00938 346.3 58.8
403(11) 0.00850 346.3 57.8
401(11) 0.00757 346.3 56.6
386(11) 0.00882 346.3 55.2
389(10) 0.00957 346.3 53.6
416(11) 0.00887 346.3 51.9
369(10) 0.00926 346.3 50.2
400(11) 0.00778 346.3 48.3
405(11) 0.00867 346.3 46.4
374(10) 0.01001 346.3 44.5
390(10) 0.00924 346.3 42.5
352(10) 0.01034 346.3 40.7
394(11) 0.00827 346.3 38.8
380(10) 0.00907 346.3 36.9
380(10) 0.00985 346.3 35.0
376(10) 0.00993 346.3 33.2
354(10) 0.00979 346.3 31.5
371(11) 0.00886 346.3 29.8
376(10) 0.00922 346.3 28.2
358(10) 0.01023 346.3 26.6
351(10) 0.01018 346.3 25.2
364(10) 0.00956 346.3 23.8
363(10) 0.00948 346.3 22.4
373(10) 0.00923 346.3 21.2
351(10) 0.01058 346.3 20.0
379(10) 0.00911 346.3 18.9
350(10) 0.01007 346.3 17.8
371(10) 0.00919 346.3 16.9
348(10) 0.01005 346.3 15.9
347(10) 0.01067 346.3 15.1
364(10) 0.00921 346.3 14.3
347(10) 0.00953 346.3 13.6
351(10) 0.00955 346.3 12.9
371(10) 0.00973 346.3 12.3
360(10) 0.01026 346.3 11.7
338(10) 0.01033 346.3 11.2
343(10) 0.01049 346.3 10.7
366(10) 0.00943 346.3 10.3
335(10) 0.01087 346.3 9.8
371(10) 0.01000 346.3 9.5
372(10) 0.00921 346.3 9.1
355(11) 0.00896 346.3 8.8
352(10) 0.00933 346.3 8.5
347(10) 0.01051 346.3 8.3
341(10) 0.01096 346.3 8.0
339(10) 0.01018 346.3 7.8
378(11) 0.00855 346.3 7.6
364(10) 0.00941 346.3 7.5
325(9) 0.01142 346.3 7.3
335(9) 0.01111 346.3 7.2
331(10) 0.01019 346.3 7.0
364(11) 0.00895 346.3 6.9
357(10) 0.00976 346.3 6.8
320(9) 0.01180 346.3 6.7
358(10) 0.01023 346.3 6.7
333(10) 0.01018 346.3 6.6
335(10) 0.00913 346.2 6.5
345(10) 0.00985 346.2 6.5
375(10) 0.00987 346.2 6.5
366(10) 0.00982 346.2 6.4
356(10) 0.00950 346.2 6.4
363(10) 0.00910 346.2 6.4
343(10) 0.01037 346.2 6.4
358(10) 0.01024 346.2 6.5
387(10) 0.00957 346.2 6.5
364(10) 0.00949 346.2 6.5
358(10) 0.00915 346.2 6.6
345(10) 0.01015 346.2 6.7
358(10) 0.01037 346.2 6.8
374(10) 0.00947 346.2 6.9
353(10) 0.00927 346.2 7.0
350(10) 0.00989 346.2 7.2
384(11) 0.00888 346.2 7.4
366(10) 0.01010 346.2 7.6
337(10) 0.01054 346.2 7.8
358(10) 0.00920 346.2 8.1
386(11) 0.00848 346.2 8.5
363(10) 0.00992 346.2 8.8
359(10) 0.01027 346.2 9.3
329(10) 0.01087 346.2 9.8
386(11) 0.00858 346.2 10.4
383(11) 0.00880 346.2 11.0
368(10) 0.00978 346.2 11.8
359(10) 0.01031 346.2 12.7
371(10) 0.00947 346.2 13.9
409(11) 0.00812 346.2 15.4
370(10) 0.00942 346.2 17.6
378(10) 0.00966 346.2 20.9
397(10) 0.00941 346.2 26.2
389(10) 0.00930 346.2 34.5
427(11) 0.00793 346.2 46.7
388(10) 0.00908 346.2 63.3
461(11) 0.00773 346.2 83.5
494(11) 0.00761 346.2 104.8
472(12) 0.00733 346.2 122.8
459(12) 0.00722 346.2 131.6
456(11) 0.00758 346.2 127.7
404(11) 0.00901 346.2 113.3
426(11) 0.00871 346.2 94.0
410(11) 0.00819 346.2 74.9
388(11) 0.00816 346.2 58.9
383(11) 0.00901 346.2 47.1
399(10) 0.00920 346.2 39.4
370(10) 0.01014 346.2 34.7
404(11) 0.00886 346.2 32.1
388(11) 0.00835 346.2 30.8
398(11) 0.00877 346.2 30.0
401(10) 0.00922 346.2 29.4
387(10) 0.00923 346.2 28.8
417(11) 0.00825 346.2 28.1
395(11) 0.00843 346.2 27.2
385(11) 0.00881 346.2 26.2
396(10) 0.00942 346.2 25.2
374(10) 0.00979 346.2 24.0
392(11) 0.00873 346.2 22.9
375(11) 0.00892 346.2 21.7
373(10) 0.00938 346.2 20.6
362(10) 0.01022 346.2 19.5
389(10) 0.00943 346.2 18.4
387(11) 0.00876 346.2 17.4
391(11) 0.00796 346.2 16.5
368(11) 0.00906 346.2 15.5
367(10) 0.01005 346.2 14.7
374(10) 0.00989 346.2 13.8
384(10) 0.00907 346.2 13.1
366(10) 0.00921 346.2 12.4
385(10) 0.00909 346.2 11.7
326(9) 0.01149 346.1 11.1
361(10) 0.00972 346.1 10.5
349(10) 0.00991 346.1 9.9
359(10) 0.00957 346.1 9.4
359(10) 0.00958 346.1 9.0
327(9) 0.01124 346.1 8.6
349(10) 0.01007 346.1 8.2
345(10) 0.00938 346.1 7.9
343(10) 0.00978 346.1 7.6
364(10) 0.01004 346.1 7.3
334(9) 0.01110 346.1 7.1
343(10) 0.00977 346.1 6.9
360(10) 0.00935 346.1 6.7
344(10) 0.01044 346.1 6.5
359(10) 0.00999 346.1 6.3
328(9) 0.01138 346.1 6.2
322(10) 0.01076 346.1 6.1
345(10) 0.00955 346.1 6.0
364(10) 0.00937 346.1 5.9
338(10) 0.01079 346.1 5.8
335(9) 0.01109 346.1 5.8
359(10) 0.00975 346.1 5.7
348(11) 0.00903 346.1 5.7
352(10) 0.00955 346.1 5.6
347(10) 0.01077 346.1 5.6
338(10) 0.01075 346.1 5.6
332(10) 0.01053 346.1 5.6
367(11) 0.00847 346.1 5.6
356(10) 0.00952 346.1 5.6
365(10) 0.01002 346.1 5.6
367(10) 0.01008 346.1 5.7
352(10) 0.00955 346.1 5.7
332(10) 0.00988 346.1 5.8
335(10) 0.01026 346.1 5.8
337(10) 0.01091 346.1 5.9
353(10) 0.01045 346.1 6.0
342(10) 0.01047 346.1 6.1
349(10) 0.00931 346.1 6.2
311(10) 0.01105 346.1 6.3
362(10) 0.01035 346.1 6.5
339(10) 0.01065 346.1 6.6
345(10) 0.01002 346.1 6.8
361(10) 0.00943 346.1 7.1
356(10) 0.00988 346.1 7.3
348(10) 0.01063 346.1 7.6
374(10) 0.00950 346.1 8.0
362(10) 0.00933 346.1 8.5
357(10) 0.00932 346.1 9.0
333(10) 0.01046 346.1 9.7
359(10) 0.01033 346.1 10.5
357(10) 0.01003 346.1 11.4
340(10) 0.00991 346.1 12.4
354(10) 0.00930 346.1 13.5
370(10) 0.00975 346.1 14.8
334(9) 0.01125 346.1 16.0
368(10) 0.00960 346.1 17.3
336(10) 0.01033 346.1 18.4
358(10) 0.00927 346.1 19.4
380(10) 0.00940 346.1 20.1
403(10) 0.00918 346.1 20.4
331(10) 0.01074 346.1 20.4
358(10) 0.00944 346.1 20.0
369(10) 0.00937 346.1 19.5
350(10) 0.01020 346.1 18.9
358(10) 0.01041 346.1 18.3
364(10) 0.00966 346.1 17.7
356(10) 0.00942 346.1 17.2
364(10) 0.00946 346.1 16.8
379(10) 0.00975 346.1 16.5
375(10) 0.00987 346.1 16.3
351(10) 0.00980 346.1 16.2
423(12) 0.00732 346.0 16.2
374(10) 0.00953 346.0 16.3
366(10) 0.01028 346.0 16.5
365(10) 0.01010 346.0 16.7
363(10) 0.00951 346.0 16.9
393(11) 0.00787 346.0 17.2
353(10) 0.00955 346.0 17.5
398(10) 0.00925 346.0 17.8
379(10) 0.00984 346.0 18.1
365(10) 0.00951 346.0 18.4
393(11) 0.00825 346.0 18.7
361(10) 0.00977 346.0 18.9
322(9) 0.01168 346.0 19.1
333(10) 0.01101 346.0 19.2
368(10) 0.00936 346.0 19.1
361(10) 0.00916 346.0 19.0
348(10) 0.01007 346.0 18.9
375(10) 0.00977 346.0 18.6
376(10) 0.00982 346.0 18.4
357(10) 0.00960 346.0 18.2
357(10) 0.00929 346.0 18.0
357(10) 0.00926 346.0 17.9
368(10) 0.01012 346.0 17.7
363(10) 0.00986 346.0 17.6
377(11) 0.00899 346.0 17.6
377(11) 0.00890 346.0 17.6
361(10) 0.00951 346.0 17.6
340(10) 0.01088 346.0 17.7
353(10) 0.01008 346.0 17.8
380(11) 0.00885 346.0 17.9
386(11) 0.00893 346.0 18.1
382(10) 0.00931 346.0 18.3
362(10) 0.01027 346.0 18.5
372(10) 0.00949 346.0 18.8
390(11) 0.00854 346.0 19.1
376(10) 0.00915 346.0 19.5
373(10) 0.00981 346.0 19.8
392(10) 0.00941 346.0 20.3
353(10) 0.01014 346.0 20.8
357(10) 0.00960 346.0 21.3
363(10) 0.00967 346.0 22.0
361(10) 0.01004 346.0 22.7
356(10) 0.01041 346.0 23.7
362(10) 0.00954 346.0 25.0
391(11) 0.00842 346.0 27.0
407(11) 0.00833 346.0 29.9
370(10) 0.00985 346.0 34.3
376(10) 0.00991 346.0 40.4
406(11) 0.00851 346.0 48.4
403(11) 0.00809 346.0 57.8
402(11) 0.00890 346.0 67.2
410(11) 0.00907 346.0 74.5
417(11) 0.00889 346.0 77.4
397(11) 0.00863 346.0 75.0
416(12) 0.00751 346.0 68.9
400(11) 0.00874 346.0 61.5
423(11) 0.00879 346.0 54.9
421(11) 0.00874 346.0 49.9
403(11) 0.00888 346.0 47.0
379(11) 0.00892 346.0 45.8
399(11) 0.00868 346.0 46.0
409(11) 0.00898 346.0 46.9
422(11) 0.00876 346.0 48.1
421(11) 0.00807 346.0 49.2
399(11) 0.00823 346.0 50.1
404(11) 0.00853 346.0 50.7
411(11) 0.00905 346.0 51.2
425(11) 0.00882 346.0 51.5
407(11) 0.00849 346.0 51.8
398(11) 0.00842 346.0 51.9
380(11) 0.00900 346.0 51.9
412(10) 0.00911 346.0 51.8
407(11) 0.00867 345.9 51.5
382(11) 0.00890 345.9 51.2
395(11) 0.00826 345.9 50.7
404(11) 0.00855 345.9 50.0
371(10) 0.01005 345.9 49.2
408(11) 0.00866 345.9 48.1
407(11) 0.00901 345.9 47.0
385(10) 0.00932 345.9 45.6
390(10) 0.00921 345.9 44.3
391(10) 0.00940 345.9 42.9
385(10) 0.00912 345.9 41.5
400(11) 0.00866 345.9 40.3
398(11) 0.00862 345.9 39.2
369(10) 0.00975 345.9 38.4
379(10) 0.00981 345.9 38.0
372(10) 0.00960 345.9 38.0
406(11) 0.00817 345.9 38.5
372(10) 0.00934 345.9 39.7
350(10) 0.01051 345.9 41.4
370(10) 0.00997 345.9 43.8
390(11) 0.00855 345.9 46.8
372(11) 0.00888 345.9 50.0
379(10) 0.00952 345.9 53.3
431(11) 0.00848 345.9 56.1
399(10) 0.00931 345.9 57.8
383(10) 0.00923 345.9 57.8
403(11) 0.00803 345.9 56.1
361(10) 0.00956 345.9 52.8
388(10) 0.00960 345.9 48.5
378(10) 0.00981 345.9 43.9
370(10) 0.00983 345.9 39.4
375(11) 0.00870 345.9 35.1
363(10) 0.00978 345.9 31.4
388(10) 0.00953 345.9 28.3
367(10) 0.01003 345.9 25.7
370(10) 0.00928 345.9 23.6
372(11) 0.00870 345.9 22.0
354(10) 0.00996 345.9 20.7
369(10) 0.01005 345.9 19.7
370(10) 0.00978 345.9 19.0
373(10) 0.00949 345.9 18.4
377(11) 0.00855 345.9 17.9
374(10) 0.00943 345.9 17.6
376(10) 0.00996 345.9 17.3
338(10) 0.01081 345.9 17.0
352(10) 0.00992 345.9 16.9
391(11) 0.00859 345.9 16.7
357(10) 0.00990 345.9 16.7
341(10) 0.01092 345.9 16.6
349(10) 0.01054 345.9 16.7
374(11) 0.00885 345.9 16.8
377(11) 0.00818 345.9 17.0
345(10) 0.00973 345.9 17.4
377(10) 0.00994 345.9 18.0
379(10) 0.00959 345.9 19.0
365(10) 0.00939 345.9 20.4
379(11) 0.00871 345.9 22.4
372(10) 0.00943 345.9 25.1
392(10) 0.00942 345.9 28.7
384(10) 0.00937 345.9 33.1
409(11) 0.00821 345.9 38.1
395(11) 0.00877 345.9 43.4
411(11) 0.00859 345.9 48.2
404(10) 0.00914 345.9 51.6
402(11) 0.00856 345.9 52.6
394(11) 0.00840 345.9 50.9
391(11) 0.00875 345.9 47.1
392(10) 0.00923 345.9 42.3
383(10) 0.00981 345.9 37.4
376(10) 0.00924 345.9 32.9
367(10) 0.00910 345.9 29.1
371(10) 0.00941 345.8 26.2
400(10) 0.00909 345.8 24.1
374(10) 0.00998 345.8 22.7
368(11) 0.00881 345.8 21.9
357(11) 0.00906 345.8 21.4
362(10) 0.00957 345.8 21.2
365(10) 0.01011 345.8 21.2
341(10) 0.01084 345.8 21.3
370(10) 0.00947 345.8 21.5
395(11) 0.00811 345.8 21.7
356(10) 0.00947 345.8 22.0
338(9) 0.01111 345.8 22.3
348(10) 0.01062 345.8 22.7
345(10) 0.01017 345.8 23.0
356(10) 0.00943 345.8 23.4
353(10) 0.01022 345.8 23.8
396(10) 0.00939 345.8 24.1
364(10) 0.01030 345.8 24.5
343(10) 0.01007 345.8 24.8
342(10) 0.00954 345.8 25.1
346(10) 0.00967 345.8 25.4
364(10) 0.01021 345.8 25.7
363(10) 0.01009 345.8 25.9
361(10) 0.00969 345.8 26.1
363(11) 0.00883 345.8 26.3
351(10) 0.00967 345.8 26.5
386(10) 0.00945 345.8 26.6
373(10) 0.00997 345.8 26.7
330(10) 0.01104 345.8 26.8
325(10) 0.01046 345.8 26.9
344(10) 0.01019 345.8 26.9
344(10) 0.01086 345.8 26.9
377(10) 0.00969 345.8 27.0
363(10) 0.00947 345.8 27.0
368(11) 0.00899 345.8 27.0
379(11) 0.00883 345.8 27.0
357(10) 0.01039 345.8 27.0
326(9) 0.01112 345.8 27.0
364(10) 0.00973 345.8 27.0
361(10) 0.01002 345.8 27.0
354(10) 0.01014 345.8 27.0
347(10) 0.01073 345.8 27.0
357(10) 0.01024 345.8 27.0
382(11) 0.00881 345.8 27.0
355(10) 0.00989 345.8 26.9
370(10) 0.00985 345.8 26.9
368(10) 0.01009 345.8 26.9
354(10) 0.00973 345.8 26.8
358(10) 0.00940 345.8 26.8
376(11) 0.00905 345.8 26.8
378(10) 0.00950 345.8 26.7
362(10) 0.01020 345.8 26.6
379(11) 0.00904 345.8 26.6
381(11) 0.00872 345.8 26.5
375(10) 0.00944 345.8 26.5
409(11) 0.00885 345.8 26.4
387(10) 0.00958 345.8 26.4
367(10) 0.00992 345.8 26.3
385(11) 0.00869 345.8 26.3
349(10) 0.01015 345.8 26.2
374(10) 0.00967 345.8 26.2
357(10) 0.01034 345.8 26.2
354(10) 0.01022 345.8 26.2
391(11) 0.00816 345.8 26.2
389(11) 0.00860 345.8 26.2
340(10) 0.01101 345.8 26.2
387(10) 0.00932 345.8 26.3
380(10) 0.00919 345.8 26.4
355(10) 0.00935 345.8 26.5
362(10) 0.00986 345.8 26.7
364(10) 0.01015 345.8 26.9
359(10) 0.01038 345.7 27.1
385(11) 0.00891 345.7 27.3
380(11) 0.00847 345.7 27.6
354(10) 0.00991 345.7 28.0
351(10) 0.01057 345.7 28.4
381(10) 0.00960 345.7 28.8
376(11) 0.00907 345.7 29.3
385(11) 0.00856 345.7 29.8
363(10) 0.00941 345.7 30.4
364(10) 0.01017 345.7 31.0
394(10) 0.00926 345.7 31.6
393(11) 0.00904 345.7 32.3
370(10) 0.00957 345.7 33.1
389(10) 0.00916 345.7 33.8
385(10) 0.00972 345.7 34.6
347(10) 0.01026 345.7 35.4
369(10) 0.00912 345.7 36.2
386(11) 0.00872 345.7 37.0
394(10) 0.00912 345.7 37.7
403(10) 0.00925 345.7 38.3
379(10) 0.00971 345.7 38.8
371(10) 0.00908 345.7 39.2
397(11) 0.00854 345.7 39.4
409(11) 0.00887 345.7 39.5
392(10) 0.00949 345.7 39.4
372(11) 0.00906 345.7 39.1
387(11) 0.00859 345.7 38.7
393(11) 0.00872 345.7 38.1
384(10) 0.00953 345.7 37.5
394(10) 0.00937 345.7 36.7
361(10) 0.00982 345.7 36.0
370(10) 0.00919 345.7 35.2
408(11) 0.00825 345.7 34.4
362(10) 0.01024 345.7 33.6
370(10) 0.00999 345.7 32.9
386(11) 0.00878 345.7 32.2
376(11) 0.00868 345.7 31.5
393(11) 0.00876 345.7 30.9
393(10) 0.00952 345.7 30.4
366(10) 0.01015 345.7 29.9
397(11) 0.00848 345.7 29.4
365(11) 0.00868 345.7 29.1
360(10) 0.00985 345.7 28.8
377(10) 0.00989 345.7 28.5
384(10) 0.00967 345.7 28.3
382(10) 0.00915 345.7 28.2
381(11) 0.00833 345.7 28.1
372(10) 0.00934 345.7 28.1
357(10) 0.01049 345.7 28.1
369(10) 0.01000 345.7 28.2
377(10) 0.00935 345.7 28.3
376(11) 0.00882 345.7 28.4
378(10) 0.00936 345.7 28.5
368(10) 0.01004 345.7 28.7
362(10) 0.01015 345.7 28.9
364(10) 0.00955 345.7 29.1
384(11) 0.00850 345.7 29.4
358(10) 0.00962 345.7 29.6
362(10) 0.01028 345.7 29.9
394(10) 0.00935 345.7 30.1
424(11) 0.00767 345.7 30.4
381(11) 0.00901 345.7 30.6
384(10) 0.00919 345.7 30.9
365(10) 0.01015 345.7 31.2
373(10) 0.00939 345.7 31.4
407(11) 0.00848 345.7 31.7
367(10) 0.00955 345.7 32.0
367(10) 0.00990 345.7 32.2
396(10) 0.00946 345.7 32.5
373(10) 0.00945 345.7 32.8
381(11) 0.00905 345.7 33.1
360(10) 0.00970 345.7 33.4
379(10) 0.00927 345.6 33.6
367(10) 0.01018 345.6 33.9
392(11) 0.00881 345.6 34.2
401(11) 0.00817 345.6 34.4
382(11) 0.00877 345.6 34.6
406(11) 0.00872 345.6 34.9
375(10) 0.00989 345.6 35.0
406(11) 0.00873 345.6 35.2
399(11) 0.00851 345.6 35.4
403(11) 0.00832 345.6 35.5
372(10) 0.00975 345.6 35.6
388(10) 0.00954 345.6 35.6
377(10) 0.00916 345.6 35.7
397(11) 0.00814 345.6 35.7
411(11) 0.00851 345.6 35.7
404(11) 0.00888 345.6 35.6
376(10) 0.01001 345.6 35.6
384(11) 0.00881 345.6 35.5
396(11) 0.00822 345.6 35.4
383(10) 0.00925 345.6 35.3
417(11) 0.00886 345.6 35.2
389(10) 0.00939 345.6 35.1
395(11) 0.00898 345.6 35.0
379(11) 0.00874 345.6 34.9
395(11) 0.00889 345.6 34.9
371(10) 0.01000 345.6 34.8
369(10) 0.01004 345.6 34.9
379(10) 0.00921 345.6 34.9
373(11) 0.00875 345.6 35.1
380(11) 0.00886 345.6 35.3
375(10) 0.00984 345.6 35.6
378(10) 0.00990 345.6 36.0
380(10) 0.00926 345.6 36.5
366(11) 0.00893 345.6 37.2
376(10) 0.00928 345.6 38.1
373(10) 0.01005 345.6 39.1
363(10) 0.01019 345.6 40.4
391(11) 0.00894 345.6 41.9
394(11) 0.00851 345.6 43.7
407(11) 0.00824 345.6 45.8
362(10) 0.01028 345.6 48.1
391(10) 0.00941 345.6 50.8
378(10) 0.00923 345.6 53.7
400(11) 0.00820 345.6 56.8
380(11) 0.00902 345.6 60.1
366(10) 0.01030 345.6 63.6
423(11) 0.00801 345.6 67.1
424(11) 0.00826 345.6 70.5
419(11) 0.00814 345.6 73.8
402(11) 0.00884 345.6 76.6
387(10) 0.00967 345.6 78.9
416(11) 0.00848 345.6 80.3
401(11) 0.00867 345.6 80.8
399(11) 0.00873 345.6 80.1
436(11) 0.00786 345.6 78.4
422(11) 0.00881 345.6 75.8
436(11) 0.00813 345.6 72.3
405(11) 0.00848 345.6 68.4
380(10) 0.00919 345.6 64.1
367(10) 0.00995 345.6 59.7
416(11) 0.00891 345.6 55.4
404(11) 0.00856 345.6 51.2
377(11) 0.00889 345.6 47.2
376(10) 0.00940 345.6 43.6
361(10) 0.00994 345.6 40.3
379(10) 0.00973 345.6 37.3
391(11) 0.00886 345.6 34.6
367(10) 0.00921 345.6 32.3
379(10) 0.00935 345.6 30.2
369(10) 0.00998 345.6 28.5
386(10) 0.00938 345.6 27.0
380(10) 0.00945 345.5 25.7
375(11) 0.00843 345.5 24.7
364(10) 0.00946 345.5 23.8
366(10) 0.01031 345.5 23.0
354(10) 0.01033 345.5 22.4
333(10) 0.01050 345.5 21.9
351(10) 0.00925 345.5 21.5
360(10) 0.00971 345.5 21.1
358(10) 0.01054 345.5 20.8
379(10) 0.00973 345.5 20.6
394(11) 0.00858 345.5 20.4
373(11) 0.00877 345.5 20.2
356(10) 0.00985 345.5 20.1
344(10) 0.01079 345.5 20.0
364(10) 0.00988 345.5 19.9
363(10) 0.00949 345.5 19.8
349(10) 0.00975 345.5 19.7
356(10) 0.00956 345.5 19.7
337(10) 0.01097 345.5 19.6
361(10) 0.01000 345.5 19.6
363(10) 0.00951 345.5 19.5
362(10) 0.00974 345.5 19.5
373(10) 0.00937 345.5 19.4
359(10) 0.01039 345.5 19.4
381(10) 0.00935 345.5 19.3
364(10) 0.00942 345.5 19.2
372(10) 0.00928 345.5 19.2
374(10) 0.00931 345.5 19.1
359(10) 0.01036 345.5 19.0
341(10) 0.01031 345.5 18.8
378(11) 0.00880 345.5 18.7
384(11) 0.00877 345.5 18.6
360(10) 0.01003 345.5 18.4
342(10) 0.01099 345.5 18.2
376(10) 0.00926 345.5 18.0
366(10) 0.00925 345.5 17.8
357(10) 0.00967 345.5 17.6
369(10) 0.00956 345.5 17.4
327(9) 0.01148 345.5 17.2
393(11) 0.00858 345.5 17.0
371(11) 0.00903 345.5 16.7
350(10) 0.01011 345.5 16.5
388(10) 0.00927 345.5 16.3
378(10) 0.00994 345.5 16.1
366(10) 0.00943 345.5 15.9
338(10) 0.00995 345.5 15.6
343(10) 0.00995 345.5 15.4
342(10) 0.01077 345.5 15.2
362(10) 0.01027 345.5 15.0
355(10) 0.00995 345.5 14.8
336(10) 0.01006 345.5 14.6
348(10) 0.01017 345.5 14.5
361(10) 0.01004 345.5 14.3
364(10) 0.01016 345.5 14.2
379(11) 0.00872 345.5 14.1
353(10) 0.00911 345.5 14.0
360(10) 0.00919 345.5 13.9
353(10) 0.01043 345.5 13.8
339(10) 0.01099 345.5 13.8
351(10) 0.01004 345.5 13.8
347(10) 0.00959 345.5 13.8
350(10) 0.01027 345.5 13.9
388(10) 0.00964 345.5 13.9
357(10) 0.00966 345.5 14.1
359(10) 0.00960 345.5 14.2
363(11) 0.00898 345.5 14.4
335(10) 0.01025 345.5 14.7
346(10) 0.01070 345.5 15.0
368(10) 0.00995 345.5 15.3
355(10) 0.00948 345.5 15.8
365(10) 0.00910 345.5 16.4
364(10) 0.00924 345.4 17.1
376(10) 0.01000 345.4 18.3
375(10) 0.00940 345.4 19.9
391(11) 0.00870 345.4 22.1
350(10) 0.00997 345.4 25.3
361(10) 0.00968 345.4 29.6
357(10) 0.01040 345.4 34.9
393(10) 0.00923 345.4 41.2
393(11) 0.00877 345.4 47.8
392(11) 0.00895 345.4 53.9
435(11) 0.00808 345.4 58.0
415(11) 0.00899 345.4 59.0
365(10) 0.00950 345.4 56.5
370(10) 0.00916 345.4 51.7
380(11) 0.00892 345.4 46.0
358(10) 0.01026 345.4 40.4
405(11) 0.00907 345.4 35.6
388(11) 0.00857 345.4 31.9
376(11) 0.00897 345.4 29.2
369(10) 0.00951 345.4 27.4
357(10) 0.01035 345.4 26.4
377(10) 0.00979 345.4 25.8
347(10) 0.01034 345.4 25.4
371(11) 0.00888 345.4 25.3
356(10) 0.00978 345.4 25.2
375(10) 0.00977 345.4 25.1
379(10) 0.00984 345.4 25.0
367(10) 0.00944 345.4 24.9
365(11) 0.00880 345.4 24.7
371(10) 0.00929 345.4 24.5
355(10) 0.01057 345.4 24.2
381(10) 0.00972 345.4 23.9
362(10) 0.00973 345.4 23.5
366(11) 0.00894 345.4 23.1
401(11) 0.00857 345.4 22.6
397(10) 0.00944 345.4 22.1
355(10) 0.01030 345.4 21.6
357(10) 0.00983 345.4 21.1
384(11) 0.00835 345.4 20.5
351(10) 0.00988 345.4 19.9
372(10) 0.01009 345.4 19.3
369(10) 0.00998 345.4 18.7
356(10) 0.00951 345.4 18.1
368(10) 0.00926 345.4 17.5
378(10) 0.00929 345.4 16.9
339(10) 0.01106 345.4 16.4
378(10) 0.00943 345.4 15.8
364(10) 0.00947 345.4 15.3
356(10) 0.00958 345.4 14.7
356(10) 0.00988 345.4 14.2
339(10) 0.01099 345.4 13.8
331(10) 0.01093 345.4 13.3
375(11) 0.00891 345.4 12.9
350(10) 0.00976 345.4 12.5
346(10) 0.00996 345.4 12.1
370(10) 0.01005 345.4 11.7
383(10) 0.00914 345.4 11.4
332(10) 0.01049 345.4 11.1
350(10) 0.00957 345.4 10.8
350(10) 0.01029 345.4 10.6
351(10) 0.01057 345.4 10.4
359(10) 0.00974 345.4 10.2
348(10) 0.00974 345.4 10.0
360(10) 0.00966 345.4 9.9
363(10) 0.00994 345.4 9.8
374(10) 0.00990 345.4 9.7
379(11) 0.00896 345.4 9.6
344(10) 0.00977 345.4 9.6
343(10) 0.01020 345.4 9.6
363(10) 0.01027 345.4 9.6
353(10) 0.01062 345.4 9.7
346(10) 0.01008 345.4 9.8
351(10) 0.00946 345.3 10.0
348(10) 0.01004 345.3 10.2
341(10) 0.01075 345.3 10.4
336(9) 0.01111 345.3 10.7
366(10) 0.00919 345.3 11.0
361(11) 0.00899 345.3 11.3
351(10) 0.01009 345.3 11.5
364(10) 0.01035 345.3 11.7
344(10) 0.01063 345.3 11.8
340(10) 0.01027 345.3 11.8
356(10) 0.00916 345.3 11.9
351(10) 0.00981 345.3 12.0
368(10) 0.01005 345.3 12.1
364(10) 0.01012 345.3 12.2
348(10) 0.00997 345.3 12.3
356(11) 0.00899 345.3 12.5
379(10) 0.00917 345.3 12.7
361(10) 0.01025 345.3 12.8
353(10) 0.01030 345.3 13.0
344(10) 0.01027 345.3 13.1
342(10) 0.00990 345.3 13.3
355(10) 0.00960 345.3 13.4
348(10) 0.01062 345.3 13.5
346(10) 0.01046 345.3 13.5
357(10) 0.00955 345.3 13.5
352(10) 0.00986 345.3 13.5
348(10) 0.00980 345.3 13.4
351(10) 0.01074 345.3 13.3
367(10) 0.00950 345.3 13.2
328(10) 0.01097 345.3 13.1
353(10) 0.00969 345.3 12.9
345(10) 0.01000 345.3 12.6
329(9) 0.01138 345.3 12.4
345(10) 0.01036 345.3 12.1
326(10) 0.01074 345.3 11.9
319(10) 0.01088 345.3 11.6
350(10) 0.00998 345.3 11.3
327(9) 0.01133 345.3 11.0
362(10) 0.00973 345.3 10.7
346(10) 0.00994 345.3 10.3
363(10) 0.00956 345.3 10.0
344(10) 0.01042 345.3 9.7
350(10) 0.01062 345.3 9.4
355(10) 0.00927 345.3 9.1
341(10) 0.00975 345.3 8.8
362(10) 0.00932 345.3 8.6
393(10) 0.00918 345.3 8.3
374(10) 0.01005 345.3 8.0
364(10) 0.00939 345.3 7.8
363(10) 0.00915 345.3 7.6
349(10) 0.01006 345.3 7.4
343(10) 0.01062 345.3 7.2
340(10) 0.01096 345.3 7.0
366(10) 0.00979 345.3 6.9
336(10) 0.00956 345.3 6.8
312(9) 0.01125 345.3 6.7
348(10) 0.01052 345.3 6.6
377(10) 0.00982 345.3 6.6
361(10) 0.00945 345.3 6.6
339(10) 0.00955 345.3 6.7
339(10) 0.01010 345.3 6.8
349(10) 0.01056 345.3 7.1
361(10) 0.01008 345.3 7.5
357(10) 0.01002 345.3 8.0
348(10) 0.00928 345.3 8.7
355(10) 0.00983 345.3 9.7
359(10) 0.01030 345.3 10.8
352(10) 0.01046 345.3 12.3
341(10) 0.00996 345.3 13.9
344(10) 0.00952 345.3 15.8
382(11) 0.00874 345.3 17.8
351(10) 0.01063 345.2 19.9
370(10) 0.01000 345.2 21.8
391(11) 0.00868 345.2 23.3
382(11) 0.00876 345.2 24.2
353(10) 0.00993 345.2 24.3
349(10) 0.01069 345.2 23.6
352(10) 0.00995 345.2 22.2
337(10) 0.01006 345.2 20.3
319(10) 0.01074 345.2 18.2
344(10) 0.00980 345.2 16.0
342(10) 0.01080 345.2 14.0
373(10) 0.00939 345.2 12.1
361(10) 0.00946 345.2 10.5
341(10) 0.01020 345.2 9.1
369(10) 0.00944 345.2 7.9
341(10) 0.01099 345.2 7.0
327(10) 0.01087 345.2 6.3
325(10) 0.01067 345.2 5.7
341(10) 0.01018 345.2 5.2
353(10) 0.01007 345.2 4.9
333(9) 0.01123 345.2 4.6
333(10) 0.01083 345.2 4.4
369(10) 0.00910 345.2 4.2
344(10) 0.01019 345.2 4.1
355(10) 0.00990 345.2 4.0
346(10) 0.01075 345.2 3.9
340(10) 0.00975 345.2 3.8
365(11) 0.00900 345.2 3.7
352(10) 0.01014 345.2 3.7
337(10) 0.01062 345.2 3.6
320(9) 0.01165 345.2 3.6
325(10) 0.01096 345.2 3.5
342(10) 0.00953 345.2 3.5
345(10) 0.01036 345.2 3.5
351(10) 0.01040 345.2 3.5
347(10) 0.01065 345.2 3.4
361(10) 0.00984 345.2 3.4
353(10) 0.00929 345.2 3.4
331(10) 0.01033 345.2 3.4
330(10) 0.01099 345.2 3.4
346(10) 0.01065 345.2 3.3
330(10) 0.01073 345.2 3.3
371(11) 0.00843 345.2 3.3
343(10) 0.01027 345.2 3.3
363(10) 0.01025 345.2 3.3
345(10) 0.01084 345.2 3.2
350(10) 0.01021 345.2 3.2
347(10) 0.00928 345.2 3.2
361(10) 0.00923 345.2 3.1
360(10) 0.01045 345.2 3.1
359(10) 0.01002 345.2 3.1
338(10) 0.01028 345.2 3.1
347(10) 0.00965 345.2 3.0
336(10) 0.01053 345.2 3.0
343(10) 0.01095 345.2 3.0
325(10) 0.01092 345.2 3.0
357(10) 0.00971 345.2 2.9
329(10) 0.01037 345.2 2.9
323(10) 0.01081 345.2 2.9
380(10) 0.00972 345.2 2.9
345(10) 0.01055 345.2 2.9
338(10) 0.01064 345.2 2.9
367(10) 0.00929 345.2 2.9
353(10) 0.01001 345.2 2.8
335(9) 0.01121 345.2 2.8
353(10) 0.01008 345.2 2.8
344(10) 0.01029 345.2 2.8
379(11) 0.00889 345.2 2.8
343(10) 0.01037 345.2 2.8
321(9) 0.01154 345.2 2.8
347(10) 0.01001 345.2 2.8
340(10) 0.00977 345.1 2.8
351(10) 0.00936 345.1 2.9
327(10) 0.01096 345.1 2.9
366(10) 0.01012 345.1 2.9
330(10) 0.00999 345.1 2.9
346(10) 0.00979 345.1 2.9
371(10) 0.00940 345.1 2.9
355(10) 0.01013 345.1 3.0
362(10) 0.01022 345.1 3.0
372(10) 0.00927 345.1 3.0
375(10) 0.00910 345.1 3.0
352(10) 0.00969 345.1 3.0
338(10) 0.01094 345.1 3.1
358(10) 0.01046 345.1 3.1
358(10) 0.00973 345.1 3.1
316(9) 0.01109 345.1 3.1
336(10) 0.01052 345.1 3.2
355(10) 0.01035 345.1 3.2
371(10) 0.00992 345.1 3.2
353(10) 0.00999 345.1 3.2
341(10) 0.00956 345.1 3.3
334(10) 0.01031 345.1 3.3
321(9) 0.01157 345.1 3.3
370(10) 0.00984 345.1 3.3
353(10) 0.01001 345.1 3.3
307(10) 0.01096 345.1 3.4
326(10) 0.01072 345.1 3.4
354(10) 0.01040 345.1 3.4
364(10) 0.01008 345.1 3.4
347(10) 0.01027 345.1 3.4
351(10) 0.00962 345.1 3.4
344(10) 0.00995 345.1 3.4
333(9) 0.01111 345.1 3.4
327(9) 0.01121 345.1 3.4
359(10) 0.00922 345.1 3.4
313(10) 0.01076 345.1 3.4
337(10) 0.01036 345.1 3.4
356(10) 0.01038 345.1 3.4
333(9) 0.01116 345.1 3.4
323(10) 0.01056 345.1 3.4
331(10) 0.01008 345.1 3.4
345(10) 0.01024 345.1 3.4
338(10) 0.01100 345.1 3.4
349(10) 0.01012 345.1 3.4
355(10) 0.00957 345.1 3.4
378(11) 0.00897 345.1 3.4
351(10) 0.01033 345.1 3.4
331(9) 0.01121 345.1 3.3
347(10) 0.01009 345.1 3.3
335(10) 0.01028 345.1 3.3
302(9) 0.01157 345.1 3.3
333(10) 0.01057 345.1 3.3
358(10) 0.01030 345.1 3.3
371(10) 0.00911 345.1 3.3
343(10) 0.00984 345.1 3.3
369(10) 0.00936 345.1 3.3
373(10) 0.00967 345.1 3.3
366(10) 0.01007 345.1 3.3
324(10) 0.01099 345.1 3.3
329(10) 0.01016 345.1 3.3
353(10) 0.00922 345.1 3.3
335(10) 0.01085 345.1 3.3
334(9) 0.01116 345.1 3.3
334(10) 0.01016 345.1 3.4
353(10) 0.00914 345.1 3.4
350(10) 0.00966 345.1 3.4
329(9) 0.01115 345.1 3.4
337(10) 0.01083 345.1 3.5
335(10) 0.01036 345.1 3.5
360(11) 0.00883 345.1 3.6
367(10) 0.00968 345.1 3.6
364(10) 0.01017 345.1 3.7
319(9) 0.01162 345.1 3.7
331(10) 0.01034 345.1 3.8
345(10) 0.00947 345.1 3.9
368(10) 0.00930 345.1 3.9
331(9) 0.01122 345.1 4.0
351(10) 0.01059 345.1 4.1
369(10) 0.00932 345.1 4.2
354(11) 0.00904 345.1 4.3
329(10) 0.01048 345.1 4.4
373(10) 0.00986 345.1 4.6
342(10) 0.01106 345.1 4.7
362(10) 0.00939 345.1 4.8
323(10) 0.01069 345.1 5.0
354(10) 0.00965 345.1 5.2
343(10) 0.01080 345.1 5.3
318(9) 0.01136 345.1 5.5
331(10) 0.01044 345.1 5.7
326(10) 0.01042 345.1 5.9
337(10) 0.01029 345.1 6.1
351(10) 0.01045 345.1 6.3
334(10) 0.01091 345.1 6.5
328(10) 0.01050 345.1 6.8
332(10) 0.01006 345.1 7.0
352(10) 0.01007 345.1 7.3
347(10) 0.01074 345.1 7.5
337(10) 0.01006 345.1 7.8
331(10) 0.01022 345.1 8.1
329(10) 0.01055 345.1 8.4
331(10) 0.01105 345.1 8.7
314(9) 0.01184 345.1 9.0
351(10) 0.00979 345.1 9.3
344(10) 0.00972 345.1 9.6
348(10) 0.00991 345.1 10.0
346(10) 0.01039 345.1 10.4
333(9) 0.01120 345.1 10.7
348(10) 0.00989 345.1 11.1
340(10) 0.00994 345.1 11.5
344(10) 0.00961 345.1 12.0
361(10) 0.01022 345.1 12.5
376(10) 0.00998 345.1 13.0
368(10) 0.00956 345.1 13.5
362(11) 0.00887 345.1 14.1
350(10) 0.00963 345.1 14.8
355(10) 0.01036 345.1 15.5
372(10) 0.00999 345.1 16.3
336(10) 0.00995 345.1 17.1
354(11) 0.00886 345.1 18.1
380(10) 0.00911 345.1 19.1
359(10) 0.01011 345.1 20.2
337(9) 0.01117 345.1 21.5
344(10) 0.00994 345.1 22.8
342(10) 0.00956 345.1 24.1
359(10) 0.00965 345.1 25.6
363(10) 0.01008 345.1 27.2
377(10) 0.00960 345.1 28.8
358(10) 0.00980 345.1 30.4
359(10) 0.00910 345.1 32.0
378(11) 0.00887 345.1 33.7
396(10) 0.00934 345.1 35.2
386(10) 0.00959 345.1 36.7
396(11) 0.00874 345.1 38.0
376(10) 0.00930 345.1 39.1
414(11) 0.00815 345.1 40.0
364(10) 0.01018 345.1 40.5
381(10) 0.00976 345.1 40.8
407(11) 0.00834 345.1 40.8
373(10) 0.00921 345.1 40.5
345(10) 0.01038 345.1 39.9
374(10) 0.00994 345.1 39.1
378(10) 0.00938 345.1 38.1
346(10) 0.01010 345.1 37.0
379(11) 0.00880 345.1 35.7
365(10) 0.00948 345.1 34.4
366(10) 0.01012 345.1 33.0
387(11) 0.00897 345.1 31.6
366(10) 0.00940 345.1 30.1
357(10) 0.00961 345.1 28.7
374(10) 0.00957 345.1 27.2
369(10) 0.01008 345.1 25.8
369(10) 0.00935 345.1 24.4
314(9) 0.01112 345.1 23.1
363(10) 0.00924 345.1 21.8
367(10) 0.00996 345.1 20.5
359(10) 0.01028 345.1 19.3
357(10) 0.00974 345.1 18.1
385(11) 0.00846 345.1 17.1
359(10) 0.00971 345.1 16.0
355(10) 0.01035 345.1 15.1
324(9) 0.01147 345.1 14.1
329(10) 0.01049 345.1 13.3
352(11) 0.00891 345.1 12.5
311(9) 0.01162 345.1 11.8
359(10) 0.01014 345.1 11.1
346(10) 0.01068 345.1 10.4
351(10) 0.00966 345.1 9.9
361(11) 0.00873 345.1 9.3
344(10) 0.01045 345.1 8.8
347(10) 0.01066 345.1 8.3
332(9) 0.01130 345.1 7.9
365(10) 0.00971 345.1 7.5
349(10) 0.00938 345.1 7.1
365(10) 0.00913 345.1 6.8
363(10) 0.01013 345.1 6.5
365(10) 0.00984 345.1 6.2
345(10) 0.01011 345.1 6.0
346(10) 0.00949 345.1 5.7
350(10) 0.00957 345.1 5.5
356(10) 0.01038 345.1 5.3
330(9) 0.01124 345.1 5.1
351(10) 0.01010 345.1 5.0
326(10) 0.01027 345.1 4.8
323(10) 0.01067 345.1 4.7
348(10) 0.01072 345.1 4.6
346(10) 0.01040 345.1 4.5
338(10) 0.01033 345.1 4.4
318(10) 0.01036 345.1 4.3
339(10) 0.01006 345.1 4.2
338(10) 0.01097 345.1 4.1
335(10) 0.01053 345.1 4.1
331(10) 0.01063 345.1 4.0
313(10) 0.01082 345.1 4.0
299(9) 0.01180 345.1 4.0
333(9) 0.01110 345.1 4.0
327(10) 0.01100 345.1 3.9
311(10) 0.01086 345.1 4.0
294(9) 0.01186 345.1 4.0
364(10) 0.00942 345.1 4.0
345(10) 0.01082 345.1 4.0
326(10) 0.01064 345.1 4.0
340(10) 0.00980 345.1 4.0
324(10) 0.01064 345.1 4.1
359(10) 0.01003 345.1 4.1
334(10) 0.01107 345.1 4.2
353(10) 0.00941 345.1 4.2
349(10) 0.00956 345.1 4.3
355(10) 0.00921 345.1 4.3
339(10) 0.01060 345.1 4.4
368(10) 0.01011 345.1 4.5
327(10) 0.01063 345.1 4.6
333(10) 0.00997 345.1 4.7
356(10) 0.00966 345.1 4.8
357(10) 0.01043 345.1 4.9
322(9) 0.01134 345.1 5.1
326(10) 0.01101 345.1 5.2
342(10) 0.00965 345.1 5.4
350(10) 0.00986 345.1 5.6
341(10) 0.01090 345.1 5.8
333(10) 0.01104 345.1 6.1
338(10) 0.01042 345.1 6.4
354(11) 0.00898 345.1 6.8
358(10) 0.00961 345.1 7.3
359(10) 0.01034 345.1 7.9
344(10) 0.01072 345.1 8.6
346(10) 0.01031 345.1 9.6
365(11) 0.00874 345.1 10.7
341(10) 0.00988 345.1 11.9
381(10) 0.00988 345.1 13.3
370(10) 0.00977 345.1 14.7
355(10) 0.00976 345.1 16.0
372(11) 0.00889 345.1 17.1
343(10) 0.01032 345.1 17.7
355(10) 0.01045 345.1 17.7
354(10) 0.01050 345.1 17.2
358(10) 0.00939 345.1 16.4
337(10) 0.01014 345.1 15.3
343(10) 0.01024 345.1 14.2
333(10) 0.01099 345.1 13.1
367(10) 0.00968 345.1 12.2
336(10) 0.01041 345.1 11.5
365(11) 0.00896 345.1 10.9
362(10) 0.00993 345.1 10.4
336(10) 0.01104 345.1 10.1
361(10) 0.00989 345.1 9.9
361(10) 0.00969 345.1 9.7
353(10) 0.01006 345.1 9.6
343(10) 0.01044 345.1 9.5
323(9) 0.01138 345.1 9.5
358(10) 0.00974 345.1 9.4
366(10) 0.00935 345.1 9.4
328(10) 0.01090 345.1 9.4
343(10) 0.01042 345.1 9.4
331(9) 0.01123 345.1 9.3
332(10) 0.01008 345.1 9.3
328(10) 0.01034 345.1 9.3
341(10) 0.01004 345.1 9.2
364(10) 0.00977 345.1 9.2
379(10) 0.00980 345.1 9.2
364(10) 0.00943 345.1 9.2
349(10) 0.00954 345.1 9.1
370(11) 0.00893 345.1 9.1
351(10) 0.01052 345.1 9.1
327(9) 0.01129 345.1 9.1
360(10) 0.00927 345.1 9.0
337(10) 0.01006 345.1 9.0
330(10) 0.01076 345.1 9.0
343(10) 0.01102 345.1 8.9
346(10) 0.01060 345.1 8.9
356(10) 0.00950 345.1 8.9
347(10) 0.00910 345.1 8.9
365(10) 0.00955 345.1 8.8
344(10) 0.01089 345.1 8.8
342(10) 0.01085 345.1 8.8
337(10) 0.01037 345.1 8.8
344(10) 0.00940 345.1 8.8
352(10) 0.01020 345.1 8.8
332(9) 0.01124 345.1 8.8
368(10) 0.01006 345.1 8.8
363(10) 0.00970 345.1 8.8
320(10) 0.01061 345.1 8.8
311(9) 0.01143 345.1 8.8
330(9) 0.01111 345.1 8.9
369(10) 0.00971 345.1 8.9
331(10) 0.01000 345.1 9.0
361(11) 0.00884 345.1 9.1
340(10) 0.01039 345.1 9.2
368(10) 0.01017 345.1 9.3
346(10) 0.01051 345.1 9.5
380(10) 0.00909 345.1 9.7
352(10) 0.00999 345.1 10.1
345(10) 0.01029 345.1 10.8
366(10) 0.01008 345.1 11.8
383(10) 0.00949 345.1 13.2
332(10) 0.01062 345.1 15.0
352(10) 0.00961 345.1 16.9
352(10) 0.01007 345.1 18.4
362(10) 0.01033 345.1 19.2
387(11) 0.00896 345.1 19.0
359(10) 0.00923 345.1 17.9
361(10) 0.00967 345.1 16.6
353(10) 0.01016 345.1 15.4
376(10) 0.00980 345.1 14.5
357(10) 0.00959 345.1 13.9
347(10) 0.00960 345.1 13.6
373(10) 0.00925 345.1 13.4
389(10) 0.00942 345.1 13.3
368(10) 0.01015 345.1 13.2
336(10) 0.01027 345.1 13.1
337(10) 0.00981 345.1 13.1
333(10) 0.01076 345.1 13.0
362(10) 0.01006 345.1 12.9
357(10) 0.01033 345.1 12.9
328(10) 0.01074 345.1 12.9
362(11) 0.00880 345.1 12.9
362(10) 0.00965 345.1 13.0
388(10) 0.00943 345.1 13.0
349(10) 0.01084 345.1 13.1
346(10) 0.00994 345.1 13.2
377(11) 0.00812 345.1 13.3
392(11) 0.00873 345.1 13.4
390(10) 0.00955 345.1 13.6
357(10) 0.01037 345.1 13.7
379(10) 0.00915 345.1 13.8
363(10) 0.00949 345.1 14.0
370(10) 0.00964 345.1 14.1
367(10) 0.01016 345.1 14.2
348(10) 0.01077 345.1 14.4
364(10) 0.00974 345.1 14.5
355(10) 0.00927 345.1 14.7
344(10) 0.01007 345.1 14.8
352(10) 0.01053 345.1 14.9
329(9) 0.01128 345.1 15.1
357(10) 0.00988 345.1 15.2
379(11) 0.00863 345.1 15.4
356(10) 0.00998 345.1 15.5
350(10) 0.01059 345.1 15.7
362(10) 0.01019 345.1 15.8
375(11) 0.00901 345.1 16.0
394(11) 0.00828 345.1 16.2
363(10) 0.00964 345.1 16.4
348(10) 0.01063 345.1 16.6
352(10) 0.01007 345.1 16.8
350(10) 0.00974 345.1 17.0
370(11) 0.00902 345.1 17.2
357(10) 0.00980 345.1 17.4
375(10) 0.00993 345.1 17.6
341(10) 0.01032 345.1 17.8
350(10) 0.00984 345.1 18.0
361(10) 0.00946 345.1 18.2
370(10) 0.00956 345.1 18.3
368(10) 0.01016 345.1 18.4
345(10) 0.01015 345.1 18.4
360(10) 0.00961 345.1 18.5
380(10) 0.00919 345.1 18.5
367(10) 0.00975 345.1 18.6
354(10) 0.01058 345.1 18.7
370(10) 0.00942 345.1 18.9
394(11) 0.00835 345.1 19.2
381(11) 0.00886 345.1 19.8
366(10) 0.00986 345.1 20.6
375(10) 0.00999 345.1 21.9
376(10) 0.00927 345.1 23.8
393(11) 0.00833 345.1 26.6
394(11) 0.00887 345.1 30.3
376(10) 0.00982 345.1 35.1
417(11) 0.00900 345.1 41.1
408(11) 0.00851 345.1 48.1
409(11) 0.00791 345.1 55.9
433(11) 0.00791 345.1 63.9
415(11) 0.00897 345.1 71.0
414(11) 0.00897 345.1 76.1
401(11) 0.00880 345.1 78.0
418(11) 0.00772 345.1 76.0
409(11) 0.00855 345.1 70.9
403(10) 0.00925 345.1 63.9
410(10) 0.00909 345.1 56.4
392(10) 0.00912 345.1 49.4
385(11) 0.00852 345.1 43.6
386(10) 0.00921 345.1 39.4
374(10) 0.00994 345.1 36.7
389(10) 0.00945 345.1 35.5
414(11) 0.00813 345.1 35.3
409(11) 0.00829 345.1 35.6
400(11) 0.00884 345.1 35.6
351(10) 0.01063 345.1 34.5
365(10) 0.01009 345.1 32.3
367(10) 0.00929 345.1 29.0
352(10) 0.00976 345.1 25.4
394(11) 0.00860 345.1 21.8
368(10) 0.01017 345.1 18.5
343(10) 0.01054 345.1 15.7
338(10) 0.00986 345.1 13.4
336(10) 0.00984 345.1 11.6
347(10) 0.01003 345.1 10.2
326(9) 0.01151 345.1 9.2
369(10) 0.00953 345.1 8.5
349(10) 0.00970 345.1 7.9
331(10) 0.01060 345.1 7.5
368(10) 0.00954 345.1 7.1
334(9) 0.01118 345.1 6.8
339(10) 0.01037 345.1 6.6
328(10) 0.01051 345.1 6.4
336(10) 0.01026 345.1 6.2
345(10) 0.01017 345.1 6.0
346(10) 0.01086 345.1 5.9
339(10) 0.01045 345.1 5.7
355(10) 0.00935 345.1 5.6
370(10) 0.00910 345.1 5.5
328(10) 0.01098 345.1 5.4
312(9) 0.01196 345.1 5.4
319(10) 0.01100 345.1 5.3
351(10) 0.00934 345.1 5.2
343(10) 0.01015 345.1 5.2
367(10) 0.01000 345.1 5.1
331(9) 0.01118 345.1 5.1
333(10) 0.01073 345.1 5.1
354(10) 0.00946 345.1 5.0
343(10) 0.01027 345.1 5.0
334(10) 0.01102 345.1 5.0
337(9) 0.01109 345.1 4.9
336(10) 0.01027 345.1 4.9
321(10) 0.01016 345.1 4.9
329(10) 0.01064 345.1 4.9
322(9) 0.01128 345.1 4.9
352(10) 0.01037 345.1 4.9
347(10) 0.01033 345.1 4.8
339(10) . . .
324(10) . . .
332(9) . . .
328(9) . . .
328(10) . . .
338(10) . . .
323(10) . . .
345(10) . . .
331(9) . . .
362(10) . . .
364(10) . . .
335(10) . . .
334(9) . . .
331(10) . . .
322(10) . . .
327(10) . . .
310(9) . . .
346(10) . . .
328(9) . . .
349(10) . . .
346(10) . . .
334(10) . . .
357(10) . . .
332(10) . . .
338(10) . . .
335(10) . . .
358(10) . . .
348(10) . . .
320(10) . . .
356(10) . . .
340(10) . . .
341(10) . . .
328(9) . . .
326(10) . . .
328(10) . . .
325(10) . . .
339(10) . . .
341(10) . . .
338(10) . . .
357(11) . . .
351(10) . . .
381(10) . . .
349(10) . . .
353(10) . . .
357(11) . . .
343(10) . . .
369(10) . . .
337(10) . . .
323(10) . . .
325(10) . . .
334(10) . . .
332(9) . . .
339(10) . . .
372(10) . . .
364(11) . . .
332(10) . . .
346(10) . . .
335(10) . . .
327(10) . . .
367(11) . . .
358(10) . . .
335(10) . . .
347(10) . . .
349(10) . . .
322(10) . . .
333(10) . . .
343(10) . . .
323(9) . . .
336(10) . . .
359(10) . . .
301(9) . . .
338(10) . . .
367(10) . . .
336(10) . . .
327(10) . . .
344(10) . . .
362(10) . . .
334(10) . . .
329(10) . . .
337(10) . . .
329(10) . . .
331(9) . . .
353(10) . . .
354(10) . . .
343(10) . . .
334(10) . . .
356(10) . . .
351(10) . . .
336(10) . . .
372(11) . . .
358(10) . . .
385(10) . . .
390(10) . . .
373(11) . . .
355(10) . . .
324(9) . . .
330(9) . . .
334(10) . . .
339(10) . . .
361(10) . . .
369(10) . . .
358(10) . . .
384(11) . . .
380(11) . . .
329(10) . . .
341(10) . . .
350(10) . . .
367(10) . . .
332(10) . . .
391(11) . . .
365(10) . . .
371(10) . . .
369(10) . . .
359(10) . . .
366(10) . . .
372(10) . . .
372(10) . . .
359(10) . . .
355(10) . . .
358(10) . . .
383(10) . . .
346(10) . . .
340(10) . . .
355(10) . . .
366(10) . . .
364(10) . . .
348(10) . . .
373(11) . . .
361(11) . . .
348(10) . . .
377(10) . . .
355(10) . . .
334(10) . . .
354(10) . . .
338(10) . . .
365(10) . . .
312(9) . . .
325(10) . . .
328(10) . . .
342(10) . . .
336(10) . . .
353(10) . . .
325(10) . . .
330(10) . . .
358(10) . . .
328(9) . . .
324(10) . . .
352(10) . . .
366(10) . . .
360(10) . . .
364(10) . . .
336(10) . . .
330(10) . . .
328(10) . . .
349(10) . . .
330(9) . . .
367(10) . . .
397(11) . . .
349(10) . . .
366(10) . . .
335(10) . . .
366(10) . . .
362(11) . . .
344(10) . . .
349(10) . . .
333(10) . . .
361(10) . . .
359(10) . . .
343(10) . . .
344(10) . . .
344(10) . . .
329(10) . . .
363(10) . . .
350(10) . . .
325(9) . . .
344(10) . . .
340(10) . . .
326(10) . . .
368(10) . . .
311(9) . . .
328(10) . . .
330(10) . . .
342(10) . . .
331(9) . . .
314(9) . . .
328(10) . . .
343(10) . . .
338(10) . . .
357(10) . . .
328(9) . . .
323(9) . . .
343(10) . . .
326(10) . . .
334(10) . . .
342(10) . . .
352(10) . . .
338(10) . . .
342(10) . . .
353(10) . . .
350(10) . . .
341(10) . . .
342(10) . . .
332(10) . . .
353(10) . . .
313(9) . . .
345(10) . . .
362(11) . . .
354(10) . . .
341(10) . . .
352(10) . . .
375(10) . . .
349(10) . . .
375(10) . . .
349(10) . . .
346(10) . . .
328(10) . . .
328(10) . . .
357(10) . . .
325(9) . . .
344(10) . . .
321(10) . . .
363(10) . . .
347(10) . . .
351(10) . . .
362(10) . . .
348(10) . . .
346(10) . . .
309(9) . . .
353(10) . . .
330(10) . . .
346(10) . . .
333(10) . . .
327(10) . . .
322(9) . . .
323(10) . . .
325(10) . . .
346(10) . . .
343(10) . . .
356(10) . . .
324(10) . . .
356(11) . . .
345(10) . . .
350(10) . . .
342(10) . . .
340(10) . . .
317(10) . . .
335(10) . . .
345(10) . . .
338(10) . . .
358(10) . . .
338(10) . . .
347(10) . . .
359(10) . . .
325(9) . . .
354(10) . . .
355(11) . . .
346(10) . . .
368(10) . . .
356(10) . . .
332(10) . . .
370(11) . . .
369(11) . . .
384(10) . . .
388(10) . . .
369(10) . . .
395(11) . . .
399(11) . . .
393(10) . . .
379(10) . . .
407(11) . . .
453(12) . . .
447(11) . . .
440(11) . . .
436(11) . . .
396(11) . . .
424(11) . . .
397(10) . . .
413(11) . . .
404(11) . . .
372(10) . . .
362(10) . . .
394(11) . . .
349(10) . . .
355(10) . . .
379(11) . . .
365(10) . . .
328(9) . . .
354(10) . . .
381(11) . . .
337(10) . . .
344(10) . . .
323(9) . . .
323(9) . . .
360(10) . . .
347(10) . . .
332(10) . . .
360(10) . . .
352(10) . . .
325(9) . . .
356(11) . . .
337(10) . . .
332(9) . . .
309(9) . . .
308(9) . . .
321(10) . . .
352(10) . . .
343(10) . . .
348(10) . . .
333(10) . . .
314(10) . . .
313(10) . . .
342(10) . . .
343(10) . . .
345(10) . . .
343(10) . . .
362(10) . . .
342(10) . . .
344(10) . . .
352(10) . . .
368(11) . . .
332(10) . . .
340(10) . . .
329(10) . . .
325(10) . . .
338(10) . . .
322(9) . . .
326(9) . . .
374(10) . . .
337(10) . . .
331(10) . . .
328(9) . . .
362(10) . . .
369(10) . . .
332(10) . . .
321(10) . . .
332(10) . . .
321(9) . . .
327(10) . . .
333(10) . . .
354(10) . . .
367(10) . . .
330(9) . . .
331(9) . . .
334(10) . . .
340(10) . . .
323(9) . . .
335(10) . . .
338(10) . . .
336(10) . . .
318(10) . . .
309(9) . . .
331(9) . . .
313(9) . . .
336(10) . . .
333(10) . . .
331(9) . . .
318(9) . . .
313(9) . . .
325(10) . . .
326(10) . . .
328(9) . . .
353(10) . . .
336(10) . . .
346(10) . . .
344(10) . . .
315(9) . . .
329(10) . . .
332(10) . . .
342(10) . . .
321(10) . . .
334(9) . . .
347(10) . . .
342(10) . . .
333(10) . . .
337(10) . . .
332(9) . . .
302(9) . . .
329(10) . . .
321(10) . . .
317(10) . . .
291(9) . . .
290(9) . . .
304(10) . . .
337(10) . . .
325(10) . . .
318(9) . . .
305(9) . . .
314(10) . . .
313(9) . . .
305(9) . . .
326(9) . . .
313(10) . . .
313(10) . . .
322(10) . . .
322(9) . . .
326(9) . . .
322(10) . . .
307(10) . . .
313(10) . . .
308(9) . . .
300(9) . . .
322(10) . . .
316(10) . . .
318(10) . . .
307(9) . . .
317(9) . . .
305(9) . . .
310(10) . . .
341(10) . . .
349(10) . . .
349(10) . . .
311(9) . . .
309(10) . . .
335(10) . . .
315(9) . . .
333(10) . . .
298(9) . . .
330(10) . . .
321(10) . . .
321(9) . . .
338(10) . . .
304(9) . . .
331(10) . . .
300(9) . . .
336(10) . . .
341(10) . . .
343(10) . . .
308(10) . . .
324(9) . . .
324(9) . . .
328(10) . . .
328(10) . . .
336(10) . . .
341(10) . . .
323(9) . . .
338(10) . . .
353(10) . . .
335(10) . . .
314(9) . . .
322(9) . . .
351(10) . . .
342(10) . . .
342(10) . . .
329(9) . . .
328(9) . . .
369(10) . . .
310(10) . . .
328(10) . . .
325(9) . . .
373(10) . . .
356(10) . . .
342(10) . . .
355(10) . . .
350(10) . . .
367(10) . . .
368(10) . . .
348(10) . . .
375(10) . . .
381(10) . . .
397(10) . . .
391(11) . . .
390(11) . . .
374(10) . . .
393(10) . . .
398(10) . . .
409(11) . . .
409(11) . . .
383(11) . . .
394(10) . . .
358(10) . . .
388(11) . . .
363(10) . . .
348(10) . . .
371(10) . . .
348(10) . . .
342(10) . . .
335(10) . . .
357(10) . . .
317(9) . . .
304(9) . . .
349(10) . . .
336(10) . . .
333(10) . . .
342(10) . . .
342(10) . . .
359(10) . . .
350(10) . . .
325(9) . . .
339(10) . . .
329(10) . . .
325(10) . . .
334(10) . . .
319(9) . . .
319(9) . . .
312(10) . . .
315(10) . . .
319(10) . . .
323(9) . . .
326(9) . . .
313(10) . . .
325(10) . . .
293(9) . . .
312(9) . . .
318(9) . . .
311(9) . . .
336(10) . . .
304(9) . . .
340(10) . . .
326(9) . . .
317(10) . . .
295(9) . . .
320(10) . . .
312(9) . . .
315(9) . . .
312(10) . . .
324(10) . . .
325(10) . . .
327(9) . . .
322(10) . . .
328(10) . . .
322(10) . . .
295(9) . . .
291(9) . . .
310(10) . . .
330(10) . . .
329(10) . . .
300(9) . . .
308(9) . . .
295(9) . . .
283(9) . . .
286(9) . . .
276(9) . . .
301(9) . . .
306(10) . . .
321(10) . . .
320(10) . . .
316(9) . . .
314(9) . . .
315(9) . . .
302(9) . . .
300(9) . . .
331(9) . . .
306(9) . . .
271(9) . . .
319(10) . . .
306(9) . . .
283(9) . . .
309(9) . . .
312(10) . . .
288(9) . . .
306(9) . . .
331(9) . . .
290(9) . . .
294(9) . . .
321(10) . . .
307(9) . . .
306(9) . . .
306(9) . . .
324(10) . . .
307(10) . . .
314(9) . . .
304(9) . . .
301(9) . . .
314(10) . . .
296(9) . . .
302(9) . . .
325(9) . . .
327(10) . . .
305(9) . . .
301(9) . . .
321(10) . . .
312(9) . . .
315(9) . . .
316(10) . . .
301(9) . . .
316(10) . . .
309(9) . . .
291(9) . . .
329(10) . . .
323(9) . . .
344(10) . . .
294(9) . . .
307(9) . . .
298(10) . . .
293(9) . . .
316(9) . . .
296(9) . . .
299(9) . . .
315(10) . . .
309(10) . . .
305(9) . . .
322(9) . . .
323(10) . . .
314(10) . . .
304(9) . . .
283(9) . . .
293(9) . . .
291(9) . . .
320(10) . . .
302(9) . . .
300(9) . . .
292(9) . . .
310(9) . . .
312(10) . . .
310(10) . . .
303(9) . . .
299(9) . . .
290(9) . . .
287(9) . . .
309(9) . . .
301(9) . . .
296(9) . . .
301(9) . . .
289(9) . . .
315(10) . . .
348(10) . . .
301(9) . . .
299(9) . . .
287(9) . . .
292(9) . . .
290(9) . . .
310(9) . . .
301(9) . . .
294(10) . . .
297(9) . . .
297(9) . . .
307(9) . . .
311(10) . . .
276(9) . . .
284(9) . . .
286(9) . . .
286(9) . . .
310(10) . . .
299(9) . . .
293(9) . . .
306(9) . . .
292(9) . . .
292(9) . . .
287(9) . . .
304(9) . . .
321(9) . . .
324(10) . . .
308(10) . . .
313(10) . . .
317(9) . . .
333(9) . . .
330(10) . . .
308(10) . . .
336(10) . . .
342(10) . . .
362(10) . . .
334(10) . . .
335(10) . . .
341(10) . . .
333(9) . . .
300(9) . . .
300(9) . . .
332(10) . . .
286(9) . . .
282(9) . . .
283(9) . . .
317(9) . . .
276(9) . . .
307(9) . . .
298(9) . . .
286(9) . . .
267(9) . . .
306(10) . . .
286(9) . . .
299(9) . . .
288(9) . . .
299(9) . . .
312(10) . . .
299(9) . . .
306(9) . . .
305(9) . . .
297(9) . . .
305(9) . . .
307(9) . . .
329(9) . . .
288(9) . . .
327(10) . . .
340(10) . . .
319(9) . . .
330(9) . . .
322(10) . . .
350(10) . . .
342(10) . . .
342(10) . . .
323(9) . . .
347(10) . . .
325(10) . . .
319(10) . . .
329(9) . . .
292(9) . . .
322(9) . . .
313(10) . . .
319(10) . . .
315(9) . . .
275(9) . . .
286(9) . . .
280(9) . . .
290(9) . . .
318(9) . . .
309(9) . . .
306(9) . . .
307(10) . . .
302(9) . . .
310(9) . . .
305(9) . . .
315(10) . . .
285(9) . . .
275(9) . . .
285(9) . . .
282(9) . . .
303(10) . . .
275(9) . . .
305(9) . . .
298(9) . . .
287(9) . . .
280(9) . . .
292(9) . . .
278(9) . . .
312(9) . . .
291(9) . . .
266(9) . . .
286(9) . . .
293(9) . . .
292(9) . . .
300(9) . . .
284(9) . . .
285(9) . . .
299(9) . . .
307(9) . . .
290(9) . . .
267(9) . . .
279(9) . . .
317(9) . . .
280(9) . . .
281(9) . . .
284(9) . . .
289(9) . . .
299(9) . . .
277(9) . . .
275(9) . . .
285(9) . . .
304(9) . . .
284(9) . . .
293(9) . . .
303(9) . . .
293(9) . . .
299(9) . . .
305(9) . . .
290(9) . . .
278(9) . . .
273(9) . . .
277(9) . . .
320(9) . . .
297(9) . . .
260(9) . . .
279(9) . . .
287(9) . . .
272(9) . . .
276(9) . . .
284(9) . . .
287(9) . . .
284(9) . . .
277(9) . . .
274(9) . . .
289(9) . . .
306(10) . . .
289(9) . . .
264(8) . . .
283(9) . . .
285(9) . . .
293(9) . . .
270(9) . . .
283(9) . . .
287(9) . . .
276(9) . . .
293(9) . . .
296(9) . . .
285(9) . . .
272(9) . . .
270(9) . . .
289(9) . . .
306(9) . . .
308(9) . . .
291(9) . . .
279(9) . . .
296(9) . . .
292(9) . . .
282(9) . . .
280(9) . . .
272(9) . . .
290(9) . . .
302(9) . . .
308(9) . . .
324(10) . . .
318(10) . . .
309(9) . . .
330(10) . . .
304(9) . . .
315(10) . . .
334(10) . . .
320(10) . . .
309(9) . . .
279(9) . . .
294(9) . . .
310(10) . . .
300(9) . . .
305(9) . . .
310(9) . . .
324(10) . . .
334(10) . . .
286(9) . . .
313(9) . . .
298(9) . . .
302(9) . . .
308(10) . . .
325(10) . . .
312(9) . . .
323(10) . . .
298(9) . . .
315(10) . . .
311(9) . . .
323(9) . . .
290(9) . . .
331(10) . . .
312(10) . . .
302(9) . . .
310(9) . . .
317(9) . . .
350(10) . . .
350(10) . . .
359(10) . . .
313(9) . . .
342(10) . . .
318(10) . . .
345(10) . . .
333(10) . . .
347(10) . . .
337(10) . . .
326(10) . . .
340(10) . . .
337(10) . . .
319(9) . . .
345(10) . . .
363(11) . . .
339(10) . . .
312(9) . . .
317(9) . . .
308(9) . . .
331(10) . . .
281(9) . . .
316(9) . . .
302(9) . . .
313(9) . . .
305(10) . . .
295(9) . . .
301(9) . . .
283(9) . . .
289(9) . . .
285(9) . . .
296(9) . . .
295(9) . . .
305(9) . . .
302(9) . . .
286(9) . . .
293(9) . . .
275(9) . . .
266(9) . . .
303(9) . . .
286(9) . . .
273(9) . . .
312(9) . . .
282(9) . . .
302(9) . . .
283(9) . . .
287(9) . . .
263(8) . . .
272(9) . . .
283(9) . . .
258(9) . . .
252(8) . . .
257(8) . . .
267(9) . . .
291(9) . . .
256(9) . . .
253(8) . . .
278(9) . . .
295(9) . . .
258(9) . . .
270(9) . . .
247(8) . . .
263(8) . . .
250(9) . . .
249(9) . . .
268(9) . . .
282(9) . . .
270(9) . . .
274(9) . . .
263(9) . . .
268(9) . . .
272(9) . . .
254(8) . . .
267(9) . . .
277(9) . . .
286(9) . . .
277(9) . . .
284(9) . . .
271(9) . . .
257(9) . . .
267(9) . . .
258(8) . . .
252(8) . . .
245(8) . . .
243(8) . . .
235(8) . . .
244(8) . . .
265(9) . . .
250(9) . . .
255(8) . . .
261(9) . . .
276(9) . . .
275(9) . . .
282(9) . . .
274(9) . . .
251(8) . . .
252(8) . . .
269(9) . . .
264(9) . . .
267(9) . . .
239(8) . . .
257(8) . . .
275(9) . . .
275(9) . . .
264(9) . . .
277(9) . . .
271(9) . . .
284(9) . . .
249(9) . . .
274(9) . . .
284(9) . . .
276(9) . . .
268(9) . . .
282(10) . . .
275(9) . . .
236(8) . . .
258(8) . . .
257(9) . . .
238(9) . . .
263(9) . . .
271(9) . . .
286(9) . . .
274(9) . . .
252(9) . . .
278(9) . . .
258(8) . . .
266(9) . . .
258(9) . . .
283(9) . . .
292(9) . . .
267(8) . . .
264(9) . . .
282(9) . . .
284(9) . . .
284(9) . . .
260(8) . . .
282(9) . . .
264(9) . . .
268(9) . . .
271(9) . . .
262(8) . . .
289(9) . . .
281(9) . . .
270(9) . . .
264(9) . . .
264(8) . . .
265(9) . . .
276(9) . . .
292(9) . . .
283(9) . . .
270(9) . . .
268(9) . . .
290(9) . . .
276(9) . . .
267(9) . . .
269(8) . . .
227(8) . . .
255(9) . . .
278(9) . . .
286(9) . . .
281(9) . . .
276(9) . . .
260(9) . . .
276(9) . . .
283(9) . . .
261(8) . . .
267(9) . . .
258(9) . . .
261(9) . . .
251(8) . . .
259(8) . . .
296(9) . . .
261(9) . . .
236(8) . . .
268(8) . . .
286(9) . . .
261(9) . . .
283(9) . . .
280(9) . . .
256(8) . . .
262(8) . . .
263(9) . . .
255(9) . . .
232(8) . . .
276(9) . . .
268(9) . . .
259(9) . . .
269(9) . . .
248(8) . . .
252(8) . . .
260(8) . . .
275(9) . . .
265(9) . . .
240(8) . . .
261(8) . . .
243(8) . . .
252(9) . . .
292(9) . . .
280(9) . . .
235(8) . . .
256(9) . . .
288(9) . . .
262(9) . . .
283(9) . . .
252(8) . . .
246(8) . . .
250(9) . . .
260(9) . . .
233(8) . . .
236(8) . . .
243(8) . . .
269(9) . . .
247(8) . . .
265(8) . . .
247(8) . . .
261(9) . . .
276(9) . . .
251(8) . . .
260(8) . . .
240(8) . . .
246(8) . . .
257(9) . . .
233(8) . . .
250(8) . . .
239(8) . . .
265(9) . . .
259(9) . . .
267(9) . . .
246(8) . . .
263(9) . . .
246(8) . . .
280(9) . . .
261(9) . . .
252(8) . . .
253(8) . . .
271(9) . . .
266(9) . . .
244(8) . . .
253(8) . . .
245(8) . . .
245(8) . . .
278(9) . . .
249(8) . . .
248(8) . . .
232(8) . . .
248(8) . . .
249(8) . . .
251(8) . . .
244(8) . . .
256(9) . . .
256(9) . . .
257(9) . . .
267(9) . . .
272(9) . . .
248(9) . . .
259(9) . . .
272(9) . . .
280(9) . . .
253(8) . . .
262(9) . . .
252(9) . . .
254(8) . . .
254(8) . . .
236(8) . . .
265(9) . . .
278(9) . . .
238(8) . . .
259(9) . . .
252(8) . . .
258(9) . . .
255(9) . . .
288(9) . . .
274(9) . . .
258(8) . . .
259(9) . . .
248(9) . . .
245(8) . . .
261(8) . . .
248(8) . . .
264(9) . . .
270(9) . . .
260(9) . . .
257(8) . . .
230(8) . . .
214(8) . . .
242(9) . . .
253(9) . . .
246(8) . . .
241(8) . . .
273(9) . . .
288(9) . . .
257(8) . . .
245(8) . . .
259(9) . . .
250(9) . . .
234(8) . . .
245(8) . . .
261(8) . . .
244(8) . . .
263(9) . . .
265(9) . . .
239(8) . . .
251(8) . . .
248(8) . . .
244(9) . . .
231(8) . . .
231(8) . . .
263(8) . . .
252(9) . . .
249(9) . . .
266(9) . . .
249(8) . . .
259(8) . . .
281(9) . . .
249(9) . . .
260(9) . . .
238(8) . . .
227(8) . . .
232(8) . . .
257(9) . . .
235(8) . . .
244(8) . . .
258(8) . . .
245(8) . . .
223(8) . . .
253(9) . . .
243(8) . . .
240(8) . . .
232(8) . . .
244(9) . . .
250(9) . . .
239(8) . . .
249(8) . . .
259(9) . . .
222(8) . . .
244(8) . . .
206(7) . . .
223(8) . . .
243(8) . . .
254(9) . . .
250(9) . . .
247(8) . . .
263(8) . . .
243(8) . . .
251(9) . . .
247(8) . . .
250(8) . . .
248(8) . . .
241(8) . . .
227(8) . . .
242(8) . . .
224(8) . . .
245(8) . . .
269(9) . . .
249(8) . . .
241(8) . . .
234(8) . . .
238(8) . . .
224(8) . . .
258(9) . . .
253(8) . . .
253(8) . . .
244(8) . . .
267(9) . . .
239(8) . . .
235(8) . . .
249(8) . . .
243(8) . . .
243(8) . . .
247(9) . . .
224(8) . . .
274(9) . . .
237(8) . . .
271(9) . . .
242(8) . . .
251(8) . . .
239(8) . . .
253(8) . . .
241(9) . . .
234(8) . . .
249(8) . . .
250(8) . . .
256(9) . . .
213(8) . . .
221(8) . . .
237(8) . . .
247(8) . . .
257(9) . . .
233(8) . . .
254(8) . . .
252(8) . . .
236(8) . . .
255(9) . . .
240(8) . . .
228(8) . . .
253(8) . . .
266(9) . . .
229(8) . . .
219(8) . . .
235(8) . . .
222(8) . . .
242(8) . . .
249(9) . . .
244(8) . . .
240(8) . . .
252(8) . . .
248(8) . . .
227(8) . . .
240(8) . . .
207(7) . . .
230(8) . . .
249(8) . . .
256(9) . . .
258(9) . . .
261(9) . . .
244(8) . . .
250(8) . . .
238(9) . . .
229(8) . . .
232(8) . . .
251(8) . . .
229(8) . . .
241(9) . . .
255(9) . . .
240(8) . . .
242(8) . . .
221(8) . . .
224(8) . . .
220(8) . . .
243(8) . . .
233(8) . . .
263(9) . . .
252(9) . . .
246(8) . . .
227(8) . . .
241(8) . . .
248(9) . . .
246(8) . . .
231(8) . . .
245(8) . . .
243(8) . . .
250(9) . . .
262(9) . . .
232(8) . . .
211(8) . . .
224(8) . . .
263(9) . . .
233(8) . . .
244(8) . . .
242(8) . . .
253(9) . . .
233(8) . . .
258(9) . . .
257(9) . . .
260(8) . . .
290(9) . . .
286(9) . . .
280(9) . . .
278(9) . . .
305(9) . . .
293(9) . . .
277(9) . . .
288(9) . . .
247(8) . . .
258(8) . . .
243(8) . . .
262(9) . . .
253(8) . . .
284(9) . . .
247(8) . . .
246(8) . . .
241(9) . . .
244(8) . . .
248(8) . . .
255(8) . . .
255(9) . . .
271(9) . . .
252(9) . . .
245(8) . . .
262(9) . . .
266(9) . . .
259(9) . . .
240(8) . . .
272(8) . . .
277(9) . . .
284(9) . . .
257(9) . . .
269(9) . . .
268(8) . . .
252(8) . . .
251(8) . . .
261(9) . . .
252(8) . . .
272(9) . . .
258(8) . . .
252(9) . . .
241(9) . . .
247(8) . . .
258(8) . . .
251(8) . . .
266(9) . . .
244(8) . . .
231(8) . . .
244(8) . . .
244(8) . . .
252(9) . . .
240(8) . . .
234(8) . . .
242(8) . . .
231(8) . . .
206(8) . . .
247(9) . . .
238(8) . . .
256(8) . . .
260(9) . . .
236(9) . . .
232(8) . . .
251(8) . . .
258(8) . . .
262(9) . . .
263(9) . . .
240(8) . . .
251(8) . . .
248(8) . . .
230(8) . . .
255(9) . . .
243(8) . . .
222(8) . . .
232(8) . . .
244(8) . . .
248(9) . . .
248(8) . . .
243(8) . . .
261(9) . . .
234(8) . . .
258(9) . . .
215(8) . . .
249(8) . . .
250(8) . . .
241(8) . . .
253(9) . . .
256(9) . . .
269(9) . . .
267(9) . . .
263(9) . . .
258(9) . . .
260(8) . . .
272(9) . . .
286(9) . . .
298(9) . . .
283(9) . . .
290(9) . . .
293(9) . . .
283(9) . . .
275(9) . . .
270(9) . . .
297(9) . . .
259(8) . . .
281(9) . . .
265(9) . . .
253(8) . . .
261(8) . . .
278(9) . . .
276(9) . . .
259(9) . . .
255(9) . . .
264(9) . . .
274(8) . . .
261(9) . . .
255(9) . . .
268(9) . . .
254(8) . . .
242(8) . . .
251(9) . . .
246(8) . . .
271(9) . . .
273(9) . . .
251(8) . . .
229(8) . . .
245(9) . . .
257(9) . . .
244(8) . . .
247(8) . . .
257(9) . . .
252(9) . . .
272(9) . . .
236(8) . . .
252(8) . . .
258(9) . . .
236(8) . . .
261(9) . . .
254(8) . . .
260(9) . . .
250(9) . . .
248(9) . . .
251(8) . . .
241(8) . . .
252(8) . . .
235(8) . . .
240(8) . . .
230(8) . . .
247(8) . . .
235(8) . . .
250(9) . . .
238(8) . . .
249(8) . . .
213(8) . . .
250(8) . . .
254(9) . . .
232(8) . . .
243(8) . . .
239(8) . . .
225(8) . . .
251(9) . . .
228(8) . . .
240(8) . . .
246(8) . . .
235(8) . . .
225(8) . . .
218(8) . . .
234(8) . . .
244(8) . . .
235(8) . . .
255(9) . . .
238(8) . . .
245(8) . . .
236(8) . . .
262(9) . . .
246(8) . . .
241(8) . . .
247(8) . . .
233(8) . . .
233(8) . . .
229(8) . . .
228(8) . . .
214(8) . . .
231(8) . . .
241(9) . . .
224(8) . . .
239(8) . . .
247(8) . . .
265(9) . . .
235(8) . . .
256(9) . . .
244(8) . . .
229(8) . . .
242(8) . . .
245(9) . . .
235(8) . . .
242(8) . . .
248(8) . . .
213(8) . . .
236(9) . . .
230(8) . . .
233(8) . . .
227(8) . . .
227(8) . . .
230(8) . . .
220(8) . . .
250(8) . . .
226(8) . . .
222(8) . . .
221(8) . . .
220(8) . . .
231(8) . . .
230(8) . . .
230(8) . . .
244(9) . . .
233(8) . . .
236(8) . . .
246(8) . . .
244(8) . . .
238(9) . . .
232(8) . . .
232(8) . . .
236(8) . . .
224(8) . . .
226(8) . . .
225(8) . . .
218(8) . . .
227(8) . . .
228(8) . . .
228(8) . . .
236(8) . . .
232(8) . . .
228(8) . . .
238(8) . . .
224(8) . . .
253(9) . . .
244(8) . . .
231(8) . . .
248(9) . . .
244(8) . . .
229(8) . . .
231(8) . . .
222(8) . . .
236(8) . . .
228(8) . . .
240(8) . . .
230(8) . . .
215(8) . . .
254(9) . . .
235(8) . . .
213(8) . . .
218(8) . . .
227(8) . . .
211(8) . . .
238(8) . . .
237(8) . . .
231(8) . . .
234(8) . . .
211(8) . . .
220(8) . . .
239(8) . . .
247(8) . . .
223(8) . . .
212(8) . . .
234(8) . . .
225(8) . . .
231(8) . . .
251(9) . . .
223(8) . . .
229(8) . . .
211(7) . . .
209(8) . . .
216(8) . . .
220(8) . . .
211(8) . . .
249(8) . . .
210(8) . . .
206(8) . . .
227(8) . . .
220(8) . . .
217(8) . . .
216(8) . . .
211(8) . . .
213(8) . . .
229(8) . . .
226(8) . . .
225(8) . . .
223(8) . . .
216(8) . . .
193(8) . . .
214(8) . . .
239(8) . . .
229(8) . . .
233(8) . . .
208(8) . . .
210(8) . . .
202(7) . . .
222(8) . . .
263(9) . . .
237(8) . . .
239(8) . . .
219(8) . . .
229(8) . . .
228(8) . . .
241(8) . . .
223(8) . . .
225(8) . . .
242(9) . . .
226(8) . . .
214(8) . . .
214(8) . . .
250(9) . . .
222(8) . . .
216(8) . . .
203(7) . . .
210(7) . . .
221(8) . . .
224(8) . . .
221(8) . . .
220(8) . . .
226(8) . . .
234(8) . . .
221(8) . . .
221(8) . . .
205(7) . . .
222(8) . . .
237(8) . . .
233(8) . . .
223(8) . . .
205(7) . . .
225(8) . . .
234(8) . . .
222(8) . . .
199(7) . . .
225(8) . . .
222(8) . . .
219(8) . . .
224(8) . . .
204(8) . . .
243(8) . . .
222(8) . . .
235(8) . . .
236(8) . . .
252(8) . . .
230(8) . . .
238(8) . . .
263(9) . . .
222(8) . . .
217(8) . . .
241(8) . . .
233(8) . . .
249(9) . . .
240(8) . . .
256(8) . . .
253(8) . . .
224(8) . . .
225(8) . . .
233(8) . . .
213(8) . . .
242(8) . . .
240(8) . . .
242(8) . . .
261(9) . . .
245(8) . . .
263(8) . . .
227(8) . . .
234(8) . . .
225(8) . . .
216(8) . . .
214(7) . . .
229(8) . . .
202(8) . . .
215(8) . . .
207(7) . . .
221(8) . . .
214(8) . . .
213(8) . . .
232(8) . . .
226(8) . . .
242(8) . . .
233(8) . . .
228(8) . . .
228(8) . . .
238(8) . . .
224(8) . . .
230(8) . . .
208(8) . . .
215(8) . . .
222(8) . . .
233(8) . . .
230(8) . . .
213(8) . . .
207(8) . . .
225(8) . . .
224(8) . . .
237(9) . . .
197(8) . . .
223(8) . . .
193(7) . . .
210(8) . . .
197(8) . . .
234(8) . . .
236(8) . . .
235(8) . . .
216(8) . . .
217(8) . . .
202(8) . . .
198(7) . . .
211(8) . . .
214(8) . . .
216(8) . . .
219(8) . . .
218(8) . . .
190(7) . . .
213(8) . . .
231(8) . . .
218(8) . . .
218(8) . . .
205(7) . . .
229(8) . . .
228(8) . . .
224(8) . . .
206(7) . . .
225(8) . . .
231(8) . . .
229(9) . . .
228(8) . . .
215(8) . . .
216(8) . . .
213(8) . . .
204(8) . . .
228(8) . . .
227(8) . . .
212(8) . . .
223(8) . . .
200(8) . . .
211(8) . . .
211(8) . . .
218(8) . . .
224(8) . . .
231(8) . . .
231(8) . . .
211(8) . . .
213(8) . . .
211(8) . . .
202(8) . . .
204(7) . . .
207(7) . . .
232(8) . . .
225(8) . . .
223(8) . . .
234(8) . . .
243(8) . . .
215(8) . . .
214(8) . . .
210(8) . . .
217(8) . . .
236(8) . . .
227(8) . . .
228(8) . . .
201(8) . . .
213(8) . . .
215(8) . . .
213(8) . . .
234(8) . . .
185(7) . . .
208(8) . . .
215(8) . . .
211(8) . . .
240(9) . . .
234(9) . . .
212(8) . . .
231(8) . . .
242(8) . . .
198(8) . . .
205(8) . . .
212(8) . . .
222(8) . . .
221(8) . . .
206(8) . . .
215(8) . . .
246(8) . . .
229(8) . . .
221(8) . . .
210(8) . . .
217(8) . . .
213(8) . . .
219(8) . . .
203(8) . . .
212(8) . . .
211(8) . . .
217(8) . . .
219(8) . . .
202(8) . . .
210(8) . . .
228(8) . . .
206(7) . . .
236(8) . . .
212(8) . . .
224(8) . . .
217(8) . . .
216(8) . . .
235(8) . . .
206(8) . . .
211(8) . . .
218(8) . . .
217(8) . . .
212(8) . . .
212(8) . . .
217(8) . . .
231(8) . . .
204(7) . . .
232(8) . . .
223(8) . . .
208(8) . . .
212(8) . . .
210(7) . . .
221(8) . . .
237(9) . . .
244(8) . . .
219(8) . . .
234(8) . . .
233(8) . . .
226(9) . . .
212(8) . . .
222(8) . . .
221(8) . . .
220(8) . . .
236(8) . . .
230(8) . . .
200(7) . . .
231(8) . . .
250(9) . . .
245(9) . . .
244(9) . . .
242(8) . . .
243(8) . . .
251(9) . . .
228(8) . . .
221(8) . . .
247(8) . . .
252(8) . . .
242(8) . . .
244(8) . . .
248(8) . . .
244(8) . . .
248(8) . . .
260(9) . . .
263(9) . . .
242(8) . . .
251(8) . . .
246(8) . . .
251(9) . . .
265(9) . . .
245(8) . . .
240(8) . . .
261(9) . . .
268(9) . . .
256(9) . . .
259(8) . . .
245(8) . . .
251(8) . . .
230(8) . . .
241(8) . . .
233(8) . . .
225(8) . . .
218(8) . . .
197(8) . . .
226(8) . . .
220(8) . . .
250(8) . . .
222(8) . . .
199(8) . . .
210(8) . . .
225(8) . . .
222(8) . . .
209(8) . . .
215(8) . . .
208(8) . . .
237(8) . . .
212(8) . . .
216(8) . . .
209(8) . . .
236(8) . . .
203(7) . . .
239(8) . . .
215(8) . . .
222(8) . . .
208(8) . . .
210(8) . . .
218(8) . . .
205(8) . . .
218(8) . . .
208(8) . . .
220(8) . . .
205(8) . . .
214(8) . . .
202(7) . . .
222(8) . . .
231(8) . . .
214(8) . . .
238(8) . . .
208(8) . . .
229(8) . . .
216(8) . . .
217(8) . . .
212(8) . . .
208(8) . . .
214(8) . . .
213(8) . . .
237(8) . . .
212(8) . . .
216(8) . . .
208(8) . . .
199(7) . . .
204(8) . . .
202(8) . . .
214(8) . . .
200(7) . . .
221(8) . . .
218(8) . . .
234(9) . . .
202(8) . . .
209(7) . . .
228(8) . . .
218(8) . . .
209(8) . . .
213(8) . . .
214(8) . . .
238(8) . . .
219(8) . . .
221(8) . . .
212(8) . . .
207(7) . . .
233(8) . . .
208(8) . . .
210(8) . . .
225(8) . . .
203(7) . . .
222(8) . . .
227(8) . . .
191(7) . . .
209(8) . . .
224(8) . . .
216(8) . . .
225(8) . . .
241(8) . . .
213(8) . . .
226(8) . . .
223(8) . . .
200(8) . . .
241(9) . . .
222(8) . . .
211(8) . . .
214(8) . . .
218(8) . . .
206(8) . . .
204(7) . . .
205(7) . . .
226(8) . . .
209(8) . . .
205(8) . . .
212(8) . . .
217(8) . . .
192(8) . . .
194(8) . . .
228(8) . . .
222(8) . . .
214(8) . . .
216(8) . . .
227(9) . . .
192(7) . . .
222(8) . . .
224(8) . . .
220(8) . . .
200(8) . . .
215(8) . . .
217(8) . . .
216(8) . . .
218(8) . . .
219(8) . . .
219(8) . . .
196(7) . . .
216(8) . . .
233(8) . . .
242(8) . . .
223(8) . . .
218(8) . . .
201(8) . . .
209(8) . . .
209(8) . . .
207(8) . . .
205(7) . . .
201(7) . . .
205(8) . . .
216(8) . . .
221(8) . . .
202(7) . . .
204(8) . . .
204(8) . . .
210(8) . . .
214(8) . . .
208(7) . . .
244(9) . . .
209(8) . . .
220(8) . . .
197(7) . . .
215(8) . . .
229(8) . . .
217(8) . . .
233(8) . . .
223(8) . . .
199(7) . . .
222(8) . . .
205(8) . . .
211(8) . . .
222(8) . . .
205(8) . . .
177(7) . . .
208(8) . . .
223(8) . . .
218(8) . . .
210(8) . . .
219(8) . . .
203(8) . . .
213(8) . . .
192(7) . . .
224(8) . . .
226(8) . . .
204(8) . . .
220(8) . . .
209(8) . . .
189(7) . . .
198(7) . . .
224(8) . . .
221(8) . . .
203(7) . . .
211(8) . . .
217(8) . . .
203(8) . . .
212(8) . . .
210(8) . . .
225(8) . . .
212(8) . . .
219(8) . . .
210(8) . . .
250(8) . . .
248(8) . . .
231(8) . . .
241(8) . . .
247(8) . . .
246(8) . . .
240(8) . . .
226(8) . . .
220(8) . . .
245(8) . . .
250(8) . . .
259(8) . . .
261(9) . . .
238(8) . . .
222(8) . . .
247(8) . . .
240(8) . . .
244(8) . . .
233(8) . . .
237(8) . . .
224(8) . . .
232(8) . . .
215(8) . . .
206(8) . . .
209(8) . . .
218(8) . . .
214(8) . . .
217(9) . . .
230(8) . . .
220(8) . . .
206(7) . . .
201(8) . . .
205(8) . . .
232(8) . . .
211(8) . . .
229(8) . . .
252(9) . . .
203(8) . . .
206(8) . . .
220(8) . . .
199(7) . . .
216(8) . . .
225(8) . . .
210(8) . . .
219(8) . . .
229(8) . . .
211(8) . . .
217(8) . . .
193(7) . . .
211(8) . . .
233(8) . . .
225(8) . . .
206(8) . . .
233(8) . . .
232(8) . . .
227(8) . . .
215(8) . . .
222(8) . . .
222(8) . . .
215(8) . . .
200(8) . . .
225(8) . . .
243(8) . . .
235(8) . . .
233(8) . . .
238(8) . . .
247(9) . . .
216(8) . . .
226(8) . . .
246(8) . . .
243(8) . . .
225(8) . . .
243(9) . . .
226(8) . . .
215(8) . . .
211(8) . . .
212(8) . . .
209(8) . . .
227(8) . . .
202(7) . . .
228(8) . . .
222(8) . . .
232(8) . . .
192(7) . . .
230(8) . . .
232(8) . . .
227(8) . . .
223(8) . . .
228(8) . . .
235(8) . . .
215(8) . . .
240(9) . . .
213(8) . . .
225(8) . . .
231(8) . . .
229(8) . . .
212(8) . . .
218(8) . . .
211(8) . . .
213(8) . . .
203(8) . . .
208(8) . . .
233(8) . . .
215(8) . . .
212(8) . . .
213(8) . . .
220(8) . . .
228(8) . . .
221(8) . . .
221(8) . . .
204(8) . . .
221(8) . . .
183(7) . . .
228(8) . . .
228(8) . . .
213(8) . . .
226(8) . . .
234(8) . . .
197(7) . . .
215(8) . . .
203(8) . . .
223(8) . . .
229(8) . . .
215(8) . . .
218(8) . . .
250(9) . . .
256(9) . . .
221(8) . . .
252(8) . . .
273(9) . . .
251(9) . . .
241(8) . . .
240(8) . . .
236(8) . . .
248(8) . . .
242(8) . . .
237(8) . . .
240(8) . . .
230(8) . . .
219(8) . . .
222(8) . . .
196(8) . . .
227(8) . . .
233(8) . . .
229(8) . . .
225(8) . . .
212(8) . . .
233(8) . . .
209(8) . . .
189(7) . . .
225(8) . . .
246(8) . . .
224(8) . . .
221(8) . . .
245(9) . . .
226(8) . . .
224(8) . . .
222(8) . . .
226(8) . . .
210(8) . . .
228(8) . . .
240(8) . . .
234(8) . . .
233(8) . . .
196(8) . . .
220(8) . . .
229(8) . . .
218(8) . . .
214(8) . . .
234(9) . . .
205(8) . . .
207(8) . . .
212(8) . . .
204(8) . . .
204(8) . . .
219(8) . . .
207(7) . . .
215(8) . . .
198(7) . . .
214(8) . . .
227(8) . . .
215(8) . . .
204(7) . . .
200(7) . . .
223(8) . . .
216(8) . . .
211(7) . . .
197(7) . . .
220(8) . . .
210(8) . . .
219(8) . . .
196(7) . . .
196(7) . . .
183(7) . . .
200(8) . . .
224(8) . . .
200(7) . . .
206(8) . . .
202(8) . . .
226(8) . . .
206(8) . . .
222(8) . . .
219(8) . . .
233(8) . . .
219(8) . . .
206(8) . . .
219(8) . . .
205(8) . . .
222(8) . . .
197(8) . . .
203(8) . . .
199(7) . . .
212(8) . . .
211(8) . . .
198(7) . . .
221(8) . . .
212(7) . . .
211(8) . . .
205(8) . . .
203(8) . . .
212(8) . . .
216(8) . . .
207(8) . . .
227(8) . . .
207(8) . . .
200(7) . . .
205(7) . . .
191(7) . . .
199(8) . . .
209(8) . . .
213(8) . . .
210(8) . . .
195(7) . . .
221(8) . . .
221(8) . . .
210(8) . . .
212(8) . . .
196(7) . . .
221(8) . . .
229(8) . . .
198(7) . . .
210(8) . . .
218(8) . . .
198(8) . . .
208(8) . . .
206(7) . . .
234(8) . . .
210(8) . . .
224(8) . . .
211(8) . . .
214(8) . . .
210(8) . . .
221(8) . . .
191(7) . . .
207(8) . . .
197(7) . . .
237(8) . . .
222(8) . . .
208(8) . . .
189(7) . . .
191(7) . . .
211(8) . . .
227(8) . . .
220(8) . . .
195(7) . . .
233(8) . . .
226(8) . . .
215(8) . . .
232(8) . . .
200(8) . . .
211(7) . . .
219(8) . . .
223(8) . . .
219(8) . . .
228(8) . . .
242(8) . . .
237(8) . . .
225(8) . . .
230(8) . . .
229(8) . . .
234(8) . . .
256(9) . . .
259(9) . . .
258(9) . . .
253(8) . . .
252(8) . . .
256(9) . . .
274(9) . . .
255(9) . . .
257(8) . . .
236(8) . . .
263(9) . . .
245(8) . . .
253(9) . . .
253(8) . . .
236(8) . . .
226(8) . . .
221(8) . . .
256(9) . . .
229(8) . . .
234(8) . . .
222(8) . . .
222(8) . . .
221(8) . . .
232(8) . . .
206(8) . . .
232(8) . . .
224(8) . . .
235(8) . . .
224(8) . . .
213(8) . . .
219(8) . . .
224(8) . . .
223(8) . . .
226(8) . . .
217(8) . . .
214(8) . . .
217(8) . . .
216(8) . . .
203(7) . . .
201(8) . . .
206(8) . . .
214(8) . . .
205(7) . . .
189(7) . . .
210(8) . . .
215(8) . . .
215(8) . . .
204(7) . . .
198(7) . . .
195(7) . . .
220(8) . . .
229(8) . . .
210(8) . . .
224(8) . . .
208(8) . . .
197(8) . . .
211(8) . . .
221(8) . . .
205(7) . . .
201(8) . . .
198(8) . . .
209(8) . . .
213(8) . . .
217(8) . . .
212(8) . . .
215(8) . . .
208(8) . . .
218(8) . . .
205(8) . . .
183(7) . . .
200(8) . . .
202(8) . . .
212(8) . . .
199(8) . . .
186(8) . . .
183(7) . . .
209(8) . . .
223(8) . . .
201(8) . . .
197(8) . . .
202(8) . . .
233(8) . . .
224(8) . . .
228(8) . . .
226(8) . . .
221(8) . . .
226(8) . . .
215(8) . . .
199(7) . . .
218(8) . . .
225(8) . . .
194(7) . . .
206(8) . . .
205(7) . . .
226(8) . . .
208(8) . . .
194(7) . . .
196(7) . . .
220(8) . . .
224(8) . . .
217(8) . . .
187(7) . . .
201(7) . . .
212(8) . . .
214(8) . . .
207(8) . . .
247(8) . . .
236(8) . . .
219(8) . . .
229(8) . . .
218(8) . . .
203(7) . . .
209(8) . . .
202(8) . . .
207(8) . . .
206(8) . . .
205(7) . . .
228(8) . . .
196(7) . . .
192(7) . . .
227(8) . . .
213(8) . . .
222(8) . . .
218(8) . . .
210(8) . . .
200(8) . . .
196(7) . . .
210(8) . . .
229(8) . . .
214(8) . . .
208(8) . . .
203(7) . . .
216(8) . . .
217(8) . . .
209(8) . . .
220(8) . . .
210(8) . . .
242(8) . . .
237(8) . . .
225(8) . . .
220(8) . . .
230(8) . . .
226(8) . . .
248(9) . . .
261(9) . . .
278(9) . . .
271(9) . . .
254(9) . . .
250(9) . . .
266(9) . . .
251(8) . . .
252(8) . . .
242(8) . . .
205(8) . . .
217(8) . . .
221(8) . . .
197(7) . . .
219(8) . . .
225(8) . . .
221(8) . . .
228(8) . . .
218(8) . . .
226(8) . . .
197(8) . . .
222(8) . . .
207(7) . . .
224(8) . . .
217(8) . . .
224(8) . . .
216(8) . . .
216(8) . . .
224(8) . . .
212(8) . . .
197(8) . . .
212(8) . . .
219(8) . . .
203(7) . . .
236(9) . . .
210(8) . . .
215(8) . . .
224(8) . . .
215(8) . . .
201(8) . . .
216(8) . . .
194(7) . . .
227(8) . . .
206(8) . . .
215(8) . . .
209(8) . . .
214(8) . . .
196(7) . . .
199(8) . . .
217(8) . . .
220(8) . . .
213(8) . . .
224(8) . . .
219(8) . . .
205(8) . . .
196(8) . . .
194(7) . . .
213(8) . . .
222(8) . . .
217(8) . . .
209(8) . . .
212(8) . . .
215(8) . . .
201(8) . . .
231(9) . . .
210(8) . . .
197(7) . . .
224(8) . . .
222(8) . . .
215(8) . . .
195(7) . . .
223(8) . . .
206(7) . . .
192(7) . . .
217(8) . . .
199(8) . . .
208(7) . . .
218(8) . . .
214(8) . . .
205(8) . . .
195(7) . . .
203(7) . . .
208(8) . . .
213(8) . . .
208(8) . . .
215(8) . . .
222(8) . . .
216(8) . . .
229(8) . . .
214(8) . . .
203(8) . . .
217(8) . . .
231(8) . . .
208(8) . . .
202(8) . . .
221(8) . . .
187(7) . . .
208(8) . . .
200(8) . . .
212(8) . . .
229(8) . . .
211(8) . . .
212(8) . . .
193(8) . . .
203(8) . . .
204(7) . . .
198(7) . . .
187(7) . . .
219(8) . . .
215(8) . . .
214(8) . . .
212(8) . . .
212(8) . . .
205(8) . . .
221(8) . . .
221(8) . . .
209(7) . . .
198(8) . . .
234(8) . . .
225(8) . . .
204(7) . . .
227(8) . . .
205(8) . . .
227(8) . . .
210(8) . . .
204(7) . . .
220(8) . . .
209(8) . . .
191(7) . . .
216(8) . . .
204(7) . . .
196(7) . . .
217(8) . . .
198(7) . . .
209(8) . . .
204(7) . . .
199(8) . . .
202(8) . . .
221(8) . . .
210(8) . . .
222(8) . . .
219(8) . . .
207(8) . . .
223(8) . . .
215(8) . . .
224(8) . . .
203(8) . . .
202(8) . . .
201(8) . . .
213(8) . . .
201(7) . . .
200(8) . . .
231(9) . . .
224(8) . . .
204(7) . . .
215(8) . . .
191(7) . . .
212(8) . . .
201(7) . . .
198(7) . . .
229(8) . . .
184(7) . . .
200(8) . . .
188(7) . . .
221(8) . . .
209(8) . . .
205(8) . . .
197(8) . . .
207(8) . . .
220(8) . . .
202(8) . . .
198(8) . . .
222(8) . . .
217(8) . . .
197(7) . . .
201(8) . . .
185(7) . . .
213(8) . . .
204(8) . . .
215(8) . . .
214(8) . . .
195(8) . . .
188(7) . . .
202(7) . . .
204(7) . . .
195(7) . . .
190(7) . . .
226(8) . . .
210(8) . . .
207(8) . . .
182(7) . . .
205(8) . . .
208(8) . . .
182(7) . . .
203(7) . . .
201(7) . . .
219(8) . . .
237(8) . . .
202(7) . . .
209(7) . . .
224(8) . . .
230(8) . . .
214(8) . . .
202(7) . . .
204(7) . . .
220(8) . . .
193(8) . . .
203(8) . . .
218(8) . . .
238(8) . . .
206(8) . . .
225(8) . . .
202(8) . . .
217(8) . . .
236(8) . . .
240(8) . . .
248(9) . . .
229(8) . . .
235(8) . . .
249(8) . . .
245(8) . . .
236(8) . . .
237(8) . . .
225(8) . . .
237(8) . . .
224(8) . . .
196(7) . . .
224(8) . . .
200(7) . . .
218(8) . . .
248(9) . . .
225(8) . . .
230(8) . . .
230(8) . . .
232(8) . . .
253(9) . . .
232(8) . . .
239(8) . . .
241(8) . . .
247(8) . . .
228(8) . . .
215(8) . . .
221(8) . . .
237(8) . . .
236(8) . . .
247(9) . . .
220(8) . . .
228(8) . . .
234(8) . . .
235(8) . . .
236(9) . . .
233(8) . . .
271(9) . . .
269(9) . . .
253(9) . . .
245(9) . . .
221(8) . . .
258(8) . . .
218(8) . . .
256(9) . . .
247(9) . . .
236(8) . . .
231(8) . . .
239(8) . . .
218(8) . . .
219(8) . . .
236(8) . . .
224(8) . . .
224(8) . . .
228(8) . . .
226(8) . . .
251(9) . . .
202(7) . . .
217(8) . . .
218(8) . . .
202(8) . . .
205(8) . . .
216(8) . . .
215(8) . . .
226(8) . . .
216(8) . . .
206(8) . . .
209(8) . . .
231(8) . . .
211(8) . . .
221(8) . . .
193(8) . . .
210(7) . . .
202(8) . . .
210(8) . . .
212(8) . . .
214(8) . . .
202(7) . . .
229(8) . . .
201(8) . . .
216(8) . . .
188(7) . . .
208(7) . . .
185(7) . . .
199(8) . . .
205(8) . . .
203(7) . . .
199(7) . . .
208(8) . . .
206(8) . . .
204(8) . . .
209(8) . . .
221(8) . . .
209(8) . . .
207(8) . . .
205(8) . . .
202(7) . . .
205(8) . . .
191(8) . . .
203(8) . . .
217(8) . . .
211(7) . . .
218(8) . . .
227(8) . . .
203(8) . . .
188(7) . . .
207(8) . . .
208(8) . . .
199(7) . . .
217(8) . . .
216(8) . . .
215(8) . . .
220(8) . . .
228(8) . . .
210(8) . . .
219(8) . . .
205(7) . . .
223(8) . . .
204(8) . . .
214(8) . . .
224(8) . . .
227(8) . . .
218(8) . . .
226(8) . . .
214(8) . . .
216(8) . . .
218(8) . . .
220(8) . . .
220(8) . . .
205(8) . . .
201(7) . . .
196(7) . . .
212(8) . . .
222(8) . . .
214(8) . . .
193(7) . . .
203(7) . . .
239(8) . . .
209(8) . . .
199(7) . . .
214(8) . . .
193(7) . . .
208(8) . . .
228(9) . . .
213(8) . . .
211(8) . . .
222(8) . . .
220(8) . . .
214(8) . . .
226(8) . . .
199(7) . . .
202(7) . . .
200(8) . . .
197(8) . . .
189(7) . . .
202(7) . . .
205(7) . . .
214(8) . . .
227(8) . . .
229(8) . . .
206(7) . . .
189(7) . . .
191(8) . . .
202(8) . . .
205(8) . . .
219(8) . . .
211(8) . . .
211(8) . . .
204(8) . . .
206(8) . . .
196(7) . . .
203(8) . . .
217(8) . . .
223(8) . . .
197(7) . . .
229(8) . . .
211(8) . . .
234(8) . . .
214(8) . . .
226(8) . . .
226(8) . . .
233(8) . . .
237(8) . . .
204(8) . . .
229(8) . . .
227(8) . . .
222(8) . . .
220(8) . . .
230(8) . . .
188(7) . . .
206(7) . . .
199(7) . . .
208(8) . . .
214(8) . . .
226(8) . . .
218(8) . . .
184(7) . . .
198(8) . . .
230(8) . . .
208(8) . . .
213(8) . . .
207(8) . . .
224(8) . . .
231(8) . . .
220(8) . . .
217(8) . . .
218(8) . . .
226(8) . . .
223(8) . . .
215(8) . . .
214(8) . . .
237(8) . . .
224(8) . . .
231(8) . . .
228(8) . . .
229(8) . . .
213(8) . . .
226(8) . . .
208(8) . . .
198(7) . . .
224(8) . . .
209(8) . . .
213(8) . . .
206(8) . . .
241(8) . . .
204(8) . . .
217(8) . . .
201(7) . . .
225(8) . . .
219(8) . . .
198(8) . . .
223(8) . . .
221(8) . . .
220(8) . . .
222(8) . . .
221(8) . . .
209(8) . . .
206(8) . . .
243(8) . . .
235(8) . . .
223(8) . . .
217(8) . . .
244(9) . . .
217(8) . . .
239(8) . . .
232(8) . . .
250(9) . . .
245(8) . . .
234(8) . . .
235(8) . . .
219(8) . . .
213(8) . . .
207(8) . . .
218(8) . . .
203(7) . . .
214(8) . . .
213(8) . . .
213(8) . . .
210(7) . . .
221(8) . . .
208(8) . . .
197(8) . . .
196(8) . . .
220(8) . . .
207(8) . . .
205(8) . . .
212(8) . . .
214(8) . . .
189(7) . . .
202(8) . . .
209(8) . . .
203(8) . . .
217(8) . . .
192(7) . . .
187(7) . . .
190(8) . . .
173(7) . . .
195(7) . . .
205(7) . . .
224(8) . . .
208(8) . . .
224(8) . . .
229(8) . . .
225(8) . . .
208(8) . . .
236(9) . . .
214(8) . . .
240(8) . . .
229(8) . . .
221(8) . . .
225(8) . . .
208(8) . . .
221(8) . . .
214(8) . . .
226(8) . . .
190(8) . . .
181(7) . . .
200(7) . . .
251(8) . . .
221(8) . . .
214(8) . . .
205(8) . . .
226(8) . . .
222(8) . . .
214(8) . . .
226(8) . . .
214(8) . . .
213(8) . . .
201(7) . . .
205(8) . . .
223(8) . . .
225(8) . . .
218(8) . . .
207(8) . . .
209(8) . . .
204(8) . . .
199(8) . . .
201(7) . . .
235(8) . . .
217(8) . . .
221(8) . . .
190(7) . . .
217(8) . . .
209(8) . . .
210(8) . . .
222(8) . . .
189(7) . . .
214(8) . . .
233(8) . . .
231(8) . . .
206(8) . . .
212(8) . . .
232(8) . . .
211(8) . . .
208(8) . . .
195(7) . . .
214(8) . . .
199(7) . . .
212(8) . . .
199(8) . . .
215(8) . . .
192(7) . . .
216(8) . . .
203(8) . . .
207(8) . . .
188(7) . . .
194(7) . . .
197(7) . . .
192(7) . . .
194(8) . . .
189(7) . . .
193(7) . . .
190(7) . . .
192(8) . . .
202(8) . . .
204(8) . . .
183(7) . . .
186(7) . . .
202(8) . . .
206(8) . . .
204(8) . . .
209(7) . . .
209(8) . . .
211(8) . . .
196(8) . . .
190(7) . . .
206(7) . . .
186(7) . . .
194(8) . . .
221(8) . . .
194(7) . . .
187(7) . . .
200(8) . . .
219(8) . . .
196(8) . . .
202(8) . . .
199(7) . . .
194(7) . . .
206(8) . . .
214(8) . . .
207(8) . . .
214(8) . . .
207(8) . . .
228(8) . . .
194(7) . . .
197(7) . . .
199(7) . . .
212(8) . . .
205(8) . . .
239(8) . . .
220(8) . . .
202(7) . . .
196(7) . . .
195(8) . . .
222(8) . . .
225(8) . . .
213(8) . . .
208(8) . . .
206(8) . . .
247(9) . . .
218(8) . . .
217(8) . . .
212(8) . . .
229(8) . . .
237(8) . . .
227(8) . . .
227(8) . . .
238(8) . . .
209(8) . . .
233(8) . . .
204(7) . . .
209(8) . . .
223(8) . . .
234(8) . . .
239(8) . . .
252(8) . . .
204(8) . . .
227(8) . . .
225(8) . . .
226(8) . . .
219(8) . . .
223(8) . . .
230(8) . . .
212(8) . . .
211(8) . . .
234(8) . . .
221(8) . . .
216(8) . . .
237(8) . . .
215(8) . . .
219(8) . . .
220(8) . . .
213(8) . . .
239(8) . . .
211(8) . . .
211(8) . . .
223(8) . . .
218(8) . . .
221(8) . . .
212(8) . . .
226(8) . . .
211(8) . . .
219(8) . . .
219(8) . . .
191(7) . . .
200(7) . . .
214(8) . . .
200(8) . . .
203(8) . . .
195(7) . . .
220(8) . . .
218(8) . . .
200(8) . . .
194(7) . . .
212(8) . . .
216(8) . . .
213(8) . . .
196(8) . . .
218(8) . . .
215(8) . . .
205(7) . . .
194(7) . . .
215(8) . . .
181(7) . . .
217(8) . . .
205(8) . . .
204(8) . . .
199(7) . . .
199(7) . . .
180(7) . . .
204(8) . . .
213(8) . . .
197(7) . . .
197(7) . . .
215(8) . . .
220(8) . . .
201(8) . . .
222(8) . . .
188(7) . . .
185(7) . . .
192(8) . . .
190(7) . . .
204(8) . . .
208(7) . . .
183(7) . . .
210(8) . . .
192(7) . . .
237(8) . . .
230(8) . . .
204(8) . . .
202(8) . . .
208(8) . . .
208(8) . . .
182(7) . . .
218(8) . . .
212(8) . . .
184(7) . . .
201(8) . . .
206(7) . . .
211(8) . . .
194(8) . . .
194(8) . . .
182(7) . . .
215(8) . . .
201(7) . . .
208(8) . . .
183(7) . . .
183(7) . . .
184(7) . . .
209(8) . . .
206(8) . . .
215(8) . . .
168(7) . . .
217(8) . . .
191(7) . . .
189(8) . . .
196(8) . . .
211(8) . . .
216(8) . . .
194(7) . . .
197(8) . . .
188(7) . . .
207(8) . . .
221(8) . . .
217(8) . . .
183(7) . . .
206(8) . . .
211(8) . . .
216(8) . . .
210(8) . . .
224(8) . . .
216(8) . . .
198(8) . . .
170(7) . . .
189(7) . . .
195(8) . . .
193(7) . . .
215(8) . . .
206(7) . . .
185(7) . . .
203(8) . . .
205(8) . . .
192(7) . . .
193(7) . . .
201(8) . . .
187(8) . . .
217(8) . . .
212(8) . . .
195(7) . . .
176(7) . . .
208(8) . . .
223(8) . . .
227(8) . . .
201(8) . . .
211(8) . . .
204(8) . . .
217(8) . . .
207(7) . . .
207(8) . . .
211(8) . . .
204(8) . . .
188(8) . . .
195(7) . . .
198(8) . . .
201(8) . . .
215(8) . . .
202(8) . . .
195(7) . . .
204(8) . . .
189(7) . . .
207(8) . . .
201(8) . . .
215(8) . . .
187(7) . . .
188(7) . . .
217(8) . . .
194(7) . . .
216(8) . . .
215(8) . . .
202(8) . . .
193(7) . . .
216(8) . . .
203(7) . . .
218(8) . . .
207(8) . . .
225(8) . . .
200(7) . . .
215(8) . . .
207(8) . . .
198(8) . . .
244(9) . . .
215(8) . . .
204(7) . . .
204(8) . . .
199(8) . . .
215(8) . . .
206(8) . . .
232(8) . . .
201(8) . . .
209(8) . . .
217(8) . . .
226(8) . . .
193(7) . . .
202(8) . . .
207(8) . . .
211(8) . . .
219(8) . . .
213(8) . . .
197(7) . . .
212(8) . . .
201(8) . . .
204(7) . . .
218(8) . . .
211(8) . . .
215(8) . . .
192(7) . . .
221(8) . . .
190(7) . . .
201(8) . . .
228(8) . . .
224(8) . . .
213(8) . . .
208(8) . . .
211(8) . . .
205(8) . . .
198(7) . . .
188(7) . . .
190(8) . . .
183(7) . . .
198(8) . . .
187(7) . . .
212(8) . . .
185(7) . . .
208(8) . . .
199(7) . . .
207(8) . . .
211(8) . . .
218(8) . . .
200(8) . . .
222(8) . . .
205(7) . . .
204(7) . . .
187(7) . . .
201(8) . . .
213(8) . . .
198(7) . . .
193(7) . . .
208(8) . . .
216(8) . . .
219(8) . . .
208(7) . . .
197(7) . . .
202(8) . . .
209(8) . . .
200(8) . . .
201(7) . . .
222(8) . . .
198(8) . . .
203(8) . . .
205(8) . . .
199(7) . . .
194(7) . . .
209(8) . . .
201(8) . . .
186(7) . . .
191(7) . . .
197(7) . . .
198(8) . . .
208(8) . . .
201(8) . . .
176(7) . . .
173(7) . . .
188(8) . . .
217(8) . . .
189(7) . . .
185(7) . . .
218(8) . . .
221(8) . . .
198(8) . . .
200(8) . . .
191(7) . . .
216(8) . . .
180(7) . . .
189(7) . . .
199(7) . . .
196(7) . . .
184(7) . . .
212(8) . . .
208(8) . . .
202(7) . . .
225(8) . . .
197(7) . . .
192(8) . . .
191(7) . . .
196(7) . . .
194(7) . . .
196(8) . . .
205(8) . . .
197(7) . . .
211(8) . . .
208(8) . . .
176(7) . . .
202(8) . . .
209(8) . . .
202(7) . . .
203(7) . . .
189(7) . . .
213(8) . . .
201(8) . . .
207(7) . . .
209(8) . . .
234(8) . . .
216(8) . . .
193(7) . . .
207(7) . . .
199(7) . . .
216(8) . . .
213(8) . . .
203(8) . . .
214(8) . . .
228(8) . . .
219(8) . . .
212(8) . . .
199(7) . . .
211(8) . . .
216(8) . . .
196(8) . . .
194(7) . . .
212(8) . . .
196(7) . . .
205(8) . . .
208(8) . . .
208(8) . . .
196(7) . . .
218(8) . . .
220(8) . . .
206(8) . . .
199(8) . . .
185(7) . . .
201(7) . . .
201(8) . . .
200(8) . . .
212(8) . . .
207(8) . . .
188(7) . . .
191(7) . . .
202(8) . . .
199(8) . . .
219(8) . . .
200(7) . . .
206(8) . . .
191(8) . . .
203(8) . . .
205(7) . . .
211(8) . . .
191(7) . . .
200(8) . . .
203(8) . . .
214(8) . . .
209(8) . . .
215(8) . . .
205(8) . . .
222(8) . . .
187(7) . . .
211(7) . . .
226(8) . . .
217(8) . . .
207(8) . . .
192(7) . . .
191(7) . . .
194(8) . . .
195(8) . . .
209(8) . . .
202(7) . . .
208(8) . . .
187(7) . . .
188(7) . . .
207(8) . . .
190(7) . . .
199(8) . . .
205(8) . . .
216(8) . . .
204(8) . . .
203(7) . . .
182(7) . . .
186(7) . . .
208(8) . . .
187(7) . . .
177(7) . . .
194(7) . . .
221(8) . . .
203(8) . . .
185(7) . . .
187(7) . . .
200(8) . . .
189(8) . . .
206(8) . . .
190(7) . . .
202(7) . . .
180(7) . . .
210(8) . . .
203(8) . . .
192(7) . . .
192(7) . . .
190(7) . . .
178(7) . . .
182(7) . . .
199(7) . . .
221(8) . . .
191(7) . . .
202(8) . . .
194(7) . . .
195(7) . . .
180(7) . . .
188(8) . . .
198(8) . . .
191(7) . . .
200(7) . . .
191(7) . . .
186(7) . . .
195(8) . . .
192(7) . . .
207(7) . . .
199(8) . . .
199(8) . . .
204(8) . . .
211(8) . . .
185(7) . . .
189(7) . . .
162(7) . . .
188(7) . . .
200(7) . . .
223(8) . . .
205(8) . . .
201(8) . . .
189(7) . . .
169(7) . . .
209(8) . . .
204(8) . . .
207(8) . . .
193(7) . . .
183(7) . . .
197(7) . . .
196(8) . . .
183(7) . . .
177(7) . . .
189(7) . . .
201(8) . . .
206(8) . . .
208(8) . . .
207(8) . . .
191(7) . . .
183(7) . . .
173(7) . . .
197(8) . . .
184(7) . . .
192(7) . . .
197(7) . . .
178(7) . . .
174(7) . . .
196(8) . . .
178(7) . . .
174(7) . . .
181(7) . . .
196(8) . . .
210(8) . . .
193(7) . . .
188(7) . . .
182(7) . . .
180(7) . . .
193(7) . . .
192(7) . . .
204(8) . . .
216(8) . . .
202(8) . . .
188(7) . . .
194(7) . . .
200(8) . . .
180(7) . . .
178(7) . . .
185(7) . . .
188(7) . . .
189(7) . . .
203(8) . . .
215(8) . . .
195(7) . . .
205(7) . . .
193(8) . . .
192(7) . . .
214(8) . . .
194(7) . . .
173(7) . . .
182(7) . . .
175(7) . . .
195(8) . . .
182(7) . . .
183(7) . . .
197(7) . . .
199(8) . . .
198(8) . . .
183(7) . . .
173(7) . . .
199(8) . . .
188(8) . . .
190(8) . . .
191(7) . . .
194(7) . . .
186(7) . . .
192(8) . . .
196(8) . . .
210(7) . . .
184(7) . . .
197(7) . . .
186(7) . . .
181(7) . . .
205(7) . . .
215(8) . . .
204(8) . . .
198(8) . . .
196(7) . . .
194(7) . . .
201(7) . . .
201(8) . . .
204(8) . . .
195(7) . . .
191(7) . . .
206(8) . . .
193(7) . . .
204(8) . . .
197(7) . . .
188(7) . . .
190(7) . . .
190(7) . . .
192(8) . . .
199(7) . . .
200(7) . . .
190(7) . . .
182(7) . . .
219(8) . . .
202(7) . . .
195(7) . . .
191(8) . . .
182(7) . . .
200(8) . . .
195(7) . . .
191(7) . . .
199(8) . . .
200(8) . . .
202(8) . . .
216(8) . . .
207(7) . . .
209(8) . . .
206(8) . . .
194(8) . . .
191(7) . . .
167(7) . . .
205(8) . . .
187(7) . . .
184(7) . . .
184(7) . . .
216(8) . . .
195(7) . . .
197(8) . . .
194(8) . . .
211(7) . . .
189(7) . . .
205(8) . . .
215(8) . . .
193(8) . . .
202(7) . . .
193(7) . . .
210(8) . . .
200(7) . . .
204(8) . . .
197(7) . . .
219(8) . . .
182(7) . . .
197(8) . . .
213(8) . . .
213(8) . . .
209(8) . . .
204(8) . . .
192(7) . . .
181(7) . . .
200(7) . . .
195(8) . . .
196(8) . . .
195(7) . . .
182(7) . . .
187(7) . . .
193(7) . . .
197(8) . . .
212(8) . . .
197(7) . . .
196(7) . . .
203(8) . . .
173(7) . . .
190(7) . . .
198(7) . . .
190(7) . . .
193(8) . . .
188(8) . . .
176(7) . . .
194(7) . . .
227(8) . . .
205(8) . . .
179(7) . . .
172(7) . . .
186(7) . . .
209(8) . . .
191(7) . . .
192(8) . . .
200(8) . . .
195(7) . . .
194(7) . . .
193(8) . . .
207(8) . . .
196(7) . . .
200(7) . . .
180(7) . . .
195(7) . . .
202(8) . . .
174(7) . . .
190(7) . . .
187(7) . . .
199(8) . . .
193(8) . . .
184(7) . . .
201(7) . . .
192(7) . . .
198(8) . . .
197(8) . . .
203(8) . . .
167(7) . . .
186(7) . . .
202(8) . . .
182(7) . . .
186(7) . . .
211(8) . . .
192(7) . . .
168(7) . . .
184(7) . . .
198(7) . . .
177(7) . . .
194(7) . . .
197(8) . . .
189(7) . . .
186(7) . . .
195(7) . . .
211(8) . . .
222(8) . . .
194(8) . . .
184(7) . . .
183(7) . . .
183(7) . . .
180(7) . . .
202(8) . . .
206(7) . . .
195(7) . . .
193(7) . . .
221(8) . . .
194(8) . . .
187(7) . . .
188(7) . . .
187(8) . . .
186(7) . . .
206(8) . . .
221(8) . . .
200(7) . . .
186(7) . . .
206(8) . . .
216(8) . . .
229(8) . . .
196(7) . . .
204(8) . . .
217(8) . . .
185(7) . . .
217(8) . . .
203(8) . . .
204(8) . . .
201(8) . . .
187(7) . . .
187(7) . . .
206(8) . . .
188(7) . . .
189(7) . . .
192(7) . . .
212(8) . . .
206(8) . . .
209(8) . . .
209(8) . . .
190(7) . . .
194(7) . . .
202(8) . . .
194(8) . . .
200(8) . . .
186(7) . . .
196(7) . . .
194(8) . . .
206(8) . . .
188(7) . . .
194(7) . . .
215(8) . . .
179(7) . . .
195(8) . . .
191(7) . . .
212(8) . . .
205(8) . . .
199(8) . . .
184(8) . . .
194(8) . . .
206(8) . . .
208(8) . . .
202(8) . . .
209(8) . . .
196(8) . . .
200(7) . . .
193(7) . . .
190(7) . . .
194(8) . . .
203(8) . . .
193(7) . . .
177(7) . . .
171(7) . . .
205(8) . . .
206(8) . . .
211(8) . . .
197(7) . . .
202(8) . . .
199(8) . . .
209(8) . . .
193(7) . . .
201(8) . . .
189(8) . . .
199(8) . . .
170(7) . . .
179(7) . . .
202(8) . . .
195(8) . . .
194(7) . . .
182(7) . . .
202(7) . . .
197(8) . . .
170(7) . . .
194(8) . . .
195(7) . . .
183(7) . . .
199(7) . . .
207(8) . . .
212(8) . . .
217(8) . . .
207(7) . . .
186(7) . . .
204(8) . . .
181(7) . . .
187(7) . . .
205(7) . . .
186(7) . . .
207(8) . . .
187(7) . . .
197(7) . . .
177(7) . . .
186(7) . . .
196(8) . . .
213(8) . . .
192(7) . . .
206(7) . . .
187(7) . . .
201(8) . . .
209(8) . . .
181(7) . . .
201(7) . . .
200(8) . . .
186(7) . . .
209(8) . . .
185(7) . . .
180(7) . . .
184(7) . . .
187(7) . . .
197(7) . . .
186(7) . . .
194(8) . . .
168(7) . . .
189(7) . . .
196(8) . . .
191(7) . . .
205(8) . . .
183(7) . . .
183(7) . . .
178(7) . . .
200(7) . . .
227(8) . . .
202(8) . . .
200(8) . . .
192(7) . . .
184(7) . . .
194(7) . . .
188(8) . . .
203(8) . . .
185(7) . . .
211(8) . . .
198(7) . . .
206(8) . . .
196(7) . . .
195(7) . . .
194(7) . . .
181(7) . . .
179(7) . . .
202(8) . . .
202(7) . . .
200(7) . . .
211(8) . . .
192(8) . . .
203(8) . . .
185(7) . . .
192(7) . . .
213(8) . . .
200(8) . . .
187(7) . . .
182(7) . . .
185(7) . . .
184(7) . . .
202(8) . . .
186(7) . . .
195(7) . . .
192(8) . . .
203(8) . . .
177(7) . . .
210(8) . . .
199(7) . . .
216(8) . . .
211(8) . . .
194(7) . . .
214(8) . . .
197(7) . . .
185(7) . . .
191(7) . . .
188(7) . . .
196(8) . . .
192(7) . . .
189(7) . . .
199(8) . . .
195(7) . . .
219(8) . . .
204(7) . . .
225(8) . . .
212(8) . . .
179(7) . . .
211(8) . . .
202(7) . . .
202(8) . . .
220(8) . . .
207(8) . . .
212(8) . . .
205(7) . . .
203(8) . . .
196(8) . . .
204(8) . . .
191(7) . . .
188(7) . . .
199(8) . . .
202(8) . . .
199(7) . . .
199(7) . . .
203(7) . . .
223(8) . . .
216(8) . . .
191(7) . . .
193(7) . . .
199(7) . . .
172(7) . . .
211(8) . . .
221(8) . . .
201(7) . . .
213(8) . . .
209(8) . . .
200(8) . . .
197(8) . . .
216(8) . . .
206(8) . . .
209(8) . . .
205(8) . . .
191(7) . . .
212(8) . . .
180(7) . . .
191(8) . . .
208(8) . . .
198(7) . . .
201(7) . . .
200(8) . . .
233(9) . . .
202(8) . . .
203(8) . . .
202(7) . . .
221(8) . . .
200(8) . . .
205(8) . . .
204(7) . . .
223(8) . . .
181(7) . . .
201(8) . . .
194(7) . . .
208(7) . . .
183(7) . . .
191(7) . . .
196(8) . . .
194(8) . . .
183(7) . . .
202(7) . . .
212(8) . . .
209(8) . . .
202(8) . . .
191(7) . . .
214(8) . . .
215(8) . . .
213(8) . . .
170(7) . . .
191(7) . . .
193(7) . . .
199(8) . . .
176(7) . . .
188(7) . . .
175(7) . . .
214(8) . . .
178(7) . . .
193(8) . . .
188(7) . . .
199(7) . . .
174(7) . . .
195(8) . . .
194(8) . . .
188(7) . . .
181(7) . . .
192(8) . . .
189(8) . . .
193(8) . . .
187(7) . . .
189(7) . . .
198(8) . . .
196(8) . . .
199(8) . . .
197(7) . . .
172(7) . . .
216(8) . . .
199(8) . . .
187(7) . . .
205(7) . . .
201(7) . . .
188(7) . . .
189(8) . . .
211(8) . . .
195(7) . . .
165(7) . . .
182(7) . . .
209(8) . . .
197(8) . . .
189(7) . . .
216(8) . . .
190(7) . . .
186(8) . . .
210(8) . . .
197(7) . . .
197(7) . . .
183(7) . . .
191(8) . . .
191(8) . . .
183(7) . . .
182(7) . . .
191(8) . . .
202(8) . . .
199(7) . . .
196(7) . . .
203(8) . . .
231(8) . . .
187(7) . . .
188(7) . . .
196(7) . . .
189(7) . . .
197(7) . . .
205(8) . . .
198(8) . . .
202(7) . . .
180(7) . . .
188(8) . . .
210(8) . . .
191(7) . . .
170(7) . . .
196(8) . . .
182(7) . . .
191(7) . . .
193(7) . . .
212(8) . . .
204(8) . . .
180(7) . . .
180(7) . . .
196(7) . . .
209(7) . . .
206(8) . . .
185(8) . . .
158(7) . . .
185(7) . . .
210(8) . . .
183(7) . . .
175(7) . . .
193(7) . . .
201(7) . . .
194(7) . . .
188(7) . . .
171(7) . . .
176(7) . . .
187(7) . . .
194(7) . . .
188(7) . . .
195(8) . . .
202(8) . . .
184(7) . . .
195(7) . . .
180(7) . . .
187(8) . . .
189(7) . . .
182(7) . . .
182(7) . . .
160(7) . . .
180(7) . . .
191(7) . . .
177(7) . . .
193(7) . . .
193(7) . . .
193(7) . . .
189(7) . . .
188(7) . . .
198(8) . . .
174(7) . . .
198(8) . . .
170(7) . . .
178(7) . . .
178(7) . . .
199(8) . . .
186(7) . . .
194(7) . . .
195(7) . . .
198(8) . . .
193(8) . . .
189(7) . . .
181(7) . . .
178(7) . . .
198(7) . . .
194(8) . . .
175(7) . . .
178(7) . . .
181(7) . . .
181(7) . . .
170(7) . . .
194(8) . . .
199(7) . . .
180(7) . . .
197(8) . . .
199(8) . . .
194(7) . . .
173(7) . . .
181(7) . . .
191(7) . . .
187(8) . . .
195(7) . . .
191(7) . . .
181(7) . . .
193(7) . . .
187(7) . . .
206(8) . . .
183(7) . . .
201(7) . . .
228(8) . . .
197(7) . . .
161(7) . . .
198(7) . . .
205(8) . . .
200(8) . . .
201(8) . . .
186(7) . . .
203(7) . . .
192(7) . . .
176(7) . . .
207(8) . . .
204(7) . . .
186(7) . . .
180(7) . . .
177(7) . . .
190(8) . . .
192(7) . . .
189(7) . . .
188(7) . . .
202(8) . . .
183(7) . . .
218(8) . . .
179(7) . . .
189(7) . . .
200(8) . . .
194(8) . . .
192(7) . . .
182(7) . . .
201(8) . . .
180(7) . . .
187(7) . . .
190(7) . . .
201(7) . . .
177(7) . . .
184(8) . . .
203(8) . . .
207(8) . . .
205(8) . . .
191(7) . . .
203(8) . . .
204(8) . . .
202(7) . . .
181(7) . . .
204(8) . . .
195(8) . . .
179(7) . . .
200(7) . . .
187(7) . . .
178(7) . . .
182(7) . . .
209(8) . . .
200(7) . . .
173(7) . . .
185(7) . . .
178(7) . . .
183(7) . . .
178(7) . . .
164(7) . . .
172(7) . . .
206(8) . . .
179(7) . . .
186(7) . . .
191(8) . . .
188(7) . . .
191(8) . . .
176(7) . . .
175(7) . . .
183(7) . . .
182(7) . . .
185(7) . . .
184(7) . . .
188(7) . . .
178(7) . . .
192(8) . . .
181(7) . . .
186(7) . . .
184(7) . . .
192(7) . . .
170(7) . . .
189(7) . . .
174(7) . . .
178(7) . . .
172(7) . . .
187(8) . . .
192(7) . . .
195(7) . . .
189(7) . . .
192(8) . . .
171(7) . . .
176(7) . . .
191(7) . . .
208(8) . . .
180(7) . . .
168(7) . . .
183(7) . . .
188(7) . . .
197(8) . . .
206(8) . . .
178(7) . . .
176(7) . . .
180(7) . . .
211(8) . . .
197(8) . . .
184(7) . . .
195(7) . . .
173(7) . . .
214(8) . . .
191(7) . . .
189(7) . . .
188(7) . . .
193(7) . . .
200(8) . . .
200(8) . . .
183(7) . . .
200(7) . . .
192(7) . . .
184(7) . . .
193(8) . . .
186(7) . . .
195(7) . . .
185(7) . . .
193(7) . . .
195(8) . . .
192(7) . . .
206(7) . . .
185(7) . . .
197(8) . . .
188(7) . . .
214(8) . . .
216(8) . . .
180(7) . . .
186(8) . . .
160(7) . . .
194(8) . . .
198(7) . . .
200(7) . . .
191(7) . . .
192(8) . . .
191(7) . . .
177(7) . . .
176(7) . . .
208(8) . . .
212(8) . . .
196(7) . . .
178(7) . . .
177(7) . . .
180(7) . . .
184(7) . . .
204(8) . . .
197(7) . . .
191(7) . . .
209(8) . . .
185(7) . . .
192(8) . . .
176(7) . . .
188(7) . . .
171(7) . . .
169(7) . . .
188(7) . . .
192(7) . . .
184(7) . . .
199(8) . . .
164(7) . . .
180(7) . . .
189(7) . . .
192(8) . . .
192(8) . . .
182(7) . . .
180(7) . . .
196(7) . . .
190(8) . . .
169(7) . . .
179(7) . . .
176(7) . . .
171(7) . . .
188(8) . . .
182(8) . . .
167(7) . . .
197(7) . . .
190(7) . . .
180(7) . . .
182(8) . . .
189(7) . . .
167(7) . . .
205(7) . . .
186(7) . . .
181(7) . . .
188(7) . . .
203(7) . . .
184(7) . . .
205(8) . . .
201(8) . . .
209(8) . . .
182(7) . . .
178(7) . . .
179(7) . . .
185(7) . . .
186(7) . . .
174(7) . . .
191(7) . . .
194(7) . . .
185(7) . . .
197(8) . . .
198(7) . . .
202(7) . . .
220(8) . . .
168(7) . . .
204(8) . . .
193(7) . . .
187(7) . . .
177(7) . . .
180(7) . . .
189(7) . . .
202(7) . . .
185(7) . . .
194(8) . . .
192(7) . . .
183(7) . . .
185(7) . . .
196(7) . . .
201(8) . . .
210(8) . . .
177(7) . . .
192(7) . . .
177(7) . . .
168(7) . . .
196(8) . . .
211(8) . . .
195(7) . . .
206(8) . . .
185(8) . . .
188(7) . . .
179(7) . . .
184(7) . . .
197(8) . . .
182(8) . . .
198(8) . . .
191(7) . . .
200(7) . . .
181(7) . . .
187(8) . . .
198(8) . . .
199(7) . . .
201(8) . . .
201(8) . . .
211(8) . . .
186(7) . . .
190(7) . . .
212(8) . . .
191(7) . . .
185(7) . . .
186(7) . . .
167(7) . . .
193(7) . . .
183(8) . . .
180(7) . . .
159(7) . . .
200(7) . . .
185(7) . . .
185(7) . . .
196(7) . . .
186(7) . . .
181(7) . . .
167(7) . . .
187(7) . . .
189(8) . . .
189(7) . . .
189(7) . . .
189(7) . . .
186(7) . . .
174(7) . . .
188(7) . . .
179(7) . . .
195(8) . . .
202(8) . . .
190(8) . . .
175(7) . . .
177(7) . . .
177(7) . . .
180(7) . . .
202(8) . . .
192(7) . . .
195(7) . . .
209(8) . . .
205(8) . . .
208(8) . . .
200(7) . . .
193(7) . . .
178(7) . . .
206(8) . . .
214(8) . . .
192(7) . . .
201(7) . . .
192(7) . . .
193(8) . . .
188(7) . . .
207(7) . . .
199(7) . . .
179(7) . . .
197(8) . . .
206(8) . . .
195(7) . . .
190(7) . . .
185(7) . . .
197(8) . . .
172(7) . . .
165(7) . . .
191(7) . . .
182(7) . . .
170(7) . . .
188(7) . . .
211(8) . . .
189(7) . . .
170(7) . . .
205(8) . . .
199(7) . . .
167(7) . . .
193(8) . . .
188(8) . . .
197(8) . . .
206(7) . . .
181(7) . . .
187(7) . . .
200(8) . . .
184(7) . . .
181(7) . . .
171(7) . . .
208(8) . . .
209(8) . . .
180(7) . . .
205(8) . . .
184(7) . . .
173(7) . . .
181(8) . . .
214(8) . . .
188(7) . . .
186(7) . . .
201(8) . . .
175(7) . . .
180(7) . . .
178(7) . . .
185(7) . . .
189(7) . . .
190(8) . . .
201(8) . . .
194(7) . . .
200(7) . . .
184(7) . . .
165(7) . . .
187(7) . . .
208(7) . . .
193(7) . . .
170(7) . . .
171(7) . . .
200(7) . . .
190(7) . . .
200(8) . . .
195(8) . . .
177(7) . . .
193(7) . . .
185(7) . . .
191(7) . . .
195(8) . . .
190(7) . . .
209(8) . . .
195(7) . . .
213(8) . . .
201(8) . . .
180(7) . . .
203(8) . . .
194(7) . . .
204(7) . . .
213(8) . . .
181(7) . . .
183(7) . . .
200(7) . . .
194(7) . . .
197(8) . . .
196(7) . . .
199(7) . . .
184(7) . . .
221(8) . . .
187(8) . . .
181(7) . . .
191(7) . . .
191(7) . . .
204(8) . . .
187(7) . . .
170(7) . . .
170(7) . . .
184(7) . . .
207(8) . . .
175(7) . . .
175(7) . . .
187(7) . . .
201(7) . . .
174(7) . . .
191(8) . . .
193(8) . . .
167(7) . . .
180(7) . . .
184(8) . . .
193(8) . . .
180(7) . . .
168(7) . . .
167(7) . . .
175(7) . . .
200(8) . . .
176(7) . . .
195(7) . . .
173(7) . . .
191(7) . . .
206(8) . . .
185(7) . . .
190(7) . . .
183(7) . . .
185(8) . . .
209(8) . . .
193(7) . . .
181(7) . . .
180(7) . . .
171(7) . . .
178(7) . . .
197(7) . . .
195(7) . . .
192(7) . . .
187(8) . . .
190(7) . . .
197(7) . . .
194(7) . . .
202(8) . . .
192(8) . . .
181(7) . . .
176(7) . . .
183(7) . . .
196(8) . . .
182(7) . . .
197(7) . . .
194(7) . . .
181(7) . . .
205(8) . . .
195(8) . . .
190(8) . . .
197(7) . . .
184(7) . . .
179(7) . . .
185(7) . . .
164(7) . . .
160(7) . . .
178(7) . . .
182(7) . . .
187(8) . . .
175(7) . . .
185(7) . . .
171(7) . . .
180(7) . . .
188(7) . . .
191(7) . . .
167(7) . . .
190(7) . . .
187(8) . . .
188(7) . . .
183(7) . . .
165(7) . . .
186(7) . . .
183(8) . . .
165(7) . . .
171(7) . . .
179(7) . . .
167(7) . . .
163(7) . . .
166(7) . . .
177(7) . . .
181(7) . . .
194(7) . . .
191(8) . . .
175(7) . . .
175(7) . . .
195(7) . . .
187(7) . . .
197(8) . . .
190(8) . . .
173(7) . . .
184(7) . . .
178(7) . . .
176(7) . . .
167(7) . . .
176(7) . . .
171(7) . . .
176(7) . . .
191(8) . . .
185(7) . . .
170(7) . . .
186(7) . . .
172(7) . . .
186(8) . . .
169(7) . . .
171(7) . . .
178(7) . . .
177(7) . . .
182(7) . . .
178(7) . . .
186(7) . . .
179(7) . . .
180(7) . . .
172(7) . . .
171(7) . . .
174(7) . . .
179(7) . . .
184(8) . . .
173(7) . . .
193(7) . . .
205(7) . . .
179(7) . . .
194(8) . . .
179(7) . . .
170(7) . . .
179(7) . . .
189(7) . . .
194(7) . . .
188(7) . . .
184(7) . . .
187(7) . . .
177(7) . . .
163(7) . . .
197(8) . . .
200(8) . . .
178(7) . . .
202(8) . . .
192(8) . . .
189(7) . . .
189(7) . . .
186(7) . . .
187(8) . . .
193(8) . . .
189(7) . . .
171(7) . . .
194(7) . . .
176(7) . . .
171(7) . . .
187(7) . . .
194(7) . . .
190(7) . . .
188(7) . . .
168(7) . . .
176(7) . . .
170(7) . . .
177(7) . . .
188(7) . . .
173(7) . . .
187(7) . . .
167(7) . . .
180(7) . . .
198(8) . . .
166(7) . . .
176(7) . . .
175(7) . . .
170(7) . . .
168(7) . . .
187(7) . . .
205(8) . . .
167(7) . . .
185(7) . . .
192(8) . . .
180(7) . . .
194(7) . . .
187(7) . . .
167(7) . . .
173(7) . . .
168(7) . . .
166(7) . . .
196(7) . . .
190(7) . . .
195(8) . . .
194(8) . . .
164(7) . . .
166(7) . . .
174(7) . . .
197(8) . . .
187(7) . . .
186(7) . . .
195(7) . . .
198(8) . . .
207(8) . . .
190(7) . . .
172(7) . . .
197(7) . . .
202(8) . . .
175(7) . . .
179(7) . . .
178(7) . . .
188(7) . . .
197(7) . . .
188(7) . . .
171(7) . . .
191(7) . . .
184(7) . . .
170(7) . . .
185(8) . . .
174(7) . . .
205(8) . . .
182(7) . . .
189(7) . . .
189(8) . . .
195(8) . . .
180(7) . . .
179(7) . . .
189(7) . . .
179(7) . . .
194(8) . . .
188(7) . . .
180(7) . . .
180(7) . . .
198(8) . . .
159(7) . . .
175(7) . . .
186(7) . . .
170(7) . . .
182(7) . . .
180(7) . . .
187(7) . . .
179(7) . . .
201(8) . . .
197(8) . . .
175(7) . . .
181(7) . . .
188(7) . . .
194(8) . . .
187(7) . . .
179(7) . . .
174(7) . . .
183(7) . . .
201(8) . . .
178(7) . . .
171(7) . . .
163(7) . . .
187(7) . . .
193(8) . . .
180(7) . . .
180(7) . . .
166(7) . . .
175(7) . . .
200(8) . . .
189(7) . . .
183(7) . . .
178(7) . . .
191(8) . . .
178(7) . . .
176(7) . . .
195(7) . . .
189(7) . . .
184(7) . . .
179(7) . . .
173(7) . . .
184(7) . . .
161(7) . . .
177(7) . . .
155(7) . . .
169(7) . . .
188(7) . . .
190(7) . . .
193(7) . . .
167(7) . . .
187(7) . . .
191(7) . . .
175(7) . . .
183(7) . . .
194(7) . . .
182(7) . . .
181(7) . . .
188(7) . . .
162(7) . . .
170(7) . . .
171(7) . . .
176(7) . . .
179(7) . . .
169(7) . . .
166(7) . . .
181(7) . . .
194(7) . . .
184(7) . . .
194(8) . . .
173(7) . . .
151(7) . . .
166(7) . . .
157(7) . . .
171(7) . . .
168(7) . . .
161(7) . . .
174(7) . . .
162(7) . . .
145(7) . . .
179(7) . . .
165(7) . . .
160(7) . . .
171(7) . . .
182(7) . . .
171(7) . . .
169(7) . . .
161(7) . . .
165(7) . . .
180(7) . . .
170(7) . . .
153(6) . . .
170(7) . . .
161(7) . . .
160(7) . . .
141(6) . . .
167(7) . . .
156(7) . . .
165(7) . . .
162(7) . . .
176(7) . . .
172(7) . . .
158(7) . . .
163(7) . . .
174(7) . . .
159(7) . . .
186(7) . . .
157(7) . . .
182(8) . . .
169(7) . . .
192(7) . . .
169(7) . . .
158(7) . . .
165(7) . . .
155(7) . . .
164(7) . . .
166(7) . . .
184(7) . . .
166(7) . . .
150(7) . . .
178(7) . . .
187(7) . . .
178(7) . . .
166(7) . . .
191(8) . . .
165(7) . . .
171(7) . . .
163(7) . . .
177(7) . . .
184(7) . . .
160(7) . . .
181(7) . . .
166(7) . . .
162(7) . . .
170(7) . . .
177(7) . . .
170(7) . . .
179(7) . . .
171(7) . . .
175(7) . . .
178(7) . . .
165(7) . . .
174(7) . . .
167(7) . . .
170(7) . . .
153(6) . . .
166(7) . . .
180(7) . . .
160(7) . . .
155(7) . . .
177(7) . . .
163(7) . . .
166(7) . . .
173(7) . . .
173(7) . . .
173(7) . . .
182(7) . . .
172(7) . . .
158(7) . . .
164(7) . . .
163(7) . . .
183(8) . . .
158(7) . . .
165(7) . . .
172(7) . . .
161(7) . . .
159(7) . . .
182(7) . . .
179(7) . . .
151(6) . . .
168(7) . . .
169(7) . . .
172(7) . . .
186(7) . . .
187(7) . . .
175(7) . . .
165(7) . . .
185(8) . . .
192(7) . . .
177(7) . . .
172(7) . . .
178(7) . . .
157(7) . . .
163(7) . . .
176(7) . . .
157(7) . . .
170(7) . . .
151(7) . . .
160(7) . . .
162(7) . . .
171(7) . . .
173(7) . . .
170(7) . . .
156(7) . . .
162(7) . . .
169(7) . . .
167(7) . . .
175(7) . . .
146(6) . . .
147(6) . . .
170(7) . . .
148(6) . . .
171(7) . . .
168(7) . . .
169(7) . . .
160(7) . . .
181(7) . . .
183(7) . . .
169(7) . . .
159(7) . . .
170(7) . . .
175(7) . . .
185(7) . . .
186(7) . . .
169(7) . . .
176(7) . . .
181(7) . . .
171(7) . . .
168(7) . . .
180(7) . . .
175(7) . . .
163(7) . . .
154(7) . . .
159(7) . . .
161(7) . . .
178(7) . . .
179(7) . . .
154(6) . . .
164(7) . . .
155(6) . . .
163(7) . . .
167(7) . . .
192(8) . . .
153(6) . . .
174(7) . . .
193(8) . . .
173(7) . . .
165(7) . . .
153(6) . . .
168(7) . . .
168(7) . . .
159(7) . . .
178(7) . . .
181(7) . . .
160(7) . . .
168(7) . . .
173(7) . . .
185(7) . . .
185(7) . . .
165(7) . . .
186(8) . . .
168(7) . . .
158(7) . . .
163(7) . . .
155(7) . . .
153(7) . . .
176(7) . . .
188(7) . . .
169(7) . . .
164(7) . . .
159(7) . . .
170(7) . . .
160(7) . . .
158(7) . . .
188(8) . . .
178(7) . . .
187(7) . . .
185(7) . . .
154(7) . . .
166(7) . . .
193(8) . . .
170(7) . . .
162(7) . . .
160(7) . . .
148(7) . . .
183(8) . . .
161(7) . . .
166(7) . . .
157(7) . . .
158(7) . . .
181(8) . . .
171(7) . . .
159(7) . . .
162(7) . . .
181(7) . . .
181(7) . . .
194(8) . . .
156(7) . . .
176(7) . . .
169(7) . . .
182(7) . . .
187(8) . . .
186(7) . . .
191(7) . . .
182(7) . . .
178(7) . . .
163(7) . . .
169(7) . . .
183(7) . . .
158(7) . . .
181(7) . . .
171(7) . . .
167(7) . . .
169(7) . . .
163(7) . . .
178(7) . . .
176(7) . . .
198(7) . . .
173(7) . . .
156(7) . . .
169(7) . . .
187(7) . . .
175(7) . . .
198(8) . . .
173(7) . . .
158(7) . . .
161(7) . . .
153(6) . . .
175(7) . . .
199(8) . . .
193(7) . . .
185(7) . . .
170(7) . . .
172(7) . . .
168(7) . . .
177(7) . . .
178(7) . . .
174(7) . . .
180(7) . . .
164(7) . . .
156(7) . . .
164(7) . . .
179(7) . . .
179(7) . . .
183(8) . . .
180(7) . . .
190(7) . . .
185(7) . . .
170(7) . . .
178(7) . . .
169(7) . . .
186(7) . . .
165(7) . . .
174(7) . . .
170(7) . . .
159(7) . . .
178(7) . . .
191(7) . . .
158(7) . . .
176(7) . . .
174(7) . . .
161(7) . . .
176(7) . . .
161(7) . . .
169(7) . . .
179(7) . . .
169(7) . . .
168(7) . . .
168(7) . . .
179(7) . . .
174(7) . . .
174(7) . . .
161(7) . . .
169(7) . . .
181(7) . . .
162(7) . . .
171(7) . . .
165(7) . . .
174(7) . . .
186(7) . . .
175(7) . . .
183(7) . . .
164(7) . . .
177(7) . . .
170(7) . . .
172(7) . . .
162(7) . . .
171(7) . . .
181(8) . . .
179(7) . . .
194(7) . . .
175(7) . . .
177(7) . . .
180(7) . . .
168(7) . . .
154(6) . . .
183(7) . . .
184(7) . . .
182(7) . . .
184(7) . . .
168(7) . . .
176(7) . . .
176(7) . . .
173(7) . . .
169(7) . . .
180(7) . . .
182(7) . . .
189(7) . . .
187(7) . . .
172(7) . . .
183(7) . . .
174(7) . . .
184(8) . . .
162(7) . . .
169(7) . . .
182(7) . . .
175(7) . . .
185(7) . . .
189(7) . . .
197(7) . . .
185(7) . . .
164(7) . . .
171(7) . . .
168(7) . . .
168(7) . . .
161(7) . . .
182(7) . . .
170(7) . . .
170(7) . . .
174(7) . . .
193(7) . . .
170(7) . . .
184(8) . . .
175(7) . . .
188(7) . . .
172(7) . . .
164(7) . . .
173(7) . . .
184(7) . . .
162(7) . . .
158(7) . . .
159(7) . . .
175(8) . . .
176(7) . . .
182(7) . . .
162(7) . . .
166(7) . . .
153(7) . . .
165(7) . . .
160(7) . . .
167(7) . . .
164(7) . . .
168(7) . . .
173(7) . . .
165(7) . . .
147(6) . . .
170(7) . . .
157(7) . . .
157(7) . . .
177(7) . . .
153(7) . . .
170(7) . . .
151(6) . . .
169(7) . . .
173(7) . . .
171(7) . . .
164(7) . . .
161(7) . . .
167(7) . . .
172(7) . . .
173(7) . . .
157(7) . . .
145(7) . . .
154(7) . . .
164(7) . . .
175(7) . . .
165(7) . . .
158(7) . . .
161(7) . . .
159(7) . . .
170(7) . . .
174(7) . . .
166(7) . . .
170(7) . . .
165(7) . . .
166(7) . . .
166(7) . . .
161(7) . . .
173(7) . . .
176(7) . . .
171(7) . . .
170(7) . . .
171(7) . . .
175(7) . . .
169(7) . . .
161(7) . . .
145(6) . . .
145(6) . . .
175(7) . . .
172(7) . . .
178(7) . . .
167(7) . . .
174(7) . . .
173(7) . . .
172(7) . . .
157(7) . . .
158(7) . . .
152(7) . . .
168(7) . . .
177(7) . . .
168(7) . . .
169(7) . . .
175(7) . . .
165(7) . . .
146(6) . . .
148(7) . . .
175(7) . . .
177(7) . . .
164(7) . . .
154(7) . . .
155(7) . . .
165(7) . . .
177(7) . . .
167(7) . . .
177(7) . . .
156(7) . . .
167(7) . . .
166(7) . . .
161(7) . . .
149(7) . . .
168(7) . . .
167(7) . . .
181(7) . . .
159(7) . . .
152(7) . . .
153(7) . . .
151(7) . . .
150(6) . . .
161(7) . . .
153(7) . . .
167(7) . . .
169(7) . . .
168(7) . . .
163(7) . . .
168(7) . . .
157(7) . . .
172(7) . . .
175(7) . . .
162(7) . . .
178(7) . . .
179(7) . . .
144(6) . . .
140(6) . . .
166(7) . . .
162(7) . . .
174(7) . . .
183(7) . . .
171(7) . . .
166(7) . . .
158(7) . . .
197(8) . . .
157(7) . . .
159(7) . . .
168(7) . . .
166(7) . . .
173(7) . . .
158(7) . . .
171(7) . . .
150(7) . . .
150(7) . . .
154(7) . . .
155(6) . . .
154(6) . . .
173(7) . . .
170(7) . . .
168(7) . . .
167(7) . . .
161(7) . . .
172(7) . . .
161(7) . . .
163(7) . . .
172(7) . . .
179(7) . . .
158(7) . . .
171(7) . . .
160(7) . . .
162(7) . . .
165(7) . . .
162(7) . . .
156(7) . . .
164(7) . . .
153(6) . . .
157(7) . . .
158(7) . . .
169(7) . . .
166(7) . . .
154(6) . . .
172(7) . . .
157(7) . . .
165(7) . . .
155(7) . . .
169(7) . . .
153(6) . . .
160(7) . . .
160(7) . . .
169(7) . . .
165(7) . . .
169(7) . . .
155(7) . . .
166(7) . . .
179(7) . . .
169(7) . . .
160(7) . . .
176(7) . . .
170(7) . . .
171(7) . . .
171(7) . . .
177(7) . . .
162(7) . . .
184(7) . . .
173(7) . . .
175(7) . . .
179(7) . . .
166(7) . . .
185(7) . . .
177(7) . . .
186(7) . . .
179(7) . . .
175(7) . . .
158(7) . . .
167(7) . . .
175(7) . . .
155(7) . . .
153(7) . . .
168(7) . . .
166(7) . . .
157(6) . . .
173(7) . . .
173(7) . . .
169(7) . . .
174(7) . . .
175(7) . . .
166(7) . . .
177(7) . . .
174(7) . . .
163(7) . . .
171(7) . . .
162(7) . . .
166(7) . . .
165(7) . . .
175(7) . . .
170(7) . . .
163(7) . . .
172(7) . . .
169(7) . . .
195(7) . . .
194(8) . . .
158(7) . . .
159(7) . . .
184(7) . . .
165(7) . . .
161(7) . . .
160(7) . . .
164(7) . . .
162(7) . . .
170(7) . . .
169(7) . . .
184(7) . . .
156(7) . . .
176(7) . . .
155(6) . . .
165(7) . . .
187(8) . . .
171(7) . . .
147(6) . . .
160(7) . . .
178(7) . . .
152(7) . . .
152(7) . . .
167(7) . . .
163(7) . . .
166(7) . . .
159(7) . . .
175(7) . . .
171(7) . . .
178(7) . . .
197(8) . . .
159(7) . . .
175(7) . . .
153(6) . . .
170(7) . . .
170(7) . . .
167(7) . . .
156(7) . . .
157(7) . . .
165(7) . . .
162(7) . . .
171(7) . . .
168(7) . . .
155(6) . . .
176(7) . . .
175(7) . . .
162(7) . . .
153(7) . . .
157(6) . . .
152(7) . . .
167(7) . . .
161(7) . . .
167(7) . . .
171(7) . . .
161(7) . . .
159(7) . . .
166(7) . . .
152(7) . . .
172(7) . . .
160(7) . . .
151(7) . . .
155(7) . . .
170(7) . . .
173(7) . . .
155(7) . . .
163(7) . . .
157(7) . . .
168(7) . . .
169(7) . . .
160(7) . . .
168(7) . . .
155(7) . . .
173(7) . . .
170(7) . . .
167(7) . . .
169(7) . . .
147(6) . . .
140(6) . . .
161(7) . . .
149(7) . . .
167(7) . . .
173(7) . . .
163(7) . . .
188(7) . . .
165(7) . . .
158(7) . . .
155(7) . . .
162(7) . . .
159(7) . . .
154(7) . . .
162(7) . . .
164(7) . . .
161(7) . . .
167(7) . . .
153(7) . . .
145(6) . . .
173(7) . . .
158(7) . . .
161(7) . . .
162(7) . . .
159(7) . . .
179(7) . . .
166(7) . . .
157(7) . . .
160(7) . . .
158(7) . . .
148(6) . . .
164(7) . . .
148(7) . . .
167(7) . . .
158(7) . . .
152(7) . . .
151(6) . . .
149(7) . . .
157(7) . . .
158(7) . . .
148(6) . . .
169(7) . . .
172(7) . . .
150(7) . . .
162(7) . . .
163(7) . . .
178(7) . . .
157(7) . . .
134(6) . . .
137(6) . . .
157(7) . . .
166(7) . . .
153(6) . . .
151(7) . . .
168(7) . . .
160(6) . . .
164(7) . . .
171(7) . . .
168(7) . . .
149(6) . . .
155(6) . . .
163(7) . . .
162(7) . . .
162(7) . . .
145(6) . . .
150(6) . . .
152(7) . . .
162(7) . . .
151(7) . . .
160(7) . . .
172(7) . . .
165(7) . . .
158(7) . . .
179(7) . . .
146(6) . . .
167(7) . . .
160(7) . . .
165(7) . . .
158(7) . . .
188(7) . . .
149(6) . . .
163(7) . . .
153(7) . . .
178(7) . . .
168(7) . . .
160(7) . . .
147(7) . . .
152(7) . . .
154(7) . . .
144(6) . . .
154(6) . . .
167(7) . . .
165(7) . . .
178(7) . . .
159(6) . . .
164(7) . . .
163(7) . . .
157(7) . . .
158(7) . . .
147(6) . . .
135(6) . . .
169(7) . . .
153(7) . . .
155(7) . . .
157(7) . . .
157(7) . . .
157(7) . . .
165(7) . . .
166(7) . . .
180(7) . . .
175(7) . . .
184(7) . . .
155(7) . . .
160(7) . . .
151(6) . . .
150(6) . . .
166(7) . . .
167(7) . . .
174(7) . . .
158(7) . . .
161(7) . . .
159(7) . . .
162(7) . . .
153(6) . . .
150(6) . . .
149(6) . . .
158(7) . . .
185(7) . . .
168(7) . . .
181(7) . . .
161(7) . . .
155(7) . . .
152(7) . . .
162(7) . . .
165(7) . . .
146(6) . . .
151(7) . . .
159(7) . . .
152(7) . . .
145(6) . . .
150(7) . . .
150(7) . . .
162(7) . . .
157(7) . . .
173(7) . . .
181(7) . . .
153(7) . . .
156(7) . . .
166(7) . . .
159(7) . . .
165(7) . . .
161(7) . . .
143(6) . . .
171(7) . . .
160(7) . . .
161(7) . . .
163(7) . . .
157(7) . . .
163(7) . . .
170(7) . . .
163(7) . . .
166(7) . . .
170(7) . . .
173(7) . . .
160(7) . . .
163(7) . . .
154(7) . . .
158(7) . . .
175(7) . . .
157(7) . . .
155(7) . . .
168(7) . . .
167(7) . . .
151(7) . . .
154(7) . . .
167(7) . . .
146(6) . . .
160(7) . . .
165(7) . . .
177(7) . . .
172(7) . . .
182(7) . . .
147(6) . . .
168(7) . . .
172(7) . . .
158(7) . . .
159(7) . . .
167(7) . . .
153(6) . . .
180(7) . . .
158(7) . . .
167(7) . . .
166(7) . . .
156(7) . . .
153(7) . . .
171(7) . . .
170(7) . . .
164(7) . . .
161(7) . . .
146(6) . . .
177(8) . . .
166(7) . . .
176(7) . . .
153(6) . . .
158(7) . . .
178(8) . . .
171(7) . . .
179(7) . . .
168(7) . . .
178(7) . . .
171(7) . . .
169(7) . . .
165(7) . . .
169(7) . . .
160(7) . . .
168(7) . . .
181(7) . . .
164(7) . . .
162(7) . . .
164(7) . . .
177(8) . . .
163(7) . . .
154(6) . . .
167(7) . . .
166(7) . . .
145(6) . . .
171(7) . . .
161(7) . . .
177(7) . . .
166(7) . . .
177(7) . . .
181(7) . . .
182(7) . . .
163(7) . . .
170(7) . . .
163(7) . . .
172(7) . . .
162(7) . . .
169(7) . . .
172(7) . . .
187(7) . . .
172(7) . . .
167(7) . . .
151(7) . . .
159(7) . . .
166(7) . . .
160(7) . . .
177(7) . . .
173(7) . . .
162(7) . . .
167(7) . . .
164(7) . . .
160(7) . . .
158(7) . . .
170(7) . . .
154(7) . . .
161(7) . . .
175(7) . . .
161(7) . . .
172(7) . . .
153(7) . . .
151(6) . . .
169(7) . . .
140(6) . . .
139(7) . . .
144(7) . . .
148(6) . . .
159(7) . . .
160(7) . . .
161(7) . . .
165(7) . . .
153(6) . . .
162(7) . . .
159(7) . . .
184(7) . . .
176(7) . . .
160(7) . . .
155(7) . . .
159(7) . . .
158(7) . . .
148(6) . . .
159(7) . . .
171(7) . . .
164(7) . . .
149(7) . . .
155(7) . . .
150(6) . . .
146(6) . . .
169(7) . . .
164(7) . . .
146(6) . . .
155(6) . . .
194(7) . . .
152(7) . . .
176(7) . . .
147(6) . . .
149(6) . . .
165(7) . . .
154(7) . . .
158(7) . . .
155(6) . . .
162(7) . . .
151(7) . . .
152(7) . . .
164(7) . . .
165(7) . . .
162(7) . . .
157(6) . . .
167(7) . . .
158(7) . . .
153(6) . . .
129(6) . . .
157(7) . . .
149(7) . . .
144(6) . . .
166(7) . . .
155(7) . . .
157(7) . . .
169(7) . . .
168(7) . . .
146(6) . . .
156(6) . . .
148(7) . . .
146(7) . . .
153(7) . . .
146(6) . . .
160(7) . . .
153(7) . . .
160(7) . . .
159(7) . . .
163(7) . . .
160(7) . . .
162(7) . . .
170(7) . . .
182(7) . . .
150(6) . . .
162(7) . . .
154(7) . . .
169(7) . . .
166(7) . . .
162(7) . . .
150(7) . . .
161(7) . . .
159(7) . . .
167(7) . . .
173(7) . . .
163(7) . . .
153(7) . . .
167(7) . . .
163(7) . . .
155(6) . . .
150(6) . . .
156(7) . . .
149(7) . . .
132(6) . . .
150(6) . . .
169(7) . . .
167(7) . . .
170(7) . . .
153(6) . . .
160(7) . . .
146(6) . . .
156(7) . . .
150(7) . . .
150(6) . . .
136(6) . . .
137(6) . . .
155(7) . . .
176(7) . . .
162(7) . . .
167(7) . . .
149(6) . . .
155(7) . . .
151(7) . . .
144(6) . . .
175(7) . . .
150(7) . . .
155(7) . . .
138(6) . . .
149(6) . . .
160(7) . . .
158(7) . . .
174(7) . . .
156(7) . . .
147(6) . . .
140(6) . . .
162(7) . . .
157(7) . . .
143(6) . . .
167(7) . . .
144(6) . . .
148(7) . . .
150(7) . . .
164(7) . . .
164(7) . . .
140(7) . . .
168(7) . . .
150(7) . . .
191(7) . . .
165(7) . . .
163(7) . . .
162(7) . . .
144(6) . . .
147(6) . . .
169(7) . . .
162(7) . . .
158(7) . . .
164(7) . . .
152(6) . . .
167(7) . . .
165(7) . . .
167(7) . . .
156(7) . . .
149(6) . . .
164(7) . . .
159(7) . . .
154(7) . . .
161(7) . . .
161(7) . . .
162(7) . . .
147(6) . . .
171(7) . . .
157(7) . . .
152(6) . . .
138(6) . . .
155(7) . . .
152(7) . . .
145(6) . . .
169(7) . . .
168(7) . . .
153(7) . . .
142(6) . . .
140(6) . . .
159(7) . . .
154(7) . . .
155(7) . . .
148(7) . . .
150(6) . . .
169(7) . . .
151(7) . . .
156(7) . . .
164(7) . . .
174(7) . . .
155(6) . . .
150(7) . . .
152(7) . . .
174(7) . . .
145(6) . . .
150(6) . . .
166(7) . . .
166(7) . . .
172(7) . . .
177(7) . . .
176(7) . . .
177(7) . . .
176(7) . . .
161(7) . . .
161(7) . . .
144(6) . . .
156(7) . . .
161(7) . . .
170(7) . . .
156(6) . . .
147(6) . . .
165(7) . . .
149(7) . . .
163(7) . . .
144(6) . . .
168(7) . . .
150(7) . . .
166(7) . . .
147(7) . . .
146(6) . . .
146(6) . . .
166(7) . . .
165(7) . . .
139(6) . . .
175(7) . . .
154(6) . . .
158(7) . . .
160(7) . . .
173(7) . . .
179(7) . . .
169(7) . . .
161(7) . . .
174(7) . . .
167(7) . . .
156(6) . . .
155(7) . . .
173(7) . . .
157(7) . . .
156(7) . . .
146(6) . . .
157(7) . . .
154(7) . . .
143(6) . . .
154(7) . . .
151(6) . . .
149(7) . . .
150(7) . . .
152(7) . . .
156(7) . . .
156(6) . . .
166(7) . . .
163(7) . . .
138(6) . . .
175(7) . . .
161(7) . . .
151(6) . . .
162(7) . . .
171(7) . . .
151(6) . . .
173(7) . . .
149(6) . . .
157(7) . . .
150(7) . . .
158(6) . . .
145(6) . . .
157(7) . . .
142(6) . . .
141(6) . . .
168(7) . . .
146(6) . . .
154(7) . . .
166(7) . . .
155(7) . . .
148(6) . . .
159(7) . . .
156(7) . . .
156(7) . . .
162(7) . . .
160(7) . . .
171(7) . . .
165(7) . . .
151(6) . . .
151(6) . . .
146(6) . . .
157(7) . . .
155(7) . . .
136(6) . . .
144(6) . . .
147(6) . . .
167(7) . . .
154(7) . . .
156(7) . . .
168(7) . . .
148(6) . . .
141(6) . . .
142(6) . . .
154(6) . . .
161(7) . . .
162(7) . . .
134(6) . . .
166(7) . . .
151(7) . . .
158(7) . . .
170(7) . . .
163(7) . . .
173(7) . . .
141(6) . . .
143(6) . . .
159(7) . . .
158(7) . . .
144(7) . . .
145(7) . . .
155(6) . . .
161(7) . . .
175(7) . . .
152(7) . . .
152(7) . . .
156(6) . . .
153(6) . . .
170(7) . . .
149(6) . . .
162(7) . . .
155(6) . . .
165(7) . . .
171(7) . . .
182(7) . . .
189(7) . . .
142(6) . . .
167(7) . . .
165(7) . . .
171(7) . . .
159(7) . . .
175(7) . . .
190(7) . . .
189(7) . . .
190(7) . . .
189(7) . . .
189(7) . . .
178(7) . . .
172(7) . . .
171(7) . . .
162(7) . . .
157(7) . . .
165(7) . . .
167(7) . . .
161(7) . . .
168(7) . . .
159(7) . . .
170(7) . . .
164(7) . . .
161(7) . . .
171(7) . . .
163(7) . . .
153(7) . . .
159(7) . . .
171(7) . . .
162(7) . . .
167(7) . . .
164(7) . . .
137(6) . . .
157(7) . . .
156(6) . . .
159(7) . . .
165(7) . . .
160(7) . . .
159(7) . . .
151(6) . . .
161(7) . . .
180(8) . . .
170(7) . . .
165(7) . . .
153(6) . . .
187(8) . . .
177(7) . . .
181(7) . . .
170(7) . . .
191(7) . . .
189(7) . . .
186(7) . . .
163(7) . . .
163(7) . . .
198(7) . . .
164(7) . . .
205(8) . . .
183(7) . . .
172(7) . . .
175(7) . . .
181(7) . . .
183(7) . . .
182(7) . . .
178(7) . . .
181(7) . . .
174(7) . . .
176(7) . . .
191(7) . . .
154(6) . . .
184(7) . . .
161(7) . . .
175(7) . . .
198(8) . . .
166(7) . . .
182(7) . . .
176(7) . . .
174(7) . . .
162(7) . . .
164(7) . . .
170(7) . . .
182(7) . . .
192(8) . . .
172(7) . . .
159(7) . . .
150(6) . . .
171(7) . . .
158(7) . . .
151(7) . . .
171(7) . . .
168(7) . . .
183(7) . . .
183(8) . . .
170(7) . . .
167(7) . . .
165(7) . . .
168(7) . . .
166(7) . . .
163(7) . . .
170(7) . . .
159(7) . . .
166(7) . . .
169(7) . . .
172(7) . . .
155(6) . . .
140(6) . . .
173(7) . . .
153(7) . . .
179(7) . . .
169(7) . . .
160(7) . . .
155(7) . . .
162(7) . . .
174(7) . . .
161(7) . . .
190(7) . . .
173(7) . . .
181(7) . . .
200(7) . . .
161(7) . . .
183(7) . . .
166(7) . . .
171(7) . . .
194(7) . . .
176(7) . . .
184(7) . . .
175(7) . . .
183(7) . . .
169(7) . . .
190(7) . . .
187(7) . . .
187(8) . . .
172(7) . . .
168(7) . . .
179(7) . . .
187(7) . . .
188(8) . . .
163(7) . . .
172(7) . . .
164(7) . . .
178(7) . . .
176(7) . . .
180(7) . . .
183(7) . . .
163(7) . . .
175(7) . . .
170(7) . . .
182(7) . . .
174(7) . . .
169(7) . . .
156(7) . . .
155(7) . . .
167(7) . . .
159(7) . . .
164(7) . . .
185(7) . . .
161(7) . . .
175(7) . . .
150(6) . . .
170(7) . . .
165(7) . . .
193(8) . . .
159(7) . . .
176(7) . . .
162(7) . . .
160(7) . . .
171(7) . . .
161(7) . . .
173(7) . . .
153(6) . . .
166(7) . . .
165(7) . . .
166(7) . . .
164(7) . . .
163(7) . . .
162(7) . . .
159(7) . . .
164(7) . . .
157(6) . . .
175(7) . . .
160(7) . . .
159(7) . . .
165(7) . . .
140(6) . . .
155(7) . . .
157(7) . . .
158(7) . . .
153(6) . . .
151(6) . . .
148(6) . . .
167(7) . . .
176(7) . . .
165(7) . . .
158(7) . . .
185(8) . . .
151(7) . . .
149(7) . . .
161(7) . . .
173(7) . . .
156(7) . . .
158(7) . . .
190(7) . . .
169(7) . . .
179(7) . . .
158(7) . . .
160(7) . . .
144(6) . . .
138(6) . . .
159(7) . . .
156(7) . . .
166(7) . . .
187(7) . . .
171(7) . . .
163(7) . . .
158(7) . . .
148(7) . . .
162(7) . . .
161(7) . . .
165(7) . . .
162(7) . . .
157(7) . . .
145(6) . . .
161(7) . . .
161(7) . . .
159(7) . . .
161(7) . . .
158(7) . . .
149(6) . . .
153(7) . . .
157(7) . . .
159(7) . . .
165(7) . . .
150(6) . . .
151(7) . . .
157(7) . . .
151(7) . . .
171(7) . . .
174(7) . . .
156(7) . . .
168(7) . . .
167(7) . . .
165(7) . . .
171(7) . . .
154(7) . . .
172(7) . . .
163(7) . . .
170(7) . . .
176(7) . . .
159(7) . . .
159(7) . . .
168(7) . . .
159(7) . . .
152(6) . . .
163(7) . . .
153(7) . . .
156(7) . . .
162(7) . . .
165(7) . . .
169(7) . . .
146(7) . . .
171(7) . . .
175(7) . . .
169(7) . . .
164(7) . . .
167(7) . . .
159(7) . . .
174(7) . . .
178(7) . . .
165(7) . . .
147(7) . . .
140(6) . . .
164(7) . . .
163(7) . . .
160(7) . . .
147(6) . . .
153(6) . . .
160(7) . . .
139(6) . . .
152(7) . . .
152(7) . . .
177(7) . . .
164(7) . . .
150(7) . . .
144(7) . . .
174(7) . . .
156(6) . . .
156(6) . . .
160(7) . . .
149(7) . . .
163(7) . . .
164(7) . . .
161(7) . . .
154(7) . . .
134(6) . . .
153(7) . . .
155(7) . . .
153(6) . . .
144(6) . . .
142(7) . . .
151(7) . . .
158(7) . . .
172(7) . . .
157(7) . . .
149(7) . . .
161(7) . . .
162(7) . . .
162(7) . . .
154(7) . . .
181(8) . . .
163(7) . . .
160(7) . . .
157(7) . . .
157(7) . . .
164(7) . . .
146(6) . . .
143(6) . . .
167(7) . . .
164(7) . . .
161(7) . . .
170(7) . . .
172(7) . . .
173(7) . . .
159(7) . . .
175(7) . . .
161(7) . . .
160(7) . . .
174(7) . . .
182(8) . . .
166(7) . . .
163(7) . . .
171(7) . . .
160(7) . . .
159(7) . . .
171(7) . . .
163(7) . . .
185(7) . . .
169(7) . . .
150(7) . . .
155(7) . . .
151(6) . . .
149(6) . . .
147(6) . . .
133(6) . . .
153(7) . . .
160(7) . . .
163(7) . . .
180(7) . . .
168(7) . . .
177(7) . . .
153(6) . . .
150(7) . . .
161(7) . . .
151(7) . . .
181(7) . . .
168(7) . . .
152(6) . . .
161(7) . . .
166(7) . . .
168(7) . . .
171(7) . . .
157(7) . . .
155(7) . . .
164(7) . . .
172(7) . . .
168(7) . . .
145(6) . . .
153(7) . . .
166(7) . . .
167(7) . . .
176(7) . . .
158(7) . . .
159(7) . . .
168(7) . . .
151(6) . . .
153(6) . . .
168(7) . . .
165(7) . . .
159(7) . . .
157(7) . . .
166(7) . . .
181(7) . . .
175(7) . . .
166(7) . . .
172(7) . . .
175(7) . . .
167(7) . . .
175(7) . . .
172(7) . . .
173(7) . . .
147(6) . . .
155(7) . . .
163(7) . . .
159(7) . . .
176(7) . . .
167(7) . . .
168(7) . . .
155(7) . . .
157(7) . . .
158(7) . . .
157(7) . . .
150(7) . . .
134(6) . . .
146(6) . . .
168(7) . . .
158(7) . . .
156(7) . . .
165(7) . . .
156(7) . . .
158(6) . . .
141(6) . . .
148(7) . . .
153(7) . . .
147(6) . . .
150(6) . . .
144(6) . . .
151(7) . . .
146(6) . . .
157(7) . . .
144(6) . . .
166(7) . . .
159(7) . . .
153(7) . . .
155(6) . . .
177(7) . . .
147(6) . . .
156(7) . . .
156(7) . . .
170(7) . . .
169(7) . . .
144(6) . . .
164(7) . . .
168(7) . . .
181(7) . . .
154(7) . . .
167(7) . . .
152(7) . . .
150(7) . . .
157(7) . . .
139(6) . . .
156(7) . . .
143(7) . . .
169(7) . . .
143(6) . . .
151(6) . . .
157(7) . . .
140(6) . . .
150(6) . . .
168(7) . . .
166(7) . . .
152(6) . . .
163(7) . . .
150(6) . . .
159(6) . . .
167(7) . . .
164(7) . . .
134(6) . . .
152(7) . . .
162(7) . . .
168(7) . . .
156(7) . . .
147(6) . . .
171(7) . . .
148(6) . . .
141(6) . . .
146(7) . . .
159(7) . . .
138(6) . . .
159(7) . . .
156(7) . . .
152(7) . . .
162(7) . . .
163(7) . . .
153(6) . . .
157(7) . . .
152(7) . . .
141(6) . . .
152(6) . . .
154(6) . . .
152(7) . . .
151(7) . . .
139(6) . . .
154(6) . . .
153(6) . . .
150(7) . . .
156(7) . . .
152(7) . . .
148(6) . . .
147(6) . . .
146(6) . . .
159(7) . . .
150(7) . . .
150(6) . . .
153(6) . . .
157(7) . . .
161(7) . . .
183(7) . . .
157(7) . . .
153(7) . . .
150(7) . . .
141(6) . . .
145(6) . . .
147(6) . . .
144(7) . . .
159(7) . . .
162(7) . . .
153(7) . . .
162(7) . . .
160(7) . . .
169(7) . . .
156(7) . . .
154(7) . . .
171(7) . . .
159(7) . . .
168(7) . . .
154(7) . . .
141(6) . . .
149(6) . . .
163(7) . . .
161(7) . . .
149(7) . . .
155(7) . . .
149(6) . . .
150(7) . . .
149(7) . . .
154(7) . . .
176(7) . . .
159(7) . . .
162(7) . . .
157(7) . . .
157(7) . . .
160(7) . . .
171(7) . . .
160(7) . . .
170(7) . . .
161(7) . . .
147(6) . . .
146(6) . . .
156(7) . . .
157(7) . . .
143(6) . . .
142(6) . . .
158(7) . . .
161(7) . . .
167(7) . . .
143(6) . . .
153(6) . . .
148(6) . . .
140(6) . . .
150(7) . . .
155(7) . . .
155(6) . . .
135(6) . . .
150(6) . . .
159(7) . . .
147(7) . . .
137(6) . . .
139(6) . . .
168(7) . . .
151(7) . . .
142(6) . . .
145(6) . . .
163(7) . . .
155(7) . . .
147(7) . . .
151(7) . . .
137(6) . . .
149(6) . . .
154(7) . . .
146(7) . . .
159(7) . . .
146(6) . . .
134(6) . . .
161(7) . . .
171(7) . . .
158(7) . . .
142(6) . . .
156(7) . . .
154(7) . . .
162(7) . . .
181(7) . . .
152(6) . . .
146(7) . . .
149(7) . . .
168(7) . . .
146(6) . . .
165(7) . . .
177(7) . . .
155(7) . . .
169(7) . . .
152(6) . . .
149(6) . . .
154(7) . . .
148(7) . . .
162(7) . . .
144(6) . . .
154(7) . . .
155(7) . . .
163(7) . . .
155(7) . . .
165(7) . . .
164(7) . . .
157(7) . . .
161(7) . . .
141(6) . . .
168(7) . . .
174(7) . . .
162(7) . . .
142(6) . . .
168(7) . . .
161(7) . . .
158(7) . . .
164(7) . . .
147(6) . . .
152(7) . . .
157(7) . . .
144(6) . . .
145(6) . . .
151(7) . . .
127(6) . . .
132(6) . . .
145(6) . . .
134(6) . . .
128(6) . . .
146(7) . . .
144(7) . . .
152(7) . . .
149(6) . . .
149(7) . . .
131(6) . . .
148(7) . . .
155(7) . . .
156(6) . . .
150(6) . . .
141(7) . . .
162(7) . . .
126(6) . . .
153(6) . . .
149(6) . . .
149(7) . . .
143(6) . . .
155(7) . . .
160(7) . . .
146(6) . . .
151(7) . . .
147(6) . . .
148(6) . . .
126(6) . . .
142(6) . . .
139(6) . . .
145(7) . . .
144(6) . . .
149(6) . . .
145(6) . . .
146(7) . . .
141(6) . . .
151(6) . . .
150(7) . . .
140(7) . . .
146(7) . . .
140(6) . . .
141(6) . . .
128(6) . . .
131(6) . . .
163(7) . . .
134(6) . . .
151(6) . . .
156(7) . . .
140(6) . . .
154(7) . . .
154(7) . . .
146(6) . . .
135(6) . . .
136(7) . . .
139(6) . . .
138(6) . . .
149(6) . . .
140(6) . . .
147(7) . . .
121(6) . . .
145(6) . . .
150(6) . . .
138(6) . . .
128(6) . . .
133(6) . . .
131(6) . . .
137(6) . . .
139(6) . . .
149(7) . . .
155(7) . . .
145(6) . . .
152(6) . . .
140(6) . . .
151(7) . . .
151(7) . . .
139(6) . . .
150(6) . . .
149(7) . . .
136(6) . . .
140(6) . . .
149(6) . . .
141(6) . . .
138(6) . . .
145(7) . . .
130(6) . . .
144(6) . . .
141(6) . . .
145(6) . . .
136(6) . . .
148(7) . . .
156(6) . . .
145(7) . . .
147(7) . . .
149(6) . . .
125(6) . . .
157(7) . . .
158(7) . . .
142(6) . . .
148(6) . . .
140(6) . . .
144(6) . . .
158(7) . . .
141(6) . . .
143(6) . . .
151(6) . . .
156(6) . . .
160(7) . . .
174(7) . . .
157(7) . . .
134(6) . . .
146(6) . . .
141(6) . . .
156(7) . . .
140(6) . . .
145(6) . . .
142(6) . . .
153(7) . . .
154(7) . . .
135(6) . . .
154(6) . . .
165(7) . . .
148(7) . . .
157(7) . . .
156(7) . . .
155(7) . . .
142(6) . . .
140(7) . . .
141(6) . . .
148(7) . . .
141(6) . . .
147(6) . . .
151(7) . . .
141(6) . . .
120(6) . . .
151(6) . . .
126(6) . . .
158(7) . . .
146(7) . . .
148(7) . . .
149(6) . . .
152(6) . . .
148(7) . . .
145(6) . . .
147(6) . . .
142(6) . . .
131(6) . . .
151(7) . . .
157(7) . . .
143(6) . . .
136(6) . . .
151(7) . . .
156(7) . . .
158(7) . . .
151(6) . . .
142(6) . . .
150(7) . . .
139(6) . . .
168(7) . . .
135(6) . . .
140(6) . . .
145(7) . . .
163(7) . . .
161(7) . . .
174(7) . . .
146(6) . . .
143(6) . . .
147(7) . . .
155(6) . . .
157(7) . . .
148(6) . . .
151(7) . . .
168(7) . . .
145(7) . . .
136(6) . . .
163(7) . . .
159(7) . . .
145(6) . . .
144(6) . . .
167(7) . . .
161(7) . . .
138(6) . . .
168(7) . . .
172(7) . . .
143(6) . . .
148(6) . . .
149(7) . . .
150(7) . . .
157(7) . . .
136(6) . . .
145(7) . . .
159(7) . . .
137(6) . . .
137(6) . . .
146(6) . . .
148(6) . . .
179(7) . . .
151(7) . . .
150(6) . . .
155(6) . . .
158(7) . . .
162(7) . . .
158(7) . . .
147(6) . . .
153(6) . . .
161(7) . . .
152(7) . . .
154(7) . . .
151(6) . . .
156(6) . . .
142(6) . . .
141(7) . . .
139(6) . . .
129(6) . . .
151(6) . . .
154(7) . . .
148(7) . . .
162(7) . . .
148(6) . . .
141(6) . . .
155(7) . . .
148(7) . . .
150(7) . . .
152(6) . . .
166(7) . . .
153(7) . . .
154(7) . . .
147(7) . . .
158(7) . . .
149(6) . . .
149(7) . . .
144(7) . . .
146(6) . . .
143(6) . . .
143(6) . . .
143(7) . . .
141(6) . . .
150(6) . . .
137(6) . . .
161(7) . . .
155(7) . . .
134(6) . . .
149(7) . . .
140(6) . . .
134(6) . . .
143(7) . . .
150(7) . . .
140(6) . . .
135(6) . . .
156(7) . . .
157(7) . . .
137(6) . . .
136(6) . . .
137(6) . . .
141(6) . . .
160(7) . . .
162(7) . . .
148(6) . . .
133(6) . . .
141(6) . . .
143(7) . . .
142(6) . . .
160(7) . . .
156(7) . . .
146(6) . . .
163(7) . . .
146(6) . . .
149(6) . . .
131(6) . . .
127(6) . . .
141(7) . . .
143(7) . . .
148(6) . . .
153(6) . . .
139(6) . . .
158(7) . . .
152(7) . . .
142(6) . . .
150(6) . . .
161(7) . . .
139(7) . . .
134(6) . . .
138(6) . . .
157(7) . . .
164(7) . . .
157(7) . . .
148(7) . . .
152(6) . . .
153(7) . . .
142(6) . . .
137(6) . . .
149(7) . . .
150(6) . . .
153(7) . . .
141(7) . . .
152(7) . . .
146(6) . . .
158(7) . . .
142(6) . . .
134(6) . . .
143(6) . . .
143(6) . . .
159(7) . . .
139(6) . . .
155(7) . . .
144(6) . . .
146(6) . . .
158(7) . . .
153(7) . . .
147(7) . . .
146(7) . . .
142(6) . . .
149(6) . . .
155(7) . . .
151(7) . . .
144(6) . . .
169(7) . . .
142(6) . . .
150(7) . . .
149(7) . . .
150(7) . . .
141(6) . . .
148(6) . . .
140(6) . . .
145(7) . . .
147(7) . . .
141(6) . . .
154(7) . . .
145(6) . . .
134(6) . . .
157(7) . . .
147(6) . . .
148(6) . . .
147(6) . . .
140(6) . . .
155(7) . . .
147(6) . . .
148(6) . . .
161(7) . . .
148(7) . . .
135(6) . . .
150(6) . . .
141(6) . . .
147(7) . . .
161(7) . . .
166(7) . . .
164(7) . . .
140(6) . . .
137(6) . . .
152(7) . . .
141(6) . . .
153(6) . . .
158(7) . . .
157(7) . . .
152(7) . . .
147(6) . . .
134(6) . . .
150(7) . . .
154(7) . . .
149(7) . . .
160(7) . . .
155(7) . . .
148(7) . . .
157(7) . . .
148(7) . . .
146(6) . . .
143(6) . . .
137(6) . . .
146(7) . . .
164(7) . . .
136(6) . . .
141(6) . . .
152(7) . . .
146(7) . . .
142(6) . . .
153(6) . . .
148(6) . . .
156(7) . . .
164(7) . . .
164(7) . . .
156(6) . . .
134(6) . . .
144(6) . . .
131(6) . . .
129(6) . . .
140(6) . . .
150(7) . . .
156(7) . . .
141(6) . . .
156(7) . . .
145(6) . . .
149(6) . . .
133(6) . . .
149(7) . . .
150(7) . . .
180(7) . . .
137(6) . . .
141(6) . . .
163(7) . . .
144(6) . . .
139(6) . . .
131(6) . . .
147(7) . . .
146(7) . . .
143(6) . . .
144(6) . . .
159(7) . . .
146(7) . . .
145(6) . . .
158(7) . . .
144(6) . . .
145(6) . . .
140(7) . . .
140(6) . . .
160(7) . . .
157(7) . . .
157(7) . . .
143(7) . . .
132(6) . . .
156(6) . . .
153(6) . . .
157(7) . . .
161(7) . . .
147(6) . . .
147(6) . . .
133(6) . . .
147(7) . . .
150(7) . . .
163(7) . . .
158(7) . . .
169(7) . . .
140(6) . . .
143(7) . . .
156(7) . . .
147(6) . . .
143(6) . . .
148(6) . . .
152(7) . . .
154(7) . . .
141(6) . . .
165(7) . . .
167(7) . . .
154(7) . . .
151(7) . . .
160(7) . . .
135(6) . . .
139(6) . . .
147(7) . . .
157(7) . . .
162(7) . . .
159(7) . . .
160(7) . . .
150(7) . . .
154(7) . . .
155(6) . . .
156(7) . . .
143(7) . . .
144(6) . . .
146(6) . . .
150(6) . . .
136(6) . . .
136(6) . . .
151(7) . . .
141(6) . . .
142(6) . . .
139(6) . . .
156(7) . . .
157(7) . . .
153(7) . . .
138(6) . . .
150(7) . . .
148(7) . . .
158(7) . . .
142(6) . . .
141(6) . . .
150(7) . . .
149(7) . . .
143(6) . . .
133(6) . . .
146(6) . . .
147(7) . . .
135(6) . . .
143(6) . . .
147(6) . . .
145(6) . . .
153(7) . . .
157(7) . . .
161(7) . . .
167(7) . . .
160(7) . . .
147(7) . . .
148(7) . . .
153(7) . . .
159(7) . . .
165(7) . . .
171(7) . . .
147(7) . . .
155(7) . . .
142(6) . . .
178(7) . . .
152(7) . . .
140(6) . . .
162(7) . . .
140(6) . . .
131(6) . . .
158(7) . . .
171(7) . . .
149(6) . . .
162(7) . . .
150(7) . . .
145(7) . . .
156(7) . . .
161(7) . . .
153(6) . . .
141(6) . . .
166(7) . . .
165(7) . . .
164(7) . . .
175(7) . . .
161(7) . . .
156(7) . . .
168(7) . . .
146(6) . . .
158(7) . . .
166(7) . . .
158(7) . . .
134(6) . . .
157(7) . . .
154(6) . . .
156(7) . . .
153(7) . . .
147(6) . . .
160(7) . . .
145(6) . . .
150(7) . . .
163(7) . . .
159(7) . . .
157(7) . . .
165(7) . . .
148(7) . . .
158(7) . . .
151(7) . . .
145(6) . . .
157(7) . . .
149(7) . . .
143(6) . . .
154(7) . . .
139(6) . . .
157(7) . . .
155(7) . . .
159(7) . . .
174(7) . . .
158(6) . . .
156(7) . . .
144(7) . . .
151(7) . . .
149(6) . . .
146(6) . . .
157(7) . . .
164(7) . . .
164(7) . . .
148(6) . . .
172(7) . . .
149(7) . . .
171(7) . . .
171(7) . . .
167(7) . . .
148(6) . . .
154(7) . . .
139(7) . . .
148(7) . . .
165(7) . . .
155(7) . . .
141(6) . . .
148(7) . . .
149(7) . . .
159(7) . . .
145(6) . . .
152(7) . . .
153(7) . . .
153(7) . . .
156(6) . . .
148(6) . . .
137(6) . . .
153(7) . . .
163(7) . . .
154(6) . . .
150(7) . . .
146(7) . . .
147(7) . . .
144(7) . . .
156(6) . . .
166(7) . . .
153(7) . . .
157(7) . . .
136(6) . . .
135(6) . . .
154(7) . . .
153(7) . . .
141(7) . . .
146(6) . . .
158(7) . . .
166(7) . . .
153(7) . . .
157(7) . . .
165(7) . . .
155(6) . . .
169(7) . . .
154(7) . . .
159(7) . . .
149(6) . . .
154(6) . . .
163(7) . . .
148(7) . . .
169(7) . . .
166(7) . . .
162(7) . . .
169(7) . . .
174(7) . . .
172(7) . . .
171(7) . . .
176(7) . . .
162(7) . . .
153(7) . . .
167(7) . . .
166(7) . . .
159(6) . . .
168(7) . . .
163(7) . . .
166(7) . . .
166(7) . . .
171(7) . . .
167(7) . . .
149(7) . . .
145(7) . . .
150(6) . . .
166(7) . . .
157(7) . . .
166(7) . . .
160(7) . . .
146(6) . . .
152(7) . . .
155(7) . . .
155(7) . . .
149(6) . . .
157(7) . . .
154(7) . . .
159(7) . . .
168(7) . . .
147(6) . . .
141(6) . . .
141(6) . . .
136(6) . . .
147(7) . . .
134(6) . . .
148(6) . . .
160(7) . . .
147(7) . . .
155(7) . . .
135(6) . . .
163(7) . . .
140(6) . . .
157(7) . . .
151(7) . . .
157(6) . . .
166(7) . . .
138(6) . . .
145(6) . . .
156(7) . . .
166(7) . . .
165(7) . . .
164(7) . . .
150(7) . . .
151(7) . . .
145(6) . . .
144(6) . . .
147(7) . . .
156(7) . . .
152(7) . . .
139(6) . . .
151(6) . . .
159(7) . . .
153(7) . . .
151(7) . . .
167(7) . . .
162(7) . . .
149(7) . . .
146(7) . . .
147(7) . . .
155(6) . . .
149(7) . . .
139(6) . . .
146(6) . . .
158(7) . . .
155(6) . . .
162(7) . . .
136(6) . . .
142(7) . . .
163(7) . . .
159(6) . . .
147(6) . . .
152(7) . . .
147(7) . . .
152(7) . . .
150(6) . . .
163(7) . . .
154(7) . . .
161(7) . . .
157(7) . . .
160(7) . . .
150(6) . . .
148(7) . . .
157(7) . . .
151(6) . . .
147(6) . . .
155(7) . . .
164(7) . . .
155(6) . . .
158(6) . . .
152(6) . . .
161(7) . . .
166(7) . . .
160(7) . . .
161(7) . . .
151(6) . . .
141(6) . . .
136(6) . . .
167(7) . . .
157(7) . . .
156(7) . . .
148(6) . . .
178(7) . . .
142(6) . . .
150(6) . . .
148(6) . . .
155(7) . . .
144(7) . . .
151(7) . . .
146(6) . . .
149(6) . . .
128(6) . . .
164(7) . . .
151(7) . . .
158(7) . . .
170(7) . . .
178(7) . . .
163(7) . . .
157(7) . . .
166(7) . . .
173(7) . . .
160(7) . . .
144(7) . . .
154(7) . . .
152(6) . . .
156(7) . . .
173(7) . . .
147(6) . . .
141(6) . . .
156(6) . . .
146(7) . . .
147(7) . . .
135(6) . . .
165(7) . . .
166(7) . . .
146(6) . . .
167(7) . . .
159(7) . . .
156(6) . . .
168(7) . . .
157(7) . . .
165(7) . . .
140(6) . . .
147(6) . . .
153(6) . . .
149(7) . . .
159(7) . . .
152(6) . . .
158(6) . . .
168(7) . . .
158(7) . . .
152(7) . . .
159(7) . . .
155(6) . . .
148(6) . . .
136(6) . . .
156(7) . . .
149(6) . . .
151(6) . . .
155(7) . . .
145(7) . . .
153(7) . . .
152(7) . . .
149(6) . . .
153(7) . . .
155(7) . . .
143(6) . . .
143(6) . . .
141(6) . . .
137(6) . . .
149(7) . . .
153(7) . . .
161(7) . . .
152(6) . . .
150(7) . . .
172(7) . . .
153(7) . . .
152(6) . . .
149(6) . . .
151(7) . . .
141(6) . . .
153(7) . . .
147(6) . . .
147(6) . . .
150(7) . . .
150(7) . . .
161(7) . . .
146(6) . . .
142(6) . . .
148(6) . . .
152(7) . . .
152(7) . . .
155(7) . . .
142(6) . . .
134(6) . . .
160(7) . . .
164(7) . . .
147(6) . . .
158(7) . . .
163(7) . . .
138(7) . . .
136(6) . . .
166(7) . . .
135(6) . . .
151(7) . . .
152(7) . . .
158(7) . . .
162(7) . . .
147(6) . . .
137(6) . . .
159(7) . . .
146(7) . . .
151(6) . . .
165(7) . . .
152(7) . . .
156(7) . . .
159(7) . . .
148(6) . . .
154(7) . . .
153(7) . . .
152(7) . . .
142(6) . . .
149(6) . . .
165(7) . . .
160(7) . . .
135(6) . . .
151(6) . . .
158(7) . . .
161(7) . . .
168(7) . . .
163(7) . . .
155(7) . . .
154(6) . . .
150(6) . . .
158(7) . . .
160(7) . . .
150(6) . . .
164(7) . . .
131(6) . . .
145(7) . . .
160(7) . . .
163(7) . . .
157(7) . . .
145(6) . . .
160(7) . . .
137(6) . . .
126(6) . . .
139(6) . . .
143(7) . . .
146(7) . . .
152(7) . . .
146(6) . . .
154(6) . . .
145(6) . . .
162(7) . . .
137(6) . . .
155(6) . . .
140(6) . . .
167(7) . . .
143(6) . . .
140(6) . . .
134(6) . . .
150(6) . . .
139(6) . . .
137(6) . . .
155(7) . . .
153(6) . . .
155(7) . . .
150(7) . . .
146(7) . . .
138(6) . . .
144(6) . . .
141(6) . . .
147(7) . . .
140(6) . . .
141(6) . . .
148(6) . . .
141(6) . . .
151(7) . . .
136(6) . . .
130(6) . . .
136(6) . . .
141(6) . . .
141(6) . . .
147(7) . . .
155(7) . . .
162(7) . . .
141(6) . . .
173(7) . . .
146(6) . . .
142(6) . . .
159(7) . . .
169(7) . . .
148(7) . . .
166(7) . . .
141(6) . . .
146(6) . . .
149(7) . . .
138(6) . . .
133(6) . . .
134(6) . . .
163(7) . . .
158(7) . . .
136(6) . . .
131(6) . . .
148(6) . . .
147(6) . . .
154(7) . . .
143(7) . . .
148(7) . . .
137(6) . . .
149(6) . . .
140(6) . . .
156(7) . . .
156(7) . . .
155(6) . . .
138(6) . . .
135(6) . . .
138(6) . . .
152(7) . . .
136(6) . . .
153(7) . . .
143(7) . . .
145(6) . . .
155(7) . . .
135(6) . . .
163(7) . . .
145(6) . . .
150(7) . . .
145(6) . . .
160(7) . . .
134(6) . . .
127(6) . . .
139(6) . . .
136(6) . . .
146(6) . . .
147(7) . . .
144(7) . . .
139(6) . . .
159(6) . . .
144(6) . . .
145(6) . . .
138(6) . . .
170(7) . . .
154(6) . . .
167(7) . . .
161(7) . . .
133(6) . . .
143(6) . . .
152(7) . . .
151(6) . . .
145(6) . . .
154(7) . . .
147(6) . . .
145(6) . . .
149(6) . . .
148(7) . . .
153(7) . . .
147(7) . . .
153(6) . . .
158(7) . . .
153(7) . . .
158(7) . . .
152(7) . . .
159(7) . . .
143(6) . . .
151(7) . . .
135(6) . . .
147(7) . . .
149(6) . . .
141(6) . . .
152(7) . . .
135(6) . . .
156(7) . . .
155(6) . . .
148(7) . . .
132(6) . . .
140(6) . . .
151(6) . . .
155(7) . . .
159(7) . . .
135(6) . . .
135(6) . . .
155(7) . . .
157(6) . . .
155(7) . . .
143(7) . . .
143(6) . . .
157(6) . . .
146(6) . . .
151(7) . . .
148(7) . . .
153(7) . . .
142(6) . . .
151(7) . . .
143(6) . . .
159(7) . . .
164(7) . . .
143(6) . . .
153(6) . . .
120(6) . . .
129(6) . . .
149(7) . . .
146(6) . . .
169(7) . . .
136(6) . . .
156(7) . . .
139(7) . . .
148(6) . . .
138(6) . . .
161(7) . . .
154(7) . . .
144(6) . . .
143(6) . . .
148(6) . . .
150(7) . . .
150(7) . . .
137(6) . . .
143(6) . . .
148(6) . . .
154(7) . . .
161(7) . . .
161(7) . . .
147(6) . . .
152(7) . . .
151(7) . . .
142(6) . . .
160(7) . . .
153(6) . . .
147(7) . . .
141(7) . . .
143(7) . . .
183(7) . . .
138(6) . . .
151(7) . . .
161(7) . . .
164(7) . . .
154(6) . . .
158(7) . . .
163(7) . . .
158(7) . . .
148(7) . . .
137(6) . . .
143(6) . . .
154(7) . . .
147(7) . . .
141(6) . . .
146(6) . . .
139(6) . . .
159(7) . . .
148(7) . . .
134(6) . . .
144(6) . . .
138(6) . . .
156(7) . . .
144(7) . . .
162(7) . . .
157(6) . . .
143(6) . . .
150(7) . . .
158(7) . . .
157(7) . . .
155(7) . . .
162(7) . . .
150(7) . . .
157(7) . . .
160(7) . . .
148(6) . . .
148(7) . . .
156(7) . . .
155(7) . . .
148(6) . . .
151(6) . . .
155(7) . . .
150(7) . . .
148(6) . . .
143(6) . . .
155(6) . . .
160(7) . . .
145(6) . . .
154(7) . . .
142(6) . . .
165(7) . . .
160(7) . . .
140(6) . . .
155(7) . . .
151(6) . . .
152(6) . . .
152(7) . . .
169(7) . . .
142(6) . . .
144(6) . . .
168(7) . . .
153(7) . . .
141(7) . . .
165(7) . . .
142(6) . . .
148(6) . . .
145(6) . . .
154(7) . . .
145(6) . . .
152(6) . . .
141(6) . . .
128(6) . . .
146(7) . . .
136(6) . . .
149(6) . . .
160(7) . . .
166(7) . . .
147(7) . . .
148(7) . . .
157(7) . . .
152(6) . . .
150(6) . . .
170(7) . . .
148(6) . . .
159(7) . . .
149(6) . . .
166(7) . . .
165(7) . . .
155(7) . . .
150(6) . . .
154(7) . . .
158(7) . . .
153(7) . . .
157(7) . . .
156(6) . . .
156(7) . . .
140(6) . . .
172(7) . . .
151(6) . . .
158(7) . . .
136(6) . . .
142(7) . . .
145(6) . . .
146(6) . . .
144(6) . . .
151(7) . . .
140(7) . . .
148(6) . . .
146(6) . . .
153(6) . . .
153(7) . . .
135(6) . . .
145(6) . . .
149(6) . . .
152(6) . . .
125(6) . . .
145(7) . . .
139(6) . . .
153(6) . . .
154(7) . . .
148(6) . . .
158(7) . . .
151(7) . . .
148(6) . . .
149(6) . . .
143(6) . . .
128(6) . . .
137(6) . . .
158(7) . . .
139(6) . . .
156(7) . . .
143(6) . . .
144(6) . . .
156(7) . . .
142(6) . . .
150(7) . . .
154(7) . . .
148(6) . . .
164(7) . . .
143(6) . . .
165(7) . . .
158(7) . . .
160(7) . . .
145(6) . . .
156(7) . . .
143(6) . . .
145(6) . . .
163(7) . . .
153(6) . . .
162(7) . . .
160(7) . . .
161(7) . . .
135(6) . . .
138(6) . . .
150(7) . . .
161(7) . . .
142(6) . . .
158(7) . . .
165(7) . . .
155(7) . . .
140(7) . . .
154(7) . . .
156(7) . . .
158(7) . . .
158(7) . . .
150(7) . . .
148(6) . . .
146(6) . . .
140(6) . . .
164(7) . . .
149(7) . . .
161(7) . . .
153(6) . . .
161(7) . . .
148(7) . . .
139(7) . . .
147(7) . . .
172(7) . . .
152(6) . . .
159(7) . . .
151(7) . . .
161(7) . . .
151(6) . . .
156(7) . . .
174(7) . . .
156(7) . . .
159(7) . . .
161(7) . . .
148(7) . . .
158(7) . . .
144(6) . . .
162(7) . . .
154(7) . . .
162(7) . . .
149(7) . . .
170(7) . . .
171(7) . . .
157(6) . . .
151(7) . . .
157(7) . . .
163(7) . . .
147(6) . . .
151(6) . . .
146(7) . . .
143(7) . . .
142(6) . . .
144(6) . . .
158(6) . . .
142(6) . . .
142(7) . . .
136(6) . . .
161(7) . . .
148(6) . . .
154(7) . . .
158(7) . . .
155(7) . . .
155(7) . . .
148(6) . . .
158(7) . . .
155(7) . . .
154(7) . . .
147(6) . . .
164(7) . . .
140(6) . . .
137(6) . . .
159(7) . . .
157(7) . . .
143(6) . . .
138(6) . . .
142(6) . . .
155(7) . . .
155(7) . . .
151(6) . . .
141(6) . . .
156(7) . . .
149(7) . . .
154(6) . . .
153(7) . . .
149(7) . . .
143(6) . . .
145(6) . . .
155(6) . . .
132(6) . . .
147(6) . . .
139(6) . . .
140(6) . . .
154(6) . . .
156(7) . . .
143(7) . . .
158(7) . . .
134(6) . . .
153(6) . . .
149(7) . . .
151(7) . . .
153(7) . . .
151(6) . . .
146(6) . . .
146(7) . . .
145(7) . . .
150(7) . . .
156(6) . . .
163(7) . . .
149(6) . . .
148(7) . . .
149(6) . . .
150(6) . . .
159(7) . . .
131(6) . . .
136(6) . . .
146(7) . . .
139(6) . . .
147(7) . . .
142(6) . . .
159(7) . . .
145(6) . . .
149(6) . . .
153(7) . . .
146(6) . . .
165(7) . . .
140(6) . . .
145(6) . . .
152(7) . . .
164(7) . . .
149(6) . . .
140(6) . . .
142(6) . . .
153(7) . . .
155(7) . . .
167(7) . . .
147(6) . . .
152(6) . . .
141(6) . . .
149(7) . . .
141(6) . . .
141(6) . . .
141(6) . . .
158(7) . . .
155(7) . . .
138(6) . . .
144(6) . . .
161(7) . . .
142(6) . . .
152(7) . . .
144(6) . . .
146(6) . . .
159(7) . . .
159(7) . . .
144(7) . . .
166(7) . . .
154(6) . . .
157(6) . . .
154(7) . . .
151(7) . . .
146(6) . . .
166(7) . . .
162(7) . . .
146(7) . . .
153(7) . . .
149(7) . . .
144(6) . . .
156(7) . . .
150(7) . . .
162(7) . . .
159(7) . . .
162(7) . . .
160(7) . . .
145(6) . . .
137(6) . . .
161(7) . . .
171(7) . . .
143(6) . . .
139(6) . . .
131(6) . . .
150(6) . . .
155(7) . . .
155(7) . . .
169(7) . . .
159(7) . . .
149(6) . . .
144(6) . . .
151(6) . . .
157(7) . . .
150(7) . . .
162(7) . . .
127(6) . . .
139(6) . . .
154(7) . . .
155(7) . . .
129(6) . . .
164(7) . . .
139(6) . . .
155(7) . . .
147(7) . . .
135(6) . . .
154(6) . . .
153(6) . . .
152(7) . . .
149(7) . . .
139(6) . . .
140(6) . . .
141(6) . . .
139(6) . . .
159(7) . . .
148(6) . . .
157(6) . . .
148(6) . . .
151(7) . . .
147(6) . . .
153(7) . . .
146(6) . . .
137(6) . . .
149(7) . . .
155(7) . . .
162(7) . . .
134(6) . . .
147(7) . . .
139(7) . . .
129(6) . . .
149(6) . . .
140(6) . . .
143(6) . . .
138(7) . . .
143(6) . . .
161(7) . . .
136(6) . . .
154(7) . . .
136(6) . . .
150(7) . . .
154(6) . . .
155(7) . . .
159(7) . . .
149(7) . . .
158(7) . . .
146(6) . . .
138(6) . . .
133(6) . . .
156(7) . . .
166(7) . . .
141(6) . . .
150(7) . . .
147(7) . . .
140(6) . . .
150(6) . . .
144(6) . . .
146(7) . . .
140(6) . . .
153(7) . . .
133(6) . . .
135(6) . . .
129(6) . . .
147(7) . . .
147(6) . . .
129(6) . . .
147(6) . . .
132(6) . . .
147(7) . . .
135(6) . . .
143(6) . . .
134(6) . . .
143(6) . . .
146(7) . . .
151(7) . . .
142(6) . . .
128(6) . . .
139(6) . . .
131(6) . . .
136(6) . . .
147(6) . . .
155(7) . . .
137(6) . . .
148(7) . . .
144(6) . . .
139(6) . . .
164(7) . . .
153(7) . . .
154(7) . . .
140(6) . . .
149(6) . . .
155(7) . . .
139(6) . . .
138(6) . . .
151(6) . . .
146(6) . . .
128(6) . . .
133(6) . . .
146(7) . . .
152(7) . . .
148(6) . . .
145(6) . . .
137(6) . . .
132(6) . . .
134(6) . . .
134(6) . . .
144(7) . . .
132(6) . . .
152(7) . . .
142(6) . . .
136(6) . . .
147(6) . . .
138(6) . . .
141(6) . . .
165(7) . . .
130(6) . . .
135(6) . . .
133(6) . . .
134(6) . . .
145(6) . . .
157(7) . . .
142(6) . . .
137(6) . . .
166(7) . . .
142(6) . . .
146(6) . . .
151(7) . . .
149(7) . . .
133(6) . . .
135(6) . . .
162(7) . . .
159(7) . . .
159(7) . . .
145(6) . . .
155(6) . . .
156(7) . . .
153(7) . . .
144(7) . . .
131(6) . . .
151(6) . . .
142(6) . . .
153(7) . . .
146(6) . . .
149(6) . . .
140(6) . . .
146(6) . . .
146(7) . . .
153(7) . . .
140(6) . . .
142(6) . . .
151(7) . . .
132(6) . . .
148(7) . . .
150(6) . . .
146(6) . . .
142(6) . . .
141(6) . . .
160(7) . . .
137(6) . . .
156(7) . . .
140(6) . . .
138(6) . . .
146(7) . . .
157(7) . . .
142(6) . . .
140(7) . . .
155(7) . . .
143(6) . . .
147(6) . . .
152(6) . . .
158(7) . . .
153(7) . . .
142(6) . . .
144(6) . . .
139(6) . . .
135(6) . . .
153(7) . . .
173(7) . . .
149(6) . . .
130(6) . . .
148(6) . . .
175(7) . . .
159(7) . . .
150(6) . . .
138(6) . . .
140(6) . . .
152(7) . . .
140(6) . . .
145(6) . . .
136(6) . . .
166(7) . . .
149(7) . . .
126(6) . . .
139(6) . . .
144(6) . . .
151(7) . . .
160(7) . . .
142(6) . . .
146(6) . . .
150(7) . . .
125(6) . . .
146(7) . . .
143(6) . . .
142(6) . . .
141(6) . . .
131(6) . . .
126(6) . . .
135(6) . . .
149(6) . . .
143(6) . . .
145(7) . . .
149(7) . . .
144(6) . . .
150(6) . . .
137(6) . . .
142(7) . . .
145(7) . . .
145(6) . . .
145(6) . . .
134(6) . . .
151(7) . . .
137(6) . . .
142(6) . . .
144(6) . . .
144(6) . . .
145(7) . . .
143(6) . . .
136(6) . . .
140(6) . . .
140(6) . . .
157(7) . . .
154(7) . . .
157(7) . . .
148(6) . . .
151(7) . . .
138(6) . . .
163(7) . . .
156(6) . . .
129(6) . . .
137(6) . . .
135(6) . . .
133(6) . . .
151(6) . . .
155(7) . . .
154(7) . . .
149(6) . . .
154(7) . . .
128(6) . . .
137(6) . . .
141(6) . . .
154(7) . . .
155(7) . . .
134(6) . . .
156(7) . . .
140(6) . . .
140(6) . . .
162(7) . . .
160(7) . . .
153(7) . . .
153(7) . . .
146(6) . . .
154(7) . . .
157(7) . . .
149(6) . . .
152(7) . . .
156(7) . . .
131(6) . . .
143(6) . . .
142(6) . . .
145(7) . . .
141(7) . . .
138(6) . . .
148(6) . . .
159(7) . . .
138(7) . . .
141(7) . . .
145(6) . . .
138(6) . . .
132(6) . . .
147(7) . . .
141(6) . . .
140(6) . . .
151(6) . . .
149(6) . . .
138(6) . . .
139(6) . . .
148(6) . . .
148(6) . . .
151(7) . . .
146(7) . . .
144(7) . . .
163(7) . . .
148(7) . . .
129(6) . . .
138(6) . . .
154(7) . . .
141(6) . . .
145(6) . . .
152(7) . . .
146(6) . . .
148(6) . . .
131(6) . . .
162(7) . . .
140(6) . . .
141(6) . . .
149(6) . . .
136(6) . . .
147(7) . . .
151(7) . . .
148(6) . . .
148(6) . . .
161(7) . . .
137(6) . . .
135(7) . . .
147(7) . . .
146(6) . . .
138(6) . . .
134(6) . . .
146(7) . . .
154(7) . . .
174(7) . . .
157(7) . . .
145(6) . . .
141(7) . . .
155(7) . . .
160(7) . . .
152(6) . . .
149(7) . . .
134(6) . . .
153(7) . . .
141(6) . . .
132(6) . . .
145(7) . . .
129(6) . . .
127(6) . . .
140(6) . . .
134(6) . . .
155(7) . . .
153(7) . . .
164(7) . . .
150(6) . . .
139(6) . . .
142(6) . . .
152(7) . . .
143(7) . . .
145(6) . . .
145(6) . . .
157(7) . . .
137(6) . . .
145(6) . . .
142(6) . . .
145(6) . . .
167(7) . . .
148(6) . . .
151(6) . . .
146(6) . . .
145(6) . . .
159(7) . . .
162(7) . . .
135(6) . . .
153(6) . . .
162(7) . . .
148(7) . . .
142(6) . . .
160(7) . . .
141(6) . . .
135(6) . . .
150(7) . . .
154(7) . . .
140(6) . . .
130(6) . . .
146(7) . . .
149(7) . . .
157(7) . . .
161(7) . . .
130(6) . . .
140(7) . . .
141(6) . . .
169(7) . . .
154(6) . . .
152(7) . . .
129(6) . . .
152(7) . . .
143(6) . . .
140(6) . . .
161(7) . . .
149(6) . . .
139(6) . . .
135(6) . . .
137(6) . . .
141(6) . . .
151(7) . . .
141(6) . . .
138(6) . . .
159(7) . . .
146(6) . . .
136(6) . . .
140(7) . . .
127(6) . . .
133(6) . . .
150(7) . . .
159(7) . . .
151(7) . . .
136(6) . . .
147(6) . . .
138(6) . . .
143(6) . . .
157(7) . . .
141(6) . . .
145(6) . . .
151(7) . . .
140(6) . . .
144(6) . . .
158(7) . . .
136(6) . . .
133(6) . . .
154(7) . . .
161(7) . . .
158(7) . . .
141(6) . . .
145(6) . . .
147(7) . . .
134(6) . . .
146(6) . . .
134(6) . . .
150(7) . . .
151(7) . . .
149(7) . . .
150(6) . . .
146(6) . . .
148(7) . . .
154(7) . . .
157(7) . . .
149(6) . . .
137(6) . . .
145(6) . . .
155(7) . . .
167(7) . . .
135(6) . . .
142(6) . . .
153(7) . . .
165(7) . . .
153(7) . . .
165(7) . . .
139(6) . . .
161(7) . . .
151(7) . . .
169(7) . . .
150(6) . . .
148(7) . . .
140(6) . . .
148(7) . . .
163(7) . . .
137(6) . . .
143(6) . . .
141(6) . . .
147(6) . . .
148(6) . . .
158(6) . . .
155(7) . . .
130(6) . . .
153(7) . . .
133(6) . . .
149(6) . . .
143(6) . . .
147(7) . . .
143(6) . . .
131(6) . . .
147(6) . . .
151(7) . . .
151(7) . . .
154(7) . . .
151(6) . . .
147(6) . . .
156(7) . . .
153(7) . . .
148(7) . . .
127(6) . . .
139(6) . . .
139(6) . . .
138(6) . . .
141(6) . . .
149(6) . . .
145(6) . . .
158(7) . . .
142(7) . . .
148(6) . . .
140(6) . . .
134(6) . . .
142(7) . . .
143(7) . . .
139(6) . . .
166(7) . . .
157(7) . . .
145(7) . . .
152(7) . . .
155(7) . . .
157(6) . . .
122(6) . . .
138(7) . . .
160(7) . . .
140(6) . . .
147(6) . . .
138(6) . . .
149(7) . . .
141(7) . . .
119(6) . . .
133(6) . . .
141(6) . . .
134(6) . . .
145(7) . . .
145(6) . . .
154(6) . . .
136(6) . . .
146(7) . . .
144(7) . . .
147(6) . . .
148(6) . . .
135(6) . . .
126(6) . . .
141(6) . . .
153(6) . . .
139(6) . . .
150(7) . . .
135(6) . . .
149(6) . . .
143(6) . . .
128(6) . . .
143(7) . . .
146(7) . . .
156(7) . . .
141(6) . . .
148(6) . . .
143(6) . . .
164(7) . . .
147(6) . . .
153(6) . . .
160(7) . . .
142(6) . . .
134(6) . . .
150(7) . . .
156(6) . . .
146(6) . . .
170(7) . . .
144(6) . . .
129(6) . . .
157(6) . . .
153(7) . . .
157(7) . . .
136(6) . . .
135(6) . . .
152(6) . . .
164(7) . . .
164(7) . . .
164(7) . . .
163(7) . . .
145(6) . . .
153(7) . . .
155(7) . . .
163(7) . . .
141(6) . . .
137(6) . . .
163(7) . . .
153(7) . . .
155(7) . . .
145(6) . . .
148(6) . . .
146(6) . . .
139(7) . . .
147(7) . . .
153(6) . . .
150(6) . . .
142(6) . . .
142(7) . . .
139(6) . . .
132(6) . . .
156(6) . . .
163(7) . . .
147(7) . . .
153(7) . . .
151(6) . . .
148(6) . . .
139(6) . . .
123(6) . . .
120(6) . . .
145(6) . . .
142(6) . . .
128(6) . . .
133(6) . . .
137(6) . . .
148(6) . . .
150(6) . . .
141(6) . . .
155(7) . . .
150(6) . . .
157(6) . . .
135(6) . . .
148(7) . . .
143(7) . . .
134(6) . . .
131(6) . . .
159(7) . . .
155(7) . . .
135(6) . . .
137(6) . . .
137(6) . . .
132(6) . . .
131(6) . . .
151(7) . . .
142(6) . . .
136(6) . . .
130(6) . . .
133(6) . . .
137(6) . . .
140(6) . . .
151(6) . . .
155(7) . . .
145(7) . . .
153(7) . . .
142(6) . . .
148(6) . . .
147(7) . . .
152(7) . . .
148(7) . . .
149(6) . . .
142(6) . . .
141(6) . . .
153(7) . . .
141(6) . . .
149(6) . . .
127(6) . . .
134(6) . . .
145(7) . . .
134(6) . . .
131(6) . . .
140(6) . . .
134(6) . . .
149(7) . . .
160(7) . . .
136(6) . . .
167(7) . . .
148(7) . . .
136(6) . . .
148(7) . . .
156(7) . . .
153(6) . . .
152(7) . . .
153(7) . . .
144(6) . . .
131(6) . . .
159(7) . . .
154(7) . . .
135(6) . . .
152(7) . . .
134(6) . . .
137(6) . . .
128(6) . . .
121(6) . . .
134(6) . . .
140(6) . . .
137(6) . . .
136(6) . . .
163(7) . . .
147(6) . . .
149(6) . . .
147(7) . . .
136(6) . . .
151(7) . . .
155(7) . . .
155(6) . . .
142(6) . . .
135(6) . . .
145(6) . . .
149(6) . . .
126(6) . . .
130(6) . . .
142(7) . . .
133(6) . . .
147(6) . . .
145(6) . . .
137(6) . . .
135(6) . . .
158(7) . . .
149(6) . . .
133(6) . . .
130(6) . . .
134(6) . . .
144(7) . . .
143(6) . . .
148(6) . . .
139(6) . . .
151(7) . . .
176(7) . . .
126(6) . . .
133(6) . . .
122(6) . . .
132(6) . . .
162(7) . . .
148(6) . . .
132(6) . . .
149(7) . . .
133(6) . . .
145(6) . . .
141(6) . . .
130(6) . . .
136(6) . . .
152(7) . . .
142(6) . . .
143(6) . . .
158(7) . . .
152(7) . . .
151(7) . . .
133(6) . . .
140(6) . . .
131(6) . . .
152(7) . . .
147(7) . . .
145(6) . . .
142(6) . . .
139(6) . . .
135(6) . . .
154(7) . . .
132(6) . . .
120(6) . . .
170(7) . . .
141(7) . . .
143(6) . . .
134(6) . . .
146(6) . . .
136(6) . . .
147(7) . . .
140(6) . . .
130(6) . . .
137(6) . . .
156(7) . . .
136(6) . . .
135(6) . . .
129(6) . . .
146(6) . . .
152(7) . . .
131(6) . . .
147(7) . . .
126(6) . . .
138(6) . . .
140(6) . . .
145(6) . . .
138(6) . . .
135(6) . . .
133(6) . . .
151(7) . . .
133(6) . . .
147(6) . . .
141(6) . . .
131(6) . . .
133(6) . . .
139(6) . . .
132(6) . . .
132(6) . . .
144(7) . . .
148(7) . . .
150(7) . . .
147(6) . . .
144(6) . . .
127(6) . . .
140(7) . . .
144(7) . . .
130(6) . . .
142(6) . . .
142(6) . . .
135(6) . . .
118(6) . . .
123(6) . . .
134(6) . . .
145(7) . . .
137(6) . . .
141(6) . . .
147(6) . . .
119(6) . . .
140(6) . . .
132(6) . . .
128(6) . . .
135(6) . . .
146(6) . . .
138(6) . . .
145(7) . . .
138(6) . . .
142(6) . . .
145(6) . . .
140(6) . . .
131(6) . . .
126(6) . . .
146(6) . . .
149(6) . . .
147(7) . . .
153(7) . . .
145(6) . . .
138(6) . . .
149(7) . . .
153(7) . . .
138(6) . . .
142(6) . . .
152(6) . . .
126(6) . . .
137(6) . . .
129(6) . . .
125(6) . . .
136(6) . . .
130(6) . . .
150(7) . . .
153(7) . . .
154(7) . . .
149(6) . . .
142(7) . . .
128(6) . . .
140(6) . . .
133(6) . . .
150(6) . . .
135(6) . . .
135(6) . . .
145(6) . . .
140(6) . . .
146(6) . . .
141(6) . . .
129(6) . . .
128(6) . . .
139(6) . . .
142(6) . . .
136(6) . . .
143(7) . . .
135(6) . . .
146(6) . . .
133(6) . . .
141(7) . . .
130(6) . . .
149(7) . . .
135(6) . . .
151(7) . . .
139(6) . . .
128(6) . . .
143(7) . . .
134(6) . . .
139(6) . . .
155(7) . . .
143(6) . . .
139(6) . . .
136(6) . . .
132(6) . . .
136(6) . . .
135(6) . . .
147(7) . . .
139(6) . . .
145(6) . . .
144(6) . . .
141(6) . . .
147(6) . . .
139(6) . . .
144(6) . . .
150(7) . . .
139(6) . . .
133(6) . . .
154(6) . . .
142(6) . . .
125(6) . . .
134(6) . . .
131(6) . . .
152(6) . . .
150(7) . . .
142(7) . . .
147(7) . . .
114(5) . . .
130(6) . . .
120(6) . . .
133(6) . . .
142(6) . . .
142(6) . . .
148(6) . . .
140(6) . . .
128(6) . . .
129(6) . . .
138(6) . . .
141(6) . . .
132(6) . . .
158(7) . . .
146(6) . . .
136(6) . . .
134(6) . . .
140(6) . . .
145(7) . . .
144(6) . . .
152(6) . . .
152(7) . . .
132(6) . . .
141(7) . . .
136(6) . . .
145(6) . . .
138(6) . . .
141(6) . . .
150(7) . . .
134(6) . . .
128(6) . . .
141(6) . . .
127(6) . . .
147(7) . . .
131(6) . . .
115(6) . . .
134(6) . . .
143(7) . . .
149(7) . . .
140(6) . . .
145(6) . . .
138(6) . . .
132(6) . . .
133(6) . . .
143(6) . . .
141(6) . . .
154(7) . . .
137(7) . . .
143(7) . . .
127(6) . . .
140(6) . . .
114(6) . . .
143(7) . . .
149(6) . . .
144(6) . . .
131(6) . . .
135(6) . . .
130(6) . . .
142(6) . . .
133(6) . . .
133(6) . . .
136(6) . . .
132(6) . . .
159(7) . . .
130(6) . . .
145(6) . . .
129(6) . . .
130(6) . . .
147(7) . . .
127(6) . . .
132(6) . . .
134(6) . . .
141(6) . . .
132(6) . . .
120(6) . . .
132(6) . . .
130(6) . . .
127(6) . . .
136(6) . . .
132(6) . . .
134(6) . . .
132(6) . . .
152(7) . . .
138(6) . . .
129(6) . . .
141(6) . . .
139(6) . . .
146(6) . . .
146(6) . . .
144(6) . . .
121(6) . . .
132(6) . . .
124(6) . . .
133(6) . . .
127(6) . . .
144(7) . . .
143(6) . . .
125(6) . . .
144(6) . . .
136(6) . . .
141(6) . . .
142(7) . . .
139(6) . . .
144(6) . . .
153(6) . . .
150(6) . . .
147(7) . . .
130(6) . . .
141(6) . . .
128(6) . . .
141(6) . . .
147(7) . . .
135(6) . . .
132(6) . . .
133(6) . . .
146(7) . . .
148(7) . . .
154(7) . . .
130(6) . . .
132(6) . . .
119(6) . . .
112(6) . . .
146(7) . . .
145(6) . . .
161(7) . . .
134(6) . . .
145(7) . . .
126(6) . . .
150(6) . . .
139(7) . . .
152(7) . . .
133(6) . . .
148(6) . . .
146(6) . . .
147(7) . . .
144(7) . . .
154(7) . . .
141(6) . . .
144(6) . . .
135(6) . . .
131(6) . . .
133(6) . . .
140(6) . . .
136(6) . . .
148(7) . . .
126(6) . . .
147(7) . . .
130(6) . . .
146(6) . . .
140(6) . . .
132(6) . . .
128(6) . . .
137(6) . . .
129(6) . . .
146(6) . . .
154(7) . . .
138(6) . . .
142(6) . . .
137(6) . . .
125(6) . . .
143(7) . . .
143(6) . . .
160(7) . . .
134(6) . . .
120(6) . . .
147(7) . . .
134(6) . . .
126(6) . . .
140(6) . . .
132(6) . . .
140(6) . . .
145(6) . . .
131(6) . . .
145(6) . . .
129(6) . . .
140(6) . . .
149(7) . . .
135(6) . . .
140(6) . . .
136(6) . . .
139(6) . . .
133(6) . . .
140(6) . . .
130(6) . . .
139(7) . . .
146(7) . . .
153(7) . . .
134(6) . . .
133(6) . . .
138(7) . . .
141(6) . . .
135(6) . . .
129(6) . . .
129(6) . . .
125(6) . . .
135(6) . . .
128(6) . . .
134(6) . . .
133(6) . . .
135(6) . . .
124(6) . . .
140(6) . . .
140(6) . . .
126(6) . . .
137(7) . . .
134(6) . . .
134(6) . . .
140(6) . . .
139(6) . . .
141(6) . . .
139(6) . . .
123(6) . . .
140(6) . . .
136(6) . . .
144(7) . . .
164(7) . . .
147(6) . . .
142(6) . . .
137(6) . . .
115(6) . . .
134(6) . . .
132(6) . . .
154(7) . . .
144(6) . . .
147(7) . . .
129(6) . . .
125(6) . . .
130(6) . . .
147(7) . . .
125(6) . . .
154(7) . . .
141(6) . . .
152(7) . . .
131(6) . . .
152(7) . . .
133(6) . . .
146(6) . . .
139(6) . . .
131(6) . . .
137(6) . . .
144(6) . . .
115(6) . . .
135(6) . . .
148(7) . . .
118(6) . . .
140(6) . . .
146(6) . . .
146(7) . . .
146(7) . . .
146(7) . . .
132(6) . . .
124(6) . . .
136(6) . . .
139(7) . . .
144(6) . . .
145(6) . . .
123(6) . . .
121(6) . . .
142(7) . . .
134(6) . . .
137(6) . . .
144(6) . . .
148(7) . . .
127(6) . . .
129(6) . . .
146(6) . . .
136(6) . . .
136(6) . . .
142(6) . . .
147(7) . . .
123(6) . . .
124(6) . . .
139(7) . . .
126(6) . . .
133(6) . . .
121(6) . . .
129(6) . . .
126(6) . . .
123(6) . . .
140(6) . . .
133(6) . . .
142(7) . . .
134(6) . . .
123(6) . . .
134(6) . . .
142(6) . . .
139(6) . . .
122(6) . . .
121(6) . . .
136(6) . . .
157(7) . . .
130(6) . . .
121(6) . . .
142(6) . . .
146(6) . . .
138(6) . . .
141(7) . . .
123(6) . . .
126(6) . . .
136(6) . . .
139(6) . . .
128(6) . . .
137(7) . . .
127(6) . . .
134(6) . . .
135(6) . . .
142(6) . . .
135(6) . . .
148(7) . . .
128(6) . . .
121(6) . . .
127(6) . . .
135(6) . . .
131(6) . . .
137(6) . . .
151(6) . . .
143(7) . . .
134(6) . . .
128(6) . . .
131(6) . . .
132(6) . . .
147(6) . . .
118(6) . . .
135(6) . . .
138(6) . . .
152(7) . . .
143(6) . . .
129(6) . . .
130(6) . . .
128(6) . . .
136(6) . . .
139(6) . . .
122(6) . . .
137(6) . . .
126(6) . . .
144(6) . . .
140(6) . . .
143(6) . . .
146(6) . . .
135(6) . . .
160(7) . . .
129(6) . . .
124(6) . . .
137(6) . . .
148(6) . . .
150(7) . . .
133(6) . . .
144(7) . . .
133(6) . . .
140(6) . . .
134(6) . . .
137(7) . . .
123(6) . . .
141(6) . . .
133(6) . . .
134(6) . . .
127(6) . . .
147(7) . . .
142(6) . . .
142(6) . . .
150(7) . . .
150(7) . . .
133(6) . . .
149(6) . . .
137(6) . . .
155(7) . . .
142(7) . . .
118(6) . . .
137(6) . . .
145(6) . . .
127(6) . . .
119(6) . . .
119(6) . . .
136(6) . . .
123(6) . . .
127(6) . . .
140(7) . . .
140(7) . . .
150(6) . . .
118(6) . . .
132(6) . . .
118(6) . . .
114(6) . . .
135(6) . . .
133(6) . . .
125(6) . . .
126(6) . . .
137(6) . . .
132(6) . . .
135(6) . . .
142(6) . . .
149(7) . . .
134(6) . . .
118(6) . . .
132(6) . . .
141(7) . . .
130(6) . . .
133(6) . . .
145(6) . . .
124(6) . . .
116(6) . . .
122(6) . . .
138(6) . . .
123(6) . . .
142(6) . . .
123(6) . . .
151(7) . . .
128(6) . . .
138(6) . . .
135(6) . . .
147(7) . . .
154(7) . . .
132(6) . . .
131(6) . . .
137(6) . . .
143(7) . . .
129(6) . . .
130(6) . . .
116(6) . . .
139(6) . . .
148(7) . . .
136(6) . . .
140(6) . . .
141(6) . . .
131(6) . . .
127(6) . . .
146(7) . . .
133(6) . . .
127(6) . . .
121(6) . . .
124(6) . . .
137(6) . . .
133(6) . . .
126(6) . . .
123(6) . . .
125(6) . . .
138(6) . . .
140(6) . . .
134(6) . . .
139(6) . . .
149(7) . . .
151(6) . . .
127(6) . . .
137(6) . . .
141(7) . . .
131(6) . . .
125(6) . . .
140(6) . . .
135(6) . . .
134(6) . . .
120(6) . . .
141(6) . . .
133(6) . . .
135(6) . . .
136(6) . . .
135(6) . . .
131(6) . . .
144(6) . . .
142(6) . . .
127(6) . . .
137(6) . . .
123(6) . . .
140(6) . . .
129(6) . . .
134(6) . . .
125(6) . . .
134(6) . . .
131(6) . . .
129(6) . . .
146(7) . . .
129(6) . . .
147(6) . . .
141(6) . . .
140(6) . . .
132(6) . . .
126(6) . . .
123(6) . . .
131(6) . . .
138(6) . . .
127(6) . . .
128(6) . . .
133(6) . . .
146(7) . . .
144(7) . . .
154(7) . . .
123(6) . . .
137(6) . . .
121(6) . . .
140(7) . . .
142(7) . . .
124(6) . . .
140(6) . . .
133(6) . . .
120(6) . . .
128(6) . . .
123(6) . . .
142(6) . . .
143(6) . . .
129(6) . . .
126(6) . . .
146(6) . . .
134(6) . . .
135(7) . . .
136(6) . . .
149(7) . . .
139(6) . . .
141(6) . . .
137(6) . . .
127(6) . . .
135(6) . . .
124(6) . . .
128(6) . . .
131(6) . . .
137(6) . . .
141(6) . . .
120(6) . . .
130(6) . . .
142(6) . . .
132(6) . . .
128(6) . . .
133(6) . . .
119(6) . . .
135(6) . . .
138(6) . . .
144(7) . . .
138(6) . . .
146(6) . . .
128(6) . . .
136(6) . . .
120(6) . . .
134(6) . . .
139(6) . . .
129(6) . . .
137(6) . . .
149(7) . . .
128(6) . . .
138(6) . . .
131(6) . . .
138(6) . . .
149(7) . . .
125(6) . . .
143(7) . . .
134(7) . . .
123(6) . . .
121(6) . . .
142(6) . . .
136(6) . . .
123(6) . . .
126(6) . . .
130(6) . . .
140(6) . . .
127(6) . . .
115(6) . . .
113(6) . . .
153(6) . . .
137(6) . . .
134(6) . . .
124(6) . . .
124(6) . . .
125(6) . . .
134(6) . . .
129(6) . . .
151(7) . . .
135(6) . . .
140(6) . . .
121(6) . . .
138(7) . . .
136(7) . . .
121(6) . . .
133(6) . . .
138(6) . . .
140(6) . . .
132(6) . . .
130(6) . . .
131(6) . . .
153(7) . . .
121(6) . . .
135(6) . . .
144(6) . . .
141(6) . . .
134(6) . . .
136(6) . . .
131(6) . . .
152(7) . . .
133(6) . . .
124(6) . . .
133(6) . . .
122(6) . . .
129(6) . . .
122(6) . . .
129(6) . . .
113(6) . . .
122(6) . . .
139(6) . . .
134(6) . . .
133(6) . . .
132(6) . . .
125(6) . . .
128(6) . . .
138(6) . . .
138(6) . . .
135(6) . . .
122(6) . . .
134(6) . . .
124(6) . . .
121(6) . . .
123(6) . . .
129(6) . . .
124(6) . . .
130(6) . . .
134(6) . . .
123(6) . . .
115(6) . . .
128(6) . . .
127(6) . . .
133(6) . . .
137(6) . . .
124(6) . . .
125(6) . . .
136(6) . . .
140(6) . . .
139(6) . . .
139(6) . . .
120(6) . . .
127(6) . . .
138(6) . . .
125(6) . . .
119(6) . . .
136(6) . . .
123(6) . . .
131(6) . . .
137(6) . . .
135(6) . . .
138(6) . . .
132(6) . . .
128(6) . . .
149(7) . . .
137(6) . . .
138(6) . . .
134(6) . . .
141(7) . . .
116(6) . . .
132(6) . . .
141(6) . . .
138(6) . . .
139(6) . . .
138(6) . . .
128(6) . . .
117(6) . . .
131(6) . . .
141(7) . . .
128(6) . . .
139(6) . . .
126(6) . . .
136(6) . . .
137(6) . . .
135(6) . . .
133(6) . . .
133(6) . . .
137(6) . . .
127(6) . . .
134(6) . . .
128(6) . . .
136(6) . . .
143(6) . . .
133(6) . . .
130(6) . . .
137(6) . . .
120(6) . . .
141(7) . . .
140(7) . . .
123(6) . . .
120(6) . . .
142(6) . . .
125(6) . . .
128(6) . . .
116(6) . . .
139(6) . . .
136(6) . . .
129(6) . . .
123(6) . . .
117(6) . . .
131(6) . . .
138(6) . . .
136(6) . . .
125(6) . . .
135(6) . . .
108(5) . . .
118(6) . . .
126(6) . . .
140(6) . . .
130(6) . . .
137(6) . . .
125(6) . . .
135(6) . . .
116(6) . . .
130(6) . . .
124(6) . . .
125(6) . . .
126(6) . . .
145(7) . . .
139(6) . . .
124(6) . . .
135(6) . . .
155(7) . . .
139(6) . . .
123(6) . . .
120(6) . . .
135(6) . . .
110(6) . . .
118(6) . . .
136(6) . . .
112(5) . . .
131(6) . . .
126(6) . . .
130(6) . . .
134(6) . . .
133(6) . . .
143(6) . . .
116(6) . . .
117(6) . . .
139(6) . . .
138(6) . . .
134(6) . . .
116(6) . . .
125(6) . . .
125(6) . . .
130(6) . . .
128(6) . . .
130(6) . . .
141(6) . . .
136(6) . . .
120(6) . . .
129(6) . . .
132(6) . . .
121(6) . . .
132(6) . . .
137(6) . . .
124(6) . . .
130(6) . . .
120(6) . . .
140(6) . . .
138(6) . . .
131(6) . . .
115(6) . . .
115(6) . . .
142(6) . . .
129(6) . . .
110(6) . . .
113(6) . . .
123(6) . . .
137(6) . . .
132(6) . . .
141(6) . . .
156(7) . . .
117(6) . . .
135(6) . . .
124(6) . . .
112(6) . . .
134(6) . . .
131(6) . . .
133(6) . . .
137(6) . . .
145(7) . . .
128(6) . . .
120(6) . . .
133(6) . . .
121(6) . . .
127(6) . . .
125(6) . . .
127(6) . . .
128(6) . . .
122(6) . . .
133(6) . . .
127(6) . . .
126(6) . . .
129(6) . . .
135(6) . . .
127(6) . . .
142(6) . . .
120(6) . . .
122(6) . . .
135(7) . . .
129(6) . . .
134(6) . . .
133(6) . . .
135(6) . . .
121(6) . . .
125(6) . . .
122(6) . . .
133(6) . . .
135(6) . . .
130(6) . . .
134(6) . . .
139(6) . . .
136(6) . . .
128(6) . . .
108(5) . . .
135(6) . . .
138(6) . . .
130(6) . . .
118(6) . . .
117(6) . . .
129(6) . . .
143(6) . . .
137(6) . . .
128(6) . . .
119(6) . . .
134(6) . . .
130(6) . . .
125(6) . . .
129(6) . . .
133(7) . . .
132(6) . . .
125(6) . . .
117(6) . . .
127(6) . . .
122(6) . . .
120(6) . . .
133(6) . . .
145(6) . . .
130(6) . . .
122(6) . . .
126(6) . . .
117(6) . . .
142(6) . . .
125(6) . . .
127(6) . . .
112(6) . . .
140(6) . . .
120(6) . . .
123(6) . . .
132(6) . . .
147(6) . . .
141(6) . . .
125(6) . . .
127(6) . . .
142(6) . . .
132(6) . . .
128(6) . . .
131(6) . . .
136(6) . . .
148(7) . . .
127(6) . . .
141(6) . . .
124(6) . . .
117(6) . . .
131(6) . . .
121(6) . . .
105(5) . . .
127(6) . . .
134(7) . . .
125(6) . . .
121(6) . . .
117(6) . . .
138(6) . . .
137(7) . . .
132(6) . . .
128(6) . . .
130(6) . . .
127(6) . . .
133(7) . . .
134(6) . . .
129(6) . . .
126(6) . . .
145(7) . . .
131(6) . . .
116(6) . . .
137(6) . . .
138(6) . . .
129(6) . . .
131(6) . . .
128(6) . . .
138(6) . . .
147(6) . . .
120(6) . . .
127(6) . . .
133(6) . . .
139(6) . . .
110(6) . . .
126(6) . . .
118(6) . . .
130(6) . . .
147(6) . . .
131(6) . . .
142(6) . . .
130(6) . . .
123(6) . . .
130(6) . . .
135(6) . . .
127(6) . . .
121(6) . . .
116(6) . . .
136(6) . . .
129(6) . . .
126(6) . . .
138(7) . . .
122(6) . . .
138(6) . . .
127(6) . . .
126(6) . . .
121(6) . . .
140(6) . . .
122(6) . . .
134(6) . . .
140(7) . . .
134(6) . . .
144(6) . . .
149(6) . . .
123(6) . . .
125(6) . . .
142(6) . . .
136(6) . . .
126(6) . . .
129(6) . . .
129(6) . . .
122(6) . . .
143(6) . . .
117(6) . . .
114(6) . . .
128(6) . . .
132(6) . . .
112(5) . . .
111(6) . . .
125(6) . . .
135(7) . . .
134(6) . . .
126(6) . . .
116(6) . . .
123(6) . . .
134(6) . . .
138(6) . . .
119(6) . . .
127(6) . . .
126(6) . . .
144(7) . . .
124(6) . . .
137(6) . . .
132(6) . . .
118(6) . . .
130(6) . . .
127(6) . . .
154(6) . . .
113(6) . . .
128(6) . . .
122(6) . . .
124(6) . . .
126(6) . . .
131(6) . . .
138(6) . . .
141(7) . . .
124(6) . . .
118(6) . . .
146(6) . . .
138(6) . . .
144(6) . . .
128(6) . . .
147(6) . . .
126(6) . . .
123(6) . . .
131(6) . . .
135(6) . . .
148(6) . . .
146(7) . . .
136(7) . . .
121(6) . . .
137(6) . . .
130(6) . . .
132(6) . . .
136(6) . . .
134(6) . . .
138(6) . . .
134(6) . . .
133(6) . . .
138(7) . . .
129(6) . . .
119(6) . . .
119(6) . . .
121(6) . . .
136(7) . . .
126(6) . . .
118(6) . . .
136(6) . . .
133(6) . . .
137(6) . . .
136(6) . . .
148(6) . . .
128(6) . . .
139(6) . . .
140(6) . . .
118(6) . . .
129(6) . . .
128(6) . . .
124(6) . . .
115(6) . . .
126(6) . . .
136(6) . . .
124(6) . . .
141(7) . . .
121(6) . . .
135(6) . . .
129(6) . . .
125(6) . . .
119(6) . . .
116(6) . . .
131(6) . . .
128(6) . . .
126(6) . . .
130(6) . . .
144(6) . . .
142(6) . . .
130(6) . . .
137(6) . . .
132(7) . . .
115(6) . . .
127(6) . . .
115(6) . . .
124(6) . . .
135(7) . . .
132(6) . . .
125(6) . . .
132(6) . . .
132(6) . . .
131(6) . . .
120(6) . . .
119(6) . . .
115(6) . . .
138(7) . . .
115(6) . . .
131(6) . . .
117(6) . . .
105(5) . . .
140(6) . . .
130(6) . . .
120(6) . . .
116(6) . . .
118(6) . . .
130(6) . . .
136(6) . . .
129(6) . . .
130(6) . . .
123(6) . . .
126(6) . . .
135(6) . . .
112(6) . . .
127(6) . . .
134(6) . . .
127(6) . . .
124(6) . . .
145(6) . . .
132(6) . . .
127(6) . . .
136(6) . . .
128(6) . . .
129(6) . . .
132(6) . . .
133(6) . . .
128(6) . . .
133(6) . . .
113(5) . . .
123(6) . . .
131(6) . . .
137(6) . . .
139(6) . . .
130(6) . . .
133(6) . . .
135(6) . . .
115(6) . . .
121(6) . . .
112(5) . . .
131(6) . . .
127(6) . . .
135(6) . . .
140(6) . . .
122(6) . . .
131(6) . . .
125(6) . . .
109(6) . . .
118(6) . . .
116(6) . . .
116(6) . . .
108(6) . . .
128(6) . . .
145(6) . . .
133(6) . . .
126(6) . . .
118(6) . . .
118(6) . . .
126(6) . . .
113(5) . . .
125(6) . . .
142(7) . . .
127(6) . . .
110(6) . . .
143(6) . . .
128(6) . . .
109(6) . . .
121(6) . . .
121(6) . . .
109(5) . . .
109(6) . . .
122(6) . . .
137(6) . . .
143(6) . . .
133(6) . . .
148(6) . . .
131(7) . . .
117(6) . . .
124(6) . . .
120(6) . . .
109(5) . . .
116(6) . . .
124(6) . . .
129(6) . . .
128(6) . . .
133(6) . . .
113(6) . . .
123(6) . . .
124(6) . . .
130(6) . . .
123(6) . . .
129(6) . . .
128(6) . . .
146(6) . . .
125(6) . . .
127(6) . . .
131(6) . . .
116(6) . . .
137(6) . . .
128(6) . . .
133(6) . . .
132(6) . . .
139(6) . . .
148(6) . . .
129(6) . . .
129(6) . . .
126(6) . . .
129(6) . . .
142(6) . . .
123(6) . . .
133(6) . . .
123(6) . . .
132(6) . . .
134(6) . . .
119(6) . . .
133(6) . . .
126(6) . . .
132(6) . . .
138(6) . . .
128(6) . . .
140(7) . . .
124(6) . . .
121(6) . . .
120(6) . . .
118(6) . . .
138(6) . . .
134(6) . . .
123(6) . . .
115(6) . . .
119(6) . . .
125(6) . . .
135(6) . . .
155(6) . . .
128(6) . . .
130(6) . . .
122(6) . . .
124(6) . . .
119(6) . . .
127(6) . . .
139(6) . . .
127(6) . . .
120(6) . . .
129(6) . . .
123(6) . . .
130(6) . . .
122(6) . . .
120(6) . . .
124(6) . . .
129(6) . . .
122(6) . . .
113(6) . . .
117(6) . . .
121(6) . . .
121(6) . . .
117(6) . . .
117(6) . . .
130(6) . . .
115(6) . . .
118(6) . . .
114(6) . . .
126(6) . . .
120(6) . . .
126(6) . . .
131(6) . . .
122(6) . . .
126(6) . . .
123(6) . . .
120(6) . . .
122(6) . . .
113(6) . . .
115(6) . . .
139(6) . . .
122(6) . . .
118(6) . . .
125(6) . . .
121(6) . . .
122(6) . . .
133(6) . . .
128(6) . . .
118(6) . . .
136(6) . . .
111(5) . . .
113(5) . . .
124(6) . . .
132(6) . . .
144(6) . . .
109(5) . . .
116(6) . . .
133(6) . . .
138(6) . . .
131(6) . . .
130(6) . . .
125(6) . . .
121(6) . . .
106(6) . . .
129(6) . . .
118(6) . . .
122(6) . . .
127(6) . . .
124(6) . . .
133(6) . . .
132(6) . . .
112(6) . . .
133(6) . . .
132(6) . . .
132(6) . . .
112(6) . . .
122(6) . . .
121(6) . . .
126(6) . . .
149(7) . . .
116(6) . . .
118(6) . . .
113(6) . . .
132(6) . . .
143(6) . . .
128(6) . . .
118(6) . . .
117(6) . . .
130(6) . . .
118(6) . . .
125(6) . . .
107(5) . . .
118(6) . . .
121(6) . . .
124(6) . . .
144(6) . . .
114(6) . . .
128(6) . . .
118(6) . . .
121(6) . . .
120(6) . . .
123(6) . . .
133(7) . . .
127(6) . . .
131(6) . . .
123(6) . . .
102(5) . . .
139(7) . . .
123(6) . . .
128(6) . . .
130(6) . . .
129(6) . . .
121(6) . . .
121(6) . . .
106(5) . . .
128(6) . . .
125(6) . . .
133(6) . . .
117(6) . . .
113(6) . . .
114(6) . . .
129(6) . . .
130(6) . . .
130(6) . . .
122(6) . . .
121(6) . . .
130(6) . . .
126(6) . . .
121(6) . . .
121(6) . . .
127(6) . . .
128(6) . . .
121(6) . . .
122(6) . . .
125(6) . . .
103(5) . . .
125(6) . . .
120(6) . . .
132(6) . . .
109(5) . . .
131(6) . . .
118(6) . . .
126(6) . . .
114(6) . . .
135(6) . . .
130(6) . . .
130(6) . . .
141(6) . . .
129(6) . . .
119(6) . . .
127(6) . . .
112(6) . . .
126(6) . . .
129(6) . . .
122(6) . . .
123(6) . . .
113(6) . . .
114(6) . . .
113(6) . . .
122(6) . . .
129(6) . . .
125(6) . . .
129(6) . . .
124(6) . . .
112(6) . . .
124(6) . . .
112(6) . . .
115(6) . . .
131(6) . . .
134(6) . . .
126(6) . . .
135(6) . . .
128(6) . . .
110(5) . . .
118(6) . . .
123(6) . . .
131(6) . . .
130(6) . . .
114(6) . . .
116(6) . . .
138(7) . . .
121(6) . . .
116(6) . . .
127(6) . . .
125(6) . . .
113(6) . . .
119(6) . . .
115(6) . . .
118(6) . . .
127(6) . . .
110(6) . . .
116(6) . . .
118(6) . . .
113(6) . . .
107(5) . . .
121(6) . . .
134(6) . . .
129(6) . . .
131(6) . . .
135(6) . . .
133(6) . . .
131(6) . . .
126(6) . . .
131(6) . . .
121(6) . . .
120(6) . . .
136(6) . . .
116(6) . . .
127(6) . . .
142(7) . . .
134(6) . . .
133(6) . . .
120(6) . . .
124(6) . . .
126(6) . . .
138(6) . . .
134(6) . . .
130(6) . . .
122(6) . . .
128(6) . . .
126(6) . . .
122(6) . . .
138(6) . . .
119(6) . . .
115(6) . . .
118(6) . . .
121(6) . . .
129(6) . . .
117(6) . . .
116(6) . . .
117(6) . . .
118(6) . . .
110(5) . . .
117(6) . . .
133(6) . . .
133(6) . . .
123(6) . . .
118(6) . . .
143(7) . . .
120(6) . . .
115(6) . . .
135(6) . . .
120(6) . . .
143(7) . . .
123(6) . . .
114(6) . . .
117(6) . . .
133(6) . . .
121(6) . . .
118(6) . . .
120(6) . . .
113(6) . . .
120(6) . . .
120(6) . . .
123(6) . . .
117(6) . . .
126(6) . . .
116(6) . . .
130(6) . . .
126(6) . . .
117(6) . . .
133(6) . . .
131(6) . . .
132(6) . . .
140(7) . . .
109(6) . . .
112(5) . . .
111(5) . . .
107(5) . . .
120(6) . . .
119(6) . . .
138(6) . . .
130(6) . . .
122(6) . . .
107(5) . . .
112(6) . . .
120(6) . . .
124(6) . . .
128(6) . . .
127(6) . . .
126(6) . . .
123(6) . . .
110(6) . . .
126(6) . . .
102(6) . . .
111(6) . . .
121(6) . . .
124(6) . . .
123(6) . . .
121(6) . . .
125(6) . . .
132(6) . . .
123(6) . . .
112(6) . . .
129(6) . . .
130(6) . . .
129(6) . . .
118(6) . . .
129(6) . . .
120(6) . . .
129(6) . . .
117(6) . . .
123(6) . . .
116(6) . . .
124(6) . . .
115(6) . . .
128(6) . . .
127(6) . . .
117(6) . . .
120(6) . . .
118(6) . . .
127(6) . . .
116(6) . . .
128(6) . . .
124(6) . . .
134(6) . . .
122(6) . . .
116(6) . . .
117(6) . . .
113(6) . . .
98(5) . . .
112(6) . . .
111(6) . . .
121(6) . . .
115(6) . . .
118(6) . . .
126(6) . . .
123(6) . . .
115(6) . . .
135(6) . . .
123(6) . . .
131(6) . . .
131(6) . . .
128(6) . . .
122(6) . . .
126(6) . . .
111(6) . . .
121(6) . . .
139(6) . . .
134(6) . . .
109(5) . . .
127(6) . . .
125(6) . . .
138(6) . . .
145(6) . . .
130(6) . . .
131(6) . . .
140(6) . . .
125(6) . . .
117(6) . . .
117(6) . . .
127(6) . . .
109(6) . . .
115(6) . . .
129(6) . . .
124(6) . . .
119(6) . . .
118(6) . . .
105(6) . . .
121(6) . . .
102(5) . . .
113(6) . . .
124(6) . . .
135(6) . . .
121(6) . . .
125(6) . . .
136(6) . . .
129(6) . . .
140(6) . . .
120(6) . . .
129(6) . . .
106(6) . . .
113(6) . . .
126(6) . . .
130(6) . . .
126(6) . . .
114(6) . . .
122(6) . . .
128(6) . . .
115(6) . . .
124(6) . . .
128(6) . . .
117(6) . . .
121(6) . . .
110(5) . . .
133(6) . . .
117(6) . . .
127(6) . . .
114(6) . . .
113(6) . . .
113(6) . . .
121(6) . . .
118(6) . . .
111(5) . . .
114(6) . . .
138(6) . . .
127(6) . . .
121(6) . . .
112(5) . . .
128(6) . . .
110(6) . . .
123(6) . . .
112(6) . . .
120(6) . . .
114(6) . . .
114(6) . . .
113(6) . . .
104(5) . . .
116(6) . . .
114(6) . . .
121(6) . . .
123(6) . . .
117(6) . . .
111(6) . . .
132(6) . . .
114(6) . . .
114(6) . . .
104(5) . . .
101(5) . . .
106(5) . . .
99(5) . . .
117(6) . . .
111(5) . . .
126(6) . . .
121(6) . . .
127(6) . . .
123(6) . . .
119(6) . . .
135(6) . . .
112(6) . . .
117(6) . . .
122(6) . . .
103(5) . . .
121(6) . . .
100(5) . . .
109(6) . . .
111(6) . . .
114(6) . . .
118(6) . . .
119(6) . . .
118(6) . . .
119(6) . . .
110(6) . . .
127(6) . . .
109(5) . . .
132(6) . . .
131(6) . . .
118(6) . . .
137(6) . . .
123(6) . . .
120(6) . . .
120(6) . . .
110(5) . . .
114(6) . . .
142(6) . . .
114(6) . . .
144(7) . . .
120(6) . . .
131(6) . . .
119(6) . . .
126(6) . . .
116(6) . . .
113(6) . . .
109(6) . . .
128(6) . . .
127(6) . . .
122(6) . . .
122(6) . . .
120(6) . . .
109(6) . . .
129(6) . . .
127(6) . . .
118(6) . . .
109(5) . . .
112(6) . . .
113(6) . . .
126(6) . . .
118(6) . . .
104(5) . . .
123(6) . . .
115(6) . . .
119(6) . . .
124(6) . . .
122(6) . . .
122(6) . . .
106(5) . . .
117(6) . . .
121(6) . . .
125(6) . . .
119(6) . . .
112(6) . . .
128(6) . . .
119(6) . . .
115(6) . . .
114(6) . . .
113(6) . . .
124(6) . . .
120(6) . . .
129(6) . . .
122(6) . . .
114(6) . . .
120(6) . . .
126(6) . . .
131(6) . . .
123(6) . . .
116(6) . . .
127(6) . . .
118(6) . . .
104(5) . . .
119(6) . . .
106(5) . . .
131(6) . . .
144(6) . . .
120(6) . . .
105(5) . . .
119(6) . . .
113(6) . . .
104(5) . . .
127(6) . . .
128(6) . . .
121(6) . . .
120(6) . . .
106(5) . . .
116(6) . . .
106(6) . . .
120(6) . . .
118(6) . . .
119(6) . . .
118(6) . . .
123(6) . . .
123(6) . . .
111(5) . . .
108(5) . . .
113(6) . . .
120(6) . . .
115(6) . . .
110(5) . . .
111(6) . . .
115(6) . . .
135(6) . . .
124(6) . . .
142(6) . . .
134(6) . . .
123(6) . . .
115(6) . . .
120(6) . . .
135(6) . . .
124(6) . . .
123(6) . . .
110(5) . . .
119(6) . . .
110(5) . . .
116(6) . . .
127(6) . . .
125(6) . . .
130(6) . . .
120(6) . . .
127(6) . . .
123(6) . . .
118(6) . . .
121(6) . . .
124(6) . . .
133(6) . . .
121(6) . . .
109(5) . . .
96(5) . . .
108(5) . . .
105(5) . . .
108(6) . . .
103(5) . . .
114(6) . . .
125(6) . . .
113(6) . . .
132(6) . . .
115(6) . . .
115(6) . . .
127(6) . . .
132(6) . . .
123(6) . . .
130(6) . . .
126(6) . . .
137(6) . . .
105(5) . . .
118(6) . . .
120(6) . . .
132(6) . . .
137(6) . . .
110(6) . . .
121(6) . . .
125(6) . . .
113(6) . . .
122(6) . . .
102(5) . . .
109(6) . . .
122(6) . . .
118(6) . . .
121(6) . . .
131(6) . . .
131(6) . . .
126(6) . . .
126(6) . . .
120(6) . . .
115(6) . . .
119(6) . . .
122(6) . . .
104(5) . . .
106(5) . . .
112(6) . . .
128(6) . . .
121(6) . . .
110(5) . . .
126(6) . . .
124(6) . . .
124(6) . . .
119(6) . . .
127(6) . . .
146(6) . . .
126(6) . . .
103(5) . . .
124(6) . . .
112(6) . . .
117(6) . . .
126(6) . . .
111(6) . . .
120(6) . . .
116(6) . . .
122(6) . . .
127(6) . . .
132(6) . . .
124(6) . . .
117(6) . . .
114(6) . . .
132(6) . . .
119(6) . . .
110(5) . . .
130(6) . . .
127(6) . . .
110(6) . . .
115(6) . . .
133(6) . . .
119(6) . . .
137(6) . . .
126(6) . . .
133(6) . . .
119(6) . . .
101(5) . . .
114(6) . . .
109(6) . . .
117(6) . . .
128(6) . . .
130(6) . . .
135(6) . . .
103(5) . . .
115(6) . . .
127(6) . . .
119(6) . . .
120(6) . . .
120(6) . . .
129(6) . . .
134(6) . . .
133(6) . . .
132(6) . . .
118(6) . . .
116(6) . . .
113(6) . . .
133(6) . . .
119(6) . . .
136(6) . . .
125(6) . . .
123(6) . . .
125(6) . . .
123(6) . . .
121(6) . . .
128(6) . . .
125(6) . . .
121(6) . . .
120(6) . . .
125(6) . . .
124(6) . . .
116(6) . . .
122(6) . . .
135(6) . . .
121(6) . . .
126(6) . . .
111(6) . . .
117(6) . . .
102(5) . . .
131(6) . . .
106(5) . . .
106(5) . . .
112(6) . . .
113(6) . . .
117(6) . . .
114(6) . . .
124(6) . . .
96(5) . . .
118(6) . . .
113(6) . . .
117(6) . . .
113(6) . . .
114(6) . . .
119(6) . . .
110(5) . . .
104(5) . . .
118(6) . . .
114(6) . . .
117(6) . . .
126(6) . . .
118(6) . . .
116(6) . . .
132(6) . . .
126(6) . . .
138(6) . . .
121(6) . . .
124(6) . . .
109(6) . . .
113(6) . . .
118(6) . . .
119(6) . . .
126(6) . . .
114(6) . . .
120(6) . . .
125(6) . . .
119(6) . . .
124(6) . . .
117(6) . . .
127(6) . . .
102(5) . . .
116(6) . . .
113(6) . . .
110(6) . . .
121(6) . . .
111(5) . . .
106(6) . . .
117(6) . . .
136(6) . . .
105(6) . . .
112(5) . . .
109(6) . . .
110(6) . . .
110(6) . . .
116(6) . . .
95(5) . . .
104(5) . . .
115(6) . . .
116(6) . . .
114(6) . . .
122(6) . . .
113(6) . . .
123(6) . . .
130(6) . . .
117(6) . . .
119(6) . . .
130(6) . . .
114(6) . . .
119(6) . . .
101(5) . . .
122(6) . . .
113(6) . . .
108(6) . . .
107(5) . . .
118(6) . . .
115(6) . . .
115(6) . . .
116(6) . . .
122(6) . . .
127(6) . . .
108(5) . . .
107(5) . . .
118(6) . . .
124(6) . . .
115(6) . . .
110(5) . . .
120(6) . . .
109(6) . . .
106(6) . . .
115(6) . . .
117(6) . . .
103(5) . . .
115(6) . . .
106(5) . . .
114(6) . . .
110(6) . . .
104(5) . . .
122(6) . . .
117(6) . . .
118(6) . . .
96(5) . . .
117(6) . . .
120(6) . . .
121(6) . . .
122(6) . . .
122(6) . . .
126(6) . . .
117(6) . . .
117(6) . . .
117(6) . . .
131(6) . . .
115(6) . . .
111(6) . . .
117(6) . . .
112(5) . . .
116(6) . . .
122(6) . . .
127(6) . . .
115(6) . . .
117(6) . . .
121(6) . . .
103(5) . . .
112(6) . . .
111(6) . . .
122(6) . . .
107(5) . . .
128(6) . . .
116(6) . . .
114(6) . . .
107(5) . . .
111(6) . . .
114(6) . . .
120(6) . . .
123(6) . . .
115(6) . . .
126(6) . . .
125(6) . . .
119(6) . . .
118(6) . . .
120(6) . . .
118(6) . . .
126(6) . . .
110(6) . . .
98(5) . . .
111(6) . . .
116(6) . . .
126(6) . . .
129(6) . . .
117(6) . . .
114(6) . . .
128(6) . . .
126(6) . . .
121(6) . . .
112(5) . . .
114(6) . . .
129(6) . . .
115(6) . . .
105(5) . . .
118(6) . . .
111(6) . . .
103(5) . . .
120(6) . . .
121(6) . . .
116(6) . . .
124(6) . . .
123(6) . . .
106(5) . . .
109(5) . . .
109(5) . . .
108(6) . . .
128(6) . . .
115(6) . . .
105(5) . . .
119(6) . . .
89(5) . . .
123(6) . . .
103(5) . . .
101(5) . . .
105(5) . . .
117(6) . . .
108(6) . . .
118(6) . . .
100(5) . . .
121(6) . . .
121(6) . . .
96(5) . . .
102(6) . . .
104(5) . . .
118(6) . . .
125(6) . . .
128(6) . . .
125(6) . . .
122(6) . . .
117(6) . . .
116(6) . . .
110(6) . . .
129(6) . . .
119(6) . . .
116(6) . . .
114(6) . . .
108(5) . . .
119(6) . . .
110(5) . . .
110(6) . . .
111(6) . . .
135(6) . . .
136(6) . . .
99(5) . . .
102(5) . . .
101(5) . . .
109(5) . . .
99(5) . . .
118(6) . . .
102(5) . . .
117(6) . . .
117(6) . . .
110(5) . . .
114(6) . . .
114(6) . . .
126(6) . . .
113(6) . . .
118(6) . . .
102(5) . . .
117(6) . . .
139(7) . . .
113(6) . . .
117(6) . . .
101(5) . . .
115(6) . . .
132(6) . . .
110(6) . . .
102(5) . . .
111(6) . . .
101(5) . . .
112(6) . . .
92(5) . . .
108(5) . . .
104(5) . . .
121(6) . . .
120(6) . . .
117(6) . . .
123(6) . . .
112(6) . . .
117(6) . . .
110(6) . . .
107(6) . . .
99(5) . . .
114(6) . . .
109(6) . . .
102(5) . . .
114(6) . . .
110(5) . . .
106(6) . . .
135(6) . . .
132(6) . . .
131(6) . . .
123(6) . . .
121(6) . . .
115(6) . . .
113(6) . . .
93(5) . . .
112(6) . . .
105(5) . . .
121(6) . . .
113(6) . . .
107(5) . . .
107(5) . . .
109(6) . . .
108(6) . . .
94(5) . . .
113(6) . . .
122(6) . . .
119(6) . . .
116(6) . . .
115(6) . . .
114(6) . . .
114(6) . . .
113(6) . . .
124(6) . . .
101(5) . . .
108(5) . . .
126(6) . . .
112(6) . . .
121(6) . . .
118(6) . . .
116(6) . . .
117(6) . . .
129(6) . . .
116(6) . . .
113(6) . . .
106(5) . . .
114(6) . . .
108(6) . . .
96(5) . . .
119(6) . . .
124(6) . . .
106(6) . . .
115(6) . . .
109(6) . . .
106(5) . . .
115(6) . . .
121(6) . . .
108(6) . . .
106(5) . . .
104(5) . . .
117(6) . . .
116(6) . . .
111(6) . . .
104(6) . . .
120(6) . . .
121(6) . . .
100(5) . . .
124(6) . . .
114(6) . . .
116(6) . . .
121(6) . . .
116(6) . . .
115(6) . . .
97(5) . . .
120(6) . . .
109(5) . . .
111(6) . . .
105(6) . . .
106(5) . . .
120(6) . . .
107(5) . . .
119(6) . . .
109(6) . . .
94(5) . . .
109(5) . . .
124(6) . . .
114(6) . . .
105(5) . . .
108(5) . . .
106(5) . . .
114(6) . . .
105(5) . . .
115(6) . . .
109(6) . . .
104(5) . . .
110(5) . . .
94(5) . . .
114(6) . . .
122(6) . . .
110(5) . . .
110(6) . . .
111(6) . . .
108(5) . . .
117(6) . . .
107(5) . . .
113(6) . . .
112(6) . . .
109(6) . . .
94(5) . . .
111(5) . . .
138(6) . . .
112(6) . . .
105(6) . . .
109(6) . . .
119(6) . . .
114(6) . . .
104(6) . . .
101(5) . . .
115(6) . . .
114(6) . . .
118(6) . . .
118(6) . . .
119(6) . . .
107(5) . . .
116(6) . . .
110(6) . . .
110(6) . . .
113(6) . . .
110(5) . . .
109(5) . . .
108(6) . . .
108(6) . . .
112(6) . . .
116(6) . . .
120(6) . . .
116(6) . . .
111(6) . . .
108(6) . . .
115(6) . . .
109(5) . . .
103(5) . . .
103(6) . . .
101(6) . . .
112(5) . . .
132(6) . . .
123(6) . . .
114(6) . . .
107(5) . . .
122(6) . . .
106(6) . . .
113(6) . . .
117(6) . . .
110(6) . . .
113(6) . . .
114(6) . . .
113(6) . . .
117(6) . . .
103(5) . . .
117(6) . . .
118(6) . . .
112(6) . . .
111(6) . . .
121(6) . . .
116(6) . . .
110(6) . . .
119(6) . . .
113(6) . . .
111(5) . . .
115(6) . . .
110(6) . . .
115(6) . . .
108(5) . . .
115(6) . . .
98(5) . . .
112(6) . . .
111(6) . . .
116(6) . . .
109(5) . . .
103(5) . . .
123(6) . . .
124(6) . . .
115(6) . . .
106(5) . . .
111(6) . . .
111(6) . . .
120(6) . . .
107(6) . . .
126(6) . . .
117(6) . . .
118(6) . . .
117(6) . . .
109(5) . . .
117(6) . . .
112(6) . . .
131(6) . . .
127(6) . . .
110(6) . . .
111(5) . . .
116(6) . . .
106(6) . . .
119(6) . . .
108(6) . . .
106(5) . . .
101(5) . . .
112(6) . . .
124(6) . . .
114(6) . . .
126(6) . . .
132(6) . . .
116(6) . . .
128(6) . . .
108(5) . . .
113(6) . . .
117(6) . . .
123(6) . . .
106(5) . . .
115(6) . . .
109(5) . . .
111(6) . . .
112(6) . . .
117(6) . . .
122(6) . . .
132(6) . . .
111(6) . . .
116(6) . . .
117(6) . . .
118(6) . . .
110(5) . . .
113(6) . . .
117(6) . . .
110(6) . . .
108(5) . . .
109(5) . . .
109(6) . . .
112(6) . . .
116(6) . . .
106(5) . . .
116(6) . . .
116(6) . . .
116(6) . . .
114(6) . . .
101(5) . . .
124(6) . . .
115(6) . . .
119(6) . . .
131(6) . . .
119(6) . . .
106(5) . . .
119(6) . . .
117(6) . . .
109(6) . . .
108(5) . . .
99(5) . . .
90(5) . . .
116(6) . . .
105(5) . . .
122(6) . . .
114(6) . . .
111(6) . . .
103(5) . . .
115(6) . . .
124(6) . . .
119(6) . . .
101(6) . . .
106(6) . . .
101(5) . . .
109(5) . . .
103(5) . . .
118(6) . . .
109(6) . . .
118(6) . . .
119(6) . . .
111(6) . . .
104(6) . . .
98(5) . . .
121(6) . . .
104(5) . . .
111(6) . . .
116(6) . . .
117(6) . . .
129(6) . . .
103(5) . . .
109(6) . . .
108(6) . . .
108(6) . . .
97(5) . . .
101(5) . . .
110(6) . . .
123(6) . . .
95(5) . . .
94(5) . . .
94(5) . . .
108(6) . . .
103(5) . . .
113(6) . . .
127(6) . . .
113(6) . . .
109(6) . . .
109(6) . . .
114(6) . . .
112(5) . . .
117(6) . . .
105(5) . . .
115(6) . . .
110(6) . . .
104(5) . . .
115(6) . . .
106(5) . . .
119(6) . . .
115(6) . . .
121(6) . . .
102(6) . . .
111(6) . . .
117(6) . . .
111(5) . . .
124(6) . . .
115(6) . . .
96(5) . . .
93(5) . . .
110(6) . . .
111(6) . . .
116(6) . . .
114(6) . . .
113(6) . . .
103(5) . . .
103(5) . . .
113(6) . . .
104(6) . . .
112(6) . . .
100(5) . . .
107(5) . . .
110(6) . . .
112(6) . . .
106(6) . . .
107(5) . . .
122(6) . . .
127(6) . . .
111(6) . . .
111(6) . . .
110(5) . . .
110(5) . . .
108(5) . . .
119(6) . . .
110(6) . . .
109(5) . . .
113(6) . . .
105(5) . . .
112(6) . . .
109(6) . . .
111(5) . . .
120(6) . . .
109(6) . . .
117(6) . . .
100(5) . . .
110(5) . . .
111(6) . . .
104(6) . . .
111(6) . . .
101(5) . . .
119(6) . . .
106(6) . . .
95(5) . . .
107(6) . . .
118(6) . . .
114(6) . . .
118(6) . . .
116(6) . . .
108(6) . . .
100(5) . . .
91(5) . . .
116(6) . . .
102(6) . . .
97(5) . . .
93(5) . . .
100(5) . . .
98(5) . . .
114(6) . . .
112(6) . . .
118(6) . . .
102(5) . . .
106(5) . . .
110(6) . . .
110(6) . . .
99(5) . . .
107(5) . . .
108(5) . . .
112(6) . . .
124(6) . . .
118(6) . . .
112(5) . . .
120(6) . . .
113(6) . . .
101(5) . . .
118(6) . . .
109(5) . . .
101(5) . . .
116(6) . . .
104(5) . . .
112(5) . . .
124(6) . . .
104(5) . . .
109(6) . . .
107(5) . . .
106(5) . . .
109(6) . . .
104(6) . . .
102(6) . . .
100(5) . . .
103(5) . . .
104(5) . . .
103(6) . . .
113(6) . . .
113(6) . . .
114(6) . . .
117(6) . . .
103(6) . . .
108(6) . . .
104(5) . . .
101(5) . . .
107(6) . . .
112(6) . . .
108(6) . . .
101(5) . . .
115(6) . . .
107(6) . . .
119(6) . . .
132(6) . . .
115(6) . . .
118(6) . . .
108(5) . . .
124(6) . . .
106(5) . . .
90(5) . . .
97(5) . . .
117(6) . . .
96(5) . . .
106(5) . . .
122(6) . . .
120(6) . . .
106(6) . . .
110(6) . . .
116(6) . . .
106(5) . . .
118(6) . . .
105(6) . . .
102(5) . . .
106(6) . . .
99(5) . . .
104(5) . . .
103(6) . . .
109(6) . . .
105(6) . . .
102(5) . . .
102(6) . . .
99(5) . . .
108(5) . . .
116(6) . . .
111(5) . . .
99(5) . . .
102(5) . . .
104(5) . . .
113(6) . . .
103(5) . . .
110(6) . . .
112(6) . . .
108(6) . . .
99(5) . . .
106(5) . . .
115(6) . . .
105(6) . . .
106(6) . . .
103(5) . . .
115(6) . . .
112(6) . . .
99(5) . . .
102(6) . . .
104(5) . . .
108(5) . . .
107(6) . . .
118(6) . . .
122(6) . . .
102(5) . . .
113(6) . . .
103(5) . . .
109(6) . . .
102(5) . . .
112(5) . . .
113(6) . . .
115(6) . . .
99(5) . . .
103(5) . . .
114(6) . . .
111(5) . . .
111(6) . . .
116(6) . . .
112(6) . . .
113(6) . . .
107(6) . . .
108(6) . . .
105(6) . . .
110(6) . . .
97(5) . . .
106(5) . . .
102(6) . . .
98(5) . . .
118(6) . . .
112(5) . . .
113(6) . . .
91(5) . . .
101(5) . . .
110(6) . . .
119(6) . . .
102(5) . . .
100(6) . . .
106(6) . . .
96(5) . . .
107(5) . . .
108(6) . . .
104(6) . . .
95(5) . . .
125(6) . . .
122(6) . . .
105(6) . . .
100(5) . . .
115(6) . . .
108(5) . . .
105(5) . . .
99(5) . . .
112(6) . . .
101(5) . . .
109(5) . . .
102(5) . . .
114(6) . . .
91(5) . . .
109(6) . . .
112(6) . . .
111(5) . . .
94(5) . . .
108(6) . . .
116(6) . . .
117(6) . . .
110(5) . . .
114(6) . . .
98(5) . . .
90(5) . . .
103(5) . . .
110(6) . . .
104(5) . . .
103(5) . . .
107(5) . . .
114(6) . . .
103(5) . . .
97(5) . . .
98(6) . . .
114(6) . . .
107(5) . . .
118(6) . . .
100(5) . . .
115(6) . . .
105(5) . . .
101(5) . . .
108(6) . . .
107(6) . . .
121(6) . . .
100(5) . . .
102(5) . . .
109(6) . . .
97(5) . . .
106(6) . . .
109(5) . . .
101(5) . . .
108(6) . . .
94(5) . . .
104(6) . . .
101(5) . . .
98(5) . . .
100(5) . . .
95(5) . . .
100(5) . . .
101(5) . . .
107(5) . . .
104(5) . . .
120(6) . . .
115(6) . . .
103(5) . . .
111(6) . . .
110(6) . . .
106(6) . . .
105(6) . . .
95(5) . . .
106(6) . . .
103(5) . . .
100(6) . . .
104(5) . . .
103(5) . . .
104(5) . . .
116(6) . . .
101(5) . . .
99(5) . . .
118(6) . . .
114(6) . . .
97(5) . . .
100(6) . . .
82(5) . . .
104(5) . . .
110(6) . . .
107(6) . . .
107(5) . . .
101(5) . . .
101(5) . . .
108(6) . . .
112(6) . . .
105(6) . . .
103(5) . . .
120(6) . . .
108(6) . . .
104(6) . . .
105(6) . . .
104(5) . . .
107(5) . . .
102(5) . . .
107(6) . . .
107(6) . . .
106(5) . . .
117(6) . . .
100(5) . . .
108(6) . . .
98(5) . . .
101(5) . . .
100(5) . . .
102(6) . . .
119(6) . . .
116(6) . . .
111(5) . . .
120(6) . . .
122(6) . . .
120(6) . . .
111(6) . . .
110(5) . . .
124(6) . . .
115(6) . . .
119(6) . . .
109(6) . . .
102(5) . . .
124(6) . . .
107(6) . . .
103(6) . . .
110(6) . . .
114(6) . . .
107(5) . . .
103(5) . . .
121(6) . . .
112(6) . . .
109(5) . . .
110(6) . . .
123(6) . . .
110(6) . . .
108(5) . . .
104(5) . . .
89(5) . . .
106(6) . . .
109(6) . . .
112(6) . . .
95(5) . . .
91(5) . . .
99(5) . . .
108(6) . . .
87(5) . . .
106(5) . . .
107(6) . . .
103(6) . . .
119(6) . . .
133(6) . . .
103(5) . . .
120(6) . . .
109(6) . . .
106(6) . . .
96(5) . . .
96(5) . . .
110(6) . . .
115(6) . . .
102(5) . . .
108(5) . . .
121(6) . . .
111(6) . . .
102(6) . . .
111(6) . . .
101(5) . . .
102(5) . . .
107(6) . . .
109(6) . . .
114(6) . . .
118(6) . . .
116(6) . . .
104(5) . . .
107(6) . . .
92(5) . . .
91(5) . . .
91(5) . . .
94(5) . . .
106(6) . . .
115(6) . . .
107(5) . . .
117(6) . . .
106(6) . . .
95(5) . . .
102(5) . . .
110(5) . . .
106(6) . . .
110(6) . . .
110(6) . . .
126(6) . . .
103(5) . . .
110(6) . . .
101(6) . . .
104(6) . . .
99(5) . . .
93(5) . . .
106(6) . . .
99(6) . . .
113(6) . . .
109(5) . . .
107(5) . . .
116(6) . . .
122(6) . . .
97(5) . . .
101(5) . . .
100(5) . . .
101(5) . . .
93(5) . . .
99(5) . . .
105(5) . . .
99(5) . . .
97(5) . . .
104(6) . . .
119(6) . . .
111(5) . . .
107(5) . . .
114(6) . . .
107(6) . . .
100(5) . . .
105(5) . . .
101(5) . . .
110(6) . . .
94(5) . . .
120(6) . . .
97(5) . . .
103(5) . . .
108(6) . . .
96(5) . . .
110(6) . . .
118(6) . . .
125(6) . . .
107(5) . . .
110(6) . . .
100(5) . . .
114(6) . . .
101(5) . . .
93(5) . . .
113(6) . . .
107(5) . . .
109(5) . . .
109(6) . . .
95(5) . . .
92(5) . . .
108(6) . . .
117(6) . . .
107(5) . . .
116(6) . . .
115(6) . . .
114(6) . . .
111(5) . . .
112(6) . . .
95(5) . . .
115(6) . . .
109(6) . . .
101(5) . . .
121(6) . . .
105(6) . . .
96(5) . . .
104(5) . . .
91(5) . . .
106(6) . . .
96(5) . . .
108(6) . . .
95(5) . . .
98(5) . . .
101(5) . . .
113(6) . . .
111(6) . . .
107(5) . . .
108(5) . . .
105(6) . . .
107(6) . . .
105(5) . . .
111(5) . . .
110(6) . . .
94(5) . . .
99(5) . . .
103(5) . . .
108(5) . . .
108(5) . . .
114(6) . . .
116(6) . . .
82(5) . . .
114(6) . . .
114(6) . . .
113(6) . . .
110(6) . . .
103(5) . . .
95(5) . . .
121(6) . . .
118(6) . . .
96(5) . . .
98(5) . . .
103(5) . . .
111(6) . . .
101(5) . . .
113(6) . . .
95(5) . . .
107(5) . . .
104(5) . . .
116(6) . . .
105(6) . . .
115(6) . . .
106(5) . . .
104(5) . . .
98(6) . . .
99(5) . . .
109(5) . . .
113(6) . . .
94(5) . . .
101(6) . . .
104(5) . . .
109(5) . . .
104(5) . . .
96(5) . . .
105(6) . . .
113(6) . . .
116(6) . . .
107(5) . . .
103(5) . . .
114(6) . . .
106(6) . . .
108(5) . . .
105(5) . . .
87(5) . . .
107(6) . . .
115(6) . . .
112(6) . . .
107(6) . . .
103(5) . . .
113(6) . . .
98(5) . . .
115(6) . . .
101(5) . . .
92(5) . . .
90(5) . . .
110(6) . . .
108(5) . . .
99(5) . . .
92(5) . . .
95(5) . . .
107(6) . . .
112(5) . . .
109(6) . . .
105(6) . . .
112(6) . . .
101(5) . . .
97(5) . . .
88(5) . . .
94(5) . . .
97(5) . . .
114(6) . . .
95(5) . . .
94(5) . . .
107(6) . . .
92(5) . . .
98(5) . . .
111(5) . . .
127(6) . . .
113(6) . . .
90(5) . . .
93(5) . . .
97(5) . . .
103(6) . . .
105(6) . . .
100(5) . . .
104(5) . . .
93(5) . . .
86(5) . . .
96(5) . . .
101(6) . . .
105(5) . . .
89(5) . . .
100(5) . . .
94(5) . . .
98(6) . . .
98(5) . . .
99(5) . . .
97(6) . . .
107(6) . . .
108(6) . . .
107(5) . . .
103(5) . . .
105(6) . . .
99(6) . . .
103(5) . . .
95(5) . . .
107(6) . . .
100(6) . . .
105(6) . . .
93(5) . . .
103(5) . . .
112(6) . . .
106(6) . . .
99(5) . . .
105(5) . . .
94(5) . . .
92(5) . . .
93(5) . . .
91(5) . . .
97(5) . . .
109(5) . . .
111(6) . . .
82(5) . . .
88(5) . . .
101(5) . . .
88(5) . . .
102(6) . . .
103(6) . . .
112(6) . . .
93(5) . . .
95(5) . . .
89(5) . . .
95(5) . . .
99(5) . . .
103(5) . . .
105(5) . . .
100(6) . . .
95(6) . . .
87(5) . . .
100(5) . . .
100(5) . . .
107(6) . . .
111(6) . . .
78(5) . . .
95(5) . . .
91(5) . . .
93(5) . . .
111(6) . . .
98(5) . . .
86(5) . . .
97(5) . . .
106(6) . . .
100(5) . . .
100(5) . . .
92(5) . . .
104(6) . . .
105(6) . . .
79(5) . . .
92(5) . . .
94(5) . . .
106(6) . . .
103(5) . . .
98(5) . . .
100(5) . . .
106(5) . . .
113(6) . . .
101(5) . . .
86(5) . . .
92(5) . . .
99(5) . . .
101(5) . . .
98(6) . . .
94(5) . . .
95(5) . . .
94(5) . . .
97(5) . . .
89(5) . . .
120(6) . . .
110(5) . . .
94(5) . . .
102(5) . . .
90(5) . . .
104(6) . . .
98(5) . . .
92(5) . . .
92(5) . . .
106(6) . . .
91(5) . . .
108(5) . . .
95(5) . . .
108(6) . . .
101(5) . . .
93(5) . . .
89(5) . . .
95(5) . . .
104(5) . . .
110(6) . . .
98(5) . . .
114(6) . . .
90(5) . . .
101(5) . . .
103(6) . . .
95(5) . . .
103(5) . . .
105(5) . . .
96(5) . . .
104(6) . . .
104(5) . . .
84(5) . . .
95(5) . . .
103(6) . . .
103(5) . . .
108(5) . . .
108(5) . . .
102(5) . . .
79(5) . . .
111(6) . . .
97(5) . . .
99(5) . . .
94(5) . . .
106(6) . . .
96(5) . . .
112(6) . . .
114(6) . . .
103(5) . . .
96(5) . . .
105(6) . . .
93(5) . . .
106(5) . . .
93(5) . . .
92(5) . . .
91(5) . . .
100(5) . . .
101(5) . . .
107(6) . . .
102(6) . . .
97(5) . . .
95(5) . . .
95(5) . . .
98(5) . . .
106(6) . . .
99(5) . . .
96(5) . . .
99(5) . . .
103(5) . . .
97(5) . . .
99(5) . . .
100(5) . . .
105(5) . . .
106(6) . . .
102(6) . . .
99(5) . . .
98(5) . . .
97(5) . . .
103(6) . . .
102(5) . . .
109(6) . . .
119(6) . . .
110(6) . . .
93(5) . . .
90(5) . . .
95(5) . . .
111(5) . . .
113(6) . . .
98(5) . . .
94(5) . . .
93(5) . . .
100(5) . . .
106(5) . . .
82(5) . . .
101(5) . . .
98(5) . . .
90(5) . . .
112(6) . . .
109(6) . . .
114(6) . . .
92(5) . . .
107(5) . . .
104(6) . . .
106(6) . . .
113(6) . . .
110(5) . . .
96(5) . . .
95(5) . . .
116(6) . . .
100(5) . . .
101(5) . . .
92(5) . . .
91(5) . . .
100(6) . . .
95(5) . . .
108(5) . . .
101(5) . . .
103(6) . . .
85(5) . . .
99(5) . . .
103(5) . . .
98(5) . . .
92(5) . . .
104(5) . . .
94(5) . . .
100(5) . . .
94(5) . . .
104(6) . . .
122(6) . . .
107(6) . . .
102(5) . . .
101(5) . . .
109(6) . . .
94(5) . . .
91(5) . . .
106(5) . . .
102(5) . . .
97(5) . . .
90(5) . . .
97(5) . . .
91(5) . . .
101(5) . . .
93(5) . . .
99(6) . . .
106(5) . . .
97(5) . . .
102(5) . . .
92(5) . . .
117(6) . . .
102(5) . . .
109(5) . . .
109(6) . . .
116(6) . . .
95(5) . . .
98(5) . . .
97(5) . . .
100(5) . . .
114(6) . . .
106(6) . . .
101(5) . . .
119(6) . . .
99(5) . . .
93(5) . . .
101(6) . . .
108(5) . . .
108(5) . . .
106(5) . . .
100(5) . . .
116(6) . . .
110(5) . . .
113(6) . . .
82(5) . . .
88(5) . . .
92(5) . . .
107(5) . . .
87(5) . . .
87(5) . . .
95(5) . . .
95(5) . . .
84(5) . . .
103(5) . . .
94(5) . . .
90(5) . . .
94(5) . . .
101(5) . . .
99(5) . . .
96(5) . . .
94(5) . . .
100(5) . . .
91(5) . . .
101(5) . . .
120(6) . . .
106(6) . . .
125(6) . . .
99(5) . . .
91(5) . . .
99(5) . . .
91(5) . . .
103(5) . . .
103(5) . . .
93(5) . . .
98(6) . . .
86(5) . . .
85(5) . . .
94(5) . . .
111(6) . . .
106(6) . . .
95(5) . . .
102(5) . . .
94(5) . . .
102(6) . . .
96(5) . . .
102(5) . . .
99(5) . . .
104(5) . . .
90(5) . . .
83(5) . . .
113(6) . . .
93(5) . . .
89(5) . . .
96(5) . . .
89(5) . . .
93(5) . . .
98(5) . . .
104(6) . . .
93(5) . . .
105(6) . . .
85(5) . . .
91(5) . . .
87(5) . . .
88(5) . . .
109(6) . . .
106(5) . . .
105(5) . . .
93(5) . . .
85(5) . . .
97(5) . . .
103(5) . . .
108(5) . . .
102(6) . . .
101(5) . . .
102(5) . . .
99(5) . . .
93(5) . . .
90(5) . . .
105(6) . . .
107(5) . . .
89(5) . . .
105(5) . . .
101(5) . . .
103(5) . . .
102(5) . . .
107(5) . . .
98(5) . . .
103(5) . . .
92(5) . . .
96(5) . . .
107(5) . . .
99(5) . . .
97(5) . . .
104(6) . . .
106(6) . . .
92(5) . . .
89(5) . . .
108(6) . . .
110(6) . . .
99(5) . . .
88(5) . . .
101(5) . . .
101(5) . . .
87(5) . . .
93(5) . . .
97(5) . . .
105(5) . . .
94(5) . . .
89(5) . . .
96(5) . . .
93(5) . . .
94(5) . . .
98(5) . . .
97(5) . . .
110(6) . . .
108(5) . . .
89(5) . . .
102(5) . . .
103(5) . . .
99(5) . . .
101(5) . . .
98(5) . . .
105(6) . . .
92(5) . . .
100(5) . . .
102(5) . . .
92(5) . . .
91(5) . . .
100(6) . . .
110(6) . . .
77(5) . . .
104(6) . . .
87(5) . . .
108(6) . . .
93(5) . . .
95(5) . . .
98(5) . . .
97(6) . . .
95(5) . . .
91(5) . . .
102(5) . . .
95(5) . . .
104(6) . . .
111(6) . . .
108(5) . . .
89(5) . . .
102(5) . . .
112(6) . . .
109(6) . . .
101(5) . . .
97(5) . . .
97(5) . . .
96(5) . . .
102(5) . . .
107(5) . . .
103(6) . . .
87(5) . . .
104(6) . . .
112(6) . . .
87(5) . . .
99(5) . . .
100(5) . . .
108(6) . . .
102(5) . . .
103(5) . . .
88(5) . . .
104(6) . . .
97(5) . . .
80(5) . . .
97(5) . . .
93(5) . . .
91(5) . . .
100(5) . . .
102(5) . . .
105(5) . . .
111(6) . . .
101(6) . . .
87(5) . . .
98(5) . . .
106(5) . . .
93(5) . . .
92(5) . . .
94(5) . . .
85(5) . . .
87(5) . . .
102(5) . . .
98(6) . . .
98(5) . . .
89(5) . . .
94(5) . . .
102(5) . . .
101(6) . . .
113(6) . . .
98(5) . . .
108(6) . . .
96(5) . . .
94(5) . . .
95(5) . . .
99(5) . . .
92(5) . . .
104(5) . . .
102(6) . . .
99(5) . . .
107(5) . . .
94(5) . . .
94(5) . . .
91(5) . . .
94(5) . . .
94(5) . . .
92(5) . . .
95(5) . . .
97(6) . . .
105(6) . . .
87(5) . . .
94(5) . . .
89(5) . . .
105(6) . . .
97(5) . . .
87(5) . . .
86(5) . . .
94(5) . . .
110(6) . . .
99(5) . . .
93(5) . . .
97(5) . . .
104(6) . . .
98(5) . . .
97(5) . . .
96(5) . . .
95(5) . . .
94(5) . . .
115(6) . . .
100(5) . . .
107(5) . . .
88(5) . . .
95(5) . . .
98(5) . . .
116(6) . . .
104(5) . . .
114(6) . . .
90(5) . . .
102(5) . . .
98(5) . . .
107(5) . . .
99(5) . . .
95(5) . . .
104(6) . . .
82(5) . . .
101(5) . . .
90(5) . . .
97(5) . . .
103(5) . . .
92(5) . . .
102(5) . . .
103(5) . . .
93(5) . . .
99(5) . . .
105(5) . . .
105(5) . . .
97(5) . . .
105(6) . . .
104(5) . . .
85(5) . . .
91(5) . . .
101(5) . . .
108(6) . . .
98(5) . . .
99(5) . . .
98(5) . . .
91(5) . . .
94(5) . . .
108(5) . . .
105(5) . . .
109(6) . . .
102(5) . . .
97(5) . . .
101(6) . . .
100(5) . . .
93(5) . . .
94(5) . . .
109(6) . . .
96(5) . . .
92(5) . . .
86(5) . . .
99(5) . . .
95(5) . . .
104(5) . . .
95(5) . . .
97(5) . . .
107(6) . . .
120(6) . . .
84(5) . . .
108(5) . . .
111(6) . . .
97(6) . . .
89(5) . . .
100(5) . . .
90(5) . . .
92(5) . . .
89(5) . . .
95(5) . . .
86(5) . . .
107(5) . . .
111(6) . . .
98(5) . . .
85(5) . . .
102(5) . . .
114(6) . . .
113(6) . . .
95(5) . . .
98(5) . . .
102(5) . . .
98(5) . . .
88(5) . . .
94(5) . . .
83(5) . . .
103(5) . . .
96(5) . . .
93(5) . . .
101(5) . . .
92(5) . . .
90(5) . . .
100(5) . . .
100(5) . . .
104(5) . . .
81(5) . . .
88(5) . . .
94(5) . . .
108(6) . . .
100(5) . . .
89(5) . . .
100(5) . . .
100(5) . . .
100(6) . . .
101(6) . . .
102(5) . . .
91(5) . . .
99(5) . . .
94(5) . . .
89(5) . . .
90(5) . . .
109(6) . . .
93(5) . . .
108(6) . . .
98(5) . . .
101(5) . . .
98(5) . . .
85(5) . . .
88(5) . . .
103(6) . . .
93(5) . . .
94(5) . . .
114(6) . . .
98(6) . . .
89(5) . . .
93(5) . . .
107(6) . . .
99(5) . . .
89(5) . . .
87(5) . . .
98(5) . . .
98(5) . . .
98(5) . . .
104(6) . . .
92(5) . . .
95(5) . . .
94(5) . . .
87(5) . . .
109(6) . . .
92(5) . . .
97(5) . . .
112(6) . . .
111(6) . . .
105(6) . . .
87(5) . . .
95(5) . . .
87(5) . . .
93(5) . . .
109(6) . . .
97(5) . . .
107(5) . . .
103(5) . . .
96(5) . . .
86(5) . . .
115(6) . . .
92(5) . . .
107(6) . . .
90(5) . . .
101(6) . . .
99(5) . . .
95(5) . . .
92(5) . . .
94(5) . . .
94(5) . . .
98(5) . . .
106(5) . . .
96(5) . . .
87(5) . . .
89(5) . . .
91(5) . . .
85(5) . . .
87(5) . . .
91(5) . . .
94(5) . . .
91(5) . . .
90(5) . . .
90(5) . . .
100(6) . . .
100(5) . . .
103(5) . . .
84(5) . . .
103(6) . . .
99(5) . . .
97(5) . . .
98(5) . . .
99(5) . . .
88(5) . . .
94(5) . . .
88(5) . . .
100(5) . . .
108(6) . . .
99(5) . . .
101(5) . . .
92(5) . . .
93(5) . . .
101(5) . . .
101(5) . . .
94(5) . . .
95(5) . . .
96(5) . . .
98(5) . . .
94(5) . . .
100(5) . . .
111(6) . . .
95(5) . . .
88(5) . . .
85(5) . . .
97(5) . . .
93(5) . . .
93(5) . . .
100(5) . . .
99(6) . . .
105(5) . . .
93(5) . . .
89(5) . . .
100(5) . . .
85(5) . . .
95(5) . . .
89(5) . . .
78(5) . . .
90(5) . . .
97(5) . . .
96(5) . . .
84(5) . . .
104(5) . . .
119(6) . . .
97(5) . . .
94(5) . . .
90(5) . . .
84(5) . . .
82(5) . . .
113(6) . . .
91(5) . . .
105(5) . . .
87(5) . . .
89(5) . . .
94(5) . . .
90(5) . . .
96(5) . . .
98(5) . . .
90(5) . . .
98(5) . . .
100(5) . . .
92(5) . . .
94(5) . . .
84(5) . . .
83(5) . . .
101(5) . . .
98(5) . . .
100(5) . . .
95(5) . . .
93(5) . . .
108(6) . . .
93(5) . . .
93(5) . . .
101(6) . . .
99(5) . . .
89(5) . . .
92(5) . . .
99(5) . . .
95(5) . . .
82(5) . . .
85(5) . . .
92(5) . . .
92(5) . . .
100(6) . . .
104(5) . . .
96(5) . . .
99(5) . . .
87(5) . . .
104(6) . . .
88(5) . . .
99(5) . . .
89(5) . . .
95(5) . . .
98(6) . . .
86(5) . . .
91(5) . . .
95(5) . . .
88(5) . . .
101(5) . . .
101(5) . . .
116(6) . . .
86(5) . . .
98(5) . . .
90(5) . . .
87(5) . . .
94(5) . . .
93(5) . . .
80(5) . . .
95(5) . . .
95(5) . . .
83(5) . . .
100(6) . . .
85(5) . . .
100(5) . . .
102(5) . . .
93(5) . . .
87(5) . . .
89(5) . . .
96(5) . . .
97(5) . . .
101(5) . . .
92(5) . . .
90(5) . . .
101(5) . . .
86(5) . . .
100(5) . . .
88(5) . . .
99(5) . . .
114(6) . . .
104(5) . . .
84(5) . . .
96(5) . . .
101(6) . . .
102(5) . . .
98(5) . . .
91(5) . . .
92(5) . . .
94(5) . . .
99(6) . . .
93(5) . . .
106(5) . . .
93(5) . . .
108(6) . . .
92(5) . . .
88(5) . . .
92(5) . . .
113(6) . . .
87(5) . . .
76(5) . . .
91(5) . . .
81(5) . . .
95(5) . . .
99(5) . . .
86(5) . . .
97(5) . . .
90(5) . . .
87(5) . . .
84(5) . . .
94(5) . . .
95(5) . . .
91(5) . . .
87(5) . . .
98(5) . . .
103(5) . . .
108(5) . . .
88(5) . . .
89(5) . . .
93(5) . . .
99(5) . . .
97(5) . . .
96(5) . . .
90(5) . . .
85(5) . . .
86(5) . . .
90(5) . . .
103(6) . . .
99(5) . . .
92(5) . . .
86(5) . . .
98(5) . . .
96(5) . . .
92(5) . . .
100(5) . . .
92(5) . . .
98(5) . . .
94(5) . . .
91(5) . . .
90(5) . . .
85(5) . . .
87(5) . . .
96(5) . . .
106(6) . . .
101(5) . . .
81(5) . . .
95(5) . . .
94(5) . . .
104(6) . . .
97(5) . . .
86(5) . . .
96(5) . . .
104(6) . . .
88(5) . . .
97(5) . . .
92(5) . . .
100(5) . . .
89(5) . . .
81(5) . . .
93(5) . . .
85(5) . . .
87(5) . . .
94(5) . . .
91(5) . . .
104(5) . . .
97(5) . . .
97(5) . . .
96(5) . . .
92(5) . . .
94(5) . . .
105(5) . . .
91(5) . . .
93(5) . . .
87(5) . . .
93(5) . . .
91(5) . . .
83(5) . . .
93(5) . . .
79(5) . . .
81(5) . . .
84(5) . . .
103(6) . . .
95(5) . . .
105(5) . . .
97(5) . . .
95(5) . . .
92(5) . . .
106(6) . . .
106(6) . . .
93(5) . . .
90(5) . . .
88(5) . . .
79(5) . . .
86(5) . . .
92(5) . . .
87(5) . . .
98(5) . . .
98(5) . . .
110(6) . . .
100(5) . . .
111(5) . . .
91(5) . . .
105(6) . . .
100(5) . . .
111(5) . . .
92(5) . . .
99(5) . . .
104(5) . . .
98(5) . . .
99(5) . . .
99(5) . . .
110(6) . . .
96(5) . . .
101(5) . . .
92(5) . . .
95(5) . . .
95(5) . . .
87(5) . . .
84(5) . . .
92(5) . . .
93(5) . . .
95(6) . . .
91(5) . . .
95(5) . . .
98(5) . . .
106(6) . . .
96(5) . . .
89(5) . . .
96(5) . . .
92(5) . . .
87(5) . . .
101(6) . . .
90(5) . . .
103(5) . . .
92(5) . . .
101(5) . . .
96(6) . . .
100(5) . . .
110(5) . . .
93(5) . . .
105(6) . . .
87(5) . . .
104(6) . . .
84(5) . . .
101(5) . . .
92(5) . . .
100(6) . . .
84(5) . . .
98(5) . . .
89(5) . . .
110(6) . . .
105(5) . . .
91(5) . . .
98(5) . . .
94(5) . . .
85(5) . . .
98(5) . . .
109(6) . . .
83(5) . . .
92(5) . . .
83(5) . . .
110(6) . . .
101(5) . . .
99(5) . . .
82(5) . . .
103(6) . . .
90(5) . . .
90(5) . . .
88(5) . . .
81(5) . . .
94(5) . . .
91(5) . . .
92(5) . . .
98(5) . . .
96(5) . . .
78(5) . . .
97(5) . . .
76(5) . . .
85(5) . . .
98(5) . . .
93(5) . . .
108(6) . . .
109(5) . . .
90(5) . . .
86(5) . . .
89(5) . . .
91(5) . . .
81(5) . . .
91(5) . . .
95(5) . . .
103(5) . . .
94(5) . . .
91(5) . . .
92(5) . . .
94(5) . . .
97(5) . . .
104(6) . . .
84(5) . . .
84(5) . . .
100(5) . . .
101(5) . . .
99(5) . . .
101(5) . . .
96(5) . . .
95(5) . . .
85(5) . . .
107(6) . . .
103(5) . . .
89(5) . . .
88(5) . . .
105(5) . . .
108(6) . . .
92(5) . . .
92(5) . . .
100(5) . . .
98(5) . . .
107(6) . . .
99(5) . . .
105(6) . . .
99(6) . . .
101(5) . . .
107(5) . . .
97(5) . . .
103(6) . . .
105(6) . . .
90(5) . . .
101(5) . . .
87(5) . . .
103(6) . . .
94(5) . . .
100(5) . . .
98(5) . . .
102(5) . . .
111(6) . . .
100(6) . . .
113(6) . . .
95(5) . . .
100(5) . . .
99(5) . . .
99(5) . . .
93(5) . . .
98(5) . . .
94(5) . . .
94(5) . . .
85(5) . . .
91(5) . . .
94(5) . . .
86(5) . . .
91(5) . . .
95(5) . . .
104(6) . . .
104(5) . . .
88(5) . . .
102(6) . . .
86(5) . . .
94(5) . . .
90(5) . . .
91(5) . . .
87(5) . . .
109(6) . . .
97(5) . . .
99(5) . . .
100(5) . . .
87(5) . . .
92(5) . . .
82(5) . . .
93(5) . . .
94(5) . . .
92(5) . . .
82(5) . . .
89(5) . . .
83(5) . . .
91(5) . . .
91(5) . . .
98(5) . . .
95(5) . . .
102(5) . . .
84(5) . . .
99(6) . . .
90(5) . . .
82(5) . . .
98(5) . . .
93(5) . . .
86(5) . . .
92(5) . . .
88(5) . . .
80(5) . . .
87(5) . . .
88(5) . . .
98(5) . . .
80(5) . . .
89(5) . . .
96(5) . . .
94(5) . . .
89(5) . . .
100(5) . . .
99(5) . . .
88(5) . . .
88(5) . . .
110(6) . . .
100(5) . . .
95(5) . . .
86(5) . . .
77(5) . . .
87(5) . . .
80(5) . . .
95(5) . . .
94(5) . . .
94(5) . . .
100(5) . . .
107(5) . . .
90(5) . . .
100(6) . . .
81(5) . . .
90(5) . . .
97(5) . . .
91(5) . . .
78(5) . . .
77(5) . . .
79(5) . . .
86(5) . . .
97(5) . . .
88(5) . . .
96(5) . . .
92(5) . . .
93(5) . . .
93(5) . . .
98(6) . . .
89(5) . . .
98(5) . . .
93(5) . . .
90(5) . . .
78(5) . . .
96(5) . . .
93(5) . . .
88(5) . . .
90(5) . . .
76(5) . . .
86(5) . . .
83(5) . . .
97(5) . . .
100(5) . . .
92(5) . . .
101(5) . . .
96(5) . . .
99(5) . . .
101(5) . . .
90(5) . . .
96(5) . . .
94(5) . . .
87(5) . . .
86(5) . . .
93(5) . . .
106(6) . . .
89(5) . . .
98(5) . . .
98(5) . . .
99(5) . . .
94(5) . . .
99(5) . . .
75(5) . . .
92(5) . . .
95(5) . . .
96(5) . . .
100(5) . . .
104(6) . . .
88(5) . . .
98(6) . . .
97(5) . . .
90(5) . . .
86(5) . . .
90(5) . . .
94(5) . . .
87(5) . . .
94(5) . . .
88(5) . . .
85(5) . . .
85(5) . . .
77(5) . . .
76(5) . . .
99(5) . . .
90(5) . . .
92(5) . . .
100(5) . . .
84(5) . . .
89(5) . . .
97(5) . . .
94(5) . . .
86(5) . . .
96(5) . . .
93(5) . . .
82(5) . . .
87(5) . . .
93(5) . . .
93(5) . . .
82(5) . . .
102(6) . . .
93(5) . . .
85(5) . . .
99(5) . . .
97(5) . . .
91(5) . . .
104(5) . . .
78(5) . . .
82(5) . . .
95(5) . . .
106(6) . . .
93(5) . . .
89(5) . . .
84(5) . . .
99(6) . . .
90(5) . . .
83(5) . . .
114(6) . . .
78(5) . . .
91(5) . . .
87(5) . . .
91(5) . . .
98(5) . . .
86(5) . . .
94(5) . . .
97(5) . . .
98(5) . . .
87(5) . . .
87(5) . . .
82(5) . . .
111(6) . . .
102(5) . . .
97(5) . . .
86(5) . . .
98(5) . . .
90(5) . . .
92(5) . . .
98(5) . . .
97(5) . . .
106(6) . . .
92(5) . . .
79(5) . . .
93(5) . . .
94(5) . . .
91(5) . . .
94(5) . . .
77(5) . . .
91(5) . . .
101(5) . . .
96(5) . . .
103(5) . . .
96(5) . . .
92(5) . . .
91(5) . . .
92(5) . . .
91(5) . . .
96(5) . . .
88(5) . . .
88(5) . . .
96(5) . . .
102(6) . . .
93(5) . . .
83(5) . . .
87(5) . . .
92(5) . . .
89(5) . . .
94(5) . . .
90(5) . . .
91(5) . . .
103(6) . . .
92(5) . . .
94(5) . . .
88(5) . . .
99(5) . . .
85(5) . . .
108(6) . . .
93(5) . . .
92(5) . . .
102(6) . . .
83(5) . . .
93(5) . . .
86(5) . . .
89(5) . . .
94(5) . . .
77(5) . . .
88(5) . . .
85(5) . . .
86(5) . . .
85(5) . . .
100(5) . . .
101(5) . . .
93(5) . . .
85(5) . . .
99(6) . . .
95(5) . . .
87(5) . . .
106(5) . . .
100(5) . . .
99(5) . . .
100(5) . . .
104(5) . . .
95(5) . . .
84(5) . . .
82(5) . . .
91(5) . . .
99(5) . . .
93(5) . . .
101(6) . . .
95(5) . . .
104(5) . . .
80(5) . . .
91(5) . . .
81(5) . . .
84(5) . . .
88(5) . . .
100(5) . . .
95(5) . . .
94(5) . . .
88(5) . . .
89(5) . . .
92(5) . . .
91(5) . . .
93(5) . . .
96(5) . . .
106(5) . . .
88(5) . . .
98(5) . . .
94(5) . . .
90(5) . . .
95(5) . . .
90(5) . . .
88(5) . . .
95(5) . . .
89(5) . . .
86(5) . . .
87(5) . . .
97(5) . . .
99(5) . . .
84(5) . . .
96(5) . . .
90(5) . . .
84(5) . . .
90(5) . . .
91(5) . . .
90(5) . . .
93(5) . . .
92(5) . . .
90(5) . . .
84(5) . . .
93(5) . . .
90(5) . . .
94(5) . . .
87(5) . . .
77(5) . . .
97(5) . . .
85(5) . . .
93(5) . . .
93(5) . . .
101(5) . . .
83(5) . . .
92(5) . . .
83(5) . . .
75(5) . . .
94(5) . . .
87(5) . . .
86(5) . . .
83(5) . . .
77(5) . . .
84(5) . . .
87(5) . . .
83(5) . . .
78(5) . . .
87(5) . . .
83(5) . . .
77(5) . . .
94(5) . . .
97(5) . . .
93(5) . . .
82(5) . . .
91(5) . . .
90(5) . . .
89(5) . . .
97(5) . . .
90(5) . . .
80(5) . . .
93(5) . . .
88(5) . . .
92(5) . . .
98(5) . . .
96(5) . . .
94(5) . . .
89(5) . . .
83(5) . . .
80(5) . . .
92(5) . . .
96(5) . . .
87(5) . . .
88(5) . . .
85(5) . . .
90(5) . . .
105(6) . . .
85(5) . . .
95(5) . . .
100(5) . . .
94(5) . . .
98(5) . . .
104(6) . . .
91(5) . . .
92(5) . . .
88(5) . . .
101(6) . . .
82(5) . . .
97(5) . . .
91(5) . . .
87(5) . . .
83(5) . . .
86(5) . . .
83(5) . . .
85(5) . . .
74(5) . . .
84(5) . . .
97(5) . . .
96(5) . . .
83(5) . . .
90(5) . . .
83(5) . . .
86(5) . . .
95(5) . . .
92(5) . . .
97(5) . . .
89(5) . . .
84(5) . . .
89(5) . . .
81(5) . . .
85(5) . . .
87(5) . . .
84(5) . . .
85(5) . . .
85(5) . . .
105(6) . . .
93(6) . . .
82(5) . . .
85(5) . . .
81(5) . . .
82(5) . . .
87(5) . . .
84(5) . . .
77(5) . . .
86(5) . . .
81(5) . . .
84(5) . . .
93(5) . . .
75(5) . . .
86(5) . . .
83(5) . . .
88(5) . . .
90(5) . . .
87(5) . . .
84(5) . . .
97(5) . . .
90(5) . . .
75(5) . . .
86(5) . . .
80(5) . . .
88(5) . . .
91(5) . . .
81(5) . . .
93(5) . . .
91(5) . . .
86(5) . . .
95(5) . . .
87(5) . . .
88(5) . . .
84(5) . . .
90(5) . . .
84(5) . . .
99(5) . . .
94(5) . . .
99(6) . . .
98(6) . . .
88(5) . . .
84(5) . . .
84(5) . . .
88(5) . . .
81(5) . . .
89(5) . . .
94(5) . . .
95(5) . . .
92(5) . . .
77(5) . . .
93(5) . . .
100(5) . . .
81(5) . . .
86(5) . . .
102(6) . . .
93(5) . . .
96(5) . . .
87(5) . . .
79(5) . . .
79(5) . . .
88(5) . . .
82(5) . . .
94(5) . . .
84(5) . . .
95(5) . . .
95(5) . . .
90(5) . . .
85(5) . . .
80(5) . . .
85(5) . . .
87(5) . . .
85(5) . . .
83(5) . . .
85(5) . . .
90(5) . . .
93(5) . . .
68(4) . . .
102(5) . . .
90(5) . . .
96(5) . . .
92(5) . . .
75(5) . . .
93(5) . . .
97(5) . . .
89(5) . . .
85(5) . . .
87(5) . . .
95(5) . . .
84(5) . . .
82(5) . . .
87(5) . . .
82(5) . . .
87(5) . . .
83(5) . . .
85(5) . . .
77(5) . . .
74(5) . . .
83(5) . . .
96(6) . . .
86(5) . . .
91(5) . . .
92(5) . . .
88(5) . . .
91(5) . . .
91(5) . . .
81(5) . . .
93(5) . . .
77(5) . . .
94(5) . . .
88(5) . . .
86(5) . . .
91(5) . . .
83(5) . . .
72(4) . . .
83(5) . . .
78(5) . . .
96(5) . . .
99(5) . . .
83(5) . . .
76(5) . . .
85(5) . . .
75(5) . . .
92(5) . . .
85(5) . . .
80(5) . . .
95(5) . . .
94(5) . . .
85(5) . . .
79(5) . . .
89(5) . . .
85(5) . . .
82(5) . . .
86(5) . . .
89(5) . . .
83(5) . . .
91(5) . . .
100(5) . . .
85(5) . . .
94(5) . . .
88(5) . . .
101(5) . . .
85(5) . . .
78(5) . . .
76(5) . . .
82(5) . . .
83(5) . . .
100(5) . . .
88(5) . . .
90(5) . . .
85(5) . . .
80(5) . . .
79(5) . . .
106(6) . . .
90(5) . . .
79(5) . . .
77(5) . . .
84(5) . . .
86(5) . . .
97(5) . . .
96(5) . . .
84(5) . . .
79(5) . . .
89(5) . . .
91(5) . . .
91(5) . . .
93(5) . . .
85(5) . . .
80(5) . . .
83(5) . . .
83(5) . . .
98(5) . . .
76(5) . . .
85(5) . . .
86(5) . . .
91(5) . . .
93(5) . . .
86(5) . . .
84(5) . . .
91(5) . . .
103(5) . . .
89(5) . . .
88(5) . . .
87(5) . . .
100(5) . . .
98(5) . . .
84(5) . . .
87(5) . . .
85(5) . . .
89(5) . . .
85(5) . . .
91(5) . . .
94(5) . . .
96(5) . . .
88(5) . . .
91(5) . . .
91(5) . . .
87(5) . . .
90(5) . . .
83(5) . . .
87(5) . . .
83(5) . . .
99(6) . . .
89(5) . . .
86(5) . . .
92(5) . . .
98(5) . . .
97(5) . . .
90(5) . . .
80(5) . . .
89(5) . . .
90(5) . . .
84(5) . . .
90(5) . . .
87(5) . . .
93(5) . . .
92(5) . . .
84(5) . . .
97(5) . . .
85(5) . . .
91(5) . . .
89(5) . . .
95(5) . . .
96(5) . . .
92(5) . . .
86(5) . . .
93(5) . . .
84(5) . . .
89(5) . . .
78(5) . . .
78(5) . . .
95(5) . . .
83(5) . . .
90(5) . . .
87(5) . . .
88(5) . . .
80(5) . . .
78(5) . . .
83(5) . . .
91(5) . . .
100(6) . . .
87(5) . . .
81(5) . . .
87(5) . . .
84(5) . . .
96(5) . . .
99(5) . . .
95(5) . . .
94(5) . . .
94(5) . . .
85(5) . . .
89(5) . . .
90(5) . . .
89(5) . . .
89(5) . . .
105(5) . . .
90(5) . . .
80(5) . . .
84(5) . . .
84(5) . . .
83(5) . . .
92(5) . . .
95(5) . . .
78(5) . . .
82(5) . . .
86(5) . . .
94(5) . . .
86(5) . . .
97(5) . . .
92(5) . . .
78(5) . . .
78(5) . . .
83(5) . . .
90(5) . . .
92(5) . . .
88(5) . . .
87(5) . . .
88(5) . . .
90(5) . . .
89(5) . . .
87(5) . . .
84(5) . . .
74(5) . . .
86(5) . . .
88(5) . . .
94(5) . . .
93(5) . . .
75(5) . . .
87(5) . . .
84(5) . . .
77(5) . . .
88(5) . . .
86(5) . . .
86(5) . . .
94(5) . . .
89(5) . . .
90(5) . . .
83(5) . . .
96(5) . . .
89(5) . . .
103(6) . . .
82(5) . . .
97(5) . . .
85(5) . . .
87(5) . . .
90(5) . . .
99(5) . . .
77(5) . . .
84(5) . . .
89(5) . . .
78(5) . . .
90(5) . . .
82(5) . . .
88(5) . . .
82(5) . . .
84(5) . . .
78(5) . . .
76(5) . . .
89(5) . . .
92(5) . . .
78(5) . . .
87(5) . . .
83(5) . . .
92(5) . . .
98(5) . . .
89(5) . . .
78(5) . . .
87(5) . . .
88(5) . . .
78(5) . . .
84(5) . . .
96(5) . . .
94(5) . . .
87(5) . . .
76(5) . . .
85(5) . . .
77(5) . . .
79(5) . . .
83(5) . . .
100(6) . . .
95(5) . . .
83(5) . . .
89(5) . . .
91(5) . . .
102(6) . . .
81(5) . . .
92(5) . . .
79(5) . . .
80(5) . . .
80(5) . . .
85(5) . . .
88(5) . . .
99(5) . . .
85(5) . . .
88(5) . . .
91(5) . . .
87(5) . . .
80(5) . . .
83(5) . . .
84(5) . . .
73(5) . . .
81(5) . . .
76(5) . . .
82(5) . . .
77(5) . . .
87(5) . . .
97(5) . . .
85(5) . . .
91(5) . . .
83(5) . . .
90(5) . . .
96(5) . . .
90(5) . . .
87(5) . . .
68(4) . . .
85(5) . . .
80(5) . . .
88(5) . . .
87(5) . . .
93(5) . . .
97(5) . . .
83(5) . . .
80(5) . . .
100(6) . . .
102(5) . . .
80(5) . . .
69(4) . . .
77(5) . . .
82(5) . . .
93(5) . . .
73(4) . . .
84(5) . . .
81(5) . . .
86(5) . . .
76(5) . . .
86(5) . . .
113(6) . . .
89(5) . . .
79(5) . . .
82(5) . . .
81(5) . . .
100(5) . . .
80(5) . . .
94(6) . . .
86(5) . . .
79(5) . . .
98(5) . . .
83(5) . . .
75(5) . . .
92(5) . . .
96(5) . . .
89(5) . . .
84(5) . . .
89(5) . . .
96(5) . . .
89(5) . . .
103(5) . . .
80(5) . . .
94(5) . . .
95(5) . . .
80(5) . . .
79(5) . . .
86(5) . . .
79(5) . . .
86(5) . . .
90(5) . . .
89(5) . . .
81(5) . . .
82(5) . . .
99(5) . . .
77(5) . . .
82(5) . . .
74(5) . . .
75(5) . . .
84(5) . . .
99(5) . . .
80(5) . . .
78(5) . . .
87(5) . . .
83(5) . . .
82(5) . . .
95(5) . . .
89(5) . . .
88(5) . . .
87(5) . . .
91(5) . . .
76(5) . . .
71(5) . . .
69(4) . . .
83(5) . . .
73(4) . . .
84(5) . . .
90(5) . . .
83(5) . . .
77(5) . . .
93(5) . . .
81(5) . . .
81(5) . . .
81(5) . . .
92(5) . . .
89(5) . . .
80(5) . . .
74(5) . . .
77(5) . . .
75(5) . . .
79(5) . . .
72(4) . . .
83(5) . . .
75(5) . . .
86(5) . . .
73(5) . . .
81(5) . . .
92(5) . . .
82(5) . . .
86(5) . . .
97(5) . . .
79(5) . . .
86(5) . . .
110(6) . . .
86(5) . . .
79(5) . . .
84(5) . . .
80(5) . . .
82(5) . . .
90(5) . . .
75(5) . . .
76(5) . . .
83(5) . . .
81(5) . . .
82(5) . . .
89(5) . . .
74(5) . . .
86(5) . . .
80(5) . . .
89(5) . . .
88(5) . . .
74(5) . . .
88(5) . . .
82(5) . . .
75(5) . . .
69(4) . . .
77(5) . . .
88(5) . . .
80(5) . . .
104(5) . . .
90(5) . . .
80(5) . . .
81(5) . . .
89(5) . . .
96(5) . . .
83(5) . . .
76(5) . . .
80(5) . . .
93(5) . . .
87(5) . . .
89(5) . . .
80(5) . . .
86(5) . . .
86(5) . . .
68(4) . . .
83(5) . . .
84(5) . . .
89(5) . . .
73(4) . . .
72(5) . . .
85(5) . . .
84(5) . . .
84(5) . . .
86(5) . . .
88(5) . . .
87(5) . . .
88(5) . . .
90(5) . . .
96(5) . . .
87(5) . . .
79(5) . . .
90(5) . . .
76(5) . . .
82(5) . . .
80(5) . . .
82(5) . . .
81(5) . . .
78(5) . . .
101(5) . . .
77(5) . . .
81(5) . . .
80(5) . . .
81(5) . . .
75(5) . . .
87(5) . . .
78(5) . . .
82(5) . . .
75(4) . . .
70(4) . . .
89(5) . . .
95(5) . . .
80(5) . . .
84(5) . . .
78(5) . . .
77(5) . . .
81(5) . . .
88(5) . . .
81(5) . . .
94(5) . . .
73(4) . . .
75(5) . . .
74(5) . . .
85(5) . . .
87(5) . . .
81(5) . . .
74(5) . . .
97(5) . . .
80(5) . . .
77(5) . . .
77(5) . . .
78(5) . . .
76(5) . . .
90(5) . . .
71(4) . . .
87(5) . . .
82(5) . . .
74(5) . . .
93(5) . . .
84(5) . . .
77(5) . . .
84(5) . . .
97(5) . . .
91(5) . . .
78(5) . . .
89(5) . . .
88(5) . . .
88(5) . . .
71(4) . . .
77(5) . . .
76(5) . . .
85(5) . . .
77(5) . . .
80(5) . . .
73(4) . . .
82(5) . . .
79(5) . . .
78(5) . . .
78(5) . . .
89(5) . . .
86(5) . . .
82(5) . . .
85(5) . . .
91(5) . . .
90(5) . . .
77(5) . . .
89(5) . . .
87(5) . . .
74(4) . . .
82(5) . . .
88(5) . . .
80(5) . . .
80(5) . . .
87(5) . . .
85(5) . . .
85(5) . . .
75(5) . . .
74(4) . . .
78(5) . . .
90(5) . . .
86(5) . . .
92(5) . . .
78(5) . . .
74(5) . . .
85(5) . . .
72(5) . . .
73(5) . . .
80(5) . . .
90(5) . . .
90(5) . . .
79(5) . . .
79(5) . . .
85(5) . . .
90(5) . . .
83(5) . . .
86(5) . . .
80(5) . . .
72(4) . . .
86(5) . . .
80(5) . . .
92(5) . . .
73(4) . . .
73(4) . . .
87(5) . . .
89(5) . . .
75(5) . . .
78(5) . . .
84(5) . . .
75(4) . . .
86(5) . . .
86(5) . . .
79(5) . . .
87(5) . . .
89(5) . . .
81(5) . . .
76(5) . . .
85(5) . . .
64(4) . . .
73(4) . . .
80(5) . . .
75(5) . . .
83(5) . . .
61(4) . . .
76(5) . . .
72(5) . . .
61(4) . . .
96(5) . . .
67(4) . . .
69(4) . . .
79(5) . . .
79(5) . . .
86(5) . . .
84(5) . . .
67(4) . . .
82(5) . . .
92(5) . . .
74(4) . . .
80(5) . . .
78(5) . . .
75(5) . . .
75(5) . . .
82(5) . . .
77(5) . . .
82(5) . . .
84(5) . . .
89(5) . . .
80(5) . . .
80(5) . . .
100(6) . . .
97(5) . . .
73(4) . . .
83(5) . . .
79(5) . . .
74(5) . . .
85(5) . . .
94(5) . . .
85(5) . . .
82(5) . . .
88(5) . . .
94(5) . . .
98(5) . . .
96(5) . . .
78(5) . . .
87(5) . . .
75(5) . . .
88(5) . . .
89(5) . . .
72(4) . . .
78(5) . . .
83(5) . . .
78(5) . . .
74(4) . . .
76(5) . . .
87(5) . . .
85(5) . . .
84(5) . . .
80(5) . . .
82(5) . . .
89(5) . . .
105(5) . . .
78(5) . . .
90(5) . . .
77(5) . . .
84(5) . . .
88(5) . . .
89(5) . . .
83(5) . . .
88(5) . . .
90(5) . . .
83(5) . . .
75(4) . . .
78(5) . . .
77(5) . . .
91(5) . . .
96(5) . . .
78(5) . . .
79(5) . . .
75(5) . . .
75(4) . . .
97(5) . . .
87(5) . . .
87(5) . . .
77(5) . . .
68(4) . . .
65(4) . . .
102(5) . . .
77(5) . . .
89(5) . . .
87(5) . . .
91(5) . . .
79(5) . . .
84(5) . . .
74(5) . . .
102(5) . . .
77(5) . . .
84(5) . . .
77(5) . . .
88(5) . . .
87(5) . . .
73(4) . . .
87(5) . . .
79(5) . . .
92(5) . . .
73(4) . . .
82(5) . . .
79(5) . . .
74(5) . . .
70(5) . . .
85(5) . . .
81(5) . . .
96(5) . . .
86(5) . . .
83(5) . . .
83(5) . . .
72(4) . . .
84(5) . . .
83(5) . . .
70(4) . . .
80(5) . . .
76(5) . . .
74(5) . . .
77(5) . . .
82(5) . . .
75(4) . . .
67(4) . . .
87(5) . . .
70(4) . . .
81(5) . . .
81(5) . . .
74(5) . . .
86(5) . . .
85(5) . . .
83(5) . . .
83(5) . . .
83(5) . . .
70(4) . . .
80(5) . . .
91(5) . . .
82(5) . . .
82(5) . . .
81(5) . . .
75(5) . . .
86(5) . . .
88(5) . . .
85(5) . . .
83(5) . . .
79(5) . . .
82(5) . . .
70(4) . . .
76(5) . . .
78(5) . . .
73(5) . . .
78(5) . . .
90(5) . . .
92(5) . . .
79(5) . . .
79(5) . . .
86(5) . . .
84(5) . . .
87(5) . . .
76(5) . . .
63(4) . . .
89(5) . . .
70(4) . . .
85(5) . . .
86(5) . . .
85(5) . . .
84(5) . . .
87(5) . . .
68(4) . . .
83(5) . . .
85(5) . . .
77(5) . . .
106(5) . . .
80(5) . . .
75(5) . . .
76(5) . . .
79(5) . . .
73(4) . . .
68(4) . . .
92(5) . . .
78(5) . . .
101(5) . . .
84(5) . . .
102(5) . . .
69(5) . . .
71(4) . . .
81(5) . . .
84(5) . . .
83(5) . . .
91(5) . . .
92(5) . . .
80(5) . . .
75(5) . . .
85(5) . . .
92(5) . . .
87(5) . . .
85(5) . . .
88(5) . . .
83(5) . . .
83(5) . . .
77(5) . . .
77(5) . . .
81(5) . . .
82(5) . . .
87(5) . . .
85(5) . . .
77(5) . . .
75(4) . . .
87(5) . . .
86(5) . . .
77(5) . . .
80(5) . . .
71(5) . . .
83(5) . . .
72(5) . . .
87(5) . . .
96(5) . . .
87(5) . . .
83(5) . . .
79(5) . . .
73(5) . . .
81(5) . . .
75(5) . . .
84(5) . . .
87(5) . . .
83(5) . . .
74(4) . . .
86(5) . . .
88(5) . . .
88(5) . . .
80(5) . . .
92(5) . . .
79(5) . . .
73(5) . . .
94(5) . . .
75(5) . . .
76(4) . . .
60(4) . . .
85(5) . . .
88(5) . . .
86(5) . . .
81(5) . . .
88(5) . . .
64(4) . . .
75(5) . . .
71(4) . . .
87(5) . . .
84(5) . . .
77(5) . . .
62(4) . . .
92(5) . . .
77(5) . . .
80(5) . . .
82(5) . . .
76(5) . . .
77(5) . . .
96(5) . . .
92(5) . . .
88(5) . . .
89(5) . . .
74(4) . . .
89(5) . . .
77(5) . . .
80(5) . . .
86(5) . . .
73(4) . . .
88(5) . . .
71(4) . . .
82(5) . . .
86(5) . . .
89(5) . . .
78(5) . . .
88(5) . . .
92(5) . . .
74(5) . . .
83(5) . . .
78(5) . . .
72(5) . . .
73(5) . . .
75(5) . . .
78(5) . . .
75(5) . . .
75(5) . . .
71(4) . . .
78(5) . . .
73(5) . . .
68(4) . . .
72(5) . . .
67(4) . . .
84(5) . . .
84(5) . . .
79(5) . . .
75(5) . . .
71(5) . . .
79(5) . . .
78(5) . . .
76(5) . . .
79(5) . . .
84(5) . . .
83(5) . . .
80(5) . . .
83(5) . . .
74(5) . . .
70(4) . . .
65(4) . . .
78(5) . . .
85(5) . . .
86(5) . . .
79(5) . . .
77(5) . . .
71(5) . . .
83(5) . . .
91(5) . . .
94(5) . . .
95(5) . . .
76(5) . . .
87(5) . . .
91(5) . . .
82(5) . . .
72(4) . . .
71(4) . . .
90(5) . . .
90(5) . . .
83(5) . . .
74(4) . . .
71(4) . . .
74(5) . . .
77(5) . . .
80(5) . . .
91(5) . . .
88(5) . . .
71(4) . . .
90(5) . . .
77(5) . . .
80(5) . . .
86(5) . . .
70(5) . . .
83(5) . . .
91(5) . . .
88(5) . . .
85(5) . . .
79(5) . . .
80(5) . . .
78(5) . . .
80(5) . . .
80(5) . . .
76(5) . . .
78(5) . . .
79(5) . . .
78(5) . . .
87(5) . . .
76(5) . . .
89(5) . . .
85(5) . . .
78(5) . . .
87(5) . . .
85(5) . . .
83(5) . . .
83(5) . . .
80(5) . . .
82(5) . . .
79(5) . . .
76(5) . . .
86(5) . . .
79(5) . . .
64(4) . . .
93(5) . . .
77(5) . . .
75(4) . . .
86(5) . . .
74(5) . . .
78(5) . . .
72(5) . . .
94(5) . . .
87(5) . . .
77(5) . . .
71(5) . . .
69(4) . . .
84(5) . . .
75(5) . . .
84(5) . . .
78(5) . . .
74(4) . . .
71(4) . . .
81(5) . . .
76(5) . . .
74(4) . . .
85(5) . . .
86(5) . . .
81(5) . . .
77(5) . . .
72(4) . . .
85(5) . . .
70(4) . . .
72(5) . . .
79(5) . . .
79(5) . . .
80(5) . . .
80(5) . . .
78(5) . . .
82(5) . . .
78(5) . . .
84(5) . . .
90(5) . . .
91(5) . . .
79(5) . . .
83(5) . . .
78(5) . . .
72(4) . . .
77(5) . . .
72(5) . . .
83(5) . . .
73(4) . . .
74(5) . . .
80(5) . . .
91(5) . . .
87(5) . . .
81(5) . . .
65(4) . . .
81(5) . . .
80(5) . . .
78(5) . . .
71(4) . . .
76(5) . . .
76(5) . . .
73(5) . . .
90(5) . . .
87(5) . . .
87(5) . . .
78(5) . . .
81(5) . . .
80(5) . . .
77(4) . . .
88(5) . . .
87(5) . . .
78(5) . . .
90(5) . . .
99(5) . . .
70(4) . . .
82(5) . . .
82(5) . . .
81(5) . . .
77(5) . . .
80(5) . . .
87(5) . . .
72(4) . . .
91(5) . . .
95(5) . . .
80(5) . . .
82(5) . . .
81(5) . . .
79(5) . . .
78(5) . . .
80(5) . . .
85(5) . . .
92(5) . . .
80(5) . . .
82(5) . . .
90(5) . . .
89(5) . . .
87(5) . . .
85(5) . . .
86(5) . . .
83(5) . . .
74(5) . . .
76(5) . . .
73(4) . . .
87(5) . . .
84(5) . . .
84(5) . . .
70(4) . . .
80(5) . . .
86(5) . . .
78(5) . . .
88(5) . . .
78(5) . . .
79(5) . . .
84(5) . . .
86(5) . . .
80(5) . . .
82(5) . . .
75(5) . . .
87(5) . . .
80(5) . . .
84(5) . . .
66(4) . . .
65(4) . . .
74(5) . . .
82(5) . . .
83(5) . . .
89(5) . . .
80(5) . . .
83(5) . . .
75(5) . . .
81(5) . . .
69(4) . . .
78(5) . . .
75(5) . . .
78(5) . . .
86(5) . . .
81(5) . . .
86(5) . . .
78(5) . . .
81(5) . . .
78(5) . . .
75(4) . . .
81(5) . . .
76(5) . . .
81(5) . . .
82(5) . . .
75(5) . . .
85(5) . . .
77(5) . . .
71(5) . . .
79(5) . . .
80(5) . . .
76(5) . . .
75(5) . . .
82(5) . . .
84(5) . . .
81(5) . . .
89(5) . . .
83(5) . . .
72(5) . . .
73(5) . . .
70(4) . . .
77(5) . . .
77(5) . . .
84(5) . . .
71(4) . . .
72(4) . . .
77(5) . . .
70(4) . . .
74(5) . . .
79(5) . . .
86(5) . . .
91(5) . . .
79(5) . . .
78(5) . . .
72(4) . . .
69(4) . . .
77(5) . . .
85(5) . . .
83(5) . . .
62(4) . . .
63(4) . . .
67(4) . . .
78(5) . . .
75(5) . . .
73(4) . . .
77(5) . . .
80(5) . . .
82(5) . . .
77(5) . . .
76(5) . . .
79(5) . . .
86(5) . . .
74(5) . . .
78(5) . . .
83(5) . . .
79(5) . . .
82(5) . . .
78(5) . . .
78(5) . . .
70(4) . . .
79(5) . . .
86(5) . . .
71(5) . . .
74(5) . . .
83(5) . . .
91(5) . . .
85(5) . . .
95(5) . . .
74(5) . . .
85(5) . . .
79(5) . . .
81(5) . . .
76(5) . . .
71(4) . . .
63(4) . . .
73(5) . . .
83(5) . . .
93(5) . . .
83(5) . . .
81(5) . . .
79(5) . . .
77(5) . . .
73(4) . . .
72(4) . . .
78(5) . . .
77(5) . . .
76(5) . . .
84(5) . . .
81(5) . . .
73(4) . . .
79(5) . . .
75(5) . . .
69(5) . . .
91(5) . . .
87(5) . . .
83(5) . . .
85(5) . . .
77(5) . . .
73(4) . . .
80(5) . . .
64(4) . . .
59(4) . . .
77(5) . . .
89(5) . . .
90(5) . . .
76(5) . . .
73(5) . . .
75(5) . . .
80(5) . . .
76(5) . . .
74(5) . . .
78(5) . . .
75(5) . . .
74(4) . . .
75(5) . . .
85(5) . . .
82(5) . . .
86(5) . . .
84(5) . . .
77(5) . . .
74(5) . . .
65(4) . . .
69(4) . . .
82(5) . . .
81(5) . . .
77(5) . . .
70(5) . . .
74(5) . . .
71(4) . . .
78(5) . . .
83(5) . . .
70(4) . . .
80(5) . . .
71(4) . . .
76(5) . . .
66(4) . . .
72(4) . . .
74(5) . . .
71(4) . . .
80(5) . . .
74(5) . . .
79(5) . . .
72(4) . . .
75(4) . . .
72(5) . . .
76(5) . . .
86(5) . . .
74(4) . . .
74(4) . . .
88(5) . . .
87(5) . . .
80(5) . . .
84(5) . . .
83(5) . . .
63(4) . . .
84(5) . . .
79(5) . . .
82(5) . . .
67(4) . . .
83(5) . . .
89(5) . . .
77(5) . . .
73(4) . . .
81(5) . . .
71(4) . . .
85(5) . . .
71(4) . . .
68(4) . . .
67(4) . . .
71(5) . . .
74(5) . . .
64(4) . . .
70(4) . . .
69(4) . . .
83(5) . . .
76(5) . . .
73(4) . . .
74(4) . . .
78(5) . . .
82(5) . . .
74(5) . . .
77(5) . . .
82(5) . . .
78(5) . . .
83(5) . . .
88(5) . . .
73(4) . . .
80(5) . . .
70(4) . . .
77(5) . . .
78(5) . . .
68(4) . . .
73(4) . . .
76(5) . . .
80(5) . . .
80(5) . . .
78(5) . . .
75(5) . . .
73(5) . . .
75(5) . . .
83(5) . . .
82(5) . . .
76(5) . . .
75(5) . . .
83(5) . . .
80(5) . . .
77(5) . . .
69(4) . . .
68(4) . . .
85(5) . . .
87(5) . . .
78(5) . . .
79(5) . . .
75(5) . . .
61(4) . . .
72(5) . . .
77(5) . . .
85(5) . . .
71(5) . . .
67(4) . . .
80(5) . . .
70(4) . . .
86(5) . . .
73(5) . . .
69(4) . . .
62(4) . . .
71(4) . . .
72(5) . . .
79(5) . . .
83(5) . . .
76(4) . . .
80(5) . . .
75(5) . . .
69(5) . . .
70(4) . . .
80(5) . . .
73(4) . . .
82(5) . . .
77(5) . . .
71(4) . . .
73(4) . . .
86(5) . . .
79(5) . . .
84(5) . . .
70(4) . . .
78(5) . . .
84(5) . . .
79(5) . . .
70(5) . . .
86(5) . . .
74(4) . . .
84(5) . . .
88(6) . . .
77(5) . . .
82(5) . . .
97(5) . . .
79(5) . . .
70(4) . . .
69(5) . . .
81(5) . . .
83(5) . . .
68(5) . . .
75(5) . . .
80(5) . . .
79(5) . . .
71(4) . . .
62(4) . . .
80(5) . . .
86(5) . . .
79(5) . . .
80(5) . . .
67(5) . . .
81(5) . . .
88(5) . . .
71(4) . . .
75(5) . . .
68(5) . . .
80(5) . . .
64(4) . . .
76(5) . . .
65(4) . . .
74(5) . . .
86(5) . . .
88(5) . . .
86(5) . . .
73(4) . . .
74(5) . . .
80(5) . . .
83(5) . . .
75(5) . . .
71(4) . . .
75(5) . . .
78(5) . . .
76(5) . . .
72(5) . . .
77(5) . . .
80(5) . . .
75(5) . . .
85(5) . . .
85(5) . . .
75(5) . . .
83(5) . . .
74(5) . . .
74(5) . . .
72(5) . . .
83(5) . . .
81(5) . . .
91(5) . . .
77(5) . . .
81(5) . . .
76(5) . . .
70(5) . . .
76(5) . . .
83(5) . . .
88(5) . . .
71(4) . . .
77(5) . . .
82(5) . . .
75(5) . . .
72(4) . . .
84(5) . . .
79(5) . . .
66(4) . . .
78(5) . . .
80(5) . . .
85(5) . . .
76(5) . . .
73(5) . . .
78(5) . . .
93(5) . . .
91(5) . . .
77(5) . . .
74(5) . . .
81(5) . . .
87(5) . . .
73(5) . . .
78(5) . . .
84(5) . . .
76(4) . . .
75(5) . . .
84(5) . . .
82(5) . . .
76(5) . . .
81(5) . . .
85(5) . . .
74(5) . . .
80(5) . . .
77(5) . . .
73(4) . . .
78(5) . . .
74(5) . . .
80(5) . . .
80(5) . . .
87(5) . . .
80(5) . . .
73(5) . . .
77(5) . . .
80(5) . . .
70(4) . . .
82(5) . . .
82(5) . . .
74(5) . . .
77(5) . . .
84(5) . . .
85(5) . . .
76(5) . . .
93(5) . . .
75(5) . . .
75(5) . . .
79(5) . . .
81(5) . . .
71(5) . . .
71(4) . . .
82(5) . . .
80(5) . . .
76(5) . . .
83(5) . . .
87(5) . . .
83(5) . . .
71(4) . . .
85(5) . . .
79(5) . . .
90(5) . . .
89(5) . . .
90(5) . . .
92(5) . . .
91(5) . . .
82(5) . . .
75(4) . . .
72(5) . . .
67(5) . . .
67(4) . . .
72(4) . . .
68(4) . . .
88(5) . . .
75(5) . . .
74(5) . . .
85(5) . . .
68(4) . . .
72(5) . . .
78(5) . . .
81(5) . . .
81(5) . . .
82(5) . . .
79(5) . . .
83(5) . . .
78(5) . . .
86(5) . . .
73(5) . . .
78(5) . . .
75(5) . . .
81(5) . . .
71(4) . . .
83(5) . . .
70(5) . . .
67(4) . . .
71(5) . . .
74(4) . . .
73(5) . . .
84(5) . . .
78(5) . . .
78(5) . . .
73(4) . . .
67(4) . . .
81(5) . . .
75(5) . . .
76(5) . . .
68(4) . . .
79(5) . . .
74(5) . . .
75(5) . . .
72(4) . . .
76(5) . . .
70(5) . . .
73(5) . . .
69(4) . . .
81(5) . . .
81(5) . . .
80(5) . . .
72(5) . . .
78(5) . . .
81(5) . . .
66(4) . . .
72(4) . . .
83(5) . . .
72(4) . . .
81(5) . . .
91(5) . . .
69(4) . . .
68(5) . . .
69(5) . . .
85(5) . . .
71(4) . . .
80(5) . . .
76(5) . . .
70(4) . . .
73(4) . . .
75(5) . . .
76(5) . . .
75(5) . . .
71(5) . . .
73(4) . . .
73(5) . . .
74(5) . . .
78(5) . . .
68(4) . . .
82(5) . . .
73(4) . . .
81(5) . . .
83(5) . . .
84(5) . . .
75(4) . . .
68(4) . . .
76(5) . . .
67(4) . . .
78(5) . . .
77(5) . . .
63(4) . . .
74(5) . . .
73(5) . . .
71(4) . . .
76(5) . . .
74(5) . . .
80(5) . . .
76(5) . . .
67(4) . . .
75(5) . . .
81(5) . . .
72(4) . . .
84(5) . . .
81(5) . . .
70(4) . . .
72(5) . . .
74(5) . . .
82(5) . . .
70(4) . . .
84(5) . . .
74(5) . . .
74(5) . . .
77(5) . . .
83(5) . . .
75(5) . . .
76(5) . . .
71(5) . . .
75(5) . . .
86(5) . . .
77(5) . . .
78(5) . . .
75(5) . . .
74(5) . . .
79(5) . . .
77(5) . . .
85(5) . . .
80(5) . . .
86(5) . . .
81(5) . . .
80(5) . . .
69(4) . . .
74(5) . . .
80(5) . . .
69(4) . . .
67(4) . . .
76(5) . . .
73(4) . . .
71(4) . . .
62(4) . . .
77(5) . . .
80(5) . . .
87(5) . . .
82(5) . . .
78(5) . . .
84(5) . . .
82(5) . . .
77(5) . . .
88(5) . . .
81(5) . . .
72(4) . . .
85(5) . . .
79(5) . . .
73(4) . . .
66(4) . . .
77(5) . . .
73(5) . . .
81(5) . . .
73(4) . . .
74(4) . . .
75(5) . . .
72(5) . . .
74(5) . . .
77(5) . . .
70(4) . . .
73(5) . . .
84(5) . . .
76(5) . . .
71(4) . . .
75(4) . . .
69(4) . . .
81(5) . . .
77(5) . . .
69(4) . . .
72(4) . . .
71(5) . . .
73(5) . . .
79(5) . . .
75(5) . . .
83(5) . . .
82(5) . . .
76(5) . . .
77(5) . . .
69(4) . . .
68(4) . . .
75(5) . . .
73(5) . . .
65(4) . . .
75(5) . . .
78(5) . . .
78(5) . . .
68(4) . . .
65(4) . . .
73(4) . . .
81(5) . . .
78(5) . . .
88(5) . . .
87(5) . . .
64(4) . . .
57(4) . . .
83(5) . . .
78(5) . . .
70(4) . . .
85(5) . . .
79(5) . . .
75(5) . . .
67(4) . . .
72(4) . . .
86(5) . . .
81(5) . . .
80(5) . . .
83(5) . . .
70(4) . . .
72(4) . . .
68(5) . . .
80(5) . . .
76(5) . . .
74(4) . . .
76(5) . . .
68(4) . . .
72(5) . . .
78(5) . . .
80(5) . . .
81(5) . . .
64(4) . . .
71(5) . . .
78(5) . . .
83(5) . . .
77(5) . . .
80(5) . . .
81(5) . . .
69(4) . . .
82(5) . . .
80(5) . . .
87(5) . . .
75(5) . . .
70(4) . . .
86(5) . . .
87(5) . . .
74(5) . . .
73(5) . . .
78(5) . . .
73(4) . . .
77(5) . . .
70(5) . . .
78(5) . . .
74(5) . . .
83(5) . . .
73(4) . . .
70(5) . . .
64(4) . . .
61(4) . . .
69(4) . . .
64(4) . . .
78(5) . . .
75(5) . . .
75(4) . . .
76(5) . . .
71(5) . . .
87(5) . . .
70(4) . . .
72(4) . . .
74(5) . . .
80(5) . . .
72(5) . . .
70(4) . . .
74(4) . . .
78(5) . . .
69(4) . . .
69(4) . . .
67(5) . . .
75(4) . . .
91(5) . . .
89(5) . . .
77(5) . . .
71(4) . . .
69(4) . . .
63(4) . . .
69(5) . . .
86(5) . . .
72(5) . . .
75(5) . . .
73(4) . . .
82(5) . . .
70(5) . . .
70(5) . . .
61(4) . . .
81(5) . . .
73(5) . . .
82(5) . . .
76(5) . . .
93(5) . . .
80(5) . . .
77(5) . . .
78(5) . . .
68(4) . . .
80(5) . . .
75(5) . . .
85(5) . . .
83(5) . . .
75(5) . . .
83(5) . . .
77(5) . . .
76(5) . . .
82(5) . . .
80(5) . . .
78(5) . . .
73(4) . . .
69(5) . . .
77(5) . . .
89(5) . . .
85(5) . . .
71(5) . . .
81(5) . . .
72(4) . . .
78(5) . . .
81(5) . . .
76(5) . . .
82(5) . . .
77(5) . . .
75(5) . . .
76(5) . . .
65(4) . . .
69(5) . . .
65(4) . . .
70(4) . . .
77(5) . . .
73(5) . . .
72(5) . . .
85(5) . . .
76(5) . . .
77(5) . . .
76(5) . . .
81(5) . . .
78(5) . . .
68(4) . . .
77(5) . . .
81(5) . . .
75(5) . . .
68(4) . . .
78(5) . . .
71(4) . . .
78(5) . . .
67(4) . . .
76(5) . . .
81(5) . . .
74(4) . . .
84(5) . . .
73(5) . . .
78(5) . . .
84(5) . . .
76(5) . . .
76(5) . . .
67(4) . . .
85(5) . . .
62(4) . . .
77(5) . . .
79(5) . . .
77(5) . . .
73(4) . . .
88(5) . . .
72(5) . . .
77(5) . . .
68(5) . . .
70(4) . . .
82(5) . . .
76(5) . . .
74(5) . . .
80(5) . . .
81(5) . . .
69(4) . . .
69(4) . . .
64(4) . . .
70(4) . . .
81(5) . . .
79(5) . . .
74(5) . . .
66(4) . . .
69(4) . . .
70(4) . . .
78(5) . . .
73(5) . . .
71(5) . . .
85(5) . . .
87(5) . . .
72(4) . . .
70(4) . . .
75(5) . . .
65(4) . . .
80(5) . . .
78(5) . . .
72(5) . . .
66(4) . . .
75(4) . . .
85(5) . . .
69(4) . . .
60(4) . . .
70(5) . . .
82(5) . . .
77(4) . . .
66(4) . . .
85(5) . . .
76(5) . . .
84(5) . . .
80(5) . . .
83(5) . . .
71(5) . . .
78(5) . . .
77(5) . . .
66(4) . . .
72(4) . . .
82(5) . . .
66(4) . . .
72(4) . . .
84(5) . . .
82(5) . . .
76(5) . . .
74(5) . . .
83(5) . . .
64(4) . . .
75(5) . . .
74(5) . . .
61(4) . . .
70(4) . . .
80(5) . . .
68(4) . . .
80(5) . . .
79(5) . . .
77(5) . . .
77(5) . . .
80(5) . . .
70(5) . . .
71(4) . . .
66(4) . . .
84(5) . . .
77(5) . . .
67(4) . . .
76(5) . . .
78(5) . . .
71(4) . . .
68(4) . . .
74(5) . . .
70(4) . . .
75(5) . . .
79(5) . . .
86(5) . . .
84(5) . . .
65(4) . . .
74(5) . . .
76(5) . . .
65(4) . . .
68(4) . . .
68(4) . . .
81(5) . . .
79(5) . . .
90(5) . . .
65(4) . . .
66(4) . . .
81(5) . . .
80(5) . . .
86(5) . . .
69(4) . . .
64(4) . . .
77(5) . . .
82(5) . . .
74(5) . . .
86(5) . . .
71(4) . . .
75(5) . . .
79(5) . . .
82(5) . . .
78(5) . . .
71(4) . . .
72(4) . . .
68(4) . . .
78(5) . . .
75(5) . . .
72(4) . . .
67(4) . . .
73(5) . . .
74(5) . . .
69(4) . . .
64(4) . . .
78(5) . . .
67(4) . . .
68(4) . . .
75(4) . . .
76(5) . . .
68(4) . . .
72(5) . . .
76(5) . . .
77(5) . . .
73(4) . . .
63(4) . . .
75(5) . . .
69(5) . . .
64(4) . . .
69(4) . . .
68(5) . . .
84(5) . . .
76(5) . . .
74(4) . . .
85(5) . . .
85(5) . . .
73(5) . . .
73(5) . . .
80(5) . . .
85(5) . . .
81(5) . . .
79(5) . . .
75(5) . . .
73(4) . . .
69(4) . . .
78(5) . . .
68(5) . . .
81(5) . . .
65(4) . . .
81(5) . . .
80(5) . . .
69(4) . . .
78(5) . . .
70(4) . . .
71(5) . . .
75(5) . . .
70(5) . . .
69(4) . . .
80(5) . . .
81(5) . . .
84(5) . . .
73(5) . . .
80(5) . . .
79(5) . . .
71(4) . . .
70(4) . . .
66(4) . . .
71(4) . . .
79(5) . . .
67(4) . . .
73(5) . . .
84(5) . . .
77(5) . . .
62(4) . . .
70(5) . . .
72(5) . . .
66(4) . . .
84(5) . . .
71(4) . . .
75(5) . . .
84(5) . . .
57(4) . . .
75(5) . . .
82(5) . . .
70(4) . . .
71(5) . . .
80(5) . . .
73(4) . . .
67(4) . . .
84(5) . . .
74(5) . . .
65(4) . . .
71(5) . . .
73(5) . . .
70(4) . . .
82(5) . . .
75(5) . . .
74(4) . . .
79(5) . . .
69(5) . . .
70(5) . . .
79(5) . . .
83(5) . . .
69(4) . . .
72(4) . . .
67(4) . . .
65(4) . . .
81(5) . . .
71(4) . . .
67(4) . . .
67(4) . . .
77(5) . . .
73(4) . . .
72(4) . . .
82(5) . . .
68(4) . . .
83(5) . . .
80(5) . . .
70(5) . . .
88(5) . . .
78(5) . . .
90(5) . . .
83(5) . . .
71(4) . . .
75(5) . . .
76(5) . . .
71(4) . . .
78(5) . . .
67(4) . . .
72(5) . . .
81(5) . . .
69(4) . . .
75(5) . . .
77(5) . . .
80(5) . . .
72(5) . . .
74(5) . . .
78(5) . . .
74(5) . . .
70(5) . . .
77(5) . . .
88(5) . . .
68(4) . . .
65(4) . . .
70(5) . . .
71(4) . . .
74(4) . . .
58(4) . . .
73(5) . . .
77(5) . . .
75(5) . . .
73(4) . . .
81(5) . . .
74(5) . . .
78(5) . . .
71(5) . . .
82(5) . . .
61(4) . . .
84(5) . . .
72(5) . . .
75(5) . . .
69(4) . . .
69(4) . . .
74(5) . . .
69(5) . . .
63(4) . . .
74(4) . . .
77(5) . . .
73(5) . . .
70(4) . . .
76(5) . . .
74(4) . . .
71(4) . . .
82(5) . . .
75(5) . . .
74(4) . . .
81(5) . . .
72(5) . . .
75(5) . . .
73(5) . . .
65(4) . . .
65(4) . . .
73(4) . . .
79(5) . . .
73(4) . . .
89(5) . . .
73(4) . . .
74(5) . . .
76(5) . . .
73(4) . . .
74(4) . . .
78(5) . . .
80(5) . . .
76(5) . . .
60(4) . . .
77(5) . . .
73(4) . . .
62(4) . . .
77(5) . . .
77(5) . . .
69(4) . . .
66(4) . . .
65(4) . . .
76(5) . . .
69(5) . . .
80(5) . . .
82(5) . . .
74(5) . . .
61(4) . . .
72(5) . . .
69(4) . . .
66(4) . . .
63(4) . . .
65(5) . . .
75(5) . . .
84(5) . . .
82(5) . . .
89(5) . . .
87(5) . . .
85(5) . . .
75(4) . . .
83(5) . . .
75(5) . . .
79(5) . . .
82(5) . . .
77(5) . . .
90(5) . . .
72(5) . . .
61(4) . . .
76(5) . . .
76(5) . . .
73(5) . . .
73(5) . . .
68(4) . . .
77(5) . . .
69(4) . . .
66(5) . . .
63(4) . . .
72(4) . . .
87(5) . . .
72(4) . . .
78(5) . . .
82(5) . . .
88(5) . . .
73(4) . . .
65(4) . . .
66(4) . . .
72(5) . . .
73(4) . . .
64(4) . . .
59(4) . . .
78(5) . . .
69(5) . . .
75(5) . . .
77(5) . . .
67(4) . . .
66(4) . . .
86(5) . . .
67(4) . . .
80(5) . . .
73(5) . . .
70(5) . . .
64(4) . . .
74(5) . . .
64(4) . . .
74(5) . . .
77(5) . . .
70(4) . . .
72(5) . . .
74(4) . . .
65(4) . . .
68(4) . . .
79(5) . . .
74(5) . . .
69(4) . . .
69(4) . . .
77(5) . . .
68(4) . . .
76(5) . . .
75(4) . . .
73(5) . . .
84(5) . . .
77(5) . . .
75(5) . . .
75(4) . . .
80(5) . . .
68(5) . . .
70(5) . . .
79(5) . . .
78(5) . . .
80(5) . . .
78(5) . . .
86(5) . . .
81(5) . . .
60(4) . . .
78(5) . . .
76(5) . . .
70(4) . . .
66(4) . . .
63(4) . . .
60(4) . . .
81(5) . . .
72(5) . . .
72(4) . . .
75(5) . . .
71(4) . . .
69(4) . . .
82(5) . . .
72(4) . . .
69(4) . . .
65(4) . . .
70(4) . . .
87(5) . . .
66(4) . . .
62(4) . . .
78(5) . . .
78(5) . . .
82(5) . . .
72(4) . . .
64(4) . . .
68(5) . . .
73(5) . . .
67(4) . . .
69(4) . . .
68(4) . . .
67(5) . . .
61(4) . . .
75(5) . . .
69(4) . . .
77(5) . . .
78(5) . . .
75(5) . . .
71(4) . . .
76(5) . . .
74(5) . . .
71(5) . . .
67(4) . . .
69(4) . . .
70(4) . . .
71(4) . . .
71(5) . . .
83(5) . . .
73(4) . . .
84(5) . . .
77(5) . . .
83(5) . . .
69(4) . . .
63(4) . . .
62(4) . . .
75(5) . . .
78(5) . . .
73(5) . . .
69(4) . . .
70(4) . . .
73(4) . . .
70(5) . . .
64(4) . . .
72(4) . . .
91(5) . . .
66(4) . . .
82(5) . . .
78(5) . . .
74(4) . . .
80(5) . . .
80(5) . . .
72(5) . . .
80(5) . . .
75(4) . . .
67(4) . . .
81(5) . . .
69(4) . . .
78(5) . . .
65(4) . . .
68(4) . . .
73(5) . . .
85(5) . . .
72(4) . . .
67(4) . . .
66(4) . . .
67(4) . . .
73(4) . . .
71(4) . . .
78(5) . . .
67(4) . . .
63(4) . . .
77(5) . . .
72(4) . . .
73(5) . . .
60(4) . . .
68(5) . . .
75(5) . . .
70(4) . . .
71(4) . . .
70(4) . . .
76(5) . . .
71(4) . . .
70(4) . . .
68(4) . . .
78(5) . . .
72(5) . . .
75(5) . . .
73(5) . . .
68(4) . . .
74(5) . . .
66(4) . . .
75(5) . . .
69(4) . . .
76(5) . . .
75(5) . . .
77(5) . . .
71(4) . . .
79(5) . . .
75(5) . . .
67(4) . . .
69(4) . . .
81(5) . . .
67(4) . . .
73(4) . . .
81(5) . . .
82(5) . . .
58(4) . . .
71(4) . . .
77(5) . . .
67(5) . . .
80(5) . . .
67(4) . . .
75(5) . . .
70(5) . . .
67(4) . . .
82(5) . . .
59(4) . . .
65(4) . . .
82(5) . . .
69(4) . . .
87(5) . . .
84(5) . . .
69(4) . . .
70(4) . . .
66(4) . . .
79(5) . . .
85(5) . . .
83(5) . . .
88(5) . . .
80(5) . . .
69(5) . . .
57(4) . . .
79(5) . . .
80(5) . . .
70(5) . . .
61(4) . . .
68(4) . . .
70(4) . . .
74(5) . . .
62(4) . . .
71(4) . . .
80(5) . . .
71(4) . . .
82(5) . . .
75(5) . . .
89(5) . . .
78(5) . . .
73(4) . . .
77(5) . . .
65(4) . . .
75(5) . . .
68(4) . . .
71(4) . . .
80(5) . . .
74(5) . . .
81(5) . . .
76(4) . . .
69(4) . . .
68(5) . . .
69(5) . . .
78(5) . . .
81(5) . . .
81(5) . . .
78(5) . . .
70(5) . . .
65(4) . . .
77(5) . . .
73(5) . . .
71(5) . . .
71(5) . . .
59(4) . . .
67(4) . . .
76(5) . . .
69(4) . . .
74(5) . . .
79(5) . . .
71(4) . . .
84(5) . . .
77(5) . . .
66(4) . . .
73(4) . . .
83(5) . . .
66(4) . . .
64(5) . . .
71(5) . . .
81(5) . . .
83(5) . . .
62(4) . . .
71(5) . . .
80(5) . . .
81(5) . . .
74(5) . . .
67(4) . . .
64(4) . . .
70(5) . . .
84(5) . . .
78(5) . . .
77(5) . . .
79(5) . . .
76(5) . . .
63(4) . . .
56(4) . . .
68(5) . . .
63(4) . . .
79(5) . . .
77(5) . . .
59(4) . . .
64(4) . . .
70(5) . . .
71(4) . . .
67(4) . . .
68(4) . . .
73(5) . . .
77(5) . . .
62(4) . . .
72(4) . . .
73(5) . . .
72(5) . . .
68(5) . . .
58(4) . . .
78(5) . . .
58(4) . . .
73(5) . . .
75(5) . . .
67(4) . . .
66(4) . . .
60(4) . . .
61(4) . . .
78(5) . . .
74(5) . . .
72(5) . . .
77(5) . . .
86(5) . . .
75(5) . . .
74(4) . . .
74(4) . . .
72(5) . . .
72(5) . . .
74(5) . . .
74(5) . . .
72(4) . . .
64(4) . . .
66(4) . . .
68(4) . . .
73(4) . . .
68(4) . . .
70(4) . . .
81(5) . . .
68(5) . . .
67(4) . . .
72(4) . . .
57(4) . . .
69(5) . . .
62(4) . . .
68(4) . . .
59(4) . . .
72(5) . . .
75(5) . . .
71(4) . . .
80(5) . . .
68(4) . . .
72(5) . . .
67(4) . . .
65(4) . . .
74(5) . . .
73(5) . . .
77(5) . . .
76(5) . . .
78(5) . . .
71(4) . . .
74(5) . . .
68(5) . . .
76(5) . . .
71(4) . . .
75(4) . . .
76(5) . . .
74(5) . . .
70(5) . . .
74(4) . . .
66(4) . . .
71(4) . . .
82(5) . . .
67(4) . . .
77(5) . . .
89(5) . . .
89(5) . . .
77(5) . . .
82(5) . . .
73(4) . . .
74(4) . . .
73(5) . . .
68(4) . . .
66(4) . . .
73(4) . . .
63(4) . . .
75(5) . . .
70(5) . . .
72(5) . . .
77(5) . . .
71(4) . . .
72(5) . . .
73(5) . . .
61(4) . . .
90(5) . . .
82(5) . . .
64(4) . . .
65(4) . . .
77(5) . . .
77(5) . . .
76(5) . . .
69(5) . . .
69(5) . . .
73(5) . . .
70(4) . . .
68(4) . . .
76(5) . . .
91(5) . . .
66(4) . . .
73(4) . . .
77(5) . . .
64(4) . . .
71(5) . . .
69(4) . . .
79(5) . . .
81(5) . . .
68(4) . . .
64(4) . . .
68(4) . . .
69(4) . . .
71(5) . . .
76(5) . . .
70(4) . . .
72(4) . . .
75(5) . . .
65(4) . . .
67(5) . . .
74(5) . . .
72(4) . . .
72(4) . . .
67(4) . . .
62(4) . . .
69(4) . . .
66(4) . . .
77(5) . . .
76(5) . . .
77(5) . . .
68(4) . . .
73(4) . . .
71(4) . . .
75(5) . . .
80(5) . . .
75(5) . . .
70(4) . . .
72(5) . . .
76(5) . . .
77(5) . . .
72(4) . . .
84(5) . . .
75(5) . . .
83(5) . . .
83(5) . . .
71(4) . . .
78(5) . . .
76(5) . . .
75(5) . . .
76(5) . . .
82(5) . . .
74(4) . . .
77(5) . . .
66(5) . . .
70(5) . . .
75(4) . . .
87(5) . . .
67(4) . . .
78(5) . . .
68(4) . . .
80(5) . . .
78(5) . . .
85(5) . . .
72(5) . . .
79(5) . . .
81(5) . . .
71(4) . . .
69(4) . . .
74(5) . . .
71(4) . . .
77(5) . . .
79(5) . . .
79(5) . . .
67(4) . . .
60(4) . . .
59(4) . . .
74(5) . . .
73(5) . . .
77(5) . . .
67(4) . . .
77(5) . . .
89(5) . . .
86(5) . . .
71(4) . . .
70(4) . . .
64(4) . . .
71(5) . . .
70(5) . . .
72(5) . . .
73(5) . . .
73(4) . . .
65(4) . . .
77(5) . . .
77(5) . . .
79(5) . . .
76(4) . . .
69(5) . . .
83(5) . . .
73(5) . . .
74(5) . . .
71(4) . . .
70(4) . . .
74(5) . . .
82(5) . . .
79(5) . . .
88(5) . . .
76(5) . . .
75(5) . . .
73(4) . . .
87(5) . . .
75(5) . . .
65(4) . . .
75(5) . . .
74(5) . . .
75(4) . . .
73(4) . . .
80(5) . . .
83(5) . . .
77(5) . . .
74(5) . . .
71(4) . . .
70(4) . . .
80(5) . . .
75(5) . . .
73(4) . . .
78(5) . . .
68(4) . . .
73(5) . . .
64(4) . . .
67(4) . . .
64(4) . . .
77(5) . . .
70(5) . . .
71(5) . . .
67(4) . . .
82(5) . . .
78(5) . . .
62(4) . . .
73(5) . . .
63(4) . . .
74(5) . . .
80(5) . . .
73(5) . . .
87(5) . . .
71(4) . . .
69(5) . . .
74(5) . . .
76(5) . . .
84(5) . . .
70(4) . . .
69(5) . . .
69(4) . . .
71(4) . . .
72(4) . . .
77(5) . . .
67(4) . . .
73(5) . . .
68(4) . . .
73(4) . . .
69(4) . . .
67(4) . . .
69(5) . . .
77(5) . . .
73(4) . . .
65(4) . . .
60(4) . . .
72(5) . . .
76(5) . . .
66(4) . . .
75(5) . . .
65(4) . . .
77(5) . . .
69(4) . . .
83(5) . . .
74(4) . . .
69(4) . . .
86(5) . . .
81(5) . . .
68(4) . . .
71(4) . . .
78(5) . . .
82(5) . . .
74(5) . . .
75(5) . . .
87(5) . . .
80(5) . . .
74(5) . . .
85(5) . . .
70(4) . . .
76(5) . . .
78(5) . . .
77(5) . . .
80(5) . . .
66(4) . . .
73(5) . . .
74(5) . . .
68(5) . . .
65(4) . . .
76(5) . . .
71(5) . . .
76(5) . . .
64(4) . . .
76(5) . . .
69(4) . . .
81(5) . . .
64(4) . . .
64(4) . . .
71(4) . . .
63(4) . . .
66(4) . . .
72(5) . . .
71(4) . . .
86(5) . . .
72(4) . . .
75(5) . . .
76(5) . . .
77(5) . . .
72(5) . . .
59(4) . . .
64(4) . . .
71(5) . . .
77(5) . . .
75(5) . . .
68(4) . . .
71(5) . . .
54(4) . . .
69(5) . . .
75(4) . . .
71(4) . . .
73(5) . . .
80(5) . . .
69(5) . . .
75(5) . . .
71(4) . . .
71(5) . . .
63(4) . . .
63(5) . . .
57(4) . . .
64(4) . . .
84(5) . . .
72(5) . . .
70(4) . . .
63(4) . . .
64(4) . . .
72(5) . . .
66(4) . . .
71(5) . . .
67(4) . . .
67(5) . . .
68(4) . . .
77(5) . . .
58(4) . . .
73(4) . . .
70(5) . . .
66(4) . . .
69(4) . . .
62(4) . . .
75(4) . . .
73(5) . . .
80(5) . . .
69(5) . . .
64(4) . . .
79(5) . . .
69(4) . . .
61(4) . . .
79(5) . . .
67(4) . . .
73(4) . . .
81(5) . . .
76(5) . . .
73(4) . . .
69(4) . . .
69(4) . . .
72(5) . . .
69(5) . . .
74(5) . . .
69(4) . . .
73(5) . . .
78(5) . . .
69(5) . . .
79(5) . . .
77(5) . . .
82(5) . . .
68(4) . . .
84(5) . . .
73(4) . . .
65(4) . . .
61(4) . . .
58(4) . . .
77(5) . . .
70(5) . . .
74(4) . . .
66(5) . . .
70(5) . . .
76(5) . . .
75(5) . . .
81(5) . . .
74(5) . . .
73(5) . . .
91(5) . . .
77(5) . . .
72(4) . . .
64(4) . . .
80(5) . . .
71(5) . . .
68(4) . . .
67(4) . . .
78(5) . . .
75(5) . . .
64(4) . . .
71(4) . . .
80(5) . . .
79(5) . . .
76(5) . . .
69(4) . . .
77(5) . . .
83(5) . . .
73(4) . . .
73(5) . . .
73(5) . . .
76(5) . . .
67(4) . . .
60(4) . . .
71(5) . . .
76(5) . . .
81(5) . . .
66(4) . . .
72(4) . . .
75(5) . . .
77(5) . . .
78(5) . . .
77(5) . . .
60(4) . . .
77(5) . . .
58(4) . . .
69(4) . . .
63(4) . . .
58(4) . . .
71(4) . . .
80(5) . . .
73(4) . . .
77(5) . . .
69(5) . . .
62(4) . . .
71(4) . . .
74(4) . . .
62(4) . . .
67(5) . . .
76(5) . . .
75(4) . . .
71(4) . . .
57(4) . . .
67(4) . . .
74(5) . . .
58(4) . . .
71(4) . . .
64(4) . . .
81(5) . . .
79(5) . . .
71(4) . . .
68(4) . . .
71(5) . . .
73(5) . . .
76(5) . . .
83(5) . . .
64(4) . . .
80(5) . . .
75(5) . . .
72(5) . . .
66(4) . . .
76(5) . . .
71(5) . . .
68(4) . . .
70(4) . . .
78(5) . . .
72(4) . . .
72(5) . . .
63(4) . . .
59(4) . . .
72(4) . . .
63(4) . . .
77(5) . . .
71(5) . . .
64(4) . . .
61(4) . . .
61(4) . . .
59(4) . . .
69(5) . . .
65(4) . . .
73(4) . . .
63(4) . . .
66(4) . . .
68(4) . . .
75(5) . . .
76(5) . . .
68(4) . . .
63(4) . . .
62(4) . . .
69(4) . . .
57(4) . . .
76(5) . . .
64(4) . . .
71(5) . . .
70(4) . . .
66(4) . . .
69(4) . . .
69(5) . . .
65(4) . . .
74(4) . . .
75(5) . . .
70(4) . . .
74(5) . . .
69(4) . . .
65(4) . . .
67(4) . . .
72(5) . . .
64(4) . . .
65(4) . . .
69(4) . . .
68(4) . . .
69(4) . . .
54(4) . . .
73(5) . . .
76(5) . . .
73(5) . . .
66(4) . . .
72(5) . . .
83(5) . . .
73(4) . . .
64(4) . . .
77(5) . . .
75(5) . . .
67(4) . . .
62(4) . . .
60(4) . . .
65(4) . . .
72(5) . . .
71(5) . . .
65(4) . . .
67(4) . . .
61(4) . . .
64(4) . . .
67(4) . . .
71(4) . . .
68(5) . . .
72(5) . . .
92(5) . . .
65(4) . . .
74(4) . . .
70(5) . . .
76(5) . . .
69(4) . . .
71(4) . . .
64(4) . . .
58(4) . . .
63(4) . . .
67(4) . . .
66(4) . . .
61(4) . . .
59(4) . . .
81(5) . . .
65(4) . . .
80(5) . . .
68(4) . . .
75(5) . . .
70(5) . . .
69(5) . . .
76(5) . . .
70(4) . . .
66(4) . . .
61(4) . . .
86(5) . . .
72(4) . . .
68(4) . . .
69(4) . . .
61(4) . . .
66(4) . . .
76(4) . . .
67(4) . . .
70(5) . . .
72(5) . . .
70(4) . . .
59(4) . . .
63(4) . . .
68(5) . . .
57(4) . . .
68(4) . . .
74(4) . . .
71(4) . . .
66(4) . . .
67(4) . . .
70(4) . . .
72(4) . . .
70(4) . . .
73(5) . . .
73(5) . . .
62(4) . . .
67(4) . . .
86(5) . . .
87(5) . . .
75(5) . . .
67(4) . . .
80(5) . . .
65(4) . . .
76(5) . . .
62(4) . . .
69(4) . . .
68(4) . . .
63(4) . . .
61(4) . . .
70(5) . . .
87(5) . . .
78(5) . . .
73(5) . . .
62(4) . . .
59(4) . . .
69(4) . . .
70(4) . . .
65(5) . . .
60(4) . . .
72(5) . . .
76(4) . . .
69(4) . . .
67(5) . . .
72(5) . . .
64(4) . . .
64(4) . . .
64(4) . . .
65(4) . . .
68(5) . . .
66(4) . . .
66(4) . . .
82(5) . . .
69(5) . . .
80(5) . . .
61(4) . . .
67(4) . . .
61(4) . . .
67(4) . . .
67(4) . . .
69(4) . . .
67(4) . . .
62(4) . . .
77(5) . . .
67(4) . . .
75(5) . . .
71(4) . . .
76(5) . . .
75(5) . . .
73(5) . . .
61(4) . . .
68(4) . . .
73(5) . . .
73(5) . . .
80(5) . . .
71(4) . . .
67(4) . . .
62(4) . . .
69(5) . . .
67(4) . . .
62(4) . . .
77(5) . . .
79(5) . . .
74(5) . . .
59(4) . . .
68(4) . . .
62(4) . . .
70(5) . . .
79(5) . . .
74(5) . . .
71(4) . . .
70(4) . . .
74(5) . . .
65(4) . . .
64(4) . . .
66(4) . . .
75(5) . . .
72(4) . . .
75(5) . . .
59(4) . . .
70(4) . . .
75(5) . . .
89(5) . . .
76(5) . . .
69(5) . . .
69(4) . . .
65(4) . . .
70(4) . . .
77(5) . . .
69(4) . . .
84(5) . . .
70(5) . . .
77(5) . . .
67(5) . . .
77(5) . . .
63(4) . . .
70(4) . . .
74(5) . . .
65(4) . . .
63(4) . . .
72(4) . . .
62(4) . . .
70(5) . . .
67(4) . . .
64(4) . . .
60(4) . . .
72(5) . . .
81(5) . . .
67(4) . . .
69(4) . . .
81(5) . . .
75(5) . . .
75(5) . . .
77(5) . . .
73(4) . . .
72(4) . . .
76(5) . . .
68(5) . . .
71(5) . . .
68(4) . . .
75(5) . . .
70(4) . . .
63(4) . . .
68(5) . . .
69(4) . . .
70(4) . . .
77(5) . . .
73(5) . . .
60(4) . . .
60(4) . . .
90(5) . . .
84(5) . . .
76(5) . . .
73(4) . . .
64(4) . . .
70(5) . . .
68(4) . . .
73(4) . . .
66(4) . . .
69(5) . . .
62(4) . . .
66(4) . . .
79(5) . . .
67(4) . . .
74(5) . . .
62(4) . . .
65(4) . . .
68(4) . . .
62(4) . . .
66(4) . . .
75(5) . . .
75(5) . . .
70(4) . . .
70(5) . . .
81(5) . . .
81(5) . . .
64(4) . . .
78(5) . . .
75(5) . . .
67(4) . . .
73(5) . . .
72(4) . . .
55(4) . . .
77(5) . . .
82(5) . . .
79(5) . . .
74(4) . . .
63(4) . . .
67(4) . . .
79(5) . . .
82(5) . . .
78(5) . . .
77(5) . . .
73(5) . . .
85(5) . . .
62(4) . . .
66(4) . . .
70(4) . . .
65(4) . . .
72(5) . . .
72(5) . . .
75(4) . . .
55(4) . . .
68(5) . . .
78(5) . . .
75(5) . . .
74(4) . . .
66(4) . . .
73(5) . . .
69(5) . . .
60(4) . . .
69(4) . . .
68(4) . . .
69(5) . . .
68(5) . . .
68(4) . . .
66(4) . . .
76(5) . . .
67(4) . . .
65(4) . . .
75(5) . . .
66(4) . . .
62(4) . . .
57(4) . . .
69(4) . . .
77(5) . . .
73(4) . . .
59(4) . . .
86(5) . . .
72(4) . . .
81(5) . . .
57(4) . . .
78(5) . . .
68(5) . . .
74(5) . . .
65(4) . . .
72(4) . . .
62(4) . . .
59(4) . . .
84(5) . . .
78(5) . . .
67(4) . . .
65(4) . . .
68(5) . . .
58(4) . . .
72(4) . . .
68(4) . . .
62(4) . . .
73(5) . . .
60(4) . . .
67(4) . . .
66(4) . . .
65(4) . . .
79(5) . . .
76(5) . . .
66(4) . . .
67(4) . . .
64(4) . . .
73(5) . . .
67(4) . . .
65(4) . . .
63(4) . . .
73(4) . . .
77(5) . . .
70(5) . . .
69(4) . . .
66(4) . . .
74(5) . . .
77(5) . . .
68(4) . . .
73(4) . . .
71(5) . . .
74(5) . . .
64(4) . . .
67(4) . . .
61(4) . . .
65(4) . . .
62(4) . . .
68(4) . . .
67(4) . . .
76(5) . . .
84(5) . . .
84(5) . . .
85(5) . . .
68(4) . . .
62(4) . . .
58(4) . . .
60(4) . . .
64(4) . . .
74(4) . . .
76(5) . . .
71(4) . . .
57(4) . . .
73(5) . . .
62(4) . . .
60(4) . . .
71(5) . . .
60(4) . . .
70(4) . . .
82(5) . . .
67(4) . . .
72(5) . . .
76(5) . . .
69(4) . . .
81(5) . . .
71(4) . . .
65(4) . . .
76(5) . . .
72(5) . . .
64(4) . . .
65(4) . . .
61(4) . . .
69(4) . . .
75(5) . . .
65(4) . . .
67(4) . . .
58(4) . . .
75(5) . . .
78(5) . . .
73(4) . . .
78(5) . . .
62(4) . . .
76(5) . . .
64(4) . . .
71(4) . . .
67(4) . . .
69(5) . . .
68(4) . . .
75(5) . . .
60(4) . . .
74(5) . . .
69(5) . . .
72(5) . . .
69(4) . . .
67(4) . . .
66(4) . . .
90(5) . . .
67(4) . . .
67(4) . . .
73(4) . . .
60(4) . . .
78(5) . . .
66(4) . . .
67(4) . . .
73(5) . . .
66(4) . . .
64(4) . . .
69(5) . . .
70(4) . . .
67(4) . . .
57(4) . . .
61(4) . . .
69(5) . . .
70(4) . . .
76(5) . . .
59(4) . . .
65(4) . . .
67(4) . . .
78(5) . . .
70(4) . . .
79(5) . . .
75(5) . . .
70(4) . . .
61(4) . . .
60(4) . . .
67(4) . . .
73(5) . . .
67(4) . . .
59(4) . . .
58(4) . . .
63(4) . . .
60(4) . . .
65(4) . . .
65(4) . . .
65(4) . . .
72(5) . . .
68(4) . . .
63(4) . . .
58(4) . . .
71(5) . . .
78(5) . . .
58(4) . . .
69(4) . . .
69(4) . . .
71(5) . . .
76(5) . . .
71(4) . . .
68(4) . . .
55(4) . . .
63(4) . . .
69(5) . . .
71(5) . . .
63(4) . . .
73(5) . . .
73(4) . . .
71(5) . . .
72(5) . . .
69(4) . . .
68(4) . . .
60(4) . . .
77(5) . . .
73(5) . . .
75(4) . . .
68(4) . . .
68(4) . . .
74(5) . . .
75(5) . . .
76(5) . . .
58(4) . . .
60(4) . . .
70(5) . . .
62(4) . . .
59(4) . . .
67(4) . . .
66(4) . . .
85(5) . . .
74(5) . . .
76(5) . . .
76(5) . . .
59(4) . . .
61(4) . . .
67(4) . . .
58(4) . . .
68(4) . . .
72(5) . . .
70(4) . . .
71(4) . . .
55(4) . . .
76(5) . . .
68(4) . . .
75(5) . . .
65(4) . . .
67(4) . . .
68(4) . . .
59(4) . . .
52(4) . . .
63(4) . . .
65(4) . . .
72(5) . . .
62(4) . . .
62(4) . . .
72(4) . . .
67(4) . . .
69(4) . . .
73(5) . . .
65(4) . . .
64(4) . . .
59(4) . . .
82(5) . . .
72(5) . . .
69(4) . . .
65(4) . . .
73(4) . . .
73(5) . . .
72(5) . . .
70(4) . . .
75(4) . . .
71(4) . . .
68(4) . . .
59(4) . . .
84(5) . . .
70(4) . . .
71(5) . . .
60(4) . . .
72(5) . . .
71(4) . . .
67(4) . . .
73(5) . . .
69(5) . . .
60(4) . . .
78(5) . . .
70(4) . . .
63(4) . . .
72(5) . . .
70(5) . . .
69(4) . . .
57(4) . . .
59(4) . . .
61(4) . . .
68(5) . . .
64(4) . . .
56(4) . . .
63(4) . . .
69(5) . . .
70(5) . . .
68(4) . . .
76(5) . . .
61(4) . . .
67(5) . . .
71(5) . . .
64(4) . . .
69(4) . . .
63(4) . . .
64(4) . . .
76(5) . . .
66(4) . . .
62(4) . . .
73(5) . . .
72(5) . . .
67(5) . . .
65(4) . . .
71(4) . . .
72(5) . . .
76(5) . . .
61(4) . . .
66(4) . . .
64(4) . . .
70(5) . . .
72(5) . . .
75(5) . . .
57(4) . . .
73(5) . . .
77(5) . . .
68(5) . . .
66(4) . . .
77(5) . . .
66(4) . . .
64(4) . . .
55(4) . . .
60(4) . . .
75(5) . . .
68(5) . . .
60(4) . . .
70(4) . . .
68(4) . . .
72(4) . . .
54(4) . . .
72(5) . . .
67(4) . . .
73(5) . . .
77(5) . . .
70(5) . . .
70(5) . . .
80(5) . . .
74(4) . . .
65(4) . . .
70(5) . . .
69(5) . . .
70(4) . . .
69(4) . . .
81(5) . . .
73(5) . . .
69(5) . . .
65(4) . . .
73(5) . . .
69(4) . . .
70(5) . . .
72(5) . . .
68(4) . . .
81(5) . . .
81(5) . . .
73(5) . . .
68(5) . . .
68(5) . . .
71(4) . . .
70(4) . . .
68(5) . . .
66(5) . . .
65(4) . . .
60(4) . . .
61(4) . . .
74(5) . . .
87(5) . . .
81(5) . . .
71(4) . . .
74(5) . . .
71(5) . . .
65(4) . . .
69(5) . . .
59(4) . . .
68(4) . . .
73(5) . . .
74(5) . . .
70(4) . . .
68(4) . . .
63(4) . . .
66(4) . . .
59(4) . . .
65(4) . . .
69(4) . . .
71(4) . . .
66(4) . . .
77(5) . . .
66(4) . . .
72(4) . . .
74(5) . . .
62(4) . . .
62(4) . . .
76(5) . . .
68(4) . . .
63(4) . . .
64(4) . . .
65(4) . . .
62(4) . . .
71(4) . . .
73(4) . . .
74(5) . . .
65(5) . . .
62(4) . . .
69(4) . . .
72(5) . . .
67(4) . . .
80(5) . . .
63(4) . . .
78(5) . . .
73(5) . . .
80(5) . . .
70(4) . . .
75(4) . . .
65(4) . . .
62(4) . . .
55(4) . . .
62(4) . . .
64(4) . . .
69(4) . . .
76(5) . . .
70(5) . . .
71(4) . . .
65(4) . . .
68(4) . . .
69(5) . . .
71(5) . . .
63(4) . . .
68(4) . . .
68(4) . . .
83(5) . . .
73(5) . . .
70(5) . . .
73(4) . . .
79(5) . . .
69(5) . . .
65(4) . . .
66(4) . . .
58(4) . . .
74(5) . . .
54(4) . . .
69(4) . . .
73(4) . . .
72(4) . . .
74(5) . . .
71(5) . . .
84(5) . . .
74(4) . . .
66(4) . . .
78(5) . . .
74(5) . . .
66(4) . . .
69(4) . . .
61(4) . . .
63(4) . . .
61(4) . . .
63(4) . . .
67(4) . . .
70(4) . . .
76(5) . . .
77(5) . . .
60(4) . . .
64(4) . . .
65(4) . . .
71(5) . . .
82(5) . . .
73(5) . . .
72(4) . . .
69(4) . . .
74(5) . . .
75(5) . . .
67(4) . . .
79(5) . . .
77(5) . . .
75(5) . . .
78(5) . . .
64(4) . . .
63(4) . . .
60(4) . . .
66(4) . . .
67(4) . . .
64(4) . . .
66(4) . . .
58(4) . . .
62(4) . . .
70(4) . . .
59(4) . . .
70(4) . . .
70(5) . . .
66(4) . . .
60(4) . . .
66(4) . . .
51(4) . . .
65(4) . . .
75(5) . . .
68(4) . . .
71(4) . . .
64(4) . . .
66(5) . . .
66(5) . . .
82(5) . . .
73(4) . . .
77(5) . . .
69(5) . . .
63(4) . . .
66(4) . . .
68(4) . . .
70(4) . . .
71(5) . . .
64(4) . . .
63(4) . . .
66(4) . . .
72(4) . . .
72(5) . . .
75(5) . . .
63(4) . . .
60(4) . . .
59(4) . . .
67(4) . . .
56(4) . . .
74(5) . . .
76(5) . . .
67(5) . . .
61(4) . . .
65(4) . . .
71(4) . . .
70(4) . . .
61(4) . . .
66(4) . . .
69(4) . . .
62(4) . . .
63(4) . . .
71(5) . . .
71(5) . . .
63(4) . . .
68(4) . . .
57(4) . . .
69(5) . . .
68(5) . . .
71(4) . . .
79(5) . . .
69(4) . . .
77(5) . . .
72(5) . . .
62(4) . . .
73(5) . . .
71(4) . . .
63(4) . . .
73(5) . . .
54(4) . . .
67(4) . . .
72(4) . . .
65(4) . . .
69(5) . . .
64(4) . . .
59(4) . . .
63(4) . . .
67(4) . . .
55(4) . . .
60(4) . . .
73(4) . . .
73(5) . . .
66(4) . . .
63(4) . . .
72(5) . . .
62(4) . . .
62(4) . . .
69(4) . . .
67(4) . . .
73(4) . . .
71(4) . . .
58(4) . . .
74(5) . . .
72(5) . . .
62(4) . . .
62(4) . . .
67(4) . . .
72(5) . . .
67(4) . . .
79(5) . . .
78(5) . . .
65(4) . . .
57(4) . . .
70(5) . . .
57(4) . . .
66(4) . . .
75(5) . . .
72(5) . . .
69(5) . . .
59(4) . . .
72(4) . . .
72(4) . . .
72(5) . . .
76(5) . . .
76(5) . . .
54(4) . . .
62(4) . . .
61(4) . . .
69(5) . . .
63(4) . . .
63(4) . . .
68(4) . . .
57(4) . . .
71(5) . . .
75(4) . . .
78(5) . . .
66(4) . . .
67(4) . . .
77(5) . . .
75(4) . . .
72(4) . . .
61(4) . . .
68(5) . . .
56(4) . . .
64(4) . . .
72(4) . . .
65(4) . . .
69(5) . . .
52(4) . . .
67(4) . . .
70(4) . . .
67(4) . . .
66(4) . . .
62(4) . . .
68(4) . . .
59(4) . . .
72(5) . . .
63(4) . . .
68(5) . . .
69(4) . . .
61(4) . . .
71(5) . . .
77(5) . . .
72(4) . . .
68(4) . . .
68(5) . . .
66(5) . . .
63(4) . . .
72(4) . . .
66(4) . . .
68(4) . . .
69(5) . . .
69(4) . . .
74(4) . . .
55(4) . . .
62(4) . . .
67(5) . . .
59(4) . . .
58(4) . . .
77(5) . . .
69(4) . . .
72(5) . . .
72(5) . . .
75(4) . . .
73(4) . . .
63(4) . . .
82(5) . . .
64(4) . . .
56(4) . . .
73(5) . . .
73(5) . . .
66(4) . . .
61(4) . . .
78(5) . . .
66(4) . . .
63(4) . . .
59(4) . . .
66(5) . . .
65(4) . . .
61(4) . . .
63(4) . . .
62(4) . . .
64(4) . . .
66(4) . . .
58(4) . . .
66(4) . . .
63(4) . . .
62(4) . . .
60(4) . . .
71(4) . . .
91(5) . . .
67(4) . . .
72(5) . . .
56(4) . . .
53(4) . . .
63(4) . . .
71(5) . . .
56(4) . . .
73(4) . . .
72(5) . . .
76(5) . . .
59(4) . . .
64(4) . . .
65(4) . . .
64(4) . . .
66(4) . . .
64(4) . . .
62(4) . . .
54(4) . . .
63(4) . . .
60(4) . . .
67(4) . . .
57(4) . . .
61(4) . . .
59(4) . . .
53(4) . . .
59(4) . . .
65(4) . . .
65(4) . . .
71(4) . . .
70(4) . . .
71(4) . . .
73(4) . . .
71(4) . . .
75(5) . . .
66(4) . . .
81(5) . . .
66(4) . . .
60(4) . . .
61(4) . . .
68(5) . . .
70(5) . . .
80(5) . . .
70(4) . . .
70(5) . . .
66(4) . . .
63(4) . . .
72(4) . . .
66(4) . . .
66(5) . . .
59(4) . . .
72(5) . . .
61(4) . . .
68(5) . . .
65(4) . . .
72(5) . . .
56(4) . . .
59(4) . . .
63(4) . . .
71(5) . . .
59(4) . . .
62(4) . . .
60(4) . . .
63(4) . . .
66(5) . . .
77(5) . . .
68(4) . . .
65(4) . . .
68(5) . . .
54(4) . . .
61(4) . . .
60(4) . . .
66(4) . . .
63(4) . . .
63(5) . . .
73(5) . . .
72(4) . . .
77(5) . . .
58(4) . . .
69(5) . . .
60(4) . . .
57(4) . . .
63(4) . . .
57(4) . . .
60(4) . . .
74(5) . . .
72(4) . . .
57(4) . . .
70(5) . . .
70(5) . . .
63(4) . . .
67(4) . . .
69(4) . . .
58(4) . . .
64(4) . . .
66(4) . . .
69(4) . . .
54(4) . . .
61(4) . . .
77(5) . . .
70(4) . . .
57(4) . . .
66(4) . . .
66(5) . . .
65(4) . . .
49(4) . . .
67(4) . . .
67(5) . . .
59(4) . . .
56(4) . . .
69(4) . . .
61(4) . . .
61(4) . . .
63(5) . . .
61(4) . . .
55(4) . . .
62(4) . . .
70(4) . . .
72(5) . . .
66(4) . . .
66(4) . . .
64(4) . . .
70(5) . . .
63(4) . . .
70(4) . . .
63(4) . . .
68(4) . . .
69(4) . . .
66(4) . . .
64(4) . . .
71(4) . . .
59(4) . . .
73(4) . . .
63(4) . . .
74(5) . . .
69(4) . . .
82(5) . . .
65(4) . . .
59(4) . . .
53(4) . . .
59(4) . . .
81(5) . . .
64(4) . . .
65(4) . . .
67(4) . . .
61(4) . . .
71(5) . . .
77(5) . . .
66(4) . . .
65(4) . . .
76(5) . . .
67(4) . . .
68(5) . . .
60(4) . . .
59(4) . . .
57(4) . . .
66(4) . . .
63(4) . . .
69(4) . . .
68(4) . . .
74(5) . . .
60(4) . . .
59(4) . . .
61(4) . . .
74(4) . . .
65(4) . . .
65(4) . . .
70(5) . . .
71(5) . . .
50(4) . . .
67(4) . . .
67(4) . . .
69(5) . . .
76(5) . . .
64(4) . . .
58(4) . . .
67(4) . . .
60(4) . . .
60(4) . . .
58(4) . . .
63(4) . . .
63(4) . . .
73(5) . . .
68(5) . . .
55(4) . . .
68(4) . . .
57(4) . . .
63(4) . . .
69(5) . . .
68(4) . . .
58(4) . . .
60(4) . . .
68(4) . . .
62(4) . . .
64(4) . . .
72(5) . . .
62(4) . . .
59(4) . . .
63(4) . . .
67(4) . . .
66(4) . . .
64(4) . . .
65(4) . . .
56(4) . . .
55(4) . . .
65(4) . . .
61(4) . . .
72(4) . . .
68(4) . . .
76(5) . . .
65(4) . . .
67(5) . . .
67(4) . . .
56(4) . . .
65(4) . . .
64(4) . . .
67(4) . . .
63(4) . . .
65(4) . . .
64(4) . . .
65(4) . . .
64(4) . . .
65(4) . . .
63(4) . . .
67(4) . . .
65(4) . . .
67(5) . . .
71(4) . . .
69(4) . . .
70(4) . . .
73(5) . . .
76(5) . . .
68(5) . . .
69(4) . . .
61(4) . . .
62(4) . . .
60(4) . . .
62(4) . . .
59(4) . . .
61(4) . . .
65(5) . . .
57(4) . . .
65(4) . . .
72(4) . . .
69(4) . . .
65(4) . . .
69(5) . . .
65(4) . . .
60(4) . . .
64(4) . . .
62(4) . . .
63(4) . . .
61(4) . . .
64(4) . . .
76(5) . . .
54(4) . . .
67(5) . . .
63(4) . . .
58(4) . . .
67(4) . . .
66(5) . . .
58(4) . . .
60(4) . . .
68(4) . . .
58(4) . . .
62(4) . . .
68(4) . . .
69(4) . . .
62(4) . . .
61(4) . . .
67(5) . . .
78(5) . . .
71(4) . . .
68(4) . . .
65(4) . . .
66(4) . . .
66(4) . . .
71(4) . . .
64(4) . . .
73(4) . . .
73(5) . . .
68(4) . . .
67(4) . . .
66(4) . . .
72(5) . . .
62(4) . . .
59(4) . . .
65(4) . . .
59(4) . . .
58(4) . . .
56(4) . . .
71(4) . . .
62(4) . . .
72(4) . . .
74(5) . . .
63(4) . . .
63(4) . . .
64(4) . . .
63(4) . . .
71(4) . . .
67(4) . . .
64(4) . . .
68(4) . . .
56(4) . . .
61(4) . . .
68(5) . . .
50(4) . . .
62(4) . . .
66(4) . . .
65(5) . . .
63(4) . . .
73(4) . . .
66(4) . . .
75(5) . . .
71(5) . . .
70(5) . . .
59(4) . . .
70(4) . . .
53(4) . . .
68(5) . . .
70(5) . . .
58(4) . . .
51(4) . . .
69(5) . . .
69(5) . . .
62(4) . . .
58(4) . . .
69(4) . . .
63(4) . . .
60(4) . . .
70(5) . . .
64(4) . . .
73(5) . . .
68(4) . . .
67(4) . . .
67(4) . . .
57(4) . . .
71(4) . . .
68(4) . . .
58(4) . . .
62(4) . . .
62(4) . . .
73(5) . . .
63(4) . . .
65(4) . . .
59(4) . . .
61(4) . . .
59(4) . . .
71(5) . . .
58(4) . . .
72(5) . . .
69(4) . . .
55(4) . . .
59(4) . . .
65(4) . . .
69(4) . . .
73(4) . . .
71(5) . . .
56(4) . . .
72(5) . . .
64(4) . . .
64(4) . . .
67(4) . . .
62(4) . . .
56(4) . . .
58(4) . . .
66(4) . . .
64(4) . . .
64(4) . . .
75(5) . . .
63(4) . . .
60(4) . . .
57(4) . . .
69(5) . . .
60(4) . . .
59(4) . . .
67(4) . . .
64(4) . . .
62(4) . . .
65(5) . . .
66(4) . . .
59(4) . . .
65(4) . . .
67(4) . . .
58(4) . . .
72(4) . . .
66(4) . . .
61(4) . . .
53(4) . . .
73(5) . . .
65(4) . . .
56(4) . . .
58(4) . . .
67(5) . . .
64(4) . . .
64(4) . . .
58(4) . . .
58(4) . . .
67(5) . . .
64(4) . . .
82(5) . . .
69(4) . . .
62(4) . . .
65(5) . . .
64(4) . . .
53(4) . . .
51(4) . . .
69(5) . . .
73(5) . . .
61(4) . . .
54(4) . . .
64(4) . . .
76(5) . . .
61(4) . . .
65(4) . . .
62(4) . . .
60(4) . . .
65(5) . . .
63(4) . . .
57(4) . . .
80(5) . . .
64(4) . . .
73(5) . . .
59(4) . . .
61(4) . . .
55(4) . . .
51(4) . . .
63(4) . . .
66(4) . . .
64(4) . . .
64(4) . . .
66(4) . . .
61(4) . . .
59(4) . . .
77(5) . . .
74(5) . . .
72(5) . . .
61(4) . . .
61(4) . . .
63(4) . . .
66(4) . . .
56(4) . . .
55(4) . . .
64(4) . . .
61(4) . . .
55(4) . . .
64(4) . . .
67(4) . . .
54(4) . . .
61(4) . . .
64(4) . . .
59(4) . . .
58(4) . . .
68(4) . . .
66(4) . . .
58(4) . . .
70(5) . . .
68(5) . . .
58(4) . . .
65(4) . . .
69(5) . . .
60(4) . . .
76(5) . . .
70(4) . . .
65(4) . . .
70(5) . . .
61(4) . . .
60(4) . . .
51(4) . . .
62(4) . . .
60(4) . . .
56(4) . . .
62(4) . . .
70(4) . . .
65(4) . . .
69(5) . . .
59(4) . . .
66(4) . . .
74(4) . . .
66(4) . . .
65(4) . . .
62(4) . . .
64(4) . . .
55(4) . . .
64(4) . . .
66(5) . . .
69(5) . . .
65(4) . . .
60(4) . . .
57(4) . . .
60(4) . . .
62(4) . . .
73(5) . . .
62(4) . . .
64(4) . . .
68(5) . . .
56(4) . . .
56(4) . . .
60(4) . . .
69(4) . . .
64(4) . . .
62(4) . . .
50(4) . . .
67(4) . . .
62(4) . . .
63(4) . . .
65(4) . . .
79(5) . . .
65(4) . . .
70(4) . . .
71(5) . . .
64(4) . . .
58(4) . . .
73(5) . . .
65(5) . . .
66(5) . . .
66(4) . . .
63(4) . . .
54(4) . . .
78(5) . . .
64(5) . . .
64(4) . . .
71(5) . . .
69(4) . . .
72(5) . . .
65(5) . . .
64(4) . . .
66(4) . . .
57(4) . . .
64(4) . . .
62(4) . . .
65(4) . . .
51(4) . . .
70(4) . . .
59(4) . . .
61(4) . . .
61(4) . . .
68(4) . . .
67(4) . . .
70(4) . . .
72(5) . . .
66(4) . . .
64(4) . . .
79(5) . . .
70(5) . . .
56(4) . . .
58(4) . . .
54(4) . . .
60(4) . . .
69(4) . . .
61(4) . . .
60(4) . . .
60(4) . . .
66(4) . . .
60(4) . . .
61(4) . . .
67(5) . . .
71(4) . . .
58(4) . . .
53(4) . . .
65(4) . . .
60(4) . . .
59(4) . . .
64(4) . . .
70(5) . . .
60(4) . . .
63(4) . . .
60(4) . . .
62(4) . . .
58(4) . . .
60(4) . . .
65(4) . . .
61(4) . . .
56(4) . . .
51(4) . . .
60(5) . . .
56(4) . . .
78(5) . . .
65(5) . . .
55(4) . . .
51(4) . . .
63(4) . . .
55(4) . . .
65(4) . . .
64(4) . . .
47(4) . . .
56(4) . . .
72(5) . . .
71(5) . . .
76(5) . . .
67(4) . . .
53(4) . . .
72(4) . . .
60(4) . . .
68(5) . . .
62(4) . . .
59(4) . . .
60(4) . . .
53(4) . . .
67(4) . . .
66(4) . . .
64(4) . . .
68(4) . . .
64(4) . . .
54(4) . . .
66(4) . . .
62(4) . . .
60(4) . . .
57(4) . . .
67(4) . . .
56(4) . . .
60(4) . . .
62(4) . . .
58(4) . . .
61(4) . . .
55(4) . . .
51(4) . . .
63(4) . . .
62(4) . . .
67(5) . . .
67(4) . . .
76(5) . . .
80(5) . . .
72(5) . . .
64(4) . . .
49(4) . . .
67(4) . . .
61(4) . . .
52(4) . . .
65(4) . . .
50(4) . . .
66(4) . . .
59(4) . . .
58(4) . . .
68(4) . . .
66(4) . . .
67(4) . . .
69(4) . . .
50(4) . . .
52(4) . . .
64(4) . . .
66(4) . . .
55(4) . . .
47(4) . . .
63(4) . . .
59(4) . . .
57(4) . . .
71(5) . . .
71(5) . . .
49(4) . . .
45.2(35) . . .
57(4) . . .
58(4) . . .
56(4) . . .
57(4) . . .
58(4) . . .
64(4) . . .
57(4) . . .
64(4) . . .
73(5) . . .
65(4) . . .
54(4) . . .
65(4) . . .
64(4) . . .
53(4) . . .
57(4) . . .
66(4) . . .
64(5) . . .
55(4) . . .
56(4) . . .
57(4) . . .
63(4) . . .
58(4) . . .
65(4) . . .
66(4) . . .
56(4) . . .
64(4) . . .
57(4) . . .
63(4) . . .
63(4) . . .
66(4) . . .
64(4) . . .
56(4) . . .
66(4) . . .
61(4) . . .
64(4) . . .
75(5) . . .
73(5) . . .
65(4) . . .
64(4) . . .
58(4) . . .
56(4) . . .
68(5) . . .
60(4) . . .
67(4) . . .
68(4) . . .
63(4) . . .
61(4) . . .
56(4) . . .
70(4) . . .
50(4) . . .
55(4) . . .
67(5) . . .
57(4) . . .
54(4) . . .
63(4) . . .
62(4) . . .
73(5) . . .
61(4) . . .
54(4) . . .
51(4) . . .
61(4) . . .
59(4) . . .
58(4) . . .
66(4) . . .
60(4) . . .
54(4) . . .
53(4) . . .
51(4) . . .
61(4) . . .
75(5) . . .
66(4) . . .
66(4) . . .
64(4) . . .
66(4) . . .
73(5) . . .
63(4) . . .
62(4) . . .
62(4) . . .
58(4) . . .
65(4) . . .
66(4) . . .
61(4) . . .
62(4) . . .
58(4) . . .
59(4) . . .
61(4) . . .
66(4) . . .
71(4) . . .
75(5) . . .
57(4) . . .
59(4) . . .
62(4) . . .
60(4) . . .
56(4) . . .
59(4) . . .
61(4) . . .
63(4) . . .
54(4) . . .
70(5) . . .
73(5) . . .
58(4) . . .
59(4) . . .
52(4) . . .
65(4) . . .
64(4) . . .
66(5) . . .
64(4) . . .
63(4) . . .
73(5) . . .
63(4) . . .
60(4) . . .
64(4) . . .
59(4) . . .
70(5) . . .
64(4) . . .
59(4) . . .
58(4) . . .
63(4) . . .
65(4) . . .
67(4) . . .
68(4) . . .
72(4) . . .
62(4) . . .
72(5) . . .
72(5) . . .
71(5) . . .
70(4) . . .
49(4) . . .
68(4) . . .
65(4) . . .
59(4) . . .
53(4) . . .
59(4) . . .
74(5) . . .
64(4) . . .
63(4) . . .
66(4) . . .
55(4) . . .
55(4) . . .
61(4) . . .
60(4) . . .
46(4) . . .
67(4) . . .
66(4) . . .
78(5) . . .
69(4) . . .
59(4) . . .
69(5) . . .
65(4) . . .
69(4) . . .
62(4) . . .
53(4) . . .
50(4) . . .
69(5) . . .
63(4) . . .
58(4) . . .
59(4) . . .
65(4) . . .
62(4) . . .
60(4) . . .
68(4) . . .
50(4) . . .
61(4) . . .
52(4) . . .
53(4) . . .
53(4) . . .
53(4) . . .
57(4) . . .
52(4) . . .
60(4) . . .
61(4) . . .
64(4) . . .
61(4) . . .
55(4) . . .
61(4) . . .
72(4) . . .
61(4) . . .
62(4) . . .
52(4) . . .
58(4) . . .
58(4) . . .
49(4) . . .
68(4) . . .
66(4) . . .
61(4) . . .
50(4) . . .
61(4) . . .
61(4) . . .
62(4) . . .
58(4) . . .
60(4) . . .
58(4) . . .
53(4) . . .
63(4) . . .
63(4) . . .
61(4) . . .
68(5) . . .
62(4) . . .
67(4) . . .
61(4) . . .
61(4) . . .
65(4) . . .
49(4) . . .
60(4) . . .
67(4) . . .
64(4) . . .
55(4) . . .
62(4) . . .
74(5) . . .
59(4) . . .
63(4) . . .
66(4) . . .
83(5) . . .
66(4) . . .
66(4) . . .
65(4) . . .
70(5) . . .
57(4) . . .
57(4) . . .
66(4) . . .
68(4) . . .
67(5) . . .
70(5) . . .
61(4) . . .
58(4) . . .
65(4) . . .
63(4) . . .
59(4) . . .
61(4) . . .
60(4) . . .
68(4) . . .
68(5) . . .
53(4) . . .
56(4) . . .
57(4) . . .
60(4) . . .
66(5) . . .
71(5) . . .
72(5) . . .
67(4) . . .
65(4) . . .
57(4) . . .
56(4) . . .
52(4) . . .
61(4) . . .
60(4) . . .
56(4) . . .
58(4) . . .
67(4) . . .
63(4) . . .
70(5) . . .
66(5) . . .
56(4) . . .
49(4) . . .
59(4) . . .
60(4) . . .
60(4) . . .
62(4) . . .
62(4) . . .
61(4) . . .
61(4) . . .
62(4) . . .
60(4) . . .
58(4) . . .
60(4) . . .
64(4) . . .
65(5) . . .
60(4) . . .
76(5) . . .
56(4) . . .
63(4) . . .
69(5) . . .
68(4) . . .
61(4) . . .
63(4) . . .
70(4) . . .
60(4) . . .
68(4) . . .
71(4) . . .
67(4) . . .
67(5) . . .
63(5) . . .
61(4) . . .
64(4) . . .
53(4) . . .
66(4) . . .
63(4) . . .
62(4) . . .
59(4) . . .
56(4) . . .
63(4) . . .
66(4) . . .
71(5) . . .
65(4) . . .
59(4) . . .
66(4) . . .
61(4) . . .
68(4) . . .
58(4) . . .
63(4) . . .
72(5) . . .
63(4) . . .
57(4) . . .
67(4) . . .
57(4) . . .
69(4) . . .
72(4) . . .
61(4) . . .
63(4) . . .
65(4) . . .
69(5) . . .
66(4) . . .
63(4) . . .
53(4) . . .
56(4) . . .
51(4) . . .
54(4) . . .
67(4) . . .
53(4) . . .
66(4) . . .
60(4) . . .
64(4) . . .
69(4) . . .
69(4) . . .
60(4) . . .
59(4) . . .
64(4) . . .
57(4) . . .
66(4) . . .
72(5) . . .
55(4) . . .
70(4) . . .
59(4) . . .
69(4) . . .
60(4) . . .
63(4) . . .
49(4) . . .
65(4) . . .
56(4) . . .
51(4) . . .
63(5) . . .
56(4) . . .
51(4) . . .
62(4) . . .
50(4) . . .
69(4) . . .
64(4) . . .
55(4) . . .
47(4) . . .
64(4) . . .
78(5) . . .
62(4) . . .
56(4) . . .
60(4) . . .
69(5) . . .
52(4) . . .
67(4) . . .
60(4) . . .
58(4) . . .
60(4) . . .
54(4) . . .
61(4) . . .
57(4) . . .
58(4) . . .
47(4) . . .
68(5) . . .
58(4) . . .
64(4) . . .
65(4) . . .
56(4) . . .
60(4) . . .
58(4) . . .
54(4) . . .
53(4) . . .
56(4) . . .
68(4) . . .
62(4) . . .
59(4) . . .
62(5) . . .
61(4) . . .
63(4) . . .
66(4) . . .
69(4) . . .
61(4) . . .
61(4) . . .
58(4) . . .
53(4) . . .
59(4) . . .
58(4) . . .
62(4) . . .
55(4) . . .
57(4) . . .
66(4) . . .
53(4) . . .
60(4) . . .
57(4) . . .
55(4) . . .
61(4) . . .
68(5) . . .
57(4) . . .
49(4) . . .
57(4) . . .
62(4) . . .
61(4) . . .
61(4) . . .
57(4) . . .
61(4) . . .
56(4) . . .
65(4) . . .
52(4) . . .
50(4) . . .
51(4) . . .
63(4) . . .
59(4) . . .
66(4) . . .
64(4) . . .
47(4) . . .
57(4) . . .
64(4) . . .
64(4) . . .
67(4) . . .
62(4) . . .
59(4) . . .
59(4) . . .
57(4) . . .
58(4) . . .
60(4) . . .
63(4) . . .
57(4) . . .
65(4) . . .
71(4) . . .
55(4) . . .
59(4) . . .
69(5) . . .
68(5) . . .
60(4) . . .
56(4) . . .
46(4) . . .
61(4) . . .
68(5) . . .
62(4) . . .
60(4) . . .
58(4) . . .
62(4) . . .
73(5) . . .
55(4) . . .
54(4) . . .
66(4) . . .
57(4) . . .
68(4) . . .
60(4) . . .
52(4) . . .
59(4) . . .
56(4) . . .
58(4) . . .
58(4) . . .
62(4) . . .
68(5) . . .
57(4) . . .
57(4) . . .
75(4) . . .
65(4) . . .
59(4) . . .
55(4) . . .
44.3(35) . . .
62(4) . . .
60(4) . . .
49(4) . . .
62(4) . . .
59(4) . . .
62(4) . . .
62(4) . . .
69(5) . . .
55(4) . . .
58(4) . . .
54(4) . . .
57(4) . . .
60(4) . . .
57(4) . . .
61(4) . . .
69(4) . . .
55(4) . . .
57(4) . . .
49(4) . . .
65(4) . . .
66(4) . . .
52(4) . . .
52(4) . . .
68(5) . . .
61(4) . . .
57(4) . . .
63(4) . . .
58(4) . . .
44.7(35) . . .
56(4) . . .
49(4) . . .
65(4) . . .
62(4) . . .
62(4) . . .
62(4) . . .
62(4) . . .
62(5) . . .
61(4) . . .
54(4) . . .
62(4) . . .
72(5) . . .
50(4) . . .
51(4) . . .
58(4) . . .
63(4) . . .
61(4) . . .
61(4) . . .
61(4) . . .
61(4) . . .
51(4) . . .
63(4) . . .
63(4) . . .
57(4) . . .
65(4) . . .
49(4) . . .
56(4) . . .
63(4) . . .
56(4) . . .
61(4) . . .
71(4) . . .
51(4) . . .
65(4) . . .
60(4) . . .
52(4) . . .
61(4) . . .
64(4) . . .
63(4) . . .
64(4) . . .
71(4) . . .
60(4) . . .
59(4) . . .
65(4) . . .
60(4) . . .
56(4) . . .
66(4) . . .
67(4) . . .
57(4) . . .
59(4) . . .
60(4) . . .
47(4) . . .
58(4) . . .
57(4) . . .
59(4) . . .
60(4) . . .
56(4) . . .
51(4) . . .
58(4) . . .
66(4) . . .
58(4) . . .
59(4) . . .
67(5) . . .
71(5) . . .
57(4) . . .
63(4) . . .
66(4) . . .
67(4) . . .
59(4) . . .
66(4) . . .
55(4) . . .
61(4) . . .
57(4) . . .
64(4) . . .
52(4) . . .
63(4) . . .
65(4) . . .
59(4) . . .
64(4) . . .
61(4) . . .
59(4) . . .
57(4) . . .
67(4) . . .
71(5) . . .
61(4) . . .
55(4) . . .
60(4) . . .
65(4) . . .
55(4) . . .
67(4) . . .
61(4) . . .
58(4) . . .
55(4) . . .
61(4) . . .
61(4) . . .
63(4) . . .
62(4) . . .
53(4) . . .
57(4) . . .
61(4) . . .
64(4) . . .
59(4) . . .
60(4) . . .
67(4) . . .
68(4) . . .
66(4) . . .
45(4) . . .
55(4) . . .
67(4) . . .
65(4) . . .
65(4) . . .
62(4) . . .
58(4) . . .
58(4) . . .
57(4) . . .
60(4) . . .
63(4) . . .
62(4) . . .
62(4) . . .
64(4) . . .
66(4) . . .
62(4) . . .
66(4) . . .
59(4) . . .
62(4) . . .
62(4) . . .
51(4) . . .
58(4) . . .
58(4) . . .
59(4) . . .
62(4) . . .
57(4) . . .
57(4) . . .
61(4) . . .
53(4) . . .
58(4) . . .
55(4) . . .
65(4) . . .
68(4) . . .
63(4) . . .
55(4) . . .
62(4) . . .
56(4) . . .
58(4) . . .
57(4) . . .
48(4) . . .
69(5) . . .
63(4) . . .
61(4) . . .
61(4) . . .
64(4) . . .
63(4) . . .
65(4) . . .
75(4) . . .
66(4) . . .
65(4) . . .
54(4) . . .
65(4) . . .
62(4) . . .
48(4) . . .
67(5) . . .
61(4) . . .
54(4) . . .
67(4) . . .
63(4) . . .
66(5) . . .
55(4) . . .
49(4) . . .
50(4) . . .
60(4) . . .
71(5) . . .
57(4) . . .
57(4) . . .
58(4) . . .
59(4) . . .
61(4) . . .
74(5) . . .
61(4) . . .
65(4) . . .
49(4) . . .
53(4) . . .
56(4) . . .
68(4) . . .
65(4) . . .
54(4) . . .
63(4) . . .
63(4) . . .
58(4) . . .
59(4) . . .
50(4) . . .
61(5) . . .
55(4) . . .
60(4) . . .
59(4) . . .
67(5) . . .
56(4) . . .
64(4) . . .
59(4) . . .
64(4) . . .
58(4) . . .
64(4) . . .
58(4) . . .
68(4) . . .
63(4) . . .
63(4) . . .
65(4) . . .
69(5) . . .
52(4) . . .
55(4) . . .
70(4) . . .
77(5) . . .
71(4) . . .
59(4) . . .
52(4) . . .
66(5) . . .
64(4) . . .
58(4) . . .
63(4) . . .
54(4) . . .
69(5) . . .
54(4) . . .
57(4) . . .
55(4) . . .
55(4) . . .
51(4) . . .
66(4) . . .
66(4) . . .
53(4) . . .
65(4) . . .
59(4) . . .
55(4) . . .
64(4) . . .
56(4) . . .
57(4) . . .
71(5) . . .
59(4) . . .
51(4) . . .
55(4) . . .
58(4) . . .
52(4) . . .
56(4) . . .
58(4) . . .
64(4) . . .
57(4) . . .
64(5) . . .
54(4) . . .
54(4) . . .
53(4) . . .
59(4) . . .
64(4) . . .
54(4) . . .
68(4) . . .
48(4) . . .
72(5) . . .
58(4) . . .
66(4) . . .
66(4) . . .
61(4) . . .
61(4) . . .
59(4) . . .
63(4) . . .
69(4) . . .
62(4) . . .
68(5) . . .
65(4) . . .
65(4) . . .
61(4) . . .
56(4) . . .
63(4) . . .
55(4) . . .
54(4) . . .
67(4) . . .
62(4) . . .
57(4) . . .
68(5) . . .
58(4) . . .
60(4) . . .
57(4) . . .
62(4) . . .
55(4) . . .
48(4) . . .
61(4) . . .
63(4) . . .
54(4) . . .
54(4) . . .
69(4) . . .
68(4) . . .
55(4) . . .
69(5) . . .
71(4) . . .
55(4) . . .
51(4) . . .
53(4) . . .
55(4) . . .
62(4) . . .
52(4) . . .
65(4) . . .
67(4) . . .
67(4) . . .
68(4) . . .
65(4) . . .
66(5) . . .
61(4) . . .
57(4) . . .
58(4) . . .
65(4) . . .
60(4) . . .
63(4) . . .
65(4) . . .
65(4) . . .
63(4) . . .
66(5) . . .
47(4) . . .
58(4) . . .
58(4) . . .
58(4) . . .
58(4) . . .
49(4) . . .
60(4) . . .
52(4) . . .
48(4) . . .
57(4) . . .
56(4) . . .
62(4) . . .
55(4) . . .
54(4) . . .
63(4) . . .
61(4) . . .
61(4) . . .
71(4) . . .
62(4) . . .
58(4) . . .
62(4) . . .
63(4) . . .
59(4) . . .
59(4) . . .
57(4) . . .
61(4) . . .
62(4) . . .
54(4) . . .
54(4) . . .
70(5) . . .
56(4) . . .
61(4) . . .
72(4) . . .
60(4) . . .
60(4) . . .
65(4) . . .
57(4) . . .
53(4) . . .
52(4) . . .
67(4) . . .
70(5) . . .
61(4) . . .
56(4) . . .
52(4) . . .
56(4) . . .
64(4) . . .
70(4) . . .
63(4) . . .
64(4) . . .
59(4) . . .
64(4) . . .
58(4) . . .
64(4) . . .
75(5) . . .
56(4) . . .
66(4) . . .
68(4) . . .
56(4) . . .
55(4) . . .
63(4) . . .
63(4) . . .
63(4) . . .
57(4) . . .
61(4) . . .
62(5) . . .
48(4) . . .
68(4) . . .
65(4) . . .
64(4) . . .
54(4) . . .
55(4) . . .
63(4) . . .
57(4) . . .
62(4) . . .
61(4) . . .
68(5) . . .
59(4) . . .
70(5) . . .
56(4) . . .
58(4) . . .
63(4) . . .
59(4) . . .
56(4) . . .
61(4) . . .
53(4) . . .
61(4) . . .
62(4) . . .
66(4) . . .
54(4) . . .
57(4) . . .
63(4) . . .
65(4) . . .
63(4) . . .
61(4) . . .
59(4) . . .
68(4) . . .
63(4) . . .
61(4) . . .
58(4) . . .
58(4) . . .
70(4) . . .
65(4) . . .
55(4) . . .
53(4) . . .
67(4) . . .
59(4) . . .
45.1(35) . . .
55(4) . . .
64(5) . . .
57(4) . . .
56(4) . . .
65(4) . . .
70(5) . . .
58(4) . . .
62(4) . . .
68(4) . . .
62(4) . . .
54(4) . . .
63(4) . . .
51(4) . . .
64(4) . . .
55(4) . . .
51(4) . . .
58(4) . . .
57(4) . . .
49(4) . . .
52(4) . . .
49(4) . . .
61(4) . . .
62(4) . . .
61(4) . . .
60(4) . . .
58(4) . . .
58(4) . . .
65(4) . . .
61(4) . . .
59(4) . . .
61(4) . . .
54(4) . . .
73(5) . . .
61(4) . . .
49(4) . . .
60(4) . . .
59(4) . . .
50(4) . . .
67(4) . . .
59(4) . . .
49(4) . . .
71(5) . . .
60(4) . . .
61(4) . . .
49(4) . . .
55(4) . . .
57(4) . . .
60(4) . . .
57(4) . . .
52(4) . . .
53(4) . . .
59(4) . . .
71(4) . . .
69(4) . . .
55(4) . . .
56(4) . . .
63(4) . . .
52(4) . . .
62(4) . . .
58(4) . . .
61(4) . . .
69(5) . . .
62(4) . . .
59(4) . . .
56(4) . . .
57(4) . . .
56(4) . . .
56(4) . . .
56(4) . . .
54(4) . . .
56(4) . . .
66(4) . . .
72(4) . . .
66(4) . . .
63(4) . . .
58(4) . . .
54(4) . . .
61(4) . . .
49(4) . . .
51(4) . . .
60(4) . . .
63(4) . . .
60(4) . . .
59(4) . . .
57(4) . . .
54(4) . . .
63(4) . . .
62(4) . . .
62(4) . . .
61(4) . . .
61(4) . . .
62(4) . . .
60(4) . . .
64(4) . . .
53(4) . . .
57(4) . . .
61(4) . . .
63(4) . . .
53(4) . . .
63(4) . . .
63(4) . . .
66(4) . . .
59(4) . . .
62(4) . . .
59(4) . . .
62(4) . . .
61(4) . . .
57(4) . . .
57(4) . . .
56(4) . . .
54(4) . . .
53(4) . . .
66(4) . . .
55(4) . . .
59(4) . . .
58(4) . . .
63(4) . . .
52(4) . . .
63(4) . . .
47(4) . . .
50(4) . . .
65(4) . . .
70(4) . . .
63(4) . . .
58(4) . . .
65(4) . . .
61(4) . . .
63(4) . . .
56(4) . . .
54(4) . . .
54(4) . . .
64(4) . . .
57(4) . . .
52(4) . . .
65(4) . . .
53(4) . . .
51(4) . . .
51(4) . . .
52(4) . . .
59(4) . . .
67(4) . . .
55(4) . . .
69(4) . . .
56(4) . . .
64(4) . . .
59(4) . . .
57(4) . . .
58(4) . . .
50(4) . . .
59(4) . . .
58(4) . . .
54(4) . . .
63(4) . . .
53(4) . . .
51(4) . . .
52(4) . . .
56(4) . . .
60(4) . . .
57(4) . . .
59(4) . . .
54(4) . . .
58(4) . . .
48(4) . . .
62(4) . . .
68(4) . . .
53(4) . . .
72(4) . . .
61(4) . . .
64(5) . . .
51(4) . . .
57(4) . . .
61(4) . . .
61(4) . . .
57(4) . . .
60(4) . . .
64(4) . . .
68(4) . . .
57(4) . . .
64(4) . . .
61(4) . . .
47(4) . . .
53(4) . . .
74(5) . . .
59(4) . . .
64(5) . . .
61(4) . . .
71(4) . . .
64(4) . . .
64(4) . . .
59(4) . . .
54(4) . . .
52(4) . . .
54(4) . . .
56(4) . . .
59(4) . . .
66(4) . . .
64(4) . . .
66(5) . . .
60(4) . . .
62(4) . . .
69(4) . . .
67(4) . . .
66(5) . . .
54(4) . . .
67(4) . . .
62(4) . . .
69(4) . . .
56(4) . . .
62(4) . . .
64(4) . . .
53(4) . . .
57(4) . . .
62(4) . . .
65(4) . . .
61(4) . . .
72(5) . . .
53(4) . . .
58(4) . . .
65(4) . . .
67(4) . . .
55(4) . . .
53(4) . . .
62(4) . . .
59(4) . . .
60(4) . . .
51(4) . . .
67(4) . . .
54(4) . . .
61(4) . . .
50(4) . . .
59(4) . . .
55(4) . . .
53(4) . . .
58(4) . . .
60(4) . . .
55(4) . . .
66(4) . . .
61(4) . . .
51(4) . . .
65(4) . . .
60(4) . . .
59(4) . . .
53(4) . . .
49(4) . . .
59(4) . . .
55(4) . . .
55(4) . . .
59(4) . . .
71(4) . . .
63(4) . . .
67(4) . . .
61(4) . . .
61(4) . . .
63(4) . . .
58(4) . . .
58(4) . . .
56(4) . . .
52(4) . . .
63(4) . . .
60(4) . . .
54(4) . . .
68(5) . . .
71(5) . . .
51(4) . . .
54(4) . . .
64(4) . . .
60(4) . . .
51(4) . . .
59(4) . . .
56(4) . . .
57(4) . . .
58(4) . . .
54(4) . . .
57(4) . . .
62(4) . . .
52(4) . . .
55(4) . . .
61(4) . . .
64(4) . . .
56(4) . . .
52(4) . . .
49(4) . . .
59(4) . . .
51(4) . . .
53(4) . . .
52(4) . . .
46(4) . . .
64(4) . . .
59(4) . . .
55(4) . . .
64(4) . . .
57(4) . . .
59(4) . . .
60(4) . . .
65(4) . . .
69(5) . . .
68(4) . . .
57(4) . . .
62(4) . . .
63(4) . . .
69(5) . . .
57(4) . . .
53(4) . . .
53(4) . . .
52(4) . . .
50(4) . . .
52(4) . . .
54(4) . . .
63(4) . . .
60(4) . . .
58(4) . . .
51(4) . . .
67(4) . . .
56(4) . . .
54(4) . . .
54(4) . . .
58(4) . . .
51(4) . . .
60(4) . . .
56(4) . . .
63(5) . . .
63(4) . . .
63(4) . . .
63(4) . . .
67(4) . . .
68(5) . . .
61(4) . . .
53(4) . . .
61(4) . . .
61(4) . . .
57(4) . . .
55(4) . . .
64(4) . . .
59(4) . . .
71(5) . . .
55(4) . . .
65(4) . . .
60(4) . . .
70(4) . . .
75(5) . . .
66(4) . . .
69(4) . . .
61(4) . . .
54(4) . . .
59(4) . . .
45(4) . . .
61(4) . . .
57(4) . . .
70(4) . . .
61(4) . . .
58(4) . . .
58(4) . . .
58(4) . . .
65(4) . . .
53(4) . . .
55(4) . . .
57(4) . . .
65(4) . . .
57(4) . . .
63(4) . . .
53(4) . . .
54(4) . . .
53(4) . . .
55(4) . . .
58(4) . . .
64(4) . . .
57(4) . . .
48(4) . . .
48(4) . . .
55(4) . . .
51(4) . . .
61(4) . . .
60(4) . . .
46(4) . . .
51(4) . . .
52(4) . . .
58(4) . . .
57(4) . . .
64(4) . . .
58(4) . . .
60(4) . . .
62(4) . . .
53(4) . . .
53(4) . . .
58(4) . . .
59(4) . . .
62(4) . . .
54(4) . . .
57(4) . . .
65(5) . . .
60(4) . . .
62(4) . . .
53(4) . . .
50(4) . . .
65(5) . . .
42(4) . . .
55(4) . . .
55(4) . . .
58(4) . . .
60(4) . . .
55(4) . . .
53(4) . . .
68(4) . . .
55(4) . . .
52(4) . . .
46(4) . . .
58(4) . . .
51(4) . . .
58(4) . . .
52(4) . . .
60(4) . . .
59(4) . . .
53(4) . . .
52(4) . . .
53(4) . . .
54(4) . . .
58(4) . . .
50(4) . . .
70(5) . . .
59(4) . . .
68(4) . . .
62(4) . . .
50(4) . . .
45(4) . . .
55(4) . . .
56(4) . . .
55(4) . . .
59(4) . . .
54(4) . . .
53(4) . . .
49(4) . . .
53(4) . . .
50(4) . . .
68(5) . . .
64(4) . . .
59(4) . . .
55(4) . . .
53(4) . . .
63(5) . . .
56(4) . . .
61(4) . . .
53(4) . . .
64(4) . . .
62(4) . . .
66(4) . . .
62(4) . . .
58(4) . . .
63(4) . . .
57(4) . . .
63(4) . . .
60(4) . . .
59(4) . . .
56(4) . . .
56(4) . . .
58(4) . . .
59(4) . . .
66(4) . . .
54(4) . . .
52(4) . . .
54(4) . . .
62(4) . . .
60(4) . . .
54(4) . . .
59(4) . . .
57(4) . . .
64(4) . . .
68(4) . . .
60(4) . . .
56(4) . . .
63(4) . . .
59(4) . . .
58(4) . . .
51(4) . . .
62(4) . . .
47(4) . . .
42.3(33) . . .
50(4) . . .
53(4) . . .
54(4) . . .
54(4) . . .
54(4) . . .
54(4) . . .
54(4) . . .
57(4) . . .
59(4) . . .
61(4) . . .
67(5) . . .
50(4) . . .
63(5) . . .
63(4) . . .
51(4) . . .
61(4) . . .
65(4) . . .
52(4) . . .
58(4) . . .
55(4) . . .
57(4) . . .
62(4) . . .
65(4) . . .
66(4) . . .
63(4) . . .
63(4) . . .
64(4) . . .
66(4) . . .
64(4) . . .
65(4) . . .
63(5) . . .
60(4) . . .
53(4) . . .
57(4) . . .
64(4) . . .
57(4) . . .
60(4) . . .
64(4) . . .
62(4) . . .
61(4) . . .
65(4) . . .
64(4) . . .
50(4) . . .
47(4) . . .
68(4) . . .
56(4) . . .
58(4) . . .
54(4) . . .
64(4) . . .
54(4) . . .
55(4) . . .
62(4) . . .
49(4) . . .
53(4) . . .
68(4) . . .
63(4) . . .
64(4) . . .
59(4) . . .
63(4) . . .
58(4) . . .
56(4) . . .
62(4) . . .
67(4) . . .
56(4) . . .
56(4) . . .
54(4) . . .
61(4) . . .
54(4) . . .
58(4) . . .
61(4) . . .
48(4) . . .
58(4) . . .
68(4) . . .
56(4) . . .
50(4) . . .
54(4) . . .
57(4) . . .
68(4) . . .
60(4) . . .
56(4) . . .
64(4) . . .
67(4) . . .
57(4) . . .
50(4) . . .
67(5) . . .
50(4) . . .
54(4) . . .
61(4) . . .
56(4) . . .
57(4) . . .
64(4) . . .
51(4) . . .
64(4) . . .
47(4) . . .
63(4) . . .
64(4) . . .
55(4) . . .
60(4) . . .
62(4) . . .
62(4) . . .
59(4) . . .
58(4) . . .
49(4) . . .
53(4) . . .
60(4) . . .
57(4) . . .
55(4) . . .
63(4) . . .
57(4) . . .
64(4) . . .
59(4) . . .
51(4) . . .
51(4) . . .
59(4) . . .
58(4) . . .
60(4) . . .
52(4) . . .
54(4) . . .
57(4) . . .
59(4) . . .
61(4) . . .
49(4) . . .
52(4) . . .
63(4) . . .
48(4) . . .
55(4) . . .
61(4) . . .
60(4) . . .
65(4) . . .
59(4) . . .
58(4) . . .
59(4) . . .
44.6(34) . . .
51(4) . . .
51(4) . . .
52(4) . . .
62(4) . . .
57(4) . . .
58(4) . . .
58(4) . . .
61(4) . . .
54(4) . . .
55(4) . . .
63(4) . . .
53(4) . . .
62(4) . . .
54(4) . . .
63(4) . . .
59(4) . . .
57(4) . . .
46(4) . . .
52(4) . . .
58(4) . . .
59(4) . . .
64(4) . . .
61(4) . . .
60(4) . . .
60(4) . . .
56(4) . . .
59(4) . . .
50(4) . . .
59(4) . . .
62(4) . . .
58(4) . . .
47(4) . . .
64(4) . . .
65(4) . . .
53(4) . . .
61(4) . . .
57(4) . . .
52(4) . . .
62(4) . . .
53(4) . . .
54(4) . . .
61(4) . . .
61(4) . . .
59(4) . . .
62(4) . . .
57(4) . . .
60(4) . . .
64(4) . . .
53(4) . . .
53(4) . . .
64(4) . . .
66(4) . . .
59(4) . . .
54(4) . . .
57(4) . . .
53(4) . . .
51(4) . . .
48(4) . . .
43.5(35) . . .
51(4) . . .
58(4) . . .
58(4) . . .
59(4) . . .
52(4) . . .
52(4) . . .
61(4) . . .
57(4) . . .
48(4) . . .
63(4) . . .
69(5) . . .
59(4) . . .
60(4) . . .
54(4) . . .
60(4) . . .
54(4) . . .
53(4) . . .
63(4) . . .
64(4) . . .
60(4) . . .
58(4) . . .
56(4) . . .
62(4) . . .
68(4) . . .
60(4) . . .
62(4) . . .
63(4) . . .
60(4) . . .
53(4) . . .
49(4) . . .
62(4) . . .
53(4) . . .
61(4) . . .
48(4) . . .
51(4) . . .
52(4) . . .
59(4) . . .
57(4) . . .
59(4) . . .
54(4) . . .
60(4) . . .
60(4) . . .
52(4) . . .
63(4) . . .
45(4) . . .
56(4) . . .
55(4) . . .
65(4) . . .
60(4) . . .
61(4) . . .
55(4) . . .
63(4) . . .
51(4) . . .
49(4) . . .
62(5) . . .
57(4) . . .
61(4) . . .
58(4) . . .
51(4) . . .
57(4) . . .
52(4) . . .
54(4) . . .
54(4) . . .
62(4) . . .
56(4) . . .
60(4) . . .
50(4) . . .
42.7(34) . . .
52(4) . . .
60(4) . . .
57(4) . . .
50(4) . . .
58(4) . . .
61(4) . . .
57(4) . . .
55(4) . . .
59(4) . . .
57(4) . . .
60(4) . . .
58(4) . . .
63(4) . . .
51(4) . . .
58(4) . . .
50(4) . . .
53(4) . . .
53(4) . . .
61(4) . . .
61(4) . . .
59(4) . . .
48(4) . . .
62(4) . . .
63(4) . . .
52(4) . . .
62(4) . . .
61(4) . . .
63(4) . . .
51(4) . . .
61(4) . . .
60(4) . . .
53(4) . . .
51(4) . . .
55(4) . . .
52(4) . . .
59(4) . . .
60(4) . . .
54(4) . . .
56(4) . . .
61(4) . . .
59(4) . . .
50(4) . . .
61(4) . . .
68(4) . . .
57(4) . . .
53(4) . . .
52(4) . . .
54(4) . . .
56(4) . . .
54(4) . . .
58(4) . . .
64(4) . . .
54(4) . . .
52(4) . . .
52(4) . . .
55(4) . . .
67(4) . . .
52(4) . . .
53(4) . . .
64(4) . . .
61(4) . . .
55(4) . . .
41.0(33) . . .
55(4) . . .
53(4) . . .
60(4) . . .
59(4) . . .
43.8(34) . . .
53(4) . . .
62(4) . . .
58(4) . . .
58(4) . . .
45.0(35) . . .
48(4) . . .
56(4) . . .
66(4) . . .
54(4) . . .
67(4) . . .
66(4) . . .
60(4) . . .
55(4) . . .
46.1(35) . . .
45(4) . . .
61(4) . . .
57(4) . . .
52(4) . . .
53(4) . . .
58(4) . . .
64(4) . . .
57(4) . . .
58(4) . . .
66(4) . . .
48(4) . . .
59(4) . . .
60(4) . . .
57(4) . . .
53(4) . . .
59(4) . . .
62(4) . . .
66(5) . . .
66(4) . . .
58(4) . . .
53(4) . . .
57(4) . . .
52(4) . . .
60(5) . . .
54(4) . . .
58(4) . . .
58(4) . . .
49(4) . . .
56(4) . . .
50(4) . . .
51(4) . . .
58(4) . . .
57(4) . . .
58(4) . . .
58(4) . . .
59(4) . . .
54(4) . . .
55(4) . . .
55(4) . . .
44.7(35) . . .
57(4) . . .
64(4) . . .
60(4) . . .
43.8(35) . . .
48(4) . . .
51(4) . . .
68(5) . . .
50(4) . . .
59(4) . . .
61(4) . . .
55(4) . . .
63(4) . . .
51(4) . . .
62(4) . . .
62(4) . . .
67(4) . . .
56(4) . . .
55(4) . . .
52(4) . . .
52(4) . . .
50(4) . . .
57(4) . . .
59(4) . . .
62(4) . . .
57(4) . . .
61(4) . . .
54(4) . . .
51(4) . . .
50(4) . . .
65(4) . . .
58(4) . . .
49(4) . . .
56(4) . . .
55(4) . . .
60(4) . . .
58(4) . . .
56(4) . . .
61(4) . . .
54(4) . . .
51(4) . . .
60(4) . . .
57(4) . . .
55(4) . . .
55(4) . . .
58(4) . . .
51(4) . . .
61(4) . . .
59(4) . . .
73(4) . . .
63(4) . . .
57(4) . . .
46(4) . . .
49(4) . . .
55(4) . . .
48(4) . . .
46(4) . . .
47(4) . . .
54(4) . . .
55(4) . . .
48(4) . . .
52(4) . . .
50(4) . . .
42.2(34) . . .
57(4) . . .
55(4) . . .
53(4) . . .
50(4) . . .
55(4) . . .
58(4) . . .
68(4) . . .
57(4) . . .
43.4(35) . . .
56(4) . . .
51(4) . . .
47(4) . . .
56(4) . . .
65(4) . . .
47(4) . . .
58(4) . . .
56(4) . . .
59(4) . . .
56(4) . . .
57(4) . . .
60(4) . . .
62(4) . . .
52(4) . . .
51(4) . . .
55(4) . . .
66(4) . . .
70(5) . . .
56(4) . . .
65(4) . . .
61(4) . . .
57(4) . . .
54(4) . . .
63(4) . . .
55(4) . . .
67(4) . . .
56(4) . . .
63(4) . . .
53(4) . . .
61(4) . . .
65(4) . . .
68(5) . . .
64(5) . . .
58(4) . . .
53(4) . . .
55(4) . . .
56(4) . . .
63(4) . . .
60(4) . . .
52(4) . . .
54(4) . . .
55(4) . . .
46(4) . . .
59(5) . . .
64(4) . . .
57(4) . . .
59(4) . . .
55(4) . . .
62(4) . . .
61(4) . . .
49(4) . . .
50(4) . . .
60(4) . . .
52(4) . . .
52(4) . . .
55(4) . . .
56(4) . . .
53(4) . . .
56(4) . . .
57(4) . . .
68(4) . . .
64(4) . . .
68(5) . . .
59(4) . . .
55(4) . . .
69(4) . . .
62(4) . . .
55(4) . . .
51(4) . . .
55(4) . . .
66(4) . . .
63(4) . . .
54(4) . . .
62(4) . . .
62(4) . . .
61(4) . . .
54(4) . . .
56(4) . . .
58(4) . . .
59(4) . . .
52(4) . . .
54(4) . . .
52(4) . . .
55(4) . . .
49(4) . . .
53(4) . . .
57(4) . . .
64(4) . . .
58(4) . . .
50(4) . . .
64(4) . . .
54(4) . . .
61(4) . . .
66(4) . . .
60(4) . . .
56(4) . . .
61(4) . . .
66(4) . . .
67(4) . . .
59(4) . . .
48(4) . . .
49(4) . . .
48(4) . . .
51(4) . . .
51(4) . . .
52(4) . . .
56(4) . . .
58(4) . . .
64(4) . . .
61(4) . . .
51(4) . . .
61(4) . . .
54(4) . . .
54(4) . . .
59(4) . . .
68(4) . . .
60(4) . . .
57(4) . . .
49(4) . . .
52(4) . . .
47(4) . . .
69(4) . . .
64(4) . . .
58(4) . . .
54(4) . . .
61(4) . . .
57(4) . . .
58(4) . . .
48(4) . . .
53(4) . . .
54(4) . . .
58(4) . . .
66(4) . . .
52(4) . . .
61(4) . . .
64(4) . . .
63(4) . . .
44.0(35) . . .
66(4) . . .
53(4) . . .
52(4) . . .
59(4) . . .
45(4) . . .
58(4) . . .
49(4) . . .
49(4) . . .
47(4) . . .
54(4) . . .
53(4) . . .
54(4) . . .
49(4) . . .
46(4) . . .
53(4) . . .
52(4) . . .
57(4) . . .
61(4) . . .
49(4) . . .
58(4) . . .
52(4) . . .
54(4) . . .
52(4) . . .
57(4) . . .
50(4) . . .
54(4) . . .
56(4) . . .
54(4) . . .
57(4) . . .
54(4) . . .
59(4) . . .
56(4) . . .
48(4) . . .
46(4) . . .
47(4) . . .
54(4) . . .
66(5) . . .
49(4) . . .
67(4) . . .
57(4) . . .
58(4) . . .
56(4) . . .
54(4) . . .
56(4) . . .
54(4) . . .
53(4) . . .
60(4) . . .
57(4) . . .
60(4) . . .
59(4) . . .
67(4) . . .
61(4) . . .
55(4) . . .
58(4) . . .
66(4) . . .
57(4) . . .
55(4) . . .
66(4) . . .
57(4) . . .
50(4) . . .
61(4) . . .
71(5) . . .
49(4) . . .
51(4) . . .
50(4) . . .
49(4) . . .
58(4) . . .
60(4) . . .
59(4) . . .
50(4) . . .
57(4) . . .
55(4) . . .
58(4) . . .
70(4) . . .
59(4) . . .
48(4) . . .
65(4) . . .
59(4) . . .
71(4) . . .
60(4) . . .
59(4) . . .
57(4) . . .
69(4) . . .
60(4) . . .
54(4) . . .
59(4) . . .
58(4) . . .
52(4) . . .
62(4) . . .
51(4) . . .
47(4) . . .
50(4) . . .
58(4) . . .
58(4) . . .
53(4) . . .
58(4) . . .
56(4) . . .
48(4) . . .
51(4) . . .
60(4) . . .
54(4) . . .
55(4) . . .
49(4) . . .
56(4) . . .
57(4) . . .
54(4) . . .
59(4) . . .
50(4) . . .
50(4) . . .
52(4) . . .
54(4) . . .
58(4) . . .
54(4) . . .
55(4) . . .
64(4) . . .
52(4) . . .
41.8(35) . . .
50(4) . . .
50(4) . . .
50(4) . . .
59(4) . . .
60(4) . . .
49(4) . . .
56(4) . . .
61(4) . . .
53(4) . . .
63(4) . . .
51(4) . . .
51(4) . . .
54(4) . . .
50(4) . . .
52(4) . . .
62(4) . . .
56(4) . . .
62(4) . . .
53(4) . . .
59(4) . . .
64(4) . . .
52(4) . . .
64(4) . . .
65(4) . . .
54(4) . . .
58(4) . . .
55(4) . . .
57(4) . . .
52(4) . . .
50(4) . . .
65(4) . . .
55(4) . . .
59(4) . . .
55(4) . . .
47(4) . . .
52(4) . . .
56(4) . . .
57(4) . . .
59(4) . . .
53(4) . . .
61(4) . . .
58(4) . . .
60(4) . . .
57(4) . . .
59(4) . . .
43.0(35) . . .
51(4) . . .
54(4) . . .
45.6(35) . . .
50(4) . . .
62(4) . . .
69(5) . . .
62(4) . . .
58(4) . . .
62(4) . . .
55(4) . . .
57(4) . . .
50(4) . . .
58(4) . . .
53(4) . . .
58(4) . . .
61(4) . . .
63(4) . . .
50(4) . . .
59(4) . . .
63(4) . . .
59(4) . . .
58(4) . . .
56(4) . . .
55(4) . . .
65(4) . . .
50(4) . . .
52(4) . . .
63(4) . . .
52(4) . . .
57(4) . . .
48(4) . . .
59(4) . . .
43.2(34) . . .
52(4) . . .
55(4) . . .
60(4) . . .
53(4) . . .
48(4) . . .
53(4) . . .
60(4) . . .
52(4) . . .
54(4) . . .
59(4) . . .
58(4) . . .
63(4) . . .
50(4) . . .
60(4) . . .
46(4) . . .
50(4) . . .
55(4) . . .
63(4) . . .
55(4) . . .
61(4) . . .
52(4) . . .
55(4) . . .
59(4) . . .
58(4) . . .
46(4) . . .
55(4) . . .
57(4) . . .
61(4) . . .
57(4) . . .
50(4) . . .
53(4) . . .
58(4) . . .
52(4) . . .
57(4) . . .
56(4) . . .
52(4) . . .
60(4) . . .
52(4) . . .
50(4) . . .
67(4) . . .
57(4) . . .
56(4) . . .
61(4) . . .
51(4) . . .
59(4) . . .
67(4) . . .
63(4) . . .
60(4) . . .
60(4) . . .
50(4) . . .
55(4) . . .
51(4) . . .
58(4) . . .
55(4) . . .
58(4) . . .
51(4) . . .
61(4) . . .
71(4) . . .
57(4) . . .
47(4) . . .
58(4) . . .
56(4) . . .
61(4) . . .
63(4) . . .
52(4) . . .
52(4) . . .
54(4) . . .
64(4) . . .
57(4) . . .
64(4) . . .
65(4) . . .
59(4) . . .
57(4) . . .
58(4) . . .
50(4) . . .
56(4) . . .
64(4) . . .
62(4) . . .
52(4) . . .
55(4) . . .
51(4) . . .
62(5) . . .
59(4) . . .
47(4) . . .
56(4) . . .
50(4) . . .
48(4) . . .
63(4) . . .
54(4) . . .
54(4) . . .
63(5) . . .
58(4) . . .
56(4) . . .
54(4) . . .
63(5) . . .
57(4) . . .
55(4) . . .
57(4) . . .
52(4) . . .
58(4) . . .
59(4) . . .
58(4) . . .
58(4) . . .
58(4) . . .
62(4) . . .
65(4) . . .
56(4) . . .
57(4) . . .
51(4) . . .
57(4) . . .
52(4) . . .
55(4) . . .
54(4) . . .
52(4) . . .
49(4) . . .
58(4) . . .
60(4) . . .
55(4) . . .
55(4) . . .
59(4) . . .
57(4) . . .
52(4) . . .
45.7(35) . . .
61(4) . . .
61(4) . . .
59(4) . . .
53(4) . . .
59(4) . . .
51(4) . . .
54(4) . . .
58(4) . . .
54(4) . . .
48(4) . . .
51(4) . . .
59(4) . . .
65(4) . . .
58(4) . . .
55(4) . . .
54(4) . . .
49(4) . . .
55(4) . . .
47(4) . . .
57(4) . . .
51(4) . . .
52(4) . . .
56(4) . . .
60(4) . . .
53(4) . . .
57(4) . . .
66(5) . . .
55(4) . . .
54(4) . . .
74(4) . . .
62(4) . . .
64(4) . . .
52(4) . . .
57(4) . . .
63(4) . . .
56(4) . . .
66(4) . . .
65(4) . . .
62(4) . . .
59(4) . . .
59(4) . . .
57(4) . . .
68(4) . . .
59(4) . . .
58(4) . . .
64(4) . . .
64(4) . . .
56(4) . . .
61(4) . . .
58(4) . . .
57(4) . . .
66(5) . . .
63(4) . . .
64(4) . . .
62(4) . . .
52(4) . . .
65(4) . . .
58(4) . . .
56(4) . . .
59(4) . . .
50(4) . . .
48(4) . . .
49(4) . . .
62(4) . . .
62(4) . . .
70(5) . . .
59(4) . . .
63(4) . . .
58(4) . . .
53(4) . . .
58(4) . . .
54(4) . . .
53(4) . . .
53(4) . . .
54(4) . . .
51(4) . . .
57(4) . . .
51(4) . . .
59(4) . . .
55(4) . . .
64(4) . . .
62(4) . . .
50(4) . . .
58(4) . . .
61(4) . . .
52(4) . . .
61(4) . . .
66(4) . . .
55(4) . . .
65(4) . . .
61(4) . . .
63(4) . . .
59(4) . . .
54(4) . . .
58(4) . . .
56(4) . . .
57(4) . . .
68(4) . . .
45.1(35) . . .
58(4) . . .
59(4) . . .
54(4) . . .
61(4) . . .
60(4) . . .
58(4) . . .
54(4) . . .
53(4) . . .
61(4) . . .
46(4) . . .
60(4) . . .
58(4) . . .
61(4) . . .
61(4) . . .
50(4) . . .
55(4) . . .
66(4) . . .
60(4) . . .
64(4) . . .
57(4) . . .
51(4) . . .
55(4) . . .
55(4) . . .
70(4) . . .
77(5) . . .
66(4) . . .
55(4) . . .
54(4) . . .
56(4) . . .
52(4) . . .
65(4) . . .
60(4) . . .
56(4) . . .
56(4) . . .
65(4) . . .
60(4) . . .
59(4) . . .
52(4) . . .
63(4) . . .
50(4) . . .
57(4) . . .
55(4) . . .
48(4) . . .
61(4) . . .
55(4) . . .
65(4) . . .
66(4) . . .
58(4) . . .
52(4) . . .
60(4) . . .
53(4) . . .
49(4) . . .
70(4) . . .
66(4) . . .
51(4) . . .
48(4) . . .
62(4) . . .
54(4) . . .
57(4) . . .
54(4) . . .
59(4) . . .
71(5) . . .
57(4) . . .
61(4) . . .
57(4) . . .
49(4) . . .
63(4) . . .
53(4) . . .
59(4) . . .
63(4) . . .
46(4) . . .
54(4) . . .
61(4) . . .
62(4) . . .
60(4) . . .
56(4) . . .
60(4) . . .
63(4) . . .
58(4) . . .
60(4) . . .
58(4) . . .
67(4) . . .
67(4) . . .
65(4) . . .
63(4) . . .
61(4) . . .
55(4) . . .
52(4) . . .
56(4) . . .
60(4) . . .
54(4) . . .
60(4) . . .
57(4) . . .
73(5) . . .
65(4) . . .
61(4) . . .
59(4) . . .
63(4) . . .
53(4) . . .
54(4) . . .
63(4) . . .
57(4) . . .
51(4) . . .
60(4) . . .
51(4) . . .
50(4) . . .
43.3(34) . . .
50(4) . . .
56(4) . . .
57(4) . . .
41.5(34) . . .
50(4) . . .
54(4) . . .
55(4) . . .
66(5) . . .
55(4) . . .
62(4) . . .
56(4) . . .
46(4) . . .
52(4) . . .
58(4) . . .
60(4) . . .
53(4) . . .
60(4) . . .
51(4) . . .
55(4) . . .
49(4) . . .
59(4) . . .
66(5) . . .
60(4) . . .
57(4) . . .
52(4) . . .
53(4) . . .
46(4) . . .
51(4) . . .
54(4) . . .
59(4) . . .
56(4) . . .
64(5) . . .
74(5) . . .
63(4) . . .
62(4) . . .
55(4) . . .
67(5) . . .
53(4) . . .
51(4) . . .
55(4) . . .
59(4) . . .
46(4) . . .
57(4) . . .
57(4) . . .
56(4) . . .
55(4) . . .
55(4) . . .
46(4) . . .
49(4) . . .
51(4) . . .
51(4) . . .
56(4) . . .
59(4) . . .
54(4) . . .
61(4) . . .
63(5) . . .
51(4) . . .
51(4) . . .
48(4) . . .
75(5) . . .
66(4) . . .
67(4) . . .
55(4) . . .
58(4) . . .
56(4) . . .
54(4) . . .
46(4) . . .
58(4) . . .
53(4) . . .
55(4) . . .
48(4) . . .
66(4) . . .
66(4) . . .
58(4) . . .
48(4) . . .
52(4) . . .
52(4) . . .
58(4) . . .
53(4) . . .
57(4) . . .
59(4) . . .
59(4) . . .
52(4) . . .
52(4) . . .
56(4) . . .
54(4) . . .
65(5) . . .
62(4) . . .
63(4) . . .
59(4) . . .
59(4) . . .
55(4) . . .
61(4) . . .
54(4) . . .
58(4) . . .
49(4) . . .
61(4) . . .
49(4) . . .
54(4) . . .
58(4) . . .
52(4) . . .
53(4) . . .
63(4) . . .
53(4) . . .
65(4) . . .
61(4) . . .
59(4) . . .
65(4) . . .
45(4) . . .
52(4) . . .
46(4) . . .
50(4) . . .
62(4) . . .
52(4) . . .
51(4) . . .
58(4) . . .
51(4) . . .
65(4) . . .
52(4) . . .
49(4) . . .
57(4) . . .
55(4) . . .
42.4(34) . . .
52(4) . . .
52(4) . . .
53(4) . . .
61(4) . . .
45(4) . . .
54(4) . . .
56(4) . . .
48(4) . . .
57(4) . . .
54(4) . . .
56(4) . . .
66(5) . . .
52(4) . . .
52(4) . . .
62(4) . . .
61(4) . . .
65(5) . . .
67(4) . . .
60(4) . . .
60(4) . . .
58(4) . . .
64(5) . . .
49(4) . . .
48(4) . . .
62(4) . . .
49(4) . . .
68(5) . . .
58(4) . . .
49(4) . . .
57(4) . . .
52(4) . . .
56(4) . . .
50(4) . . .
58(4) . . .
51(4) . . .
56(4) . . .
59(4) . . .
61(4) . . .
58(4) . . .
58(4) . . .
67(5) . . .
52(4) . . .
55(4) . . .
55(4) . . .
55(4) . . .
51(4) . . .
68(5) . . .
61(4) . . .
61(4) . . .
59(4) . . .
55(4) . . .
57(4) . . .
62(4) . . .
64(4) . . .
63(4) . . .
62(4) . . .
48(4) . . .
52(4) . . .
46.6(35) . . .
50(4) . . .
57(4) . . .
68(5) . . .
54(4) . . .
63(4) . . .
57(4) . . .
54(4) . . .
60(4) . . .
56(4) . . .
51(4) . . .
47(4) . . .
58(4) . . .
62(4) . . .
67(4) . . .
51(4) . . .
59(4) . . .
51(4) . . .
64(4) . . .
62(4) . . .
48(4) . . .
53(4) . . .
53(4) . . .
46(4) . . .
65(4) . . .
56(4) . . .
57(4) . . .
52(4) . . .
61(4) . . .
58(4) . . .
60(4) . . .
55(4) . . .
60(4) . . .
50(4) . . .
47(4) . . .
61(4) . . .
57(4) . . .
60(4) . . .
54(4) . . .
57(4) . . .
60(4) . . .
55(4) . . .
62(4) . . .
43.0(34) . . .
54(4) . . .
52(4) . . .
56(4) . . .
55(4) . . .
56(4) . . .
51(4) . . .
52(4) . . .
58(4) . . .
51(4) . . .
56(4) . . .
60(4) . . .
65(4) . . .
57(4) . . .
56(4) . . .
53(4) . . .
56(4) . . .
60(4) . . .
60(4) . . .
52(4) . . .
51(4) . . .
60(4) . . .
50(4) . . .
52(4) . . .
67(5) . . .
53(4) . . .
46(4) . . .
64(4) . . .
56(4) . . .
60(4) . . .
57(4) . . .
58(4) . . .
57(4) . . .
53(4) . . .
63(4) . . .
57(4) . . .
56(4) . . .
49(4) . . .
55(4) . . .
56(4) . . .
64(4) . . .
64(4) . . .
54(4) . . .
54(4) . . .
59(4) . . .
61(4) . . .
59(4) . . .
59(4) . . .
59(4) . . .
51(4) . . .
67(4) . . .
53(4) . . .
62(4) . . .
61(4) . . .
50(4) . . .
64(4) . . .
55(4) . . .
58(4) . . .
61(4) . . .
58(4) . . .
57(4) . . .
51(4) . . .
54(4) . . .
57(4) . . .
61(4) . . .
58(4) . . .
62(4) . . .
57(4) . . .
62(4) . . .
63(4) . . .
58(4) . . .
59(4) . . .
63(5) . . .
53(4) . . .
58(4) . . .
64(4) . . .
58(4) . . .
56(4) . . .
49(4) . . .
53(4) . . .
57(4) . . .
60(4) . . .
54(4) . . .
55(4) . . .
55(4) . . .
73(5) . . .
61(4) . . .
65(5) . . .
49(4) . . .
54(4) . . .
51(4) . . .
65(4) . . .
62(4) . . .
63(4) . . .
61(4) . . .
68(5) . . .
53(4) . . .
65(4) . . .
62(4) . . .
60(4) . . .
60(4) . . .
53(4) . . .
61(4) . . .
60(4) . . .
54(4) . . .
46.1(34) . . .
58(4) . . .
47(4) . . .
61(4) . . .
55(4) . . .
53(4) . . .
50(4) . . .
55(4) . . .
56(4) . . .
50(4) . . .
59(4) . . .
68(5) . . .
51(4) . . .
48(4) . . .
48(4) . . .
50(4) . . .
61(4) . . .
58(4) . . .
60(4) . . .
67(4) . . .
53(4) . . .
53(4) . . .
54(4) . . .
53(4) . . .
61(4) . . .
54(4) . . .
58(4) . . .
45.2(35) . . .
59(4) . . .
47(4) . . .
47(4) . . .
42(4) . . .
50(4) . . .
58(4) . . .
55(4) . . .
62(4) . . .
57(4) . . .
59(4) . . .
61(4) . . .
63(4) . . .
59(4) . . .
46(4) . . .
54(4) . . .
57(4) . . .
57(4) . . .
51(4) . . .
49(4) . . .
58(4) . . .
56(4) . . .
59(4) . . .
52(4) . . .
57(4) . . .
59(4) . . .
54(4) . . .
52(4) . . .
57(4) . . .
59(4) . . .
51(4) . . .
56(4) . . .
55(4) . . .
62(4) . . .
60(4) . . .
55(4) . . .
61(4) . . .
64(4) . . .
59(4) . . .
51(4) . . .
60(4) . . .
53(4) . . .
51(4) . . .
59(4) . . .
54(4) . . .
63(4) . . .
43.7(34) . . .
56(4) . . .
59(4) . . .
54(4) . . .
52(4) . . .
61(4) . . .
57(4) . . .
60(4) . . .
52(4) . . .
47(4) . . .
57(4) . . .
55(4) . . .
46(4) . . .
63(5) . . .
64(4) . . .
57(4) . . .
50(4) . . .
59(4) . . .
70(4) . . .
63(4) . . .
66(5) . . .
50(4) . . .
47(4) . . .
54(4) . . .
56(4) . . .
57(4) . . .
60(4) . . .
50(4) . . .
49(4) . . .
58(4) . . .
47(4) . . .
55(4) . . .
54(4) . . .
55(4) . . .
58(4) . . .
46.2(35) . . .
43(4) . . .
42.3(35) . . .
51(4) . . .
48(4) . . .
57(4) . . .
56(4) . . .
51(4) . . .
50(4) . . .
65(4) . . .
56(4) . . .
54(4) . . .
50(4) . . .
48(4) . . .
51(4) . . .
47(4) . . .
62(4) . . .
58(4) . . .
60(4) . . .
59(4) . . .
50(4) . . .
55(4) . . .
52(4) . . .
64(4) . . .
52(4) . . .
61(4) . . .
59(4) . . .
56(4) . . .
67(4) . . .
52(4) . . .
51(4) . . .
53(4) . . .
59(4) . . .
49(4) . . .
56(4) . . .
52(4) . . .
53(4) . . .
68(4) . . .
60(4) . . .
42.0(34) . . .
54(4) . . .
48(4) . . .
44.7(35) . . .
56(4) . . .
52(4) . . .
57(4) . . .
50(4) . . .
54(4) . . .
60(4) . . .
56(4) . . .
55(4) . . .
64(4) . . .
59(4) . . .
55(4) . . .
51(4) . . .
65(5) . . .
51(4) . . .
64(4) . . .
50(4) . . .
59(4) . . .
50(4) . . .
60(4) . . .
50(4) . . .
60(4) . . .
51(4) . . .
58(4) . . .
67(5) . . .
54(4) . . .
52(4) . . .
49(4) . . .
61(4) . . .
57(4) . . .
60(4) . . .
52(4) . . .
56(4) . . .
52(4) . . .
64(4) . . .
64(4) . . .
54(4) . . .
72(5) . . .
54(4) . . .
50(4) . . .
55(4) . . .
56(4) . . .
54(4) . . .
59(4) . . .
55(4) . . .
58(4) . . .
53(4) . . .
55(4) . . .
61(4) . . .
69(4) . . .
57(4) . . .
59(4) . . .
48(4) . . .
52(4) . . .
59(4) . . .
61(4) . . .
59(4) . . .
68(5) . . .
61(4) . . .
50(4) . . .
60(4) . . .
50(4) . . .
52(4) . . .
54(4) . . .
57(4) . . .
57(4) . . .
61(4) . . .
64(4) . . .
49(4) . . .
51(4) . . .
53(4) . . .
49(4) . . .
58(4) . . .
57(4) . . .
51(4) . . .
52(4) . . .
61(4) . . .
50(4) . . .
57(4) . . .
45.0(35) . . .
50(4) . . .
63(4) . . .
58(4) . . .
47(4) . . .
54(4) . . .
56(4) . . .
53(4) . . .
59(4) . . .
62(4) . . .
60(4) . . .
52(4) . . .
63(4) . . .
51(4) . . .
59(4) . . .
52(4) . . .
57(4) . . .
67(5) . . .
68(4) . . .
59(4) . . .
52(4) . . .
58(4) . . .
57(4) . . .
52(4) . . .
57(4) . . .
57(4) . . .
70(4) . . .
68(5) . . .
52(4) . . .
47(4) . . .
58(4) . . .
56(4) . . .
64(4) . . .
57(4) . . .
56(4) . . .
61(4) . . .
65(4) . . .
73(5) . . .
60(4) . . .
58(4) . . .
59(4) . . .
59(4) . . .
54(4) . . .
52(4) . . .
57(4) . . .
53(4) . . .
47(4) . . .
60(4) . . .
62(4) . . .
60(4) . . .
65(4) . . .
55(4) . . .
57(4) . . .
61(4) . . .
61(4) . . .
57(4) . . .
58(4) . . .
62(4) . . .
57(4) . . .
68(4) . . .
57(4) . . .
62(4) . . .
59(4) . . .
56(4) . . .
57(4) . . .
65(5) . . .
68(5) . . .
56(4) . . .
62(4) . . .
65(4) . . .
58(4) . . .
63(5) . . .
48(4) . . .
50(4) . . .
47(4) . . .
57(4) . . .
46(4) . . .
50(4) . . .
59(4) . . .
57(4) . . .
61(4) . . .
66(5) . . .
57(4) . . .
63(4) . . .
54(4) . . .
63(4) . . .
60(4) . . .
59(4) . . .
66(4) . . .
71(4) . . .
64(4) . . .
63(4) . . .
60(4) . . .
59(4) . . .
57(4) . . .
53(4) . . .
55(4) . . .
57(4) . . .
44.7(35) . . .
55(4) . . .
68(5) . . .
56(4) . . .
51(4) . . .
52(4) . . .
59(4) . . .
65(5) . . .
60(4) . . .
59(4) . . .
59(4) . . .
59(4) . . .
49(4) . . .
62(4) . . .
52(4) . . .
59(4) . . .
49(4) . . .
53(4) . . .
52(4) . . .
50(4) . . .
50(4) . . .
56(4) . . .
56(4) . . .
64(4) . . .
60(4) . . .
56(4) . . .
53(4) . . .
60(4) . . .
58(4) . . .
56(4) . . .
53(4) . . .
51(4) . . .
67(5) . . .
60(4) . . .
54(4) . . .
46(4) . . .
54(4) . . .
54(4) . . .
58(4) . . .
49(4) . . .
57(4) . . .
54(4) . . .
55(4) . . .
49(4) . . .
54(4) . . .
54(4) . . .
62(4) . . .
58(4) . . .
63(4) . . .
57(4) . . .
57(4) . . .
57(4) . . .
64(5) . . .
59(4) . . .
60(4) . . .
66(4) . . .
55(4) . . .
62(4) . . .
53(4) . . .
62(4) . . .
55(4) . . .
56(4) . . .
52(4) . . .
53(4) . . .
56(4) . . .
74(5) . . .
61(4) . . .
65(4) . . .
50(4) . . .
52(4) . . .
48(4) . . .
48(4) . . .
58(4) . . .
63(4) . . .
58(4) . . .
60(4) . . .
55(4) . . .
61(4) . . .
54(4) . . .
48(4) . . .
53(4) . . .
59(4) . . .
63(4) . . .
49(4) . . .
63(4) . . .
49(4) . . .
56(4) . . .
50(4) . . .
59(4) . . .
60(4) . . .
53(4) . . .
53(4) . . .
59(4) . . .
54(4) . . .
54(4) . . .
60(4) . . .
59(4) . . .
61(4) . . .
57(4) . . .
58(4) . . .
57(4) . . .
60(4) . . .
56(4) . . .
61(4) . . .
57(4) . . .
54(4) . . .
57(4) . . .
58(4) . . .
51(4) . . .
55(4) . . .
61(4) . . .
57(4) . . .
65(4) . . .
58(4) . . .
60(4) . . .
59(4) . . .
47(4) . . .
60(4) . . .
56(4) . . .
62(4) . . .
56(4) . . .
56(4) . . .
57(4) . . .
59(4) . . .
63(4) . . .
48(4) . . .
60(4) . . .
59(4) . . .
59(4) . . .
46(4) . . .
51(4) . . .
50(4) . . .
62(4) . . .
53(4) . . .
51(4) . . .
53(4) . . .
62(4) . . .
59(4) . . .
57(4) . . .
60(4) . . .
53(4) . . .
55(4) . . .
64(4) . . .
64(4) . . .
55(4) . . .
57(4) . . .
62(4) . . .
61(4) . . .
55(4) . . .
59(4) . . .
63(4) . . .
54(4) . . .
65(4) . . .
59(4) . . .
51(4) . . .
62(4) . . .
68(4) . . .
61(4) . . .
50(4) . . .
49(4) . . .
66(4) . . .
66(4) . . .
53(4) . . .
65(4) . . .
58(4) . . .
60(4) . . .
56(4) . . .
56(4) . . .
62(4) . . .
61(4) . . .
63(4) . . .
58(4) . . .
56(4) . . .
41.5(33) . . .
62(4) . . .
51(4) . . .
65(4) . . .
59(4) . . .
55(4) . . .
53(4) . . .
62(4) . . .
53(4) . . .
50(4) . . .
63(4) . . .
49(4) . . .
45(4) . . .
61(4) . . .
58(4) . . .
40.3(33) . . .
58(4) . . .
48(4) . . .
59(4) . . .
57(4) . . .
59(4) . . .
52(4) . . .
60(4) . . .
54(4) . . .
63(4) . . .
62(4) . . .
52(4) . . .
50(4) . . .
56(4) . . .
53(4) . . .
59(4) . . .
71(5) . . .
63(4) . . .
57(4) . . .
59(4) . . .
50(4) . . .
60(4) . . .
53(4) . . .
51(4) . . .
55(4) . . .
67(5) . . .
59(4) . . .
65(4) . . .
62(4) . . .
61(4) . . .
52(4) . . .
56(4) . . .
55(4) . . .
55(4) . . .
58(4) . . .
64(4) . . .
56(4) . . .
46(4) . . .
58(4) . . .
62(4) . . .
59(4) . . .
64(4) . . .
50(4) . . .
51(4) . . .
51(4) . . .
64(5) . . .
63(4) . . .
53(4) . . .
67(4) . . .
54(4) . . .
57(4) . . .
55(4) . . .
59(4) . . .
58(4) . . .
41.1(33) . . .
55(4) . . .
53(4) . . .
57(4) . . .
53(4) . . .
57(4) . . .
54(4) . . .
54(4) . . .
56(4) . . .
52(4) . . .
53(4) . . .
55(4) . . .
58(4) . . .
51(4) . . .
49(4) . . .
60(4) . . .
59(4) . . .
57(4) . . .
54(4) . . .
61(4) . . .
52(4) . . .
60(4) . . .
45.5(35) . . .
58(4) . . .
63(4) . . .
53(4) . . .
63(4) . . .
51(4) . . .
55(4) . . .
64(4) . . .
63(4) . . .
56(4) . . .
60(4) . . .
60(4) . . .
62(4) . . .
56(4) . . .
45(4) . . .
60(4) . . .
57(4) . . .
52(4) . . .
59(4) . . .
48(4) . . .
53(4) . . .
50(4) . . .
54(4) . . .
60(4) . . .
62(4) . . .
56(4) . . .
57(4) . . .
54(4) . . .
57(4) . . .
51(4) . . .
50(4) . . .
43.9(34) . . .
51(4) . . .
54(4) . . .
67(4) . . .
56(4) . . .
46(4) . . .
62(4) . . .
55(4) . . .
64(4) . . .
60(4) . . .
56(4) . . .
61(4) . . .
60(4) . . .
50(4) . . .
60(4) . . .
53(4) . . .
65(5) . . .
60(4) . . .
49(4) . . .
50(4) . . .
48(4) . . .
48(4) . . .
55(4) . . .
57(4) . . .
55(4) . . .
60(4) . . .
60(4) . . .
49(4) . . .
56(4) . . .
46(4) . . .
59(4) . . .
58(4) . . .
59(4) . . .
59(4) . . .
57(4) . . .
61(4) . . .
61(4) . . .
50(4) . . .
54(4) . . .
52(4) . . .
59(4) . . .
61(4) . . .
57(4) . . .
60(4) . . .
54(4) . . .
59(4) . . .
59(4) . . .
40.1(34) . . .
59(4) . . .
51(4) . . .
54(4) . . .
47(4) . . .
61(4) . . .
57(4) . . .
64(4) . . .
50(4) . . .
52(4) . . .
54(4) . . .
49(4) . . .
50(4) . . .
52(4) . . .
62(4) . . .
59(4) . . .
47(4) . . .
54(4) . . .
51(4) . . .
59(4) . . .
50(4) . . .
58(4) . . .
48(4) . . .
55(4) . . .
56(4) . . .
58(4) . . .
53(4) . . .
58(4) . . .
56(4) . . .
54(4) . . .
59(4) . . .
55(4) . . .
55(4) . . .
56(4) . . .
63(4) . . .
60(4) . . .
59(4) . . .
57(4) . . .
55(4) . . .
56(4) . . .
58(4) . . .
59(4) . . .
50(4) . . .
57(4) . . .
57(4) . . .
54(4) . . .
50(4) . . .
51(4) . . .
50(4) . . .
64(4) . . .
62(4) . . .
65(4) . . .
65(4) . . .
63(4) . . .
49(4) . . .
54(4) . . .
50(4) . . .
61(4) . . .
45(4) . . .
51(4) . . .
59(4) . . .
49(4) . . .
57(4) . . .
50(4) . . .
59(4) . . .
49(4) . . .
52(4) . . .
53(4) . . .
68(5) . . .
50(4) . . .
52(4) . . .
47(4) . . .
52(4) . . .
60(4) . . .
57(4) . . .
59(4) . . .
51(4) . . .
45(4) . . .
46(4) . . .
59(4) . . .
55(4) . . .
53(4) . . .
65(4) . . .
67(5) . . .
62(4) . . .
58(4) . . .
52(4) . . .
50(4) . . .
63(5) . . .
53(4) . . .
59(4) . . .
49(4) . . .
63(4) . . .
59(4) . . .
59(4) . . .
68(4) . . .
53(4) . . .
45(4) . . .
62(4) . . .
48(4) . . .
50(4) . . .
52(4) . . .
52(4) . . .
61(4) . . .
58(4) . . .
60(4) . . .
56(4) . . .
51(4) . . .
49(4) . . .
52(4) . . .
40.3(34) . . .
56(4) . . .
50(4) . . .
64(4) . . .
51(4) . . .
49(4) . . .
48(4) . . .
54(4) . . .
63(4) . . .
54(4) . . .
50(4) . . .
38.4(32) . . .
50(4) . . .
52(4) . . .
51(4) . . .
59(4) . . .
55(4) . . .
69(5) . . .
72(5) . . .
54(4) . . .
63(4) . . .
53(4) . . .
54(4) . . .
59(4) . . .
51(4) . . .
67(5) . . .
54(4) . . .
57(4) . . .
56(4) . . .
64(4) . . .
47(4) . . .
53(4) . . .
55(4) . . .
66(4) . . .
58(4) . . .
53(4) . . .
61(4) . . .
54(4) . . .
53(4) . . .
45.4(35) . . .
52(4) . . .
60(4) . . .
59(4) . . .
51(4) . . .
57(4) . . .
51(4) . . .
55(4) . . .
51(4) . . .
54(4) . . .
57(4) . . .
57(4) . . .
49(4) . . .
54(4) . . .
54(4) . . .
59(4) . . .
51(4) . . .
48(4) . . .
48(4) . . .
57(4) . . .
54(4) . . .
49(4) . . .
50(4) . . .
56(4) . . .
53(4) . . .
59(4) . . .
64(5) . . .
53(4) . . .
59(4) . . .
55(4) . . .
47(4) . . .
64(4) . . .
53(4) . . .
51(4) . . .
56(4) . . .
66(4) . . .
57(4) . . .
52(4) . . .
55(4) . . .
55(4) . . .
56(4) . . .
62(4) . . .
57(4) . . .
59(4) . . .
72(4) . . .
60(4) . . .
56(4) . . .
54(4) . . .
61(4) . . .
58(4) . . .
64(4) . . .
54(4) . . .
57(4) . . .
58(4) . . .
58(4) . . .
58(4) . . .
54(4) . . .
54(4) . . .
58(4) . . .
62(4) . . .
60(4) . . .
59(4) . . .
53(4) . . .
50(4) . . .
53(4) . . .
59(4) . . .
60(4) . . .
63(4) . . .
54(4) . . .
51(4) . . .
56(4) . . .
47(4) . . .
53(4) . . .
57(4) . . .
55(4) . . .
57(4) . . .
60(4) . . .
56(4) . . .
60(4) . . .
42.1(34) . . .
54(4) . . .
47.1(35) . . .
50(4) . . .
60(4) . . .
53(4) . . .
54(4) . . .
50(4) . . .
62(4) . . .
65(4) . . .
57(4) . . .
62(4) . . .
54(4) . . .
50(4) . . .
54(4) . . .
52(4) . . .
50(4) . . .
54(4) . . .
53(4) . . .
52(4) . . .
57(4) . . .
55(4) . . .
60(4) . . .
57(4) . . .
52(4) . . .
50(4) . . .
53(4) . . .
65(4) . . .
61(4) . . .
56(4) . . .
56(4) . . .
54(4) . . .
56(4) . . .
67(4) . . .
49(4) . . .
55(4) . . .
64(4) . . .
56(4) . . .
54(4) . . .
70(5) . . .
64(4) . . .
63(4) . . .
60(4) . . .
58(4) . . .
58(4) . . .
50(4) . . .
58(4) . . .
53(4) . . .
50(4) . . .
57(4) . . .
46(4) . . .
56(4) . . .
57(4) . . .
61(4) . . .
63(4) . . .
57(4) . . .
57(4) . . .
53(4) . . .
53(4) . . .
58(4) . . .
52(4) . . .
65(5) . . .
46(4) . . .
60(4) . . .
65(4) . . .
62(4) . . .
60(4) . . .
54(4) . . .
50(4) . . .
57(4) . . .
64(4) . . .
49(4) . . .
63(4) . . .
50(4) . . .
59(4) . . .
52(4) . . .
54(4) . . .
56(4) . . .
47(4) . . .
54(4) . . .
52(4) . . .
61(4) . . .
49(4) . . .
45.5(35) . . .
52(4) . . .
53(4) . . .
52(4) . . .
56(4) . . .
64(4) . . .
58(4) . . .
55(4) . . .
50(4) . . .
43.8(35) . . .
59(4) . . .
47(4) . . .
49(4) . . .
61(4) . . .
57(4) . . .
55(4) . . .
52(4) . . .
55(4) . . .
53(4) . . .
60(4) . . .
60(4) . . .
58(4) . . .
55(4) . . .
59(4) . . .
61(4) . . .
51(4) . . .
56(4) . . .
56(4) . . .
58(4) . . .
60(4) . . .
55(4) . . .
63(5) . . .
55(4) . . .
56(4) . . .
57(4) . . .
67(4) . . .
53(4) . . .
65(5) . . .
55(4) . . .
53(4) . . .
52(4) . . .
57(4) . . .
57(4) . . .
54(4) . . .
52(4) . . .
54(4) . . .
56(4) . . .
60(4) . . .
60(4) . . .
56(4) . . .
60(4) . . .
62(4) . . .
58(4) . . .
57(4) . . .
56(4) . . .
52(4) . . .
48(4) . . .
58(4) . . .
60(4) . . .
55(4) . . .
61(4) . . .
52(4) . . .
57(4) . . .
57(4) . . .
56(4) . . .
64(4) . . .
59(4) . . .
68(4) . . .
55(4) . . .
46(4) . . .
50(4) . . .
50(4) . . .
58(4) . . .
56(4) . . .
60(4) . . .
58(4) . . .
58(4) . . .
55(4) . . .
49(4) . . .
59(4) . . .
58(4) . . .
54(4) . . .
56(4) . . .
48(4) . . .
62(4) . . .
63(5) . . .
56(4) . . .
53(4) . . .
51(4) . . .
56(4) . . .
59(4) . . .
59(4) . . .
61(4) . . .
56(4) . . .
59(4) . . .
55(4) . . .
56(4) . . .
50(4) . . .
58(4) . . .
59(4) . . .
54(4) . . .
66(4) . . .
66(4) . . .
48(4) . . .
54(4) . . .
61(4) . . .
56(4) . . .
48(4) . . .
56(4) . . .
63(4) . . .
67(4) . . .
62(4) . . .
61(4) . . .
60(4) . . .
62(4) . . .
58(4) . . .
57(4) . . .
52(4) . . .
56(4) . . .
57(4) . . .
65(4) . . .
61(4) . . .
65(4) . . .
55(4) . . .
50(4) . . .
49(4) . . .
48(4) . . .
58(4) . . .
55(4) . . .
57(4) . . .
66(5) . . .
50(4) . . .
48(4) . . .
54(4) . . .
44(4) . . .
53(4) . . .
55(4) . . .
55(4) . . .
60(4) . . .
59(4) . . .
52(4) . . .
57(4) . . .
62(4) . . .
64(5) . . .
53(4) . . .
46(4) . . .
63(4) . . .
67(4) . . .
50(4) . . .
54(4) . . .
60(4) . . .
51(4) . . .
57(4) . . .
61(4) . . .
53(4) . . .
54(4) . . .
65(4) . . .
50(4) . . .
54(4) . . .
57(4) . . .
44(4) . . .
56(4) . . .
53(4) . . .
62(4) . . .
65(4) . . .
61(4) . . .
54(4) . . .
54(4) . . .
57(4) . . .
55(4) . . .
53(4) . . .
58(4) . . .
58(4) . . .
57(4) . . .
50(4) . . .
53(4) . . .
50(4) . . .
52(4) . . .
50(4) . . .
52(4) . . .
53(4) . . .
58(4) . . .
51(4) . . .
60(4) . . .
52(4) . . .
45.8(35) . . .
56(4) . . .
66(4) . . .
61(4) . . .
54(4) . . .
48(4) . . .
43.8(34) . . .
55(4) . . .
55(4) . . .
48(4) . . .
61(4) . . .
47(4) . . .
49(4) . . .
44(4) . . .
48(4) . . .
47(4) . . .
60(4) . . .
61(4) . . .
57(4) . . .
49(4) . . .
60(4) . . .
58(4) . . .
59(4) . . .
63(4) . . .
47(4) . . .
56(4) . . .
57(4) . . .
55(4) . . .
60(4) . . .
56(4) . . .
55(4) . . .
53(4) . . .
50(4) . . .
55(4) . . .
62(4) . . .
54(4) . . .
61(4) . . .
48(4) . . .
51(4) . . .
52(4) . . .
54(4) . . .
59(4) . . .
63(5) . . .
41.3(34) . . .
54(4) . . .
54(4) . . .
49(4) . . .
54(4) . . .
55(4) . . .
57(4) . . .
53(4) . . .
45(4) . . .
55(4) . . .
51(4) . . .
56(4) . . .
54(4) . . .
63(4) . . .
58(4) . . .
52(4) . . .
56(4) . . .
60(4) . . .
54(4) . . .
54(4) . . .
56(4) . . .
57(4) . . .
51(4) . . .
54(4) . . .
59(4) . . .
46(4) . . .
57(4) . . .
48(4) . . .
53(4) . . .
52(4) . . .
59(4) . . .
58(4) . . .
58(4) . . .
47(4) . . .
57(4) . . .
54(4) . . .
57(4) . . .
55(4) . . .
49(4) . . .
53(4) . . .
63(4) . . .
58(4) . . .
54(4) . . .
55(4) . . .
56(4) . . .
54(4) . . .
63(4) . . .
52(4) . . .
61(4) . . .
52(4) . . .
50(4) . . .
63(4) . . .
64(4) . . .
54(4) . . .
53(4) . . .
57(4) . . .
61(4) . . .
52(4) . . .
47(4) . . .
46(4) . . .
49(4) . . .
52(4) . . .
56(4) . . .
63(4) . . .
56(4) . . .
65(4) . . .
53(4) . . .
45(4) . . .
50(4) . . .
51(4) . . .
56(4) . . .
58(4) . . .
62(4) . . .
64(4) . . .
55(4) . . .
49(4) . . .
58(4) . . .
55(4) . . .
58(4) . . .
51(4) . . .
56(4) . . .
52(4) . . .
45(4) . . .
51(4) . . .
48(4) . . .
51(4) . . .
53(4) . . .
51(4) . . .
56(4) . . .
62(4) . . .
53(4) . . .
56(4) . . .
54(4) . . .
52(4) . . .
55(4) . . .
57(4) . . .
59(4) . . .
62(4) . . .
52(4) . . .
54(4) . . .
52(4) . . .
59(4) . . .
53(4) . . .
56(4) . . .
46(4) . . .
56(4) . . .
56(4) . . .
45(4) . . .
44(4) . . .
55(4) . . .
61(4) . . .
62(4) . . .
59(4) . . .
54(4) . . .
58(4) . . .
52(4) . . .
48(4) . . .
57(4) . . .
57(4) . . .
57(4) . . .
47(4) . . .
51(4) . . .
65(4) . . .
59(4) . . .
55(4) . . .
52(4) . . .
56(4) . . .
56(4) . . .
48(4) . . .
54(4) . . .
57(4) . . .
63(4) . . .
60(4) . . .
58(4) . . .
44.4(35) . . .
50(4) . . .
62(4) . . .
52(4) . . .
52(4) . . .
58(4) . . .
52(4) . . .
60(4) . . .
52(4) . . .
46(4) . . .
59(4) . . .
53(4) . . .
47(4) . . .
54(4) . . .
62(4) . . .
61(4) . . .
60(4) . . .
44(4) . . .
51(4) . . .
58(4) . . .
49(4) . . .
50(4) . . .
54(4) . . .
54(4) . . .
53(4) . . .
47(4) . . .
52(4) . . .
56(4) . . .
42(4) . . .
48(4) . . .
65(4) . . .
60(4) . . .
59(4) . . .
47(4) . . .
44.0(34) . . .
43.5(34) . . .
59(4) . . .
55(4) . . .
57(4) . . .
53(4) . . .
55(4) . . .
65(4) . . .
51(4) . . .
55(4) . . .
55(4) . . .
42.5(34) . . .
56(4) . . .
53(4) . . .
56(4) . . .
54(4) . . .
53(4) . . .
53(4) . . .
62(4) . . .
67(4) . . .
58(4) . . .
57(4) . . .
55(4) . . .
58(4) . . .
45(4) . . .
50(4) . . .
65(4) . . .
50(4) . . .
65(4) . . .
61(4) . . .
50(4) . . .
51(4) . . .
76(5) . . .
64(4) . . .
63(4) . . .
55(4) . . .
43(4) . . .
48(4) . . .
48(4) . . .
51(4) . . .
58(4) . . .
62(4) . . .
61(4) . . .
53(4) . . .
56(4) . . .
58(4) . . .
53(4) . . .
49(4) . . .
69(5) . . .
53(4) . . .
64(4) . . .
57(4) . . .
58(4) . . .
62(4) . . .
64(4) . . .
64(4) . . .
57(4) . . .
65(5) . . .
53(4) . . .
55(4) . . .
62(4) . . .
49(4) . . .
56(4) . . .
67(4) . . .
56(4) . . .
51(4) . . .
63(4) . . .
63(4) . . .
64(4) . . .
61(4) . . .
49(4) . . .
61(4) . . .
47(4) . . .
44.6(35) . . .
57(4) . . .
55(4) . . .
58(4) . . .
50(4) . . .
58(4) . . .
63(4) . . .
56(4) . . .
53(4) . . .
61(4) . . .
46(4) . . .
50(4) . . .
52(4) . . .
60(4) . . .
68(5) . . .
56(4) . . .
54(4) . . .
53(4) . . .
52(4) . . .
57(4) . . .
68(4) . . .
57(4) . . .
53(4) . . .
68(5) . . .
58(4) . . .
52(4) . . .
49(4) . . .
59(4) . . .
52(4) . . .
55(4) . . .
61(4) . . .
60(4) . . .
56(4) . . .
49(4) . . .
61(4) . . .
53(4) . . .
46(4) . . .
59(4) . . .
59(4) . . .
56(4) . . .
65(4) . . .
47(4) . . .
49(4) . . .
51(4) . . .
56(4) . . .
65(4) . . .
57(4) . . .
64(4) . . .
54(4) . . .
53(4) . . .
60(4) . . .
60(4) . . .
51(4) . . .
55(4) . . .
56(4) . . .
60(4) . . .
62(4) . . .
60(4) . . .
53(4) . . .
54(4) . . .
61(4) . . .
52(4) . . .
58(4) . . .
48(4) . . .
49(4) . . .
52(4) . . .
55(4) . . .
60(4) . . .
64(4) . . .
58(4) . . .
54(4) . . .
42.4(34) . . .
53(4) . . .
55(4) . . .
52(4) . . .
54(4) . . .
59(4) . . .
58(4) . . .
62(4) . . .
55(4) . . .
51(4) . . .
54(4) . . .
70(5) . . .
61(4) . . .
64(4) . . .
56(4) . . .
53(4) . . .
51(4) . . .
49(4) . . .
57(4) . . .
64(4) . . .
52(4) . . .
52(4) . . .
57(4) . . .
54(4) . . .
62(4) . . .
62(4) . . .
49(4) . . .
43.0(35) . . .
57(4) . . .
59(4) . . .
59(4) . . .
63(4) . . .
61(4) . . .
56(4) . . .
57(4) . . .
68(5) . . .
55(4) . . .
48(4) . . .
54(4) . . .
50(4) . . .
55(4) . . .
59(4) . . .
64(4) . . .
65(4) . . .
57(4) . . .
61(4) . . .
69(4) . . .
53(4) . . .
51(4) . . .
53(4) . . .
60(4) . . .
55(4) . . .
55(4) . . .
52(4) . . .
54(4) . . .
64(4) . . .
61(4) . . .
51(4) . . .
64(4) . . .
58(4) . . .
51(4) . . .
44.5(35) . . .
50(4) . . .
58(4) . . .
55(4) . . .
65(4) . . .
61(4) . . .
50(4) . . .
59(4) . . .
64(4) . . .
61(4) . . .
55(4) . . .
55(4) . . .
56(4) . . .
63(4) . . .
58(4) . . .
50(4) . . .
52(4) . . .
56(4) . . .
55(4) . . .
58(4) . . .
49(4) . . .
55(4) . . .
63(4) . . .
62(4) . . .
58(4) . . .
65(4) . . .
61(4) . . .
63(4) . . .
61(4) . . .
56(4) . . .
56(4) . . .
57(4) . . .
51(4) . . .
56(4) . . .
54(4) . . .
52(4) . . .
56(4) . . .
67(5) . . .
54(4) . . .
55(4) . . .
47(4) . . .
52(4) . . .
38.4(33) . . .
57(4) . . .
57(4) . . .
59(4) . . .
62(4) . . .
56(4) . . .
49(4) . . .
44(4) . . .
52(4) . . .
60(4) . . .
51(4) . . .
59(4) . . .
54(4) . . .
50(4) . . .
50(4) . . .
56(4) . . .
54(4) . . .
62(4) . . .
55(4) . . .
52(4) . . .
53(4) . . .
59(4) . . .
62(4) . . .
52(4) . . .
63(4) . . .
52(4) . . .
53(4) . . .
63(4) . . .
59(4) . . .
53(4) . . .
58(4) . . .
49(4) . . .
54(4) . . .
55(4) . . .
57(4) . . .
60(4) . . .
61(4) . . .
53(4) . . .
62(4) . . .
60(4) . . .
51(4) . . .
51(4) . . .
56(4) . . .
65(4) . . .
49(4) . . .
53(4) . . .
52(4) . . .
58(4) . . .
53(4) . . .
58(4) . . .
58(4) . . .
54(4) . . .
49(4) . . .
59(4) . . .
48(4) . . .
51(4) . . .
61(4) . . .
52(4) . . .
60(4) . . .
63(4) . . .
57(4) . . .
56(4) . . .
58(4) . . .
62(4) . . .
52(4) . . .
50(4) . . .
59(4) . . .
55(4) . . .
55(4) . . .
61(4) . . .
66(4) . . .
58(4) . . .
56(4) . . .
53(4) . . .
49(4) . . .
43.3(34) . . .
60(4) . . .
53(4) . . .
55(4) . . .
56(4) . . .
47(4) . . .
64(4) . . .
67(4) . . .
59(4) . . .
60(4) . . .
60(4) . . .
49(4) . . .
61(4) . . .
50(4) . . .
58(4) . . .
50(4) . . .
54(4) . . .
53(4) . . .
53(4) . . .
62(5) . . .
56(4) . . .
55(4) . . .
47(4) . . .
53(4) . . .
54(4) . . .
61(4) . . .
54(4) . . .
54(4) . . .
59(4) . . .
52(4) . . .
54(4) . . .
51(4) . . .
49(4) . . .
52(4) . . .
61(4) . . .
57(4) . . .
68(4) . . .
52(4) . . .
55(4) . . .
46(4) . . .
58(4) . . .
55(4) . . .
55(4) . . .
55(4) . . .
53(4) . . .
55(4) . . .
52(4) . . .
54(4) . . .
56(4) . . .
48(4) . . .
48(4) . . .
56(4) . . .
64(4) . . .
47(4) . . .
49(4) . . .
57(4) . . .
54(4) . . .
55(4) . . .
53(4) . . .
52(4) . . .
49(4) . . .
65(4) . . .
53(4) . . .
58(4) . . .
55(4) . . .
50(4) . . .
51(4) . . .
47(4) . . .
58(4) . . .
65(4) . . .
51(4) . . .
58(4) . . .
60(4) . . .
59(4) . . .
48(4) . . .
49(4) . . .
57(4) . . .
63(4) . . .
54(4) . . .
63(4) . . .
57(4) . . .
54(4) . . .
57(4) . . .
54(4) . . .
45(4) . . .
59(4) . . .
58(4) . . .
56(4) . . .
53(4) . . .
51(4) . . .
60(4) . . .
48(4) . . .
47(4) . . .
44(4) . . .
49(4) . . .
59(4) . . .
54(4) . . .
52(4) . . .
62(4) . . .
47(4) . . .
67(4) . . .
63(4) . . .
58(4) . . .
53(4) . . .
57(4) . . .
54(4) . . .
45(4) . . .
55(4) . . .
47(4) . . .
58(4) . . .
64(4) . . .
66(5) . . .
51(4) . . .
50(4) . . .
58(4) . . .
65(4) . . .
63(4) . . .
60(4) . . .
58(4) . . .
48(4) . . .
61(4) . . .
64(4) . . .
55(4) . . .
56(4) . . .
64(4) . . .
51(4) . . .
56(4) . . .
64(5) . . .
48(4) . . .
55(4) . . .
55(4) . . .
50(4) . . .
54(4) . . .
48(4) . . .
58(4) . . .
51(4) . . .
58(4) . . .
51(4) . . .
63(4) . . .
55(4) . . .
57(4) . . .
44.6(34) . . .
45(4) . . .
45.9(35) . . .
56(4) . . .
50(4) . . .
58(4) . . .
53(4) . . .
49(4) . . .
50(4) . . .
64(4) . . .
48(4) . . .
57(4) . . .
55(4) . . .
55(4) . . .
58(4) . . .
49(4) . . .
45(4) . . .
54(4) . . .
45.7(35) . . .
53(4) . . .
55(4) . . .
51(4) . . .
57(4) . . .
49(4) . . .
51(4) . . .
52(4) . . .
54(4) . . .
44.9(35) . . .
51(4) . . .
55(4) . . .
52(4) . . .
50(4) . . .
61(4) . . .
50(4) . . .
56(4) . . .
61(4) . . .
55(4) . . .
61(4) . . .
54(4) . . .
58(4) . . .
56(4) . . .
51(4) . . .
46(4) . . .
53(4) . . .
53(4) . . .
54(4) . . .
58(4) . . .
52(4) . . .
64(4) . . .
60(4) . . .
54(4) . . .
49(4) . . .
56(4) . . .
53(4) . . .
50(4) . . .
58(4) . . .
52(4) . . .
60(4) . . .
59(4) . . .
60(4) . . .
57(4) . . .
60(4) . . .
62(4) . . .
62(4) . . .
62(4) . . .
59(4) . . .
66(4) . . .
63(4) . . .
56(4) . . .
59(4) . . .
60(4) . . .
65(4) . . .
58(4) . . .
54(4) . . .
56(4) . . .
58(4) . . .
54(4) . . .
56(4) . . .
60(4) . . .
56(4) . . .
58(4) . . .
58(4) . . .
55(4) . . .
57(4) . . .
58(4) . . .
66(5) . . .
59(4) . . .
50(4) . . .
51(4) . . .
50(4) . . .
57(4) . . .
53(4) . . .
54(4) . . .
53(4) . . .
54(4) . . .
54(4) . . .
50(4) . . .
65(4) . . .
62(4) . . .
64(4) . . .
57(4) . . .
49(4) . . .
62(4) . . .
55(4) . . .
53(4) . . .
60(4) . . .
50(4) . . .
58(4) . . .
55(4) . . .
49(4) . . .
49(4) . . .
58(4) . . .
55(4) . . .
57(4) . . .
50(4) . . .
60(4) . . .
60(4) . . .
54(4) . . .
54(4) . . .
53(4) . . .
59(4) . . .
53(4) . . .
55(4) . . .
64(4) . . .
61(4) . . .
54(4) . . .
61(4) . . .
60(4) . . .
47(4) . . .
58(4) . . .
55(4) . . .
56(4) . . .
59(4) . . .
57(4) . . .
60(4) . . .
54(4) . . .
61(4) . . .
63(4) . . .
59(4) . . .
47(4) . . .
53(4) . . .
70(4) . . .
57(4) . . .
60(4) . . .
46(4) . . .
58(4) . . .
48(4) . . .
58(4) . . .
54(4) . . .
51(4) . . .
49(4) . . .
58(4) . . .
60(4) . . .
54(4) . . .
63(4) . . .
49(4) . . .
62(4) . . .
58(4) . . .
55(4) . . .
53(4) . . .
42.3(33) . . .
50(4) . . .
52(4) . . .
54(4) . . .
60(4) . . .
54(4) . . .
53(4) . . .
54(4) . . .
42.0(35) . . .
54(4) . . .
52(4) . . .
48(4) . . .
64(4) . . .
62(4) . . .
51(4) . . .
59(4) . . .
50(4) . . .
52(4) . . .
60(4) . . .
62(4) . . .
64(4) . . .
55(4) . . .
51(4) . . .
56(4) . . .
53(4) . . .
46(4) . . .
52(4) . . .
57(4) . . .
57(4) . . .
58(4) . . .
59(4) . . .
56(4) . . .
50(4) . . .
51(4) . . .
54(4) . . .
58(4) . . .
57(4) . . .
49(4) . . .
69(5) . . .
56(4) . . .
68(4) . . .
53(4) . . .
53(4) . . .
49(4) . . .
51(4) . . .
52(4) . . .
55(4) . . .
47(4) . . .
61(4) . . .
60(4) . . .
67(4) . . .
60(4) . . .
62(4) . . .
55(4) . . .
52(4) . . .
60(4) . . .
63(4) . . .
63(4) . . .
53(4) . . .
54(4) . . .
56(4) . . .
46(4) . . .
58(4) . . .
66(4) . . .
54(4) . . .
58(4) . . .
49(4) . . .
62(4) . . .
48(4) . . .
50(4) . . .
55(4) . . .
51(4) . . .
54(4) . . .
58(4) . . .
62(4) . . .
49(4) . . .
54(4) . . .
52(4) . . .
43.2(34) . . .
45(4) . . .
67(5) . . .
49(4) . . .
51(4) . . .
56(4) . . .
48(4) . . .
63(4) . . .
59(4) . . .
63(4) . . .
59(4) . . .
56(4) . . .
57(4) . . .
57(4) . . .
55(4) . . .
56(4) . . .
54(4) . . .
54(4) . . .
53(4) . . .
45(4) . . .
55(4) . . .
53(4) . . .
59(4) . . .
58(4) . . .
58(4) . . .
54(4) . . .
65(4) . . .
58(4) . . .
55(4) . . .
53(4) . . .
47(4) . . .
45(4) . . .
58(4) . . .
61(4) . . .
48(4) . . .
54(4) . . .
60(5) . . .
55(4) . . .
56(4) . . .
51(4) . . .
53(4) . . .
52(4) . . .
54(4) . . .
45(4) . . .
56(4) . . .
50(4) . . .
61(4) . . .
58(4) . . .
55(4) . . .
48(4) . . .
65(4) . . .
59(4) . . .
54(4) . . .
54(4) . . .
67(4) . . .
62(4) . . .
66(4) . . .
56(4) . . .
46(4) . . .
56(4) . . .
54(4) . . .
54(4) . . .
65(5) . . .
58(4) . . .
68(4) . . .
50(4) . . .
61(4) . . .
58(4) . . .
64(4) . . .
51(4) . . .
50(4) . . .
51(4) . . .
57(4) . . .
54(4) . . .
59(4) . . .
56(4) . . .
51(4) . . .
60(4) . . .
52(4) . . .
59(4) . . .
64(4) . . .
60(4) . . .
59(4) . . .
57(4) . . .
54(4) . . .
54(4) . . .
47(4) . . .
55(4) . . .
57(4) . . .
57(4) . . .
50(4) . . .
57(4) . . .
53(4) . . .
55(4) . . .
57(4) . . .
58(4) . . .
53(4) . . .
58(4) . . .
49(4) . . .
58(4) . . .
61(4) . . .
65(4) . . .
50(4) . . .
53(4) . . .
64(4) . . .
45.4(35) . . .
55(4) . . .
61(4) . . .
53(4) . . .
56(4) . . .
53(4) . . .
61(4) . . .
58(4) . . .
63(4) . . .
58(4) . . .
55(4) . . .
58(4) . . .
49(4) . . .
47(4) . . .
57(4) . . .
62(4) . . .
45(4) . . .
41.1(33) . . .
44.4(35) . . .
43.0(34) . . .
55(4) . . .
64(4) . . .
60(4) . . .
61(4) . . .
63(4) . . .
63(4) . . .
59(4) . . .
58(4) . . .
55(4) . . .
54(4) . . .
60(4) . . .
56(4) . . .
47(4) . . .
56(4) . . .
48(4) . . .
64(5) . . .
51(4) . . .
50(4) . . .
54(4) . . .
52(4) . . .
54(4) . . .
51(4) . . .
50(4) . . .
55(4) . . .
51(4) . . .
48(4) . . .
60(4) . . .
53(4) . . .
47(4) . . .
54(4) . . .
53(4) . . .
56(4) . . .
49(4) . . .
59(4) . . .
59(4) . . .
52(4) . . .
57(4) . . .
55(4) . . .
60(4) . . .
61(4) . . .
60(4) . . .
50(4) . . .
61(4) . . .
59(4) . . .
56(4) . . .
56(4) . . .
55(4) . . .
55(4) . . .
47(4) . . .
55(4) . . .
56(4) . . .
60(4) . . .
59(4) . . .
69(4) . . .
59(4) . . .
58(4) . . .
56(4) . . .
63(4) . . .
58(4) . . .
60(4) . . .
55(4) . . .
51(4) . . .
51(4) . . .
50(4) . . .
50(4) . . .
50(4) . . .
51(4) . . .
57(4) . . .
52(4) . . .
53(4) . . .
58(4) . . .
56(4) . . .
55(4) . . .
49(4) . . .
50(4) . . .
54(4) . . .
53(4) . . .
43.8(34) . . .
59(4) . . .
55(4) . . .
51(4) . . .
62(4) . . .
52(4) . . .
55(4) . . .
51(4) . . .
68(4) . . .
50(4) . . .
47(4) . . .
48(4) . . .
48(4) . . .
56(4) . . .
47(4) . . .
55(4) . . .
55(4) . . .
46(4) . . .
58(4) . . .
46(4) . . .
51(4) . . .
58(4) . . .
59(4) . . .
55(4) . . .
51(4) . . .
52(4) . . .
61(4) . . .
54(4) . . .
56(4) . . .
54(4) . . .
54(4) . . .
54(4) . . .
55(4) . . .
65(4) . . .
50(4) . . .
55(4) . . .
60(4) . . .
59(4) . . .
54(4) . . .
61(4) . . .
51(4) . . .
49(4) . . .
49(4) . . .
58(4) . . .
57(4) . . .
54(4) . . .
60(4) . . .
55(4) . . .
55(4) . . .
49(4) . . .
50(4) . . .
62(4) . . .
63(4) . . .
52(4) . . .
49(4) . . .
56(4) . . .
56(4) . . .
49(4) . . .
49(4) . . .
47(4) . . .
57(4) . . .
65(4) . . .
50(4) . . .
47(4) . . .
56(4) . . .
57(4) . . .
51(4) . . .
50(4) . . .
52(4) . . .
58(4) . . .
57(4) . . .
55(4) . . .
43.2(34) . . .
53(4) . . .
56(4) . . .
56(4) . . .
59(4) . . .
45.0(34) . . .
55(4) . . .
54(4) . . .
48(4) . . .
62(4) . . .
62(4) . . .
64(4) . . .
59(4) . . .
52(4) . . .
46(4) . . .
53(4) . . .
52(4) . . .
57(4) . . .
62(5) . . .
48(4) . . .
50(4) . . .
49(4) . . .
53(4) . . .
59(4) . . .
54(4) . . .
59(4) . . .
57(4) . . .
46(4) . . .
40(4) . . .
52(4) . . .
57(4) . . .
58(4) . . .
51(4) . . .
55(4) . . .
50(4) . . .
51(4) . . .
59(4) . . .
52(4) . . .
51(4) . . .
71(4) . . .
56(4) . . .
48(4) . . .
52(4) . . .
65(4) . . .
61(4) . . .
54(4) . . .
51(4) . . .
53(4) . . .
57(4) . . .
46(4) . . .
67(4) . . .
60(4) . . .
62(4) . . .
50(4) . . .
56(4) . . .
48(4) . . .
52(4) . . .
54(4) . . .
55(4) . . .
50(4) . . .
55(4) . . .
56(4) . . .
48(4) . . .
53(4) . . .
54(4) . . .
59(4) . . .
49(4) . . .
45(4) . . .
58(4) . . .
42.7(34) . . .
51(4) . . .
65(4) . . .
54(4) . . .
49(4) . . .
58(4) . . .
59(4) . . .
64(4) . . .
54(4) . . .
51(4) . . .
47(4) . . .
50(4) . . .
55(4) . . .
54(4) . . .
48(4) . . .
57(4) . . .
50(4) . . .
49(4) . . .
52(4) . . .
51(4) . . .
58(4) . . .
51(4) . . .
51(4) . . .
46(4) . . .
63(4) . . .
57(4) . . .
63(4) . . .
64(4) . . .
62(4) . . .
52(4) . . .
55(4) . . .
51(4) . . .
55(4) . . .
55(4) . . .
49(4) . . .
61(4) . . .
57(4) . . .
56(4) . . .
50(4) . . .
52(4) . . .
59(4) . . .
52(4) . . .
55(4) . . .
60(4) . . .
55(4) . . .
50(4) . . .
45(4) . . .
51(4) . . .
54(4) . . .
54(4) . . .
52(4) . . .
52(4) . . .
51(4) . . .
46(4) . . .
50(4) . . .
51(4) . . .
55(4) . . .
49(4) . . .
52(4) . . .
62(4) . . .
53(4) . . .
47(4) . . .
53(4) . . .
49(4) . . .
52(4) . . .
60(4) . . .
49(4) . . .
56(4) . . .
59(4) . . .
58(4) . . .
57(4) . . .
46(4) . . .
55(4) . . .
56(4) . . .
64(4) . . .
56(4) . . .
64(4) . . .
65(4) . . .
62(4) . . .
55(4) . . .
47(4) . . .
54(4) . . .
56(4) . . .
53(4) . . .
52(4) . . .
62(4) . . .
50(4) . . .
54(4) . . .
42.1(33) . . .
57(4) . . .
54(4) . . .
52(4) . . .
57(4) . . .
48(4) . . .
51(4) . . .
56(4) . . .
57(4) . . .
51(4) . . .
56(4) . . .
49(4) . . .
56(4) . . .
50(4) . . .
47(4) . . .
53(4) . . .
58(4) . . .
59(4) . . .
60(4) . . .
59(4) . . .
52(4) . . .
50(4) . . .
59(4) . . .
47(4) . . .
46(4) . . .
57(4) . . .
62(4) . . .
51(4) . . .
37.5(31) . . .
58(4) . . .
50(4) . . .
55(4) . . .
47(4) . . .
53(4) . . .
47(4) . . .
56(4) . . .
54(4) . . .
53(4) . . .
54(4) . . .
50(4) . . .
48(4) . . .
53(4) . . .
64(4) . . .
55(4) . . .
56(4) . . .
66(4) . . .
50(4) . . .
50(4) . . .
52(4) . . .
54(4) . . .
43.0(34) . . .
54(4) . . .
54(4) . . .
59(4) . . .
68(4) . . .
52(4) . . .
45(4) . . .
58(4) . . .
49(4) . . .
48(4) . . .
50(4) . . .
58(4) . . .
43(4) . . .
48(4) . . .
55(4) . . .
58(4) . . .
55(4) . . .
59(4) . . .
65(5) . . .
45.7(35) . . .
54(4) . . .
54(4) . . .
50(4) . . .
47(4) . . .
53(4) . . .
60(4) . . .
62(4) . . .
58(4) . . .
60(4) . . .
63(4) . . .
51(4) . . .
52(4) . . .
57(5) . . .
49(4) . . .
53(4) . . .
47(4) . . .
56(4) . . .
53(4) . . .
51(4) . . .
58(4) . . .
52(4) . . .
49(4) . . .
51(4) . . .
49(4) . . .
52(4) . . .
49(4) . . .
47(4) . . .
47(4) . . .
52(4) . . .
58(4) . . .
61(4) . . .
57(4) . . .
51(4) . . .
46(4) . . .
52(4) . . .
57(4) . . .
61(4) . . .
56(4) . . .
62(4) . . .
51(4) . . .
50(4) . . .
57(4) . . .
51(4) . . .
50(4) . . .
49(4) . . .
46(4) . . .
52(4) . . .
52(4) . . .
59(4) . . .
62(4) . . .
62(4) . . .
51(4) . . .
60(4) . . .
59(4) . . .
53(4) . . .
58(4) . . .
48(4) . . .
51(4) . . .
48(4) . . .
47(4) . . .
57(4) . . .
55(4) . . .
59(4) . . .
56(4) . . .
64(4) . . .
61(4) . . .
59(4) . . .
51(4) . . .
56(4) . . .
50(4) . . .
50(4) . . .
64(4) . . .
51(4) . . .
48(4) . . .
58(4) . . .
61(4) . . .
58(4) . . .
53(4) . . .
55(4) . . .
67(4) . . .
49(4) . . .
49(4) . . .
54(4) . . .
58(4) . . .
54(4) . . .
53(4) . . .
59(4) . . .
58(4) . . .
50(4) . . .
52(4) . . .
48(4) . . .
58(4) . . .
52(4) . . .
55(4) . . .
54(4) . . .
57(4) . . .
48(4) . . .
58(4) . . .
59(4) . . .
65(4) . . .
59(4) . . .
54(4) . . .
58(4) . . .
52(4) . . .
58(4) . . .
59(4) . . .
58(4) . . .
51(4) . . .
47(4) . . .
52(4) . . .
65(4) . . .
63(4) . . .
52(4) . . .
48(4) . . .
65(4) . . .
55(4) . . .
66(4) . . .
44.5(35) . . .
45(4) . . .
55(4) . . .
55(4) . . .
49(4) . . .
60(4) . . .
55(4) . . .
61(4) . . .
58(4) . . .
63(4) . . .
58(4) . . .
56(4) . . .
49(4) . . .
49(4) . . .
57(4) . . .
53(4) . . .
48(4) . . .
52(4) . . .
49(4) . . .
43.4(34) . . .
45.4(35) . . .
59(4) . . .
58(4) . . .
50(4) . . .
49(4) . . .
57(4) . . .
50(4) . . .
53(4) . . .
59(4) . . .
60(4) . . .
56(4) . . .
54(4) . . .
73(5) . . .
60(4) . . .
62(4) . . .
61(4) . . .
56(4) . . .
60(4) . . .
44(4) . . .
49(4) . . .
54(4) . . .
53(4) . . .
46(4) . . .
44(4) . . .
51(4) . . .
54(4) . . .
59(4) . . .
53(4) . . .
61(4) . . .
54(4) . . .
56(4) . . .
56(4) . . .
61(4) . . .
45(4) . . .
42.1(33) . . .
61(4) . . .
56(4) . . .
58(4) . . .
49(4) . . .
50(4) . . .
55(4) . . .
47(4) . . .
50(4) . . .
46(4) . . .
50(4) . . .
55(4) . . .
54(4) . . .
51(4) . . .
46(4) . . .
47(4) . . .
53(4) . . .
51(4) . . .
50(4) . . .
58(4) . . .
53(4) . . .
49(4) . . .
55(4) . . .
55(4) . . .
51(4) . . .
66(4) . . .
56(4) . . .
51(4) . . .
46(4) . . .
61(4) . . .
54(4) . . .
54(4) . . .
60(4) . . .
57(4) . . .
55(4) . . .
70(4) . . .
58(4) . . .
58(4) . . .
54(4) . . .
61(4) . . .
62(4) . . .
61(4) . . .
46(4) . . .
52(4) . . .
53(4) . . .
57(4) . . .
54(4) . . .
48(4) . . .
51(4) . . .
49(4) . . .
56(4) . . .
59(4) . . .
54(4) . . .
42(4) . . .
57(4) . . .
57(4) . . .
59(4) . . .
53(4) . . .
50(4) . . .
52(4) . . .
51(4) . . .
62(4) . . .
43.7(34) . . .
55(4) . . .
50(4) . . .
51(4) . . .
53(4) . . .
53(4) . . .
54(4) . . .
61(4) . . .
55(4) . . .
49(4) . . .
56(4) . . .
62(4) . . .
58(4) . . .
59(4) . . .
53(4) . . .
46(4) . . .
57(4) . . .
66(4) . . .
49(4) . . .
59(4) . . .
57(4) . . .
52(4) . . .
61(4) . . .
57(4) . . .
56(4) . . .
57(4) . . .
53(4) . . .
58(4) . . .
63(4) . . .
66(5) . . .
51(4) . . .
43.6(34) . . .
50(4) . . .
55(4) . . .
58(4) . . .
59(4) . . .
58(4) . . .
50(4) . . .
43(4) . . .
50(4) . . .
52(4) . . .
58(4) . . .
61(4) . . .
48(4) . . .
46(4) . . .
56(4) . . .
62(4) . . .
61(4) . . .
47(4) . . .
52(4) . . .
50(4) . . .
59(4) . . .
52(4) . . .
52(4) . . .
56(4) . . .
52(4) . . .
67(4) . . .
52(4) . . .
61(4) . . .
67(4) . . .
67(4) . . .
52(4) . . .
54(4) . . .
52(4) . . .
49(4) . . .
57(4) . . .
53(4) . . .
45(4) . . .
57(4) . . .
59(4) . . .
45.7(35) . . .
56(4) . . .
60(4) . . .
50(4) . . .
46(4) . . .
44.4(35) . . .
58(4) . . .
52(4) . . .
59(4) . . .
56(4) . . .
53(4) . . .
49(4) . . .
48(4) . . .
52(4) . . .
49(4) . . .
56(4) . . .
52(4) . . .
57(4) . . .
61(4) . . .
51(4) . . .
56(4) . . .
57(4) . . .
44.2(34) . . .
50(4) . . .
59(4) . . .
52(4) . . .
50(4) . . .
62(5) . . .
53(4) . . .
46(4) . . .
51(4) . . .
42(4) . . .
54(4) . . .
61(4) . . .
61(4) . . .
51(4) . . .
56(4) . . .
50(4) . . .
52(4) . . .
50(4) . . .
49(4) . . .
47(4) . . .
56(4) . . .
61(4) . . .
59(4) . . .
50(4) . . .
52(4) . . .
55(4) . . .
46.2(35) . . .
54(4) . . .
54(4) . . .
56(4) . . .
57(4) . . .
56(4) . . .
49(4) . . .
53(4) . . .
52(4) . . .
52(4) . . .
50(4) . . .
49(4) . . .
56(4) . . .
59(4) . . .
57(4) . . .
52(4) . . .
62(4) . . .
48(4) . . .
53(4) . . .
50(4) . . .
58(4) . . .
47(4) . . .
52(4) . . .
50(4) . . .
50(4) . . .
56(4) . . .
54(4) . . .
45(4) . . .
45.1(35) . . .
49(4) . . .
45(4) . . .
52(4) . . .
47(4) . . .
57(4) . . .
60(4) . . .
49(4) . . .
58(4) . . .
59(4) . . .
60(4) . . .
50(4) . . .
55(4) . . .
48(4) . . .
59(4) . . .
59(4) . . .
70(5) . . .
55(4) . . .
55(4) . . .
57(4) . . .
51(4) . . .
50(4) . . .
53(4) . . .
56(4) . . .
43.9(34) . . .
57(4) . . .
57(4) . . .
44.4(35) . . .
56(4) . . .
59(4) . . .
59(4) . . .
50(4) . . .
44.0(35) . . .
50(4) . . .
49(4) . . .
56(4) . . .
53(4) . . .
44.6(35) . . .
72(5) . . .
54(4) . . .
64(5) . . .
54(4) . . .
59(4) . . .
39.1(33) . . .
54(4) . . .
52(4) . . .
59(4) . . .
53(4) . . .
48(4) . . .
57(4) . . .
50(4) . . .
49(4) . . .
51(4) . . .
51(4) . . .
54(4) . . .
56(4) . . .
56(4) . . .
45.8(34) . . .
56(4) . . .
55(4) . . .
55(4) . . .
58(4) . . .
49(4) . . .
54(4) . . .
52(4) . . .
54(4) . . .
60(4) . . .
53(4) . . .
50(4) . . .
48(4) . . .
53(4) . . .
53(4) . . .
47(4) . . .
48(4) . . .
43(4) . . .
49(4) . . .
56(4) . . .
56(4) . . .
51(4) . . .
56(4) . . .
48(4) . . .
59(4) . . .
70(4) . . .
54(4) . . .
46(4) . . .
54(4) . . .
51(4) . . .
51(4) . . .
51(4) . . .
55(4) . . .
58(4) . . .
57(4) . . .
52(4) . . .
53(4) . . .
59(4) . . .
51(4) . . .
50(4) . . .
62(4) . . .
67(4) . . .
62(4) . . .
51(4) . . .
50(4) . . .
54(4) . . .
55(4) . . .
56(4) . . .
63(4) . . .
58(4) . . .
54(4) . . .
47(4) . . .
50(4) . . .
60(4) . . .
51(4) . . .
53(4) . . .
66(4) . . .
66(4) . . .
54(4) . . .
50(4) . . .
53(4) . . .
51(4) . . .
58(4) . . .
71(4) . . .
55(4) . . .
51(4) . . .
49(4) . . .
51(4) . . .
53(4) . . .
63(4) . . .
52(4) . . .
60(4) . . .
57(4) . . .
50(4) . . .
45.5(35) . . .
60(4) . . .
57(4) . . .
46(4) . . .
46(4) . . .
53(4) . . .
64(4) . . .
41.3(34) . . .
50(4) . . .
51(4) . . .
56(4) . . .
58(4) . . .
55(4) . . .
43.2(35) . . .
58(4) . . .
61(4) . . .
53(4) . . .
56(4) . . .
63(4) . . .
54(4) . . .
53(4) . . .
50(4) . . .
54(4) . . .
54(4) . . .
53(4) . . .
48(4) . . .
55(4) . . .
48(4) . . .
46(4) . . .
54(4) . . .
51(4) . . .
48(4) . . .
61(4) . . .
63(4) . . .
57(4) . . .
57(4) . . .
54(4) . . .
56(4) . . .
53(4) . . .
45(4) . . .
54(4) . . .
54(4) . . .
51(4) . . .
56(4) . . .
57(4) . . .
50(4) . . .
58(4) . . .
54(4) . . .
47(4) . . .
48(4) . . .
52(4) . . .
52(4) . . .
58(4) . . .
56(4) . . .
57(4) . . .
59(4) . . .
56(4) . . .
56(4) . . .
51(4) . . .
43.7(35) . . .
53(4) . . .
42.7(34) . . .
59(4) . . .
54(4) . . .
48(4) . . .
53(4) . . .
46(4) . . .
53(4) . . .
56(4) . . .
50(4) . . .
58(4) . . .
56(4) . . .
44(4) . . .
43.0(34) . . .
62(4) . . .
57(4) . . .
54(4) . . .
62(4) . . .
51(4) . . .
51(4) . . .
50(4) . . .
50(4) . . .
54(4) . . .
55(4) . . .
48(4) . . .
47(4) . . .
62(4) . . .
58(4) . . .
51(4) . . .
45.0(35) . . .
49(4) . . .
61(4) . . .
54(4) . . .
51(4) . . .
48(4) . . .
44(4) . . .
50(4) . . .
52(4) . . .
54(4) . . .
49(4) . . .
52(4) . . .
60(4) . . .
53(4) . . .
55(4) . . .
63(4) . . .
51(4) . . .
57(4) . . .
49(4) . . .
50(4) . . .
41.9(34) . . .
43.2(35) . . .
53(4) . . .
54(4) . . .
51(4) . . .
56(4) . . .
51(4) . . .
56(4) . . .
57(4) . . .
44.4(35) . . .
48(4) . . .
52(4) . . .
58(4) . . .
56(4) . . .
54(4) . . .
53(4) . . .
58(4) . . .
53(4) . . .
54(4) . . .
57(4) . . .
61(4) . . .
54(4) . . .
53(4) . . .
58(4) . . .
53(4) . . .
54(4) . . .
49(4) . . .
48(4) . . .
45(4) . . .
55(4) . . .
57(4) . . .
59(4) . . .
48(4) . . .
47(4) . . .
53(4) . . .
50(4) . . .
54(4) . . .
58(4) . . .
48(4) . . .
53(4) . . .
58(4) . . .
56(4) . . .
52(4) . . .
51(4) . . .
46(4) . . .
57(4) . . .
54(4) . . .
58(4) . . .
53(4) . . .
52(4) . . .
52(4) . . .
60(4) . . .
62(4) . . .
46(4) . . .
57(4) . . .
54(4) . . .
63(4) . . .
59(4) . . .
51(4) . . .
65(5) . . .
46(4) . . .
61(4) . . .
52(4) . . .
57(4) . . .
51(4) . . .
55(4) . . .
46(4) . . .
41.8(33) . . .
48(4) . . .
49(4) . . .
45(4) . . .
52(4) . . .
55(4) . . .
52(4) . . .
58(4) . . .
56(4) . . .
51(4) . . .
45(4) . . .
35.8(30) . . .
52(4) . . .
60(4) . . .
50(4) . . .
46.3(35) . . .
41.0(33) . . .
50(4) . . .
51(4) . . .
49(4) . . .
55(4) . . .
53(4) . . .
54(4) . . .
55(4) . . .
48(4) . . .
55(4) . . .
51(4) . . .
44(4) . . .
45(4) . . .
48(4) . . .
53(4) . . .
54(4) . . .
53(4) . . .
52(4) . . .
50(4) . . .
51(4) . . .
51(4) . . .
58(4) . . .
54(4) . . .
54(4) . . .
59(4) . . .
50(4) . . .
50(4) . . .
48(4) . . .
48(4) . . .
54(4) . . .
50(4) . . .
52(4) . . .
50(4) . . .
58(4) . . .
58(4) . . .
55(4) . . .
59(4) . . .
48(4) . . .
58(4) . . .
46(4) . . .
48(4) . . .
50(4) . . .
48(4) . . .
54(4) . . .
59(4) . . .
48(4) . . .
48(4) . . .
54(4) . . .
55(4) . . .
54(4) . . .
49(4) . . .
49(4) . . .
55(4) . . .
54(4) . . .
59(4) . . .
65(5) . . .
53(4) . . .
61(4) . . .
54(4) . . .
56(4) . . .
48(4) . . .
45(4) . . .
45(4) . . .
45(4) . . .
53(4) . . .
62(4) . . .
58(4) . . .
54(4) . . .
58(4) . . .
58(4) . . .
50(4) . . .
49(4) . . .
40.7(33) . . .
43.5(35) . . .
54(4) . . .
53(4) . . .
54(4) . . .
51(4) . . .
39.0(34) . . .
48(4) . . .
59(4) . . .
61(4) . . .
63(4) . . .
51(4) . . .
55(4) . . .
53(4) . . .
48(4) . . .
57(4) . . .
56(4) . . .
63(4) . . .
54(4) . . .
55(4) . . .
51(4) . . .
52(4) . . .
60(4) . . .
55(4) . . .
67(4) . . .
53(4) . . .
48(4) . . .
42(4) . . .
50(4) . . .
44.8(35) . . .
53(4) . . .
52(4) . . .
58(4) . . .
57(4) . . .
51(4) . . .
57(4) . . .
63(4) . . .
45(4) . . .
51(4) . . .
56(4) . . .
54(4) . . .
65(4) . . .
55(4) . . .
65(4) . . .
52(4) . . .
53(4) . . .
49(4) . . .
44(4) . . .
54(4) . . .
52(4) . . .
50(4) . . .
64(4) . . .
41.9(34) . . .
60(4) . . .
65(4) . . .
55(4) . . .
40.3(33) . . .
50(4) . . .
56(4) . . .
48(4) . . .
49(4) . . .
51(4) . . .
47(4) . . .
48(4) . . .
47(4) . . .
39.0(32) . . .
49(4) . . .
52(4) . . .
58(4) . . .
56(4) . . .
55(4) . . .
54(4) . . .
64(4) . . .
52(4) . . .
60(4) . . .
59(4) . . .
50(4) . . .
51(4) . . .
51(4) . . .
48(4) . . .
58(4) . . .
56(4) . . .
43(4) . . .
48(4) . . .
65(4) . . .
50(4) . . .
48(4) . . .
51(4) . . .
57(4) . . .
50(4) . . .
50(4) . . .
48(4) . . .
44(4) . . .
54(4) . . .
57(4) . . .
49(4) . . .
55(4) . . .
45.1(35) . . .
52(4) . . .
55(4) . . .
54(4) . . .
54(4) . . .
58(4) . . .
52(4) . . .
48(4) . . .
52(4) . . .
50(4) . . .
53(4) . . .
52(4) . . .
51(4) . . .
50(4) . . .
52(4) . . .
50(4) . . .
58(4) . . .
55(4) . . .
61(5) . . .
48(4) . . .
53(4) . . .
57(4) . . .
49(4) . . .
55(4) . . .
64(4) . . .
45.4(35) . . .
59(4) . . .
49(4) . . .
53(4) . . .
64(4) . . .
52(4) . . .
53(4) . . .
53(4) . . .
52(4) . . .
55(4) . . .
51(4) . . .
53(4) . . .
57(4) . . .
59(4) . . .
51(4) . . .
49(4) . . .
58(4) . . .
55(4) . . .
58(4) . . .
57(4) . . .
68(4) . . .
59(4) . . .
50(4) . . .
55(4) . . .
52(4) . . .
40.5(33) . . .
45(4) . . .
55(4) . . .
56(4) . . .
49(4) . . .
50(4) . . .
47(4) . . .
41.0(34) . . .
45(4) . . .
47(4) . . .
57(4) . . .
49(4) . . .
53(4) . . .
49(4) . . .
51(4) . . .
44.4(35) . . .
49(4) . . .
63(5) . . .
50(4) . . .
53(4) . . .
58(4) . . .
59(4) . . .
53(4) . . .
54(4) . . .
44(4) . . .
57(4) . . .
48(4) . . .
60(5) . . .
56(4) . . .
52(4) . . .
54(4) . . .
61(4) . . .
50(4) . . .
55(4) . . .
53(4) . . .
50(4) . . .
51(4) . . .
50(4) . . .
48(4) . . .
55(4) . . .
63(4) . . .
46(4) . . .
61(4) . . .
61(4) . . .
48(4) . . .
58(4) . . .
58(4) . . .
48(4) . . .
57(4) . . .
52(4) . . .
45(4) . . .
45(4) . . .
65(5) . . .
52(4) . . .
44.5(35) . . .
57(4) . . .
48(4) . . .
49(4) . . .
63(4) . . .
57(4) . . .
57(4) . . .
47(4) . . .
51(4) . . .
47(4) . . .
51(4) . . .
45(4) . . .
57(4) . . .
46(4) . . .
51(4) . . .
51(4) . . .
48(4) . . .
58(4) . . .
52(4) . . .
45.0(35) . . .
51(4) . . .
45(4) . . .
54(4) . . .
55(4) . . .
58(4) . . .
52(4) . . .
58(4) . . .
49(4) . . .
50(4) . . .
57(4) . . .
49(4) . . .
44(4) . . .
46(4) . . .
52(4) . . .
45.2(35) . . .
55(4) . . .
52(4) . . .
42(4) . . .
52(4) . . .
56(4) . . .
45.3(35) . . .
48(4) . . .
52(4) . . .
55(4) . . .
55(4) . . .
61(4) . . .
58(4) . . .
51(4) . . .
53(4) . . .
55(4) . . .
42.3(35) . . .
44(4) . . .
47(4) . . .
54(4) . . .
56(4) . . .
51(4) . . .
51(4) . . .
49(4) . . .
38.5(33) . . .
49(4) . . .
53(4) . . .
58(4) . . .
53(4) . . .
58(4) . . .
56(4) . . .
50(4) . . .
56(4) . . .
59(4) . . .
61(4) . . .
57(4) . . .
51(4) . . .
54(4) . . .
51(4) . . .
55(4) . . .
49(4) . . .
52(4) . . .
53(4) . . .
52(4) . . .
50(4) . . .
59(4) . . .
48(4) . . .
49(4) . . .
46(4) . . .
50(4) . . .
50(4) . . .
53(4) . . .
48(4) . . .
50(4) . . .
49(4) . . .
56(4) . . .
51(4) . . .
52(4) . . .
42.9(34) . . .
50(4) . . .
60(4) . . .
58(4) . . .
54(4) . . .
57(4) . . .
58(4) . . .
52(4) . . .
59(4) . . .
56(4) . . .
50(4) . . .
51(4) . . .
49(4) . . .
41.3(35) . . .
54(4) . . .
61(4) . . .
55(4) . . .
48(4) . . .
45(4) . . .
51(4) . . .
59(4) . . .
50(4) . . .
51(4) . . .
52(4) . . .
52(4) . . .
43(4) . . .
55(4) . . .
50(4) . . .
58(4) . . .
53(4) . . .
55(4) . . .
54(4) . . .
56(4) . . .
54(4) . . .
52(4) . . .
58(4) . . .
58(4) . . .
57(4) . . .
55(4) . . .
54(4) . . .
46.1(35) . . .
58(4) . . .
54(4) . . .
47(4) . . .
52(4) . . .
47(4) . . .
47(4) . . .
61(4) . . .
53(4) . . .
53(4) . . .
54(4) . . .
57(4) . . .
56(4) . . .
61(4) . . .
50(4) . . .
45.6(35) . . .
67(5) . . .
55(4) . . .
49(4) . . .
52(4) . . .
64(4) . . .
54(4) . . .
52(4) . . .
43.6(35) . . .
43(4) . . .
52(4) . . .
50(4) . . .
57(4) . . .
60(4) . . .
56(4) . . .
64(4) . . .
58(4) . . .
54(4) . . .
52(4) . . .
55(4) . . .
60(4) . . .
52(4) . . .
61(4) . . .
52(4) . . .
44(4) . . .
52(4) . . .
52(4) . . .
62(5) . . .
52(4) . . .
57(4) . . .
54(4) . . .
61(4) . . .
52(4) . . .
53(4) . . .
53(4) . . .
41.0(33) . . .
54(4) . . .
53(4) . . .
52(4) . . .
57(4) . . .
51(4) . . .
53(4) . . .
55(4) . . .
48(4) . . .
47(4) . . .
56(4) . . .
59(4) . . .
53(4) . . .
49(4) . . .
46(4) . . .
53(4) . . .
55(4) . . .
55(4) . . .
38.7(33) . . .
41.3(34) . . .
55(4) . . .
44(4) . . .
36.8(32) . . .
48(4) . . .
51(4) . . .
45.0(35) . . .
49(4) . . .
57(4) . . .
48(4) . . .
51(4) . . .
51(4) . . .
57(4) . . .
50(4) . . .
50(4) . . .
54(4) . . .
48(4) . . .
46(4) . . .
58(4) . . .
54(4) . . .
48(4) . . .
48(4) . . .
51(4) . . .
50(4) . . .
50(4) . . .
49(4) . . .
44(4) . . .
50(4) . . .
52(4) . . .
56(4) . . .
52(4) . . .
60(4) . . .
44(4) . . .
59(4) . . .
49(4) . . .
49(4) . . .
52(4) . . .
63(4) . . .
53(4) . . .
47(4) . . .
56(4) . . .
48(4) . . .
55(4) . . .
50(4) . . .
58(4) . . .
52(4) . . .
50(4) . . .
44(4) . . .
56(4) . . .
41.2(34) . . .
58(4) . . .
57(4) . . .
52(4) . . .
53(4) . . .
52(4) . . .
50(4) . . .
47(4) . . .
59(4) . . .
54(4) . . .
48(4) . . .
53(4) . . .
57(4) . . .
52(4) . . .
53(4) . . .
55(4) . . .
56(4) . . .
59(4) . . .
45.9(35) . . .
47(4) . . .
45.8(35) . . .
48(4) . . .
58(4) . . .
57(4) . . .
51(4) . . .
58(4) . . .
44(4) . . .
50(4) . . .
52(4) . . .
55(4) . . .
56(4) . . .
53(4) . . .
50(4) . . .
48(4) . . .
51(4) . . .
46.0(35) . . .
44.8(35) . . .
46(4) . . .
39.2(34) . . .
52(4) . . .
49(4) . . .
51(4) . . .
57(4) . . .
52(4) . . .
53(4) . . .
55(4) . . .
55(4) . . .
48(4) . . .
47(4) . . .
55(4) . . .
46(4) . . .
48(4) . . .
48(4) . . .
58(4) . . .
49(4) . . .
48(4) . . .
53(4) . . .
50(4) . . .
45(4) . . .
56(4) . . .
50(4) . . .
49(4) . . .
54(4) . . .
46(4) . . .
55(4) . . .
51(4) . . .
54(4) . . .
49(4) . . .
42.8(34) . . .
50(4) . . .
49(4) . . .
51(4) . . .
53(4) . . .
54(4) . . .
47(4) . . .
46(4) . . .
60(5) . . .
50(4) . . .
45.2(35) . . .
63(4) . . .
48(4) . . .
57(4) . . .
53(4) . . .
53(4) . . .
40.9(33) . . .
48(4) . . .
49(4) . . .
53(4) . . .
51(4) . . .
53(4) . . .
54(4) . . .
50(4) . . .
56(4) . . .
44.8(34) . . .
54(4) . . .
56(4) . . .
47(4) . . .
47(4) . . .
49(4) . . .
42.5(34) . . .
55(4) . . .
47(4) . . .
55(4) . . .
57(4) . . .
46(4) . . .
48(4) . . .
60(4) . . .
48(4) . . .
48(4) . . .
53(4) . . .
58(4) . . .
45(4) . . .
49(4) . . .
56(4) . . .
57(4) . . .
51(4) . . .
42.7(34) . . .
50(4) . . .
47(4) . . .
44(4) . . .
39.7(34) . . .
56(4) . . .
46.6(35) . . .
56(4) . . .
51(4) . . .
51(4) . . .
46(4) . . .
47(4) . . .
42.0(34) . . .
54(4) . . .
52(4) . . .
54(4) . . .
57(4) . . .
47(4) . . .
47(4) . . .
47(4) . . .
50(4) . . .
57(4) . . .
38.9(32) . . .
47(4) . . .
57(4) . . .
60(4) . . .
46.1(35) . . .
45(4) . . .
54(4) . . .
49(4) . . .
45(4) . . .
53(4) . . .
50(4) . . .
45(4) . . .
44.6(35) . . .
62(4) . . .
58(4) . . .
61(4) . . .
59(4) . . .
48(4) . . .
51(4) . . .
56(4) . . .
53(4) . . .
59(4) . . .
52(4) . . .
47(4) . . .
52(4) . . .
42.8(34) . . .
54(4) . . .
49(4) . . .
56(4) . . .
48(4) . . .
55(4) . . .
51(4) . . .
49(4) . . .
49(4) . . .
45.2(34) . . .
48(4) . . .
50(4) . . .
54(4) . . .
65(4) . . .
50(4) . . .
50(4) . . .
57(4) . . .
53(4) . . .
60(4) . . .
54(4) . . .
51(4) . . .
50(4) . . .
49(4) . . .
53(4) . . .
48(4) . . .
45(4) . . .
49(4) . . .
56(4) . . .
57(4) . . .
58(4) . . .
56(4) . . .
49(4) . . .
56(4) . . .
51(4) . . .
56(4) . . .
66(4) . . .
57(4) . . .
55(4) . . .
47(4) . . .
54(4) . . .
59(4) . . .
54(4) . . .
48(4) . . .
49(4) . . .
49(4) . . .
45(4) . . .
47(4) . . .
52(4) . . .
49(4) . . .
55(4) . . .
44(4) . . .
45(4) . . .
48(4) . . .
44.6(35) . . .
46(4) . . .
50(4) . . .
50(4) . . .
44.7(35) . . .
59(4) . . .
56(4) . . .
51(4) . . .
58(4) . . .
53(4) . . .
49(4) . . .
50(4) . . .
45(4) . . .
47(4) . . .
51(4) . . .
47(4) . . .
53(4) . . .
61(5) . . .
54(4) . . .
56(4) . . .
49(4) . . .
47(4) . . .
43(4) . . .
49(4) . . .
52(4) . . .
50(4) . . .
51(4) . . .
56(4) . . .
55(4) . . .
55(4) . . .
43.0(34) . . .
48(4) . . .
51(4) . . .
57(4) . . .
48(4) . . .
55(4) . . .
51(4) . . .
48(4) . . .
53(4) . . .
56(4) . . .
59(4) . . .
49(4) . . .
49(4) . . .
43.9(35) . . .
56(4) . . .
53(4) . . .
41.3(34) . . .
53(4) . . .
54(4) . . .
48(4) . . .
48(4) . . .
48(4) . . .
48(4) . . .
59(4) . . .
48(4) . . .
50(4) . . .
54(4) . . .
50(4) . . .
48(4) . . .
44.6(34) . . .
54(4) . . .
51(4) . . .
55(4) . . .
58(4) . . .
43.1(34) . . .
49(4) . . .
44(4) . . .
51(4) . . .
56(4) . . .
53(4) . . .
49(4) . . .
48(4) . . .
45(4) . . .
49(4) . . .
46(4) . . .
56(4) . . .
44(4) . . .
55(4) . . .
52(4) . . .
52(4) . . .
52(4) . . .
49(4) . . .
43(4) . . .
52(4) . . .
49(4) . . .
50(4) . . .
52(4) . . .
47(4) . . .
49(4) . . .
46(4) . . .
50(4) . . .
41.8(34) . . .
61(4) . . .
48(4) . . .
46(4) . . .
47(4) . . .
52(4) . . .
46(4) . . .
54(4) . . .
50(4) . . .
55(4) . . .
51(4) . . .
52(4) . . .
48(4) . . .
54(4) . . .
51(4) . . .
54(4) . . .
57(4) . . .
42.0(35) . . .
49(4) . . .
49(4) . . .
45(4) . . .
42.8(34) . . .
46.2(35) . . .
56(4) . . .
54(4) . . .
45(4) . . .
50(4) . . .
50(4) . . .
48(4) . . .
47(4) . . .
41.3(33) . . .
42.6(34) . . .
47(4) . . .
55(4) . . .
52(4) . . .
51(4) . . .
49(4) . . .
51(4) . . .
60(4) . . .
46(4) . . .
53(4) . . .
44.3(35) . . .
60(4) . . .
44.7(34) . . .
52(4) . . .
41.5(33) . . .
48(4) . . .
41.0(34) . . .
48(4) . . .
46(4) . . .
50(4) . . .
46(4) . . .
45(4) . . .
49(4) . . .
51(4) . . .
57(4) . . .
52(4) . . .
53(4) . . .
54(4) . . .
54(4) . . .
53(4) . . .
60(4) . . .
57(4) . . .
54(4) . . .
51(4) . . .
47(4) . . .
51(4) . . .
45(4) . . .
35.6(31) . . .
44(4) . . .
48(4) . . .
47(4) . . .
53(4) . . .
56(4) . . .
53(4) . . .
53(4) . . .
52(4) . . .
51(4) . . .
45(4) . . .
45.4(35) . . .
43.3(34) . . .
46(4) . . .
51(4) . . .
50(4) . . .
51(4) . . .
48(4) . . .
55(4) . . .
48(4) . . .
36.5(31) . . .
56(4) . . .
54(4) . . .
52(4) . . .
41.4(33) . . .
52(4) . . .
59(4) . . .
45.4(35) . . .
43.0(34) . . .
57(4) . . .
54(4) . . .
61(4) . . .
59(4) . . .
62(4) . . .
53(4) . . .
52(4) . . .
44(4) . . .
48(4) . . .
46(4) . . .
54(4) . . .
53(4) . . .
55(4) . . .
42.5(34) . . .
50(4) . . .
43(4) . . .
43.1(34) . . .
48(4) . . .
44.6(35) . . .
54(4) . . .
51(4) . . .
50(4) . . .
57(4) . . .
48(4) . . .
51(4) . . .
52(4) . . .
40.5(34) . . .
57(4) . . .
46(4) . . .
47(4) . . .
64(5) . . .
44.4(35) . . .
49(4) . . .
52(4) . . .
49(4) . . .
50(4) . . .
63(4) . . .
50(4) . . .
53(4) . . .
49(4) . . .
55(4) . . .
56(4) . . .
43.0(34) . . .
59(4) . . .
54(4) . . .
49(4) . . .
44(4) . . .
51(4) . . .
52(4) . . .
47(4) . . .
45(4) . . .
55(4) . . .
52(4) . . .
47(4) . . .
42.4(33) . . .
53(4) . . .
51(4) . . .
47(4) . . .
44.3(34) . . .
47(4) . . .
49(4) . . .
53(4) . . .
43.3(34) . . .
43(4) . . .
49(4) . . .
41.3(35) . . .
43(4) . . .
41.4(34) . . .
48(4) . . .
42(4) . . .
47(4) . . .
41.5(34) . . .
54(4) . . .
50(4) . . .
53(4) . . .
48(4) . . .
63(4) . . .
49(4) . . .
53(4) . . .
54(4) . . .
51(4) . . .
56(4) . . .
51(4) . . .
59(4) . . .
52(4) . . .
49(4) . . .
52(4) . . .
47(4) . . .
57(4) . . .
48(4) . . .
47(4) . . .
44.3(35) . . .
44.4(34) . . .
60(4) . . .
49(4) . . .
52(4) . . .
56(4) . . .
61(4) . . .
46.8(35) . . .
54(4) . . .
49(4) . . .
47(4) . . .
44.4(34) . . .
54(4) . . .
46(4) . . .
47(4) . . .
56(4) . . .
47(4) . . .
53(4) . . .
56(4) . . .
54(4) . . .
48(4) . . .
48(4) . . .
52(4) . . .
47(4) . . .
45.7(35) . . .
55(4) . . .
44(4) . . .
56(4) . . .
52(4) . . .
40.3(33) . . .
56(4) . . .
58(4) . . .
48(4) . . .
48(4) . . .
53(4) . . .
48(4) . . .
40.8(34) . . .
47(4) . . .
51(4) . . .
53(4) . . .
58(4) . . .
52(4) . . .
49(4) . . .
48(4) . . .
49(4) . . .
43.3(34) . . .
53(4) . . .
46(4) . . .
41.9(35) . . .
47(4) . . .
54(4) . . .
49(4) . . .
46(4) . . .
47(4) . . .
41.4(33) . . .
44(4) . . .
55(4) . . .
55(4) . . .
47(4) . . .
49(4) . . .
49(4) . . .
48(4) . . .
52(4) . . .
51(4) . . .
50(4) . . .
50(4) . . .
49(4) . . .
53(4) . . .
49(4) . . .
47(4) . . .
56(4) . . .
47(4) . . .
48(4) . . .
40.6(33) . . .
60(4) . . .
58(4) . . .
50(4) . . .
39.2(32) . . .
57(4) . . .
50(4) . . .
48(4) . . .
51(4) . . .
52(4) . . .
51(4) . . .
52(4) . . .
34.4(32) . . .
44(4) . . .
45(4) . . .
55(4) . . .
37.6(32) . . .
44(4) . . .
48(4) . . .
60(4) . . .
43.8(34) . . .
49(4) . . .
53(4) . . .
52(4) . . .
53(4) . . .
45.7(35) . . .
53(4) . . .
48(4) . . .
40.1(33) . . .
47(4) . . .
60(4) . . .
51(4) . . .
52(4) . . .
64(5) . . .
56(4) . . .
48(4) . . .
52(4) . . .
55(4) . . .
58(4) . . .
49(4) . . .
53(4) . . .
51(4) . . .
51(4) . . .
55(4) . . .
47(4) . . .
40.3(33) . . .
57(4) . . .
45(4) . . .
51(4) . . .
43(4) . . .
45.3(35) . . .
48(4) . . .
54(4) . . .
50(4) . . .
53(4) . . .
51(4) . . .
49(4) . . .
52(4) . . .
53(4) . . .
59(4) . . .
52(4) . . .
42.7(35) . . .
42.8(34) . . .
51(4) . . .
50(4) . . .
45(4) . . .
55(4) . . .
60(4) . . .
49(4) . . .
46(4) . . .
42.3(34) . . .
48(4) . . .
48(4) . . .
52(4) . . .
50(4) . . .
53(4) . . .
48(4) . . .
55(4) . . .
53(4) . . .
49(4) . . .
45(4) . . .
38.3(33) . . .
51(4) . . .
50(4) . . .
47(4) . . .
46(4) . . .
45(4) . . .
44(4) . . .
52(4) . . .
52(4) . . .
47(4) . . .
45(4) . . .
46(4) . . .
52(4) . . .
55(4) . . .
59(4) . . .
50(4) . . .
49(4) . . .
41.5(35) . . .
61(4) . . .
46(4) . . .
45(4) . . .
46(4) . . .
51(4) . . .
51(4) . . .
49(4) . . .
46(4) . . .
48(4) . . .
51(4) . . .
43.4(34) . . .
53(4) . . .
54(4) . . .
45(4) . . .
47(4) . . .
51(4) . . .
45(4) . . .
51(4) . . .
55(4) . . .
40.9(33) . . .
49(4) . . .
54(4) . . .
44.3(35) . . .
44.0(34) . . .
49(4) . . .
47(4) . . .
56(4) . . .
55(4) . . .
48(4) . . .
46(4) . . .
52(4) . . .
39.3(32) . . .
49(4) . . .
51(4) . . .
54(4) . . .
50(4) . . .
41.2(35) . . .
49(4) . . .
51(4) . . .
42.4(34) . . .
42.9(35) . . .
50(4) . . .
48(4) . . .
43.2(35) . . .
52(4) . . .
41.4(34) . . .
51(4) . . .
53(4) . . .
49(4) . . .
49(4) . . .
48(4) . . .
50(4) . . .
50(4) . . .
50(4) . . .
54(4) . . .
51(4) . . .
51(4) . . .
45(4) . . .
42.1(33) . . .
46(4) . . .
47(4) . . .
57(5) . . .
44(4) . . .
50(4) . . .
50(4) . . .
41.5(34) . . .
55(4) . . .
56(4) . . .
55(4) . . .
54(4) . . .
53(4) . . .
49(4) . . .
45(4) . . .
47(4) . . .
45.6(35) . . .
41.2(35) . . .
54(4) . . .
50(4) . . .
39.9(33) . . .
49(4) . . .
57(4) . . .
52(4) . . .
39.8(34) . . .
48(4) . . .
44(4) . . .
48(4) . . .
55(4) . . .
55(4) . . .
48(4) . . .
47(4) . . .
48(4) . . .
58(4) . . .
44.7(35) . . .
52(4) . . .
55(4) . . .
52(4) . . .
50(4) . . .
55(4) . . .
51(4) . . .
56(4) . . .
53(4) . . .
49(4) . . .
48(4) . . .
47(4) . . .
43(4) . . .
53(4) . . .
45(4) . . .
46(4) . . .
48(4) . . .
47(4) . . .
57(4) . . .
56(4) . . .
48(4) . . .
43.5(34) . . .
45(4) . . .
43(4) . . .
54(4) . . .
61(4) . . .
48(4) . . .
55(4) . . .
47(4) . . .
42(4) . . .
50(4) . . .
48(4) . . .
54(4) . . .
49(4) . . .
49(4) . . .
45.1(35) . . .
45.1(35) . . .
58(4) . . .
53(4) . . .
55(4) . . .
52(4) . . .
53(4) . . .
47(4) . . .
59(4) . . .
48(4) . . .
48(4) . . .
58(4) . . .
60(4) . . .
37.1(33) . . .
43(4) . . .
54(4) . . .
52(4) . . .
43.5(34) . . .
47(4) . . .
53(4) . . .
37.3(32) . . .
58(4) . . .
60(4) . . .
51(4) . . .
44(4) . . .
41.5(33) . . .
49(4) . . .
53(4) . . .
50(4) . . .
51(4) . . .
52(4) . . .
43.7(35) . . .
51(4) . . .
50(4) . . .
42.9(34) . . .
51(4) . . .
48(4) . . .
54(4) . . .
48(4) . . .
45(4) . . .
54(4) . . .
49(4) . . .
47(4) . . .
50(4) . . .
56(4) . . .
54(4) . . .
51(4) . . .
53(4) . . .
43.8(35) . . .
43.3(34) . . .
43(4) . . .
45(4) . . .
53(4) . . .
40.1(33) . . .
51(4) . . .
48(4) . . .
43.2(35) . . .
49(4) . . .
45(4) . . .
53(4) . . .
48(4) . . .
44(4) . . .
51(4) . . .
45(4) . . .
46(4) . . .
60(4) . . .
48(4) . . .
53(4) . . .
47(4) . . .
47(4) . . .
44(4) . . .
44(4) . . .
47(4) . . .
46(4) . . .
48(4) . . .
54(4) . . .
46(4) . . .
55(4) . . .
48(4) . . .
48(4) . . .
41(4) . . .
35.1(34) . . .
41(4) . . .
54(4) . . .
48(4) . . .
44.5(35) . . .
55(4) . . .
47(4) . . .
39.3(34) . . .
36.3(32) . . .
50(4) . . .
43(4) . . .
48(4) . . .
48(4) . . .
41.3(33) . . .
50(4) . . .
55(4) . . .
52(4) . . .
53(4) . . .
42.6(35) . . .
39.3(33) . . .
44(4) . . .
51(4) . . .
50(4) . . .
48(4) . . .
43(4) . . .
48(4) . . .
44.3(35) . . .
50(4) . . .
45(4) . . .
54(4) . . .
43(4) . . .
47(4) . . .
51(4) . . .
44(4) . . .
51(4) . . .
50(4) . . .
43.7(35) . . .
45.9(35) . . .
53(4) . . .
55(4) . . .
51(4) . . .
49(4) . . .
52(4) . . .
59(4) . . .
55(4) . . .
49(4) . . .
44(4) . . .
54(4) . . .
52(4) . . .
52(4) . . .
55(4) . . .
47(4) . . .
40.4(34) . . .
36.5(32) . . .
47(4) . . .
49(4) . . .
44.6(35) . . .
52(4) . . .
44(4) . . .
47(4) . . .
47(4) . . .
50(4) . . .
50(4) . . .
47(4) . . .
40(4) . . .
54(4) . . .
58(4) . . .
49(4) . . .
46(4) . . .
58(4) . . .
49(4) . . .
58(4) . . .
51(4) . . .
44(4) . . .
50(4) . . .
49(4) . . .
56(4) . . .
56(4) . . .
50(4) . . .
53(4) . . .
49(4) . . .
46(4) . . .
48(4) . . .
45(4) . . .
45(4) . . .
47(4) . . .
49(4) . . .
48(4) . . .
44(4) . . .
50(4) . . .
61(4) . . .
55(4) . . .
50(4) . . .
50(4) . . .
47(4) . . .
45(4) . . .
58(4) . . .
58(4) . . .
50(4) . . .
42.3(33) . . .
55(4) . . .
51(4) . . .
53(4) . . .
50(4) . . .
39.1(32) . . .
48(4) . . .
51(4) . . .
44(4) . . .
44(4) . . .
58(4) . . .
50(4) . . .
47(4) . . .
49(4) . . .
53(4) . . .
47(4) . . .
49(4) . . .
54(4) . . .
48(4) . . .
49(4) . . .
45(4) . . .
41.4(33) . . .
48(4) . . .
43(4) . . .
45(4) . . .
41.2(35) . . .
56(4) . . .
48(4) . . .
54(4) . . .
48(4) . . .
45(4) . . .
50(4) . . .
54(4) . . .
51(4) . . .
55(4) . . .
47(4) . . .
47(4) . . .
51(4) . . .
49(4) . . .
49(4) . . .
48(4) . . .
49(4) . . .
47(4) . . .
46(4) . . .
39.3(33) . . .
43.3(35) . . .
48(4) . . .
45(4) . . .
43.8(35) . . .
48(4) . . .
43.3(35) . . .
64(4) . . .
42.8(35) . . .
44(4) . . .
54(4) . . .
56(4) . . .
39.0(32) . . .
54(4) . . .
46(4) . . .
51(4) . . .
52(4) . . .
51(4) . . .
42.8(35) . . .
49(4) . . .
57(4) . . .
56(4) . . .
47(4) . . .
42.5(34) . . .
51(4) . . .
48(4) . . .
43.9(35) . . .
51(4) . . .
52(4) . . .
55(4) . . .
40.0(33) . . .
52(4) . . .
40.2(34) . . .
49(4) . . .
38.7(35) . . .
43(4) . . .
38.9(33) . . .
53(4) . . .
53(4) . . .
44(4) . . .
47(4) . . .
54(4) . . .
49(4) . . .
51(4) . . .
40.7(33) . . .
47(4) . . .
47(4) . . .
46(4) . . .
49(4) . . .
48(4) . . .
54(4) . . .
49(4) . . .
42.3(35) . . .
48(4) . . .
41.3(34) . . .
44.0(34) . . .
40.5(33) . . .
54(4) . . .
53(4) . . .
40.2(35) . . .
47(4) . . .
54(4) . . .
50(4) . . .
50(4) . . .
44.6(35) . . .
62(4) . . .
59(4) . . .
56(4) . . .
48(4) . . .
46(4) . . .
47(4) . . .
46(4) . . .
55(4) . . .
47(4) . . .
46(4) . . .
41.6(33) . . .
48(4) . . .
47(4) . . .
42(4) . . .
57(4) . . .
54(4) . . .
43(4) . . .
44(4) . . .
46(4) . . .
43(4) . . .
54(4) . . .
53(4) . . .
52(4) . . .
46(4) . . .
42.4(35) . . .
42.8(34) . . .
52(4) . . .
53(4) . . .
42.8(34) . . .
47(4) . . .
48(4) . . .
58(4) . . .
48(4) . . .
48(4) . . .
49(4) . . .
44.1(34) . . .
53(4) . . .
47(4) . . .
46(4) . . .
49(4) . . .
49(4) . . .
51(4) . . .
52(4) . . .
44.2(34) . . .
46(4) . . .
51(4) . . .
51(4) . . .
45(4) . . .
44(4) . . .
38.0(32) . . .
46(4) . . .
39.1(34) . . .
45(4) . . .
42.6(35) . . .
51(4) . . .
44.4(35) . . .
43(4) . . .
46(4) . . .
55(4) . . .
38.0(31) . . .
54(4) . . .
48(4) . . .
57(4) . . .
55(4) . . .
48(4) . . .
43.5(34) . . .
44.0(35) . . .
45(4) . . .
40(4) . . .
48(4) . . .
52(4) . . .
40.6(35) . . .
45(4) . . .
56(4) . . .
63(4) . . .
52(4) . . .
42.1(34) . . .
52(4) . . .
46(4) . . .
48(4) . . .
42(4) . . .
44(4) . . .
53(4) . . .
54(4) . . .
57(4) . . .
48(4) . . .
50(4) . . .
46(4) . . .
37.1(32) . . .
45.8(35) . . .
48(4) . . .
45(4) . . .
40.9(34) . . .
57(4) . . .
57(4) . . .
47(4) . . .
44(4) . . .
44(4) . . .
44.6(34) . . .
57(4) . . .
42(4) . . .
50(4) . . .
48(4) . . .
51(4) . . .
41.1(33) . . .
47(4) . . .
46(4) . . .
47(4) . . .
38.6(32) . . .
46(4) . . .
49(4) . . .
48(4) . . .
44(4) . . .
49(4) . . .
54(4) . . .
47(4) . . .
39.0(34) . . .
45(4) . . .
51(4) . . .
45.3(35) . . .
53(4) . . .
50(4) . . .
49(4) . . .
42.3(34) . . .
35.9(32) . . .
42.3(35) . . .
42(4) . . .
41.7(34) . . .
46(4) . . .
40.3(35) . . .
51(4) . . .
56(4) . . .
43.6(35) . . .
38.6(32) . . .
46(4) . . .
50(4) . . .
47(4) . . .
44.6(35) . . .
42.9(34) . . .
43(4) . . .
43(4) . . .
57(4) . . .
53(4) . . .
48(4) . . .
47(4) . . .
53(4) . . .
47(4) . . .
46(4) . . .
55(4) . . .
45(4) . . .
42(4) . . .
42.3(34) . . .
55(4) . . .
49(4) . . .
54(4) . . .
50(4) . . .
46.5(35) . . .
48(4) . . .
34.3(31) . . .
36.8(33) . . .
47(4) . . .
45(4) . . .
49(4) . . .
52(4) . . .
52(4) . . .
43.4(34) . . .
52(4) . . .
45.6(34) . . .
55(4) . . .
45(4) . . .
50(4) . . .
53(4) . . .
49(4) . . .
50(4) . . .
45(4) . . .
48(4) . . .
50(4) . . .
42.1(33) . . .
47(4) . . .
38.6(33) . . .
45(4) . . .
48(4) . . .
45(4) . . .
52(4) . . .
45(4) . . .
46(4) . . .
49(4) . . .
56(4) . . .
48(4) . . .
51(4) . . .
43.8(34) . . .
57(4) . . .
51(4) . . .
49(4) . . .
46(4) . . .
52(4) . . .
46(4) . . .
53(4) . . .
53(4) . . .
48(4) . . .
42.5(35) . . .
42.8(34) . . .
51(4) . . .
53(4) . . .
50(4) . . .
56(4) . . .
58(4) . . .
46.8(35) . . .
45(4) . . .
42(4) . . .
51(4) . . .
46(4) . . .
50(4) . . .
46(4) . . .
47(4) . . .
52(4) . . .
39.3(32) . . .
41.9(34) . . .
44.1(35) . . .
41.8(35) . . .
55(4) . . .
57(4) . . .
45(4) . . .
44(4) . . .
44(4) . . .
41.4(34) . . .
43.4(34) . . .
43.5(35) . . .
49(4) . . .
54(4) . . .
43.2(35) . . .
45.2(35) . . .
39.2(33) . . .
45(4) . . .
49(4) . . .
48(4) . . .
46(4) . . .
39(4) . . .
43(4) . . .
55(4) . . .
48(4) . . .
41.4(33) . . .
56(4) . . .
47(4) . . .
40.0(32) . . .
42(4) . . .
42.2(33) . . .
45(4) . . .
45(4) . . .
46(4) . . .
42.9(35) . . .
43(4) . . .
37.3(34) . . .
45(4) . . .
47(4) . . .
39.6(33) . . .
35.9(31) . . .
41(4) . . .
59(4) . . .
50(4) . . .
51(4) . . .
54(4) . . .
45(4) . . .
51(4) . . .
38.9(33) . . .
48(4) . . .
45(4) . . .
41.2(35) . . .
44(4) . . .
35.8(31) . . .
46(4) . . .
48(4) . . .
54(4) . . .
48(4) . . .
43.8(35) . . .
46(4) . . .
62(4) . . .
45(4) . . .
46(4) . . .
41.2(34) . . .
47(4) . . .
46(4) . . .
45(4) . . .
38.7(34) . . .
48(4) . . .
41.1(34) . . .
47(4) . . .
48(4) . . .
47(4) . . .
42.9(34) . . .
47(4) . . .
45(4) . . .
52(4) . . .
50(4) . . .
49(4) . . .
50(4) . . .
46(4) . . .
49(4) . . .
37.2(33) . . .
43.0(34) . . .
48(4) . . .
52(4) . . .
45(4) . . .
41.5(35) . . .
48(4) . . .
52(4) . . .
43.1(34) . . .
56(4) . . .
53(4) . . .
46(4) . . .
50(4) . . .
52(4) . . .
45(4) . . .
43(4) . . .
49(4) . . .
50(4) . . .
42(4) . . .
53(4) . . .
39.9(33) . . .
44.0(34) . . .
50(4) . . .
51(4) . . .
45(4) . . .
51(4) . . .
38.8(32) . . .
49(4) . . .
51(4) . . .
49(4) . . .
36.9(32) . . .
41.6(34) . . .
42.5(34) . . .
45(4) . . .
43(4) . . .
37.8(33) . . .
55(4) . . .
44(4) . . .
35.5(32) . . .
45(4) . . .
51(4) . . .
36.5(32) . . .
54(4) . . .
39.9(35) . . .
44(4) . . .
51(4) . . .
45(4) . . .
46(4) . . .
44(4) . . .
46(4) . . .
42.9(34) . . .
41.6(35) . . .
51(4) . . .
58(4) . . .
51(4) . . .
46(4) . . .
53(4) . . .
41.8(34) . . .
41(4) . . .
42(4) . . .
48(4) . . .
48(4) . . .
50(4) . . .
45(4) . . .
47(4) . . .
43.7(35) . . .
48(4) . . .
51(4) . . .
49(4) . . .
48(4) . . .
37.2(32) . . .
46(4) . . .
46(4) . . .
54(4) . . .
47(4) . . .
50(4) . . .
55(4) . . .
36.9(32) . . .
44(4) . . .
40.6(33) . . .
58(4) . . .
41.4(35) . . .
41.5(35) . . .
41(4) . . .
51(4) . . .
47(4) . . .
48(4) . . .
50(4) . . .
48(4) . . .
45(4) . . .
48(4) . . .
43.1(35) . . .
45(4) . . .
50(4) . . .
46(4) . . .
52(4) . . .
51(4) . . .
41.1(35) . . .
39.1(33) . . .
40.5(34) . . .
49(4) . . .
43(4) . . .
44(4) . . .
50(4) . . .
43.5(35) . . .
52(4) . . .
54(4) . . .
49(4) . . .
51(4) . . .
40.3(33) . . .
53(4) . . .
48(4) . . .
40(4) . . .
49(4) . . .
53(4) . . .
59(4) . . .
43.3(35) . . .
41(4) . . .
48(4) . . .
60(4) . . .
55(4) . . .
45(4) . . .
48(4) . . .
42.9(35) . . .
55(4) . . .
50(4) . . .
45.2(35) . . .
42(4) . . .
49(4) . . .
52(4) . . .
47(4) . . .
56(4) . . .
45(4) . . .
44(4) . . .
48(4) . . .
41.3(34) . . .
47(4) . . .
47(4) . . .
43.7(35) . . .
45.2(35) . . .
50(4) . . .
47(4) . . .
46(4) . . .
43.8(34) . . .
46(4) . . .
48(4) . . .
53(4) . . .
51(4) . . .
44(4) . . .
48(4) . . .
48(4) . . .
54(4) . . .
53(4) . . .
45.9(35) . . .
54(4) . . .
48(4) . . .
47(4) . . .
46(4) . . .
42.9(35) . . .
52(4) . . .
38.2(33) . . .
39(4) . . .
46(4) . . .
41.0(33) . . .
41.6(34) . . .
46(4) . . .
41.0(34) . . .
42.0(34) . . .
42.8(34) . . .
55(4) . . .
50(4) . . .
53(4) . . .
48(4) . . .
49(4) . . .
61(4) . . .
55(4) . . .
57(4) . . .
45(4) . . .
48(4) . . .
49(4) . . .
43.3(34) . . .
40.4(34) . . .
50(4) . . .
43.7(35) . . .
42(4) . . .
48(4) . . .
48(4) . . .
49(4) . . .
50(4) . . .
58(4) . . .
50(4) . . .
42.0(35) . . .
41.2(35) . . .
37.2(32) . . .
49(4) . . .
52(4) . . .
43(4) . . .
50(4) . . .
44.8(35) . . .
54(4) . . .
50(4) . . .
48(4) . . .
52(4) . . .
43.1(34) . . .
47(4) . . .
44(4) . . .
36.3(32) . . .
48(4) . . .
42.8(34) . . .
49(4) . . .
51(4) . . .
54(4) . . .
38.2(32) . . .
45(4) . . .
45(4) . . .
48(4) . . .
46(4) . . .
49(4) . . .
45.7(35) . . .
56(4) . . .
52(4) . . .
51(4) . . .
47(4) . . .
55(4) . . .
46(4) . . .
49(4) . . .
43.7(35) . . .
46(4) . . .
39.5(32) . . .
41(4) . . .
48(4) . . .
47(4) . . .
48(4) . . .
47(4) . . .
41.7(34) . . .
50(4) . . .
43.0(34) . . .
47(4) . . .
41.2(34) . . .
42(4) . . .
47(4) . . .
48(4) . . .
54(4) . . .
57(4) . . .
48(4) . . .
48(4) . . .
50(4) . . .
56(4) . . .
57(4) . . .
43(4) . . .
57(4) . . .
47(4) . . .
55(4) . . .
50(4) . . .
44(4) . . .
51(4) . . .
37.9(32) . . .
40.5(33) . . .
39.7(33) . . .
45(4) . . .
51(4) . . .
50(4) . . .
44.1(34) . . .
45(4) . . .
44.4(35) . . .
55(4) . . .
40.5(34) . . .
42.8(34) . . .
42(4) . . .
49(4) . . .
45(4) . . .
51(4) . . .
45(4) . . .
50(4) . . .
43.6(35) . . .
48(4) . . .
39.7(33) . . .
44(4) . . .
34.6(31) . . .
48(4) . . .
51(4) . . .
47(4) . . .
50(4) . . .
44(4) . . .
54(4) . . .
50(4) . . .
53(4) . . .
41.9(35) . . .
42(4) . . .
43(4) . . .
39.5(34) . . .
45.4(35) . . .
50(4) . . .
58(4) . . .
49(4) . . .
37.6(33) . . .
38.0(32) . . .
45(4) . . .
50(4) . . .
48(4) . . .
50(4) . . .
46(4) . . .
51(4) . . .
45(4) . . .
42.0(34) . . .
45.4(35) . . .
50(4) . . .
42(4) . . .
52(4) . . .
61(4) . . .
42.5(33) . . .
48(4) . . .
48(4) . . .
49(4) . . .
40.0(33) . . .
46(4) . . .
46(4) . . .
47(4) . . .
52(4) . . .
41(4) . . .
41.6(34) . . .
47(4) . . .
46(4) . . .
45(4) . . .
54(4) . . .
42.9(34) . . .
48(4) . . .
43(4) . . .
47(4) . . .
43(4) . . .
44.2(34) . . .
48(4) . . .
39.8(34) . . .
52(4) . . .
44.2(35) . . .
42.3(33) . . .
38.2(33) . . .
50(4) . . .
45(4) . . .
52(4) . . .
47(4) . . .
49(4) . . .
43.4(35) . . .
49(4) . . .
46(4) . . .
41.5(34) . . .
69(5) . . .
46.3(35) . . .
59(4) . . .
47(4) . . .
31.8(30) . . .
52(4) . . .
42(4) . . .
48(4) . . .
53(4) . . .
47(4) . . .
56(4) . . .
54(4) . . .
48(4) . . .
53(4) . . .
48(4) . . .
41.3(35) . . .
39(4) . . .
39.3(33) . . .
53(4) . . .
45(4) . . .
40.0(33) . . .
42(4) . . .
37.8(33) . . .
41.3(33) . . .
49(4) . . .
39.4(33) . . .
45(4) . . .
40.6(34) . . .
39.2(33) . . .
41.5(33) . . .
47(4) . . .
47(4) . . .
48(4) . . .
48(4) . . .
43.0(35) . . .
49(4) . . .
54(4) . . .
48(4) . . .
57(4) . . .
52(4) . . .
51(4) . . .
51(4) . . .
39.2(33) . . .
50(4) . . .
46(4) . . .
52(4) . . .
41.3(33) . . .
43(4) . . .
41.4(34) . . .
55(4) . . .
46(4) . . .
40.8(33) . . .
48(4) . . .
48(4) . . .
46(4) . . .
46(4) . . .
34.1(31) . . .
42(4) . . .
38.0(32) . . .
51(4) . . .
48(4) . . .
55(4) . . .
51(4) . . .
54(4) . . .
53(4) . . .
37.8(33) . . .
52(4) . . .
37.6(32) . . .
49(4) . . .
49(4) . . .
46(4) . . .
48(4) . . .
41.5(34) . . .
41.4(33) . . .
40(4) . . .
47(4) . . .
46(4) . . .
52(4) . . .
51(4) . . .
39.2(34) . . .
40(4) . . .
40.6(35) . . .
45.5(35) . . .
47(4) . . .
49(4) . . .
42.5(35) . . .
47(4) . . .
56(4) . . .
47(4) . . .
46(4) . . .
50(4) . . .
49(4) . . .
43.1(34) . . .
38.5(33) . . .
37.8(33) . . .
48(4) . . .
48(4) . . .
52(4) . . .
37.7(32) . . .
48(4) . . .
44.4(35) . . .
47(4) . . .
52(4) . . .
42(4) . . .
45(4) . . .
44(4) . . .
42.8(35) . . .
50(4) . . .
47(4) . . .
45(4) . . .
56(4) . . .
43.2(35) . . .
53(4) . . .
42.7(34) . . .
43(4) . . .
42.7(35) . . .
47(4) . . .
53(4) . . .
46(4) . . .
52(4) . . .
46(4) . . .
47(4) . . .
54(4) . . .
58(4) . . .
51(4) . . .
47(4) . . .
46(4) . . .
37.4(33) . . .
42(4) . . .
34.5(32) . . .
34.2(30) . . .
45(4) . . .
41.0(33) . . .
48(4) . . .
47(4) . . .
46(4) . . .
42.1(33) . . .
42.5(34) . . .
42(4) . . .
45(4) . . .
55(4) . . .
57(4) . . .
49(4) . . .
36.5(32) . . .
37.1(33) . . .
43(4) . . .
48(4) . . .
42.7(35) . . .
44(4) . . .
36.1(31) . . .
51(4) . . .
48(4) . . .
39.2(32) . . .
53(4) . . .
40.4(32) . . .
48(4) . . .
51(4) . . .
52(4) . . .
46(4) . . .
38.3(33) . . .
52(4) . . .
44.8(35) . . .
46(4) . . .
42(4) . . .
49(4) . . .
45(4) . . .
57(4) . . .
42.5(33) . . .
50(4) . . .
43(4) . . .
44.3(35) . . .
48(4) . . .
43(4) . . .
46(4) . . .
47(4) . . .
48(4) . . .
47(4) . . .
50(4) . . .
48(4) . . .
37.6(32) . . .
39.6(33) . . .
40.2(33) . . .
43(4) . . .
57(4) . . .
48(4) . . .
44.1(34) . . .
45(4) . . .
50(4) . . .
56(4) . . .
46(4) . . .
49(4) . . .
41.8(34) . . .
48(4) . . .
41.7(34) . . .
43.6(35) . . .
47(4) . . .
42(4) . . .
34.7(34) . . .
35.2(31) . . .
49(4) . . .
56(4) . . .
52(4) . . .
48(4) . . .
36.5(31) . . .
58(4) . . .
46.0(35) . . .
41(4) . . .
38.9(35) . . .
55(4) . . .
61(4) . . .
47(4) . . .
46(4) . . .
44(4) . . .
48(4) . . .
53(4) . . .
47(4) . . .
46(4) . . .
36.6(33) . . .
40.8(35) . . .
45.0(35) . . .
43.8(35) . . .
44(4) . . .
42(4) . . .
57(4) . . .
52(4) . . .
42.3(34) . . .
49(4) . . .
56(4) . . .
44(4) . . .
43.5(34) . . .
39.5(33) . . .
46(4) . . .
52(4) . . .
38.1(34) . . .
48(4) . . .
49(4) . . .
52(4) . . .
41.8(33) . . .
47(4) . . .
44.1(34) . . .
42.2(34) . . .
35.0(31) . . .
42(4) . . .
41.2(33) . . .
45(4) . . .
45(4) . . .
47(4) . . .
43.8(35) . . .
52(4) . . .
49(4) . . .
36.5(33) . . .
39(4) . . .
39.0(34) . . .
47(4) . . .
49(4) . . .
39.4(34) . . .
45(4) . . .
42.8(35) . . .
50(4) . . .
33.6(30) . . .
42(4) . . .
49(4) . . .
53(4) . . .
45.2(35) . . .
56(4) . . .
41.5(34) . . .
33.9(31) . . .
48(4) . . .
42.7(34) . . .
49(4) . . .
46(4) . . .
46(4) . . .
39.9(34) . . .
40.9(34) . . .
35.1(31) . . .
45(4) . . .
51(4) . . .
52(4) . . .
42.7(34) . . .
42.9(35) . . .
44(4) . . .
44(4) . . .
34.9(32) . . .
34.2(31) . . .
35.7(33) . . .
38.0(35) . . .
46(4) . . .
47(4) . . .
45(4) . . .
51(4) . . .
47(4) . . .
51(4) . . .
42.1(34) . . .
50(4) . . .
49(4) . . .
50(4) . . .
44(4) . . .
39.2(33) . . .
37.7(32) . . .
52(4) . . .
39.7(34) . . .
45(4) . . .
43.1(34) . . .
41.3(33) . . .
39.4(33) . . .
40.9(34) . . .
40.1(33) . . .
48(4) . . .
37.4(31) . . .
42(4) . . .
45(4) . . .
39.8(33) . . .
41.2(33) . . .
42.0(34) . . .
45.1(34) . . .
52(4) . . .
51(4) . . .
43.4(34) . . .
51(4) . . .
49(4) . . .
46(4) . . .
47(4) . . .
30.0(29) . . .
39.6(32) . . .
45(4) . . .
45(4) . . .
52(4) . . .
58(4) . . .
54(4) . . .
48(4) . . .
47(4) . . .
41.4(33) . . .
55(4) . . .
43.7(35) . . .
41(4) . . .
46(4) . . .
51(4) . . .
32.9(30) . . .
47(4) . . .
56(4) . . .
36.4(31) . . .
48(4) . . .
41.7(34) . . .
45(4) . . .
46(4) . . .
40.6(34) . . .
57(4) . . .
48(4) . . .
40.1(34) . . .
43(4) . . .
45(4) . . .
53(4) . . .
32.3(30) . . .
40.0(33) . . .
40.7(34) . . .
42.9(35) . . .
44.3(34) . . .
43.4(35) . . .
47(4) . . .
48(4) . . .
44(4) . . .
54(4) . . .
44.1(35) . . .
41.3(34) . . .
46(4) . . .
43.2(34) . . .
53(4) . . .
47(4) . . .
58(4) . . .
51(4) . . .
42.7(35) . . .
49(4) . . .
46.6(35) . . .
44(4) . . .
55(4) . . .
55(4) . . .
45.2(35) . . .
55(4) . . .
38.6(33) . . .
48(4) . . .
47(4) . . .
52(4) . . .
54(4) . . .
46(4) . . .
45(4) . . .
31.4(30) . . .
34.3(31) . . .
36.5(31) . . .
44(4) . . .
44.6(34) . . .
52(4) . . .
42.4(34) . . .
38.4(34) . . .
51(4) . . .
43(4) . . .
45.4(35) . . .
41.9(33) . . .
37.3(33) . . .
44(4) . . .
50(4) . . .
47(4) . . .
46(4) . . .
44(4) . . .
39.0(34) . . .
35.3(31) . . .
47(4) . . .
43.2(35) . . .
36.7(33) . . .
56(4) . . .
40.7(34) . . .
44(4) . . .
42.9(34) . . .
39.2(34) . . .
46(4) . . .
41(4) . . .
44(4) . . .
46(4) . . .
40.4(34) . . .
46(4) . . .
48(4) . . .
37.0(31) . . .
48(4) . . .
40.7(34) . . .
45(4) . . .
41.7(34) . . .
44.9(35) . . .
43(4) . . .
45(4) . . .
49(4) . . .
44(4) . . .
45(4) . . .
50(4) . . .
43(4) . . .
46(4) . . .
48(4) . . .
40.1(33) . . .
40.3(35) . . .
45(4) . . .
47(4) . . .
50(4) . . .
47(4) . . .
50(4) . . .
46(4) . . .
53(4) . . .
48(4) . . .
36.5(32) . . .
51(4) . . .
51(4) . . .
39.6(33) . . .
39.1(32) . . .
44.6(35) . . .
49(4) . . .
39(4) . . .
42(4) . . .
39.6(32) . . .
42.9(35) . . .
57(4) . . .
46(4) . . .
48(4) . . .
50(4) . . .
47(4) . . .
51(4) . . .
48(4) . . .
47(4) . . .
36.9(32) . . .
53(4) . . .
46(4) . . .
44(4) . . .
34.0(31) . . .
41.8(34) . . .
45(4) . . .
53(4) . . .
43.1(34) . . .
41.0(33) . . .
40.9(33) . . .
37.9(32) . . .
38.5(33) . . .
47(4) . . .
41.3(34) . . .
43.6(35) . . .
44.7(35) . . .
52(4) . . .
40.3(33) . . .
49(4) . . .
49(4) . . .
42.8(35) . . .
44(4) . . .
41.3(35) . . .
51(4) . . .
47(4) . . .
42.8(35) . . .
41.3(35) . . .
45(4) . . .
47(4) . . .
40.8(34) . . .
40.8(35) . . .
39.2(32) . . .
51(4) . . .
52(4) . . .
41.5(34) . . .
41.6(34) . . .
37.6(33) . . .
46(4) . . .
40.0(33) . . .
49(4) . . .
44(4) . . .
36.2(32) . . .
40(4) . . .
39.2(34) . . .
40.4(33) . . .
36.4(32) . . .
38.6(34) . . .
36.8(32) . . .
40.0(33) . . .
45(4) . . .
44(4) . . .
47(4) . . .
49(4) . . .
47(4) . . .
47(4) . . .
42(4) . . .
42(4) . . .
46(4) . . .
44(4) . . .
47(4) . . .
43(4) . . .
35.7(32) . . .
42(4) . . .
43.9(34) . . .
38.8(32) . . .
44(4) . . .
45(4) . . .
40.5(34) . . .
49(4) . . .
47(4) . . .
45(4) . . .
42(4) . . .
44(4) . . .
46(4) . . .
43(4) . . .
43(4) . . .
40.8(35) . . .
41(4) . . .
52(4) . . .
47(4) . . .
40.6(34) . . .
44(4) . . .
42.6(34) . . .
51(4) . . .
38.5(34) . . .
47(4) . . .
40.2(33) . . .
45(4) . . .
41.0(34) . . .
44.2(34) . . .
44(4) . . .
47(4) . . .
39.1(33) . . .
40.5(33) . . .
45(4) . . .
44(4) . . .
50(4) . . .
39.6(33) . . .
43.0(34) . . .
41(4) . . .
39.8(35) . . .
37.1(32) . . .
39.8(33) . . .
40.2(33) . . .
38.7(32) . . .
41(4) . . .
50(4) . . .
52(4) . . .
47(4) . . .
42.2(34) . . .
40(4) . . .
39.7(34) . . .
49(4) . . .
41.3(34) . . .
41.0(33) . . .
48(4) . . .
39.2(33) . . .
49(4) . . .
39.0(32) . . .
46(4) . . .
40.4(33) . . .
44.2(35) . . .
42.9(34) . . .
39.7(33) . . .
50(4) . . .
40.6(34) . . .
43(4) . . .
45(4) . . .
44(4) . . .
40.5(34) . . .
45(4) . . .
44.6(35) . . .
48(4) . . .
41.9(34) . . .
46(4) . . .
49(4) . . .
41.5(35) . . .
39.6(33) . . .
41.5(34) . . .
39.4(34) . . .
48(4) . . .
54(4) . . .
44.5(35) . . .
47(4) . . .
47(4) . . .
44(4) . . .
41.4(33) . . .
45.6(35) . . .
42.5(35) . . .
47(4) . . .
45(4) . . .
52(4) . . .
40.9(34) . . .
43(4) . . .
52(4) . . .
35.0(30) . . .
50(4) . . .
43.9(35) . . .
46(4) . . .
48(4) . . .
52(4) . . .
40.7(33) . . .
46(4) . . .
52(4) . . .
37(4) . . .
31.1(31) . . .
40.3(32) . . .
42.2(34) . . .
50(4) . . .
40.2(35) . . .
33.9(31) . . .
30.6(28) . . .
39.3(32) . . .
43.7(35) . . .
35.8(31) . . .
51(4) . . .
37.3(32) . . .
35.6(33) . . .
41(4) . . .
36.6(31) . . .
47(4) . . .
50(4) . . .
41(4) . . .
50(4) . . .
52(4) . . .
36.8(32) . . .
43.0(34) . . .
37.4(34) . . .
36.2(33) . . .
40(4) . . .
47(4) . . .
43.6(35) . . .
46(4) . . .
33.0(31) . . .
42(4) . . .
51(4) . . .
44.6(35) . . .
48(4) . . .
48(4) . . .
49(4) . . .
38.7(32) . . .
44.0(34) . . .
55(4) . . .
49(4) . . .
43.1(35) . . .
44.5(34) . . .
42.7(34) . . .
48(4) . . .
50(4) . . .
35.0(32) . . .
38.1(33) . . .
52(4) . . .
36.7(33) . . .
32.2(31) . . .
47(4) . . .
45(4) . . .
50(4) . . .
45.2(35) . . .
49(4) . . .
44(4) . . .
48(4) . . .
49(4) . . .
49(4) . . .
45(4) . . .
40.1(35) . . .
43.4(34) . . .
47(4) . . .
41.8(34) . . .
43(4) . . .
47(4) . . .
39.2(33) . . .
38.3(32) . . .
46(4) . . .
44(4) . . .
54(4) . . .
41.7(34) . . .
48(4) . . .
45(4) . . .
57(4) . . .
47(4) . . .
57(4) . . .
42(4) . . .
46(4) . . .
41.0(34) . . .
43.0(34) . . .
50(4) . . .
41(4) . . .
39(4) . . .
46(4) . . .
44(4) . . .
46(4) . . .
50(4) . . .
43(4) . . .
46(4) . . .
41.9(33) . . .
34.5(31) . . .
42(4) . . .
46(4) . . .
40.0(34) . . .
42.9(34) . . .
31.5(30) . . .
42.1(35) . . .
43(4) . . .
45(4) . . .
44.0(35) . . .
42.0(34) . . .
43(4) . . .
40.8(35) . . .
48(4) . . .
34.4(30) . . .
47(4) . . .
47(4) . . .
37.0(34) . . .
50(4) . . .
40.7(33) . . .
44(4) . . .
42.4(35) . . .
40.4(34) . . .
41.7(35) . . .
46.3(35) . . .
51(4) . . .
35.3(32) . . .
43(4) . . .
37.6(33) . . .
38.7(33) . . .
36.0(33) . . .
36.3(32) . . .
37.7(33) . . .
42(4) . . .
50(4) . . .
53(4) . . .
47(4) . . .
45(4) . . .
44.0(34) . . .
55(4) . . .
49(4) . . .
49(4) . . .
37.0(32) . . .
42.4(34) . . .
36.8(31) . . .
42.0(34) . . .
43(4) . . .
42.2(34) . . .
47(4) . . .
36.5(32) . . .
40.0(33) . . .
39(4) . . .
37.3(34) . . .
34.3(31) . . .
36.0(31) . . .
39(4) . . .
34.1(33) . . .
38.2(34) . . .
49(4) . . .
38.0(32) . . .
51(4) . . .
47(4) . . .
42.1(35) . . .
49(4) . . .
41.3(35) . . .
45(4) . . .
37.1(33) . . .
47(4) . . .
47(4) . . .
46(4) . . .
44(4) . . .
41(4) . . .
44(4) . . .
40.0(33) . . .
49(4) . . .
48(4) . . .
49(4) . . .
48(4) . . .
39.6(32) . . .
47(4) . . .
43(4) . . .
35.0(31) . . .
40.1(33) . . .
42.9(34) . . .
51(4) . . .
50(4) . . .
51(4) . . .
47(4) . . .
45(4) . . .
30.8(30) . . .
30.8(30) . . .
41.4(35) . . .
43.9(34) . . .
47(4) . . .
40.5(35) . . .
50(4) . . .
46(4) . . .
48(4) . . .
39.8(33) . . .
41.5(35) . . .
48(4) . . .
50(4) . . .
41.4(34) . . .
45(4) . . .
39.5(35) . . .
43(4) . . .
48(4) . . .
39.0(32) . . .
35.3(31) . . .
39.5(34) . . .
46(4) . . .
37.2(33) . . .
43.2(35) . . .
43(4) . . .
42(4) . . .
46(4) . . .
36.2(31) . . .
42.3(34) . . .
50(4) . . .
41.9(35) . . .
40.2(35) . . .
48(4) . . .
42.2(34) . . .
32.6(30) . . .
39(4) . . .
44(4) . . .
48(4) . . .
35.2(31) . . .
54(4) . . .
48(4) . . .
41(4) . . .
33.8(32) . . .
40.9(34) . . .
40.3(35) . . .
49(4) . . .
34.4(31) . . .
32.7(31) . . .
35.3(31) . . .
44(4) . . .
50(4) . . .
39.1(35) . . .
47(4) . . .
40.6(33) . . .
49(4) . . .
46(4) . . .
37.2(33) . . .
44.6(35) . . .
36.9(33) . . .
42.7(35) . . .
39.1(35) . . .
41(4) . . .
45(4) . . .
48(4) . . .
35.2(31) . . .
36.2(34) . . .
30.9(29) . . .
44.5(35) . . .
43.8(35) . . .
37.0(32) . . .
47(4) . . .
39(4) . . .
40.2(34) . . .
34.9(31) . . .
44(4) . . .
49(4) . . .
49(4) . . .
34.1(30) . . .
35.0(31) . . .
43.3(35) . . .
43(4) . . .
41.3(35) . . .
44.6(35) . . .
41.7(35) . . .
35.2(31) . . .
45(4) . . .
44.0(34) . . .
48(4) . . .
47(4) . . .
39.7(34) . . .
35.7(32) . . .
42.8(34) . . .
39.3(33) . . .
42.4(35) . . .
44(4) . . .
43(4) . . .
42.4(34) . . .
43(4) . . .
49(4) . . .
45(4) . . .
48(4) . . .
49(4) . . .
51(4) . . .
40.0(33) . . .
50(4) . . .
39.8(33) . . .
47(4) . . .
51(4) . . .
35.1(31) . . .
41(4) . . .
39.2(33) . . .
40.1(33) . . .
33.1(30) . . .
47(4) . . .
41.6(35) . . .
44(4) . . .
47(4) . . .
43.4(35) . . .
38.4(33) . . .
38.0(35) . . .
43.5(34) . . .
48(4) . . .
35.1(31) . . .
49(4) . . .
49(4) . . .
52(4) . . .
38.1(32) . . .
56(4) . . .
50(4) . . .
47(4) . . .
38.7(34) . . .
41.6(33) . . .
40.0(34) . . .
39.2(33) . . .
48(4) . . .
57(4) . . .
40.5(33) . . .
48(4) . . .
39(4) . . .
44(4) . . .
55(4) . . .
38.3(32) . . .
40.9(33) . . .
53(4) . . .
43(4) . . .
43(4) . . .
38.8(33) . . .
51(4) . . .
44(4) . . .
41.5(34) . . .
41.8(34) . . .
35.6(31) . . .
48(4) . . .
40.2(33) . . .
43.4(35) . . .
46(4) . . .
46(4) . . .
46(4) . . .
43(4) . . .
49(4) . . .
32.0(30) . . .
45(4) . . .
53(4) . . .
39.7(34) . . .
37.7(34) . . .
34.7(30) . . .
47(4) . . .
44(4) . . .
45(4) . . .
44(4) . . .
48(4) . . .
43.1(34) . . .
51(4) . . .
45(4) . . .
44(4) . . .
40.9(33) . . .
31.2(29) . . .
43(4) . . .
43(4) . . .
41.2(33) . . .
43.3(34) . . .
43.4(34) . . .
40.5(34) . . .
36.1(31) . . .
46(4) . . .
42.4(35) . . .
36.7(34) . . .
39.1(34) . . .
45(4) . . .
36.6(32) . . .
46(4) . . .
39(4) . . .
43(4) . . .
39.5(35) . . .
38.8(32) . . .
50(4) . . .
32.8(30) . . .
40(4) . . .
49(4) . . .
53(4) . . .
42.1(34) . . .
38.3(34) . . .
46(4) . . .
47(4) . . .
52(4) . . .
38.3(32) . . .
36.3(32) . . .
40.3(35) . . .
35.4(31) . . .
36.4(32) . . .
38.1(32) . . .
48(4) . . .
34.5(34) . . .
45(4) . . .
36.0(31) . . .
45.5(35) . . .
42.7(34) . . .
48(4) . . .
38.9(33) . . .
40.6(33) . . .
39.1(33) . . .
43(4) . . .
39.4(34) . . .
48(4) . . .
41.5(34) . . .
33.6(33) . . .
35.3(33) . . .
38.9(35) . . .
48(4) . . .
51(4) . . .
57(4) . . .
46(4) . . .
47(4) . . .
39.1(34) . . .
35.3(31) . . .
36.7(32) . . .
41(4) . . .
49(4) . . .
44(4) . . .
42.2(34) . . .
43.6(35) . . .
33.0(31) . . .
38.7(34) . . .
32.8(30) . . .
35.0(30) . . .
33.3(31) . . .
43.3(35) . . .
40.9(34) . . .
39.8(33) . . .
34.0(30) . . .
42.3(34) . . .
35.0(32) . . .
42.3(35) . . .
31.7(29) . . .
41.9(34) . . .
35.6(31) . . .
43(4) . . .
43(4) . . .
56(4) . . .
39.3(34) . . .
41.5(35) . . .
32.2(31) . . .
38.9(34) . . .
50(4) . . .
43.9(35) . . .
46(4) . . .
41(4) . . .
47(4) . . .
48(4) . . .
37.5(32) . . .
42(4) . . .
37.4(34) . . .
36.5(34) . . .
33.3(30) . . .
42.0(34) . . .
41.3(34) . . .
44(4) . . .
43.4(35) . . .
42.8(35) . . .
34.2(31) . . .
47(4) . . .
51(4) . . .
44(4) . . .
47(4) . . .
47(4) . . .
45(4) . . .
41(4) . . .
48(4) . . .
38.0(32) . . .
41.9(34) . . .
42(4) . . .
42(4) . . .
36.9(32) . . .
45.3(35) . . .
43(4) . . .
39.0(34) . . .
41.9(35) . . .
37.7(33) . . .
39.6(34) . . .
42(4) . . .
36.3(33) . . .
41.5(34) . . .
36.3(31) . . .
38.5(33) . . .
36.5(32) . . .
47(4) . . .
34.7(31) . . .
36.3(31) . . .
38.0(32) . . .
45(4) . . .
50(4) . . .
45(4) . . .
38.1(32) . . .
52(4) . . .
37.5(32) . . .
32.4(32) . . .
38.6(35) . . .
42.3(34) . . .
43.6(34) . . .
46(4) . . .
38.6(34) . . .
40.0(34) . . .
38.5(32) . . .
41.3(33) . . .
36(4) . . .
45(4) . . .
29.6(30) . . .
31.7(29) . . .
45(4) . . .
46(4) . . .
43(4) . . .
43(4) . . .
37.7(32) . . .
41.1(34) . . .
49(4) . . .
42.1(35) . . .
34.8(31) . . .
44.3(34) . . .
34.4(31) . . .
45(4) . . .
45(4) . . .
34.5(30) . . .
33.4(30) . . .
43(4) . . .
38.7(34) . . .
47(4) . . .
46(4) . . .
45(4) . . .
34.7(31) . . .
37.8(34) . . .
38.7(35) . . .
40.9(33) . . .
46(4) . . .
36.7(32) . . .
43(4) . . .
48(4) . . .
45(4) . . .
36.2(31) . . .
49(4) . . .
41.5(34) . . .
43(4) . . .
45(4) . . .
38.3(32) . . .
42.9(34) . . .
36.3(32) . . .
40.4(35) . . .
36.1(31) . . .
39.6(33) . . .
49(4) . . .
41.0(34) . . .
39.7(34) . . .
36.3(31) . . .
41.2(33) . . .
48(4) . . .
42(4) . . .
39.0(33) . . .
40.0(33) . . .
49(4) . . .
39.1(32) . . .
41.4(35) . . .
38.5(34) . . .
42.9(34) . . .
38.2(32) . . .
41.0(35) . . .
38.2(35) . . .
44(4) . . .
38.2(33) . . .
35.9(31) . . .
41.6(33) . . .
39.3(33) . . .
45(4) . . .
42.2(34) . . .
44(4) . . .
44(4) . . .
43.8(35) . . .
45.6(35) . . .
50(4) . . .
49(4) . . .
37.1(33) . . .
39.9(33) . . .
38.5(32) . . .
43.9(35) . . .
39.4(35) . . .
44(4) . . .
33.8(32) . . .
47(4) . . .
49(4) . . .
37.5(34) . . .
35.6(34) . . .
36.8(33) . . .
43(4) . . .
52(4) . . .
44(4) . . .
41(4) . . .
42.4(35) . . .
52(4) . . .
39.8(33) . . .
33.8(32) . . .
38.9(35) . . .
42.7(34) . . .
41.5(33) . . .
44.4(35) . . .
37.5(34) . . .
35.4(32) . . .
41.0(33) . . .
36.9(31) . . .
46(4) . . .
46(4) . . .
45(4) . . .
49(4) . . .
50(4) . . .
38.8(34) . . .
36.5(34) . . .
38.1(33) . . .
42.3(34) . . .
39.5(32) . . .
34.2(31) . . .
39(4) . . .
40.1(33) . . .
45(4) . . .
48(4) . . .
39(4) . . .
45(4) . . .
50(4) . . .
50(4) . . .
40.3(33) . . .
35.8(32) . . .
40.4(34) . . .
49(4) . . .
44.2(35) . . .
43.3(34) . . .
43(4) . . .
52(4) . . .
43(4) . . .
41.1(33) . . .
35.6(31) . . .
35.5(31) . . .
42(4) . . .
43(4) . . .
41.5(34) . . .
34.3(31) . . .
36.7(33) . . .
47(4) . . .
48(4) . . .
28.3(28) . . .
44.4(35) . . .
38.3(32) . . .
44(4) . . .
35.3(32) . . .
39.3(35) . . .
38.4(33) . . .
33.7(32) . . .
34.1(34) . . .
42(4) . . .
37.2(32) . . .
46(4) . . .
42(4) . . .
37.3(34) . . .
46(4) . . .
40.3(33) . . .
42(4) . . .
36.6(35) . . .
39.0(34) . . .
39.6(33) . . .
35.5(32) . . .
42.4(35) . . .
42.2(34) . . .
49(4) . . .
37.6(32) . . .
39.9(33) . . .
35.5(32) . . .
34.1(32) . . .
42(4) . . .
35.0(31) . . .
42.7(34) . . .
55(4) . . .
39.0(32) . . .
39.3(33) . . .
39.9(33) . . .
36.0(31) . . .
41.3(35) . . .
48(4) . . .
41.9(34) . . .
38.7(33) . . .
34.2(31) . . .
33.8(31) . . .
38.4(33) . . .
45(4) . . .
37.3(33) . . .
34.7(31) . . .
46(4) . . .
38.8(35) . . .
39.2(34) . . .
34.7(31) . . .
48(4) . . .
34.2(32) . . .
38.3(35) . . .
36.3(32) . . .
39.6(33) . . .
37.4(32) . . .
44.3(34) . . .
41.8(33) . . .
43.3(34) . . .
49(4) . . .
44.0(35) . . .
38.5(33) . . .
39(4) . . .
33.7(31) . . .
45(4) . . .
44(4) . . .
37.7(34) . . .
33.2(32) . . .
45(4) . . .
44.0(34) . . .
44(4) . . .
48(4) . . .
44(4) . . .
34.9(34) . . .
40.9(33) . . .
46(4) . . .
37.8(33) . . .
32.7(33) . . .
48(4) . . .
42.4(34) . . .
40.9(35) . . .
44(4) . . .
47(4) . . .
48(4) . . .
47(4) . . .
32.8(30) . . .
38.4(35) . . .
36.9(32) . . .
42.5(34) . . .
49(4) . . .
43.8(35) . . .
37.8(34) . . .
42.6(34) . . .
41.7(34) . . .
38.8(32) . . .
43(4) . . .
36.5(34) . . .
43(4) . . .
48(4) . . .
47(4) . . .
41.3(34) . . .
42(4) . . .
34.4(32) . . .
42.2(34) . . .
49(4) . . .
41.1(35) . . .
42.5(35) . . .
39(4) . . .
36.7(33) . . .
43.7(34) . . .
48(4) . . .
37.6(33) . . .
40.4(34) . . .
43.0(34) . . .
45(4) . . .
39.4(33) . . .
35.5(30) . . .
41.3(34) . . .
37.5(32) . . .
39.6(34) . . .
36.4(33) . . .
40.0(35) . . .
46(4) . . .
50(4) . . .
50(4) . . .
38.0(33) . . .
37.6(33) . . .
39.5(32) . . .
41.2(33) . . .
42.8(35) . . .
42(4) . . .
40(4) . . .
35.7(32) . . .
41.0(33) . . .
37.6(34) . . .
36.4(31) . . .
44(4) . . .
46(4) . . .
31.2(31) . . .
44(4) . . .
52(4) . . .
39.5(33) . . .
37.4(31) . . .
45(4) . . .
42.4(34) . . .
44(4) . . .
45(4) . . .
34.7(31) . . .
33.0(30) . . .
37.2(33) . . .
42(4) . . .
38.3(33) . . .
42.9(34) . . .
45.7(35) . . .
38.1(34) . . .
34.4(34) . . .
38.5(34) . . .
40.8(33) . . .
40.4(34) . . .
49(4) . . .
41.1(33) . . .
42.5(34) . . .
37.2(32) . . .
45.5(35) . . .
41.5(34) . . .
43(4) . . .
46(4) . . .
38.2(32) . . .
36.0(33) . . .
39.4(34) . . .
43(4) . . .
33.0(33) . . .
41.5(33) . . .
38.6(34) . . .
37.0(33) . . .
41.3(34) . . .
31.5(29) . . .
40.4(33) . . .
38.4(32) . . .
38.2(33) . . .
47(4) . . .
35.8(31) . . .
42.5(34) . . .
38.4(34) . . .
47(4) . . .
44.9(35) . . .
49(4) . . .
40.0(33) . . .
42.3(34) . . .
46(4) . . .
48(4) . . .
40.6(33) . . .
38.0(32) . . .
39.8(34) . . .
34.6(33) . . .
42(4) . . .
38.4(32) . . .
39.9(33) . . .
47(4) . . .
37.2(33) . . .
38.1(34) . . .
39.6(33) . . .
49(4) . . .
38.6(33) . . .
43(4) . . .
39.4(34) . . .
37.2(32) . . .
45.5(35) . . .
45(4) . . .
42(4) . . .
46(4) . . .
40.5(33) . . .
34.5(30) . . .
41.0(34) . . .
47(4) . . .
42.6(35) . . .
36.5(32) . . .
38.2(32) . . .
47(4) . . .
39.9(35) . . .
45(4) . . .
39.3(33) . . .
50(4) . . .
44(4) . . .
43(4) . . .
34.8(30) . . .
36.9(32) . . .
42(4) . . .
42(4) . . .
37.9(33) . . .
46(4) . . .
39.8(33) . . .
35.8(32) . . .
43(4) . . .
43.9(35) . . .
41.4(33) . . .
48(4) . . .
51(4) . . .
39(4) . . .
39(4) . . .
34.3(32) . . .
41.0(34) . . .
43.5(34) . . .
49(4) . . .
43(4) . . .
34.7(31) . . .
41.5(33) . . .
41.7(34) . . .
43(4) . . .
40.6(34) . . .
42.8(34) . . .
41.4(34) . . .
39.7(33) . . .
39(4) . . .
36.8(32) . . .
35.7(32) . . .
42.0(34) . . .
48(4) . . .
44(4) . . .
37.7(35) . . .
40.3(33) . . .
47(4) . . .
43(4) . . .
37.5(33) . . .
41(4) . . .
42.8(34) . . .
40.8(35) . . .
37.1(33) . . .
42(4) . . .
42(4) . . .
58(4) . . .
38.0(33) . . .
58(4) . . .
37.5(32) . . .
37.5(32) . . .
50(4) . . .
48(4) . . .
41.9(34) . . .
43(4) . . .
37.4(32) . . .
46(4) . . .
33.0(30) . . .
42.2(35) . . .
51(4) . . .
45.6(35) . . .
44.4(35) . . .
44.3(35) . . .
39.7(34) . . .
36.1(31) . . .
41.0(34) . . .
41.4(33) . . .
49(4) . . .
38(4) . . .
39.1(35) . . .
40.8(34) . . .
37.6(32) . . .
38.7(33) . . .
41(4) . . .
34.8(31) . . .
41.2(34) . . .
48(4) . . .
40.3(33) . . .
45(4) . . .
43(4) . . .
44.6(34) . . .
41.6(34) . . .
37.4(33) . . .
48(4) . . .
41.8(34) . . .
45.4(35) . . .
36.3(32) . . .
39.1(33) . . .
44(4) . . .
45(4) . . .
50(4) . . .
50(4) . . .
45(4) . . .
41(4) . . .
41(4) . . .
34.8(30) . . .
40.7(34) . . .
38.4(34) . . .
42(4) . . .
41.6(34) . . .
36.8(32) . . .
38.1(33) . . .
45(4) . . .
40.5(35) . . .
38.0(33) . . .
33.7(30) . . .
59(4) . . .
50(4) . . .
54(4) . . .
55(4) . . .
37.1(32) . . .
31.7(29) . . .
43(4) . . .
33.3(31) . . .
42.4(34) . . .
34.6(31) . . .
44(4) . . .
50(4) . . .
44.4(35) . . .
53(4) . . .
43.9(34) . . .
40.1(33) . . .
45(4) . . .
35.8(33) . . .
51(4) . . .
33.3(31) . . .
47(4) . . .
39.0(35) . . .
39.1(34) . . .
39.6(32) . . .
41.9(35) . . .
41.1(35) . . .
41(4) . . .
40.2(35) . . .
40.1(33) . . .
40.6(33) . . .
35.9(31) . . .
35.0(31) . . .
47(4) . . .
39.7(33) . . .
39.3(33) . . .
37.6(35) . . .
43(4) . . .
40.4(34) . . .
51(4) . . .
39.1(33) . . .
39.2(34) . . .
37.9(32) . . .
37.1(32) . . .
40.5(34) . . .
40(4) . . .
36.1(32) . . .
40.0(34) . . .
41(4) . . .
39.6(33) . . .
38.9(32) . . .
37.2(32) . . .
42(4) . . .
32.2(30) . . .
46(4) . . .
45(4) . . .
38.4(34) . . .
49(4) . . .
35.5(32) . . .
42.4(34) . . .
45(4) . . .
40.5(34) . . .
50(4) . . .
42.3(34) . . .
35.4(31) . . .
46(4) . . .
41(4) . . .
46(4) . . .
41.7(34) . . .
36.8(32) . . .
38.7(33) . . .
37.3(34) . . .
44(4) . . .
44.7(35) . . .
46(4) . . .
47(4) . . .
34.5(30) . . .
35.6(32) . . .
34.9(30) . . .
41.0(34) . . .
45(4) . . .
39.5(35) . . .
36.8(32) . . .
36.0(32) . . .
37.3(32) . . .
32.8(30) . . .
35.1(31) . . .
31.9(29) . . .
43.2(34) . . .
38.2(33) . . .
41.8(35) . . .
39.7(35) . . .
28.9(29) . . .
43.5(34) . . .
40.4(35) . . .
36.6(35) . . .
42(4) . . .
36.0(33) . . .
33.4(30) . . .
33.3(31) . . .
34.7(32) . . .
40(4) . . .
40.5(34) . . .
32.8(30) . . .
35.8(32) . . .
36.9(33) . . .
37.5(33) . . .
48(4) . . .
35.7(31) . . .
52(4) . . .
50(4) . . .
40(4) . . .
44(4) . . .
42.5(34) . . .
41.5(34) . . .
34.3(31) . . .
38.3(34) . . .
31.3(30) . . .
41.6(33) . . .
46(4) . . .
42(4) . . .
46(4) . . .
38.0(33) . . .
36.0(31) . . .
38(4) . . .
34.2(32) . . .
37.8(34) . . .
37.4(33) . . .
47(4) . . .
35.4(31) . . .
39.6(33) . . .
51(4) . . .
38.3(32) . . .
39.3(33) . . .
35.3(32) . . .
44(4) . . .
44(4) . . .
35.7(32) . . .
36.2(31) . . .
50(4) . . .
52(4) . . .
40(4) . . .
39.7(33) . . .
47(4) . . .
41(4) . . .
42(4) . . .
40.0(33) . . .
47(4) . . .
47(4) . . .
45(4) . . .
34.3(31) . . .
48(4) . . .
46(4) . . .
47(4) . . .
37.2(34) . . .
37.5(33) . . .
34.6(31) . . .
45.8(35) . . .
46(4) . . .
49(4) . . .
40.6(33) . . .
40.7(34) . . .
37.2(32) . . .
39.9(35) . . .
31.7(31) . . .
37.4(33) . . .
46(4) . . .
46(4) . . .
38.6(34) . . .
28.7(29) . . .
41(4) . . .
42.0(35) . . .
40.2(34) . . .
36.3(34) . . .
44(4) . . .
48(4) . . .
39.3(33) . . .
43.7(35) . . .
44(4) . . .
40(4) . . .
31.5(30) . . .
38.8(33) . . .
40.0(33) . . .
38.0(33) . . .
50(4) . . .
31.7(30) . . .
40.5(33) . . .
32.7(29) . . .
44(4) . . .
45(4) . . .
35.8(34) . . .
38.2(32) . . .
35.7(31) . . .
38.4(33) . . .
38.8(35) . . .
34.7(31) . . .
44.8(35) . . .
45(4) . . .
39.1(35) . . .
37.9(34) . . .
39.1(32) . . .
51(4) . . .
38.5(34) . . .
42(4) . . .
43(4) . . .
42.1(34) . . .
45.2(35) . . .
53(4) . . .
43(4) . . .
35.2(32) . . .
31.6(29) . . .
42.3(34) . . .
29.6(28) . . .
40.5(34) . . .
38.9(33) . . .
49(4) . . .
48(4) . . .
38.8(34) . . .
31.6(33) . . .
37.4(34) . . .
40.7(34) . . .
38.5(32) . . .
33.7(31) . . .
38.6(35) . . .
37.0(33) . . .
45(4) . . .
35.7(31) . . .
34.1(32) . . .
40.4(34) . . .
36.6(32) . . .
36.8(32) . . .
40.8(33) . . .
44(4) . . .
31.8(31) . . .
39(4) . . .
37.4(32) . . .
42.7(34) . . .
41.0(35) . . .
40.4(34) . . .
38.9(34) . . .
39.5(33) . . .
41(4) . . .
33.1(28) . . .
40.5(35) . . .
33.7(32) . . .
35.1(31) . . .
44.2(35) . . .
41(4) . . .
39.8(35) . . .
33.3(31) . . .
38.1(32) . . .
43(4) . . .
40(4) . . .
47(4) . . .
41.2(34) . . .
40.6(33) . . .
43(4) . . .
45(4) . . .
45(4) . . .
44(4) . . .
32.6(30) . . .
33.8(31) . . .
42(4) . . .
39.9(34) . . .
42.8(34) . . .
45(4) . . .
33.6(32) . . .
43(4) . . .
40.1(33) . . .
43.1(35) . . .
42.5(34) . . .
46(4) . . .
42(4) . . .
39.7(35) . . .
48(4) . . .
40.0(34) . . .
42.2(35) . . .
34.8(33) . . .
39.1(34) . . .
41.2(34) . . .
45.8(35) . . .
48(4) . . .
43(4) . . .
42(4) . . .
34.6(30) . . .
39.9(35) . . .
39.7(33) . . .
37.4(34) . . .
38.5(33) . . .
45(4) . . .
41.9(34) . . .
48(4) . . .
41(4) . . .
38.7(34) . . .
30.6(29) . . .
34.0(30) . . .
36.1(31) . . .
43(4) . . .
43.2(35) . . .
43.6(35) . . .
41(4) . . .
35.4(33) . . .
39.0(34) . . .
38.7(33) . . .
42.0(33) . . .
45(4) . . .
36.7(32) . . .
40.2(33) . . .
47(4) . . .
39.3(33) . . .
44(4) . . .
45(4) . . .
45(4) . . .
40.4(33) . . .
43.0(34) . . .
41(4) . . .
48(4) . . .
36.5(32) . . .
32.7(30) . . .
34.7(31) . . .
45(4) . . .
50(4) . . .
42.5(34) . . .
38.6(32) . . .
46(4) . . .
36.4(32) . . .
46(4) . . .
44.4(35) . . .
44.0(35) . . .
41.2(33) . . .
42(4) . . .
40.0(34) . . .
33.8(30) . . .
39.8(33) . . .
44.1(34) . . .
49(4) . . .
45(4) . . .
35.3(32) . . .
46(4) . . .
37.2(32) . . .
38.7(34) . . .
42(4) . . .
44(4) . . .
40.4(33) . . .
31.0(29) . . .
48(4) . . .
39.7(34) . . .
50(4) . . .
46(4) . . .
37.8(33) . . .
33.6(29) . . .
39.9(33) . . .
46(4) . . .
44.0(34) . . .
38.5(32) . . .
45(4) . . .
47(4) . . .
35.0(31) . . .
31.2(29) . . .
35.5(33) . . .
35.0(32) . . .
42.4(34) . . .
44(4) . . .
42.3(34) . . .
46(4) . . .
44(4) . . .
38.3(33) . . .
42.9(34) . . .
40.9(33) . . .
39.8(33) . . .
44(4) . . .
37.4(32) . . .
41.6(33) . . .
39.3(32) . . .
40.4(33) . . .
43(4) . . .
42(4) . . .
34.5(31) . . .
43.4(34) . . .
43(4) . . .
43(4) . . .
39.2(32) . . .
38.8(33) . . .
44(4) . . .
39.7(34) . . .
48(4) . . .
43(4) . . .
37.5(32) . . .
40.3(33) . . .
44(4) . . .
52(4) . . .
38.2(33) . . .
39.2(33) . . .
48(4) . . .
38.4(32) . . .
35.4(31) . . .
38.7(34) . . .
37.6(31) . . .
38.2(33) . . .
42(4) . . .
25.5(27) . . .
35.0(31) . . .
42.6(34) . . .
39.4(33) . . .
47(4) . . .
39.2(34) . . .
41.1(34) . . .
46(4) . . .
44(4) . . .
42(4) . . .
49(4) . . .
40.9(33) . . .
37.1(33) . . .
30.3(29) . . .
44(4) . . .
38.7(32) . . .
39.6(33) . . .
39.3(33) . . .
39.3(34) . . .
39(4) . . .
36.0(32) . . .
38.7(33) . . .
42.7(34) . . .
38.3(34) . . .
42.3(35) . . .
45.8(34) . . .
47(4) . . .
44.0(34) . . .
44(4) . . .
43(4) . . .
49(4) . . .
43.0(34) . . .
42.1(33) . . .
38.1(32) . . .
46(4) . . .
48(4) . . .
33.2(30) . . .
33.7(32) . . .
38.0(34) . . .
41(4) . . .
34.3(30) . . .
43.2(35) . . .
38.6(33) . . .
29.7(28) . . .
44(4) . . .
39.7(35) . . .
31.5(29) . . .
40.7(34) . . .
34.7(31) . . .
39.2(33) . . .
42.5(34) . . .
45(4) . . .
48(4) . . .
46(4) . . .
41(4) . . .
41.6(35) . . .
41.1(34) . . .
41.0(35) . . .
39.1(34) . . .
38.8(33) . . .
38.1(33) . . .
47(4) . . .
36.4(32) . . .
33.5(33) . . .
38.3(34) . . .
48(4) . . .
36.0(32) . . .
40.2(33) . . .
40(4) . . .
52(4) . . .
36.1(31) . . .
48(4) . . .
44(4) . . .
45(4) . . .
39.8(33) . . .
37.4(32) . . .
40.3(33) . . .
30.0(30) . . .
40(4) . . .
42.0(34) . . .
45.3(35) . . .
32.0(29) . . .
34.8(34) . . .
45(4) . . .
31.6(29) . . .
36.8(31) . . .
41.1(34) . . .
42.4(35) . . .
48(4) . . .
45(4) . . .
47(4) . . .
48(4) . . .
44(4) . . .
30.3(28) . . .
44(4) . . .
32.0(30) . . .
39.4(33) . . .
43(4) . . .
40.5(34) . . .
42.5(35) . . .
32.9(30) . . .
41(4) . . .
40.6(34) . . .
40.8(32) . . .
37.7(32) . . .
40.2(33) . . .
50(4) . . .
39.9(35) . . .
47(4) . . .
49(4) . . .
40.5(33) . . .
41(4) . . .
35.4(34) . . .
33.3(30) . . .
43.0(34) . . .
44.5(35) . . .
41.6(33) . . .
31.9(32) . . .
29.5(29) . . .
33.3(31) . . .
38.3(32) . . .
35.6(32) . . .
43(4) . . .
38.4(31) . . .
45(4) . . .
48(4) . . .
35.3(31) . . .
41.2(34) . . .
34.3(30) . . .
36.2(32) . . .
36.3(31) . . .
40.5(35) . . .
45(4) . . .
51(4) . . .
49(4) . . .
41.1(34) . . .
35.5(32) . . .
40.3(33) . . .
43.1(34) . . .
41.0(33) . . .
35.3(31) . . .
48(4) . . .
47(4) . . .
35.7(34) . . .
38.9(33) . . .
42.6(34) . . .
42.3(34) . . .
38.8(35) . . .
36.4(31) . . .
42.0(34) . . .
47(4) . . .
45(4) . . .
36.3(32) . . .
37.5(32) . . .
31.3(29) . . .
42(4) . . .
38.2(32) . . .
36.0(32) . . .
38.8(33) . . .
37.5(32) . . .
37.3(33) . . .
43(4) . . .
44(4) . . .
34.1(30) . . .
53(4) . . .
45(4) . . .
35.9(34) . . .
31.2(30) . . .
40.5(34) . . .
42.1(34) . . .
35.1(33) . . .
38.9(34) . . .
47(4) . . .
46(4) . . .
43.0(34) . . .
44(4) . . .
33.8(32) . . .
48(4) . . .
40.6(33) . . .
40.2(33) . . .
40.6(35) . . .
41(4) . . .
37.6(32) . . .
50(4) . . .
37.7(32) . . .
36.0(32) . . .
43(4) . . .
36.6(31) . . .
45.2(35) . . .
49(4) . . .
43.9(34) . . .
37.5(32) . . .
45(4) . . .
38.7(33) . . .
40.9(33) . . .
39.0(33) . . .
37.1(34) . . .
36.2(32) . . .
44.6(35) . . .
37.3(34) . . .
44(4) . . .
47(4) . . .
53(4) . . .
38.2(33) . . .
44(4) . . .
39(4) . . .
46(4) . . .
32.0(29) . . .
34.9(31) . . .
37.7(32) . . .
44(4) . . .
45(4) . . .
37.0(32) . . .
37.1(32) . . .
37.3(32) . . .
35.4(33) . . .
40(4) . . .
37.2(32) . . .
31.8(29) . . .
37.4(32) . . .
41.9(34) . . .
36.5(32) . . .
31.7(30) . . .
42.8(34) . . .
38.5(34) . . .
45(4) . . .
43.4(35) . . .
52(4) . . .
44.8(35) . . .
38.9(33) . . .
46(4) . . .
43.5(35) . . .
36.4(31) . . .
36.6(31) . . .
46(4) . . .
33.2(31) . . .
31.0(30) . . .
41.7(33) . . .
47(4) . . .
46(4) . . .
29.4(29) . . .
38.6(34) . . .
37.3(31) . . .
34.6(32) . . .
37.2(33) . . .
41.0(35) . . .
41(4) . . .
38.3(32) . . .
46(4) . . .
35.5(31) . . .
43(4) . . .
44.8(35) . . .
42.4(34) . . .
37.5(33) . . .
41.3(35) . . .
50(4) . . .
50(4) . . .
47.2(35) . . .
42(4) . . .
44(4) . . .
41.0(35) . . .
36.6(33) . . .
37.3(32) . . .
34.0(29) . . .
43(4) . . .
36.7(32) . . .
50(4) . . .
51(4) . . .
48(4) . . .
40(4) . . .
35.5(31) . . .
34.0(31) . . .
33.5(30) . . .
43(4) . . .
40(4) . . .
47(4) . . .
41.8(34) . . .
48(4) . . .
41.6(35) . . .
38.5(35) . . .
35.0(32) . . .
39.4(32) . . .
39.1(32) . . .
47(4) . . .
36.6(31) . . .
56(4) . . .
38.8(33) . . .
39.6(33) . . .
39.0(33) . . .
34.2(33) . . .
36.8(34) . . .
43.6(35) . . .
34.6(30) . . .
35.6(32) . . .
28.5(29) . . .
33.2(32) . . .
35.6(31) . . .
33.4(31) . . .
49(4) . . .
44(4) . . .
36.3(32) . . .
31.2(29) . . .
40.0(33) . . .
39.7(33) . . .
36.1(32) . . .
43.1(34) . . .
41.7(34) . . .
42(4) . . .
31.0(28) . . .
35.2(30) . . .
41.9(34) . . .
38.7(32) . . .
40.9(34) . . .
38.8(33) . . .
34.0(31) . . .
41.0(34) . . .
42.4(33) . . .
37.3(33) . . .
39(4) . . .
41.6(34) . . .
45(4) . . .
39.1(32) . . .
34.8(31) . . .
38.2(33) . . .
41.0(33) . . .
32.7(30) . . .
39.8(33) . . .
43.0(34) . . .
33.5(31) . . .
32.0(32) . . .
39.8(33) . . .
46(4) . . .
39.8(35) . . .
36.1(34) . . .
36.1(32) . . .
37.2(31) . . .
39.5(32) . . .
42(4) . . .
31.7(30) . . .
40(4) . . .
49(4) . . .
43.0(35) . . .
33.2(31) . . .
40(4) . . .
39.3(33) . . .
33.0(32) . . .
38.4(32) . . .
33.5(30) . . .
33.4(31) . . .
38.6(33) . . .
41.0(34) . . .
47(4) . . .
45(4) . . .
46(4) . . .
40.3(34) . . .
45(4) . . .
47(4) . . .
44(4) . . .
37.0(32) . . .
44(4) . . .
41.7(34) . . .
36.7(32) . . .
37.5(33) . . .
40.0(33) . . .
37.7(32) . . .
29.6(29) . . .
40(4) . . .
37.9(34) . . .
32.6(30) . . .
42.6(35) . . .
39.5(33) . . .
33.5(31) . . .
30.9(32) . . .
32.5(31) . . .
41.8(33) . . .
29.2(28) . . .
38.4(33) . . .
38.1(34) . . .
37.5(33) . . .
52(4) . . .
42.3(35) . . .
43(4) . . .
46(4) . . .
41.8(35) . . .
45(4) . . .
38.2(35) . . .
36.4(33) . . .
42(4) . . .
36.8(32) . . .
40.6(33) . . .
34.8(31) . . .
34.1(30) . . .
43(4) . . .
39.3(35) . . .
47(4) . . .
47(4) . . .
46(4) . . .
42(4) . . .
40.0(33) . . .
44.0(35) . . .
37.4(33) . . .
45(4) . . .
35.5(32) . . .
29.5(29) . . .
39.0(32) . . .
41.8(35) . . .
49(4) . . .
48(4) . . .
40.7(33) . . .
32.2(30) . . .
36.9(34) . . .
40.8(35) . . .
39.6(35) . . .
30.7(29) . . .
39.4(32) . . .
40.0(34) . . .
41.5(35) . . .
46(4) . . .
36.0(31) . . .
34.4(32) . . .
52(4) . . .
38.7(34) . . .
35.6(32) . . .
41.5(33) . . .
40.4(33) . . .
34.1(32) . . .
41(4) . . .
37.5(33) . . .
34.9(31) . . .
36.8(32) . . .
33.6(31) . . .
37(4) . . .
47(4) . . .
41.0(33) . . .
33.9(31) . . .
40.0(35) . . .
40(4) . . .
48(4) . . .
37.1(31) . . .
32.3(30) . . .
41(4) . . .
42(4) . . .
42(4) . . .
45(4) . . .
39.4(33) . . .
34.8(32) . . .
38.9(34) . . .
36.9(32) . . .
41.5(34) . . .
43(4) . . .
44(4) . . .
40.7(34) . . .
42.7(34) . . .
39.2(33) . . .
37.7(32) . . .
41(4) . . .
50(4) . . .
35.4(31) . . .
42.2(34) . . .
38.5(33) . . .
43(4) . . .
40(4) . . .
40.5(35) . . .
40.6(34) . . .
39.6(35) . . .
40(4) . . .
39.6(33) . . .
38.1(33) . . .
27.1(27) . . .
42(4) . . .
43(4) . . .
37.6(33) . . .
37.1(32) . . .
47(4) . . .
37.8(33) . . .
33.7(33) . . .
45(4) . . .
36.6(31) . . .
28.2(27) . . .
33.5(31) . . .
41(4) . . .
44(4) . . .
44(4) . . .
38.1(32) . . .
32.9(31) . . .
35.6(34) . . .
36.6(33) . . .
36.7(32) . . .
34.3(30) . . .
42.4(34) . . .
42(4) . . .
42(4) . . .
38.0(32) . . .
31.0(30) . . .
44(4) . . .
36.0(33) . . .
45(4) . . .
37.0(32) . . .
41.8(35) . . .
34.3(32) . . .
32.9(30) . . .
39.2(33) . . .
42.0(34) . . .
31.3(30) . . .
35.2(32) . . .
37.4(34) . . .
27.2(27) . . .
36.4(32) . . .
38.7(34) . . .
33.8(31) . . .
44(4) . . .
44(4) . . .
35.3(31) . . .
42.4(34) . . .
41(4) . . .
37.4(33) . . .
48(4) . . .
40.2(33) . . .
40.2(33) . . .
37.1(33) . . .
40.0(34) . . .
34.9(31) . . .
40.6(33) . . .
40.3(35) . . .
41(4) . . .
43.2(34) . . .
40.5(34) . . .
38.0(32) . . .
56(4) . . .
42(4) . . .
40.9(35) . . .
33.2(30) . . .
34.1(31) . . .
46(4) . . .
41.3(35) . . .
38.5(34) . . .
38.9(32) . . .
37.3(32) . . .
31.8(32) . . .
38.4(34) . . .
42.8(35) . . .
36.3(32) . . .
33.1(30) . . .
43.4(35) . . .
45(4) . . .
36.1(32) . . .
22.3(25) . . .
35.9(31) . . .
24.9(25) . . .
35.4(32) . . .
35.4(32) . . .
44(4) . . .
39.6(33) . . .
41(4) . . .
43(4) . . .
34.6(32) . . .
39.7(33) . . .
47(4) . . .
49(4) . . .
38.4(33) . . .
41.7(34) . . .
43.2(35) . . .
42(4) . . .
38.1(34) . . .
34.6(32) . . .
37.5(32) . . .
43.1(34) . . .
37.0(33) . . .
33.7(31) . . .
35.7(32) . . .
39.3(33) . . .
40.7(33) . . .
34.1(32) . . .
36.9(33) . . .
28.1(28) . . .
39.3(33) . . .
46(4) . . .
42(4) . . .
46(4) . . .
31.9(29) . . .
33.5(30) . . .
40.4(33) . . .
45(4) . . .
39(4) . . .
41.2(34) . . .
47(4) . . .
35.7(32) . . .
37.7(33) . . .
47(4) . . .
41.2(35) . . .
42.7(35) . . .
40.1(34) . . .
37.7(32) . . .
40.1(34) . . .
35.5(32) . . .
35.6(31) . . .
33.6(30) . . .
37.9(33) . . .
39.4(34) . . .
40.0(34) . . .
28.3(28) . . .
32.3(29) . . .
48(4) . . .
50(4) . . .
48(4) . . .
47(4) . . .
32.1(29) . . .
38.2(34) . . .
39.4(35) . . .
32.2(30) . . .
41.4(34) . . .
43(4) . . .
40(4) . . .
36.8(33) . . .
46(4) . . .
41.0(33) . . .
39.4(34) . . .
49(4) . . .
41.2(34) . . .
33.7(30) . . .
40.2(32) . . .
40.1(34) . . .
45(4) . . .
46(4) . . .
48(4) . . .
38.2(32) . . .
44.0(34) . . .
45(4) . . .
32.5(29) . . .
43.3(34) . . .
41.7(34) . . .
45(4) . . .
41(4) . . .
35.8(34) . . .
31.4(29) . . .
36.5(32) . . .
42.7(35) . . .
45(4) . . .
43.8(34) . . .
39.8(33) . . .
37.8(32) . . .
46(4) . . .
39.1(33) . . .
45(4) . . .
49(4) . . .
37.7(32) . . .
39.9(33) . . .
44(4) . . .
40.3(35) . . .
41.0(33) . . .
46(4) . . .
34.5(30) . . .
41(4) . . .
42(4) . . .
35.1(31) . . .
39.0(33) . . .
38.6(33) . . .
40(4) . . .
38.7(33) . . .
31.6(30) . . .
44(4) . . .
40(4) . . .
34.8(32) . . .
44.7(35) . . .
42.0(34) . . .
35.5(33) . . .
34.8(35) . . .
32.8(30) . . .
38.7(33) . . .
37.9(32) . . .
38.5(33) . . .
42(4) . . .
41(4) . . .
37.4(32) . . .
38.7(33) . . .
40.5(35) . . .
52(4) . . .
40.2(35) . . .
29.6(29) . . .
34.9(30) . . .
39.4(33) . . .
38(4) . . .
40.0(34) . . .
40.7(34) . . .
45(4) . . .
36.2(32) . . .
40(4) . . .
43(4) . . .
49(4) . . .
55(4) . . .
39.7(33) . . .
36.0(32) . . .
37.7(33) . . .
50(4) . . .
37.7(32) . . .
40.2(35) . . .
38.2(34) . . .
36.2(32) . . .
34.6(30) . . .
46(4) . . .
44(4) . . .
42.5(35) . . .
47(4) . . .
41.6(34) . . .
44(4) . . .
35.3(30) . . .
42.1(35) . . .
35.7(31) . . .
35.8(31) . . .
40.4(35) . . .
31.8(32) . . .
40(4) . . .
42(4) . . .
37.1(32) . . .
47(4) . . .
48(4) . . .
40.9(33) . . .
39.7(35) . . .
40.7(33) . . .
36.0(32) . . .
40.0(35) . . .
36.2(32) . . .
40(4) . . .
40.9(33) . . .
44(4) . . .
31.2(30) . . .
44(4) . . .
39.3(33) . . .
30.2(29) . . .
34.0(31) . . .
38.1(35) . . .
44(4) . . .
51(4) . . .
37.7(32) . . .
44(4) . . .
42(4) . . .
39.4(35) . . .
41.2(33) . . .
44(4) . . .
39.1(34) . . .
42(4) . . .
37.0(33) . . .
45.4(35) . . .
46(4) . . .
38.8(33) . . .
37.9(34) . . .
37.9(34) . . .
48(4) . . .
38.2(32) . . .
48(4) . . .
53(4) . . .
40.9(34) . . .
37.5(32) . . .
49(4) . . .
43(4) . . .
41.7(35) . . .
43(4) . . .
42.6(35) . . .
50(4) . . .
39.3(35) . . .
34.1(32) . . .
28.6(29) . . .
35.6(31) . . .
41(4) . . .
42(4) . . .
38.2(34) . . .
41.8(34) . . .
44.6(35) . . .
50(4) . . .
38.4(34) . . .
43(4) . . .
42.7(34) . . .
43.3(34) . . .
41.2(35) . . .
44(4) . . .
34.5(31) . . .
31.0(28) . . .
33.3(30) . . .
42(4) . . .
34.8(31) . . .
43.7(35) . . .
41.8(34) . . .
31.5(30) . . .
45(4) . . .
40(4) . . .
35.4(31) . . .
38.7(32) . . .
33.8(30) . . .
35.3(30) . . .
41(4) . . .
37.3(33) . . .
32.6(30) . . .
33.0(31) . . .
33.9(32) . . .
43(4) . . .
34.0(32) . . .
33.5(31) . . .
39.4(34) . . .
34.1(33) . . .
40(4) . . .
42(4) . . .
33.7(30) . . .
37.5(32) . . .
41.1(34) . . .
48(4) . . .
47(4) . . .
50(4) . . .
32.1(30) . . .
36.4(33) . . .
31.2(30) . . .
38.4(33) . . .
38.4(33) . . .
31.5(30) . . .
41(4) . . .
40.8(35) . . .
37.6(32) . . .
37.0(31) . . .
38.4(33) . . .
36.6(33) . . .
45(4) . . .
34.2(31) . . .
33.8(31) . . .
35.0(33) . . .
38.1(34) . . .
48(4) . . .
44(4) . . .
37.7(32) . . .
46(4) . . .
43(4) . . .
39.5(34) . . .
47(4) . . .
30.0(29) . . .
30.8(30) . . .
33.4(31) . . .
40.9(35) . . .
42.3(34) . . .
42.5(34) . . .
42.3(35) . . .
39.5(34) . . .
33.0(32) . . .
33.4(30) . . .
36.0(31) . . .
47(4) . . .
43(4) . . .
48(4) . . .
35.8(31) . . .
39.9(33) . . .
38.0(30) . . .
40.3(34) . . .
43(4) . . .
47(4) . . .
60(4) . . .
32.2(31) . . .
37.6(33) . . .
32.0(29) . . .
41.8(34) . . .
41.2(34) . . .
45(4) . . .
42(4) . . .
41.6(34) . . .
34.7(30) . . .
40.8(34) . . .
57(4) . . .
41.8(34) . . .
41.2(33) . . .
42.7(35) . . .
44(4) . . .
45(4) . . .
45(4) . . .
33.8(30) . . .
41.8(34) . . .
44(4) . . .
35.8(33) . . .
31.4(30) . . .
49(4) . . .
43.7(35) . . .
39.9(35) . . .
43(4) . . .
44(4) . . .
29.9(28) . . .
39.6(33) . . .
43(4) . . .
37.8(32) . . .
45(4) . . .
55(4) . . .
46(4) . . .
34.5(32) . . .
43(4) . . .
37.5(33) . . .
41.1(34) . . .
34.3(30) . . .
38.6(33) . . .
40.0(34) . . .
42.3(34) . . .
48(4) . . .
42.5(34) . . .
41(4) . . .
38(4) . . .
32.9(32) . . .
38.8(32) . . .
35.0(31) . . .
36.0(33) . . .
37.3(32) . . .
38.6(35) . . .
36.0(32) . . .
48(4) . . .
45(4) . . .
34.3(31) . . .
42.5(34) . . .
34.6(31) . . .
37.3(34) . . .
46(4) . . .
40.2(34) . . .
39.2(33) . . .
55(4) . . .
38.1(34) . . .
49(4) . . .
46(4) . . .
40.5(33) . . .
46.7(35) . . .
38.9(34) . . .
34.1(32) . . .
35.5(32) . . .
25.0(25) . . .
52(4) . . .
46(4) . . .
38.2(34) . . .
43(4) . . .
34.9(31) . . .
40.7(33) . . .
32.3(30) . . .
31.3(32) . . .
35.0(31) . . .
45(4) . . .
40.2(33) . . .
38.0(33) . . .
39.1(34) . . .
35.7(33) . . .
42.7(35) . . .
35.5(32) . . .
41(4) . . .
39(4) . . .
43(4) . . .
38.5(32) . . .
45(4) . . .
35.3(33) . . .
43(4) . . .
41.0(34) . . .
49(4) . . .
36.7(32) . . .
35.4(33) . . .
38(4) . . .
28.9(28) . . .
35.5(32) . . .
43(4) . . .
32.6(31) . . .
38.3(35) . . .
45(4) . . .
42.6(34) . . .
38.8(35) . . .
48(4) . . .
34.6(31) . . .
36.9(33) . . .
34.3(31) . . .
37(4) . . .
34.6(33) . . .
37.5(33) . . .
31.2(30) . . .
39.5(33) . . .
37.1(32) . . .
42(4) . . .
44(4) . . .
50(4) . . .
43.7(34) . . .
37.9(32) . . .
38.6(33) . . .
37.0(33) . . .
32.3(29) . . .
42.6(35) . . .
42(4) . . .
42(4) . . .
35.6(32) . . .
39.1(33) . . .
37.3(32) . . .
46(4) . . .
47(4) . . .
42(4) . . .
39.5(32) . . .
36.5(32) . . .
37.6(34) . . .
37.5(34) . . .
39.4(33) . . .
34.4(31) . . .
42.9(34) . . .
37.5(34) . . .
43(4) . . .
37.0(32) . . .
42.1(34) . . .
33.2(31) . . .
39.9(34) . . .
34.6(32) . . .
41(4) . . .
41.0(33) . . .
49(4) . . .
47(4) . . .
37.8(34) . . .
33.5(32) . . .
40.6(33) . . .
36.8(34) . . .
47(4) . . .
43(4) . . .
40(4) . . .
38.2(32) . . .
40(4) . . .
42(4) . . .
37.7(32) . . .
40.2(34) . . .
36.6(31) . . .
43.0(35) . . .
33.6(30) . . .
35.8(31) . . .
41.8(33) . . .
39.8(33) . . .
38.3(34) . . .
44(4) . . .
44(4) . . .
38.8(32) . . .
39.0(33) . . .
40.3(34) . . .
45(4) . . .
39.2(34) . . .
43.7(35) . . .
36.0(31) . . .
38.6(33) . . .
33.7(31) . . .
40.9(35) . . .
39.5(33) . . .
37.5(31) . . .
41(4) . . .
36.4(32) . . .
44(4) . . .
42.0(33) . . .
38.0(33) . . .
31.8(29) . . .
35.4(31) . . .
42.7(34) . . .
41.2(34) . . .
32.7(30) . . .
39.1(34) . . .
38(4) . . .
38.0(34) . . .
36.1(31) . . .
45(4) . . .
36.6(34) . . .
32.8(29) . . .
36.3(31) . . .
36.6(32) . . .
35.4(31) . . .
42.3(35) . . .
36.7(35) . . .
35.0(32) . . .
31.9(30) . . .
31.0(29) . . .
36.8(35) . . .
38.9(34) . . .
31.9(30) . . .
35.7(31) . . .
44(4) . . .
36.3(33) . . .
36.8(33) . . .
37.2(32) . . .
44.3(35) . . .
41.1(34) . . .
35.0(32) . . .
39.7(34) . . .
33.6(30) . . .
41.5(34) . . .
36.7(33) . . .
40(4) . . .
48(4) . . .
49(4) . . .
50(4) . . .
40.1(33) . . .
43(4) . . .
42(4) . . .
46(4) . . .
32.2(29) . . .
32.8(32) . . .
38.3(35) . . .
38.7(33) . . .
42.9(34) . . .
49(4) . . .
31.5(29) . . .
43(4) . . .
49(4) . . .
37.7(32) . . .
45(4) . . .
42(4) . . .
34.3(32) . . .
40.8(34) . . .
45(4) . . .
36.6(32) . . .
43(4) . . .
48(4) . . .
40.5(33) . . .
39.5(33) . . .
43(4) . . .
43.7(35) . . .
51(4) . . .
43(4) . . .
34.3(31) . . .
37.1(34) . . .
34.7(35) . . .
33.8(33) . . .
40.5(34) . . .
37.7(32) . . .
41.8(35) . . .
43(4) . . .
50(4) . . .
41.9(34) . . .
39.4(33) . . .
43(4) . . .
42.0(35) . . .
42.1(34) . . .
35.0(30) . . .
49(4) . . .
44.4(35) . . .
38.3(32) . . .
33.8(32) . . .
37.2(31) . . .
38.8(33) . . .
44(4) . . .
47(4) . . .
39.3(35) . . .
37.7(32) . . .
33.3(30) . . .
46(4) . . .
34.8(34) . . .
45(4) . . .
34.2(30) . . .
38.0(32) . . .
43(4) . . .
34.0(33) . . .
38.4(34) . . .
27.5(27) . . .
38.6(33) . . .
44(4) . . .
34.6(32) . . .
42(4) . . .
38.2(32) . . .
47(4) . . .
40.3(35) . . .
39.8(35) . . .
32.2(31) . . .
42.3(34) . . .
45(4) . . .
27.9(29) . . .
35.0(31) . . .
45(4) . . .
36.4(32) . . .
30.5(30) . . .
37.2(34) . . .
35.8(33) . . .
42(4) . . .
40.8(33) . . .
37.2(33) . . .
31.3(30) . . .
42(4) . . .
37.7(33) . . .
39.2(33) . . .
46(4) . . .
45(4) . . .
41.1(34) . . .
39.3(33) . . .
31.5(29) . . .
45(4) . . .
40(4) . . .
40.0(34) . . .
35.9(31) . . .
36.5(32) . . .
36.3(33) . . .
34.7(33) . . .
38.3(33) . . .
37.8(32) . . .
46(4) . . .
29.6(29) . . .
39(4) . . .
38.9(34) . . .
37.4(31) . . .
38.4(32) . . .
44(4) . . .
42(4) . . .
41.1(33) . . .
40.5(33) . . .
38(4) . . .
43(4) . . .
38.7(33) . . .
45(4) . . .
42.1(34) . . .
40.0(34) . . .
42(4) . . .
38.2(33) . . .
42.6(35) . . .
39.2(33) . . .
45.0(35) . . .
40.3(32) . . .
46(4) . . .
38.0(33) . . .
36.2(31) . . .
40(4) . . .
42(4) . . .
39.3(35) . . .
41.7(34) . . .
40.0(32) . . .
49(4) . . .
43(4) . . .
42.4(34) . . .
36.8(31) . . .
38.2(32) . . .
40.2(35) . . .
35.9(34) . . .
34.5(30) . . .
38.1(33) . . .
47(4) . . .
47(4) . . .
43(4) . . .
38.7(34) . . .
38.3(32) . . .
40.3(33) . . .
36.4(31) . . .
33.5(31) . . .
33.3(32) . . .
41.0(34) . . .
40.4(34) . . .
40.6(34) . . .
40(4) . . .
31.1(30) . . .
44.3(35) . . .
47(4) . . .
42.8(34) . . .
39(4) . . .
38.6(34) . . .
49(4) . . .
42(4) . . .
39.9(33) . . .
46(4) . . .
34.6(30) . . .
37.2(31) . . .
38.3(33) . . .
42.6(34) . . .
37.6(32) . . .
38.4(34) . . .
44.6(35) . . .
43(4) . . .
39.7(33) . . .
41(4) . . .
39.5(34) . . .
36.1(31) . . .
40.8(35) . . .
50(4) . . .
36.7(33) . . .
38.5(33) . . .
47(4) . . .
37.8(33) . . .
42.3(35) . . .
47(4) . . .
34.4(30) . . .
32.3(30) . . .
34.4(32) . . .
29.8(29) . . .
36.1(32) . . .
36.5(32) . . .
46(4) . . .
33.2(30) . . .
42(4) . . .
32.1(32) . . .
42.6(34) . . .
47(4) . . .
32.2(29) . . .
45(4) . . .
36.1(32) . . .
34.6(30) . . .
37.6(31) . . .
39.0(34) . . .
42(4) . . .
47(4) . . .
35.2(31) . . .
41.8(35) . . .
40.2(35) . . .
41(4) . . .
36.9(32) . . .
31.7(29) . . .
37.3(33) . . .
36.4(32) . . .
38.0(35) . . .
45(4) . . .
39.0(33) . . .
38.6(34) . . .
40(4) . . .
40(4) . . .
37.5(32) . . .
45(4) . . .
44(4) . . .
44(4) . . .
46(4) . . .
33.3(31) . . .
39.3(33) . . .
35.5(31) . . .
41(4) . . .
42(4) . . .
36.6(32) . . .
42.5(34) . . .
30.9(29) . . .
34.2(31) . . .
43(4) . . .
39.8(33) . . .
38.4(33) . . .
41(4) . . .
33.5(31) . . .
33.7(31) . . .
34.9(32) . . .
41.3(35) . . .
42.3(35) . . .
44(4) . . .
50(4) . . .
38.1(32) . . .
47(4) . . .
36.6(33) . . .
38.8(34) . . .
38.6(32) . . .
42(4) . . .
38.5(33) . . .
36.2(31) . . .
42(4) . . .
29.9(29) . . .
33.2(30) . . .
39.0(32) . . .
41.2(34) . . .
38.3(33) . . .
41.7(34) . . .
36.5(31) . . .
44.3(35) . . .
39.3(34) . . .
39.3(35) . . .
33.0(31) . . .
39.7(32) . . .
42.6(35) . . .
47(4) . . .
35.6(32) . . .
37.5(33) . . .
35.9(31) . . .
48(4) . . .
46(4) . . .
42(4) . . .
46(4) . . .
37.6(32) . . .
34.3(32) . . .
36.3(32) . . .
37.8(32) . . .
37.4(34) . . .
45.9(34) . . .
35.4(31) . . .
50(4) . . .
40.8(34) . . .
33.4(30) . . .
33.9(32) . . .
28.9(28) . . .
32.4(31) . . .
37.5(32) . . .
39.2(33) . . .
47(4) . . .
38.4(33) . . .
48(4) . . .
42.5(34) . . .
39.1(32) . . .
35.4(31) . . .
32.4(31) . . .
30.7(31) . . .
40.5(34) . . .
44(4) . . .
30.9(29) . . .
32.6(31) . . .
38(4) . . .
36(4) . . .
35.9(31) . . .
35.2(31) . . .
45(4) . . .
41(4) . . .
38.4(33) . . .
52(4) . . .
37.4(33) . . .
41(4) . . .
35.2(34) . . .
36.3(32) . . .
41.8(33) . . .
40.7(33) . . .
37.3(33) . . .
35.1(32) . . .
37.2(32) . . .
33.8(31) . . .
34.9(31) . . .
46(4) . . .
41.3(35) . . .
46(4) . . .
42.9(34) . . .
36.3(31) . . .
50(4) . . .
35.5(30) . . .
40.1(34) . . .
46.2(35) . . .
44.2(34) . . .
39(4) . . .
32.0(30) . . .
41(4) . . .
45(4) . . .
40.7(35) . . .
32.8(32) . . .
29.7(29) . . .
27.7(28) . . .
31.9(30) . . .
47(4) . . .
41.7(33) . . .
45(4) . . .
38.2(32) . . .
34.4(30) . . .
30.4(30) . . .
38(4) . . .
30.5(29) . . .
44.5(34) . . .
48(4) . . .
37.7(33) . . .
31.9(32) . . .
39.5(35) . . .
33.6(30) . . .
40.0(32) . . .
49(4) . . .
46(4) . . .
41.3(35) . . .
35.5(31) . . .
32.7(30) . . .
44(4) . . .
41(4) . . .
36.9(33) . . .
40.5(33) . . .
46(4) . . .
50(4) . . .
36.7(32) . . .
44(4) . . .
32.0(30) . . .
37.3(32) . . .
39.9(34) . . .
41.5(34) . . .
42.8(34) . . .
42.4(34) . . .
41.9(34) . . .
44(4) . . .
36.0(31) . . .
36.2(33) . . .
37.7(32) . . .
42.5(34) . . .
26.1(26) . . .
39.1(33) . . .
45(4) . . .
35.7(31) . . .
42(4) . . .
37.0(33) . . .
33.6(31) . . .
35.5(33) . . .
40.9(33) . . .
39.7(33) . . .
42(4) . . .
47(4) . . .
34.0(30) . . .
44.2(35) . . .
39.8(34) . . .
32.0(32) . . .
37.1(32) . . .
34.5(30) . . .
33.9(31) . . .
47(4) . . .
36.5(33) . . .
26.6(27) . . .
43.3(35) . . .
38.9(33) . . .
38.9(34) . . .
45(4) . . .
34.1(32) . . .
36.9(32) . . .
34.9(31) . . .
40.2(35) . . .
35.5(33) . . .
38.6(34) . . .
38.6(32) . . .
41.9(34) . . .
42.1(33) . . .
41(4) . . .
31.0(31) . . .
31.8(29) . . .
36.7(32) . . .
32.3(31) . . .
34.2(32) . . .
45(4) . . .
33.6(31) . . .
35.7(31) . . .
39.0(33) . . .
37.1(34) . . .
32.8(31) . . .
30.9(29) . . .
27.5(28) . . .
26.6(28) . . .
30.2(30) . . .
33.7(32) . . .
41.4(33) . . .
42.6(34) . . .
36.7(35) . . .
35.0(32) . . .
41.8(34) . . .
43.7(34) . . .
36.0(32) . . .
43(4) . . .
36.8(32) . . .
38.0(32) . . .
33.1(30) . . .
43(4) . . .
44(4) . . .
42.4(34) . . .
44(4) . . .
35.8(32) . . .
39.1(34) . . .
38.7(33) . . .
44(4) . . .
35.4(31) . . .
38.5(32) . . .
43(4) . . .
41(4) . . .
36.5(34) . . .
32.4(30) . . .
35.6(31) . . .
37.3(33) . . .
37.5(35) . . .
37.9(33) . . .
36.8(32) . . .
39.7(33) . . .
29.6(28) . . .
46(4) . . .
46(4) . . .
41.3(34) . . .
41.1(33) . . .
39.0(34) . . .
38.6(34) . . .
35.6(34) . . .
35.3(31) . . .
39.8(33) . . .
43(4) . . .
41(4) . . .
35.5(32) . . .
34.4(31) . . .
42.3(34) . . .
38.0(34) . . .
32.3(32) . . .
32.0(31) . . .
36.7(32) . . .
31.2(32) . . .
38.2(32) . . .
41.2(35) . . .
34.1(31) . . .
33.6(30) . . .
34.9(33) . . .
34.8(33) . . .
37.4(34) . . .
40.8(34) . . .
38.1(32) . . .
38.6(34) . . .
39.0(34) . . .
47(4) . . .
36.4(32) . . .
38.7(32) . . .
39.0(33) . . .
44(4) . . .
44(4) . . .
36.6(31) . . .
47(4) . . .
41.8(33) . . .
49(4) . . .
34.4(31) . . .
36.7(32) . . .
46(4) . . .
28.9(27) . . .
34.7(31) . . .
40.2(33) . . .
49(4) . . .
43.8(34) . . .
37.9(34) . . .
34.8(34) . . .
33.6(32) . . .
32.6(31) . . .
42.0(33) . . .
34.5(31) . . .
35.5(33) . . .
44(4) . . .
34.0(31) . . .
39.9(33) . . .
35.9(33) . . .
28.8(28) . . .
43(4) . . .
33.4(30) . . .
41.5(34) . . .
44(4) . . .
32.8(33) . . .
37.2(33) . . .
30.0(29) . . .
34.5(31) . . .
34.3(33) . . .
32.5(30) . . .
42.7(34) . . .
42.0(34) . . .
43(4) . . .
36.3(34) . . .
35.1(30) . . .
47(4) . . .
33.6(30) . . .
36.4(34) . . .
41(4) . . .
37.3(33) . . .
32.8(33) . . .
35.7(31) . . .
44(4) . . .
50(4) . . .
44.8(35) . . .
42.1(34) . . .
38.9(33) . . .
39.0(34) . . .
44(4) . . .
41.3(35) . . .
31.4(30) . . .
33.8(30) . . .
29.4(29) . . .
42(4) . . .
56(4) . . .
34.3(30) . . .
37.4(32) . . .
49(4) . . .
30.9(29) . . .
34.6(31) . . .
41.2(34) . . .
43(4) . . .
49(4) . . .
38.7(33) . . .
53(4) . . .
35.1(31) . . .
27.1(27) . . .
34.1(31) . . .
35.4(32) . . .
38.8(35) . . .
42.6(34) . . .
44.7(35) . . .
44(4) . . .
43(4) . . .
49(4) . . .
41.1(34) . . .
43.8(35) . . .
45(4) . . .
39.9(34) . . .
34.2(31) . . .
40.9(34) . . .
40.1(33) . . .
42(4) . . .
38.7(32) . . .
35.4(31) . . .
31.3(29) . . .
38.4(34) . . .
49(4) . . .
36.4(32) . . .
36.3(31) . . .
30.9(29) . . .
33.8(31) . . .
41(4) . . .
41(4) . . .
27.9(28) . . .
40.7(33) . . .
34.7(30) . . .
34.9(31) . . .
37.0(34) . . .
37.0(33) . . .
28.6(28) . . .
33.5(31) . . .
41(4) . . .
34.9(32) . . .
33.9(31) . . .
34.3(31) . . .
35.0(31) . . .
41(4) . . .
34.6(32) . . .
41.0(34) . . .
33.2(30) . . .
36.5(33) . . .
27.7(27) . . .
41(4) . . .
36.9(32) . . .
35.4(31) . . .
41.9(35) . . .
40.6(34) . . .
44(4) . . .
35.4(31) . . .
31.2(29) . . .
40.1(33) . . .
39(4) . . .
41.3(34) . . .
41.8(33) . . .
45(4) . . .
34.6(32) . . .
32.3(30) . . .
34.7(32) . . .
37.2(32) . . .
30.7(31) . . .
43(4) . . .
36.8(33) . . .
36.9(34) . . .
36.5(31) . . .
45(4) . . .
40(4) . . .
37.5(33) . . .
37.0(34) . . .
29.1(28) . . .
38.4(33) . . .
52(4) . . .
41.1(34) . . .
36.3(32) . . .
38.1(33) . . .
27.0(29) . . .
35.3(34) . . .
39.4(34) . . .
41.7(33) . . .
40.5(34) . . .
35.8(34) . . .
41(4) . . .
37.8(32) . . .
37.2(32) . . .
37.0(32) . . .
42(4) . . .
43(4) . . .
42(4) . . .
48(4) . . .
33.4(30) . . .
44(4) . . .
36.4(33) . . .
37.8(34) . . .
48(4) . . .
41.9(34) . . .
42.5(34) . . .
44(4) . . .
37.0(34) . . .
37.9(32) . . .
44(4) . . .
36.8(32) . . .
43(4) . . .
38.5(35) . . .
35.6(31) . . .
42.8(34) . . .
41.0(33) . . .
44(4) . . .
37.6(33) . . .
37.4(32) . . .
37.8(32) . . .
36.9(32) . . .
52(4) . . .
45(4) . . .
39.2(32) . . .
47(4) . . .
38.6(34) . . .
40.6(35) . . .
33.1(29) . . .
42.6(35) . . .
39.6(33) . . .
35.7(31) . . .
38.6(33) . . .
32.1(29) . . .
41.1(34) . . .
32.8(31) . . .
37.9(33) . . .
39.2(35) . . .
39.4(33) . . .
31.2(29) . . .
32.6(30) . . .
41(4) . . .
40(4) . . .
38.5(33) . . .
41.0(34) . . .
37.5(33) . . .
39(4) . . .
37.1(34) . . .
40.8(33) . . .
45(4) . . .
37.9(32) . . .
42(4) . . .
33.9(30) . . .
39.5(33) . . .
37.2(31) . . .
39.2(33) . . .
39.7(34) . . .
35.6(33) . . .
39.3(34) . . .
48(4) . . .
42.5(33) . . .
36.1(30) . . .
32.2(30) . . .
27.9(27) . . .
34.7(32) . . .
33.3(32) . . .
38.4(34) . . .
39.3(34) . . .
41.3(34) . . .
34.9(33) . . .
35.1(34) . . .
41.0(34) . . .
36.1(31) . . .
32.2(30) . . .
35.3(32) . . .
28.3(28) . . .
38.9(34) . . .
38.4(33) . . .
30.9(29) . . .
32.3(32) . . .
34.3(32) . . .
44(4) . . .
36.5(31) . . .
42.2(34) . . .
37.3(33) . . .
33.7(33) . . .
39.4(33) . . .
48(4) . . .
32.8(29) . . .
37.4(34) . . .
42(4) . . .
45(4) . . .
53(4) . . .
43.1(34) . . .
42(4) . . .
35.7(33) . . .
41(4) . . .
36.2(33) . . .
38.7(32) . . .
44(4) . . .
37.1(35) . . .
39.6(35) . . .
44(4) . . .
34.3(31) . . .
35.9(32) . . .
44(4) . . .
45(4) . . .
33.1(30) . . .
29.1(29) . . .
36.6(32) . . .
42(4) . . .
38.3(33) . . .
40.7(34) . . .
43.4(34) . . .
45(4) . . .
39.4(35) . . .
37.7(35) . . .
41.8(34) . . .
33.5(32) . . .
41.0(34) . . .
40.0(35) . . .
36.8(33) . . .
31.1(29) . . .
37.9(32) . . .
43(4) . . .
40.2(35) . . .
37.4(33) . . .
39.1(32) . . .
36.5(33) . . .
32.3(31) . . .
30.0(28) . . .
37.1(31) . . .
36.7(31) . . .
44(4) . . .
40.1(35) . . .
39.0(34) . . .
43.5(34) . . .
42.0(34) . . .
43(4) . . .
43(4) . . .
40.7(34) . . .
38.3(32) . . .
37.0(31) . . .
40.9(33) . . .
43(4) . . .
35.1(31) . . .
33.3(30) . . .
38.5(33) . . .
41.6(35) . . .
45(4) . . .
41.1(34) . . .
36.1(31) . . .
50(4) . . .
36.7(33) . . .
39.1(35) . . .
42.8(34) . . .
42.5(34) . . .
32.5(30) . . .
36.5(32) . . .
35.2(33) . . .
43(4) . . .
36.5(32) . . .
31.0(28) . . .
39(4) . . .
37.3(33) . . .
35.7(32) . . .
36.4(31) . . .
41.5(33) . . .
39.2(33) . . .
37.3(34) . . .
36.0(32) . . .
38.6(32) . . .
39.5(33) . . .
32.9(32) . . .
39.9(34) . . .
40.6(33) . . .
41.8(33) . . .
41.2(35) . . .
42.3(35) . . .
40.0(32) . . .
39.4(32) . . .
38.8(32) . . .
38.7(32) . . .
35.6(30) . . .
37.2(32) . . .
45(4) . . .
44.4(35) . . .
31.9(29) . . .
37(4) . . .
33.0(30) . . .
47(4) . . .
42.8(34) . . .
45(4) . . .
37.4(34) . . .
48(4) . . .
36.6(32) . . .
44(4) . . .
36.3(33) . . .
34.9(35) . . .
41.0(35) . . .
50(4) . . .
38.6(32) . . .
42.4(35) . . .
37.7(33) . . .
45(4) . . .
40.7(33) . . .
33.3(31) . . .
34.3(33) . . .
28.9(28) . . .
38(4) . . .
34.7(30) . . .
36.7(35) . . .
37.4(33) . . .
34.6(31) . . .
37.5(33) . . .
38.0(32) . . .
41(4) . . .
33.5(31) . . .
43(4) . . .
45(4) . . .
42.4(34) . . .
38.9(34) . . .
44(4) . . .
36.9(34) . . .
31.5(30) . . .
36.5(32) . . .
49(4) . . .
37.0(34) . . .
40(4) . . .
40.6(35) . . .
38.0(32) . . .
38.0(34) . . .
34.7(34) . . .
38(4) . . .
36.0(31) . . .
45(4) . . .
39.2(33) . . .
52(4) . . .
33.5(31) . . .
46(4) . . .
45(4) . . .
34.7(31) . . .
44(4) . . .
49(4) . . .
38.4(32) . . .
38.6(32) . . .
42.0(33) . . .
43(4) . . .
35.3(33) . . .
24.6(27) . . .
41.7(33) . . .
39.4(34) . . .
30.4(32) . . .
34.0(31) . . .
34.7(30) . . .
44.1(35) . . .
40.9(34) . . .
30.0(29) . . .
32.2(30) . . .
37.7(33) . . .
38.0(32) . . .
31.9(29) . . .
36.4(32) . . .
32.4(30) . . .
42.4(34) . . .
37.2(32) . . .
34.7(32) . . .
35.3(34) . . .
40.2(34) . . .
39.4(33) . . .
42.2(34) . . .
43(4) . . .
36.2(33) . . .
40.8(34) . . .
34.4(31) . . .
42(4) . . .
33.9(32) . . .
28.0(28) . . .
40.7(34) . . .
42.8(34) . . .
35.1(30) . . .
35.1(31) . . .
37.1(31) . . .
48(4) . . .
40.8(33) . . .
30.8(31) . . .
34.7(31) . . .
41.5(34) . . .
41.4(34) . . .
37.4(33) . . .
39.1(34) . . .
45(4) . . .
37.2(33) . . .
49(4) . . .
40.4(33) . . .
32.5(30) . . .
40(4) . . .
35.8(31) . . .
38.1(32) . . .
37.0(32) . . .
40(4) . . .
36.0(33) . . .
35.8(33) . . .
40.2(33) . . .
31.2(29) . . .
35.0(32) . . .
28.3(29) . . .
38.4(33) . . .
42.7(34) . . .
34.1(30) . . .
42(4) . . .
32.8(33) . . .
29.1(29) . . .
41.9(33) . . .
37.9(32) . . .
42.3(35) . . .
39.3(33) . . .
46(4) . . .
41.2(33) . . .
32.2(32) . . .
36.1(33) . . .
40.9(35) . . .
40.7(34) . . .
39.8(33) . . .
38.3(34) . . .
39(4) . . .
37.0(34) . . .
31.7(29) . . .
44(4) . . .
35.1(32) . . .
29.4(29) . . .
44(4) . . .
38.3(34) . . .
49(4) . . .
46(4) . . .
42(4) . . .
38.3(34) . . .
42.7(35) . . .
38.7(32) . . .
45(4) . . .
35.2(33) . . .
27.8(27) . . .
31.2(29) . . .
28.8(28) . . .
27.9(28) . . .
47(4) . . .
46(4) . . .
37.6(34) . . .
43.0(34) . . .
42.0(34) . . .
34.6(33) . . .
46(4) . . .
39.6(33) . . .
39.1(33) . . .
43(4) . . .
31.6(30) . . .
35.3(31) . . .
41.9(34) . . .
21.8(24) . . .
37.4(33) . . .
41(4) . . .
30.7(29) . . .
47(4) . . .
30.7(28) . . .
38.4(34) . . .
38.0(33) . . .
35.2(30) . . .
34.2(30) . . .
38.8(33) . . .
44(4) . . .
43(4) . . .
40.4(33) . . .
33.3(30) . . .
37.3(33) . . .
34.9(32) . . .
25.1(26) . . .
31.2(32) . . .
33.0(30) . . .
32.8(30) . . .
31.6(32) . . .
32.3(31) . . .
35.8(33) . . .
39.3(33) . . .
40(4) . . .
34.7(33) . . .
38(4) . . .
42.7(34) . . .
41.5(34) . . .
34.3(32) . . .
41(4) . . .
32.9(29) . . .
32.8(30) . . .
36.4(31) . . .
35.9(32) . . .
35.8(34) . . .
38(4) . . .
41.0(33) . . .
42.0(34) . . .
37.3(33) . . .
41(4) . . .
32.2(30) . . .
30.9(30) . . .
34.6(30) . . .
35.8(32) . . .
35.0(33) . . .
38.2(34) . . .
31.9(30) . . .
47(4) . . .
29.5(29) . . .
37(4) . . .
39.2(34) . . .
45(4) . . .
39.9(33) . . .
37.5(33) . . .
28.2(29) . . .
30.3(29) . . .
35.1(31) . . .
39(4) . . .
32.0(32) . . .
34.3(32) . . .
41.1(34) . . .
43.8(35) . . .
46(4) . . .
41.0(34) . . .
40.5(34) . . .
40.9(33) . . .
45.0(35) . . .
40.4(34) . . .
31.2(30) . . .
31.0(30) . . .
39.3(33) . . .
36.8(32) . . .
35.2(32) . . .
42(4) . . .
42(4) . . .
39.6(32) . . .
45.0(35) . . .
39.2(34) . . .
33.5(32) . . .
44(4) . . .
40.0(33) . . .
36.0(31) . . .
38.4(33) . . .
37(4) . . .
34.8(32) . . .
34.3(31) . . .
45.7(35) . . .
40.8(33) . . .
33.0(29) . . .
31.0(29) . . .
38.8(32) . . .
40.5(33) . . .
43(4) . . .
36.6(33) . . .
40.9(34) . . .
34.8(31) . . .
36.5(31) . . .
36.0(32) . . .
41(4) . . .
46(4) . . .
46(4) . . .
38.8(33) . . .
37.5(32) . . .
34.8(31) . . .
37.9(32) . . .
41.8(34) . . .
41.0(33) . . .
42.3(34) . . .
45(4) . . .
32.8(30) . . .
33.6(30) . . .
40(4) . . .
35.8(32) . . .
31.1(31) . . .
37.9(34) . . .
32.3(30) . . .
36.2(32) . . .
31.9(31) . . .
42(4) . . .
45.3(35) . . .
34.3(31) . . .
36.5(33) . . .
38(4) . . .
33.0(30) . . .
31.7(29) . . .
41.5(34) . . .
32.6(29) . . .
40.1(34) . . .
39.3(33) . . .
45.7(35) . . .
42.4(34) . . .
44.0(35) . . .
41(4) . . .
43.1(34) . . .
39.1(33) . . .
33.5(30) . . .
37.0(33) . . .
31.1(31) . . .
36.6(32) . . .
52(4) . . .
32.7(32) . . .
37.1(34) . . .
38(4) . . .
33.6(31) . . .
36.2(31) . . .
39.6(33) . . .
45(4) . . .
33.6(32) . . .
35.9(32) . . .
49(4) . . .
38.7(34) . . .
35.1(32) . . .
42(4) . . .
34.7(31) . . .
34.2(31) . . .
37.0(31) . . .
33.8(30) . . .
32.8(30) . . .
37.6(33) . . .
41.8(33) . . .
41.8(35) . . .
43(4) . . .
39.1(33) . . .
43(4) . . .
39.9(33) . . .
33.7(31) . . .
34.5(31) . . .
35.7(33) . . .
38.8(34) . . .
38.8(32) . . .
37(4) . . .
39.7(34) . . .
32.4(31) . . .
33.5(30) . . .
31.1(30) . . .
28.6(28) . . .
36.4(35) . . .
34.1(33) . . .
38.6(33) . . .
42.1(34) . . .
47(4) . . .
35.0(32) . . .
31.2(29) . . .
44(4) . . .
41.4(34) . . .
43(4) . . .
29.2(29) . . .
40.1(34) . . .
35.5(31) . . .
43.7(34) . . .
39.4(34) . . .
40(4) . . .
29.9(28) . . .
36.5(31) . . .
41.3(34) . . .
35.1(31) . . .
38.2(34) . . .
34.1(31) . . .
41.3(33) . . .
36.3(31) . . .
33.0(31) . . .
38.7(34) . . .
34.8(33) . . .
30.5(29) . . .
38.6(34) . . .
45(4) . . .
38(4) . . .
35.6(32) . . .
42.3(34) . . .
46(4) . . .
44(4) . . .
29.8(29) . . .
31.1(30) . . .
32.5(30) . . .
38.6(33) . . .
33.3(32) . . .
40(4) . . .
34.6(31) . . .
32.3(30) . . .
27.9(27) . . .
37.6(34) . . .
33.7(32) . . .
48(4) . . .
39.5(33) . . .
35.8(32) . . .
36.8(32) . . .
39.9(34) . . .
30.7(30) . . .
44.5(34) . . .
38.4(34) . . .
31.0(30) . . .
34.1(32) . . .
45(4) . . .
39.3(33) . . .
50(4) . . .
34.5(33) . . .
36.7(33) . . .
53(4) . . .
48(4) . . .
38.3(33) . . .
29.8(30) . . .
35.8(33) . . .
36.8(33) . . .
35.5(30) . . .
45(4) . . .
39(4) . . .
43(4) . . .
38.7(33) . . .
38.1(33) . . .
36.4(32) . . .
41.5(34) . . .
43(4) . . .
41.2(34) . . .
36.7(32) . . .
42.0(34) . . .
44(4) . . .
40.0(33) . . .
37.1(32) . . .
36.3(32) . . .
37.1(33) . . .
41.7(35) . . .
27.1(28) . . .
28.7(28) . . .
38.1(34) . . .
38.1(34) . . .
26.8(27) . . .
30.1(30) . . .
40.7(33) . . .
39.2(34) . . .
39(4) . . .
36.3(33) . . .
47(4) . . .
32.4(30) . . .
40.5(33) . . .
35.5(31) . . .
39.0(34) . . .
32.4(29) . . .
31.0(30) . . .
46(4) . . .
42(4) . . .
44(4) . . .
35.0(31) . . .
32.0(29) . . .
37.0(32) . . .
36.4(34) . . .
42(4) . . .
39.8(33) . . .
41.1(33) . . .
43(4) . . .
40(4) . . .
31.8(34) . . .
31.5(29) . . .
27.3(27) . . .
36.6(34) . . .
38.2(35) . . .
39.0(33) . . .
42.3(34) . . .
31.6(29) . . .
31.2(30) . . .
36.4(33) . . .
41(4) . . .
34.0(30) . . .
36.0(31) . . .
34.1(31) . . .
37.1(33) . . .
33.7(32) . . .
29.9(29) . . .
36.3(32) . . .
46(4) . . .
39(4) . . .
39(4) . . .
39.2(32) . . .
39.2(34) . . .
37.5(33) . . .
43.6(35) . . .
37.4(32) . . .
31.4(30) . . .
33.7(30) . . .
40.5(35) . . .
44(4) . . .
41.3(34) . . .
29.9(28) . . .
34.7(32) . . .
33.9(32) . . .
36.8(32) . . .
37.3(32) . . .
36.7(31) . . .
41.5(35) . . .
43(4) . . .
34.8(33) . . .
41(4) . . .
50(4) . . .
44(4) . . .
35.8(33) . . .
45(4) . . .
38.4(32) . . .
36.0(31) . . .
33.7(31) . . .
33.6(33) . . .
36.4(32) . . .
46(4) . . .
33.7(32) . . .
44(4) . . .
40(4) . . .
33.9(30) . . .
37.3(32) . . .
30.7(29) . . .
36.7(32) . . .
38.2(35) . . .
41(4) . . .
31.0(30) . . .
37.8(33) . . .
31.6(31) . . .
37.3(33) . . .
44(4) . . .
40.7(33) . . .
35.4(31) . . .
36.2(33) . . .
37.7(33) . . .
34.3(32) . . .
29.7(29) . . .
34.3(32) . . .
38.8(34) . . .
34.8(31) . . .
32.9(30) . . .
36.2(32) . . .
38.0(32) . . .
31.1(29) . . .
35.7(31) . . .
44(4) . . .
30.6(29) . . .
31.4(30) . . .
38.4(34) . . .
35.7(34) . . .
36.1(32) . . .
35.2(31) . . .
42.1(34) . . .
35.4(33) . . .
41.8(35) . . .
39.1(32) . . .
45.2(35) . . .
35.3(33) . . .
36.0(35) . . .
31.5(29) . . .
36.9(31) . . .
45(4) . . .
43.2(35) . . .
42(4) . . .
47(4) . . .
47(4) . . .
39.6(33) . . .
33.0(31) . . .
31.3(30) . . .
44(4) . . .
43.9(34) . . .
39.0(32) . . .
34.3(33) . . .
33.0(32) . . .
42.0(35) . . .
43.3(34) . . .
36.6(31) . . .
34.1(32) . . .
36.0(32) . . .
37.2(32) . . .
35.3(31) . . .
31.6(29) . . .
35.4(33) . . .
41(4) . . .
44(4) . . .
36.0(31) . . .
38.4(33) . . .
29.8(29) . . .
37.4(32) . . .
41.8(34) . . .
31.3(29) . . .
38.4(33) . . .
36.4(33) . . .
35.6(32) . . .
41.0(34) . . .
36.6(32) . . .
36.0(31) . . .
38.0(33) . . .
46(4) . . .
37.3(31) . . .
35.5(31) . . .
38.2(35) . . .
47(4) . . .
45(4) . . .
29.7(29) . . .
36.2(31) . . .
29.6(30) . . .
27.9(28) . . .
35.4(31) . . .
29.7(29) . . .
40.2(33) . . .
32.9(30) . . .
36.4(34) . . .
34.3(32) . . .
36.6(32) . . .
38.3(34) . . .
30.8(29) . . .
34.7(33) . . .
45(4) . . .
46(4) . . .
36.1(31) . . .
36.3(31) . . .
38.6(34) . . .
28.6(29) . . .
34.0(31) . . .
34.4(30) . . .
36.4(31) . . .
34.3(31) . . .
28.1(28) . . .
32.3(29) . . .
37.7(32) . . .
39.1(34) . . .
35.1(33) . . .
34.5(31) . . .
38.5(32) . . .
51(4) . . .
37.4(34) . . .
35.0(32) . . .
37.8(32) . . .
29.7(28) . . .
37.1(33) . . .
42.1(34) . . .
38.4(34) . . .
34.2(33) . . .
43.4(35) . . .
40.4(33) . . .
31.7(29) . . .
41.5(35) . . .
44(4) . . .
40.5(33) . . .
38.4(34) . . .
33.6(30) . . .
34.4(32) . . .
38.5(33) . . .
38.1(32) . . .
42(4) . . .
42(4) . . .
41.8(34) . . .
31.3(30) . . .
36.9(32) . . .
35.2(33) . . .
33.5(32) . . .
39.1(32) . . .
35.7(31) . . .
38.8(32) . . .
37(4) . . .
40(4) . . .
50(4) . . .
42.6(34) . . .
33.6(30) . . .
33.8(32) . . .
37.5(34) . . .
39.1(34) . . .
32.0(29) . . .
40.8(34) . . .
35.4(33) . . .
38.0(34) . . .
32.7(32) . . .
36.6(31) . . .
33.5(30) . . .
40.9(33) . . .
40(4) . . .
38.2(34) . . .
34.5(31) . . .
35.0(33) . . .
40.7(34) . . .
48(4) . . .
44(4) . . .
33.4(30) . . .
35.4(31) . . .
33.1(32) . . .
41(4) . . .
36.7(32) . . .
37.3(32) . . .
36.2(33) . . .
29.9(29) . . .
47(4) . . .
42.2(34) . . .
36.8(31) . . .
35.3(31) . . .
34.7(33) . . .
40.1(34) . . .
47(4) . . .
35.3(32) . . .
34.8(34) . . .
41(4) . . .
40(4) . . .
38.5(34) . . .
32.8(30) . . .
43(4) . . .
49(4) . . .
36.5(31) . . .
30.7(30) . . .
33.5(30) . . .
32.3(30) . . .
32.5(31) . . .
28.4(29) . . .
30.2(28) . . .
37.8(32) . . .
25.2(27) . . .
26.5(27) . . .
36.3(32) . . .
33.6(30) . . .
37.1(32) . . .
35.5(31) . . .
41(4) . . .
32.2(30) . . .
35.2(31) . . .
38.9(33) . . .
39.8(34) . . .
38.0(34) . . .
35.4(33) . . .
35.6(31) . . .
47(4) . . .
44(4) . . .
40(4) . . .
37.0(33) . . .
38.2(34) . . .
40.2(32) . . .
33.8(30) . . .
34.6(31) . . .
37.2(32) . . .
39.6(33) . . .
41(4) . . .
37.3(34) . . .
37.0(32) . . .
35.2(31) . . .
39.0(32) . . .
34.0(31) . . .
46(4) . . .
46(4) . . .
47(4) . . .
29.5(28) . . .
31.6(29) . . .
37.5(34) . . .
30.3(30) . . .
32.7(30) . . .
41.3(33) . . .
36.7(31) . . .
39.0(35) . . .
33.5(29) . . .
38.1(32) . . .
30.7(30) . . .
45(4) . . .
37.8(34) . . .
32.8(31) . . .
29.0(29) . . .
38.9(32) . . .
44(4) . . .
33.7(33) . . .
34.3(31) . . .
37.7(32) . . .
37.0(31) . . .
39.1(33) . . .
42(4) . . .
35.4(31) . . .
32.4(30) . . .
34.8(31) . . .
29.3(28) . . .
33.5(31) . . .
35.6(31) . . .
40.8(33) . . .
41.6(34) . . .
37.6(35) . . .
37.9(34) . . .
28.8(29) . . .
34.3(30) . . .
32.8(30) . . .
38.5(33) . . .
37.7(35) . . .
39.3(34) . . .
36.8(32) . . .
32.8(31) . . .
31.9(32) . . .
49(4) . . .
41(4) . . .
32.3(30) . . .
39.4(34) . . .
30.3(28) . . .
42.4(35) . . .
42.0(34) . . .
35.3(31) . . .
39(4) . . .
33.7(32) . . .
35.1(32) . . .
33.8(31) . . .
33.3(30) . . .
33.2(30) . . .
32.7(31) . . .
34.1(33) . . .
39.8(33) . . .
37.2(32) . . .
34.9(30) . . .
39(4) . . .
24.9(27) . . .
32.9(30) . . .
32.0(29) . . .
40.5(35) . . .
40.5(33) . . .
40.5(34) . . .
44(4) . . .
32.8(30) . . .
29.5(28) . . .
37.6(34) . . .
30.2(29) . . .
35.1(31) . . .
39.9(33) . . .
39.5(33) . . .
35.7(33) . . .
35.0(34) . . .
35.1(30) . . .
29.4(28) . . .
40(4) . . .
36.4(33) . . .
33.6(32) . . .
33.0(30) . . .
38.7(34) . . .
40.7(34) . . .
39.4(34) . . .
39.1(33) . . .
34.0(30) . . .
43(4) . . .
28.4(27) . . .
41.9(35) . . .
33.1(30) . . .
32.9(30) . . .
40.7(33) . . .
37.2(32) . . .
25.5(25) . . .
35.2(32) . . .
35.6(31) . . .
36.1(31) . . .
37.0(34) . . .
36.6(35) . . .
39.6(34) . . .
32.9(30) . . .
38.9(34) . . .
41(4) . . .
31.1(29) . . .
34.9(32) . . .
36.4(31) . . .
35.1(31) . . .
32.7(30) . . .
42(4) . . .
43(4) . . .
31.0(30) . . .
33.2(31) . . .
36.1(33) . . .
32.9(30) . . .
25.5(26) . . .
37.4(32) . . .
32.9(31) . . .
30.1(30) . . .
35.8(33) . . .
43.5(34) . . .
38.7(32) . . .
36.2(33) . . .
32.6(33) . . .
31.0(30) . . .
35.1(31) . . .
34.9(31) . . .
34.4(32) . . .
35.5(32) . . .
36.3(35) . . .
34.6(31) . . .
33.5(31) . . .
33.1(33) . . .
32.5(31) . . .
40(4) . . .
30.4(29) . . .
28.6(28) . . .
37.4(33) . . .
43(4) . . .
40.9(34) . . .
31.9(30) . . .
38.6(35) . . .
42.4(35) . . .
39.0(33) . . .
40.8(35) . . .
34.1(30) . . .
31.8(31) . . .
34.3(31) . . .
31.7(29) . . .
32.6(30) . . .
36.9(32) . . .
42(4) . . .
34.1(35) . . .
29.0(28) . . .
40.2(33) . . .
33.4(30) . . .
31.3(33) . . .
39(4) . . .
34.3(31) . . .
41.7(33) . . .
37.7(32) . . .
41.1(34) . . .
37.3(33) . . .
35.9(31) . . .
43(4) . . .
37.6(32) . . .
32.0(30) . . .
38.6(35) . . .
33.3(32) . . .
41.9(33) . . .
30.5(29) . . .
31.7(30) . . .
39(4) . . .
29.1(29) . . .
41.2(34) . . .
46(4) . . .
25.9(27) . . .
29.4(30) . . .
26.5(28) . . .
37.7(32) . . .
33.3(30) . . .
35.0(32) . . .
39(4) . . .
34.3(31) . . .
35.1(31) . . .
35.2(32) . . .
36.6(32) . . .
36.7(33) . . .
32.0(30) . . .
36.0(31) . . .
32.9(30) . . .
38(4) . . .
28.4(28) . . .
32.2(31) . . .
40.8(33) . . .
35.2(32) . . .
35.8(32) . . .
43(4) . . .
37.5(33) . . .
38.4(32) . . .
34.0(32) . . .
45(4) . . .
43(4) . . .
31.6(29) . . .
32.9(30) . . .
30.7(30) . . .
37.8(35) . . .
33.0(30) . . .
39.3(33) . . .
42.3(34) . . .
39.1(33) . . .
40(4) . . .
44(4) . . .
34.6(30) . . .
42.1(34) . . .
35.2(31) . . .
38(4) . . .
43(4) . . .
47(4) . . .
43(4) . . .
36.4(33) . . .
34.2(32) . . .
41(4) . . .
43.0(34) . . .
43.1(34) . . .
37.0(32) . . .
35.3(34) . . .
26.2(29) . . .
34.0(31) . . .
38.5(32) . . .
43(4) . . .
34.0(32) . . .
32.5(30) . . .
35.5(31) . . .
40.9(34) . . .
33.8(31) . . .
49(4) . . .
34.8(31) . . .
27.6(28) . . .
46(4) . . .
37.5(33) . . .
37.9(34) . . .
34.7(32) . . .
40.0(33) . . .
37.2(32) . . .
37.2(32) . . .
41(4) . . .
36.0(31) . . .
38.9(33) . . .
35.7(32) . . .
33.1(33) . . .
32.3(29) . . .
31.3(29) . . .
43.2(35) . . .
40.8(34) . . .
25.9(27) . . .
35.2(31) . . .
43(4) . . .
41.2(33) . . .
40.8(33) . . .
40(4) . . .
42(4) . . .
39.6(33) . . .
34.7(31) . . .
31.8(30) . . .
38.6(35) . . .
34.9(32) . . .
35.7(31) . . .
30.1(28) . . .
43(4) . . .
39.6(34) . . .
39.8(33) . . .
43.0(34) . . .
34.2(31) . . .
32.1(31) . . .
33.1(31) . . .
34.8(32) . . .
37.5(32) . . .
44.8(35) . . .
37.3(34) . . .
35.8(34) . . .
28.1(29) . . .
30.9(30) . . .
36.4(31) . . .
33.1(31) . . .
28.5(29) . . .
36.2(34) . . .
34.1(30) . . .
34.6(31) . . .
43(4) . . .
48(4) . . .
36.7(32) . . .
35.2(31) . . .
41.4(34) . . .
40.0(33) . . .
46(4) . . .
48(4) . . .
39.0(34) . . .
33.5(31) . . .
38.4(35) . . .
36.3(32) . . .
41.8(33) . . .
33.4(32) . . .
32.2(32) . . .
27.5(27) . . .
38.6(33) . . .
32.3(30) . . .
40.1(33) . . .
30.0(28) . . .
27.0(27) . . .
38.7(33) . . .
36.3(31) . . .
29.4(29) . . .
35.8(31) . . .
35.0(32) . . .
41.9(35) . . .
35.8(31) . . .
31.3(29) . . .
40.9(34) . . .
36.6(32) . . .
39.0(34) . . .
31.6(29) . . .
38.5(33) . . .
38.6(33) . . .
33.4(29) . . .
34.6(32) . . .
41.8(33) . . .
34.0(31) . . .
43(4) . . .
27.4(29) . . .
38.7(35) . . .
35.6(31) . . .
41.2(34) . . .
45(4) . . .
41(4) . . .
30.2(30) . . .
38.7(33) . . .
37.4(31) . . .
43(4) . . .
50(4) . . .
44.0(35) . . .
44.3(35) . . .
43.8(34) . . .
35.1(31) . . .
43(4) . . .
40.6(34) . . .
38.7(32) . . .
44(4) . . .
36.0(32) . . .
35.9(32) . . .
35.5(31) . . .
36.0(32) . . .
34.0(31) . . .
42(4) . . .
35.7(31) . . .
31.5(29) . . .
30.0(28) . . .
36.1(33) . . .
46(4) . . .
41.1(34) . . .
43.9(34) . . .
43.5(35) . . .
30.5(30) . . .
33.3(33) . . .
34.2(30) . . .
40.1(32) . . .
41.7(34) . . .
34.0(30) . . .
36.8(34) . . .
35.2(32) . . .
30.3(29) . . .
35.1(32) . . .
27.3(28) . . .
26.4(28) . . .
31.8(30) . . .
48(4) . . .
31.3(29) . . .
39(4) . . .
34.1(33) . . .
35.0(31) . . .
37.8(33) . . .
32.7(29) . . .
30.1(28) . . .
41(4) . . .
37.6(33) . . .
34.7(30) . . .
29.9(29) . . .
36.3(33) . . .
39.3(34) . . .
40.5(34) . . .
37.3(32) . . .
30.5(29) . . .
42(4) . . .
37.1(31) . . .
39.5(34) . . .
38.8(32) . . .
36.1(32) . . .
40.5(35) . . .
40.0(34) . . .
44(4) . . .
44.2(34) . . .
31.7(30) . . .
32.2(31) . . .
35.4(32) . . .
38.0(32) . . .
45(4) . . .
36.1(31) . . .
38.1(33) . . .
32.9(32) . . .
31.9(30) . . .
32.0(30) . . .
37.3(33) . . .
40(4) . . .
39(4) . . .
39.2(33) . . .
47(4) . . .
37.2(32) . . .
44(4) . . .
28.7(27) . . .
30.8(29) . . .
35.7(31) . . .
37.7(32) . . .
28.3(28) . . .
39.1(34) . . .
32.7(30) . . .
37.5(33) . . .
39.1(35) . . .
35.3(32) . . .
44(4) . . .
35.1(31) . . .
38.8(32) . . .
42.0(35) . . .
38(4) . . .
32.4(30) . . .
35.5(32) . . .
39.7(33) . . .
46(4) . . .
35.9(30) . . .
28.8(29) . . .
37.4(32) . . .
42.3(34) . . .
36.8(33) . . .
36.6(33) . . .
26.4(27) . . .
24.1(26) . . .
37.9(33) . . .
35.6(34) . . .
31.7(30) . . .
37.1(32) . . .
37.8(33) . . .
30.7(30) . . .
34.2(31) . . .
33.8(32) . . .
36.3(32) . . .
38.0(33) . . .
23.8(26) . . .
36.4(34) . . .
39.6(34) . . .
33.1(30) . . .
45.7(34) . . .
37.1(32) . . .
42(4) . . .
40.4(34) . . .
40.7(33) . . .
38.1(32) . . .
33.0(30) . . .
36.0(35) . . .
32.2(30) . . .
38.5(32) . . .
39.7(33) . . .
46(4) . . .
45(4) . . .
39(4) . . .
40.2(33) . . .
38.5(33) . . .
31.1(31) . . .
36.2(33) . . .
33.4(31) . . .
36.2(33) . . .
37.1(32) . . .
35.7(34) . . .
41(4) . . .
38.0(32) . . .
40.8(33) . . .
38.0(33) . . .
33.9(30) . . .
33.0(30) . . .
35.5(31) . . .
33.0(30) . . .
29.5(30) . . .
28.6(30) . . .
35.3(33) . . .
29.8(28) . . .
42.4(34) . . .
31.0(30) . . .
34.2(33) . . .
43(4) . . .
37.8(32) . . .
34.4(30) . . .
37.1(33) . . .
44(4) . . .
39.3(35) . . .
31.3(30) . . .
32.2(30) . . .
39.7(35) . . .
40(4) . . .
34.9(33) . . .
34.8(31) . . .
27.4(27) . . .
36.1(33) . . .
32.4(31) . . .
40.3(34) . . .
36.6(32) . . .
39.6(33) . . .
39.3(32) . . .
40(4) . . .
33.8(30) . . .
43.1(35) . . .
35.3(30) . . .
35.9(32) . . .
31.9(32) . . .
32.3(31) . . .
33.9(31) . . .
41.5(33) . . .
37.4(33) . . .
28.3(29) . . .
39.1(34) . . .
30.8(29) . . .
32.6(29) . . .
36.5(33) . . .
33.8(33) . . .
34.3(31) . . .
35.0(31) . . .
36.7(34) . . .
37.2(34) . . .
30.5(29) . . .
35.3(32) . . .
32.3(29) . . .
37.4(35) . . .
35.7(34) . . .
36.8(33) . . .
33.0(33) . . .
34.0(31) . . .
28.8(29) . . .
31.0(30) . . .
38.7(33) . . .
35.8(32) . . .
30.4(28) . . .
31.5(30) . . .
35.5(32) . . .
32.2(30) . . .
43(4) . . .
36.4(32) . . .
38.1(35) . . .
40(4) . . .
31.5(29) . . .
41.3(33) . . .
50(4) . . .
35.2(32) . . .
38.0(34) . . .
35.0(33) . . .
39.9(33) . . .
38.2(32) . . .
31.9(31) . . .
27.0(29) . . .
32.6(30) . . .
42.8(34) . . .
33.8(31) . . .
31.6(31) . . .
36.9(34) . . .
33.6(30) . . .
40.0(33) . . .
47(4) . . .
44(4) . . .
34.3(32) . . .
33.0(31) . . .
34.5(30) . . .
34.9(31) . . .
38.1(33) . . .
35.6(33) . . .
40.9(35) . . .
39.2(32) . . .
50(4) . . .
42(4) . . .
41.0(35) . . .
37.3(35) . . .
28.3(28) . . .
34.8(31) . . .
33.4(31) . . .
33.8(30) . . .
41.0(34) . . .
38.6(32) . . .
31.4(30) . . .
29.6(29) . . .
37.1(33) . . .
33.0(30) . . .
40.2(33) . . .
30.1(29) . . .
33.7(31) . . .
38.2(33) . . .
44(4) . . .
35.3(31) . . .
32.9(32) . . .
39.6(35) . . .
30.7(28) . . .
31.8(29) . . .
29.7(29) . . .
33.0(31) . . .
33.4(34) . . .
40.4(34) . . .
34.0(30) . . .
38.0(33) . . .
36.1(33) . . .
31.1(30) . . .
43(4) . . .
27.0(28) . . .
42.7(34) . . .
33.2(30) . . .
34.6(33) . . .
35.9(31) . . .
40.5(33) . . .
36.2(32) . . .
35.0(32) . . .
41(4) . . .
26.4(27) . . .
38.9(32) . . .
29.9(28) . . .
36.2(32) . . .
35.5(33) . . .
40.5(34) . . .
39.2(33) . . .
37.0(33) . . .
30.2(30) . . .
38(4) . . .
34.8(31) . . .
31.3(30) . . .
37.5(34) . . .
45(4) . . .
36.8(32) . . .
35.3(31) . . .
38.5(32) . . .
32.3(32) . . .
36.2(33) . . .
40.2(34) . . .
30.4(29) . . .
37.7(32) . . .
34.8(32) . . .
37.3(33) . . .
34.4(32) . . .
32.8(30) . . .
39.5(32) . . .
39.4(33) . . .
32.6(30) . . .
46(4) . . .
25.3(26) . . .
41.0(34) . . .
44(4) . . .
39.0(33) . . .
44.0(35) . . .
41.7(34) . . .
35.0(31) . . .
32.4(33) . . .
34.0(32) . . .
37.1(33) . . .
31.7(30) . . .
35.2(30) . . .
33.1(30) . . .
39(4) . . .
30.1(30) . . .
40.6(33) . . .
40.4(33) . . .
36.4(32) . . .
34.0(33) . . .
39.8(35) . . .
38.1(32) . . .
38.5(33) . . .
35.5(32) . . .
36.4(34) . . .
38(4) . . .
37.1(32) . . .
38.2(33) . . .
29.5(27) . . .
38.4(33) . . .
39.2(33) . . .
40.8(33) . . .
33.5(32) . . .
41.4(35) . . .
30.5(29) . . .
29.7(29) . . .
38.4(33) . . .
33.4(30) . . .
34.7(33) . . .
28.5(28) . . .
38.7(33) . . .
32.7(30) . . .
26.3(27) . . .
40(4) . . .
37.5(33) . . .
39.2(32) . . .
41.0(33) . . .
34.8(31) . . .
45(4) . . .
35.9(31) . . .
33.5(30) . . .
34.1(31) . . .
32.0(31) . . .
41(4) . . .
26.2(26) . . .
39.1(33) . . .
42.4(34) . . .
43(4) . . .
37.5(35) . . .
41.3(35) . . .
33.7(31) . . .
34.3(30) . . .
37.0(33) . . .
31.6(30) . . .
33.2(29) . . .
30.9(29) . . .
42.4(34) . . .
38.3(35) . . .
34.7(32) . . .
44(4) . . .
36.6(32) . . .
26.9(28) . . .
34.7(33) . . .
30.7(32) . . .
32.3(32) . . .
28.3(29) . . .
41.2(35) . . .
37.2(34) . . .
30.8(29) . . .
32.1(30) . . .
41.8(33) . . .
33.3(30) . . .
37(4) . . .
43(4) . . .
39.6(33) . . .
36.3(32) . . .
48(4) . . .
40.2(34) . . .
38.8(34) . . .
41.4(35) . . .
44(4) . . .
37.7(33) . . .
31.5(29) . . .
43(4) . . .
33.5(31) . . .
34.1(30) . . .
31.0(29) . . .
37.6(34) . . .
32.3(30) . . .
28.2(28) . . .
34.6(31) . . .
45(4) . . .
45(4) . . .
30.5(30) . . .
34.1(31) . . .
35.6(30) . . .
39.0(34) . . .
35.9(33) . . .
31.4(31) . . .
33.8(31) . . .
37.1(32) . . .
32.8(31) . . .
39(4) . . .
28.5(27) . . .
37.8(31) . . .
44(4) . . .
35.8(32) . . .
37.1(35) . . .
38.0(35) . . .
34.3(31) . . .
29.0(28) . . .
42(4) . . .
36.6(32) . . .
46(4) . . .
32.5(30) . . .
36.0(32) . . .
33.6(32) . . .
39.1(35) . . .
40.4(34) . . .
39.1(33) . . .
36.0(33) . . .
40.8(34) . . .
35.4(31) . . .
37.2(32) . . .
34.6(31) . . .
44(4) . . .
34.7(32) . . .
33.9(33) . . .
33.4(30) . . .
33.6(30) . . .
38.9(33) . . .
33.4(31) . . .
29.8(29) . . .
40.0(34) . . .
32.7(30) . . .
34.7(32) . . .
30.3(30) . . .
36.9(32) . . .
28.1(28) . . .
40.0(32) . . .
36.4(32) . . .
37.2(35) . . .
37.1(33) . . .
32.8(30) . . .
28.5(28) . . .
38.4(34) . . .
39.8(34) . . .
40.9(33) . . .
37.7(31) . . .
39.7(34) . . .
30.6(29) . . .
30.4(28) . . .
45(4) . . .
47(4) . . .
42.3(34) . . .
36.9(32) . . .
38.2(34) . . .
35.9(32) . . .
35.1(31) . . .
34.8(31) . . .
34.5(32) . . .
30.5(30) . . .
34.3(32) . . .
35.4(31) . . .
39.8(34) . . .
47(4) . . .
38.8(35) . . .
31.1(30) . . .
38.2(32) . . .
30.4(30) . . .
40.3(35) . . .
35.8(33) . . .
38(4) . . .
42.0(34) . . .
37.3(34) . . .
33.0(30) . . .
41.7(34) . . .
38.6(34) . . .
32.0(30) . . .
37.5(33) . . .
35.0(33) . . .
35.4(32) . . .
34.1(30) . . .
35.8(31) . . .
31.8(30) . . .
32.0(32) . . .
38.5(34) . . .
36.3(33) . . .
33.5(30) . . .
42(4) . . .
44(4) . . .
47(4) . . .
42(4) . . .
38.1(32) . . .
45(4) . . .
40(4) . . .
41(4) . . .
29.0(28) . . .
40.0(33) . . .
38(4) . . .
40(4) . . .
45(4) . . .
34.0(31) . . .
35.5(31) . . .
37.0(32) . . .
29.7(32) . . .
25.5(27) . . .
32.6(29) . . .
33.6(31) . . .
33.8(31) . . .
34.0(33) . . .
32.5(30) . . .
30.8(29) . . .
43.5(35) . . .
45(4) . . .
36.7(34) . . .
36.1(32) . . .
36.5(31) . . .
37.1(32) . . .
33.3(30) . . .
35.5(33) . . .
38.0(33) . . .
37.7(32) . . .
36.1(33) . . .
32.4(31) . . .
39.4(35) . . .
37.3(31) . . .
37.2(32) . . .
44(4) . . .
42(4) . . .
39.3(33) . . .
31.1(28) . . .
41.6(34) . . .
32.7(30) . . .
36.4(34) . . .
34.0(31) . . .
32.5(30) . . .
38.8(32) . . .
30.6(29) . . .
32.9(31) . . .
34.2(32) . . .
37.7(33) . . .
42.4(34) . . .
44(4) . . .
38(4) . . .
40.3(34) . . .
38.6(32) . . .
36.1(31) . . .
42.7(34) . . .
37.6(34) . . .
41.2(33) . . .
38.9(32) . . .
37.0(32) . . .
38.1(33) . . .
31.4(31) . . .
34.3(30) . . .
34.9(30) . . .
28.1(28) . . .
41.3(35) . . .
33.9(32) . . .
32.6(32) . . .
38.0(31) . . .
49(4) . . .
40.0(35) . . .
36.1(31) . . .
43.7(35) . . .
40.3(34) . . .
36.0(31) . . .
33.5(31) . . .
34.2(32) . . .
46(4) . . .
42.7(34) . . .
40.3(33) . . .
29.4(29) . . .
33.4(32) . . .
38.5(34) . . .
34.7(31) . . .
32.9(30) . . .
34.4(31) . . .
39(4) . . .
35.3(33) . . .
31.1(29) . . .
32.7(32) . . .
29.3(30) . . .
37.3(33) . . .
41.8(35) . . .
38.0(32) . . .
26.4(27) . . .
36.7(33) . . .
37.3(34) . . .
35.7(31) . . .
36.8(31) . . .
36.9(32) . . .
49(4) . . .
44(4) . . .
37.4(32) . . .
31.3(29) . . .
30.7(31) . . .
37.1(34) . . .
39.8(34) . . .
34.1(30) . . .
45(4) . . .
36.6(32) . . .
38.7(34) . . .
34.2(31) . . .
30.4(29) . . .
32.2(30) . . .
33.1(31) . . .
31.0(30) . . .
32.8(31) . . .
35.9(31) . . .
38.3(32) . . .
35.4(34) . . .
36.1(35) . . .
31.1(31) . . .
40.7(33) . . .
47(4) . . .
33.9(32) . . .
30.2(31) . . .
35.4(32) . . .
42.4(34) . . .
37(4) . . .
35.8(34) . . .
34.5(31) . . .
39.6(35) . . .
33.7(30) . . .
39.1(34) . . .
32.8(31) . . .
43(4) . . .
29.4(29) . . .
31.6(29) . . .
43.8(35) . . .
39.6(33) . . .
37.2(32) . . .
44(4) . . .
41.8(35) . . .
33.3(31) . . .
40(4) . . .
39.5(34) . . .
33.0(29) . . .
37.9(33) . . .
32.0(30) . . .
32.3(31) . . .
31.9(33) . . .
30.2(29) . . .
45(4) . . .
38.8(32) . . .
36.5(32) . . .
39.3(32) . . .
32.2(29) . . .
29.9(29) . . .
32.7(31) . . .
40(4) . . .
37.0(32) . . .
43.8(35) . . .
45.7(35) . . .
41.1(35) . . .
35.8(34) . . .
32.8(31) . . .
40.5(33) . . .
39.5(32) . . .
31.3(30) . . .
32.9(31) . . .
32.2(30) . . .
27.4(27) . . .
33.1(30) . . .
37.1(34) . . .
31.3(30) . . .
40.2(35) . . .
37.5(32) . . .
38.5(32) . . .
42.0(35) . . .
40(4) . . .
36.4(32) . . .
38.7(32) . . .
37.8(33) . . .
36.4(32) . . .
26.1(28) . . .
35.9(32) . . .
35.7(31) . . .
26.9(27) . . .
47(4) . . .
35.3(31) . . .
39.7(34) . . .
32.8(29) . . .
37.9(34) . . .
34.0(31) . . .
36.0(32) . . .
40.7(34) . . .
59(4) . . .
37.6(33) . . .
35.7(32) . . .
38.0(32) . . .
41.2(34) . . .
36.4(31) . . .
32.3(29) . . .
32.7(30) . . .
33.6(31) . . .
36.5(33) . . .
27.7(27) . . .
28.8(29) . . .
38(4) . . .
33.5(32) . . .
35.3(33) . . .
45(4) . . .
41.4(34) . . .
39(4) . . .
35.6(32) . . .
38.4(32) . . .
39.7(33) . . .
31.6(30) . . .
41(4) . . .
41(4) . . .
33.9(31) . . .
35.4(31) . . .
30.1(30) . . .
38.2(33) . . .
38.9(33) . . .
36.7(32) . . .
37.8(33) . . .
42(4) . . .
35.9(34) . . .
28.0(29) . . .
36.4(32) . . .
36.4(32) . . .
38.6(34) . . .
29.6(29) . . .
32.9(31) . . .
31.8(29) . . .
32.8(32) . . .
37.3(33) . . .
35.8(32) . . .
33.0(30) . . .
37.8(31) . . .
39.0(33) . . .
25.8(27) . . .
35.4(33) . . .
27.4(27) . . .
38.5(33) . . .
28.9(29) . . .
27.2(28) . . .
36.6(32) . . .
32.3(29) . . .
32.1(30) . . .
31.6(29) . . .
27.9(28) . . .
27.0(28) . . .
31.8(29) . . .
39.5(33) . . .
36.8(34) . . .
31.9(32) . . .
26.5(26) . . .
42.0(35) . . .
31.1(29) . . .
30.5(29) . . .
35.5(32) . . .
42.4(34) . . .
33.3(29) . . .
24.7(26) . . .
30.9(31) . . .
34.5(34) . . .
34.1(34) . . .
27.2(27) . . .
37.0(31) . . .
40.4(33) . . .
33.1(29) . . .
32.1(30) . . .
33.8(31) . . .
41.0(33) . . .
30.1(29) . . .
40(4) . . .
31.7(29) . . .
41.3(33) . . .
41.7(34) . . .
40.5(34) . . .
43(4) . . .
41.5(34) . . .
32.2(29) . . .
47(4) . . .
40(4) . . .
46(4) . . .
38.2(32) . . .
29.5(28) . . .
27.3(28) . . .
39.8(35) . . .
42.1(35) . . .
37.7(32) . . .
36.3(31) . . .
35.8(31) . . .
37.6(33) . . .
39.8(33) . . .
37.4(33) . . .
42.2(33) . . .
36.6(31) . . .
33.7(32) . . .
35.6(32) . . .
32.7(31) . . .
40.5(32) . . .
42.0(34) . . .
34.8(31) . . .
41.6(34) . . .
46(4) . . .
37.9(32) . . .
31.2(30) . . .
30.2(30) . . .
37.7(32) . . .
44.6(35) . . .
42.6(33) . . .
31.0(30) . . .
34.4(35) . . .
25.3(26) . . .
36.0(31) . . .
37.8(32) . . .
43.6(34) . . .
47(4) . . .
33.4(30) . . .
36.1(31) . . .
31.6(29) . . .
39.3(34) . . .
36.0(33) . . .
34.4(30) . . .
36.0(32) . . .
36.0(31) . . .
33.6(30) . . .
39(4) . . .
30.6(30) . . .
35.3(31) . . .
32.0(30) . . .
38.2(34) . . .
29.4(30) . . .
27.9(28) . . .
35.9(31) . . .
32.9(30) . . .
37.7(34) . . .
31.1(31) . . .
30.2(28) . . .
35.6(31) . . .
36.7(33) . . .
32.2(30) . . .
31.6(30) . . .
28.8(29) . . .
38.1(33) . . .
34.8(34) . . .
28.0(28) . . .
39.9(34) . . .
34.8(30) . . .
28.5(29) . . .
32.1(31) . . .
41(4) . . .
35.2(32) . . .
35.0(30) . . .
33.7(30) . . .
26.8(28) . . .
36.0(35) . . .
45(4) . . .
30.3(29) . . .
37.4(32) . . .
35.0(31) . . .
34.5(33) . . .
29.5(30) . . .
26.6(28) . . .
36.1(32) . . .
41.2(33) . . .
33.4(30) . . .
34.2(33) . . .
32.5(30) . . .
44(4) . . .
33.4(30) . . .
40(4) . . .
37.6(32) . . .
46.4(35) . . .
38.7(33) . . .
39.9(34) . . .
40(4) . . .
39.0(33) . . .
34.8(31) . . .
33.5(30) . . .
35.1(32) . . .
47(4) . . .
37.7(31) . . .
44.2(34) . . .
44(4) . . .
37.2(33) . . .
43(4) . . .
35.3(31) . . .
36.5(32) . . .
43(4) . . .
36.7(32) . . .
31.0(29) . . .
35.3(32) . . .
35.1(31) . . .
28.1(28) . . .
32.7(30) . . .
37.3(32) . . .
45(4) . . .
40.5(33) . . .
44.7(35) . . .
37.2(33) . . .
32.6(30) . . .
33.8(31) . . .
33.8(30) . . .
38.3(35) . . .
38(4) . . .
30.6(32) . . .
35.3(31) . . .
35.4(31) . . .
35.1(31) . . .
34.9(32) . . .
38.7(34) . . .
38.9(33) . . .
34.7(32) . . .
39(4) . . .
45(4) . . .
35.5(34) . . .
34.1(31) . . .
35.3(31) . . .
36.3(33) . . .
30.9(29) . . .
38.0(33) . . .
34.8(31) . . .
41.8(34) . . .
38.6(33) . . .
41(4) . . .
34.4(32) . . .
40.5(33) . . .
41.8(34) . . .
38.7(33) . . .
36.7(33) . . .
36.3(33) . . .
41.4(33) . . .
31.5(30) . . .
42(4) . . .
38.4(32) . . .
39.6(33) . . .
37.5(32) . . .
35.6(32) . . .
36(4) . . .
30.8(31) . . .
32.5(29) . . .
39.4(34) . . .
35.7(32) . . .
29.9(29) . . .
36.8(33) . . .
38.5(32) . . .
35.6(31) . . .
41.8(35) . . .
41(4) . . .
45(4) . . .
36.5(32) . . .
34.6(31) . . .
32.8(30) . . .
41(4) . . .
39.7(33) . . .
41.4(33) . . .
33.3(30) . . .
32.9(32) . . .
42(4) . . .
39(4) . . .
28.8(28) . . .
34.2(31) . . .
36.5(31) . . .
37.0(32) . . .
37.3(33) . . .
44.0(34) . . .
33.1(31) . . .
32.2(30) . . .
39.0(34) . . .
39.1(32) . . .
35.9(32) . . .
42.0(33) . . .
40.8(34) . . .
42(4) . . .
36.6(32) . . .
37.0(32) . . .
50(4) . . .
39.4(34) . . .
29.9(30) . . .
37.5(33) . . .
42.5(35) . . .
25.5(26) . . .
35.5(32) . . .
40.1(34) . . .
44(4) . . .
38.6(32) . . .
26.7(27) . . .
33.9(33) . . .
28.8(30) . . .
31.6(30) . . .
36.1(32) . . .
35.3(33) . . .
34.2(32) . . .
39.1(34) . . .
35.6(31) . . .
38.0(32) . . .
33.4(32) . . .
26.4(29) . . .
39(4) . . .
35.7(32) . . .
40.8(34) . . .
30.8(31) . . .
34.1(31) . . .
39.0(34) . . .
49(4) . . .
32.2(29) . . .
38.1(33) . . .
34.2(32) . . .
40.4(34) . . .
37.3(32) . . .
36.0(33) . . .
39.2(33) . . .
36.0(33) . . .
35.3(33) . . .
28.0(27) . . .
38.2(33) . . .
35.4(31) . . .
39.1(35) . . .
30.6(29) . . .
36.0(31) . . .
37.8(32) . . .
37.5(33) . . .
35.0(33) . . .
33.7(31) . . .
32.0(30) . . .
38.9(33) . . .
42(4) . . .
36.2(33) . . .
37.1(32) . . .
35.3(31) . . .
36.1(32) . . .
33.5(34) . . .
31.7(32) . . .
38.3(33) . . .
30.8(30) . . .
34.3(30) . . .
43(4) . . .
32.2(29) . . .
37.1(33) . . .
38.3(32) . . .
32.1(32) . . .
35.7(32) . . .
34.8(31) . . .
38.1(32) . . .
47(4) . . .
28.7(28) . . .
32.0(31) . . .
36.7(34) . . .
41.0(34) . . .
43.7(34) . . .
37.1(35) . . .
33.3(31) . . .
36.2(32) . . .
28.7(27) . . .
46(4) . . .
26.5(26) . . .
28.4(30) . . .
38.0(33) . . .
37.7(32) . . .
40.9(34) . . .
38.0(33) . . .
33.2(32) . . .
38.6(35) . . .
27.4(27) . . .
46(4) . . .
36.9(32) . . .
29.4(29) . . .
37.8(33) . . .
35.9(31) . . .
34.2(31) . . .
42(4) . . .
41(4) . . .
40.0(34) . . .
36.5(31) . . .
33.8(32) . . .
28.0(28) . . .
36.0(33) . . .
33.8(32) . . .
24.8(26) . . .
37.0(31) . . .
28.4(30) . . .
31.5(32) . . .
28.5(29) . . .
33.7(30) . . .
43(4) . . .
40(4) . . .
27.7(27) . . .
30.3(30) . . .
42.5(35) . . .
39.6(35) . . .
29.2(29) . . .
32.2(32) . . .
30.5(29) . . .
37.7(32) . . .
35.1(33) . . .
33.7(31) . . .
31.2(29) . . .
31.0(29) . . .
34.6(31) . . .
50(4) . . .
31.4(30) . . .
41.4(35) . . .
43.9(35) . . .
39.3(34) . . .
28.0(29) . . .
30.4(31) . . .
31.0(31) . . .
37.4(33) . . .
42.2(34) . . .
39.2(33) . . .
37.7(34) . . .
38.7(33) . . .
30.5(29) . . .
37.2(33) . . .
34.4(31) . . .
37.1(33) . . .
34.7(30) . . .
34.6(30) . . .
41.4(34) . . .
44(4) . . .
35.3(34) . . .
43(4) . . .
36.4(32) . . .
28.0(28) . . .
29.4(30) . . .
31.4(33) . . .
32.8(30) . . .
38.2(32) . . .
41.7(34) . . .
36.8(32) . . .
35.1(32) . . .
40(4) . . .
31.5(29) . . .
36.8(32) . . .
43(4) . . .
36.6(33) . . .
40.5(33) . . .
31.3(29) . . .
34.6(32) . . .
34.9(32) . . .
34.3(31) . . .
26.0(26) . . .
39.5(32) . . .
40(4) . . .
36.1(32) . . .
38.5(34) . . .
37.3(32) . . .
46.0(35) . . .
40(4) . . .
35.2(33) . . .
34.3(31) . . .
29.3(29) . . .
24.9(26) . . .
37.6(34) . . .
29.5(28) . . .
34.5(32) . . .
46(4) . . .
41.4(33) . . .
40.4(34) . . .
43(4) . . .
35.8(32) . . .
37.0(32) . . .
37.7(32) . . .
28.9(28) . . .
29.2(29) . . .
36.3(32) . . .
30.3(28) . . .
30.5(29) . . .
29.6(29) . . .
33.1(32) . . .
32.3(30) . . .
31.5(29) . . .
32.5(29) . . .
31.7(31) . . .
34.8(31) . . .
41.2(34) . . .
30.2(29) . . .
35.8(31) . . .
36.1(32) . . .
37.3(33) . . .
38.3(33) . . .
42.7(34) . . .
41.0(35) . . .
33.8(31) . . .
35.0(32) . . .
42.0(35) . . .
38.8(33) . . .
35.5(32) . . .
35.3(32) . . .
30.9(29) . . .
35.0(31) . . .
41.6(34) . . .
35.0(31) . . .
36.9(31) . . .
43.1(35) . . .
33.7(30) . . .
32.3(30) . . .
32.7(30) . . .
36.4(33) . . .
30.0(29) . . .
32.5(30) . . .
31.3(29) . . .
34.2(31) . . .
34.6(31) . . .
33.5(33) . . .
33.3(30) . . .
35.8(31) . . .
34.5(33) . . .
37(4) . . .
29.3(29) . . .
36.6(31) . . .
35.6(32) . . .
34.5(31) . . .
37.5(34) . . .
39.5(33) . . .
39.7(33) . . .
36.2(31) . . .
41.1(33) . . .
35.0(30) . . .
46(4) . . .
30.1(29) . . .
39.3(33) . . .
28.7(29) . . .
27.1(29) . . .
32.4(32) . . .
40.5(33) . . .
34.1(32) . . .
44(4) . . .
33.6(30) . . .
32.1(30) . . .
38.9(33) . . .
26.1(27) . . .
34.6(33) . . .
32.4(31) . . .
35.9(33) . . .
40.0(33) . . .
35.4(31) . . .
40(4) . . .
30.8(30) . . .
41.1(34) . . .
31.1(29) . . .
35.3(32) . . .
34.3(33) . . .
32.9(31) . . .
44(4) . . .
39.5(33) . . .
34.5(32) . . .
37.3(34) . . .
35.4(32) . . .
27.1(27) . . .
32.3(30) . . .
36.2(33) . . .
40.3(34) . . .
46(4) . . .
42.4(34) . . .
34.2(32) . . .
35.7(32) . . .
28.3(29) . . .
36.1(33) . . .
37.6(32) . . .
30.8(29) . . .
23.5(27) . . .
32.8(31) . . .
40.3(33) . . .
33.0(30) . . .
31.0(29) . . .
36.5(32) . . .
30.5(31) . . .
37.3(33) . . .
31.3(30) . . .
42.1(34) . . .
34.2(30) . . .
34.0(31) . . .
30.5(29) . . .
31.2(29) . . .
30.4(31) . . .
39.4(35) . . .
37.2(33) . . .
41.7(34) . . .
39.4(33) . . .
35.3(31) . . .
36.3(33) . . .
31.2(30) . . .
32.9(31) . . .
41.2(33) . . .
33.5(30) . . .
26.0(27) . . .
32.8(32) . . .
28.6(29) . . .
33.6(30) . . .
26.4(28) . . .
35.0(34) . . .
32.6(30) . . .
37.3(33) . . .
42.6(34) . . .
35.3(32) . . .
27.3(27) . . .
33.7(30) . . .
46(4) . . .
35.8(31) . . .
33.7(31) . . .
33.0(31) . . .
37.1(31) . . .
28.5(28) . . .
39.0(33) . . .
32.1(31) . . .
38.5(34) . . .
39.2(33) . . .
32.3(29) . . .
37.6(32) . . .
42.8(35) . . .
38.8(33) . . .
33.3(30) . . .
31.5(29) . . .
27.4(27) . . .
35.2(32) . . .
40(4) . . .
39.9(35) . . .
37.3(33) . . .
39.8(32) . . .
41.2(34) . . .
38.3(33) . . .
34.2(31) . . .
36.5(32) . . .
38.6(33) . . .
34.8(34) . . .
36.8(33) . . .
41.4(35) . . .
36.7(31) . . .
35.8(32) . . .
33.2(31) . . .
31.0(30) . . .
38.8(34) . . .
35.6(31) . . .
30.4(29) . . .
35.4(33) . . .
34.2(31) . . .
32.8(31) . . .
44.3(35) . . .
38.7(32) . . .
41(4) . . .
37.6(35) . . .
35.2(35) . . .
40.0(33) . . .
35.8(32) . . .
35.7(32) . . .
32.2(30) . . .
31.3(30) . . .
31.3(29) . . .
39.1(34) . . .
31.3(31) . . .
31.3(31) . . .
37.0(32) . . .
43.8(35) . . .
40.9(34) . . .
48(4) . . .
40(4) . . .
41.8(35) . . .
41.4(34) . . .
36.0(32) . . .
33.1(31) . . .
41(4) . . .
34.6(31) . . .
40.2(34) . . .
37.9(32) . . .
32.8(30) . . .
40(4) . . .
36.0(32) . . .
30.8(29) . . .
41(4) . . .
44(4) . . .
28.8(28) . . .
34.4(30) . . .
46(4) . . .
36.3(32) . . .
32.3(32) . . .
34.6(32) . . .
32.1(30) . . .
28.9(28) . . .
25.2(27) . . .
31.2(31) . . .
47(4) . . .
40.3(34) . . .
29.0(30) . . .
34.1(32) . . .
28.4(28) . . .
31.8(30) . . .
39.9(33) . . .
35.4(33) . . .
38.2(33) . . .
36.8(34) . . .
31.5(32) . . .
37.4(32) . . .
36.0(32) . . .
32.1(30) . . .
33.5(32) . . .
34.0(30) . . .
38.9(33) . . .
28.9(28) . . .
36.5(33) . . .
34.5(31) . . .
31.1(30) . . .
36.5(31) . . .
37.7(33) . . .
40(4) . . .
34.5(31) . . .
35.9(31) . . .
44.1(34) . . .
41.2(34) . . .
37.0(35) . . .
35.6(33) . . .
42.1(34) . . .
40.7(33) . . .
30.5(31) . . .
35.1(33) . . .
34.1(31) . . .
35.5(30) . . .
40.0(33) . . .
33.9(30) . . .
41(4) . . .
27.5(27) . . .
42.6(33) . . .
37.8(32) . . .
34.5(31) . . .
36.1(32) . . .
29.7(29) . . .
35.8(31) . . .
32.4(31) . . .
28.1(27) . . .
37.1(33) . . .
38.4(33) . . .
34.9(31) . . .
43.3(35) . . .
35.9(33) . . .
32.4(30) . . .
31.2(30) . . .
33.0(30) . . .
38.3(33) . . .
40(4) . . .
33.3(31) . . .
35.0(32) . . .
39.2(33) . . .
31.8(29) . . .
29.1(28) . . .
31.7(30) . . .
38.3(33) . . .
37.0(32) . . .
32.7(33) . . .
37(4) . . .
31.5(30) . . .
40.6(35) . . .
24.9(27) . . .
30.0(29) . . .
23.2(25) . . .
30.4(31) . . .
35.1(31) . . .
29.4(28) . . .
35.3(33) . . .
35.3(33) . . .
27.6(27) . . .
36.4(32) . . .
39.2(32) . . .
39.3(34) . . .
31.2(32) . . .
25.2(26) . . .
28.0(28) . . .
32.9(30) . . .
27.2(26) . . .
36.3(32) . . .
32.9(30) . . .
38.4(35) . . .
35.2(30) . . .
39.0(34) . . .
31.8(30) . . .
33.5(31) . . .
38.0(32) . . .
38.1(32) . . .
41(4) . . .
29.7(29) . . .
33.3(33) . . .
37.3(33) . . .
40(4) . . .
35.4(34) . . .
37.0(34) . . .
27.4(29) . . .
37.2(32) . . .
31.6(30) . . .
31.6(30) . . .
36(4) . . .
30.5(29) . . .
37.8(32) . . .
36.1(32) . . .
23.1(24) . . .
35.0(32) . . .
44(4) . . .
37.8(32) . . .
36.3(32) . . .
36.4(34) . . .
40(4) . . .
26.0(26) . . .
31.7(30) . . .
35.5(32) . . .
40(4) . . .
36.7(32) . . .
39.1(32) . . .
30.9(30) . . .
29.5(29) . . .
32.4(33) . . .
31.9(31) . . .
34.2(31) . . .
30.5(29) . . .
41.5(35) . . .
36.2(34) . . .
36.9(32) . . .
37.8(33) . . .
29.3(29) . . .
34.9(33) . . .
39.2(35) . . .
29.3(29) . . .
28.8(28) . . .
33.1(30) . . .
26.5(26) . . .
28.9(28) . . .
40.1(33) . . .
37.6(32) . . .
39.2(34) . . .
36.8(31) . . .
33.3(31) . . .
26.1(26) . . .
42.4(34) . . .
36.9(32) . . .
34.8(30) . . .
42.7(34) . . .
45(4) . . .
34.2(30) . . .
41.8(33) . . .
38.0(33) . . .
35.8(33) . . .
35.0(31) . . .
34.5(31) . . .
34.7(32) . . .
44(4) . . .
34.0(30) . . .
43.3(34) . . .
38.9(33) . . .
31.5(29) . . .
31.1(33) . . .
34.2(33) . . .
34.0(33) . . .
38.9(32) . . .
35.3(32) . . .
46(4) . . .
38.9(33) . . .
31.6(30) . . .
40.6(33) . . .
37.0(33) . . .
34.9(33) . . .
34.9(32) . . .
41.0(33) . . .
35.9(31) . . .
44(4) . . .
36.2(32) . . .
41.2(34) . . .
37.6(32) . . .
41.0(33) . . .
34.5(32) . . .
41(4) . . .
37.1(34) . . .
33.6(30) . . .
36.6(32) . . .
40.2(35) . . .
34.9(33) . . .
44(4) . . .
30.5(29) . . .
33.3(30) . . .
46(4) . . .
33.3(31) . . .
34.0(32) . . .
33.4(30) . . .
42.5(34) . . .
35.4(31) . . .
38.0(34) . . .
39(4) . . .
32.3(30) . . .
39.4(33) . . .
42(4) . . .
33.8(33) . . .
28.0(29) . . .
37.4(32) . . .
34.6(33) . . .
31.1(29) . . .
36.9(32) . . .
30.9(29) . . .
49(4) . . .
36.7(31) . . .
38.2(35) . . .
39.1(33) . . .
39.3(33) . . .
34.8(31) . . .
41.8(35) . . .
37.8(32) . . .
35.6(32) . . .
27.8(28) . . .
33.2(30) . . .
38.4(33) . . .
40.4(34) . . .
41(4) . . .
37.6(32) . . .
43.8(34) . . .
30.2(29) . . .
37(4) . . .
34.5(31) . . .
35.1(31) . . .
27.8(27) . . .
32.3(30) . . .
35.3(34) . . .
32.6(30) . . .
33.6(30) . . .
32.4(29) . . .
44(4) . . .
45(4) . . .
40.8(34) . . .
41.6(34) . . .
30.5(30) . . .
27.0(29) . . .
39(4) . . .
31.4(29) . . .
23.5(25) . . .
45(4) . . .
30.0(30) . . .
39(4) . . .
35.0(31) . . .
31.2(29) . . .
42.9(34) . . .
32.9(30) . . .
33.7(33) . . .
27.9(28) . . .
41.1(33) . . .
34.4(31) . . .
42(4) . . .
30.9(29) . . .
43(4) . . .
39.9(33) . . .
29.0(30) . . .
38.3(34) . . .
31.7(30) . . .
31.4(29) . . .
37.7(32) . . .
33.7(32) . . .
33.9(34) . . .
33.3(30) . . .
33.0(30) . . .
38.1(32) . . .
38.5(32) . . .
38.4(34) . . .
36.6(34) . . .
38.3(33) . . .
42.0(34) . . .
28.7(29) . . .
29.7(30) . . .
27.0(27) . . .
45(4) . . .
43.3(34) . . .
39.2(33) . . .
41(4) . . .
34.8(30) . . .
36.4(31) . . .
42.1(34) . . .
30.8(29) . . .
32.0(31) . . .
24.1(27) . . .
34.0(31) . . .
34.3(31) . . .
34.4(31) . . .
32.0(30) . . .
40.5(35) . . .
37.9(33) . . .
31.4(31) . . .
34.1(32) . . .
42(4) . . .
31.6(29) . . .
35.3(32) . . .
33.5(30) . . .
36.5(34) . . .
38.6(34) . . .
44.8(35) . . .
31.3(30) . . .
39.1(34) . . .
33.5(32) . . .
35.1(35) . . .
35.2(32) . . .
46(4) . . .
29.6(28) . . .
36.0(32) . . .
37.9(34) . . .
33.5(31) . . .
35.5(31) . . .
35.1(32) . . .
31.5(31) . . .
31.6(32) . . .
29.1(29) . . .
45(4) . . .
39.5(33) . . .
29.9(29) . . .
39.9(35) . . .
37.9(33) . . .
36.3(32) . . .
45(4) . . .
33.5(33) . . .
39.2(34) . . .
33.2(30) . . .
36.3(32) . . .
39.6(34) . . .
37(4) . . .
28.7(28) . . .
33.5(30) . . .
47(4) . . .
45(4) . . .
35.3(32) . . .
29.3(29) . . .
36.1(31) . . .
34.4(32) . . .
33.4(31) . . .
38.5(34) . . .
38.6(33) . . .
36.4(31) . . .
35.5(32) . . .
28.1(28) . . .
35.4(35) . . .
35.0(33) . . .
43.2(34) . . .
34.0(30) . . .
37.9(33) . . .
33.9(31) . . .
40.5(34) . . .
42.2(34) . . .
34.1(31) . . .
37.9(33) . . .
44(4) . . .
34.6(31) . . .
35.0(31) . . .
32.7(32) . . .
34.2(32) . . .
39.9(34) . . .
34.5(31) . . .
40.5(33) . . .
35.9(32) . . .
41(4) . . .
42.6(35) . . .
37.7(32) . . .
37.1(31) . . .
40(4) . . .
28.9(28) . . .
40(4) . . .
36.7(31) . . .
39.5(33) . . .
27.5(28) . . .
35.1(34) . . .
31.5(33) . . .
28.6(28) . . .
35.2(31) . . .
33.7(31) . . .
33.4(33) . . .
36.9(32) . . .
28.5(27) . . .
34.0(31) . . .
32.7(30) . . .
37.9(34) . . .
34.5(32) . . .
36.5(31) . . .
41.8(35) . . .
36.5(32) . . .
32.7(32) . . .
38.7(34) . . .
28.5(28) . . .
32.7(32) . . .
33.1(31) . . .
35.2(33) . . .
37.5(32) . . .
39.0(33) . . .
33.0(30) . . .
28.9(29) . . .
42(4) . . .
38.8(34) . . .
33.1(30) . . .
34.3(31) . . .
35.8(32) . . .
31.8(29) . . .
27.8(28) . . .
31.2(30) . . .
35.7(32) . . .
31.2(30) . . .
43(4) . . .
43(4) . . .
41.8(34) . . .
30.8(29) . . .
36.7(34) . . .
33.9(30) . . .
29.4(28) . . .
40.9(33) . . .
34.0(31) . . .
38.8(35) . . .
36.3(32) . . .
39.2(33) . . .
37.3(32) . . .
39.6(34) . . .
42(4) . . .
39.6(34) . . .
29.1(28) . . .
31.2(29) . . .
38.6(33) . . .
31.1(31) . . .
34.4(32) . . .
32.9(30) . . .
32.4(30) . . .
34.5(33) . . .
33.2(32) . . .
33.7(30) . . .
36.1(31) . . .
28.1(29) . . .
44(4) . . .
34.0(32) . . .
35.1(32) . . .
37.0(31) . . .
31.9(29) . . .
30.2(29) . . .
36.5(35) . . .
29.3(30) . . .
35.9(31) . . .
40.8(33) . . .
39.1(34) . . .
40(4) . . .
34.8(30) . . .
40.2(33) . . .
35.9(31) . . .
39.2(33) . . .
37.4(33) . . .
33.2(30) . . .
44.7(35) . . .
46(4) . . .
37.8(34) . . .
38.5(34) . . .
40.9(33) . . .
43.5(35) . . .
37.1(33) . . .
39.7(34) . . .
32.9(29) . . .
41.0(34) . . .
30.0(29) . . .
39(4) . . .
38.0(35) . . .
35.9(31) . . .
36.3(32) . . .
33.5(30) . . .
29.7(30) . . .
36.1(34) . . .
36.5(32) . . .
32.7(30) . . .
32.3(29) . . .
32.5(32) . . .
36.3(33) . . .
30.5(28) . . .
33.4(29) . . .
31.9(30) . . .
35.2(31) . . .
34.2(35) . . .
30.5(29) . . .
38.6(33) . . .
34.5(30) . . .
38.9(34) . . .
39(4) . . .
35.7(30) . . .
35.4(31) . . .
46(4) . . .
38.7(33) . . .
34.3(32) . . .
36.0(32) . . .
35.4(31) . . .
39.7(34) . . .
44(4) . . .
40(4) . . .
36.3(32) . . .
34.0(31) . . .
36.6(33) . . .
36.8(32) . . .
38.0(33) . . .
32.4(31) . . .
37.5(32) . . .
38.3(32) . . .
37.4(33) . . .
34.1(32) . . .
41.6(34) . . .
35.6(31) . . .
39.0(34) . . .
37.9(34) . . .
36.1(33) . . .
36.8(33) . . .
36.3(31) . . .
34.2(32) . . .
28.4(30) . . .
37.4(34) . . .
40.9(35) . . .
42.3(34) . . .
37.9(33) . . .
34.0(32) . . .
27.3(28) . . .
26.3(27) . . .
40.2(33) . . .
44(4) . . .
37.8(34) . . .
35.1(32) . . .
32.5(29) . . .
38.2(32) . . .
37.1(33) . . .
34.4(33) . . .
39.2(34) . . .
33.2(31) . . .
48(4) . . .
33.6(30) . . .
44(4) . . .
34.0(31) . . .
37.1(31) . . .
30.8(29) . . .
32.3(30) . . .
34.9(33) . . .
37.2(35) . . .
34.0(30) . . .
35.5(32) . . .
36.5(33) . . .
32.0(30) . . .
34.3(33) . . .
36.6(32) . . .
34.4(30) . . .
31.8(32) . . .
29.6(30) . . .
39.5(34) . . .
43.6(35) . . .
33.6(30) . . .
35.5(33) . . .
29.8(29) . . .
37.1(33) . . .
32.2(29) . . .
32.1(30) . . .
37.0(33) . . .
36.7(33) . . .
33.8(31) . . .
40.5(33) . . .
38.5(33) . . .
32.5(31) . . .
37.4(33) . . .
45(4) . . .
42.7(34) . . .
30.8(29) . . .
39(4) . . .
40(4) . . .
35.6(31) . . .
35.2(31) . . .
37.0(32) . . .
34.4(31) . . .
37.6(33) . . .
37.8(32) . . .
38.9(33) . . .
33.3(31) . . .
35.0(34) . . .
30.4(30) . . .
30.0(30) . . .
33.9(30) . . .
42.4(33) . . .
31.4(29) . . .
34.5(31) . . .
30.6(29) . . .
33.8(30) . . .
39.2(35) . . .
37.8(34) . . .
41.1(34) . . .
34.9(31) . . .
39.9(33) . . .
33.2(32) . . .
33.3(33) . . .
31.8(29) . . .
34.7(31) . . .
34.7(30) . . .
32.6(30) . . .
33.7(32) . . .
35.7(32) . . .
30.1(28) . . .
32.0(33) . . .
31.8(32) . . .
24.8(27) . . .
28.1(28) . . .
43.1(35) . . .
32.9(30) . . .
39.6(34) . . .
33.3(31) . . .
26.1(27) . . .
32.1(30) . . .
42(4) . . .
34.5(33) . . .
31.6(30) . . .
28.9(29) . . .
39.0(33) . . .
33.5(31) . . .
28.0(28) . . .
45(4) . . .
33.7(31) . . .
32.3(29) . . .
39.5(35) . . .
43(4) . . .
35.8(32) . . .
34.6(30) . . .
27.8(28) . . .
31.2(30) . . .
39(4) . . .
40.5(35) . . .
32.0(29) . . .
36.3(32) . . .
37(4) . . .
31.2(31) . . .
38.2(32) . . .
42.4(34) . . .
33.1(30) . . .
47(4) . . .
39.6(34) . . .
27.5(28) . . .
28.4(28) . . .
32.4(30) . . .
35.1(31) . . .
41(4) . . .
29.2(29) . . .
37.9(32) . . .
39.1(34) . . .
33.0(30) . . .
33.5(32) . . .
39.5(34) . . .
41.8(34) . . .
42.5(35) . . .
34.7(32) . . .
32.6(30) . . .
38.3(34) . . .
41.1(33) . . .
39.5(35) . . .
40(4) . . .
36.7(32) . . .
31.4(30) . . .
29.2(28) . . .
31.4(30) . . .
44(4) . . .
30.9(31) . . .
29.4(28) . . .
45.1(35) . . .
33.2(31) . . .
33.7(30) . . .
30.6(29) . . .
39.7(33) . . .
33.9(30) . . .
41(4) . . .
32.8(31) . . .
26.7(27) . . .
43.8(34) . . .
38.5(33) . . .
34.5(32) . . .
36(4) . . .
35.1(34) . . .
32.4(30) . . .
42.5(34) . . .
33.6(32) . . .
38(4) . . .
31.6(31) . . .
40.5(33) . . .
37.8(32) . . .
36.0(32) . . .
42(4) . . .
37.8(34) . . .
24.3(27) . . .
32.6(30) . . .
28.9(29) . . .
32.0(33) . . .
28.3(29) . . .
38.3(32) . . .
36.5(34) . . .
28.5(29) . . .
28.2(28) . . .
38.5(33) . . .
31.1(30) . . .
31.6(30) . . .
34.6(33) . . .
33.6(32) . . .
45(4) . . .
43.1(34) . . .
44(4) . . .
36.6(32) . . .
34.2(31) . . .
36.2(33) . . .
35.8(31) . . .
30.9(30) . . .
38.5(33) . . .
43(4) . . .
40.6(34) . . .
30.5(29) . . .
31.5(31) . . .
26.8(29) . . .
34.2(31) . . .
36.8(32) . . .
26.4(27) . . .
36.7(34) . . .
40(4) . . .
32.8(32) . . .
39.0(34) . . .
30.4(28) . . .
42.1(35) . . .
33.8(31) . . .
35.8(32) . . .
46(4) . . .
35.3(31) . . .
37.2(34) . . .
42(4) . . .
38.5(32) . . .
30.8(29) . . .
32.5(30) . . .
43.2(34) . . .
33.1(32) . . .
36.9(32) . . .
39.0(34) . . .
41.3(33) . . .
36.5(32) . . .
33.5(32) . . .
30.4(29) . . .
30.7(29) . . .
34.2(30) . . .
29.9(28) . . .
39(4) . . .
32.8(31) . . .
37.5(32) . . .
38.9(33) . . .
31.5(30) . . .
29.3(30) . . .
29.0(30) . . .
31.8(29) . . .
41.2(34) . . .
29.7(29) . . .
26.8(29) . . .
23.0(27) . . .
34.9(31) . . .
41.4(34) . . .
38.4(35) . . .
38.4(35) . . .
37.3(34) . . .
31.8(29) . . .
34.3(32) . . .
38.6(33) . . .
35.3(33) . . .
39.0(35) . . .
35.0(31) . . .
34.8(32) . . .
41(4) . . .
30.8(29) . . .
41.7(34) . . .
34.8(31) . . .
30.1(30) . . .
34.7(32) . . .
32.3(31) . . .
35.6(31) . . .
37.8(32) . . .
36.0(32) . . .
35.0(33) . . .
32.0(29) . . .
37.3(32) . . .
36.7(32) . . .
30.4(30) . . .
32.7(33) . . .
26.3(26) . . .
31.3(29) . . .
37.0(32) . . .
31.0(30) . . .
39(4) . . .
35.1(32) . . .
31.0(29) . . .
35.5(32) . . .
32.1(30) . . .
33.8(31) . . .
34.3(31) . . .
33.3(30) . . .
29.6(28) . . .
30.2(29) . . .
30.7(30) . . .
36.0(33) . . .
34.8(31) . . .
37.3(32) . . .
36.8(33) . . .
39(4) . . .
40.2(34) . . .
37.2(32) . . .
30.0(28) . . .
39(4) . . .
34.9(32) . . .
41.5(34) . . .
31.9(29) . . .
35(4) . . .
33.8(33) . . .
38(4) . . .
38.8(33) . . .
31.2(29) . . .
40(4) . . .
34.2(31) . . .
36.3(33) . . .
33.4(30) . . .
34.8(31) . . .
32.6(30) . . .
41(4) . . .
34.8(31) . . .
41.0(34) . . .
35.0(31) . . .
34.7(32) . . .
48(4) . . .
44.3(34) . . .
42.1(33) . . .
37.0(32) . . .
35.7(31) . . .
42(4) . . .
40.4(33) . . .
35.4(31) . . .
36.9(32) . . .
35.3(32) . . .
40(4) . . .
38(4) . . .
34.4(30) . . .
36.9(32) . . .
36.2(32) . . .
33.4(31) . . .
43(4) . . .
35.7(31) . . .
34.2(31) . . .
41.5(34) . . .
32.5(29) . . .
37.5(34) . . .
32.4(30) . . .
33.5(32) . . .
25.5(28) . . .
38(4) . . .
36.1(33) . . .
41.1(33) . . .
32.9(31) . . .
43(4) . . .
42.7(34) . . .
39.3(33) . . .
36.1(31) . . .
36.5(33) . . .
35.4(33) . . .
33.4(32) . . .
42(4) . . .
40.8(33) . . .
39.3(34) . . .
37.7(34) . . .
36.6(34) . . .
30.1(29) . . .
32.6(30) . . .
41.7(35) . . .
35.0(31) . . .
34.1(32) . . .
26.6(26) . . .
41.9(34) . . .
34.7(31) . . .
33.6(31) . . .
38.9(34) . . .
36.2(32) . . .
37.8(32) . . .
38.1(35) . . .
32.2(30) . . .
30.0(29) . . .
31.4(31) . . .
28.5(28) . . .
30.5(29) . . .
37.7(34) . . .
29.5(29) . . .
29.2(29) . . .
30.0(28) . . .
34.9(31) . . .
34.1(31) . . .
39.4(34) . . .
29.2(28) . . .
42(4) . . .
42(4) . . .
33.9(32) . . .
31.9(31) . . .
42.1(34) . . .
34.5(31) . . .
30.1(28) . . .
33.9(33) . . .
28.8(30) . . .
41.0(33) . . .
35.7(32) . . .
35.4(31) . . .
33.2(31) . . .
37.8(32) . . .
31.6(30) . . .
39.6(33) . . .
35.3(32) . . .
40.0(34) . . .
35.5(32) . . .
25.5(26) . . .
37.2(33) . . .
31.2(29) . . .
43(4) . . .
30.5(28) . . .
29.4(29) . . .
28.5(28) . . .
32.9(33) . . .
37.0(34) . . .
28.0(27) . . .
36.5(33) . . .
30.9(30) . . .
24.0(26) . . .
30.5(30) . . .
29.1(28) . . .
38.7(32) . . .
34.3(31) . . .
34.5(33) . . .
24.3(26) . . .
29.6(28) . . .
30.9(29) . . .
40.3(34) . . .
39(4) . . .
27.7(27) . . .
42.9(35) . . .
45(4) . . .
30.6(29) . . .
32.0(30) . . .
32.8(31) . . .
44.6(35) . . .
33.2(30) . . .
32.8(30) . . .
28.9(29) . . .
36.5(32) . . .
36.8(32) . . .
35.3(31) . . .
43(4) . . .
36.7(33) . . .
44(4) . . .
44(4) . . .
42.5(35) . . .
33.8(31) . . .
31.5(30) . . .
32.7(31) . . .
30.7(30) . . .
37.9(33) . . .
38.6(33) . . .
31.1(31) . . .
38.8(34) . . .
37.4(32) . . .
41.7(35) . . .
29.6(29) . . .
35.8(34) . . .
31.3(29) . . .
30.5(29) . . .
31.6(30) . . .
40.4(35) . . .
35.3(30) . . .
33.7(30) . . .
34.3(31) . . .
24.8(27) . . .
31.9(30) . . .
30.2(28) . . .
38.0(33) . . .
42.8(33) . . .
42(4) . . .
32.1(31) . . .
36.1(32) . . .
33.6(30) . . .
36.2(31) . . .
41.8(35) . . .
32.2(31) . . .
35.8(33) . . .
34.4(31) . . .
36.5(32) . . .
34.0(31) . . .
40(4) . . .
29.1(28) . . .
37.7(32) . . .
49(4) . . .
35.7(33) . . .
33.5(32) . . .
35.3(33) . . .
40.7(34) . . .
44(4) . . .
32.6(31) . . .
41(4) . . .
33.5(33) . . .
37.9(32) . . .
30.0(29) . . .
23.7(26) . . .
38.0(33) . . .
36.6(32) . . .
31.4(29) . . .
37.5(33) . . .
43(4) . . .
37.7(34) . . .
35.8(33) . . .
34.5(31) . . .
39.4(34) . . .
42(4) . . .
38.1(34) . . .
37.9(32) . . .
35.6(32) . . .
37.9(33) . . .
35.2(34) . . .
31.6(31) . . .
28.6(28) . . .
31.9(30) . . .
27.0(27) . . .
37.3(34) . . .
34.3(32) . . .
37.6(31) . . .
32.8(30) . . .
39(4) . . .
33.5(34) . . .
37.0(32) . . .
32.3(30) . . .
30.4(29) . . .
33.3(32) . . .
38(4) . . .
32.0(29) . . .
35.4(31) . . .
36.5(32) . . .
30.8(29) . . .
35.8(33) . . .
24.8(25) . . .
35.3(32) . . .
36.3(31) . . .
33.2(32) . . .
24.7(26) . . .
32.2(31) . . .
28.1(28) . . .
38.0(33) . . .
28.1(28) . . .
31.6(30) . . .
39.2(33) . . .
32.3(30) . . .
41.0(34) . . .
44(4) . . .
32.6(30) . . .
31.7(30) . . .
42.5(34) . . .
34.4(30) . . .
29.3(29) . . .
34.5(33) . . .
32.6(31) . . .
28.4(27) . . .
32.9(31) . . .
30.4(31) . . .
37.5(34) . . .
33.7(30) . . .
31.7(30) . . .
31.0(32) . . .
29.4(30) . . .
32.6(30) . . .
31.7(29) . . .
28.3(28) . . .
36.0(34) . . .
35.4(31) . . .
38.3(33) . . .
34.1(31) . . .
34.2(31) . . .
41.5(35) . . .
36.0(32) . . .
37.1(33) . . .
34.8(31) . . .
32.7(30) . . .
31.2(30) . . .
30.8(31) . . .
36.6(34) . . .
32.5(30) . . .
31.4(29) . . .
39(4) . . .
31.9(32) . . .
41(4) . . .
32.4(30) . . .
28.7(28) . . .
35.6(32) . . .
36.4(33) . . .
40(4) . . .
34.7(31) . . .
39.3(33) . . .
37.1(33) . . .
35.5(34) . . .
34.5(32) . . .
37.4(32) . . .
40.4(35) . . .
39.2(34) . . .
33.0(32) . . .
32.0(31) . . .
28.2(28) . . .
31.5(30) . . .
35.4(33) . . .
36.4(32) . . .
38.4(33) . . .
38.4(33) . . .
37.5(33) . . .
35.5(33) . . .
34.0(31) . . .
34.1(31) . . .
38.8(32) . . .
39.5(35) . . .
38.9(35) . . .
34.7(31) . . .
32.0(31) . . .
33.9(30) . . .
31.0(31) . . .
32(4) . . .
30.0(30) . . .
37.2(32) . . .
43.6(35) . . .
33.0(30) . . .
38.8(35) . . .
39.0(34) . . .
34.6(31) . . .
41.7(33) . . .
36.7(32) . . .
36.2(31) . . .
39.2(32) . . .
40.3(33) . . .
35.3(32) . . .
41(4) . . .
29.4(28) . . .
33.0(31) . . .
37.4(32) . . .
33.4(31) . . .
25.7(26) . . .
29.5(30) . . .
35.8(32) . . .
41.1(34) . . .
32.9(31) . . .
26.4(28) . . .
31.5(30) . . .
35(4) . . .
33.4(30) . . .
36.3(31) . . .
34.4(32) . . .
28.7(30) . . .
26.6(28) . . .
36.3(32) . . .
33.8(30) . . .
33.0(30) . . .
25.0(26) . . .
41.3(35) . . .
42.3(34) . . .
39.6(33) . . .
33.0(32) . . .
43(4) . . .
33.3(31) . . .
34.3(31) . . .
41.2(34) . . .
36.7(32) . . .
37.7(32) . . .
39.6(33) . . .
28.0(28) . . .
30.3(29) . . .
35.4(31) . . .
44(4) . . .
34.7(31) . . .
36.9(32) . . .
31.7(30) . . .
33.2(31) . . .
39.3(34) . . .
34.2(31) . . .
32.5(29) . . .
33.1(30) . . .
35.4(33) . . .
35.3(32) . . .
39.1(33) . . .
36.2(31) . . .
40.0(33) . . .
38(4) . . .
43(4) . . .
28.7(29) . . .
35.6(31) . . .
29.9(28) . . .
36.9(34) . . .
31.9(31) . . .
31.7(29) . . .
32.7(30) . . .
33.8(32) . . .
32.1(33) . . .
24.0(26) . . .
36.1(32) . . .
38.5(33) . . .
36.0(32) . . .
34.2(32) . . .
35.4(32) . . .
26.3(27) . . .
33.9(32) . . .
34.4(32) . . .
32.2(32) . . .
33.9(31) . . .
50(4) . . .
48(4) . . .
34.7(32) . . .
29.3(30) . . .
35.0(32) . . .
36.4(31) . . .
31.9(31) . . .
30.6(30) . . .
29.1(29) . . .
32.3(30) . . .
39.7(34) . . .
42(4) . . .
30.9(30) . . .
33.6(32) . . .
36.0(33) . . .
38.4(32) . . .
35.2(31) . . .
40.7(35) . . .
32.0(30) . . .
41(4) . . .
30.6(29) . . .
35.8(32) . . .
36.2(33) . . .
36.0(32) . . .
35.5(31) . . .
33.5(30) . . .
36(4) . . .
32.3(32) . . .
30.0(29) . . .
36.8(32) . . .
41.2(34) . . .
46(4) . . .
27.9(30) . . .
32.6(30) . . .
29.3(29) . . .
28.3(28) . . .
32.7(31) . . .
31.5(31) . . .
38(4) . . .
37.7(31) . . .
30.9(29) . . .
37.8(35) . . .
35.6(34) . . .
34.7(32) . . .
30.3(30) . . .
25.8(27) . . .
30.7(29) . . .
41.4(35) . . .
43(4) . . .
40.5(33) . . .
35.5(32) . . .
27.4(28) . . .
33.6(31) . . .
35.8(31) . . .
38.1(32) . . .
34.0(33) . . .
34.9(35) . . .
38.6(34) . . .
43.8(34) . . .
35.4(31) . . .
41.3(35) . . .
40.7(34) . . .
34.1(30) . . .
44.3(35) . . .
40.0(32) . . .
32.3(29) . . .
33.4(32) . . .
33.9(32) . . .
33.1(30) . . .
34.8(31) . . .
21.5(24) . . .
27.6(30) . . .
42(4) . . .
35.4(31) . . .
32.5(31) . . .
39.9(34) . . .
41(4) . . .
39.7(35) . . .
38.6(33) . . .
35.5(32) . . .
38.9(35) . . .
31.5(30) . . .
34.0(31) . . .
33.5(31) . . .
36.4(31) . . .
37.2(32) . . .
31.4(30) . . .
34.6(31) . . .
36.6(31) . . .
33.7(30) . . .
36.8(32) . . .
39.5(34) . . .
36.4(32) . . .
31.3(30) . . .
38.5(33) . . .
37.9(33) . . .
36.4(32) . . .
31.5(30) . . .
29.4(28) . . .
25.1(26) . . .
33.6(31) . . .
35.9(33) . . .
30.4(28) . . .
33.2(30) . . .
35.6(32) . . .
30.5(28) . . .
43(4) . . .
31.8(30) . . .
33.9(30) . . .
31.9(30) . . .
37.9(34) . . .
36.9(33) . . .
44(4) . . .
36.7(31) . . .
36.8(32) . . .
41(4) . . .
35.4(31) . . .
40.3(34) . . .
41.9(34) . . .
42(4) . . .
33.8(33) . . .
30.9(30) . . .
39.3(34) . . .
36.1(31) . . .
41(4) . . .
38.4(34) . . .
28.5(28) . . .
31.8(30) . . .
33.3(31) . . .
26.8(27) . . .
32.5(32) . . .
32.9(30) . . .
26.8(27) . . .
36.6(32) . . .
37.6(34) . . .
37.0(33) . . .
34.8(32) . . .
32.1(30) . . .
33.3(32) . . .
34.1(32) . . .
31.0(30) . . .
21.6(25) . . .
36.3(32) . . .
33.9(30) . . .
32.4(30) . . .
33.1(33) . . .
30.8(30) . . .
36.6(31) . . .
28.9(30) . . .
38.1(34) . . .
38.4(32) . . .
46(4) . . .
34.8(31) . . .
37.6(33) . . .
35.7(33) . . .
35.1(32) . . .
36.6(32) . . .
38.9(32) . . .
40(4) . . .
36.7(35) . . .
30.6(28) . . .
36.8(32) . . .
36.4(32) . . .
35.9(31) . . .
44(4) . . .
37.2(35) . . .
34.8(30) . . .
37.4(32) . . .
37.2(32) . . .
37.6(34) . . .
26.8(29) . . .
33.0(31) . . .
34.7(31) . . .
35.4(31) . . .
37(4) . . .
35.3(33) . . .
30.3(29) . . .
34.8(30) . . .
32.4(30) . . .
38.2(34) . . .
36.6(34) . . .
28.7(28) . . .
44(4) . . .
26.9(27) . . .
39(4) . . .
31.1(30) . . .
40.5(34) . . .
40.0(34) . . .
38.0(35) . . .
37.0(33) . . .
34.9(33) . . .
32.6(30) . . .
33.4(30) . . .
33.8(30) . . .
34.0(32) . . .
39.3(34) . . .
36.3(31) . . .
35.4(32) . . .
35.1(33) . . .
33.2(31) . . .
42.0(35) . . .
32.1(30) . . .
30.2(29) . . .
31.1(31) . . .
33.5(31) . . .
41.7(34) . . .
37.8(32) . . .
30.5(30) . . .
29.3(29) . . .
34.7(32) . . .
33.9(31) . . .
40.8(33) . . .
40.3(34) . . .
28.1(27) . . .
31.6(30) . . .
31.9(30) . . .
29.0(28) . . .
43(4) . . .
41.3(35) . . .
42(4) . . .
37.0(32) . . .
34.7(30) . . .
26.7(27) . . .
36.5(35) . . .
39.9(34) . . .
37.0(32) . . .
34.1(31) . . .
37.9(33) . . .
33.4(32) . . .
28.6(29) . . .
30.1(28) . . .
42.7(34) . . .
34.1(30) . . .
36.2(33) . . .
48(4) . . .
35.9(31) . . .
38.7(34) . . .
30.8(31) . . .
37(4) . . .
29.1(28) . . .
33.6(30) . . .
37.7(33) . . .
38.3(34) . . .
32.6(31) . . .
40(4) . . .
35.0(31) . . .
32.6(30) . . .
36.3(34) . . .
31.8(30) . . .
30.8(30) . . .
33.5(30) . . .
28.3(30) . . .
32.3(34) . . .
34.0(32) . . .
32.2(30) . . .
28.3(28) . . .
37.1(33) . . .
39.2(34) . . .
31.5(30) . . .
30.5(30) . . .
38.4(32) . . .
38.8(33) . . .
41(4) . . .
30.2(29) . . .
32.6(31) . . .
31.7(29) . . .
40.3(34) . . .
30.0(29) . . .
37.8(34) . . .
35.6(32) . . .
34.2(31) . . .
46(4) . . .
37.8(35) . . .
40.4(35) . . .
36.8(31) . . .
40.6(33) . . .
39.9(33) . . .
41(4) . . .
35.0(33) . . .
33.3(30) . . .
35.9(31) . . .
39.6(35) . . .
22.5(24) . . .
34.7(31) . . .
39.3(33) . . .
36.4(33) . . .
27.0(28) . . .
31.0(30) . . .
35.6(33) . . .
28.8(29) . . .
30.5(30) . . .
31.3(31) . . .
34.0(33) . . .
32.6(31) . . .
33.8(31) . . .
30.5(30) . . .
28.6(28) . . .
31.6(31) . . .
41(4) . . .
30.1(29) . . .
30.2(29) . . .
28.5(28) . . .
31.2(30) . . .
33.0(31) . . .
34.7(31) . . .
27.9(27) . . .
32.7(30) . . .
32.4(30) . . .
37.1(32) . . .
38.1(32) . . .
32.1(31) . . .
30.8(29) . . .
40.9(34) . . .
34.6(30) . . .
22.9(26) . . .
37.3(34) . . .
29.9(30) . . .
40(4) . . .
33.6(30) . . .
30.1(29) . . .
31.3(30) . . .
34.2(33) . . .
34.5(30) . . .
35.9(31) . . .
32.2(30) . . .
42.6(35) . . .
40(4) . . .
33.3(31) . . .
35.7(32) . . .
37.4(32) . . .
36.6(32) . . .
32.0(32) . . .
33.1(30) . . .
38.7(32) . . .
32.9(30) . . .
35.4(33) . . .
28.9(29) . . .
31.0(30) . . .
35.3(31) . . .
36.6(31) . . .
40.3(35) . . .
31.6(29) . . .
33.5(32) . . .
39.3(32) . . .
35.6(32) . . .
32.7(30) . . .
32.2(31) . . .
40(4) . . .
39.0(33) . . .
33.4(31) . . .
33.3(31) . . .
35.2(33) . . .
31.0(30) . . .
35.8(31) . . .
37.6(32) . . .
37.1(34) . . .
27.5(27) . . .
33.1(30) . . .
35.6(31) . . .
23.0(25) . . .
32.8(31) . . .
33.5(31) . . .
29.5(28) . . .
30.6(29) . . .
34.1(32) . . .
35.1(31) . . .
37.2(32) . . .
39.4(35) . . .
30.0(29) . . .
32.1(31) . . .
27.1(27) . . .
33.3(31) . . .
40.6(34) . . .
37.2(32) . . .
25.4(26) . . .
33.8(34) . . .
30.1(30) . . .
30.5(28) . . .
30.3(28) . . .
35.7(31) . . .
29.3(32) . . .
40(4) . . .
37.5(32) . . .
33.3(31) . . .
36.6(32) . . .
40.4(35) . . .
37.4(35) . . .
36.2(31) . . .
29.0(28) . . .
33.4(32) . . .
41(4) . . .
38.3(33) . . .
38.6(31) . . .
29.1(29) . . .
31.2(30) . . .
31.6(30) . . .
34.2(30) . . .
41.1(33) . . .
30.3(29) . . .
44(4) . . .
38.8(34) . . .
35.5(32) . . .
37.0(32) . . .
29.7(29) . . .
35.5(34) . . .
38.9(34) . . .
32.6(30) . . .
34.0(30) . . .
32.5(32) . . .
27.9(28) . . .
30.9(32) . . .
29.8(30) . . .
31.2(30) . . .
35.3(32) . . .
34.5(33) . . .
39.5(34) . . .
41.0(35) . . .
41.8(34) . . .
30.7(29) . . .
31.2(31) . . .
25.2(28) . . .
40.1(33) . . .
35.6(31) . . .
36.8(32) . . .
31.7(32) . . .
32.8(30) . . .
39.9(32) . . .
37.3(32) . . .
43.0(34) . . .
39.9(34) . . .
23.1(25) . . .
37.1(32) . . .
27.6(28) . . .
30.4(29) . . .
32.8(32) . . .
41.0(34) . . .
34.7(31) . . .
30.9(29) . . .
29.9(29) . . .
32.7(32) . . .
39.9(34) . . .
35.5(31) . . .
38.9(33) . . .
33.7(32) . . .
38.2(34) . . .
28.1(30) . . .
27.2(28) . . .
33.8(30) . . .
32.6(31) . . .
31.2(30) . . .
36(4) . . .
30.6(29) . . .
28.1(28) . . .
38(4) . . .
32.5(34) . . .
28.8(30) . . .
36.5(31) . . .
38.5(33) . . .
29.9(29) . . .
29.3(28) . . .
30.9(29) . . .
30.5(29) . . .
38.1(34) . . .
34.6(32) . . .
28.6(27) . . .
42(4) . . .
41.1(33) . . .
30.6(30) . . .
32.3(31) . . .
35.8(33) . . .
34.8(32) . . .
32.9(30) . . .
38.2(34) . . .
31.1(29) . . .
24.9(26) . . .
35.9(32) . . .
37.5(32) . . .
30.8(29) . . .
38(4) . . .
32.3(30) . . .
31.3(30) . . .
40.2(33) . . .
27.7(28) . . .
28.3(31) . . .
40(4) . . .
30.8(29) . . .
35.5(32) . . .
35.8(31) . . .
35.7(33) . . .
31.2(29) . . .
42.0(33) . . .
39.0(33) . . .
38.5(34) . . .
33.7(32) . . .
43(4) . . .
34.6(30) . . .
35.8(31) . . .
32.1(31) . . .
35.8(33) . . .
34.3(32) . . .
42.1(34) . . .
32.5(29) . . .
34.6(31) . . .
33.3(30) . . .
34.1(30) . . .
33.9(30) . . .
31.2(30) . . .
35.6(31) . . .
42(4) . . .
35.1(31) . . .
34.3(31) . . .
35.4(32) . . .
31.2(31) . . .
30.9(31) . . .
43(4) . . .
35.0(31) . . .
33.1(30) . . .
39(4) . . .
36.5(34) . . .
35.3(31) . . .
27.4(28) . . .
32.4(33) . . .
29.5(29) . . .
31.8(30) . . .
28.6(28) . . .
26.4(27) . . .
38.9(33) . . .
33.1(31) . . .
35.7(34) . . .
30.9(29) . . .
32.3(29) . . .
41(4) . . .
24.0(25) . . .
39.7(34) . . .
33.5(30) . . .
37.1(33) . . .
30.8(30) . . .
22.8(27) . . .
27.5(30) . . .
37.5(31) . . .
40.3(34) . . .
37.0(33) . . .
36.0(34) . . .
38.7(34) . . .
30.1(29) . . .
41.2(33) . . .
40.5(35) . . .
32.9(31) . . .
35.5(32) . . .
32.7(29) . . .
28.7(29) . . .
31.1(30) . . .
36.9(34) . . .
37.5(34) . . .
37.8(32) . . .
33.8(30) . . .
41(4) . . .
34.7(32) . . .
30.4(29) . . .
27.6(27) . . .
31.1(31) . . .
37(4) . . .
35.5(31) . . .
41.6(34) . . .
34.1(31) . . .
28.1(29) . . .
33.0(32) . . .
30.1(29) . . .
24.9(27) . . .
41.3(34) . . .
40(4) . . .
35.6(31) . . .
34.1(30) . . .
32.4(30) . . .
35.6(31) . . .
39.6(34) . . .
33.9(32) . . .
31.3(29) . . .
29.6(28) . . .
30.7(29) . . .
28.4(28) . . .
44(4) . . .
31.6(29) . . .
32.1(29) . . .
36.9(33) . . .
41.0(34) . . .
33.1(32) . . .
36.0(32) . . .
36.2(32) . . .
42.3(34) . . .
34.2(32) . . .
29.5(28) . . .
44.2(35) . . .
42.1(35) . . .
34.8(31) . . .
39.6(34) . . .
37.9(34) . . .
37.4(33) . . .
39.7(33) . . .
35.8(31) . . .
36.4(34) . . .
38.7(32) . . .
34.0(31) . . .
41.0(33) . . .
29.7(29) . . .
30.1(31) . . .
27.8(30) . . .
28.3(29) . . .
36.8(32) . . .
37.1(34) . . .
40(4) . . .
32.2(31) . . .
28.2(31) . . .
38.1(32) . . .
33.2(31) . . .
29.5(31) . . .
37.4(33) . . .
37.9(32) . . .
24.5(26) . . .
43(4) . . .
29.7(30) . . .
32.3(29) . . .
28.0(28) . . .
32.5(30) . . .
37.0(32) . . .
43.5(35) . . .
29.7(28) . . .
33.1(30) . . .
37.2(32) . . .
29.4(31) . . .
32.6(32) . . .
29.3(29) . . .
41.5(33) . . .
37.4(33) . . .
36.7(33) . . .
32.9(32) . . .
34.2(32) . . .
39.1(33) . . .
37.0(32) . . .
34.5(32) . . .
37.4(34) . . .
31.2(29) . . .
31.8(29) . . .
24.1(25) . . .
34.6(32) . . .
33.6(31) . . .
34.8(33) . . .
33.9(30) . . .
29.0(29) . . .
35.8(34) . . .
42.4(34) . . .
47(4) . . .
42.5(34) . . .
34.9(31) . . .
31.1(32) . . .
29.3(30) . . .
30.4(31) . . .
29.8(28) . . .
36.9(32) . . .
33.6(31) . . .
32.4(29) . . .
37.8(32) . . .
41.2(33) . . .
28.3(30) . . .
36.3(35) . . .
34.0(31) . . .
28.9(28) . . .
34.7(31) . . .
34.1(31) . . .
40(4) . . .
33.7(31) . . .
37.7(32) . . .
35.0(31) . . .
37.3(32) . . .
34.1(31) . . .
33.5(30) . . .
29.5(29) . . .
26.5(28) . . .
33.9(31) . . .
35.7(33) . . .
32.2(29) . . .
33.1(30) . . .
30.2(29) . . .
32.7(30) . . .
35.2(34) . . .
33.4(32) . . .
35.8(31) . . .
36.4(31) . . .
44(4) . . .
36(4) . . .
44(4) . . .
46(4) . . .
30.5(28) . . .
40.1(34) . . .
41(4) . . .
28.6(28) . . .
35.3(30) . . .
32.8(30) . . .
28.2(28) . . .
33.0(33) . . .
33.9(30) . . .
40.1(33) . . .
42.3(34) . . .
37.5(33) . . .
34.3(32) . . .
43.4(35) . . .
35.6(32) . . .
44(4) . . .
42(4) . . .
42(4) . . .
45(4) . . .
39.9(34) . . .
44(4) . . .
34.4(32) . . .
44(4) . . .
35.3(31) . . .
29.9(28) . . .
38.5(32) . . .
51(4) . . .
38.0(33) . . .
33.9(31) . . .
33.6(30) . . .
37.2(32) . . .
33.5(31) . . .
31.5(29) . . .
34.1(31) . . .
36.9(32) . . .
31.8(29) . . .
41.1(35) . . .
45(4) . . .
39.9(33) . . .
41.3(34) . . .
27.2(29) . . .
34.4(31) . . .
39.4(33) . . .
36.5(32) . . .
31.7(31) . . .
31.4(31) . . .
24.8(27) . . .
40.0(35) . . .
33.0(30) . . .
31.9(30) . . .
31.5(29) . . .
33.7(31) . . .
37.4(34) . . .
26.8(27) . . .
32.3(32) . . .
35.0(32) . . .
37.5(34) . . .
29.4(28) . . .
31.2(29) . . .
39.3(35) . . .
32.5(32) . . .
37.1(32) . . .
32.8(30) . . .
28.9(28) . . .
43(4) . . .
37.7(33) . . .
40.8(34) . . .
29.0(29) . . .
30.0(28) . . .
35.6(32) . . .
30.7(31) . . .
28.9(29) . . .
40.5(34) . . .
45.6(35) . . .
30.2(30) . . .
38.0(35) . . .
37.3(35) . . .
26.0(27) . . .
30.8(29) . . .
24.5(27) . . .
29.4(30) . . .
37.8(34) . . .
34.0(31) . . .
39.3(32) . . .
34.3(31) . . .
31.2(30) . . .
27.0(27) . . .
34.3(32) . . .
33.4(31) . . .
34.9(31) . . .
37(4) . . .
34.4(31) . . .
36.2(31) . . .
26.9(28) . . .
34.3(33) . . .
41(4) . . .
44(4) . . .
29.6(28) . . .
34.8(31) . . .
36.9(34) . . .
30.7(33) . . .
37.5(34) . . .
36.0(32) . . .
30.0(29) . . .
29.1(29) . . .
41.6(35) . . .
44(4) . . .
32.3(29) . . .
34.7(32) . . .
35.2(34) . . .
43(4) . . .
42.0(35) . . .
27.2(29) . . .
34.7(32) . . .
31.8(30) . . .
39.4(34) . . .
32.8(31) . . .
35.3(31) . . .
27.6(30) . . .
36.0(32) . . .
39.9(35) . . .
33.9(31) . . .
36.3(31) . . .
45(4) . . .
32.6(30) . . .
35.3(31) . . .
35.3(31) . . .
36.7(31) . . .
34.2(33) . . .
33.2(33) . . .
34.0(35) . . .
32.2(32) . . .
30.8(29) . . .
32.2(30) . . .
27.3(29) . . .
32.8(31) . . .
37.3(32) . . .
39.6(33) . . .
33.7(32) . . .
31.8(32) . . .
26.2(29) . . .
39.1(32) . . .
34.1(30) . . .
35.2(31) . . .
32.0(34) . . .
28.7(31) . . .
28.4(28) . . .
33.0(30) . . .
26.3(27) . . .
34.8(34) . . .
37.3(33) . . .
28.4(28) . . .
35.9(32) . . .
34.3(31) . . .
34.8(33) . . .
25.2(26) . . .
39.7(33) . . .
34.8(30) . . .
28.6(27) . . .
33.4(31) . . .
39.2(34) . . .
31.6(29) . . .
36.2(34) . . .
28.5(29) . . .
32.9(34) . . .
34.1(32) . . .
39.2(33) . . .
33.0(30) . . .
33.2(31) . . .
35.8(33) . . .
27.1(27) . . .
32.8(30) . . .
32.6(31) . . .
28.8(29) . . .
32.1(30) . . .
36.7(32) . . .
33.2(31) . . .
30.7(29) . . .
37.7(34) . . .
34.6(31) . . .
33.8(30) . . .
28.1(27) . . .
29.0(29) . . .
35.5(34) . . .
39(4) . . .
32.3(29) . . .
32.2(31) . . .
29.1(29) . . .
25.0(28) . . .
30.7(31) . . .
33.4(30) . . .
42.7(34) . . .
26.8(27) . . .
35(4) . . .
30.8(32) . . .
31.1(29) . . .
32.6(29) . . .
35.6(32) . . .
39(4) . . .
38.1(35) . . .
33.3(30) . . .
43(4) . . .
32.8(31) . . .
33.6(32) . . .
30.4(32) . . .
33.0(30) . . .
33.9(30) . . .
38.7(35) . . .
40(4) . . .
32.4(31) . . .
31.5(29) . . .
37.1(32) . . .
29.6(29) . . .
29.1(29) . . .
32.7(30) . . .
39.5(32) . . .
36.3(32) . . .
36.2(32) . . .
30.4(30) . . .
34.3(33) . . .
34.9(31) . . .
26.8(27) . . .
36.1(34) . . .
37.3(34) . . .
37.0(33) . . .
26.7(27) . . .
30.2(31) . . .
35.1(34) . . .
32.6(30) . . .
35.9(32) . . .
38.9(32) . . .
30.0(28) . . .
32.9(32) . . .
31.7(31) . . .
38.3(33) . . .
38.5(32) . . .
38.7(33) . . .
33.5(32) . . .
32.3(32) . . .
29.1(28) . . .
32.6(30) . . .
29.9(29) . . .
29.4(30) . . .
27.5(28) . . .
40.0(33) . . .
38.3(32) . . .
42.1(34) . . .
42(4) . . .
29.0(28) . . .
39.9(33) . . .
25.2(26) . . .
28.5(31) . . .
27.3(29) . . .
36.0(33) . . .
32.4(29) . . .
32.8(31) . . .
28.0(28) . . .
34.1(33) . . .
28.2(29) . . .
32.5(30) . . .
35.9(32) . . .
40.0(34) . . .
30.3(29) . . .
26.4(27) . . .
28.6(28) . . .
32.9(31) . . .
28.8(28) . . .
30.1(30) . . .
26.8(29) . . .
37.0(32) . . .
33.8(31) . . .
34.4(30) . . .
38.2(33) . . .
25.8(26) . . .
31.4(29) . . .
36.6(33) . . .
35.4(34) . . .
32.1(31) . . .
29.2(28) . . .
37.9(32) . . .
34.9(33) . . .
34.9(33) . . .
36.6(33) . . .
37.7(32) . . .
34.0(30) . . .
29.6(28) . . .
28.6(28) . . .
35.7(31) . . .
35.3(31) . . .
40.2(34) . . .
34.8(31) . . .
35.9(35) . . .
39.4(35) . . .
36.7(31) . . .
30.8(30) . . .
39.4(34) . . .
35.5(33) . . .
45(4) . . .
37.4(32) . . .
37.7(32) . . .
30.0(29) . . .
30.8(31) . . .
35.2(32) . . .
36.5(31) . . .
35.3(32) . . .
33.0(30) . . .
35.2(31) . . .
37.8(33) . . .
34.6(31) . . .
28.9(29) . . .
29.3(30) . . .
37.9(35) . . .
36.2(33) . . .
34.8(30) . . .
36.5(31) . . .
35.5(33) . . .
36.2(32) . . .
37.7(33) . . .
35.1(31) . . .
35.5(32) . . .
33.2(33) . . .
38.2(33) . . .
31.4(29) . . .
32.3(30) . . .
34.7(32) . . .
41(4) . . .
42.6(35) . . .
35.8(31) . . .
37.4(32) . . .
45(4) . . .
37.8(32) . . .
42.4(35) . . .
29.3(28) . . .
32.2(30) . . .
34.6(31) . . .
35.9(33) . . .
30.8(29) . . .
29.3(29) . . .
34.6(31) . . .
29.9(30) . . .
39(4) . . .
34.9(32) . . .
35.3(31) . . .
24.2(26) . . .
32.4(31) . . .
41(4) . . .
35.0(31) . . .
35.4(32) . . .
37.1(32) . . .
35.3(32) . . .
37.5(34) . . .
40.8(35) . . .
26.2(26) . . .
28.8(28) . . .
39.7(33) . . .
38.6(32) . . .
37.3(32) . . .
37.7(32) . . .
34.9(31) . . .
31.3(30) . . .
30.1(31) . . .
39(4) . . .
34.1(31) . . .
39.3(32) . . .
32.5(31) . . .
31.4(31) . . .
34.6(31) . . .
37.2(32) . . .
29.0(29) . . .
37.6(35) . . .
31.3(30) . . .
32.7(33) . . .
32.5(30) . . .
35.4(31) . . .
35.6(33) . . .
37.4(34) . . .
38.9(33) . . .
28.3(29) . . .
37.5(33) . . .
43(4) . . .
27.2(28) . . .
32.0(30) . . .
33.9(30) . . .
42(4) . . .
27.3(27) . . .
30.5(30) . . .
37.5(33) . . .
35.1(31) . . .
38.6(33) . . .
37.1(34) . . .
33.1(31) . . .
30.8(29) . . .
32.4(31) . . .
26.9(27) . . .
35.5(34) . . .
34.5(30) . . .
33.6(30) . . .
30.7(29) . . .
36.9(34) . . .
32.9(32) . . .
30.1(29) . . .
33.7(30) . . .
34.5(33) . . .
29.6(30) . . .
36.0(34) . . .
35.3(31) . . .
31.4(30) . . .
34.3(30) . . .
35.2(33) . . .
34.6(33) . . .
37.9(33) . . .
48(4) . . .
34.4(31) . . .
33.7(29) . . .
36.0(34) . . .
33.4(30) . . .
29.9(29) . . .
38.5(32) . . .
35.9(31) . . .
35.5(33) . . .
32.0(31) . . .
36.8(31) . . .
32.7(30) . . .
35.9(33) . . .
38.2(33) . . .
45.7(35) . . .
36.3(32) . . .
29.5(32) . . .
30.2(31) . . .
37.0(33) . . .
35.9(33) . . .
33.9(30) . . .
37.5(32) . . .
35.5(33) . . .
32.3(31) . . .
36.9(32) . . .
36.6(32) . . .
30.8(31) . . .
39(4) . . .
34.7(31) . . .
42.7(34) . . .
36.3(32) . . .
34.7(34) . . .
24.7(28) . . .
24.3(27) . . .
29.6(30) . . .
34.1(30) . . .
36.5(33) . . .
35.1(34) . . .
31.3(32) . . .
30.0(29) . . .
39.4(34) . . .
32.5(30) . . .
32.4(32) . . .
43(4) . . .
36.1(31) . . .
37.0(33) . . .
29.8(32) . . .
33.9(32) . . .
35.0(31) . . .
38.9(33) . . .
35.0(31) . . .
29.5(30) . . .
36.3(33) . . .
41.8(34) . . .
37.0(32) . . .
34.6(30) . . .
34.1(30) . . .
35.7(30) . . .
40.8(34) . . .
37.4(32) . . .
32.6(30) . . .
32.1(32) . . .
31.7(30) . . .
34.4(33) . . .
37.6(32) . . .
43.1(34) . . .
37.2(33) . . .
37.5(32) . . .
42.0(35) . . .
35.4(31) . . .
27.8(27) . . .
29.5(31) . . .
33.3(31) . . .
28.9(28) . . .
36.5(32) . . .
35.5(33) . . .
30.0(29) . . .
32.0(29) . . .
34.0(31) . . .
30.1(28) . . .
34.8(31) . . .
40(4) . . .
33.1(33) . . .
35.0(31) . . .
32.1(30) . . .
37.6(34) . . .
32.4(29) . . .
41.0(33) . . .
37.4(32) . . .
37.6(33) . . .
30.4(30) . . .
38.0(34) . . .
36.3(31) . . .
33.3(30) . . .
32.1(31) . . .
32.5(32) . . .
37(4) . . .
34.0(32) . . .
24.3(26) . . .
36.9(31) . . .
40.2(35) . . .
37.6(35) . . .
32.7(32) . . .
34.3(31) . . .
35.0(32) . . .
39(4) . . .
38.6(35) . . .
27.1(28) . . .
30.6(29) . . .
33.0(30) . . .
46(4) . . .
39.1(33) . . .
40.3(34) . . .
30.5(28) . . .
39.0(34) . . .
30.1(29) . . .
38(4) . . .
34.5(32) . . .
27.4(27) . . .
31.7(30) . . .
31.7(30) . . .
35.1(32) . . .
34.5(32) . . .
35.0(31) . . .
36.3(31) . . .
37(4) . . .
31.8(31) . . .
25.7(26) . . .
29.6(28) . . .
29.1(27) . . .
43(4) . . .
40.5(34) . . .
35.7(32) . . .
26.9(28) . . .
34.9(31) . . .
30.8(32) . . .
30.6(31) . . .
35.8(32) . . .
33.3(31) . . .
39.6(33) . . .
36.2(33) . . .
32.4(32) . . .
31.9(30) . . .
38.2(32) . . .
37.2(33) . . .
35.3(34) . . .
33.9(31) . . .
30.4(29) . . .
27.4(28) . . .
29.7(30) . . .
34(4) . . .
20.5(25) . . .
34.0(30) . . .
36.0(32) . . .
38.1(35) . . .
31.9(32) . . .
31.7(29) . . .
41.2(34) . . .
27.1(27) . . .
33.3(31) . . .
43(4) . . .
35.5(31) . . .
35.3(31) . . .
32.5(30) . . .
37.0(35) . . .
34.9(33) . . .
34.4(31) . . .
34.6(31) . . .
27.6(30) . . .
35.5(33) . . .
37.7(33) . . .
32.5(29) . . .
37.7(32) . . .
31.9(30) . . .
36(4) . . .
33.3(30) . . .
40(4) . . .
30.1(28) . . .
27.6(28) . . .
42(4) . . .
27.7(27) . . .
36.5(33) . . .
30.8(29) . . .
38.1(33) . . .
35.2(33) . . .
36.9(32) . . .
34.1(30) . . .
34.5(31) . . .
38.8(34) . . .
32.1(34) . . .
32.4(32) . . .
34.3(31) . . .
31.3(29) . . .
35.6(34) . . .
33.6(33) . . .
30.6(29) . . .
39.7(33) . . .
37.2(31) . . .
40.8(34) . . .
40(4) . . .
32.7(30) . . .
35.8(32) . . .
30.2(29) . . .
34.1(32) . . .
33.3(33) . . .
32.7(32) . . .
34.1(30) . . .
28.4(29) . . .
32.1(31) . . .
34.7(30) . . .
34.7(33) . . .
34.6(32) . . .
36.1(33) . . .
33.5(33) . . .
33.7(33) . . .
31.3(30) . . .
30.1(29) . . .
33.7(31) . . .
37.2(32) . . .
38.2(32) . . .
29.4(28) . . .
35.5(31) . . .
27.7(29) . . .
34.4(34) . . .
34.4(33) . . .
33.0(30) . . .
30.0(29) . . .
28.8(29) . . .
41(4) . . .
32.4(31) . . .
29.8(28) . . .
42.6(35) . . .
39.4(34) . . .
35.6(34) . . .
30.0(30) . . .
24.1(26) . . .
30.9(30) . . .
36.4(33) . . .
36.0(33) . . .
34.1(30) . . .
33.2(30) . . .
38.7(32) . . .
35.7(33) . . .
38.3(35) . . .
42(4) . . .
34.8(31) . . .
32.1(30) . . .
38.0(32) . . .
38.6(34) . . .
28.5(28) . . .
33.2(31) . . .
33.7(30) . . .
32.9(30) . . .
32.4(32) . . .
25.3(26) . . .
34.9(31) . . .
26.1(28) . . .
30.1(30) . . .
34.3(31) . . .
24.4(26) . . .
30.0(29) . . .
31.0(29) . . .
25.8(28) . . .
25.1(26) . . .
40.5(34) . . .
36.1(32) . . .
46(4) . . .
35.8(32) . . .
31.3(30) . . .
40.1(33) . . .
40.8(34) . . .
30.8(29) . . .
29.4(31) . . .
27.1(27) . . .
33.4(30) . . .
33.3(30) . . .
36.0(33) . . .
30.3(31) . . .
37.0(35) . . .
31.9(30) . . .
28.9(28) . . .
25.7(29) . . .
32.3(33) . . .
36.8(33) . . .
31.6(30) . . .
37.7(32) . . .
34.2(30) . . .
32.0(29) . . .
28.8(28) . . .
28.9(28) . . .
43(4) . . .
36.1(31) . . .
38.3(35) . . .
32.0(30) . . .
33.2(31) . . .
32.7(30) . . .
34.0(31) . . .
42(4) . . .
36.3(33) . . .
39.9(33) . . .
34.3(31) . . .
33.6(33) . . .
30.4(30) . . .
34.9(33) . . .
36.7(31) . . .
32.1(32) . . .
37.3(32) . . .
46(4) . . .
26.1(27) . . .
38.0(32) . . .
32.3(30) . . .
41(4) . . .
30.3(29) . . .
31.7(30) . . .
43.5(34) . . .
39.5(33) . . .
35.5(35) . . .
37.0(32) . . .
36.0(31) . . .
28.5(28) . . .
36.1(32) . . .
36.9(33) . . .
35.4(33) . . .
35.5(31) . . .
26.3(26) . . .
32.7(30) . . .
35.6(32) . . .
41.2(34) . . .
34.7(31) . . .
32.0(29) . . .
31.7(30) . . .
36.6(33) . . .
35.0(33) . . .
30.2(28) . . .
29.2(29) . . .
35.0(31) . . .
27.3(28) . . .
35.0(34) . . .
31.9(29) . . .
25.8(27) . . .
32.9(30) . . .
32.9(31) . . .
38.5(32) . . .
43.0(35) . . .
37.6(32) . . .
32.3(30) . . .
36.5(34) . . .
31.1(29) . . .
38.0(33) . . .
36.3(32) . . .
36.9(32) . . .
35.2(33) . . .
35.2(32) . . .
38.5(31) . . .
36.5(32) . . .
32.8(33) . . .
30.0(30) . . .
27.3(28) . . .
33.1(30) . . .
31.8(30) . . .
31.0(31) . . .
34.8(34) . . .
38.6(32) . . .
33.0(30) . . .
43(4) . . .
35.5(33) . . .
34.5(31) . . .
38.5(33) . . .
45(4) . . .
38.3(34) . . .
31.5(30) . . .
39.3(35) . . .
33.1(30) . . .
31.6(29) . . .
39(4) . . .
37.1(34) . . .
31.6(29) . . .
37.8(32) . . .
28.4(28) . . .
32.2(31) . . .
35.2(33) . . .
40(4) . . .
36.1(32) . . .
30.2(28) . . .
28.1(30) . . .
27.2(30) . . .
27.8(29) . . .
39.9(33) . . .
37.6(34) . . .
41(4) . . .
40.7(35) . . .
34.6(31) . . .
38.0(32) . . .
42.2(34) . . .
30.4(29) . . .
30.8(32) . . .
38(4) . . .
29.0(28) . . .
26.0(28) . . .
39.8(35) . . .
30.2(30) . . .
30.0(31) . . .
28.7(28) . . .
45(4) . . .
29.4(29) . . .
28.5(30) . . .
41.1(35) . . .
30.8(29) . . .
29.3(30) . . .
33.2(32) . . .
39.1(34) . . .
38.9(35) . . .
36.2(32) . . .
40.0(34) . . .
31.7(31) . . .
30.8(29) . . .
26.5(27) . . .
35.2(31) . . .
47(4) . . .
32.3(31) . . .
30.4(31) . . .
45(4) . . .
31.9(30) . . .
32.4(31) . . .
31.8(32) . . .
32.5(30) . . .
35.3(32) . . .
31.3(30) . . .
35.0(34) . . .
26.5(30) . . .
24.7(27) . . .
36.5(31) . . .
35.2(31) . . .
30.9(30) . . .
35.8(34) . . .
38.4(33) . . .
38.1(33) . . .
32.1(29) . . .
35.1(32) . . .
30.5(31) . . .
34.9(31) . . .
34.7(31) . . .
41.4(33) . . .
33.1(32) . . .
36.8(35) . . .
30.6(28) . . .
30.5(28) . . .
27.4(28) . . .
41(4) . . .
37.5(33) . . .
38.1(33) . . .
27.5(27) . . .
29.8(28) . . .
28.2(28) . . .
36.0(33) . . .
39.0(33) . . .
32.3(30) . . .
32.6(30) . . .
31.7(29) . . .
28.1(28) . . .
29.2(28) . . .
30.0(28) . . .
32.0(31) . . .
33.3(30) . . .
50(4) . . .
39.0(33) . . .
29.0(28) . . .
39.6(35) . . .
36.9(34) . . .
44(4) . . .
42.0(34) . . .
40.6(33) . . .
36.5(32) . . .
32.8(33) . . .
32.8(31) . . .
33.3(31) . . .
43(4) . . .
29.2(29) . . .
32.3(32) . . .
32.6(30) . . .
37.6(32) . . .
38.3(32) . . .
41(4) . . .
30.4(30) . . .
37.2(33) . . .
40.0(33) . . .
31.6(30) . . .
30.6(30) . . .
28.4(29) . . .
35.8(31) . . .
33.5(30) . . .
28.2(29) . . .
35.8(33) . . .
41(4) . . .
37.8(32) . . .
36.1(31) . . .
37.1(32) . . .
33.3(33) . . .
34.8(34) . . .
28.1(29) . . .
41.0(34) . . .
34.5(31) . . .
30.4(29) . . .
38.1(33) . . .
36.9(33) . . .
35.2(31) . . .
30.0(28) . . .
32.9(33) . . .
31.4(31) . . .
44(4) . . .
30.6(30) . . .
36.3(32) . . .
38.2(33) . . .
26.3(28) . . .
33.8(31) . . .
32.3(30) . . .
38.4(33) . . .
38.3(34) . . .
35.5(32) . . .
32.4(30) . . .
30.6(29) . . .
32.5(31) . . .
41(4) . . .
31.3(31) . . .
27.5(27) . . .
30.7(29) . . .
31.6(30) . . .
34.8(33) . . .
35.8(33) . . .
37.7(32) . . .
38.9(32) . . .
30.2(29) . . .
32.6(32) . . .
29.9(30) . . .
30.9(30) . . .
32.0(29) . . .
35.1(31) . . .
39(4) . . .
35.9(33) . . .
33.6(31) . . .
31.0(31) . . .
33.6(32) . . .
25.8(27) . . .
29.9(30) . . .
28.5(28) . . .
32.0(30) . . .
43(4) . . .
28.9(29) . . .
40.6(35) . . .
37.3(31) . . .
39.0(34) . . .
31.5(31) . . .
37.5(34) . . .
33.4(32) . . .
36.0(32) . . .
28.2(27) . . .
32.9(30) . . .
31.5(32) . . .
39.9(34) . . .
34.2(30) . . .
30.7(30) . . .
35.8(33) . . .
37.4(34) . . .
35.7(32) . . .
26.2(27) . . .
38.1(35) . . .
32.7(31) . . .
39(4) . . .
28.7(28) . . .
38.9(32) . . .
33.0(31) . . .
33.7(33) . . .
29.6(29) . . .
30.5(29) . . .
41.3(33) . . .
38.2(33) . . .
36.5(33) . . .
35.8(32) . . .
32.9(30) . . .
35.3(32) . . .
26.0(26) . . .
38(4) . . .
26.5(28) . . .
36.3(33) . . .
31.4(29) . . .
30.4(31) . . .
28.8(30) . . .
33.4(31) . . .
31.4(29) . . .
31.3(30) . . .
32.1(30) . . .
35.0(33) . . .
37.1(32) . . .
39.6(33) . . .
33.8(30) . . .
32.9(31) . . .
39(4) . . .
32.4(31) . . .
36.5(32) . . .
34.2(30) . . .
40.2(33) . . .
34.3(33) . . .
26.1(26) . . .
30.6(29) . . .
34.6(30) . . .
33.0(31) . . .
35.6(32) . . .
35.2(31) . . .
36.3(31) . . .
38.5(34) . . .
36.3(32) . . .
45(4) . . .
33.4(31) . . .
40.1(34) . . .
46(4) . . .
35.0(33) . . .
29.0(28) . . .
36.8(32) . . .
29.2(28) . . .
38.4(34) . . .
38.5(33) . . .
37.2(33) . . .
32.2(31) . . .
25.1(27) . . .
33.3(32) . . .
30.3(31) . . .
24.6(28) . . .
27.1(29) . . .
30.2(28) . . .
30.0(30) . . .
27.7(30) . . .
26.4(26) . . .
37.5(32) . . .
33.1(30) . . .
43(4) . . .
36.6(33) . . .
36.7(32) . . .
34.5(30) . . .
39.9(34) . . .
41.5(35) . . .
34.7(33) . . .
33.4(32) . . .
25.4(26) . . .
37.0(31) . . .
40.8(34) . . .
35.1(31) . . .
31.9(29) . . .
34.2(31) . . .
36.7(31) . . .
33.6(32) . . .
35.9(34) . . .
28.2(27) . . .
38.0(32) . . .
32.2(32) . . .
33.0(34) . . .
32.7(30) . . .
39.0(34) . . .
26.3(27) . . .
30.1(29) . . .
35.2(32) . . .
32.5(30) . . .
33.8(31) . . .
36.5(31) . . .
37.0(33) . . .
29.7(28) . . .
36.9(34) . . .
25.7(27) . . .
34.2(31) . . .
36.7(33) . . .
39(4) . . .
26.8(29) . . .
28.9(30) . . .
36.9(32) . . .
31.5(30) . . .
36.1(34) . . .
37.9(32) . . .
31.9(30) . . .
33.3(30) . . .
37.0(32) . . .
39.5(35) . . .
28.8(27) . . .
31.6(29) . . .
29.3(28) . . .
39.5(34) . . .
29.3(29) . . .
34.8(34) . . .
38.8(32) . . .
37.4(31) . . .
41.0(34) . . .
32.2(32) . . .
34.3(33) . . .
32.7(30) . . .
33.2(29) . . .
31.5(31) . . .
37(4) . . .
34.8(33) . . .
30.7(29) . . .
31.8(30) . . .
40(4) . . .
29.7(29) . . .
34.3(32) . . .
33.2(30) . . .
27.2(28) . . .
37.8(33) . . .
36.5(33) . . .
25.7(27) . . .
40.6(33) . . .
29.3(28) . . .
30.5(29) . . .
34.0(32) . . .
36.1(32) . . .
34.6(31) . . .
34.3(30) . . .
40(4) . . .
37.6(34) . . .
34.6(31) . . .
34.1(30) . . .
26.4(27) . . .
37.4(35) . . .
32.5(31) . . .
35.0(31) . . .
28.5(28) . . .
39(4) . . .
35.6(31) . . .
37.1(33) . . .
30.8(29) . . .
34.8(31) . . .
35.9(35) . . .
28.9(30) . . .
35.7(32) . . .
36.3(32) . . .
29.8(28) . . .
31.8(31) . . .
27.0(28) . . .
33.1(30) . . .
32.2(30) . . .
27.1(27) . . .
38.6(35) . . .
39.1(35) . . .
35.0(31) . . .
28.4(28) . . .
27.7(27) . . .
35.0(34) . . .
38(4) . . .
38.0(33) . . .
26.2(27) . . .
39.9(34) . . .
33.3(30) . . .
29.1(29) . . .
38.6(34) . . .
34.1(31) . . .
29.2(28) . . .
36.7(33) . . .
35.8(32) . . .
35.8(32) . . .
30.1(28) . . .
32.1(30) . . .
35.2(32) . . .
23.3(25) . . .
33.1(33) . . .
28.0(28) . . .
38.2(33) . . .
35.6(34) . . .
24.5(27) . . .
33.9(32) . . .
38.5(32) . . .
38(4) . . .
26.7(26) . . .
33.8(30) . . .
32.5(30) . . .
32.7(29) . . .
38.2(33) . . .
30.0(28) . . .
28.9(27) . . .
30.8(29) . . .
36.4(31) . . .
32.2(30) . . .
44(4) . . .
40.3(35) . . .
30.3(29) . . .
37.9(33) . . .
38.1(33) . . .
39.2(34) . . .
30.3(32) . . .
37.3(33) . . .
39.6(33) . . .
35.3(32) . . .
39(4) . . .
30.1(28) . . .
30.5(29) . . .
33.3(31) . . .
42(4) . . .
31.3(31) . . .
36.8(32) . . .
35.6(33) . . .
33.9(32) . . .
26.0(27) . . .
32.0(31) . . .
31.6(31) . . .
40.5(33) . . .
34.3(31) . . .
36.8(34) . . .
27.9(29) . . .
32.3(31) . . .
39.0(33) . . .
31.4(31) . . .
31.3(30) . . .
30.0(30) . . .
26.7(28) . . .
27.1(27) . . .
35.6(33) . . .
33.1(30) . . .
37.5(32) . . .
31.4(30) . . .
33.6(30) . . .
35.4(34) . . .
30.3(29) . . .
30.4(29) . . .
35.3(32) . . .
37.3(32) . . .
36.6(33) . . .
29.5(30) . . .
36.4(32) . . .
37.8(32) . . .
32.4(31) . . .
23.8(29) . . .
27.4(29) . . .
33.1(31) . . .
31.3(30) . . .
28.0(28) . . .
40.1(33) . . .
35.0(30) . . .
37.3(32) . . .
38.5(33) . . .
32.6(29) . . .
37.8(34) . . .
25.3(25) . . .
35.6(34) . . .
31.5(29) . . .
28.4(28) . . .
37.5(35) . . .
27.0(29) . . .
31.1(30) . . .
43.3(34) . . .
35.7(32) . . .
28.5(28) . . .
33.6(32) . . .
33.3(32) . . .
25.7(26) . . .
42.2(35) . . .
41(4) . . .
34.1(32) . . .
31.3(33) . . .
30.8(30) . . .
33.9(30) . . .
33.8(30) . . .
46(4) . . .
41.4(35) . . .
38.8(33) . . .
42.9(34) . . .
34.5(31) . . .
29.5(29) . . .
29.1(29) . . .
41.4(33) . . .
37.8(33) . . .
34.7(32) . . .
34.5(33) . . .
37.0(33) . . .
27.2(27) . . .
29.9(30) . . .
32.9(31) . . .
31.6(31) . . .
30.8(29) . . .
31.0(29) . . .
30.4(29) . . .
38.8(35) . . .
30.5(31) . . .
34.2(31) . . .
36.9(32) . . .
31.0(30) . . .
23.8(27) . . .
41(4) . . .
35.8(32) . . .
37.1(31) . . .
36.6(33) . . .
35.9(32) . . .
37.2(32) . . .
36.2(31) . . .
30.9(29) . . .
34.7(32) . . .
29.8(30) . . .
33.7(33) . . .
30.3(29) . . .
31.1(29) . . .
35.1(32) . . .
30.8(30) . . .
28.5(28) . . .
31.2(29) . . .
35.5(33) . . .
36.0(34) . . .
34.6(32) . . .
33.4(32) . . .
33.2(30) . . .
36.3(31) . . .
43.9(35) . . .
35.1(32) . . .
29.0(29) . . .
26.1(26) . . .
28.6(30) . . .
35.1(31) . . .
34.8(32) . . .
28.5(29) . . .
36.6(32) . . .
29.9(29) . . .
32.6(30) . . .
32.2(30) . . .
34.3(32) . . .
26.8(27) . . .
32.7(30) . . .
38.7(34) . . .
39.3(34) . . .
40.8(34) . . .
39.7(33) . . .
35.2(33) . . .
24.1(25) . . .
33.3(32) . . .
19.6(23) . . .
24.6(26) . . .
37.9(32) . . .
44(4) . . .
37.7(32) . . .
33.7(31) . . .
36.1(31) . . .
31.4(31) . . .
32.8(33) . . .
32.3(29) . . .
36.5(31) . . .
32.5(30) . . .
40.3(34) . . .
36.1(33) . . .
38.0(33) . . .
42.0(34) . . .
35.8(31) . . .
35.5(31) . . .
31.0(31) . . .
27.8(29) . . .
38.5(32) . . .
37.8(33) . . .
36.7(32) . . .
39.8(35) . . .
34.6(31) . . .
34.7(31) . . .
35.8(31) . . .
38.4(34) . . .
27.1(28) . . .
31.6(30) . . .
31.0(30) . . .
30.9(29) . . .
37.2(33) . . .
34.6(31) . . .
31.6(30) . . .
31.0(29) . . .
33.0(33) . . .
26.3(27) . . .
38.3(34) . . .
31.9(30) . . .
33.3(30) . . .
33.7(32) . . .
40.1(35) . . .
44(4) . . .
39.9(34) . . .
34.8(31) . . .
37.9(35) . . .
37.6(35) . . .
28.3(29) . . .
26.9(27) . . .
39.9(33) . . .
37.4(34) . . .
33.4(32) . . .
27.2(28) . . .
29.4(29) . . .
34.5(31) . . .
28.7(29) . . .
38.0(35) . . .
35.1(32) . . .
28.4(28) . . .
36.5(31) . . .
28.7(28) . . .
30.5(29) . . .
30.0(28) . . .
31.6(30) . . .
46(4) . . .
26.6(27) . . .
31.2(32) . . .
30.1(31) . . .
34.8(30) . . .
44.3(35) . . .
43(4) . . .
33.3(32) . . .
33.9(32) . . .
27.1(27) . . .
33.8(31) . . .
34.8(33) . . .
33.4(31) . . .
30.3(29) . . .
32.3(29) . . .
36.7(34) . . .
29.1(30) . . .
31.5(30) . . .
32.6(31) . . .
38.2(32) . . .
35.4(31) . . .
41(4) . . .
30.4(28) . . .
24.7(26) . . .
37.3(32) . . .
34.8(34) . . .
39(4) . . .
33.1(31) . . .
33.4(32) . . .
39.3(33) . . .
38.7(33) . . .
38.7(32) . . .
34.9(31) . . .
28.5(28) . . .
32.5(30) . . .
31.4(30) . . .
34.1(33) . . .
35.0(33) . . .
34.8(31) . . .
34.8(31) . . .
33.7(31) . . .
38.4(34) . . .
34.4(32) . . .
32.4(31) . . .
31.9(29) . . .
34.4(32) . . .
39(4) . . .
34.7(31) . . .
28.7(29) . . .
28.5(28) . . .
29.9(29) . . .
30.3(30) . . .
32.8(32) . . .
32.7(30) . . .
37.7(32) . . .
28.1(27) . . .
30.9(30) . . .
32.6(31) . . .
36.2(31) . . .
38.1(33) . . .
32.7(30) . . .
36.0(34) . . .
32.7(30) . . .
26.5(27) . . .
35.4(31) . . .
33.8(34) . . .
27.0(30) . . .
32.7(31) . . .
38.0(33) . . .
30.4(30) . . .
32.9(32) . . .
31.5(31) . . .
33.4(33) . . .
38.6(32) . . .
29.7(29) . . .
33.5(32) . . .
31.5(31) . . .
36.9(33) . . .
45.0(34) . . .
42.4(35) . . .
36.7(32) . . .
36.5(34) . . .
31.3(31) . . .
30.4(29) . . .
33.4(31) . . .
36.3(32) . . .
46(4) . . .
35.5(31) . . .
34.3(30) . . .
30.5(29) . . .
33.9(32) . . .
34.7(32) . . .
27.0(28) . . .
39.3(32) . . .
30.7(31) . . .
33.7(34) . . .
33.8(31) . . .
34.7(31) . . .
25.9(27) . . .
38.2(34) . . .
39(4) . . .
34.7(31) . . .
36.6(34) . . .
37.2(32) . . .
30.4(29) . . .
32.8(33) . . .
33.1(30) . . .
39.4(33) . . .
33.3(30) . . .
39.3(34) . . .
34.8(33) . . .
34.2(31) . . .
40.3(33) . . .
33.2(31) . . .
41(4) . . .
41(4) . . .
27.7(28) . . .
29.0(28) . . .
31.5(30) . . .
28.5(28) . . .
29.8(30) . . .
40.8(35) . . .
27.1(27) . . .
34.4(31) . . .
33.2(31) . . .
32.7(30) . . .
40.6(34) . . .
31.3(30) . . .
27.0(29) . . .
35.0(32) . . .
45(4) . . .
28.0(28) . . .
37.5(32) . . .
37.5(33) . . .
27.6(27) . . .
32.0(30) . . .
21.6(24) . . .
38.4(32) . . .
35.2(32) . . .
28.7(29) . . .
33.6(31) . . .
27.7(28) . . .
35.8(32) . . .
29.8(28) . . .
34.2(35) . . .
33.5(32) . . .
29.5(28) . . .
36.4(31) . . .
40.6(33) . . .
45(4) . . .
43(4) . . .
32.3(30) . . .
39.4(34) . . .
29.7(29) . . .
37(4) . . .
45(4) . . .
39.4(33) . . .
33.3(31) . . .
39.8(33) . . .
40(4) . . .
27.2(27) . . .
40.3(33) . . .
29.8(28) . . .
24.2(25) . . .
29.2(30) . . .
32.8(32) . . .
31.9(29) . . .
30.7(29) . . .
28.1(27) . . .
35.1(33) . . .
39.3(33) . . .
43.4(34) . . .
37.5(33) . . .
35(4) . . .
32.4(33) . . .
27.9(27) . . .
35.6(31) . . .
37.0(33) . . .
35.7(33) . . .
34.0(31) . . .
30.6(29) . . .
35.3(31) . . .
37.7(32) . . .
40(4) . . .
28.6(29) . . .
34.4(31) . . .
34.8(30) . . .
28.5(28) . . .
38.3(35) . . .
36.2(32) . . .
36.9(32) . . .
35.0(31) . . .
54(4) . . .
38.9(34) . . .
36.7(32) . . .
33.9(30) . . .
37.2(31) . . .
32.0(31) . . .
36.8(35) . . .
41.5(35) . . .
38.1(33) . . .
34.6(30) . . .
41.0(34) . . .
33.4(30) . . .
31.0(31) . . .
30.7(30) . . .
35.3(32) . . .
25.9(27) . . .
33.3(32) . . .
37.1(32) . . .
42.8(34) . . .
34.5(31) . . .
27.0(26) . . .
32.3(30) . . .
31.2(32) . . .
29.2(28) . . .
22.0(25) . . .
36.1(34) . . .
29.3(29) . . .
36.5(33) . . .
32.4(29) . . .
37.8(34) . . .
31.7(31) . . .
32.7(30) . . .
43.3(35) . . .
31.9(30) . . .
41(4) . . .
35.8(33) . . .
35.1(32) . . .
43(4) . . .
37.1(32) . . .
36.6(31) . . .
34.5(30) . . .
30.9(29) . . .
33.8(31) . . .
34.4(30) . . .
28.7(29) . . .
25.4(28) . . .
34.3(33) . . .
33.5(31) . . .
35.8(31) . . .
31.8(29) . . .
39.3(35) . . .
31.6(30) . . .
37.0(32) . . .
37.2(33) . . .
27.8(28) . . .
34.6(31) . . .
39.7(34) . . .
30.9(29) . . .
25.7(27) . . .
31.6(31) . . .
33.1(31) . . .
39.7(35) . . .
32.3(30) . . .
26.8(27) . . .
37.4(32) . . .
38.3(34) . . .
35.4(31) . . .
35.3(30) . . .
34.5(32) . . .
30.2(30) . . .
23.2(26) . . .
31.9(31) . . .
35.5(31) . . .
36.8(33) . . .
35.0(31) . . .
28.2(32) . . .
29.7(31) . . .
30.4(29) . . .
33.1(30) . . .
43(4) . . .
32.9(31) . . .
35.9(33) . . .
38.0(32) . . .
31.8(29) . . .
39.0(34) . . .
32.4(32) . . .
30.3(29) . . .
34.1(30) . . .
31.1(31) . . .
32.4(29) . . .
38.7(33) . . .
32.2(29) . . .
31.2(29) . . .
40.3(34) . . .
32.8(31) . . .
32.5(30) . . .
30.1(29) . . .
37.9(32) . . .
38.0(34) . . .
39.2(34) . . .
40.3(33) . . .
33.1(31) . . .
33.4(30) . . .
34.8(32) . . .
38(4) . . .
34.8(31) . . .
35.3(32) . . .
37.6(33) . . .
29.1(28) . . .
34.1(33) . . .
29.9(29) . . .
29.8(29) . . .
37.9(32) . . .
31.6(30) . . .
30.7(31) . . .
31.4(30) . . .
30.9(29) . . .
31.0(29) . . .
39.6(32) . . .
35.7(33) . . .
31.4(30) . . .
36.3(32) . . .
29.6(30) . . .
32.8(32) . . .
32.9(34) . . .
27.5(28) . . .
29.2(29) . . .
29.1(30) . . .
33.9(31) . . .
39.8(34) . . .
31.9(30) . . .
37.8(32) . . .
37.2(34) . . .
30.8(31) . . .
32.0(32) . . .
31.3(29) . . .
30.3(29) . . .
39.5(34) . . .
32.5(31) . . .
34.2(32) . . .
37.0(32) . . .
32.7(30) . . .
32.3(30) . . .
33.9(31) . . .
36.2(33) . . .
28.4(27) . . .
28.4(28) . . .
33.4(32) . . .
35.9(35) . . .
36.3(34) . . .
41.3(33) . . .
33.9(30) . . .
33.6(30) . . .
39(4) . . .
31.1(31) . . .
37.4(32) . . .
37.5(32) . . .
24.0(25) . . .
23.7(27) . . .
37.3(33) . . .
38.5(32) . . .
43.6(35) . . .
44(4) . . .
31.4(31) . . .
29.0(30) . . .
35.3(31) . . .
31.6(31) . . .
40(4) . . .
35.5(32) . . .
39(4) . . .
31.5(29) . . .
34.8(30) . . .
33.9(30) . . .
41(4) . . .
35.4(33) . . .
32.0(29) . . .
41(4) . . .
46(4) . . .
38.9(33) . . .
39.2(33) . . .
35.0(31) . . .
41.7(34) . . .
40.3(34) . . .
39.6(35) . . .
30.2(28) . . .
31.8(30) . . .
34.7(31) . . .
34.9(33) . . .
37.4(35) . . .
23.3(25) . . .
33.3(29) . . .
30.4(29) . . .
30.2(29) . . .
29.0(29) . . .
29.2(29) . . .
30.4(29) . . .
40.0(34) . . .
35.0(32) . . .
27.9(29) . . .
26.6(28) . . .
35.5(31) . . .
36.5(33) . . .
28.9(29) . . .
27.2(27) . . .
32.0(30) . . .
31.0(29) . . .
38.2(34) . . .
31.4(30) . . .
42.7(34) . . .
31.5(29) . . .
31.5(30) . . .
38.2(34) . . .
37(4) . . .
41(4) . . .
30.4(29) . . .
37.1(32) . . .
23.8(27) . . .
37(4) . . .
33.2(32) . . .
35.5(31) . . .
34.9(32) . . .
35.5(32) . . .
39(4) . . .
32.2(31) . . .
44.2(35) . . .
38.4(32) . . .
42(4) . . .
31.1(30) . . .
33.8(30) . . .
31.1(29) . . .
33.6(32) . . .
38.3(33) . . .
36.3(32) . . .
38.3(34) . . .
32.8(30) . . .
36.0(32) . . .
30.4(30) . . .
26.3(28) . . .
35.5(34) . . .
30.4(28) . . .
24.1(26) . . .
29.9(29) . . .
36.3(32) . . .
29.4(29) . . .
39.9(33) . . .
37.3(32) . . .
39(4) . . .
40(4) . . .
33.8(30) . . .
40.6(33) . . .
33.3(30) . . .
34.9(33) . . .
31.6(31) . . .
30.9(29) . . .
27.5(28) . . .
31.2(30) . . .
36.2(34) . . .
40(4) . . .
27.9(27) . . .
36.2(32) . . .
27.1(29) . . .
31.4(32) . . .
35(4) . . .
27.1(27) . . .
36.8(32) . . .
39.8(34) . . .
37.0(34) . . .
34.8(31) . . .
33.8(30) . . .
40.7(33) . . .
28.8(30) . . .
32.6(35) . . .
37.0(33) . . .
33.3(30) . . .
36.4(32) . . .
36.0(33) . . .
33.1(32) . . .
38.3(33) . . .
34.0(30) . . .
29.7(28) . . .
31.4(30) . . .
33.8(30) . . .
35.9(31) . . .
35.2(30) . . .
33.6(30) . . .
28.2(29) . . .
30.2(32) . . .
38.2(34) . . .
32.3(30) . . .
33.8(30) . . .
31.2(30) . . .
33.8(32) . . .
31.9(31) . . .
26.4(27) . . .
32.4(31) . . .
30.2(32) . . .
30.1(29) . . .
34.6(30) . . .
32.6(29) . . .
28.8(28) . . .
37.8(35) . . .
34.2(32) . . .
27.6(29) . . .
28.9(28) . . .
39.3(34) . . .
31.9(32) . . .
38.8(34) . . .
39.4(34) . . .
36.0(31) . . .
33.7(33) . . .
42(4) . . .
33.3(30) . . .
39.5(33) . . .
32.7(30) . . .
32.2(32) . . .
33.4(33) . . .
35.8(32) . . .
33.9(30) . . .
32.9(31) . . .
37.6(32) . . .
38.5(34) . . .
36.4(32) . . .
35.8(31) . . .
37.2(32) . . .
36.4(35) . . .
44(4) . . .
33.5(32) . . .
39.8(33) . . .
37.4(32) . . .
29.6(28) . . .
32.4(31) . . .
37.3(33) . . .
29.4(29) . . .
35.6(33) . . .
loop_
_refln_index_h
_refln_index_k
_refln_index_l
_refln_observed_status
_refln_F_squared_meas
_refln_F_squared_calc
_refln_phase_calc
_refln_d_spacing
_gsas_i100_meas
0 2 0 o 1249.540 1380.751 180.00 8.39159 5.55
0 0 2 o 0.000 23.854 180.00 6.38091 0.00
1 0 1 o 13215.943 13872.838 0.00 5.88373 57.77
0 2 2 o 30680.262 30807.412 0.00 5.07927 100.00
0 3 1 o 1141.538 1249.681 180.00 5.12371 3.79
1 2 1 o 1787.703 1751.187 0.00 4.81754 10.49
1 1 2 o 4176.536 4136.816 0.00 4.43430 20.76
0 1 3 o 451.425 32.695 0.00 4.12354 0.97
0 4 0 o 3134.679 832.762 0.00 4.19580 3.49
1 0 3 o 772.606 220.564 180.00 3.58041 1.25
1 3 2 o 3577.226 3727.926 0.00 3.55203 11.43
0 0 4 o 389.624 196.459 180.00 3.19045 0.25
0 4 2 o 3.933 9.414 0.00 3.50579 0.01
0 3 3 o 11646.426 11438.754 0.00 3.38618 16.91
1 4 1 o 902.222 916.315 180.00 3.41614 2.67
1 2 3 o 956.254 1153.276 0.00 3.29318 2.63
0 5 1 o 49.720 93.499 180.00 3.24623 0.07
2 0 0 o 2201.164 2339.603 180.00 3.31523 1.53
0 2 4 o 2145.936 2003.964 0.00 2.98219 2.42
2 1 1 o 971.194 1045.375 180.00 3.15164 2.45
2 2 0 o 134.998 191.674 0.00 3.08333 0.16
1 1 4 o 93.417 37.567 0.00 2.83367 0.19
2 0 2 o 457.306 397.667 0.00 2.94186 0.50
0 6 0 o 1215.904 1620.033 0.00 2.79720 0.60
2 3 1 o 789.530 894.909 0.00 2.78339 1.55
2 2 2 o 2334.189 2404.276 180.00 2.77621 4.57
0 1 5 o 1983.431 2026.476 180.00 2.52335 1.61
1 4 3 o 4968.896 5272.876 0.00 2.72357 9.36
1 5 2 o 2941.080 2898.848 180.00 2.71102 5.49
1 3 4 o 73.658 90.558 0.00 2.55705 0.12
2 1 3 o 1422.311 1380.270 0.00 2.58374 2.41
2 4 0 o 1761.605 1750.345 180.00 2.60123 1.51
0 5 3 o 534.077 573.460 180.00 2.63509 0.47
0 4 4 o 10375.954 11921.818 0.00 2.53964 8.51
0 6 2 o 117.224 151.602 0.00 2.56185 0.10
1 6 1 o 775.178 764.435 0.00 2.52624 1.26
1 0 5 o 626.151 360.900 180.00 2.38197 0.45
0 3 5 o 264.216 202.255 0.00 2.32210 0.18
0 7 1 o 287.209 315.101 0.00 2.35637 0.20
1 2 5 o 593.399 447.704 0.00 2.29145 0.79
2 0 4 o 2909.250 2405.110 180.00 2.29884 1.96
2 3 3 o 103.888 128.002 180.00 2.36891 0.15
2 4 2 o 109.844 79.629 180.00 2.40877 0.16
2 5 1 o 0.014 0.009 0.00 2.31944 0.00
0 0 6 o 4084.391 3815.916 0.00 2.12697 1.18
2 2 4 o 38.933 20.952 0.00 2.21715 0.05
0 2 6 o 139.450 151.486 180.00 2.06177 0.08
1 5 4 o 5649.231 5627.029 0.00 2.18352 6.87
0 8 0 o 15.385 10.713 180.00 2.09790 0.00
1 6 3 o 5102.284 4751.009 180.00 2.20426 6.32
2 6 0 o 1573.740 1520.675 180.00 2.13788 0.92
1 1 6 o 881.347 778.618 180.00 2.01073 0.91
3 0 1 o 3156.632 2773.313 180.00 2.17774 1.91
1 4 5 o 9.888 9.852 180.00 2.07145 0.01
1 7 2 o 2672.302 2592.402 0.00 2.12590 3.08
2 1 5 o 369.331 313.230 180.00 2.00789 0.38
0 6 4 o 9559.618 7640.185 180.00 2.10329 5.40
0 7 3 o 6908.411 5969.073 0.00 2.08869 3.85
0 5 5 o 20505.113 21486.650 0.00 2.03171 10.81
3 2 1 o 43.038 42.390 0.00 2.10791 0.05
3 1 2 o 2877.056 2948.607 180.00 2.07244 3.16
2 5 3 o 364.853 365.303 0.00 2.06284 0.40
2 4 4 o 1456.145 1465.236 180.00 2.01607 1.51
2 6 2 o 508.326 504.661 180.00 2.02713 0.53
1 8 1 o 857.768 780.849 180.00 1.97604 0.86
0 8 2 o 3421.356 2555.936 180.00 1.99295 1.74
1 3 6 o 776.772 593.506 0.00 1.90436 0.72
0 4 6 o 2241.581 1665.142 180.00 1.89713 1.03
3 0 3 o 2699.348 2613.365 0.00 1.96124 1.33
2 3 5 o 1335.786 997.660 0.00 1.90195 1.24
0 1 7 o 529.034 563.395 0.00 1.81245 0.22
2 7 1 o 324.331 318.012 180.00 1.92065 0.31
3 3 2 o 1305.667 733.975 0.00 1.95654 1.28
3 2 3 o 5234.702 4371.591 180.00 1.90978 4.89
3 4 1 o 1007.297 506.940 180.00 1.93289 0.96
0 9 1 o 3740.815 3362.728 0.00 1.84520 1.63
1 0 7 o 968.475 1058.095 0.00 1.75788 0.38
2 0 6 o 11.496 23.294 180.00 1.79020 0.00
0 3 7 o 1180.888 1415.562 0.00 1.73340 0.46
1 2 7 o 685.707 676.167 180.00 1.72053 0.52
3 1 4 o 3169.004 3157.695 0.00 1.80625 2.65
2 2 6 o 1551.419 1546.673 180.00 1.75081 1.22
1 6 5 o 345.025 397.655 0.00 1.81352 0.29
1 7 4 o 466.828 430.136 180.00 1.84131 0.41
1 8 3 o 111.265 115.271 0.00 1.81006 0.09
2 8 0 o 43.986 37.940 0.00 1.77277 0.02
1 5 6 o 1164.825 1430.038 0.00 1.73410 0.90
3 4 3 o 382.035 340.122 180.00 1.77672 0.31
2 6 4 o 1500.496 1358.725 0.00 1.77602 1.21
2 5 5 o 2184.963 2675.827 180.00 1.73229 1.68
2 7 3 o 1655.417 1520.899 180.00 1.76720 1.33
1 9 2 o 11.719 13.922 0.00 1.72807 0.01
3 5 2 o 527.954 450.336 0.00 1.77323 0.43
0 0 8 o 58.962 102.932 0.00 1.59523 0.01
0 7 5 o 1521.561 1402.980 180.00 1.74751 0.60
3 3 4 o 183.275 221.691 180.00 1.72797 0.14
0 10 0 o 10819.174 11975.965 180.00 1.67832 1.96
0 6 6 o 5055.299 6595.707 0.00 1.69309 1.86
0 8 4 o 1033.450 892.819 0.00 1.75289 0.41
2 8 2 o 2.276 2.863 0.00 1.70807 0.00
0 9 3 o 102.340 133.245 180.00 1.70790 0.04
3 6 1 o 1849.958 1599.995 180.00 1.71836 1.40
1 4 7 o 319.419 307.068 180.00 1.62133 0.22
3 0 5 o 2440.697 2811.798 180.00 1.67080 0.88
2 4 6 o 2017.023 1866.984 0.00 1.64659 1.41
2 1 7 o 192.609 313.461 0.00 1.59031 0.13
0 2 8 o 637.256 570.842 180.00 1.56716 0.20
0 5 7 o 4.547 5.457 0.00 1.60206 0.00
3 2 5 o 35.220 28.583 0.00 1.63864 0.02
1 1 8 o 774.031 761.525 0.00 1.54439 0.48
0 10 2 o 549.037 484.454 0.00 1.62311 0.19
1 10 1 o 470.544 617.648 180.00 1.61394 0.32
2 9 1 o 37.040 52.189 180.00 1.61229 0.02
4 0 0 o 1889.253 2328.927 0.00 1.65761 0.33
2 3 7 o 2272.473 2095.835 180.00 1.53610 1.39
4 1 1 o 1282.210 940.794 0.00 1.63598 0.88
1 3 8 o 196.269 163.834 0.00 1.49460 0.11
4 2 0 o 477.632 250.284 180.00 1.62619 0.16
0 4 8 o 0.039 0.034 0.00 1.49109 0.00
3 5 4 o 238.000 479.335 180.00 1.59777 0.16
3 6 3 o 429.456 649.247 0.00 1.60585 0.29
4 0 2 o 200.445 142.413 180.00 1.60436 0.07
3 1 6 o 10.393 7.943 180.00 1.52621 0.01
3 7 2 o 1769.582 1936.245 180.00 1.57478 1.13
3 4 5 o 42.749 49.719 180.00 1.55226 0.03
1 7 6 o 295.042 280.543 0.00 1.54718 0.18
1 8 5 o 381.872 425.196 180.00 1.57434 0.24
0 11 1 o 5914.976 5589.870 180.00 1.51496 1.75
4 2 2 o 1446.435 1637.141 0.00 1.57582 0.93
1 9 4 o 140.278 197.090 0.00 1.56450 0.09
4 3 1 o 793.445 760.023 180.00 1.57713 0.51
1 6 7 o 1038.984 892.782 0.00 1.48837 0.60
2 7 5 o 2104.350 2004.515 0.00 1.54589 1.30
1 10 3 o 9.492 7.749 180.00 1.51965 0.01
2 0 8 o 1170.081 1154.061 180.00 1.43747 0.31
2 6 6 o 2733.482 3045.437 180.00 1.50784 1.61
4 1 3 o 555.795 476.118 180.00 1.53800 0.34
2 8 4 o 2090.967 2233.420 180.00 1.54962 1.30
0 1 9 o 1810.343 2312.503 0.00 1.41295 0.47
2 10 0 o 336.897 257.815 0.00 1.49737 0.10
2 9 3 o 237.464 207.613 0.00 1.51827 0.14
4 4 0 o 1249.545 1528.513 0.00 1.54167 0.38
3 3 6 o 4.087 3.367 180.00 1.47810 0.00
3 8 1 o 82.583 89.125 0.00 1.51087 0.05
2 2 8 o 497.252 626.760 0.00 1.41683 0.26
0 8 6 o 1264.365 1156.783 180.00 1.49361 0.36
1 0 9 o 220.387 454.353 180.00 1.38662 0.06
2 5 7 o 2319.023 2042.607 0.00 1.44247 1.25
0 7 7 o 4087.606 4505.533 0.00 1.45122 1.12
1 11 2 o 278.648 273.664 180.00 1.44809 0.15
1 5 8 o 111.430 144.831 180.00 1.40794 0.06
2 10 2 o 212.070 252.047 180.00 1.45777 0.12
0 10 4 o 132.195 119.071 180.00 1.48534 0.04
0 3 9 o 17.653 34.008 0.00 1.37451 0.00
4 4 2 o 1770.477 1271.036 180.00 1.49855 1.03
0 9 5 o 555.909 706.252 0.00 1.50573 0.16
4 3 3 o 2400.530 2022.505 0.00 1.48880 1.38
4 0 4 o 693.775 969.434 0.00 1.47093 0.19
1 2 9 o 43.306 49.251 180.00 1.36807 0.02
3 0 7 o 1116.941 1426.095 180.00 1.40638 0.29
4 5 1 o 2388.702 2340.050 0.00 1.47629 1.35
0 11 3 o 319.673 346.044 0.00 1.43616 0.09
4 2 4 o 681.235 677.188 180.00 1.44884 0.37
3 2 7 o 11.032 20.017 0.00 1.38704 0.01
0 12 0 o 2011.758 2867.981 0.00 1.39860 0.26
0 6 8 o 0.065 0.141 0.00 1.38572 0.00
3 6 5 o 18.731 22.160 180.00 1.43440 0.01
2 4 8 o 2188.587 1956.234 180.00 1.35988 1.05
3 7 4 o 58.284 56.921 0.00 1.44803 0.03
4 6 0 o 3903.927 3650.942 180.00 1.42603 1.03
3 8 3 o 527.561 608.217 180.00 1.43268 0.28
3 5 6 o 200.090 346.442 180.00 1.39412 0.10
1 4 9 o 59.734 58.664 0.00 1.31659 0.03
2 11 1 o 66.065 450.611 0.00 1.37790 0.03
4 1 5 o 581.144 1147.572 0.00 1.38543 0.29
1 12 1 o 13.716 12.045 180.00 1.36068 0.01
0 0 10 o 5003.569 5389.208 180.00 1.27618 0.53
0 12 2 o 4014.738 4375.414 180.00 1.36617 0.97
3 9 2 o 12.653 21.800 180.00 1.39098 0.01
2 1 9 o 1300.362 1328.393 180.00 1.29982 0.57
4 5 3 o 442.036 402.919 180.00 1.40309 0.23
0 5 9 o 15.854 15.911 0.00 1.30621 0.00
4 4 4 o 544.365 750.280 0.00 1.38810 0.27
4 6 2 o 671.943 1096.807 0.00 1.39170 0.34
3 4 7 o 89.116 79.081 0.00 1.33347 0.04
1 8 7 o 74.542 88.705 0.00 1.34739 0.04
1 9 6 o 244.718 231.331 180.00 1.37185 0.12
2 8 6 o 3114.741 2638.670 0.00 1.36178 1.50
0 2 10 o 295.795 371.572 0.00 1.26167 0.06
4 3 5 o 128.409 113.945 180.00 1.34914 0.06
2 7 7 o 2928.979 3166.182 180.00 1.32943 1.35
2 3 9 o 540.433 627.682 0.00 1.26971 0.23
1 10 5 o 168.492 141.464 0.00 1.37197 0.08
2 9 5 o 3229.582 3210.458 180.00 1.37095 1.58
1 7 8 o 827.722 800.193 0.00 1.30225 0.37
3 1 8 o 1166.983 1444.287 180.00 1.28967 0.51
4 7 1 o 2717.073 2297.474 180.00 1.35576 1.30
2 10 4 o 1080.229 922.989 0.00 1.35551 0.52
1 11 4 o 18.651 20.400 180.00 1.34771 0.01
1 1 10 o 31.339 70.766 0.00 1.24970 0.01
3 10 1 o 165.224 179.559 0.00 1.32935 0.08
4 0 6 o 1275.692 1216.201 180.00 1.30746 0.28
2 11 3 o 1245.760 953.589 180.00 1.31782 0.56
2 12 0 o 452.804 550.832 180.00 1.28862 0.10
2 6 8 o 1977.113 1935.845 0.00 1.27853 0.85
0 13 1 o 2614.693 2697.694 0.00 1.28446 0.56
1 12 3 o 139.751 131.664 180.00 1.30273 0.06
4 2 6 o 267.727 374.700 0.00 1.29187 0.12
3 3 8 o 18.450 23.012 180.00 1.26025 0.01
1 3 10 o 0.573 3.717 180.00 1.22287 0.00
0 4 10 o 0.062 0.178 180.00 1.22095 0.00
0 9 7 o 4.462 4.157 180.00 1.30362 0.00
1 6 9 o 20.189 145.434 180.00 1.24235 0.01
0 8 8 o 760.577 870.358 0.00 1.26982 0.16
4 8 0 o 1626.385 1591.160 0.00 1.30062 0.36
0 10 6 o 63.043 40.565 180.00 1.31754 0.01
3 7 6 o 33.518 55.960 0.00 1.29130 0.01
0 11 5 o 345.188 421.906 0.00 1.30960 0.08
5 0 1 o 2350.150 2234.140 0.00 1.31899 0.53
3 8 5 o 30.334 31.899 180.00 1.30696 0.01
4 6 4 o 202.159 174.353 180.00 1.30190 0.09
3 9 4 o 99.542 90.316 180.00 1.30131 0.04
0 12 4 o 237.151 228.811 180.00 1.28093 0.05
2 12 2 o 1101.423 1215.656 0.00 1.26312 0.46
4 7 3 o 530.192 630.986 0.00 1.29841 0.23
4 5 5 o 387.766 385.554 0.00 1.28438 0.17
5 2 1 o 495.242 503.533 0.00 1.30299 0.22
3 6 7 o 381.819 677.376 180.00 1.25651 0.16
2 5 9 o 1244.521 1577.866 180.00 1.21528 0.48
5 1 2 o 566.900 515.195 0.00 1.29448 0.25
1 13 2 o 3.266 33.963 180.00 1.24294 0.00
3 10 3 o 213.072 246.689 180.00 1.27516 0.09
0 7 9 o 224.718 539.985 0.00 1.22050 0.04
4 8 2 o 1431.869 1670.905 180.00 1.27441 0.61
4 4 6 o 12.936 32.672 180.00 1.24826 0.01
0 13 3 o 95.507 786.696 180.00 1.23538 0.02
4 1 7 o 85.545 449.377 180.00 1.22319 0.03
5 0 3 o 4.709 5.310 0.00 1.26600 0.00
5 3 2 o 477.971 535.309 0.00 1.26474 0.20
3 11 2 o 230.900 598.645 0.00 1.23199 0.09
5 4 1 o 10.129 14.957 180.00 1.25828 0.00
4 9 1 o 723.664 1305.411 0.00 1.23311 0.29
5 2 3 o 218.922 434.939 0.00 1.25184 0.09
5 1 4 o 1.899 7.275 0.00 1.22128 0.00
2 9 7 o 74.173 73.416 0.00 1.21320 0.03
1 10 7 o 115.911 118.524 180.00 1.21390 0.04
2 10 6 o 100.209 194.693 180.00 1.22439 0.04
2 11 5 o 51.175 54.882 180.00 1.21801 0.02
5 4 3 o 1236.672 1219.669 0.00 1.21203 0.48
1 11 6 o 80.586 86.261 0.00 1.21864 0.03
5 5 2 o 320.350 367.604 180.00 1.21092 0.12
