#------------------------------------------------------------------------------
#$Date: 2019-10-29 22:51:18 +0200 (Tue, 29 Oct 2019) $
#$Revision: 220367 $
#$URL: file:///home/coder/svn-repositories/cod/cif/4/00/29/4002943.cif $
#------------------------------------------------------------------------------
#
# This file is available in the Crystallography Open Database (COD),
# http://www.crystallography.net/
#
# All data on this site have been placed in the public domain by the
# contributors.
#
data_4002943
loop_
_publ_author_name
'McGuire, Michael A.'
'Pandey, Tribhuwan'
'Mu, Sai'
'Parker, David S.'
_publ_section_title
;
 Ferromagnetic Spin-1/2 Dimers with Strong Anisotropy in MoCl5
;
_journal_issue                   8
_journal_name_full               'Chemistry of Materials'
_journal_page_first              2952
_journal_paper_doi               10.1021/acs.chemmater.9b00416
_journal_volume                  31
_journal_year                    2019
_chemical_formula_moiety         'Cl10 Mo2'
_chemical_formula_sum            'Cl5 Mo'
_chemical_formula_weight         273.19
_chemical_name_common            'molybdenum pentachloride'
_space_group_crystal_system      monoclinic
_space_group_IT_number           14
_space_group_name_Hall           '-P 2ybc'
_space_group_name_H-M_alt        'P 1 21/c 1'
_symmetry_space_group_name_Hall  '-P 2ybc'
_symmetry_space_group_name_H-M   'P 1 21/c 1'
_audit_creation_method           SHELXL-2018/1
_cell_angle_alpha                90
_cell_angle_beta                 115.502(2)
_cell_angle_gamma                90
_cell_formula_units_Z            4
_cell_length_a                   6.0628(7)
_cell_length_b                   16.667(2)
_cell_length_c                   6.4569(8)
_cell_measurement_reflns_used    5039
_cell_measurement_temperature    175(5)
_cell_measurement_theta_max      28.35
_cell_measurement_theta_min      3.7028
_cell_volume                     588.89(12)
_computing_structure_refinement  'SHELXL-2018/1 (Sheldrick, 2018)'
_diffrn_ambient_temperature      175(5)
_diffrn_measured_fraction_theta_full 1.000
_diffrn_measured_fraction_theta_max 1.000
_diffrn_measurement_device_type  'Bruker Apex'
_diffrn_radiation_type           MoK\a
_diffrn_radiation_wavelength     0.71073
_diffrn_reflns_av_R_equivalents  0.0201
_diffrn_reflns_av_unetI/netI     0.0135
_diffrn_reflns_Laue_measured_fraction_full 1.000
_diffrn_reflns_Laue_measured_fraction_max 1.000
_diffrn_reflns_limit_h_max       8
_diffrn_reflns_limit_h_min       -8
_diffrn_reflns_limit_k_max       22
_diffrn_reflns_limit_k_min       -22
_diffrn_reflns_limit_l_max       8
_diffrn_reflns_limit_l_min       -8
_diffrn_reflns_number            7927
_diffrn_reflns_point_group_measured_fraction_full 1.000
_diffrn_reflns_point_group_measured_fraction_max 1.000
_diffrn_reflns_theta_full        25.242
_diffrn_reflns_theta_max         28.346
_diffrn_reflns_theta_min         2.444
_exptl_absorpt_coefficient_mu    4.340
_exptl_absorpt_correction_T_max  .7457
_exptl_absorpt_correction_T_min  .5936
_exptl_absorpt_correction_type   empirical
_exptl_absorpt_process_details   sadabs
_exptl_crystal_colour            black
_exptl_crystal_density_diffrn    3.081
_exptl_crystal_description       prism
_exptl_crystal_F_000             508
_exptl_crystal_size_max          0.200
_exptl_crystal_size_mid          0.120
_exptl_crystal_size_min          0.050
_refine_diff_density_max         2.452
_refine_diff_density_min         -2.513
_refine_diff_density_rms         0.215
_refine_ls_extinction_method     none
_refine_ls_goodness_of_fit_ref   1.129
_refine_ls_hydrogen_treatment    undef
_refine_ls_matrix_type           full
_refine_ls_number_parameters     55
_refine_ls_number_reflns         1464
_refine_ls_number_restraints     0
_refine_ls_restrained_S_all      1.129
_refine_ls_R_factor_all          0.0507
_refine_ls_R_factor_gt           0.0498
_refine_ls_shift/su_max          0.000
_refine_ls_shift/su_mean         0.000
_refine_ls_structure_factor_coef Fsqd
_refine_ls_weighting_details
'w=1/[\s^2^(Fo^2^)+(0.0405P)^2^+7.3762P] where P=(Fo^2^+2Fc^2^)/3'
_refine_ls_weighting_scheme      calc
_refine_ls_wR_factor_gt          0.1215
_refine_ls_wR_factor_ref         0.1220
_reflns_Friedel_coverage         0.000
_reflns_number_gt                1422
_reflns_number_total             1464
_reflns_threshold_expression     'I > 2\s(I)'
_cod_data_source_file            cm9b00416_si_001.cif
_cod_data_source_block           epsilon-MoCl5
_cod_original_cell_volume        588.88(12)
_cod_database_code               4002943
_shelx_shelxl_version_number     2018/1
_shelx_space_group_comment
;
The symmetry employed for this shelxl refinement is uniquely defined
by the following loop, which should always be used as a source of
symmetry information in preference to the above space-group names.
They are only intended as comments.
;
_shelx_estimated_absorpt_t_min   0.477
_shelx_estimated_absorpt_t_max   0.812
_shelx_res_file
;
TITL  SIR92 run in space group P 21/c
    shelx.res
    created by SHELXL-2018/1 at 09:24:35 on 21-Sep-2018
CELL   0.71073    6.0628  16.6666   6.4569  90.000 115.502  90.000
ZERR 4    0.0007   0.0020   0.0008   0.000   0.002   0.000
LATT  1
SYMM -X, 0.50000+Y, 0.50000-Z
SFAC    CL  MO
UNIT    20   4
MERG    2
L.S.  20
ACTA
Size .05 .12 .2
TEMP   -100.0
FMAP   2
PLAN    20
WGHT    0.040500    7.376200
FVAR       0.46655
MO1   2    0.469611    0.115489    0.416881    11.00000    0.04466    0.03439 =
         0.04292    0.01153    0.03405    0.01364
CL1   1    0.268713    0.119221    0.640963    11.00000    0.02984    0.03211 =
         0.02989   -0.00145    0.01971    0.00285
CL2   1    0.761706    0.024062    0.720969    11.00000    0.01889    0.03059 =
         0.02053   -0.00237    0.00754   -0.00125
CL3   1    0.670413    0.075954    0.210671    11.00000    0.02785    0.03470 =
         0.02619    0.00098    0.01773    0.00140
CL4   1    0.167904    0.171619    0.121033    11.00000    0.03587    0.03516 =
         0.03744    0.00386    0.01537    0.00319
CL5   1    0.679961    0.216732    0.553414    11.00000    0.05523    0.05123 =
         0.05474   -0.00552    0.02587   -0.00364

HKLF      4




REM   SIR92 run in space group P 21/c
REM R1 =  0.0498 for    1422 Fo > 4sig(Fo)  and  0.0507 for all    1464 data
REM     55 parameters refined using      0 restraints

END

WGHT      0.0381      7.5097

REM Highest difference peak  2.452,  deepest hole -2.513,  1-sigma level  0.215
Q1    1   0.3767  0.1231  0.3210  11.00000  0.05    2.45
Q2    1   0.5090  0.1424  0.4778  11.00000  0.05    1.55
Q3    1   0.6774  0.1601  0.5847  11.00000  0.05    0.51
Q4    1   0.5044  0.2010  0.5298  11.00000  0.05    0.50
Q5    1   0.2490  0.1195  0.1467  11.00000  0.05    0.48
Q6    1   0.7376 -0.0313  0.8450  11.00000  0.05    0.46
Q7    1   0.6764  0.1221  0.2082  11.00000  0.05    0.45
Q8    1   0.2839  0.1681  0.6224  11.00000  0.05    0.43
Q9    1   1.0000  0.0000  0.5000  10.50000  0.05    0.43
Q10   1   0.4956  0.2164  0.3983  11.00000  0.05    0.40
Q11   1   0.7633  0.1198  0.4881  11.00000  0.05    0.39
Q12   1   0.7345  0.0655  0.6978  11.00000  0.05    0.39
Q13   1   0.5428  0.1767  0.0775  11.00000  0.05    0.39
Q14   1   0.6539  0.0773  0.3579  11.00000  0.05    0.38
Q15   1   0.2702  0.0744  0.2981  11.00000  0.05    0.37
Q16   1   0.7140  0.0189  0.5985  11.00000  0.05    0.37
Q17   1   0.7430 -0.0089  0.7239  11.00000  0.05    0.37
Q18   1   0.2040  0.1286  0.5324  11.00000  0.05    0.36
Q19   1   0.7597  0.1878  0.7226  11.00000  0.05    0.35
Q20   1   0.8580  0.0088  0.5575  11.00000  0.05    0.34
;
_shelx_res_checksum              35812
_shelx_hkl_file
;
  -1   0   0 5928.67  129.87   2
   1   0   0 5998.30  122.54   4
  -1   0   0 5900.00  124.97   3
  -2   0   0 800.380  17.054   3
   2   0   0 769.203  16.823   4
   2   0   0 729.346  17.981   1
  -2   0   0 801.200  17.341   2
  -3   0   0 345.466   8.494   2
   3   0   0 351.324   9.001   1
  -3   0   0 349.408   8.748   3
   3   0   0 350.232   8.875   4
   4   0   0 1100.75   24.87   4
   4   0   0 1132.11   25.75   1
  -4   0   0 1092.30   25.00   2
  -4   0   0 1107.62   25.02   3
   5   0   0 351.587  10.235   4
  -5   0   0 348.977   9.897   3
  -6   0   0 81.7884  4.2283   3
   6   0   0 79.9654  4.5134   4
   7   0   0 3.37636 1.59847   4
  -7   0   0 2.25177 1.12925   3
   1  -1   0 171.980   4.227   4
  -1  -1   0 179.954   4.214   3
   1   1   0 167.475   4.150   4
  -1   1   0 178.551   4.393   2
   2  -1   0 390.459   9.011   4
   2  -1   0 395.658   9.267   1
   2  -1   0 387.605   9.165   3
  -2  -1   0 391.691   8.995   3
  -2  -1   0 382.921   8.775   2
  -2   1   0 392.506   9.155   2
   2   1   0 349.609   9.650   1
   2   1   0 382.701   8.932   4
  -3  -1   0 73.8541  2.4184   2
   3  -1   0 68.8483  3.0186   4
  -3  -1   0 72.6724  2.8640   3
   3  -1   0 76.3541  2.6625   1
  -3   1   0 77.0549  2.7791   2
   3   1   0 78.4996  3.1018   4
  -3   1   0 72.7400  2.8569   3
   3   1   0 73.3211  3.0261   1
  -4  -1   0 923.254  20.844   2
   4  -1   0 939.766  21.229   4
  -4  -1   0 893.861  21.136   3
   4  -1   0 949.655  21.389   1
   4   1   0 930.101  21.172   4
   4   1   0 944.986  22.021   1
  -4   1   0 890.240  21.093   3
  -4   1   0 903.003  21.207   2
   5  -1   0 200.169   6.980   4
  -5  -1   0 202.878   6.716   3
   5   1   0 208.051   7.061   4
  -5   1   0 199.434   6.089   2
  -5   1   0 194.172   6.570   3
   6  -1   0 53.5669  3.7621   4
  -6  -1   0 62.1429  3.6414   3
  -6   1   0 59.3163  3.5123   3
   6   1   0 55.3233  3.8471   4
  -7  -1   0 3.50508 1.16703   3
   7  -1   0 4.16622 1.84993   4
   7   1   0 3.77717 1.69614   4
  -7   1   0 3.47405 1.19361   3
   0  -2   0 383.154   8.081   4
   0  -2   0 389.216   8.329   3
   0   2   0 339.787   8.576   2
  -1  -2   0 130.225   3.401   3
   1  -2   0 131.340   3.455   4
   1  -2   0 131.860   3.458   3
   1   2   0 125.699   3.313   4
   1   2   0 117.989   4.006   1
  -1   2   0 129.884   3.709   2
  -2  -2   0 80.4717  2.6466   3
   2  -2   0 79.4136  2.7440   3
   2  -2   0 77.9091  2.7221   4
  -2  -2   0 78.5122  2.1185   2
   2   2   0 73.2594  2.6227   4
  -2   2   0 82.3267  2.7712   2
   2   2   0 70.1461  3.0544   1
  -3  -2   0 0.26833 0.40046   2
   3  -2   0 1.82837 0.81599   4
  -3  -2   0 0.90581 0.66971   3
   3  -2   0 0.37186 0.57220   1
  -3   2   0 0.94791 0.66414   2
   3   2   0 1.68097 0.75096   4
   3   2   0 1.68873 0.77956   1
  -4  -2   0 251.153   6.373   2
   4  -2   0 241.674   7.364   4
  -4  -2   0 248.166   7.284   3
   4   2   0 242.928   7.530   1
   4   2   0 258.018   7.529   4
  -4   2   0 257.996   7.245   3
  -4   2   0 250.462   7.073   2
  -5  -2   0 2.77496 1.23519   3
   5  -2   0 1.17805 1.31119   4
  -5   2   0 1.40382 1.12596   3
   5   2   0 1.72836 1.08944   1
  -5   2   0 2.98071 1.10984   2
   5   2   0 1.92403 1.31072   4
   6  -2   0 107.126   5.211   4
  -6  -2   0 104.381   4.904   3
   6   2   0 101.709   5.160   4
  -6   2   0 101.636   4.787   3
   7  -2   0 14.6122  2.6294   4
  -7  -2   0 22.3175  2.6801   3
  -7   2   0 17.9166  2.3981   3
   7   2   0 19.8258  2.9258   4
   0  -3   0 -0.1887  0.4539   4
   0  -3   0 1.23670 0.57887   3
   0   3   0 0.03597 0.55523   2
   0   3   0 0.44202 0.58757   1
   1  -3   0 77.9927  2.4199   3
   1  -3   0 76.8927  2.4327   4
  -1  -3   0 80.4425  2.4107   3
   1   3   0 77.2591  2.3604   4
  -1   3   0 81.6844  2.8094   2
  -2  -3   0 237.452   5.452   2
  -2  -3   0 236.065   6.089   3
   2  -3   0 240.489   6.217   3
   2  -3   0 243.186   6.170   4
   2   3   0 234.928   6.054   4
  -2   3   0 253.044   6.497   2
   2   3   0 226.341   6.938   1
  -3  -3   0 173.448   4.236   2
  -3  -3   0 172.898   5.139   3
   3  -3   0 170.207   5.275   3
   3  -3   0 167.024   5.206   4
   3  -3   0 178.589   4.256   1
   3   3   0 164.649   5.109   4
   3   3   0 151.611   5.529   1
  -3   3   0 176.744   5.230   2
  -4  -3   0 205.501   6.329   3
   4  -3   0 198.579   6.460   4
  -4   3   0 200.110   6.244   2
   4   3   0 206.371   6.479   4
   4   3   0 200.836   6.737   1
  -4   3   0 201.459   6.153   3
  -5  -3   0 384.151  10.828   3
   5  -3   0 389.676  11.078   4
   5   3   0 389.548  11.143   1
  -5   3   0 386.290  10.703   3
  -5   3   0 388.559  10.593   2
   5   3   0 384.850  11.035   4
  -6  -3   0 219.936   7.759   3
   6  -3   0 218.871   7.989   4
  -6   3   0 217.214   7.547   3
   6   3   0 219.852   8.069   4
   7  -3   0 10.9171  2.4345   4
  -7  -3   0 11.7692  2.1798   3
  -7   3   0 12.5101  2.0059   3
   7   3   0 15.5156  2.7046   4
   0  -4   0 5178.50   99.93   4
   0   4   0 4625.69  106.02   2
   0   4   0 4758.81  109.09   1
   1  -4   0 3037.05   62.95   4
   1  -4   0 3148.60   64.43   3
  -1  -4   0 3116.85   64.37   3
   1   4   0 3105.84   68.65   1
   1   4   0 3093.38   67.46   2
   1   4   0 3115.62   62.88   4
  -1   4   0 3190.08   68.72   1
  -1   4   0 2888.90   66.90   2
   2  -4   0 1705.17   35.84   3
  -2  -4   0 1693.54   35.72   3
  -2   4   0 1642.49   37.23   2
   2   4   0 1629.40   38.42   1
   2   4   0 1692.35   34.98   4
  -3  -4   0 878.444  19.524   2
   3  -4   0 890.959  20.359   3
  -3  -4   0 902.987  20.252   3
   3  -4   0 927.853  20.116   4
  -3   4   0 916.090  20.997   2
   3   4   0 880.203  19.885   4
   3   4   0 851.525  21.792   1
  -4  -4   0 288.962   8.077   3
   4  -4   0 269.674   8.086   4
   4   4   0 255.747   8.504   1
   4   4   0 272.576   8.030   4
  -4   4   0 298.872   8.302   2
   5  -4   0 259.978   8.224   4
  -5  -4   0 244.150   7.933   3
   5   4   0 249.966   8.330   1
   5   4   0 246.993   8.106   4
  -5   4   0 244.018   7.710   3
  -5   4   0 264.770   7.938   2
   6  -4   0 70.6248  4.1979   4
  -6  -4   0 66.8644  3.9659   3
  -6   4   0 74.7874  3.9807   3
   6   4   0 80.2462  4.5221   4
   7  -4   0 13.1214  2.3340   4
  -7  -4   0 12.8143  2.1584   3
  -7   4   0 12.5314  2.0061   3
   7   4   0 12.0655  2.5546   4
   0  -5   0 -1.5048  0.5273   3
   0  -5   0 -0.1664  0.5445   4
   0   5   0 0.05368 0.63502   2
   0   5   0 -1.3831  0.5624   1
  -1  -5   0 4448.83   94.08   3
   1  -5   0 4642.57   91.57   4
   1  -5   0 4577.62   94.17   3
   1   5   0 4485.87   97.89   2
  -1   5   0 4674.52   99.67   1
  -1   5   0 4178.54   99.16   2
   1   5   0 4449.27   91.37   4
   1   5   0 4589.76   99.56   1
  -2  -5   0 140.166   4.211   3
   2  -5   0 139.760   4.295   4
   2  -5   0 135.697   4.192   3
  -2   5   0 135.821   4.637   2
   2   5   0 135.278   4.999   1
   2   5   0 139.900   4.115   4
  -3  -5   0 151.580   4.763   3
   3  -5   0 152.304   4.922   4
   3  -5   0 150.249   4.888   3
  -3   5   0 140.208   5.023   2
   3   5   0 141.537   5.443   1
   3   5   0 144.740   4.725   4
   4  -5   0 1.67024 1.11648   3
  -4  -5   0 2.92093 1.10830   3
   4  -5   0 3.72538 1.32942   4
  -4   5   0 4.03894 1.33797   2
   4   5   0 2.91326 1.29562   1
   4   5   0 2.28134 1.11919   4
  -5  -5   0 11.0318  1.7912   3
   5  -5   0 12.2803  2.0535   4
  -5   5   0 11.2862  1.8247   2
   5   5   0 13.7710  2.1152   1
   5   5   0 14.1726  2.0943   4
  -5   5   0 13.8676  1.7736   3
   6  -5   0 21.8283  2.6537   4
  -6  -5   0 22.9657  2.4779   3
  -6   5   0 23.6119  2.4242   3
  -6   5   0 23.5950  2.4127   2
   6   5   0 23.0314  2.7465   4
  -7  -5   0 11.8185  2.2896   3
   7  -5   0 15.1436  2.5775   4
  -7   5   0 14.5821  2.1735   3
   7   5   0 16.6828  2.7750   4
   0  -6   0 214.970   5.517   4
   0  -6   0 227.867   5.854   3
   0   6   0 225.616   5.982   2
   0   6   0 221.615   6.223   1
  -1  -6   0 1523.32   32.59   3
   1  -6   0 1547.53   32.62   3
   1  -6   0 1516.13   31.93   4
  -1   6   0 1421.90   34.00   2
   1   6   0 1553.41   35.12   1
   1   6   0 1562.88   33.36   2
  -1   6   0 1540.21   33.97   1
   2  -6   0 286.612   7.517   4
  -2  -6   0 295.600   7.529   3
   2  -6   0 292.332   7.527   3
   2   6   0 297.155   7.360   4
  -2   6   0 271.484   8.088   2
  -3  -6   0 488.969  12.030   3
   3  -6   0 494.829  12.163   3
   3  -6   0 459.873  11.906   4
   3   6   0 498.303  13.471   1
   3   6   0 490.293  11.867   4
  -3   6   0 487.408  12.781   2
   4  -6   0 1.78330 1.14297   3
   4  -6   0 0.24222 1.03838   4
  -4  -6   0 1.15307 1.04772   3
   4   6   0 2.98541 1.20833   4
   4   6   0 1.25688 1.26973   1
  -4   6   0 0.81975 1.18655   2
  -5  -6   0 188.868   6.698   3
   5  -6   0 191.389   6.914   4
   5   6   0 190.476   6.833   4
  -5   6   0 197.538   6.847   2
   5   6   0 180.978   7.178   1
  -5   6   0 185.189   6.404   3
   6  -6   0 16.1709  2.3779   4
  -6  -6   0 16.9739  2.3532   3
   6   6   0 17.1593  2.4453   4
  -6   6   0 17.9196  2.1854   3
  -6   6   0 19.3252  2.3585   2
   7  -6   0 1.85146 1.19862   4
  -7  -6   0 -0.7598  1.1750   3
  -7   6   0 2.45199 1.01154   3
   7   6   0 -0.1092  1.4372   4
   0  -7   0 3.67807 0.86889   3
   0  -7   0 -0.1823  0.6317   4
   0   7   0 -0.5320  0.6046   1
   0   7   0 -0.0887  0.6109   2
  -1  -7   0 566.785  12.254   4
   1  -7   0 553.349  12.805   3
   1  -7   0 539.866  12.546   4
  -1  -7   0 550.293  12.786   3
  -1   7   0 522.778  12.952   1
  -1   7   0 549.116  13.558   2
   1   7   0 563.311  14.147   1
   1   7   0 554.107  12.711   2
  -2  -7   0 623.980  14.637   3
   2  -7   0 623.143  14.583   3
   2  -7   0 643.268  14.578   4
   2   7   0 626.663  14.252   4
  -2   7   0 597.077  15.505   2
   2   7   0 634.965  16.281   1
  -2   7   0 631.658  14.105   1
   3  -7   0 12.2984  1.4931   3
   3  -7   0 9.78498 1.46326   4
  -3  -7   0 12.3712  1.4906   3
  -3   7   0 11.1304  1.6969   2
   3   7   0 9.32585 1.66453   1
   3   7   0 11.3019  1.4362   4
   4  -7   0 103.809   4.426   3
  -4  -7   0 103.885   4.362   3
   4  -7   0 101.678   4.489   4
  -4   7   0 104.061   4.715   2
   4   7   0 100.529   4.930   1
   4   7   0 98.2972  4.2670   4
   5  -7   0 1175.10   27.16   4
  -5  -7   0 1188.74   27.39   3
   5   7   0 1145.23   26.93   4
   5   7   0 1123.12   29.12   1
  -5   7   0 1166.24   28.19   2
  -6  -7   0 86.6844  4.6800   3
   6  -7   0 102.898   5.097   4
   6   7   0 100.869   5.407   1
  -6   7   0 91.4510  4.4611   3
   6   7   0 89.5522  4.8184   4
  -6   7   0 98.8419  4.8773   2
   0  -8   0 1521.27   32.46   4
   0  -8   0 1574.47   33.52   3
   0   8   0 1537.06   34.52   2
   0   8   0 1555.50   35.36   1
   1  -8   0 1498.93   32.83   4
  -1  -8   0 1521.41   32.46   4
   1  -8   0 1542.85   33.62   3
  -1  -8   0 1533.95   33.61   3
   1   8   0 1634.87   36.21   1
   1   8   0 1613.17   34.28   2
  -1   8   0 1518.12   34.95   1
  -1   8   0 1567.34   35.10   2
   2  -8   0 641.555  15.247   3
  -2  -8   0 656.766  15.309   3
   2  -8   0 652.720  15.172   4
   2   8   0 642.266  14.824   4
   2   8   0 633.161  14.502   2
   2   8   0 669.555  16.993   1
  -2   8   0 649.273  16.283   2
  -2   8   0 655.661  14.750   1
   3  -8   0 535.349  12.895   4
   3  -8   0 521.347  12.892   3
  -3  -8   0 500.191  12.841   3
   3   8   0 523.923  14.359   1
   3   8   0 514.806  12.575   4
  -3   8   0 480.091  13.595   2
  -4  -8   0 1070.29   24.66   3
   4  -8   0 1054.72   24.59   3
   4  -8   0 1049.17   24.37   4
   4   8   0 1065.39   24.16   4
  -4   8   0 1051.52   25.81   2
   4   8   0 1013.91   26.50   1
   5  -8   0 99.4317  4.9613   4
   5  -8   0 103.921   4.879   3
  -5  -8   0 103.831   4.872   3
  -5   8   0 109.800   5.138   2
   5   8   0 106.004   4.915   4
   5   8   0 105.384   5.432   1
  -6  -8   0 70.4479  4.1541   3
   6  -8   0 70.3744  4.2535   4
  -6   8   0 73.6246  4.2951   2
   6   8   0 68.8196  4.1652   4
  -6   8   0 70.3547  3.8038   3
   6   8   0 69.0072  4.5423   1
   0  -9   0 0.75220 0.66474   4
   0  -9   0 2.09886 0.90001   3
   0   9   0 -0.8005  0.5983   1
   0   9   0 1.16684 0.75518   2
  -1  -9   0 22.1715  1.5325   4
   1  -9   0 23.6692  1.7354   3
  -1  -9   0 19.6771  1.7118   3
   1  -9   0 26.5325  1.8608   4
  -1   9   0 22.3617  1.5395   1
  -1   9   0 23.9965  2.0414   2
   1   9   0 26.8492  1.6126   2
   1   9   0 22.4641  2.1198   1
   2  -9   0 404.544  10.256   3
   2  -9   0 385.779  10.136   4
  -2  -9   0 395.076  10.220   3
   2   9   0 394.804   9.848   4
  -2   9   0 401.372   9.447   1
   2   9   0 380.169   9.225   2
  -2   9   0 394.923  10.968   2
   2   9   0 417.422  11.611   1
   3  -9   0 34.4238  2.4264   3
  -3  -9   0 39.6252  2.6093   3
   3  -9   0 35.7889  2.5231   4
  -3   9   0 37.9843  2.9457   2
   3   9   0 36.9774  2.4597   4
   3   9   0 32.3023  2.8219   1
   4  -9   0 248.837   8.026   3
  -4  -9   0 263.398   8.174   3
   4  -9   0 242.236   8.066   4
  -4   9   0 247.580   8.626   2
   4   9   0 272.659   9.212   1
   4   9   0 268.275   7.972   4
   5  -9   0 94.8026  4.6336   3
  -5  -9   0 89.8897  4.5734   3
   5  -9   0 88.0243  4.6831   4
   5   9   0 91.2497  5.0844   1
   5   9   0 88.1477  4.4543   4
  -5   9   0 84.8314  4.6870   2
   6  -9   0 35.1909  2.9332   4
  -6  -9   0 33.0553  2.9004   3
   6   9   0 34.1363  2.9668   4
  -6   9   0 34.2571  3.0236   2
  -6   9   0 34.0691  2.6302   3
   6   9   0 27.2219  3.1984   1
   0 -10   0 1009.56   23.00   3
   0 -10   0 1031.09   22.22   4
   0  10   0 1004.14   24.21   1
   0  10   0 1019.87   23.59   2
  -1 -10   0 584.216  14.348   3
  -1 -10   0 580.541  13.570   4
   1 -10   0 582.841  14.253   3
   1 -10   0 582.160  13.958   4
   1  10   0 606.957  15.544   1
   1  10   0 616.364  14.153   2
  -1  10   0 601.896  15.004   2
  -1  10   0 588.665  14.540   1
   2 -10   0 64.4828  3.1248   3
  -2 -10   0 60.9700  3.0429   3
  -2 -10   0 61.4921  2.6820   4
   2 -10   0 67.1066  3.1631   4
   2  10   0 64.4828  3.6770   1
   2  10   0 58.5758  2.2739   2
  -2  10   0 63.0189  3.3661   2
   3 -10   0 15.3183  1.9296   4
   3 -10   0 15.7785  1.8839   3
  -3 -10   0 13.0132  1.8107   3
   3  10   0 16.6169  1.7642   4
   3  10   0 14.3264  2.1596   1
  -3  10   0 11.5196  1.9951   2
   4 -10   0 90.8367  4.4710   4
   4 -10   0 89.4922  4.2619   3
  -4 -10   0 86.1361  4.2783   3
  -4  10   0 84.7654  4.6721   2
   4  10   0 92.1623  4.2516   4
   4  10   0 83.8965  4.7215   1
   5 -10   0 20.5728  2.4559   3
  -5 -10   0 23.6236  2.6268   3
   5 -10   0 23.8106  2.7412   4
   5  10   0 21.3136  2.4663   4
   5  10   0 22.5568  2.8927   1
  -5  10   0 18.4969  2.6142   2
  -6 -10   0 4.51550 1.41479   3
   6 -10   0 2.36045 1.14570   4
   6  10   0 3.75873 1.34328   4
  -6  10   0 6.38838 1.36288   3
  -6  10   0 5.90259 1.72579   2
   6  10   0 4.51025 1.61032   1
   0 -11   0 1.78024 0.97648   3
   0 -11   0 -0.8908  0.5982   4
   0  11   0 -0.1246  0.8540   1
   0  11   0 0.75942 0.84834   2
  -1 -11   0 8.30763 1.40580   3
   1 -11   0 6.97444 1.30333   4
   1 -11   0 7.19859 1.33163   3
  -1 -11   0 9.89208 1.24864   4
  -1  11   0 8.63255 1.15399   1
  -1  11   0 7.67993 1.42005   2
   1  11   0 11.7647  1.1703   2
   1  11   0 6.90166 1.54159   1
  -2 -11   0 667.080  16.655   3
   2 -11   0 684.366  16.675   3
  -2 -11   0 678.997  15.785   4
   2 -11   0 711.985  16.637   4
   2  11   0 685.193  18.222   1
  -2  11   0 695.847  17.629   2
   3 -11   0 261.328   8.195   4
   3 -11   0 262.801   8.066   3
  -3 -11   0 276.394   8.268   3
  -3  11   0 265.348   8.810   2
   3  11   0 267.950   9.268   1
   3  11   0 263.040   7.862   4
   4 -11   0 2.57705 1.31756   3
  -4 -11   0 3.49610 1.37184   3
   4 -11   0 0.35151 1.20681   4
   4  11   0 2.17054 1.49319   1
  -4  11   0 0.62285 1.25747   2
   4  11   0 0.67634 1.08669   4
  -5 -11   0 74.8056  4.1981   3
   5 -11   0 68.4201  4.1750   4
   5 -11   0 66.9500  4.1048   3
   5  11   0 77.1928  4.7910   1
   5  11   0 73.2605  4.1191   4
  -5  11   0 71.8023  4.4987   2
   6 -11   0 139.126   6.404   4
  -6 -11   0 151.849   6.714   3
   6  11   0 144.551   7.016   1
  -6  11   0 140.451   6.599   2
   6  11   0 145.295   6.383   4
   0 -12   0 705.424  16.484   4
   0 -12   0 689.236  17.096   3
   0  12   0 723.539  17.482   2
   0  12   0 730.072  18.070   1
   1 -12   0 826.585  19.160   4
  -1 -12   0 823.890  18.755   4
  -1 -12   0 829.212  19.747   3
   1 -12   0 780.254  19.451   3
   1  12   0 853.948  19.508   2
  -1  12   0 858.444  20.459   2
   1  12   0 823.533  20.970   1
  -1  12   0 830.328  20.065   1
  -2 -12   0 181.683   5.552   4
   2 -12   0 159.458   5.923   4
   2 -12   0 167.201   5.998   3
  -2 -12   0 168.191   6.036   3
  -2  12   0 190.107   6.668   2
   2  12   0 183.312   6.915   1
   3 -12   0 50.7236  3.3272   4
  -3 -12   0 59.1743  3.4464   3
   3 -12   0 54.3106  3.3038   3
  -3  12   0 66.4960  3.9170   2
   3  12   0 55.7563  3.8537   1
  -4 -12   0 567.947  15.159   3
   4 -12   0 578.125  15.100   4
   4 -12   0 550.584  14.930   3
   4  12   0 557.859  16.465   1
   4  12   0 555.879  14.567   4
  -4  12   0 543.727  15.953   2
   5 -12   0 120.104   5.705   3
   5 -12   0 119.894   5.707   4
  -5 -12   0 131.173   5.844   3
   5  12   0 124.823   5.580   4
   5  12   0 127.498   6.355   1
  -5  12   0 127.525   6.168   2
  -6 -12   0 25.0063  3.1694   3
   6 -12   0 27.4966  3.1262   4
  -6  12   0 24.7773  3.1462   2
   6  12   0 30.2531  3.4654   1
   6  12   0 29.4868  2.7039   4
   0 -13   0 1.54051 1.10194   3
   0 -13   0 0.38924 0.96008   4
   0  13   0 2.79567 1.15461   1
   0  13   0 1.52962 0.98081   2
   1 -13   0 18.0185  1.9523   4
  -1 -13   0 16.8251  1.9800   3
  -1 -13   0 14.9802  1.6255   4
   1 -13   0 17.8057  2.0509   3
   1  13   0 15.7342  2.0248   1
  -1  13   0 15.6241  1.9226   2
   1  13   0 16.5680  1.6440   2
  -1  13   0 13.9294  1.6410   1
   2 -13   0 2.71892 1.32473   4
   2 -13   0 2.56169 1.25479   3
  -2 -13   0 2.71612 1.05775   4
  -2 -13   0 1.70346 1.26613   3
   2  13   0 2.98233 1.52085   1
  -2  13   0 2.95757 1.44471   2
   3 -13   0 144.200   5.643   3
  -3 -13   0 155.014   5.932   3
  -3 -13   0 145.085   5.221   4
   3 -13   0 134.015   5.712   4
  -3  13   0 138.687   6.090   2
   3  13   0 147.224   6.497   1
  -4 -13   0 15.5575  2.3386   3
   4 -13   0 13.9999  2.3562   4
   4 -13   0 14.6696  2.2303   3
   4  13   0 17.3867  2.2200   4
  -4  13   0 13.4465  2.4322   2
   4  13   0 14.5153  2.5955   1
   5 -13   0 76.4015  4.4479   3
  -5 -13   0 81.7822  4.5826   3
   5 -13   0 67.2270  4.1987   4
  -5  13   0 71.5789  4.6295   2
   5  13   0 76.8651  4.3272   4
   5  13   0 79.0838  4.9429   1
   0 -14   0 469.612  12.492   3
   0 -14   0 467.051  11.887   4
   0  14   0 461.340  12.934   1
   0  14   0 467.282  12.495   2
   1 -14   0 58.9935  3.3989   3
   1 -14   0 60.9913  3.4406   4
  -1 -14   0 60.7806  3.4911   3
  -1 -14   0 57.1113  3.0686   4
  -1  14   0 62.2103  3.5534   2
   1  14   0 64.4959  3.1429   2
   1  14   0 56.7488  3.6627   1
  -1  14   0 57.8328  3.1217   1
  -2 -14   0 99.8749  4.6803   3
  -2 -14   0 92.6911  3.9852   4
   2 -14   0 95.0480  4.4184   3
   2 -14   0 93.3516  4.4395   4
  -2  14   0 94.1146  4.7423   2
   2  14   0 90.0950  4.7665   1
  -3 -14   0 701.643  18.406   3
   3 -14   0 733.399  18.374   3
   3 -14   0 706.960  18.202   4
  -3 -14   0 719.870  17.282   4
   3  14   0 735.569  20.073   1
  -3  14   0 727.462  19.298   2
   4 -14   0 147.227   6.206   3
  -4 -14   0 158.882   6.509   3
   4 -14   0 141.146   6.251   4
  -4  14   0 149.246   6.730   2
   4  14   0 145.970   6.896   1
  -5 -14   0 31.8902  2.9048   3
   5 -14   0 30.3119  3.0612   3
   5 -14   0 31.7980  2.9401   4
   5  14   0 37.0420  3.3771   1
   5  14   0 31.3266  2.9598   4
  -5  14   0 31.8983  3.1272   2
   0 -15   0 1.02413 1.13285   4
   0 -15   0 2.82119 1.33648   3
   0  15   0 2.37355 1.23686   2
   0  15   0 0.73418 1.10061   1
   1 -15   0 1243.97   27.56   4
  -1 -15   0 1221.97   27.04   4
  -1 -15   0 1189.26   28.17   3
   1 -15   0 1183.51   28.11   3
  -1  15   0 1245.52   29.03   1
   1  15   0 1205.14   28.04   2
  -1  15   0 1198.02   29.06   2
   1  15   0 1185.27   29.76   1
   2 -15   0 209.701   7.407   3
   2 -15   0 206.933   7.382   4
  -2 -15   0 212.646   7.567   3
  -2 -15   0 225.763   6.926   4
   2  15   0 210.939   8.141   1
  -2  15   0 223.966   7.875   2
   3 -15   0 23.7989  2.7336   3
  -3 -15   0 20.6867  2.1593   4
   3 -15   0 19.5075  2.5515   4
  -3 -15   0 19.8394  2.6790   3
   3  15   0 23.1368  2.9677   1
  -3  15   0 22.9452  2.7896   2
  -4 -15   0 5.96275 1.80777   3
   4 -15   0 3.09137 1.67568   4
  -4 -15   0 5.45757 1.44429   4
   4 -15   0 5.10725 1.69813   3
   4  15   0 5.28164 1.72867   1
  -4  15   0 8.23861 1.92090   2
   5 -15   0 80.3399  4.7162   4
  -5 -15   0 77.0942  4.8117   3
   5 -15   0 80.5734  4.6845   3
  -5  15   0 80.0689  5.1894   2
   5  15   0 88.4301  5.4761   1
   0 -16   0 81.1567  4.2073   3
   0 -16   0 79.7577  3.8975   4
   0  16   0 87.8812  4.1887   2
   0  16   0 92.9333  4.5084   1
   1 -16   0 148.285   5.990   3
   1 -16   0 129.861   5.495   4
  -1 -16   0 150.861   5.482   4
  -1 -16   0 143.316   5.920   3
   1  16   0 157.897   6.384   1
  -1  16   0 153.277   5.703   1
  -1  16   0 152.492   6.025   2
  -2 -16   0 149.655   5.527   4
   2 -16   0 145.583   6.064   4
   2 -16   0 158.435   6.247   3
  -2 -16   0 146.637   6.214   3
   2  16   0 153.496   6.641   1
  -2  16   0 153.900   6.368   2
  -3 -16   0 62.0309  4.0463   3
   3 -16   0 56.7157  3.9264   4
  -3 -16   0 63.3837  3.5947   4
   3 -16   0 53.9418  3.7237   3
  -3  16   0 59.8615  4.1346   2
   3  16   0 61.1709  4.2573   1
   4 -16   0 33.5251  3.0422   4
  -4 -16   0 40.4687  3.3150   3
   4 -16   0 36.5716  3.1780   3
  -4 -16   0 36.3596  2.8165   4
   4  16   0 44.5685  3.7067   1
  -4  16   0 36.6637  3.3850   2
  -5 -16   0 40.0791  3.7936   3
   5 -16   0 41.7970  3.3154   3
   5 -16   0 33.6003  3.0693   4
  -5  16   0 36.8368  3.9688   2
   5  16   0 38.8599  3.7716   1
   0 -17   0 0.31387 1.11790   4
   0 -17   0 0.55748 1.15704   3
   0  17   0 -0.7687  1.0299   2
   0  17   0 1.64552 1.27245   1
   1 -17   0 89.2714  4.5631   3
   1 -17   0 80.4476  4.3027   4
  -1 -17   0 95.5096  4.2445   4
  -1 -17   0 83.2560  4.3962   3
   1  17   0 95.4783  4.9826   1
  -1  17   0 81.2911  4.4183   2
   2 -17   0 4.41805 1.64264   3
  -2 -17   0 3.40066 1.63935   3
   2 -17   0 4.58639 1.75607   4
  -2 -17   0 6.59772 1.62231   4
   2  17   0 5.19749 1.76273   1
  -2  17   0 5.32954 1.73732   2
   3 -17   0 10.7006  2.2708   3
   3 -17   0 17.1085  2.5378   4
  -3 -17   0 10.5867  2.3223   3
  -3  17   0 14.5570  2.4688   2
   3  17   0 11.9873  2.3269   1
  -4 -17   0 66.7084  4.3221   3
   4 -17   0 72.1115  4.3806   4
   4 -17   0 63.3317  4.0729   3
  -4  17   0 60.5917  4.3856   2
   4  17   0 65.5224  4.6264   1
   0 -18   0 305.840   9.914   3
   0 -18   0 318.084   9.569   4
   0  18   0 331.554  10.392   1
   0  18   0 314.573   9.791   2
   1 -18   0 119.540   5.670   3
   1 -18   0 139.859   5.853   4
  -1 -18   0 139.797   5.903   3
   1  18   0 140.295   6.303   1
  -1  18   0 137.706   5.923   2
   2 -18   0 109.851   5.387   3
  -2 -18   0 97.7560  5.2315   3
   2 -18   0 115.832   5.466   4
  -2  18   0 112.487   5.537   2
   2  18   0 109.431   5.753   1
   3 -18   0 94.4161  5.0620   3
  -3 -18   0 92.0012  5.1248   3
   3 -18   0 93.4598  5.1244   4
   3  18   0 91.8298  5.4175   1
  -3  18   0 92.8824  5.1521   2
   4 -18   0 2.91017 1.22479   4
  -4 -18   0 1.05798 1.33803   3
   4 -18   0 4.00877 1.48795   3
   4  18   0 2.09051 1.45269   1
  -4  18   0 -0.6809  1.3029   2
   0 -19   0 1.66930 1.42043   3
   0  19   0 1.23939 1.35044   2
   0  19   0 10.3091  2.0817   1
   1 -19   0 40.7246  3.3753   3
  -1 -19   0 31.5082  3.1598   3
  -1  19   0 41.2331  3.4157   2
   1  19   0 41.0904  3.4676   1
  -2 -19   0 4.53097 1.70154   3
   2 -19   0 4.01616 1.74991   4
   2 -19   0 3.26534 1.73080   3
   2  19   0 9.07197 1.98666   1
  -2  19   0 2.93486 1.49222   2
   3 -19   0 6.72398 1.97501   3
  -3 -19   0 2.82690 1.44372   3
   3 -19   0 6.20187 1.66348   4
  -3  19   0 3.60889 1.57197   2
   3  19   0 6.71079 2.07573   1
   0 -20   0 673.502  18.170   3
   0  20   0 678.573  18.613   1
  -1 -20   0 35.5329  3.1849   3
   1 -20   0 36.5177  3.3738   3
   1  20   0 35.1448  3.1607   1
  -1  20   0 39.4690  3.1396   2
  -2 -20   0 93.7606  5.1031   3
   2 -20   0 95.1145  5.1512   3
   2  20   0 91.2197  5.2990   1
  -3 -20   0 3.03240 1.34126   3
  -3  20   0 5.50353 1.88299   2
   3  20   0 1.20931 1.77067   1
   0 -21   0 8.77127 1.94415   3
   0  21   0 4.63037 1.76188   1
   1 -21   0 6.28759 1.83646   3
  -1 -21   0 5.90250 1.58320   3
   1  21   0 9.99748 2.09388   1
  -1  21   0 9.62464 1.98402   2
  -2 -21   0 85.9217  4.8217   3
   2  21   0 73.3113  4.9350   1
  -2  21   0 83.5202  4.9063   2
   0 -22   0 302.553  10.353   3
  -1 -22   0 90.8690  4.9303   3
   1  22   0 90.3816  5.1508   1
  -1  22   0 94.1971  4.9257   2
   7   0  -1 -0.2007  0.8741   4
  -7   0   1 -1.1364  0.6848   3
  -6   0   1 -0.2463  0.8460   3
   6   0  -1 -0.6757  0.9297   4
  -5   0   1 0.42224 0.79758   2
  -5   0   1 1.75810 1.02007   3
   5   0  -1 -0.0500  0.9361   1
   5   0  -1 0.29595 0.94184   4
   3   0  -1 -0.5046  0.5056   4
  -3   0   1 -0.8976  0.4496   3
   3   0  -1 -0.6943  0.5046   1
  -3   0   1 -0.1967  0.4806   2
   2   0  -1 0.10416 0.44837   4
  -2   0   1 -0.4483  0.3808   2
   2   0  -1 0.18665 0.40970   1
  -2   0   1 0.23074 0.38204   3
   1   0  -1 -10.427   0.552   4
  -1   0   1 -13.074   0.409   3
   1   0  -1 -11.967   0.458   1
  -1   0   1 -12.015   0.538   2
   0   0   1 -0.0670  0.3494   4
   0   0   1 0.41820 0.37076   1
   0   0   1 -0.2624  0.3552   3
   0   0   1 -0.0377  0.3628   2
   1   0   1 0.17522 0.41141   1
   1   0   1 -0.5817  0.4267   3
   1   0   1 0.24315 0.44273   4
  -2   0  -1 3.55180 0.78913   2
   2   0   1 -0.0787  0.6149   3
   2   0   1 0.18470 0.50104   1
   2   0   1 0.58160 0.62767   4
   3   0   1 -0.4025  0.3925   1
  -3   0  -1 0.76422 0.52353   2
   3   0   1 0.65962 0.79391   4
  -3   0  -1 0.58012 0.68443   3
  -4   0  -1 0.72448 0.88958   3
  -4   0  -1 -0.1622  0.6012   2
   4   0   1 -0.1820  0.4901   1
   4   0   1 1.12286 0.99567   4
   5   0   1 1.06773 1.20617   4
  -5   0  -1 1.78981 1.10380   3
  -6   0  -1 3.26259 1.14069   3
   6   0   1 -0.0154  1.1959   4
   7  -1  -1 10.3137  2.0151   4
  -7  -1   1 4.48325 1.25388   3
  -7   1   1 7.24981 1.56825   3
   7   1  -1 8.63268 1.88519   4
  -6  -1   1 21.7515  2.3109   3
   6  -1  -1 20.7879  2.4407   4
   6   1  -1 24.5254  2.6522   4
  -6   1   1 25.9970  2.3104   3
   5  -1  -1 879.834  20.864   4
  -5  -1   1 917.964  20.597   2
  -5  -1   1 865.897  20.818   3
  -5   1   1 871.029  20.774   2
   5   1  -1 919.738  20.945   4
   5   1  -1 874.667  22.224   1
  -5   1   1 869.884  20.671   3
   4  -1  -1 3325.33   69.14   4
  -4  -1   1 3328.62   72.09   2
   4  -1  -1 3312.59   73.84   1
  -4  -1   1 3287.00   70.26   3
  -4   1   1 3306.84   72.32   2
   4   1  -1 3369.18   69.05   4
  -4   1   1 3358.48   70.24   3
   4   1  -1 3334.67   74.36   1
   3  -1  -1 439.534  10.410   4
   3  -1  -1 424.782  10.453   1
  -3  -1   1 434.739  10.307   3
  -3  -1   1 437.857  10.225   2
  -3   1   1 424.521  10.364   2
   3   1  -1 443.004  10.866   1
   3   1  -1 428.981  10.242   4
  -3   1   1 417.239  10.116   3
  -2  -1   1 13.5751  0.9083   2
  -2  -1   1 12.3602  0.9299   3
   2  -1  -1 12.1380  0.9080   1
   2  -1  -1 12.9186  1.0643   4
  -2   1   1 11.9069  0.9283   2
  -2   1   1 13.5264  0.8789   3
   2   1  -1 11.9902  0.9864   1
   2   1  -1 12.8200  0.9554   4
  -1  -1   1 2735.40   58.47   3
  -1  -1   1 2853.12   61.00   2
   1  -1  -1 2776.68   57.53   4
  -1   1   1 2759.48   58.81   3
   1   1  -1 2734.38   61.59   1
  -1   1   1 2721.58   60.40   2
  -1   1   1 2837.09   61.92   1
   0  -1   1 2812.33   59.91   1
   0  -1   1 2654.50   56.22   4
   0  -1   1 2743.62   59.05   2
   0  -1   1 2651.57   57.79   3
   0   1   1 2686.02   59.26   2
   0   1   1 2735.04   59.71   1
   0   1   1 2719.36   55.89   4
   1  -1   1 1368.93   29.70   1
   1  -1   1 1296.69   27.74   4
   1  -1   1 1352.30   28.58   3
  -1   1  -1 1351.99   29.34   2
   1   1   1 1318.82   29.86   1
   1   1   1 1339.20   29.15   2
   1   1   1 1322.98   27.87   4
  -2  -1  -1 1208.74   26.74   2
  -2  -1  -1 1258.97   26.17   3
   2  -1   1 1247.95   26.45   3
   2  -1   1 1151.36   25.64   4
   2  -1   1 1207.02   26.93   1
   2   1   1 1220.67   27.31   1
  -2   1  -1 1150.03   27.11   2
   2   1   1 1189.98   25.77   4
  -3  -1  -1 169.006   5.154   3
   3  -1   1 159.462   4.525   1
   3  -1   1 162.933   5.232   4
  -3  -1  -1 162.773   4.547   2
  -3   1  -1 163.728   4.961   2
  -3   1  -1 167.886   5.122   3
   3   1   1 160.873   5.251   4
   3   1   1 155.085   4.846   1
   4  -1   1 7.37438 1.46177   4
  -4  -1  -1 9.47472 1.49382   3
   4   1   1 6.46218 1.53232   4
  -4   1  -1 9.84189 1.30692   2
   4   1   1 10.5308  1.3042   1
  -4   1  -1 9.95185 1.49491   3
  -5  -1  -1 24.3336  2.3889   3
   5  -1   1 29.4588  2.7761   4
  -5   1  -1 22.3119  2.2838   3
   5   1   1 21.7875  2.5147   4
   6  -1   1 1.68006 1.10638   4
  -6  -1  -1 1.44122 1.09395   3
   6   1   1 1.99205 1.36186   4
  -6   1  -1 1.33708 1.07203   3
   7  -2  -1 -0.1151  1.0353   4
  -7  -2   1 2.00340 0.91346   3
  -7   2   1 2.44611 1.09472   3
   7   2  -1 1.57628 1.24074   4
   6  -2  -1 15.6907  2.2890   4
  -6  -2   1 18.2636  2.1996   3
  -6   2   1 17.5306  2.0414   3
  -6   2   1 19.9568  1.9927   2
   6   2  -1 20.2792  2.4350   4
  -5  -2   1 426.791  11.291   3
   5  -2  -1 410.979  11.388   4
  -5   2   1 412.567  11.004   2
   5   2  -1 440.998  11.480   4
  -5   2   1 408.957  11.030   3
   5   2  -1 427.473  12.346   1
   4  -2  -1 375.459   9.947   4
  -4  -2   1 367.386   9.771   3
   4  -2  -1 383.563   9.720   1
  -4  -2   1 388.173   9.324   2
  -4   2   1 370.718   9.712   2
  -4   2   1 380.462   9.620   3
   4   2  -1 399.288  10.692   1
   4   2  -1 370.276   9.762   4
   3  -2  -1 35.8834  2.0780   4
  -3  -2   1 38.4535  1.9050   3
   3  -2  -1 37.0342  1.6526   1
  -3  -2   1 37.5510  1.6429   2
   3   2  -1 39.9922  1.9879   4
  -3   2   1 37.0215  1.7791   3
  -3   2   1 37.6476  1.8679   2
   3   2  -1 40.0602  2.0961   1
   2  -2  -1 15.2182  1.2380   4
  -2  -2   1 15.6236  1.1416   3
  -2  -2   1 13.8629  0.9753   2
   2  -2  -1 16.8910  1.0364   1
   2   2  -1 16.8825  1.2937   1
  -2   2   1 16.9348  1.0108   3
   2   2  -1 16.9701  1.1538   4
  -2   2   1 16.5276  1.1936   2
  -1  -2   1 505.607  11.433   2
  -1  -2   1 508.930  11.243   3
   1  -2  -1 506.942  11.050   4
   1   2  -1 502.282  10.685   4
  -1   2   1 521.861  11.670   1
  -1   2   1 495.437  11.530   2
   1   2  -1 502.515  11.820   1
   0  -2   1 1423.11   30.76   3
   0  -2  -1 1441.60   29.99   4
   0  -2   1 1432.73   30.02   4
   0  -2   1 1441.68   31.78   2
   0  -2  -1 1487.82   30.68   3
   0   2  -1 1509.72   32.32   1
   0   2   1 1492.31   31.71   2
   0   2   1 1435.88   32.41   1
   1  -2   1 1298.44   27.90   4
  -1  -2  -1 1336.95   28.48   3
   1  -2   1 1350.22   29.82   1
   1  -2   1 1375.34   28.81   3
  -1   2  -1 1335.53   29.67   2
   1   2   1 1386.91   30.29   1
   1   2   1 1346.61   29.30   2
   1   2   1 1337.87   28.13   4
   2  -2   1 2780.09   59.92   1
   2  -2   1 2639.42   56.18   4
  -2  -2  -1 2738.80   58.96   2
   2  -2   1 2835.25   57.78   3
  -2  -2  -1 2771.94   57.35   3
  -2   2  -1 2599.20   59.68   2
   2   2   1 2727.06   60.49   1
   2   2   1 2721.64   56.34   4
   3  -2   1 491.851  12.276   4
  -3  -2  -1 513.376  12.324   3
   3  -2   1 500.670  12.671   3
  -3  -2  -1 488.361  11.612   2
   3  -2   1 523.581  11.847   1
   3   2   1 514.941  12.717   1
  -3   2  -1 505.074  12.589   2
   3   2   1 499.005  12.404   4
   4  -2   1 8.05138 1.50007   4
  -4  -2  -1 8.60018 1.45050   3
  -4   2  -1 9.03676 1.44092   3
   4   2   1 6.44140 1.51220   4
   4   2   1 7.42072 1.25884   1
  -4   2  -1 7.34706 1.26485   2
   5  -2   1 383.009  11.195   4
  -5  -2  -1 387.296  10.968   3
   5   2   1 395.538  11.370   4
  -5   2  -1 364.812  10.804   3
   6  -2   1 517.801  15.041   4
  -6  -2  -1 529.508  14.788   3
   6   2   1 540.250  15.252   4
  -6   2  -1 533.147  14.701   3
   7  -3  -1 222.018   8.422   4
  -7  -3   1 224.512   8.079   3
  -7   3   1 222.772   7.893   3
   7   3  -1 227.895   8.483   4
   6  -3  -1 41.4323  3.1967   4
  -6  -3   1 33.3650  2.6010   3
  -6   3   1 36.9933  2.6185   2
   6   3  -1 38.4736  3.0480   4
  -6   3   1 32.1473  2.5386   3
  -5  -3   1 3.33891 1.21711   3
   5  -3  -1 2.51229 1.23905   4
   5   3  -1 3.47827 1.31618   4
  -5   3   1 2.30993 0.99826   3
  -5   3   1 5.75241 1.26277   2
   5   3  -1 10.2328  2.0062   1
   4  -3  -1 709.088  17.085   1
  -4  -3   1 730.385  17.152   3
   4  -3  -1 719.057  17.154   4
  -4  -3   1 751.591  16.670   2
  -4   3   1 725.587  17.399   2
   4   3  -1 743.175  18.661   1
   4   3  -1 726.498  16.915   4
  -4   3   1 732.713  16.873   3
   3  -3  -1 680.890  15.351   1
  -3  -3   1 668.248  15.354   3
   3  -3  -1 654.326  15.301   4
  -3  -3   1 659.053  15.077   2
  -3   3   1 658.218  15.017   3
   3   3  -1 681.324  16.497   1
  -3   3   1 677.943  15.802   2
   3   3  -1 670.262  14.996   4
   2  -3  -1 456.599  10.643   4
   2  -3  -1 463.954  10.445   3
   2  -3  -1 461.131  10.644   1
  -2  -3   1 472.347  10.717   3
  -2  -3   1 462.989  10.534   2
   2   3  -1 459.793  10.216   4
   2   3  -1 454.305  11.354   1
  -2   3   1 462.074  11.011   2
  -1  -3   1 1332.85   29.08   2
   1  -3  -1 1353.85   28.12   3
  -1  -3   1 1350.99   28.38   3
   1  -3  -1 1332.31   27.76   4
  -1   3   1 1342.49   29.63   1
   1   3  -1 1295.60   29.82   1
  -1   3   1 1280.46   29.15   2
   1   3  -1 1374.51   27.55   4
   0  -3   1 1152.43   25.49   2
   0  -3  -1 1178.90   24.09   4
   0  -3   1 1113.97   24.70   3
   0  -3  -1 1175.79   24.37   3
   0  -3   1 1159.11   23.87   4
   0   3   1 1146.59   25.23   2
   0   3   1 1172.47   26.02   1
   1  -3   1 2564.52   55.09   3
  -1  -3  -1 2669.27   54.83   3
   1  -3   1 2611.94   53.65   4
  -1   3  -1 2611.10   57.10   2
   1   3   1 2632.01   58.14   1
  -1   3  -1 2616.53   57.79   1
   1   3   1 2676.79   57.07   2
   1   3   1 2625.12   53.87   4
  -2  -3  -1 355.266   8.643   3
   2  -3   1 352.283   8.641   4
  -2  -3  -1 363.667   8.082   2
   2  -3   1 356.305   8.165   1
   2  -3   1 342.696   8.936   3
  -2   3  -1 344.842   9.411   2
   2   3   1 363.764   9.340   1
   2   3   1 345.881   8.756   4
   3  -3   1 627.113  13.849   1
   3  -3   1 604.159  14.441   4
  -3  -3  -1 603.708  14.391   3
  -3  -3  -1 598.454  13.586   2
   3  -3   1 583.528  14.727   3
   3   3   1 620.857  14.593   4
   3   3   1 625.281  15.257   1
  -3   3  -1 593.866  15.012   2
   4  -3   1 41.1150  2.8093   4
  -4  -3  -1 41.3753  2.6338   3
   4   3   1 44.0204  2.6380   1
   4   3   1 44.6027  2.8593   4
  -4   3  -1 51.1059  2.8769   2
  -5  -3  -1 685.292  17.149   3
   5  -3   1 667.326  17.200   4
  -5   3  -1 705.554  17.127   2
  -5   3  -1 658.118  16.933   3
   5   3   1 627.299  17.091   4
  -6  -3  -1 7.72133 1.80193   3
   6  -3   1 7.37501 1.70783   4
  -6   3  -1 6.65742 1.59052   3
   6   3   1 5.90466 1.88837   4
  -7  -4   1 60.9248  3.8378   3
   7  -4  -1 50.8955  3.8141   4
  -7   4   1 60.9526  3.5917   3
   7   4  -1 62.7049  4.0196   4
   6  -4  -1 5.45727 1.71429   4
  -6  -4   1 4.97306 1.52079   3
  -6   4   1 9.26364 1.64568   3
  -6   4   1 9.34399 1.63543   2
   6   4  -1 7.64219 1.86938   1
   6   4  -1 7.36168 1.82621   4
   5  -4  -1 259.125   8.152   4
  -5  -4   1 252.904   7.868   3
   5   4  -1 262.625   7.974   4
   5   4  -1 262.758   9.033   1
  -5   4   1 256.916   7.586   3
  -5   4   1 255.616   7.787   2
   4  -4  -1 132.573   4.909   4
  -4  -4   1 128.030   3.764   2
  -4  -4   1 130.834   4.663   3
   4   4  -1 154.191   5.715   1
  -4   4   1 136.059   4.458   3
   4   4  -1 136.333   4.685   4
  -4   4   1 138.225   4.785   2
   3  -4  -1 865.810  19.341   1
   3  -4  -1 869.419  19.228   3
  -3  -4   1 857.792  19.380   3
  -3  -4   1 856.047  19.044   2
   3   4  -1 837.871  18.767   4
   3   4  -1 857.275  20.801   1
  -3   4   1 855.089  19.983   2
   2  -4  -1 26.1255  1.3654   3
  -2  -4   1 23.7609  1.1713   2
   2  -4  -1 25.3102  1.5898   4
  -2  -4   1 25.3529  1.5534   3
  -2   4   1 25.7438  1.6225   2
   2   4  -1 25.8196  1.3124   4
   2   4  -1 23.2570  1.6055   1
  -2   4   1 25.5095  1.1547   1
   1  -4  -1 21.4210  0.9702   3
  -1  -4   1 21.7264  1.1491   2
  -1  -4   1 22.8616  1.4108   3
   1  -4  -1 20.6108  1.2895   4
  -1   4   1 23.3555  1.1787   1
   1   4  -1 23.7359  0.9015   4
  -1   4   1 22.7625  1.2998   2
   1   4  -1 22.0663  1.3667   1
   0  -4  -1 13.7376  0.7814   3
   0  -4   1 9.84557 0.85326   4
   0  -4   1 10.1837  1.0305   2
   0  -4  -1 9.58870 0.89787   4
   0  -4   1 10.6664  1.0109   3
   0   4  -1 10.5727  0.8332   1
   0   4   1 10.5456  0.8501   2
   0   4   1 12.3461  1.1465   1
   1  -4   1 2934.68   60.70   3
  -1  -4  -1 2956.07   60.33   3
   1  -4   1 2894.20   59.00   4
   1   4   1 2892.02   64.08   1
  -1   4  -1 2867.77   62.90   2
   1   4   1 2861.09   62.72   2
   1   4   1 2839.35   59.26   4
  -1   4  -1 2859.44   63.52   1
   2  -4   1 313.180   7.970   4
   2  -4   1 321.535   8.322   3
  -2  -4  -1 319.510   7.962   3
   2   4   1 326.290   8.812   1
  -2   4  -1 313.780   8.813   2
   2   4   1 308.971   8.080   4
  -3  -4  -1 273.418   7.575   3
   3  -4   1 279.094   7.708   4
   3  -4   1 280.586   7.981   3
   3   4   1 281.615   8.252   1
  -3   4  -1 272.752   8.086   2
   3   4   1 269.089   7.745   4
  -4  -4  -1 20.6414  1.9994   3
   4  -4   1 20.0843  2.1547   4
   4  -4   1 18.9494  2.0933   3
  -4   4  -1 24.6231  2.2710   2
   4   4   1 23.7542  2.2759   4
   4   4   1 22.5388  2.2078   1
  -5  -4  -1 27.6045  2.5009   3
   5  -4   1 38.0423  3.0190   4
  -5   4  -1 33.9625  2.5859   2
   5   4   1 30.7593  2.8975   4
   5   4   1 31.4379  2.6091   1
  -5   4  -1 30.1632  2.4228   3
   6  -4   1 131.421   5.899   4
  -6  -4  -1 117.783   5.570   3
  -6   4  -1 122.337   5.439   3
   6   4   1 121.875   5.913   4
   7  -5  -1 3.40016 1.49022   4
  -7  -5   1 9.24450 1.77578   3
   7   5  -1 7.33759 1.80229   4
  -7   5   1 8.79334 1.48870   3
   6  -5  -1 26.3479  2.7953   4
  -6  -5   1 27.4091  2.6660   3
   6   5  -1 26.2707  2.6802   4
  -6   5   1 25.2793  2.2873   3
   6   5  -1 28.5858  2.8898   1
  -6   5   1 24.9659  2.3593   2
   5  -5  -1 103.748   4.658   4
  -5  -5   1 94.8801  4.3187   3
   5   5  -1 101.452   5.246   1
   5   5  -1 96.1396  4.3459   4
  -5   5   1 107.677   4.476   2
  -5   5   1 100.003   4.058   3
   4  -5  -1 1429.31   31.28   4
  -4  -5   1 1413.86   31.59   3
  -4   5   1 1411.84   31.05   3
   4   5  -1 1401.96   34.18   1
  -4   5   1 1424.84   32.54   2
   4   5  -1 1433.16   30.85   4
   3  -5  -1 5475.99  114.92   3
   3  -5  -1 5605.71  120.69   1
   3  -5  -1 5559.31  112.90   4
  -3  -5   1 5669.85  118.40   2
  -3  -5   1 5393.40  115.19   3
   3   5  -1 5457.08  122.07   1
  -3   5   1 5523.02  119.31   2
   3   5  -1 5502.96  112.27   4
   2  -5  -1 1062.75   23.00   3
  -2  -5   1 1010.30   23.35   3
  -2  -5   1 1105.57   23.53   2
   2  -5  -1 1077.15   23.14   4
  -2   5   1 1054.89   23.85   1
   2   5  -1 1052.28   24.95   1
   2   5  -1 1101.35   22.50   4
  -2   5   1 1070.30   24.28   2
  -1  -5   1 461.714  10.698   3
  -1  -5   1 441.952  10.481   2
  -1  -5   1 459.924   9.635   4
   1  -5  -1 463.601  10.459   4
   1   5  -1 449.120  11.080   1
  -1   5   1 437.218  10.677   1
  -1   5   1 446.779  10.741   2
   0  -5  -1 1815.35   37.13   3
   0  -5   1 1762.38   37.66   3
   0  -5   1 1797.47   36.25   4
   0  -5  -1 1693.40   36.59   4
   0   5  -1 1727.56   38.68   2
   0   5   1 1752.59   38.37   2
   0   5   1 1803.12   39.63   1
   0   5  -1 1785.67   39.26   1
   1  -5   1 5362.06  105.59   4
   1  -5   1 5253.56  108.42   3
  -1  -5  -1 5276.73  108.92   3
   1   5   1 5147.72  107.54   4
  -1   5  -1 5108.06  114.70   1
  -1   5  -1 5095.60  113.49   2
   1   5   1 5298.65  112.55   2
   1   5   1 5121.98  114.55   1
   2  -5   1 643.084  15.440   3
   2  -5   1 652.148  14.926   4
  -2  -5  -1 672.526  15.165   3
   2   5   1 668.645  16.564   1
  -2   5  -1 670.546  16.397   2
   2   5   1 650.327  15.139   4
  -3  -5  -1 15.3292  1.5486   3
   3  -5   1 13.6124  1.5810   4
   3  -5   1 12.7650  1.6747   3
   3   5   1 16.7861  1.6891   4
  -3   5  -1 12.0488  1.6798   2
   3   5   1 15.7640  1.8129   1
  -4  -5  -1 2.02559 1.10112   3
   4  -5   1 2.33678 1.21319   3
   4  -5   1 2.79360 1.25533   4
   4   5   1 2.12119 1.29398   4
   4   5   1 2.94037 1.24557   1
  -4   5  -1 2.98043 1.35197   2
   5  -5   1 0.76587 1.16979   4
  -5  -5  -1 -0.6217  1.0320   3
  -5   5  -1 0.85691 1.17192   2
   5   5   1 2.16913 1.35324   1
   5   5   1 0.21533 1.23854   4
  -5   5  -1 0.65208 1.02169   3
   6  -5   1 8.69240 1.66347   4
  -6  -5  -1 6.63123 1.62785   3
  -6   5  -1 6.42195 1.41184   3
   6   5   1 7.43555 1.79306   4
   7  -6  -1 4.37169 1.73537   4
  -7  -6   1 4.61970 1.42277   3
  -7   6   1 2.26446 0.88781   3
   7   6  -1 3.88016 1.44855   4
  -6  -6   1 192.696   7.244   3
   6  -6  -1 202.753   7.506   4
  -6   6   1 199.419   6.881   3
  -6   6   1 206.198   7.252   2
   6   6  -1 203.225   7.355   4
   6   6  -1 201.182   7.913   1
  -5  -6   1 237.898   7.799   3
   5  -6  -1 236.257   7.948   4
  -5   6   1 262.915   8.140   2
   5   6  -1 252.269   7.799   4
  -5   6   1 237.385   7.318   3
   5   6  -1 255.026   9.004   1
  -4  -6   1 24.2984  2.1073   3
   4  -6  -1 20.9291  2.1037   4
   4  -6  -1 22.3909  1.8842   3
   4   6  -1 19.1118  1.8146   4
   4   6  -1 21.6932  2.5263   1
  -4   6   1 22.2617  2.1679   2
   3  -6  -1 290.734   7.667   3
  -3  -6   1 291.824   8.013   3
  -3  -6   1 299.564   7.064   2
   3  -6  -1 294.658   7.012   1
   3  -6  -1 285.797   8.067   4
   3   6  -1 291.478   7.520   4
   3   6  -1 292.263   8.918   1
  -3   6   1 308.075   8.425   2
   2  -6  -1 8.04144 1.20731   4
  -2  -6   1 6.68213 0.75057   2
   2  -6  -1 5.97694 0.83086   3
  -2  -6   1 5.68650 1.03930   3
  -2   6   1 6.03572 0.70160   1
   2   6  -1 5.18296 0.74977   4
   2   6  -1 6.81551 1.19077   1
  -2   6   1 6.28060 1.13256   2
   1  -6  -1 245.000   5.884   3
  -1  -6   1 236.738   6.157   2
   1  -6  -1 233.033   6.291   4
  -1  -6   1 241.315   6.528   3
  -1  -6   1 239.635   5.570   4
  -1   6   1 256.376   6.531   2
  -1   6   1 245.317   6.354   1
   0  -6   1 521.131  11.418   4
   0  -6  -1 535.158  11.956   4
   0  -6   1 522.982  12.385   3
   0  -6  -1 541.172  11.839   3
   0   6   1 521.175  12.116   2
   0   6  -1 513.926  12.478   2
   0   6   1 527.922  12.902   1
  -1  -6  -1 2878.88   58.54   3
   1  -6   1 2645.32   58.88   3
   1   6   1 2890.06   60.23   2
   1   6   1 2812.50   57.59   4
  -1   6  -1 2764.00   61.36   2
   1   6   1 2751.75   62.48   1
   2  -6   1 1161.26   25.27   4
   2  -6   1 1161.28   26.08   3
  -2  -6  -1 1171.03   25.67   3
  -2   6  -1 1189.40   27.38   2
   2   6   1 1154.51   25.47   4
  -3  -6  -1 255.319   7.353   3
   3  -6   1 272.989   7.805   3
   3  -6   1 257.923   7.479   4
   3   6   1 258.624   8.308   1
   3   6   1 258.411   7.571   4
  -3   6  -1 245.851   7.987   2
   4  -6   1 199.349   6.778   3
  -4  -6  -1 194.180   6.488   3
   4  -6   1 191.120   6.577   4
   4   6   1 191.113   6.661   4
   4   6   1 195.636   7.103   1
  -4   6  -1 184.042   6.760   2
  -5  -6  -1 80.9062  4.2155   3
   5  -6   1 82.5173  4.4697   4
  -5   6  -1 78.3479  4.2451   2
   5   6   1 88.3297  4.5381   1
   5   6   1 87.5633  4.5778   4
   6  -6   1 32.7838  2.8961   4
  -6  -6  -1 44.5325  3.2759   3
  -6   6  -1 43.2444  3.0463   3
   6   6   1 48.5219  3.6310   4
   7  -7  -1 45.4733  3.5338   4
  -7  -7   1 46.6491  3.6159   3
  -7   7   1 48.1974  3.4022   2
   7   7  -1 42.8694  3.3135   4
  -7   7   1 50.2984  3.1831   3
   6  -7  -1 5.68276 1.71429   4
  -6  -7   1 6.53868 1.71481   3
  -6   7   1 8.16553 1.62585   3
   6   7  -1 7.88868 1.98600   1
  -6   7   1 8.62369 1.80489   2
   6   7  -1 8.03227 1.80274   4
  -5  -7   1 2.00393 1.32340   3
   5  -7  -1 1.19245 1.17990   4
   5   7  -1 4.07572 1.70466   1
  -5   7   1 3.26194 1.44542   2
   5   7  -1 2.83328 1.23001   4
  -5   7   1 2.78260 1.04959   3
   4  -7  -1 208.670   6.817   4
   4  -7  -1 201.877   6.352   3
  -4  -7   1 205.257   6.644   3
  -4   7   1 210.401   6.972   2
   4   7  -1 203.083   6.263   4
   4   7  -1 203.409   7.806   1
   3  -7  -1 173.763   5.260   3
  -3  -7   1 173.368   5.635   3
   3  -7  -1 177.085   5.780   4
   3  -7  -1 178.718   4.488   1
   3   7  -1 180.695   5.202   4
  -3   7   1 187.037   6.064   2
   3   7  -1 169.902   6.465   1
   2  -7  -1 436.460  10.168   3
  -2  -7   1 421.519  10.088   2
   2  -7  -1 429.847  10.683   4
  -2  -7   1 420.381  10.649   3
  -2   7   1 438.719  10.282   1
   2   7  -1 430.837   9.839   4
  -2   7   1 437.178  11.195   2
   1  -7  -1 1087.50   23.32   3
  -1  -7   1 1042.10   24.01   3
  -1  -7   1 1093.06   22.57   4
   1  -7  -1 1057.06   23.40   4
  -1   7   1 1085.04   24.72   1
   1   7  -1 1090.82   25.27   1
   1   7  -1 1075.99   24.10   2
  -1   7   1 1109.12   24.63   2
   0  -7   1 122.892   4.196   3
   0  -7  -1 131.707   3.989   4
   0  -7  -1 128.618   3.747   3
   0  -7   1 124.287   3.516   4
   0   7   1 126.736   3.757   2
   0   7  -1 130.133   4.031   1
   0   7  -1 124.088   4.097   2
   0   7   1 127.913   4.293   1
  -1  -7  -1 7.84627 0.94039   3
   1  -7   1 7.82553 1.20034   3
   1  -7   1 6.72304 0.89823   4
  -1  -7  -1 8.63444 1.04496   4
  -1   7  -1 10.7176  1.4952   2
   1   7   1 11.9956  1.5509   1
   1   7   1 6.70555 0.69542   2
  -1   7  -1 7.93693 0.84768   1
   2  -7   1 46.9960  2.5854   3
   2  -7   1 50.2125  2.4820   4
  -2  -7  -1 51.7134  2.4432   3
   2   7   1 45.9144  2.5177   4
   2   7   1 38.2355  2.7337   1
  -2   7  -1 48.0565  2.9374   2
   3  -7   1 95.6831  4.1476   3
  -3  -7  -1 99.4162  3.9415   3
   3  -7   1 98.3260  4.0000   4
   3   7   1 88.8738  3.9513   4
   3   7   1 90.8670  4.4719   1
  -3   7  -1 94.5453  4.4390   2
  -4  -7  -1 108.639   4.532   3
   4  -7   1 106.537   4.788   3
   4  -7   1 105.323   4.668   4
  -4   7  -1 105.392   4.861   2
   4   7   1 97.7411  4.9557   1
   4   7   1 109.079   4.807   4
   5  -7   1 39.2124  3.1834   3
   5  -7   1 36.3077  3.0471   4
  -5  -7  -1 43.2297  3.1001   3
   5   7   1 40.3027  3.2999   4
   5   7   1 43.6940  3.3844   1
  -5   7  -1 38.9973  3.1345   2
   6  -7   1 1.13088 0.88709   4
  -6  -7  -1 1.88172 1.31302   3
  -6   7  -1 2.68003 0.94054   3
   6   7   1 3.04880 1.44720   4
  -6   7  -1 3.08699 1.57341   2
   7  -8  -1 3.29910 1.32624   4
  -7  -8   1 3.14221 1.43579   3
   7   8  -1 3.27479 1.23989   4
  -7   8   1 1.83654 0.94472   3
  -7   8   1 5.81893 1.49331   2
  -6  -8   1 88.7817  4.6252   3
   6  -8  -1 86.9551  4.7790   4
   6   8  -1 96.6450  5.2996   1
  -6   8   1 86.6827  4.2089   3
  -6   8   1 86.3261  4.6108   2
   6   8  -1 82.2994  4.4402   4
  -5  -8   1 66.3263  3.7665   3
   5  -8  -1 72.2759  4.1047   4
  -5   8   1 76.6890  4.1296   2
   5   8  -1 70.7800  3.6604   4
   5   8  -1 73.4040  4.5640   1
  -4  -8   1 52.6221  3.0559   3
   4  -8  -1 55.3414  3.2978   4
   4  -8  -1 52.9568  2.9012   3
  -4   8   1 59.3111  3.5024   2
   4   8  -1 55.5118  2.9133   4
   4   8  -1 56.4080  3.8336   1
  -3  -8   1 68.7686  3.2668   3
   3  -8  -1 61.2333  2.7926   3
  -3  -8   1 68.5748  2.2311   2
   3  -8  -1 69.6199  3.4077   4
   3   8  -1 60.4503  3.6785   1
   3   8  -1 66.4315  2.7827   4
  -3   8   1 71.5756  3.4759   2
   2  -8  -1 11.6110  1.0837   3
  -2  -8   1 9.82290 1.38043   3
   2  -8  -1 10.1459  1.4860   4
   2   8  -1 10.9828  0.9396   2
   2   8  -1 11.5790  1.5975   1
   2   8  -1 10.5369  0.9983   4
  -2   8   1 10.3696  0.9716   1
  -2   8   1 9.98531 1.41137   2
  -1  -8   1 47.8747  1.9320   4
   1  -8  -1 46.7284  2.4485   4
  -1  -8   1 47.2508  2.5691   3
   1  -8  -1 48.4652  2.1162   3
   1   8  -1 50.0956  2.1021   2
   1   8  -1 51.0169  2.6491   1
  -1   8   1 49.5727  2.5160   2
  -1   8   1 52.3690  2.3243   1
   0  -8  -1 465.705  11.054   4
   0  -8  -1 477.274  11.001   3
   0  -8   1 474.556  10.547   4
   0  -8   1 441.235  11.448   3
   0   8   1 454.916  12.010   1
   0   8  -1 473.025  11.731   1
   0   8   1 470.410  11.197   2
   0   8  -1 459.028  11.639   2
   1  -8   1 554.024  13.329   3
  -1  -8  -1 536.335  12.658   4
   1  -8   1 529.512  12.475   4
  -1  -8  -1 536.145  12.694   3
  -1   8  -1 569.112  13.204   1
  -1   8  -1 545.219  14.028   2
   1   8   1 543.468  12.369   2
  -2  -8  -1 29.9076  1.9785   3
   2  -8   1 33.1940  2.0658   4
   2  -8   1 25.9934  2.0774   3
  -2   8  -1 38.6459  2.6799   2
   2   8   1 27.1668  2.4488   1
   2   8   1 30.8314  2.1106   4
   3  -8   1 18.0712  2.0263   3
  -3  -8  -1 18.1234  1.8726   3
   3  -8   1 23.7174  2.0968   4
   3   8   1 20.5364  2.3981   1
   3   8   1 17.1174  1.9778   4
  -3   8  -1 22.5451  2.3630   2
   4  -8   1 558.984  14.336   4
   4  -8   1 538.830  14.633   3
  -4  -8  -1 562.738  14.323   3
   4   8   1 561.896  14.477   4
  -4   8  -1 551.719  15.203   2
   4   8   1 527.865  15.657   1
   5  -8   1 46.6941  3.3939   4
   5  -8   1 52.4168  3.6026   3
  -5  -8  -1 45.1558  3.1712   3
   5   8   1 43.9692  3.3816   4
   5   8   1 44.4420  3.5272   1
  -5   8  -1 47.1561  3.4984   2
  -6  -8  -1 5.64230 1.69535   3
   6  -8   1 2.33866 1.09757   4
  -6   8  -1 3.89255 1.14468   3
   6   8   1 3.53585 1.46052   4
  -6   8  -1 6.87909 1.65094   2
  -7  -9   1 8.80321 2.15945   3
   7  -9  -1 11.7633  2.3585   4
   7   9  -1 11.2741  2.0755   4
  -7   9   1 10.4927  1.7090   3
  -7   9   1 14.2535  2.2102   2
  -6  -9   1 106.455   5.323   3
   6  -9  -1 110.336   5.488   4
   6   9  -1 113.431   5.276   4
  -6   9   1 116.424   5.524   2
   6   9  -1 112.143   5.963   1
  -6   9   1 116.708   4.975   3
  -5  -9   1 268.962   8.745   3
   5  -9  -1 258.571   8.293   3
   5  -9  -1 255.924   8.738   4
   5   9  -1 277.646   9.882   1
  -5   9   1 258.645   8.921   2
   5   9  -1 272.743   8.283   4
   4  -9  -1 285.600   8.292   3
   4  -9  -1 279.337   8.814   4
  -4  -9   1 302.812   8.884   3
  -4   9   1 281.483   9.141   2
   4   9  -1 287.141  10.075   1
   4   9  -1 287.088   8.099   4
  -3  -9   1 1063.82   24.59   3
   3  -9  -1 1071.79   24.00   3
   3  -9  -1 1072.58   24.39   4
   3   9  -1 1092.69   23.48   4
  -3   9   1 1047.20   25.65   2
   3   9  -1 1064.93   26.97   1
  -2  -9   1 851.984  18.133   4
   2  -9  -1 860.824  19.383   4
   2  -9  -1 832.269  18.890   3
  -2  -9   1 816.014  19.500   3
   2   9  -1 855.087  21.266   1
  -2   9   1 805.174  20.338   2
   2   9  -1 837.758  19.017   2
  -2   9   1 853.734  19.462   1
  -1  -9   1 1027.99   23.03   3
  -1  -9   1 1032.63   21.44   4
   1  -9  -1 1036.69   22.29   3
   1  -9  -1 1035.79   22.43   4
   1   9  -1 985.460  24.256   1
  -1   9   1 954.342  23.433   2
   1   9  -1 993.749  22.991   2
  -1   9   1 997.677  23.530   1
   0  -9   1 4402.66   90.64   3
   0  -9  -1 4462.73   88.21   4
   0  -9  -1 4489.62   90.04   3
   0  -9   1 4341.04   87.65   4
   0   9   1 4032.73   95.30   1
   0   9  -1 4295.00   95.21   1
   0   9  -1 4212.10   93.55   2
   0   9   1 4187.15   92.89   2
  -1  -9  -1 1151.36   25.39   4
   1  -9   1 1186.50   26.47   3
  -1  -9  -1 1165.82   25.81   3
   1  -9   1 1187.46   25.30   4
   1   9   1 1168.75   25.87   2
  -1   9  -1 1220.02   27.77   2
   1   9   1 1064.86   27.98   1
  -1   9  -1 1234.70   27.11   1
   2  -9   1 77.4529  3.3104   4
   2  -9   1 79.2923  3.6362   3
  -2  -9  -1 74.6741  3.2720   3
   2   9   1 79.6323  4.1364   1
   2   9   1 85.4545  3.6033   4
  -2   9  -1 79.2164  3.9614   2
   3  -9   1 8.21478 1.52421   4
   3  -9   1 11.0173  1.8214   3
  -3  -9  -1 8.81948 1.56242   3
  -3   9  -1 7.33767 1.74688   2
   3   9   1 9.08979 1.60039   4
   3   9   1 9.48116 1.95498   1
   4  -9   1 74.6419  4.0451   4
   4  -9   1 81.7802  4.2371   3
  -4  -9  -1 82.5847  4.0224   3
   4   9   1 76.8592  4.6258   1
  -4   9  -1 73.9528  4.3164   2
   4   9   1 86.1554  4.3073   4
   5  -9   1 19.5064  2.5542   3
   5  -9   1 17.3731  2.3927   4
  -5  -9  -1 19.2735  2.3869   3
  -5   9  -1 17.1489  2.5546   2
   5   9   1 19.7941  2.5192   4
   5   9   1 19.4098  2.7342   1
   6  -9   1 14.8233  2.3517   4
  -6  -9  -1 13.7013  2.3847   3
   6   9   1 11.4727  2.3479   4
  -6   9  -1 17.1410  2.2709   3
   6   9   1 18.3709  2.7606   1
  -6   9  -1 16.8230  2.4612   2
   6 -10  -1 27.9233  3.0008   4
  -6 -10   1 25.0269  2.8145   3
   6  10  -1 22.1609  3.0098   1
  -6  10   1 23.4030  2.1855   3
  -6  10   1 24.2400  2.7846   2
   6  10  -1 20.9278  2.4956   4
  -5 -10   1 83.1959  4.4221   3
   5 -10  -1 70.0664  3.9400   3
   5 -10  -1 82.1494  4.5165   4
   5  10  -1 73.8034  4.7217   1
   5  10  -1 81.9268  4.0335   4
  -5  10   1 82.9879  4.5895   2
   4 -10  -1 414.457  11.179   3
   4 -10  -1 412.782  11.810   4
  -4 -10   1 420.926  11.741   3
  -4  10   1 401.054  12.168   2
   4  10  -1 424.632  10.995   4
   4  10  -1 425.440  13.208   1
  -3 -10   1 82.3619  3.8891   3
   3 -10  -1 77.6349  3.3316   3
   3 -10  -1 80.2646  3.9144   4
   3  10  -1 84.8870  4.5965   1
   3  10  -1 75.9106  3.2293   4
  -3  10   1 72.4250  4.0013   2
  -2 -10   1 2787.71   55.94   4
  -2 -10   1 2742.39   58.46   3
   2 -10  -1 2838.14   57.78   3
   2 -10  -1 2639.55   57.16   4
  -2  10   1 2509.37   60.42   2
   2  10  -1 2690.30   62.32   1
  -2  10   1 2814.75   60.36   1
   2  10  -1 2719.05   59.21   2
  -1 -10   1 13.6081  1.1797   4
   1 -10  -1 11.8772  1.2789   3
  -1 -10   1 18.0891  1.8654   3
   1 -10  -1 12.8080  1.5748   4
  -1  10   1 12.3923  1.5633   2
   1  10  -1 13.3814  1.3402   2
  -1  10   1 13.3226  1.3975   1
   1  10  -1 13.2798  1.8105   1
   0 -10   1 1085.20   23.36   4
   0 -10  -1 1140.96   24.22   3
   0 -10  -1 1099.34   23.88   4
   0 -10   1 1135.02   24.86   3
   0  10   1 1008.12   25.86   1
   0  10   1 1028.75   24.70   2
   0  10  -1 1097.62   25.89   1
   0  10  -1 1090.73   25.51   2
  -1 -10  -1 300.399   8.093   3
   1 -10   1 301.217   8.665   3
  -1 -10  -1 297.335   8.020   4
   1 -10   1 303.581   7.918   4
  -1  10  -1 321.968   8.289   1
   1  10   1 292.694   9.294   1
  -1  10  -1 317.631   9.164   2
   1  10   1 298.782   7.521   2
   2 -10   1 1256.39   29.01   3
  -2 -10  -1 1288.60   28.56   3
   2 -10   1 1268.15   27.96   4
   2  10   1 1251.83   31.17   1
  -2  10  -1 1317.22   30.35   2
   3 -10   1 289.449   8.993   3
   3 -10   1 302.448   8.784   4
  -3 -10  -1 292.205   8.690   3
   3  10   1 305.571   8.919   4
  -3  10  -1 305.831   9.640   2
   3  10   1 294.024  10.030   1
   4 -10   1 126.097   5.277   4
   4 -10   1 108.508   5.087   3
  -4 -10  -1 112.213   4.899   3
   4  10   1 115.871   5.186   4
   4  10   1 107.680   5.668   1
  -4  10  -1 114.549   5.493   2
   5 -10   1 45.9702  3.3267   4
  -5 -10  -1 40.5258  3.0643   3
   5 -10   1 39.8410  3.1963   3
   5  10   1 41.1860  3.2899   4
   5  10   1 35.1732  3.4103   1
  -5  10  -1 38.9023  3.3873   2
  -6 -10  -1 28.3896  3.2253   3
   6 -10   1 21.4853  2.8589   4
   6  10   1 24.9833  3.1752   4
  -6  10  -1 26.8619  2.9641   2
  -6  10  -1 30.7386  2.6170   3
   6  10   1 27.0640  3.1069   1
   6 -11  -1 39.4635  3.1718   4
  -6 -11   1 45.7187  3.4563   3
  -6  11   1 41.2847  2.8946   3
   6  11  -1 38.1988  3.1314   4
   6  11  -1 50.3891  3.9403   1
  -6  11   1 43.6052  3.5654   2
   5 -11  -1 17.9768  2.2801   3
  -5 -11   1 18.7528  2.4345   3
   5 -11  -1 14.3551  2.3292   4
  -5  11   1 15.0523  2.4531   2
   5  11  -1 13.2152  2.5186   1
   5  11  -1 13.1466  2.0334   4
  -4 -11   1 27.4375  2.6828   3
   4 -11  -1 28.0597  2.7980   4
   4 -11  -1 25.8894  2.3876   3
   4  11  -1 26.5788  3.0487   1
  -4  11   1 22.5340  2.6915   2
   4  11  -1 26.7347  2.2282   4
  -3 -11   1 12.6634  1.8946   3
   3 -11  -1 13.6347  1.9774   4
   3 -11  -1 9.51895 1.44862   3
  -3  11   1 10.6107  2.0052   2
   3  11  -1 13.5644  2.3712   1
   3  11  -1 10.8616  1.4407   4
   2 -11  -1 18.4763  1.7597   3
  -2 -11   1 22.7959  2.2316   3
  -2 -11   1 20.7709  1.5053   4
   2 -11  -1 17.6493  2.0425   4
   2  11  -1 17.4882  2.3218   1
   2  11  -1 23.2110  1.6280   2
  -2  11   1 18.0439  2.0878   2
  -1 -11   1 32.3194  1.7313   4
   1 -11  -1 37.6364  2.1341   3
  -1 -11   1 37.4634  2.4853   3
   1 -11  -1 29.7221  2.2684   4
  -1  11   1 35.8695  2.3217   1
  -1  11   1 30.2873  2.3952   2
   1  11  -1 35.8912  2.2898   2
   1  11  -1 35.4002  2.7282   1
   0 -11  -1 533.215  12.801   3
   0 -11   1 494.106  12.172   4
   0 -11  -1 519.735  12.771   4
   0 -11   1 537.878  13.430   3
   0  11   1 523.392  13.996   1
   0  11  -1 561.232  14.044   1
   0  11  -1 566.988  13.902   2
   0  11   1 465.121  12.831   2
  -1 -11  -1 49.8334  2.6252   3
   1 -11   1 45.1841  2.4173   4
   1 -11   1 45.4840  2.9237   3
  -1 -11  -1 44.6452  2.6096   4
   1  11   1 49.3983  3.1835   1
  -1  11  -1 49.7536  3.0877   2
  -1  11  -1 52.6545  2.4286   1
   1  11   1 45.2710  2.0335   2
   2 -11   1 165.746   5.516   4
  -2 -11  -1 156.693   5.355   4
   2 -11   1 162.714   5.898   3
  -2 -11  -1 165.319   5.554   3
   2  11   1 155.682   6.422   1
  -2  11  -1 153.428   6.033   2
   3 -11   1 5.51201 1.68567   3
  -3 -11  -1 8.74300 1.67283   3
   3 -11   1 6.87134 1.58636   4
  -3  11  -1 8.19289 1.88405   2
   3  11   1 5.81791 1.56383   4
   3  11   1 7.58571 2.06606   1
   4 -11   1 98.2171  4.7632   4
   4 -11   1 97.1010  4.8242   3
  -4 -11  -1 95.0769  4.6014   3
   4  11   1 90.9409  5.2576   1
   4  11   1 98.4481  4.7668   4
  -4  11  -1 88.5254  4.9622   2
   5 -11   1 47.3359  3.3247   4
  -5 -11  -1 41.3896  3.1225   3
   5 -11   1 45.2061  3.4193   3
  -5  11  -1 42.5096  3.4708   2
   5  11   1 42.6261  3.3126   4
   5  11   1 39.3898  3.4819   1
   6 -12  -1 12.4489  2.2084   4
  -6 -12   1 13.9095  2.4087   3
  -6  12   1 11.4490  2.2754   2
   6  12  -1 15.9929  2.3420   4
   6  12  -1 11.2872  2.2998   1
  -6  12   1 12.5834  1.8054   3
   5 -12  -1 79.0602  4.1370   3
   5 -12  -1 73.6181  4.4545   4
  -5 -12   1 72.5953  4.3214   3
   5  12  -1 75.4163  4.0271   4
   5  12  -1 72.5879  4.7669   1
  -5  12   1 71.7754  4.5406   2
   4 -12  -1 119.103   4.815   3
   4 -12  -1 122.796   5.519   4
  -4 -12   1 122.818   5.421   3
   4  12  -1 123.674   6.070   1
  -4  12   1 105.468   5.409   2
   4  12  -1 112.393   4.638   4
   3 -12  -1 3.02007 1.42436   4
   3 -12  -1 1.87179 1.11490   3
  -3 -12   1 2.00643 0.94304   4
  -3 -12   1 2.15777 1.38382   3
   3  12  -1 3.28799 1.71616   1
  -3  12   1 2.76943 1.43956   2
   2 -12  -1 86.1665  3.7388   3
  -2 -12   1 96.0585  3.4521   4
   2 -12  -1 98.7899  4.4159   4
  -2 -12   1 92.6040  4.3567   3
  -2  12   1 99.5736  3.6303   1
   2  12  -1 99.2623  3.7049   2
   2  12  -1 98.2661  5.0185   1
  -2  12   1 96.5409  4.6277   2
  -1 -12   1 3.40853 0.80802   4
   1 -12  -1 4.59007 1.15842   3
  -1 -12   1 4.43655 1.40758   3
   1 -12  -1 3.63654 1.22025   4
   1  12  -1 3.24568 1.13484   2
  -1  12   1 3.30748 1.25570   2
   1  12  -1 3.43913 1.39002   1
  -1  12   1 4.54840 1.24297   1
   0 -12   1 21.2781  2.1146   3
   0 -12  -1 21.1608  1.9423   3
   0 -12   1 24.1736  1.7664   4
   0 -12  -1 23.6024  2.1057   4
   0  12  -1 24.2092  2.3176   2
   0  12   1 19.6836  1.8933   2
   0  12   1 22.5112  2.2620   1
   0  12  -1 22.6664  2.1640   1
   1 -12   1 160.240   5.919   3
  -1 -12  -1 153.568   5.373   3
   1 -12   1 160.548   5.255   4
  -1 -12  -1 159.283   5.400   4
  -1  12  -1 171.488   5.302   1
   1  12   1 156.649   4.773   2
  -1  12  -1 162.981   6.003   2
   1  12   1 164.514   6.360   1
  -2 -12  -1 1042.60   24.19   4
   2 -12   1 1073.27   24.44   4
   2 -12   1 1050.29   25.36   3
  -2 -12  -1 1073.83   24.86   3
  -2  12  -1 1124.39   26.60   2
   2  12   1 1095.44   27.38   1
  -3 -12  -1 255.883   8.119   3
   3 -12   1 252.192   8.400   3
   3 -12   1 251.962   8.053   4
  -3  12  -1 255.897   8.860   2
   3  12   1 243.042   9.148   1
   4 -12   1 6.92986 1.79123   4
   4 -12   1 2.51071 1.54422   3
  -4 -12  -1 5.19666 1.55173   3
   4  12   1 3.00077 1.49116   4
  -4  12  -1 8.04582 2.09044   2
   4  12   1 5.89634 1.85735   1
  -5 -12  -1 45.4045  3.3076   3
   5 -12   1 46.3102  3.5234   3
   5 -12   1 52.7430  3.6278   4
   5  12   1 52.7008  3.6662   4
  -5  12  -1 49.9783  3.8389   2
   5  12   1 45.9998  3.7685   1
   6 -13  -1 5.85205 1.68787   4
  -6 -13   1 5.32387 1.97126   3
   6  13  -1 4.66522 1.45039   1
  -6  13   1 6.92820 2.08730   2
  -5 -13   1 61.9279  4.0548   3
   5 -13  -1 60.8941  4.0449   4
   5 -13  -1 58.2881  3.7034   3
  -5  13   1 55.9456  4.0354   2
   5  13  -1 58.1185  4.1594   1
   5  13  -1 60.5037  3.6582   4
   4 -13  -1 327.146   9.592   3
  -4 -13   1 313.869  10.189   3
   4 -13  -1 327.423  10.384   4
   4  13  -1 314.430  11.103   1
  -4  13   1 309.064  10.587   2
   4  13  -1 337.751   9.380   4
  -3 -13   1 578.707  15.261   3
   3 -13  -1 569.244  14.339   3
   3 -13  -1 556.016  15.027   4
  -3 -13   1 587.263  13.573   4
  -3  13   1 544.039  15.565   2
   3  13  -1 553.381  16.386   1
  -2 -13   1 652.218  15.128   4
   2 -13  -1 661.895  16.492   4
   2 -13  -1 642.398  15.912   3
  -2 -13   1 660.555  16.840   3
   2  13  -1 659.480  16.004   2
  -2  13   1 651.994  16.246   1
  -2  13   1 667.149  17.332   2
   2  13  -1 655.106  18.002   1
  -1 -13   1 947.841  22.834   3
  -1 -13   1 987.255  21.197   4
   1 -13  -1 943.964  22.121   4
   1 -13  -1 969.328  22.149   3
  -1  13   1 949.602  23.452   1
   1  13  -1 966.481  22.889   2
  -1  13   1 963.837  23.296   2
   1  13  -1 940.015  24.065   1
   0 -13  -1 1073.24   24.13   3
   0 -13   1 1087.72   23.39   4
   0 -13  -1 1084.00   23.92   4
   0 -13   1 1041.77   24.78   3
   0  13  -1 1096.55   25.74   1
   0  13  -1 1016.67   25.12   2
   0  13   1 1008.61   24.60   2
   0  13   1 1025.17   25.83   1
  -1 -13  -1 230.027   7.081   4
   1 -13   1 239.613   7.785   3
  -1 -13  -1 223.144   7.190   3
   1 -13   1 224.529   6.924   4
  -1  13  -1 242.275   7.850   2
  -1  13  -1 237.544   7.059   1
   1  13   1 238.323   8.329   1
  -2 -13  -1 2.79655 1.38539   3
   2 -13   1 3.42610 1.49026   3
   2 -13   1 5.02569 1.41767   4
  -2 -13  -1 2.47214 1.19012   4
   2  13   1 2.31015 1.50127   1
  -2  13  -1 2.56126 1.47908   2
   3 -13   1 26.4082  2.6122   4
   3 -13   1 21.1547  2.6112   3
  -3 -13  -1 25.7262  2.5443   3
  -3 -13  -1 25.0908  2.2911   4
   3  13   1 27.0723  3.1471   1
  -3  13  -1 29.1108  2.9988   2
   4 -13   1 64.9430  3.9722   4
   4 -13   1 68.3874  4.2333   3
  -4 -13  -1 64.3821  3.9713   3
   4  13   1 68.8015  4.1336   4
  -4  13  -1 66.3643  4.3515   2
   4  13   1 62.4457  4.4257   1
   5 -13   1 22.7224  2.6778   4
   5 -13   1 16.4814  2.5744   3
  -5 -13  -1 19.9089  2.5604   3
   5  13   1 22.4532  2.6918   4
   5  13   1 22.7665  3.0502   1
  -5  13  -1 18.8275  2.8534   2
  -6 -14   1 36.2203  3.9168   3
   6 -14  -1 41.1686  3.5642   4
   6  14  -1 37.7667  3.5708   1
  -6  14   1 42.0339  4.0779   2
  -5 -14   1 40.3256  3.3410   3
   5 -14  -1 40.3457  3.1658   3
   5 -14  -1 35.5286  3.1610   4
   5  14  -1 31.1562  3.4771   1
  -5  14   1 32.5743  3.4068   2
   4 -14  -1 12.7958  2.3184   4
  -4 -14   1 13.7856  2.3621   3
   4 -14  -1 10.2332  1.8759   3
  -4  14   1 12.3802  2.3838   2
   4  14  -1 10.7127  2.2293   1
  -3 -14   1 91.8578  3.8177   4
   3 -14  -1 98.6242  4.3451   3
  -3 -14   1 100.745   4.935   3
   3 -14  -1 94.0829  4.8666   4
   3  14  -1 87.5760  5.0825   1
  -3  14   1 94.4796  4.9616   2
   2 -14  -1 35.4018  2.5734   3
  -2 -14   1 40.9260  2.3989   4
   2 -14  -1 41.2543  3.1256   4
  -2 -14   1 32.5406  2.7965   3
  -2  14   1 35.0096  2.4633   1
  -2  14   1 44.6490  3.2803   2
   2  14  -1 42.9344  3.3495   1
   1 -14  -1 30.8435  2.5115   4
  -1 -14   1 33.7679  2.1449   4
   1 -14  -1 29.3536  2.3746   3
  -1 -14   1 29.8447  2.6534   3
   1  14  -1 26.2224  2.5952   1
  -1  14   1 26.6601  2.5941   2
  -1  14   1 23.3530  2.3650   1
   1  14  -1 29.4451  2.2867   2
   0 -14   1 9.67708 1.49860   4
   0 -14   1 9.78332 1.88104   3
   0 -14  -1 10.2908  1.7386   4
   0 -14  -1 8.34549 1.59458   3
   0  14   1 7.36385 1.69031   1
   0  14  -1 8.63225 1.60578   1
   0  14   1 9.57959 1.57240   2
   0  14  -1 9.82951 1.66138   2
   1 -14   1 296.999   8.678   4
  -1 -14  -1 300.067   8.837   4
  -1 -14  -1 303.641   9.023   3
   1 -14   1 294.538   9.453   3
   1  14   1 312.928  10.121   1
  -1  14  -1 322.609   8.918   1
  -1  14  -1 321.507   9.741   2
  -2 -14  -1 61.5583  3.4587   4
  -2 -14  -1 53.3161  3.3904   3
   2 -14   1 64.1674  3.4970   4
   2 -14   1 64.3274  3.8791   3
  -2  14  -1 68.0827  4.0203   2
   2  14   1 66.4026  4.3200   1
  -3 -14  -1 31.3950  2.5723   4
   3 -14   1 31.2419  3.0395   3
   3 -14   1 29.6489  2.7821   4
  -3 -14  -1 28.7291  2.7915   3
   3  14   1 30.0020  3.3581   1
  -3  14  -1 34.1241  3.1387   2
   4 -14   1 79.4506  4.5265   4
   4 -14   1 80.2209  4.6565   3
  -4 -14  -1 78.9017  4.4369   3
  -4  14  -1 80.6241  4.7964   2
   4  14   1 82.3991  5.1182   1
  -5 -14  -1 2.93157 1.36573   3
   5 -14   1 2.29236 1.56193   3
  -5  14  -1 2.93250 1.69111   2
   5  14   1 3.69248 1.38758   1
   5  14   1 -0.0804  0.9624   4
  -5 -15   1 1.99087 1.33497   3
   5 -15  -1 4.55917 1.29021   4
  -5  15   1 0.39795 1.23739   2
   5  15  -1 0.77778 0.97224   1
   4 -15  -1 6.07419 1.67833   3
  -4 -15   1 5.93376 1.80140   3
   4 -15  -1 2.29262 1.76258   4
  -4  15   1 4.38373 1.74802   2
   4  15  -1 2.84244 1.48066   1
   3 -15  -1 74.2665  4.4116   4
   3 -15  -1 73.2873  3.9069   3
  -3 -15   1 77.8440  4.5299   3
  -3  15   1 85.1279  4.7589   2
   3  15  -1 79.4771  4.8212   1
   2 -15  -1 19.6387  2.1581   3
   2 -15  -1 27.2028  2.7609   4
  -2 -15   1 22.5177  2.6195   3
   2  15  -1 21.0621  2.6734   1
  -2  15   1 28.2307  2.7851   2
  -1 -15   1 413.940  12.126   3
   1 -15  -1 438.074  11.765   4
   1 -15  -1 439.873  11.629   3
   1  15  -1 424.983  12.657   1
  -1  15   1 458.113  12.321   2
   1  15  -1 399.992  11.551   2
  -1  15   1 436.910  12.261   1
   0 -15  -1 12.3769  1.8407   4
   0 -15   1 14.0801  1.8394   4
   0 -15   1 10.1946  1.9702   3
   0 -15  -1 13.0238  1.8147   3
   0  15  -1 14.2182  1.9320   2
   0  15   1 14.7309  1.8500   2
   0  15   1 14.9885  2.1495   1
   0  15  -1 16.2673  2.0461   1
   1 -15   1 142.741   6.045   3
  -1 -15  -1 140.306   5.590   3
   1 -15   1 142.522   5.423   4
  -1 -15  -1 144.148   5.513   4
   1  15   1 158.572   6.569   1
  -1  15  -1 159.852   6.185   2
   2 -15   1 2.47259 1.26869   4
   2 -15   1 -0.3633  1.3215   3
  -2 -15  -1 2.04273 1.21374   4
  -2 -15  -1 1.24950 1.28091   3
   2  15   1 0.98355 1.43269   1
  -2  15  -1 1.71563 1.35144   2
  -3 -15  -1 4.56212 1.49635   4
  -3 -15  -1 7.08832 1.88475   3
   3 -15   1 5.57025 1.66479   4
   3 -15   1 4.58702 1.80765   3
  -3  15  -1 5.86492 1.79041   2
   3  15   1 4.32620 1.77428   1
  -4 -15  -1 9.04228 1.90400   3
   4 -15   1 9.47418 2.03584   3
   4 -15   1 8.21611 1.97984   4
  -4 -15  -1 11.0808  1.8861   4
  -4  15  -1 9.40847 2.08570   2
   4  15   1 9.83252 2.10672   1
   5 -16  -1 338.043  11.384   4
  -5 -16   1 343.469  11.659   3
  -5  16   1 325.066  11.738   2
   5  16  -1 317.660  11.994   1
   4 -16  -1 1.81140 1.35931   4
  -4 -16   1 0.31623 1.29457   3
   4  16  -1 -0.0359  1.2433   1
  -4  16   1 1.10104 1.37658   2
  -3 -16   1 128.280   5.975   3
   3 -16  -1 119.178   5.819   4
   3 -16  -1 120.296   5.290   3
   3  16  -1 128.503   6.264   1
  -3  16   1 133.915   6.119   2
   2 -16  -1 15.8261  2.0923   3
  -2 -16   1 14.1448  2.3546   3
   2 -16  -1 10.6784  2.2002   4
   2  16  -1 11.6008  2.1977   1
  -2  16   1 15.6284  2.3601   2
  -1 -16   1 2.78007 1.51641   3
   1 -16  -1 0.64534 1.20946   4
   1 -16  -1 2.48715 1.37586   3
   1  16  -1 8.00403 1.62581   2
  -1  16   1 1.40531 1.17874   1
   1  16  -1 -0.8300  1.0314   1
  -1  16   1 8.85652 1.85954   2
   0 -16  -1 88.2818  4.2354   4
   0 -16  -1 85.9278  4.1656   3
   0 -16   1 95.9391  4.7297   3
   0  16   1 85.4978  4.5948   1
   0  16  -1 88.1185  4.3696   1
   0  16  -1 97.0977  4.5517   2
   0  16   1 88.3944  4.1538   2
  -1 -16  -1 17.3424  2.2441   3
  -1 -16  -1 16.0835  2.1068   4
   1 -16   1 13.9935  2.4281   3
   1 -16   1 18.2048  2.1500   4
  -1  16  -1 14.4148  2.1577   2
   1  16   1 15.9891  2.4906   1
   2 -16   1 193.016   7.614   3
  -2 -16  -1 204.367   7.107   4
  -2 -16  -1 201.680   7.376   3
   2 -16   1 198.851   7.093   4
   2  16   1 215.461   8.370   1
  -2  16  -1 200.369   7.786   2
   3 -16   1 318.696  10.234   4
  -3 -16  -1 342.240  10.229   4
   3 -16   1 327.149  10.894   3
  -3 -16  -1 342.406  10.738   3
   3  16   1 348.539  11.923   1
  -3  16  -1 325.209  11.148   2
  -4 -16  -1 65.5937  4.1240   3
   4 -16   1 69.5605  4.1620   4
   4 -16   1 63.3539  4.2761   3
  -4 -16  -1 62.3401  3.7301   4
   4  16   1 59.1521  4.4802   1
  -4  16  -1 66.7240  4.4474   2
  -5 -17   1 0.83259 1.79512   3
   5 -17  -1 2.21057 1.26492   4
   5  17  -1 2.28262 1.49237   1
  -5  17   1 1.89751 2.15723   2
  -4 -17   1 281.716  10.253   3
   4 -17  -1 283.899  10.067   4
   4  17  -1 288.541  10.763   1
  -4  17   1 277.012  10.224   2
  -3 -17   1 371.190  12.120   3
   3 -17  -1 371.319  11.808   4
   3  17  -1 380.165  12.717   1
  -3  17   1 394.686  12.317   2
   2 -17  -1 178.240   7.119   4
   2 -17  -1 190.360   6.786   3
  -2 -17   1 176.057   7.187   3
   2  17  -1 194.718   7.786   1
  -2  17   1 193.634   7.405   2
   1 -17  -1 143.193   5.935   4
  -1 -17   1 135.702   6.016   3
   1 -17  -1 157.612   5.917   3
   1  17  -1 141.185   6.215   1
  -1  17   1 144.454   5.989   1
   1  17  -1 142.668   5.580   2
  -1  17   1 164.771   6.282   2
   0 -17  -1 164.880   6.364   4
   0 -17   1 172.261   6.877   3
   0 -17  -1 173.097   6.391   3
   0  17  -1 173.716   6.596   2
   0  17   1 183.506   6.419   2
   0  17  -1 168.867   6.584   1
   0  17   1 190.018   7.278   1
   1 -17   1 450.050  13.185   3
  -1 -17  -1 425.022  12.418   3
  -1 -17  -1 436.588  12.189   4
  -1  17  -1 453.186  13.095   2
   1  17   1 459.131  13.729   1
   2 -17   1 117.842   5.851   3
  -2 -17  -1 127.776   5.429   4
  -2 -17  -1 117.140   5.515   3
  -2  17  -1 112.868   5.581   2
   2  17   1 116.111   6.002   1
  -3 -17  -1 41.3368  3.1377   4
  -3 -17  -1 52.0541  3.8234   3
   3 -17   1 44.6411  3.5689   3
  -3  17  -1 41.9369  3.4815   2
   3  17   1 40.3525  3.7174   1
   4 -17   1 7.96158 2.04399   3
  -4 -17  -1 9.33656 1.95094   3
  -4 -17  -1 8.85733 1.55118   4
  -4  17  -1 6.07948 2.12109   2
   4  17   1 7.49182 2.06015   1
   4 -18  -1 1.97875 1.16901   4
  -4 -18   1 -0.7921  1.2344   3
   4  18  -1 1.79047 1.43506   1
  -4  18   1 1.49872 1.42519   2
   3 -18  -1 6.96477 2.04569   4
  -3 -18   1 5.86932 1.77965   3
   3  18  -1 8.77046 2.22620   1
  -3  18   1 11.9648  2.3003   2
  -2 -18   1 1.80680 1.40872   3
   2 -18  -1 0.01477 1.33773   4
   2  18  -1 0.36901 1.36450   1
  -2  18   1 0.62020 1.37294   2
   1 -18  -1 2.63562 1.50901   3
   1 -18  -1 -0.6934  1.3364   4
  -1 -18   1 -0.8105  1.2336   3
  -1  18   1 -0.2242  1.1931   2
  -1  18   1 -0.0400  1.2753   1
   1  18  -1 0.19075 1.19022   1
   0 -18  -1 15.2056  2.1958   3
   0 -18   1 12.6681  2.3139   3
   0 -18  -1 15.8842  2.2722   4
   0  18  -1 19.9453  2.3927   2
   0  18   1 17.4638  2.5856   1
   0  18  -1 15.7325  2.1821   1
   1 -18   1 54.6247  3.9534   3
  -1 -18  -1 58.1931  3.6667   4
  -1 -18  -1 55.8950  3.6727   3
  -1  18  -1 56.3645  3.8056   2
   1  18   1 55.0730  4.0372   1
   2 -18   1 72.8132  4.5668   3
  -2 -18  -1 70.7858  4.1054   4
  -2 -18  -1 76.0196  4.4699   3
  -2  18  -1 82.7761  4.6311   2
   2  18   1 82.3893  4.9366   1
  -3 -18  -1 4.75470 1.53725   3
  -3 -18  -1 4.35775 1.36315   4
   3 -18   1 4.11355 1.65764   3
  -3  18  -1 4.82990 1.65824   2
   3  18   1 6.57561 1.89784   1
  -4 -19   1 16.6746  3.0871   3
   4 -19  -1 20.8887  2.8519   4
  -4  19   1 18.4298  2.9461   2
   4  19  -1 18.3116  3.1870   1
   3 -19  -1 41.8499  3.4312   4
  -3 -19   1 32.3415  3.4070   3
   3  19  -1 36.6883  3.4090   1
   2 -19  -1 81.5465  4.7770   4
  -2 -19   1 89.6518  4.9031   3
   2  19  -1 88.7532  5.0451   1
  -2  19   1 87.0065  4.8330   2
   1 -19  -1 36.6964  3.2308   4
  -1 -19   1 35.0595  3.3693   3
   1  19  -1 32.4814  3.1129   1
  -1  19   1 33.7446  3.1438   1
  -1  19   1 30.7114  2.9205   2
   0 -19   1 40.4417  3.4174   3
   0 -19  -1 45.3066  3.3687   4
   0  19   1 46.0378  3.7361   1
   0  19  -1 39.7238  3.2040   2
   0  19  -1 37.0794  3.2682   1
  -1 -19  -1 18.1903  2.4020   4
   1 -19   1 15.7872  2.6195   3
  -1 -19  -1 14.5784  2.3580   3
  -1  19  -1 12.2394  2.1320   2
   1  19   1 15.6106  2.5721   1
  -2 -19  -1 47.2022  3.3710   4
   2 -19   1 43.3383  3.5522   3
  -2 -19  -1 43.1673  3.5647   3
  -2  19  -1 44.8642  3.4960   2
   2  19   1 46.4571  3.7890   1
  -3 -19  -1 71.7915  4.4622   3
   3 -19   1 79.6271  4.8382   3
   3  19   1 63.8459  4.9420   1
  -3  19  -1 75.4228  4.7796   2
  -3 -20   1 0.93564 1.33707   3
   3 -20  -1 2.88003 1.15531   4
   3  20  -1 2.60843 1.64530   1
  -3  20   1 3.88855 1.63475   2
  -2 -20   1 17.6250  2.6640   3
   2 -20  -1 17.4344  2.5390   4
  -2  20   1 11.3929  2.1517   2
   2  20  -1 15.2564  2.6209   1
  -1 -20   1 13.5060  2.3386   3
   1 -20  -1 18.1178  2.6395   4
   1  20  -1 14.5672  2.4160   1
  -1  20   1 16.1650  2.3986   2
   0 -20   1 9.21684 2.12338   3
   0 -20  -1 7.59153 1.93859   4
   0  20   1 8.17667 2.08308   1
   0  20  -1 7.22875 1.90988   2
  -1 -20  -1 28.8483  2.8916   4
   1 -20   1 31.1886  2.9511   3
   1  20   1 30.6667  3.3496   1
  -1  20  -1 24.8937  2.8110   2
   2 -20   1 143.993   6.697   3
  -2 -20  -1 143.892   6.405   3
   2  20   1 151.063   7.259   1
  -2  20  -1 138.647   6.496   2
  -2 -21   1 1.11544 1.21813   3
   2 -21  -1 1.35247 1.13733   4
   2  21  -1 1.81085 1.18909   1
  -2  21   1 1.72415 0.97622   2
   1 -21  -1 152.059   6.559   4
  -1 -21   1 140.357   6.509   3
   1  21  -1 152.526   6.748   1
   0 -21  -1 132.357   5.853   4
   0 -21   1 136.488   6.319   3
   0  21  -1 129.164   5.853   2
   0  21   1 132.999   6.298   1
   1 -21   1 63.7024  4.2208   3
   1  21   1 73.8207  4.8489   1
  -1  21  -1 58.4552  3.8797   2
  -1 -22   1 8.84831 2.05230   3
   1  22  -1 8.84801 1.85249   1
   0 -22   1 8.40787 2.05934   3
   0  22   1 7.06967 1.55398   1
  -7   0   2 107.387   4.881   3
   7   0  -2 107.336   5.258   4
  -6   0   2 442.180  12.007   3
   6   0  -2 454.250  12.375   4
  -6   0   2 437.742  11.783   2
  -5   0   2 620.330  15.190   2
   5   0  -2 612.870  15.131   4
  -5   0   2 618.150  15.047   3
   5   0  -2 623.231  15.802   1
   4   0  -2 85.1331  3.4154   4
   4   0  -2 89.1405  3.3406   1
  -4   0   2 82.8674  3.2332   2
  -4   0   2 84.8642  3.1839   3
  -3   0   2 3266.88   69.29   3
   3   0  -2 3312.82   73.28   1
  -3   0   2 3357.96   71.95   2
   3   0  -2 3334.37   68.08   4
   2   0  -2 9599.59  212.89   1
   2   0  -2 9539.63  196.82   4
  -2   0   2 9999.99  208.79   2
  -2   0   2 9189.64  200.46   3
   1   0  -2 500.670  10.940   4
  -1   0   2 524.915  12.047   1
  -1   0   2 514.979  11.123   3
  -1   0   2 486.726  11.744   2
   0   0   2 23.3028  1.2858   4
   0   0   2 22.4855  1.1762   3
   0   0   2 21.9307  1.3037   1
   0   0   2 23.1492  1.2606   2
   1   0   2 550.889  12.845   2
   1   0   2 531.366  12.389   4
   1   0   2 559.106  12.729   3
   1   0   2 555.526  13.103   1
  -2   0  -2 35.8199  1.8914   2
   2   0   2 37.5218  2.2160   4
   2   0   2 38.6191  2.2782   3
   2   0   2 40.8966  1.8906   1
   3   0   2 5.81968 0.87534   1
  -3   0  -2 4.88620 1.19733   3
   3   0   2 4.05681 1.15051   4
  -3   0  -2 4.52472 1.00423   2
   4   0   2 7.84788 1.67881   4
  -4   0  -2 5.10371 1.42390   3
  -5   0  -2 2.77864 1.18370   3
   5   0   2 3.99578 1.43876   4
  -6   0  -2 14.3029  2.3362   3
   6   0   2 14.6754  2.4708   4
  -7  -1   2 8.37883 1.63030   3
   7  -1  -2 4.70016 1.57690   4
   7   1  -2 7.72860 1.83338   4
  -7   1   2 7.00894 1.58260   3
   6  -1  -2 13.4072  2.0759   4
  -6  -1   2 14.9333  1.8594   3
  -6   1   2 14.8725  1.8748   3
   6   1  -2 14.1875  2.1245   4
  -6   1   2 14.7742  1.6969   2
  -5  -1   2 4.93217 1.09282   2
  -5  -1   2 2.88175 1.04733   3
   5  -1  -2 3.05613 1.21280   4
   5  -1  -2 9.38638 1.34995   1
   5   1  -2 3.89612 1.25223   4
  -5   1   2 3.41220 1.10374   2
   5   1  -2 4.06425 1.23726   1
  -5   1   2 3.18220 1.00567   3
  -4  -1   2 5.19883 0.91534   2
   4  -1  -2 3.40684 1.03028   4
  -4  -1   2 1.81355 0.73907   3
   4  -1  -2 2.56075 0.73170   1
   4   1  -2 1.72644 0.86433   4
  -4   1   2 2.83111 0.86010   2
   4   1  -2 2.84289 0.89190   1
  -4   1   2 5.02922 0.91756   3
  -3  -1   2 235.443   6.134   3
   3  -1  -2 240.147   6.381   1
  -3  -1   2 234.849   6.317   2
   3  -1  -2 238.978   6.346   4
   3   1  -2 241.759   6.147   4
   3   1  -2 237.598   6.575   1
  -3   1   2 234.892   5.954   3
  -3   1   2 231.131   6.399   2
  -2  -1   2 3987.56   83.27   2
   2  -1  -2 3797.22   78.55   4
  -2  -1   2 3797.78   80.72   3
   2  -1  -2 3802.31   85.92   1
   2   1  -2 3895.32   79.36   4
   2   1  -2 3886.72   86.51   1
  -2   1   2 3916.87   84.04   2
  -2   1   2 3802.05   80.85   3
   1  -1  -2 1164.98   24.87   4
  -1  -1   2 1207.29   25.43   3
  -1  -1   2 1179.52   26.36   2
  -1   1   2 1211.30   25.20   3
  -1   1   2 1156.90   26.86   1
   1   1  -2 1212.58   24.63   4
   1   1  -2 1206.93   26.86   1
   0  -1   2 359.407   8.097   4
   0  -1   2 353.046   8.794   1
   0  -1   2 372.144   8.465   3
   0  -1   2 362.092   8.746   2
   0   1   2 351.878   8.577   2
   0   1   2 364.063   8.952   1
   0   1   2 366.729   8.238   3
   0   1   2 362.355   8.343   4
   1  -1   2 713.679  16.176   1
   1  -1   2 677.920  15.266   4
   1  -1   2 696.817  16.088   2
   1  -1   2 686.561  15.759   3
   1   1   2 675.088  16.305   1
   1   1   2 700.724  15.627   3
   1   1   2 721.461  15.859   2
   1   1   2 686.706  15.413   4
  -2  -1  -2 1753.56   38.88   2
   2  -1   2 1741.66   37.39   4
   2  -1   2 1864.71   39.61   1
  -2  -1  -2 1777.73   37.98   3
   2  -1   2 1744.92   38.39   3
   2   1   2 1713.68   37.44   4
  -2   1  -2 1741.00   39.26   2
   2   1   2 1801.66   39.84   1
   3  -1   2 279.999   8.347   3
   3  -1   2 296.244   7.570   1
  -3  -1  -2 288.289   8.006   3
   3  -1   2 292.279   8.208   4
  -3  -1  -2 289.891   7.722   2
   3   1   2 275.600   8.129   4
   3   1   2 284.587   7.844   1
  -3   1  -2 267.372   8.105   2
  -4  -1  -2 139.144   5.294   3
   4  -1   2 140.445   5.579   4
  -4   1  -2 137.928   4.979   2
   4   1   2 144.863   5.678   4
  -4   1  -2 137.934   5.318   3
  -5  -1  -2 18.7586  2.2833   3
   5  -1   2 16.3623  2.3839   4
  -5   1  -2 19.0411  2.2890   3
   5   1   2 14.2327  2.2589   4
  -6  -1  -2 0.92985 1.24354   3
   6  -1   2 3.20032 1.39747   4
  -6   1  -2 2.29179 1.28734   3
   6   1   2 2.39940 1.05962   4
   7  -2  -2 5.70306 1.77887   4
  -7  -2   2 5.58797 1.38686   3
  -7   2   2 5.01245 1.35801   3
   7   2  -2 4.28753 1.56789   4
   6  -2  -2 -0.2908  1.0736   4
  -6  -2   2 0.06113 0.86526   3
   6   2  -2 -0.6291  1.0775   4
  -6   2   2 1.76784 0.95126   2
  -6   2   2 0.92257 1.03952   3
   6   2  -2 0.33746 1.28196   1
   5  -2  -2 2.26659 0.84388   1
  -5  -2   2 1.93250 0.90179   2
  -5  -2   2 4.17558 1.14112   3
   5  -2  -2 3.14642 1.29770   4
   5   2  -2 2.44861 1.12615   1
  -5   2   2 2.79130 1.00462   2
   5   2  -2 2.40157 1.11228   4
  -5   2   2 2.04514 0.94144   3
  -4  -2   2 34.5023  2.0276   3
   4  -2  -2 35.7718  1.8286   1
   4  -2  -2 33.5058  2.2218   4
  -4  -2   2 31.1105  1.7670   2
  -4   2   2 33.3242  1.8736   3
   4   2  -2 33.9107  2.2341   1
  -4   2   2 31.7387  1.9668   2
   4   2  -2 35.1953  2.0842   4
  -3  -2   2 245.025   6.450   3
   3  -2  -2 247.840   6.653   4
  -3  -2   2 241.766   6.428   2
   3  -2  -2 248.141   6.505   1
  -3   2   2 237.759   6.636   2
  -3   2   2 247.775   6.068   3
   3   2  -2 245.419   6.897   1
   3   2  -2 244.587   6.230   4
  -2  -2   2 660.740  15.183   2
   2  -2  -2 646.382  14.572   4
  -2  -2   2 667.342  14.762   3
   2   2  -2 680.548  14.076   4
   2   2  -2 648.034  15.625   1
  -2   2   2 660.959  15.313   2
  -2   2   2 662.181  14.171   3
   1  -2  -2 53.2302  2.0414   4
  -1  -2   2 56.2740  2.0911   3
   1   2  -2 53.2745  2.0900   1
  -1   2   2 53.4943  2.0312   2
   1   2  -2 56.8766  1.5043   4
  -1   2   2 55.6873  2.1337   1
   0  -2   2 1848.44   36.99   4
   0  -2   2 1843.33   38.18   3
   0  -2   2 1768.48   39.47   2
   0   2   2 1781.91   37.36   4
   0   2   2 1860.96   37.84   3
   0   2   2 1691.41   40.18   1
   0   2   2 1808.37   39.23   2
   1  -2   2 324.096   8.294   2
   1  -2   2 324.248   7.766   4
   1  -2   2 322.140   8.172   3
  -1  -2  -2 323.039   7.742   3
   1  -2   2 324.829   7.984   1
   1   2   2 318.553   8.373   1
   1   2   2 315.246   8.006   4
   1   2   2 336.652   7.833   2
  -2  -2  -2 918.841  20.609   3
   2  -2   2 947.764  21.107   1
  -2  -2  -2 914.866  20.753   2
   2  -2   2 925.844  21.124   3
   2  -2   2 920.769  20.434   4
  -2   2  -2 920.663  21.520   2
   2   2   2 907.112  21.657   1
   2   2   2 919.524  20.673   4
   3  -2   2 94.0096  3.0924   1
  -3  -2  -2 91.0670  3.1591   2
   3  -2   2 92.8600  3.9304   4
   3  -2   2 89.4407  4.0113   3
  -3  -2  -2 101.442   3.851   3
   3   2   2 87.7937  3.5655   1
   3   2   2 87.6246  3.9008   4
  -3   2  -2 85.4228  3.9275   2
  -4  -2  -2 185.121   6.283   3
   4  -2   2 178.528   6.511   4
   4   2   2 186.604   6.104   1
  -4   2  -2 184.243   6.389   3
   4   2   2 186.605   6.655   4
  -4   2  -2 180.911   6.169   2
  -5  -2  -2 6.38146 1.58216   3
   5  -2   2 5.27468 1.56858   4
   5   2   2 2.59132 1.24958   4
  -5   2  -2 5.95615 1.56804   3
  -6  -2  -2 2.40289 1.49080   3
   6  -2   2 4.56031 1.42197   4
  -6   2  -2 2.49617 1.40153   3
   6   2   2 5.10173 1.53780   4
  -7  -3   2 62.9052  3.7424   3
   7  -3  -2 62.1782  3.9815   4
   7   3  -2 60.0561  3.8898   4
  -7   3   2 59.0342  3.5652   3
   6  -3  -2 6.41672 1.66036   4
  -6  -3   2 6.76732 1.48386   3
  -6   3   2 6.02695 1.34760   2
   6   3  -2 6.14761 1.80927   1
  -6   3   2 5.33562 1.32384   3
   6   3  -2 6.27724 1.61743   4
  -5  -3   2 10.9023  1.2444   2
   5  -3  -2 15.5140  1.9449   4
  -5  -3   2 10.3945  1.5373   3
   5   3  -2 9.85599 1.56619   4
  -5   3   2 13.2783  1.5010   3
   5   3  -2 11.4405  1.7797   1
  -5   3   2 15.0644  1.6708   2
   4  -3  -2 125.778   4.559   4
  -4  -3   2 127.582   3.976   2
  -4  -3   2 128.381   4.366   3
   4  -3  -2 126.586   3.949   1
  -4   3   2 116.327   4.280   2
   4   3  -2 119.625   4.619   1
  -4   3   2 126.042   3.956   3
   4   3  -2 126.667   4.250   4
  -3  -3   2 1009.90   22.22   2
   3  -3  -2 984.146  22.460   1
   3  -3  -2 990.478  21.688   4
  -3  -3   2 968.782  21.807   3
   3   3  -2 991.661  23.168   1
   3   3  -2 993.487  21.030   4
  -3   3   2 945.280  22.489   2
  -3   3   2 982.512  21.214   3
  -2  -3   2 592.872  13.779   3
   2  -3  -2 613.818  13.714   4
  -2  -3   2 591.563  14.004   2
  -2   3   2 601.169  12.998   3
  -2   3   2 602.820  14.223   2
  -2   3   2 605.869  14.252   1
   2   3  -2 623.870  14.660   1
   2   3  -2 626.511  12.905   4
  -1  -3   2 6.39465 0.89109   3
   1  -3  -2 5.00488 0.76250   4
  -1  -3   2 4.27915 0.71358   2
   1   3  -2 3.93765 0.68957   1
  -1   3   2 5.02295 0.70367   2
  -1   3   2 4.03305 0.71547   1
   0  -3   2 310.610   7.609   3
   0  -3  -2 312.401   6.911   3
   0  -3   2 292.235   7.730   2
   0  -3  -2 314.517   7.368   4
   0  -3   2 308.234   6.881   4
   0   3   2 307.045   7.418   2
   0   3  -2 308.696   7.593   1
   0   3   2 306.556   7.944   1
   1  -3   2 3340.09   69.29   4
   1  -3   2 3437.41   74.53   1
  -1  -3  -2 3515.22   70.85   3
   1  -3   2 3386.24   71.37   3
   1   3   2 3334.12   69.76   4
   1   3   2 3404.04   73.12   2
   1   3   2 3352.87   75.11   1
   2  -3   2 2880.73   60.16   4
  -2  -3  -2 2924.40   61.33   3
   2  -3   2 2980.99   63.96   1
   2  -3   2 2955.36   61.94   3
  -2  -3  -2 2787.65   62.76   2
  -2   3  -2 2915.38   63.93   2
   2   3   2 2827.09   60.44   4
   2   3   2 2980.16   64.91   1
   3  -3   2 350.973   9.741   3
  -3  -3  -2 356.872   9.251   3
   3  -3   2 340.191   9.301   4
   3   3   2 322.267   9.407   4
   3   3   2 345.377   9.578   1
  -3   3  -2 335.776   9.803   2
   4  -3   2 3.05616 1.35550   4
  -4  -3  -2 2.38942 1.17655   3
  -4   3  -2 4.22501 1.39249   2
   4   3   2 3.08918 1.34743   4
   4   3   2 3.63059 1.19649   1
   5  -3   2 6.22131 1.70938   4
  -5  -3  -2 3.57937 1.32287   3
  -5   3  -2 3.49627 1.34184   3
   5   3   2 2.91645 1.36979   4
   6  -3   2 48.3710  3.6736   4
  -6  -3  -2 55.1148  3.8851   3
   6   3   2 45.6259  3.8063   4
  -6   3  -2 46.1961  3.3903   3
  -7  -4   2 341.420  10.947   3
   7  -4  -2 355.231  11.281   4
  -7   4   2 370.103  10.701   3
   7   4  -2 359.962  11.090   4
  -7   4   2 353.830  10.763   2
   6  -4  -2 8.71624 1.91299   4
  -6  -4   2 15.3345  2.0595   3
  -6   4   2 11.9651  1.7428   2
  -6   4   2 10.2681  1.5614   3
   6   4  -2 13.9388  1.9971   4
   6   4  -2 10.6680  2.2616   1
   5  -4  -2 66.2104  3.5616   4
  -5  -4   2 64.9436  3.3257   3
  -5  -4   2 61.8769  2.6316   2
   5   4  -2 63.6874  3.2961   4
  -5   4   2 62.9861  3.2072   2
   5   4  -2 63.1317  3.7178   1
  -5   4   2 64.9757  3.0020   3
  -4  -4   2 2182.20   46.37   3
   4  -4  -2 2189.44   47.87   1
  -4  -4   2 2135.41   47.04   2
   4   4  -2 2135.67   49.09   1
  -4   4   2 2116.06   45.61   3
   4   4  -2 2190.65   45.03   4
  -4   4   2 2083.47   47.74   2
  -3  -4   2 5799.22  121.34   2
   3  -4  -2 5669.50  124.37   1
   3  -4  -2 5633.75  115.25   4
  -3  -4   2 5666.73  117.68   3
   3   4  -2 5583.21  124.28   1
  -3   4   2 5555.19  121.75   2
   3   4  -2 5699.59  114.46   4
  -3   4   2 5589.75  117.65   3
   2  -4  -2 1370.11   28.92   4
  -2  -4   2 1359.79   29.45   3
  -2  -4   2 1362.88   30.04   2
  -2   4   2 1345.10   28.46   3
   2   4  -2 1346.93   30.99   1
  -2   4   2 1349.06   30.55   1
   2   4  -2 1378.12   27.93   4
  -2   4   2 1348.11   30.28   2
  -1  -4   2 104.224   3.537   3
  -1  -4   2 108.477   3.409   2
   1  -4  -2 109.205   3.495   4
  -1   4   2 111.843   3.389   2
  -1   4   2 105.295   3.478   1
   1   4  -2 115.280   3.580   1
   0  -4  -2 550.761  11.682   3
   0  -4  -2 542.130  12.162   4
   0  -4   2 535.484  12.824   2
   0  -4   2 527.257  11.438   4
   0   4  -2 534.968  12.666   1
   0   4   2 525.977  13.056   1
   0   4   2 538.224  12.334   2
   1  -4   2 1257.70   26.83   4
   1  -4   2 1273.84   27.98   3
  -1  -4  -2 1305.26   27.35   3
  -1   4  -2 1273.89   28.52   1
   1   4   2 1279.79   27.95   2
   1   4   2 1292.27   29.46   1
  -1   4  -2 1267.64   28.80   2
   1   4   2 1258.61   27.45   4
   2  -4   2 2.55595 0.81783   4
   2  -4   2 2.53719 0.98622   3
  -2  -4  -2 2.55134 0.52231   2
  -2  -4  -2 2.39914 0.79742   3
   2   4   2 1.66952 0.91625   4
  -2   4  -2 1.17063 0.44337   1
   2   4   2 2.76110 0.94570   1
  -2   4  -2 1.83579 0.99083   2
   3  -4   2 8.13220 1.42114   4
  -3  -4  -2 10.1758  1.4215   3
   3  -4   2 11.8459  1.7059   3
   3   4   2 11.3189  1.6558   4
  -3   4  -2 11.4731  1.7681   2
   3   4   2 11.3307  1.5690   1
   4  -4   2 15.3214  2.0412   4
   4  -4   2 18.3798  2.2843   3
  -4  -4  -2 18.1790  2.0279   3
  -4   4  -2 17.4535  2.0836   2
   4   4   2 18.4487  1.9983   1
   4   4   2 17.5668  2.2277   4
  -5  -4  -2 14.1840  2.0572   3
   5  -4   2 15.2869  2.2742   4
  -5   4  -2 12.0536  1.8862   3
   5   4   2 16.7425  2.4382   4
   6  -4   2 41.1763  3.3524   4
  -6  -4  -2 36.6336  3.3141   3
  -6   4  -2 41.9202  3.1972   3
   6   4   2 41.5291  3.8052   4
  -7  -5   2 12.6390  2.1227   3
   7  -5  -2 16.2411  2.4679   4
  -7   5   2 14.3796  1.9659   3
  -7   5   2 17.1594  2.2497   2
   7   5  -2 15.5510  2.3801   4
   6  -5  -2 -1.1915  0.9343   4
  -6  -5   2 -0.2790  1.0518   3
   6   5  -2 0.59158 1.39208   1
   6   5  -2 -0.5378  1.0695   4
  -6   5   2 0.12622 0.82324   3
  -6   5   2 -0.0451  1.0584   2
   5  -5  -2 87.9824  4.1843   4
  -5  -5   2 85.9995  4.0583   3
  -5   5   2 92.6765  4.0780   2
   5   5  -2 88.8648  4.5457   1
   5   5  -2 95.4837  3.9832   4
  -5   5   2 89.5904  3.5636   3
   4  -5  -2 6.02562 1.31242   4
  -4  -5   2 4.55167 1.19716   3
   4  -5  -2 5.68599 0.75146   1
  -4  -5   2 4.25351 0.75786   2
   4   5  -2 7.69604 1.49460   1
  -4   5   2 7.07286 1.32519   2
   4   5  -2 4.89369 1.01321   4
  -4   5   2 6.68217 0.98353   3
  -3  -5   2 243.608   6.830   3
   3  -5  -2 242.051   6.317   1
  -3  -5   2 238.287   6.338   2
   3  -5  -2 251.610   7.022   4
   3   5  -2 241.858   6.057   4
  -3   5   2 243.226   5.942   3
  -3   5   2 239.437   6.924   2
   3   5  -2 233.792   7.238   1
  -2  -5   2 720.566  16.393   2
   2  -5  -2 707.279  15.242   3
  -2  -5   2 690.075  16.340   3
   2  -5  -2 723.352  16.149   4
   2   5  -2 711.323  17.166   1
   2   5  -2 727.060  14.916   4
  -2   5   2 718.175  16.625   1
  -2   5   2 685.641  16.589   2
  -1  -5   2 2458.62   52.04   2
  -1  -5   2 2414.41   50.68   3
   1  -5  -2 2384.73   49.40   4
  -1   5   2 2352.55   51.83   2
  -1   5   2 2391.19   52.95   1
   1   5  -2 2284.19   52.92   1
   0  -5   2 93.9290  3.3664   2
   0  -5   2 94.0533  3.3742   3
   0  -5  -2 92.8202  2.5943   3
   0  -5  -2 92.6776  3.1959   4
   0  -5   2 91.6783  2.5514   4
   0   5   2 89.5935  3.3511   1
   0   5  -2 91.7602  3.0152   1
   0   5   2 91.2184  2.8594   2
  -1  -5  -2 75.1425  2.6069   3
   1  -5   2 71.2591  3.1117   3
   1  -5   2 79.1078  2.6674   4
  -1   5  -2 76.8799  2.5121   1
   1   5   2 76.4436  3.1271   4
   1   5   2 76.4585  3.2601   1
  -1   5  -2 79.7037  3.2154   2
   1   5   2 78.9509  2.3814   2
   2  -5   2 205.254   6.420   3
  -2  -5  -2 198.883   5.035   2
   2  -5   2 211.995   5.997   4
  -2  -5  -2 208.970   5.879   3
  -2   5  -2 206.752   5.202   1
  -2   5  -2 198.944   6.700   2
   2   5   2 218.889   6.734   1
   2   5   2 206.355   6.328   4
  -3  -5  -2 61.1431  3.0254   3
   3  -5   2 63.8006  3.4935   3
   3  -5   2 65.9672  3.2755   4
   3   5   2 63.1539  3.4477   4
  -3   5  -2 62.2394  3.6315   2
   3   5   2 64.5354  3.4329   1
  -4  -5  -2 57.0746  3.3009   3
   4  -5   2 62.1381  3.7430   3
   4  -5   2 63.4423  3.5898   4
  -4   5  -2 59.1165  3.6043   2
   4   5   2 65.6500  3.7998   4
   4   5   2 64.1841  3.5833   1
  -5  -5  -2 7.88291 1.70771   3
   5  -5   2 5.09479 1.47192   4
   5   5   2 4.35276 1.57389   4
  -5   5  -2 4.32233 1.30409   3
  -5   5  -2 5.61399 1.73471   2
  -6  -5  -2 12.1332  2.4054   3
   6  -5   2 10.9226  2.1407   4
   6   5   2 8.79180 2.43091   4
  -6   5  -2 11.4766  1.9986   3
  -7  -6   2 200.077   7.579   3
   7  -6  -2 195.215   7.728   4
   7   6  -2 186.795   7.319   4
  -7   6   2 202.045   7.052   3
  -6  -6   2 10.0109  1.9247   3
   6  -6  -2 9.82854 2.04764   4
   6   6  -2 8.45154 2.22159   1
  -6   6   2 7.84517 1.73364   2
   6   6  -2 8.50294 1.70307   4
  -6   6   2 8.15502 1.46929   3
  -5  -6   2 155.570   5.714   3
   5  -6  -2 141.898   5.658   4
  -5   6   2 146.642   4.925   3
   5   6  -2 148.030   5.250   4
   5   6  -2 154.344   6.410   1
  -5   6   2 149.601   5.640   2
  -4  -6   2 593.763  13.885   2
   4  -6  -2 608.621  14.030   1
   4  -6  -2 597.537  14.753   4
  -4  -6   2 552.351  14.526   3
   4   6  -2 600.786  13.820   4
  -4   6   2 597.080  15.034   2
  -4   6   2 580.761  13.701   3
   4   6  -2 602.614  15.841   1
   3  -6  -2 894.461  20.437   4
   3  -6  -2 901.052  19.659   3
  -3  -6   2 910.821  20.390   2
  -3  -6   2 889.886  20.561   3
  -3   6   2 896.825  20.594   1
  -3   6   2 892.167  21.119   2
   3   6  -2 897.057  19.246   4
   3   6  -2 885.890  21.816   1
  -2  -6   2 26.0978  1.5644   2
   2  -6  -2 25.8056  1.1754   3
   2  -6  -2 25.3317  1.9638   4
  -2  -6   2 26.2447  1.8448   3
  -2   6   2 25.0973  1.5232   1
  -2   6   2 27.6579  1.7200   2
   2   6  -2 25.0707  1.1325   4
   2   6  -2 29.3601  1.9211   1
  -1  -6   2 354.856   9.070   2
  -1  -6   2 367.119   9.300   3
   1  -6  -2 356.701   7.953   3
   1  -6  -2 375.003   9.049   4
   1   6  -2 348.326   9.253   1
  -1   6   2 354.594   9.251   1
  -1   6   2 357.744   8.951   2
   0  -6  -2 8.53522 1.11388   4
   0  -6   2 9.22866 0.77398   4
   0  -6   2 7.16433 1.12430   2
   0  -6   2 10.2706  1.2643   3
   0  -6  -2 7.86798 0.76532   3
   0   6  -2 9.05262 0.93815   1
   0   6   2 9.88230 0.96037   2
   0   6   2 9.50057 1.22442   1
   1  -6   2 274.744   7.912   3
   1  -6   2 295.785   7.150   4
  -1  -6  -2 295.779   7.209   3
   1   6   2 295.991   8.447   1
  -1   6  -2 291.118   8.122   2
   1   6   2 281.934   7.795   4
  -1   6  -2 305.569   7.325   1
   1   6   2 283.180   6.920   2
   2  -6   2 0.47135 0.73216   4
  -2  -6  -2 0.13737 0.73243   3
   2  -6   2 0.42894 0.92664   3
   2   6   2 1.50822 0.88641   4
  -2   6  -2 -0.3634  1.0040   2
   2   6   2 0.70362 0.90168   1
  -2   6  -2 0.91806 0.42206   1
  -3  -6  -2 2.08686 1.07531   3
   3  -6   2 0.74743 1.00282   4
   3  -6   2 0.68697 1.14990   3
   3   6   2 1.22121 1.01432   4
  -3   6  -2 2.13199 1.40858   2
   3   6   2 -0.3413  0.9731   1
   4  -6   2 1.64612 1.22488   3
   4  -6   2 1.32227 1.16376   4
  -4  -6  -2 1.75515 1.19449   3
   4   6   2 1.07994 1.26633   4
  -4   6  -2 0.88678 1.29450   2
   4   6   2 3.34416 1.39677   1
   5  -6   2 3.79092 1.22710   4
  -5  -6  -2 2.14912 1.19839   3
   5   6   2 2.48272 1.38064   4
  -5   6  -2 2.59684 1.39290   2
   6  -6   2 85.9163  5.0577   4
  -6  -6  -2 102.244   5.390   3
   6   6   2 95.1629  5.7148   4
  -6   6  -2 91.0592  4.9205   3
   7  -7  -2 61.5904  4.1857   4
  -7  -7   2 59.1766  3.8996   3
   7   7  -2 60.8616  3.8641   4
  -7   7   2 61.3468  3.7948   2
   7   7  -2 56.0024  4.2467   1
  -7   7   2 62.1809  3.5225   3
  -6  -7   2 1.89564 1.34405   3
   6  -7  -2 4.95578 1.67354   4
   6   7  -2 3.47772 1.47391   4
  -6   7   2 2.84850 1.45810   2
  -6   7   2 3.27280 1.17384   3
   6   7  -2 2.54366 1.66801   1
   5  -7  -2 2.14735 1.24499   4
  -5  -7   2 2.63327 1.29220   3
   5   7  -2 -0.9204  1.2011   1
  -5   7   2 0.91377 1.14265   2
   5   7  -2 1.23298 0.97152   4
  -5   7   2 -0.5180  0.6794   3
  -4  -7   2 3.21781 1.26782   3
  -4  -7   2 2.01047 0.59636   2
   4  -7  -2 1.01563 1.18498   4
   4   7  -2 1.38973 0.83814   4
  -4   7   2 4.73842 0.84599   3
  -4   7   2 0.32762 1.01577   2
   4   7  -2 3.01061 1.28301   1
   3  -7  -2 404.470  10.564   4
  -3  -7   2 389.837  10.417   3
  -3  -7   2 406.958   9.853   2
   3  -7  -2 392.328   9.435   3
  -3   7   2 399.962  10.660   2
   3   7  -2 413.872   9.302   4
   3   7  -2 391.699  11.109   1
  -3   7   2 390.337   9.825   1
  -2  -7   2 548.234  12.910   2
   2  -7  -2 536.668  11.897   3
  -2  -7   2 530.024  13.230   3
   2  -7  -2 541.154  13.072   4
  -2   7   2 533.322  13.046   1
   2   7  -2 526.217  13.716   1
  -2   7   2 552.559  13.320   2
   1  -7  -2 1387.50   30.05   4
  -1  -7   2 1406.92   31.35   2
   1  -7  -2 1390.56   29.50   3
  -1  -7   2 1396.32   30.84   3
  -1   7   2 1401.10   31.94   1
   1   7  -2 1386.88   31.98   1
  -1   7   2 1405.65   31.18   2
   0  -7   2 1532.62   34.21   3
   0  -7  -2 1600.28   33.30   4
   0  -7   2 1519.05   32.16   4
   0  -7  -2 1546.56   33.04   3
   0   7  -2 1582.00   35.26   1
   0   7   2 1555.72   34.34   2
   0   7  -2 1533.16   34.93   2
   0   7   2 1622.00   36.02   1
   1  -7   2 114.336   4.227   3
   1  -7   2 103.186   3.364   4
  -1  -7  -2 107.047   3.458   3
   1   7   2 103.808   3.054   2
  -1   7  -2 107.029   3.313   1
   1   7   2 113.042   4.427   1
  -1   7  -2 109.768   4.244   2
   2  -7   2 873.965  20.694   3
  -2  -7  -2 869.443  19.850   3
   2  -7   2 874.744  19.674   4
   2   7   2 923.637  22.138   1
   2   7   2 842.984  20.199   4
  -2   7  -2 870.101  21.782   2
  -3  -7  -2 1793.94   38.94   3
   3  -7   2 1755.92   39.71   3
   3  -7   2 1800.33   38.46   4
   3   7   2 1822.03   41.99   1
  -3   7  -2 1742.98   41.11   2
   3   7   2 1712.44   38.80   4
   4  -7   2 25.3757  2.6485   3
  -4  -7  -2 26.4871  2.3483   3
   4  -7   2 24.1435  2.4851   4
   4   7   2 19.8263  2.4938   1
   4   7   2 24.9813  2.6333   4
  -4   7  -2 22.8487  2.6069   2
   5  -7   2 25.6726  2.6789   4
   5  -7   2 20.8776  2.7302   3
  -5  -7  -2 25.9783  2.5844   3
   5   7   2 18.2709  2.5980   4
   5   7   2 28.7937  3.0084   1
  -5   7  -2 27.9039  2.8859   2
  -7  -8   2 179.788   7.518   3
   7  -8  -2 185.388   7.745   4
  -7   8   2 189.210   6.843   3
  -7   8   2 190.389   7.445   2
   7   8  -2 188.996   8.240   1
  -6  -8   2 270.485   8.897   3
   6  -8  -2 256.991   8.952   4
  -6   8   2 257.472   7.896   3
  -6   8   2 259.669   8.873   2
   6   8  -2 235.874   9.801   1
   6   8  -2 252.273   8.151   4
   5  -8  -2 238.372   8.029   4
  -5  -8   2 241.847   7.952   3
   5   8  -2 229.793   7.097   4
  -5   8   2 235.777   7.954   2
   5   8  -2 231.017   8.906   1
  -5   8   2 239.080   6.946   3
   4  -8  -2 1005.58   22.58   3
   4  -8  -2 989.236  23.436   4
  -4  -8   2 942.194  23.391   3
   4   8  -2 1014.13   22.10   4
   4   8  -2 1021.97   25.35   1
  -4   8   2 1040.02   24.37   2
  -3  -8   2 918.029  21.489   3
   3  -8  -2 900.913  20.264   3
   3  -8  -2 900.671  21.255   4
  -3  -8   2 948.394  21.069   2
   3   8  -2 934.409  19.815   4
  -3   8   2 917.326  21.223   1
  -3   8   2 929.820  22.067   2
   3   8  -2 903.927  22.784   1
  -2  -8   2 213.619   4.953   4
  -2  -8   2 212.218   6.574   3
   2  -8  -2 211.415   5.279   3
  -2  -8   2 207.148   5.901   2
   2  -8  -2 208.234   6.448   4
  -2   8   2 210.199   6.013   1
  -2   8   2 213.569   6.360   2
   2   8  -2 198.021   6.551   1
   1  -8  -2 360.016   8.267   3
  -1  -8   2 347.096   9.518   3
  -1  -8   2 354.980   9.296   2
   1  -8  -2 343.643   9.161   4
  -1  -8   2 359.469   7.785   4
  -1   8   2 360.999   9.178   2
   1   8  -2 362.364   9.594   1
  -1   8   2 350.730   9.464   1
   0  -8  -2 352.792   9.337   4
   0  -8  -2 369.341   8.747   3
   0  -8   2 370.072   8.371   4
   0   8  -2 371.845   9.755   2
   0   8   2 376.020   9.105   2
   0   8   2 376.200  10.237   1
   0   8  -2 369.785   9.516   1
   1  -8   2 549.391  13.950   3
   1  -8   2 557.788  12.727   4
  -1  -8  -2 563.190  13.378   4
  -1  -8  -2 562.111  13.028   3
   1   8   2 565.124  12.767   2
   1   8   2 562.759  14.791   1
  -1   8  -2 554.065  14.375   2
  -1   8  -2 559.132  13.314   1
  -2  -8  -2 404.936  10.186   3
   2  -8   2 382.620  10.860   3
   2  -8   2 392.893  10.014   4
  -2   8  -2 395.924  11.602   2
   2   8   2 391.725  10.664   4
   2   8   2 409.596  11.866   1
   3  -8   2 135.089   5.466   3
   3  -8   2 131.295   5.022   4
  -3  -8  -2 127.273   4.837   3
  -3   8  -2 125.871   5.578   2
   3   8   2 124.030   5.227   4
   3   8   2 131.916   5.902   1
   4  -8   2 261.271   8.858   3
   4  -8   2 264.136   8.519   4
  -4  -8  -2 257.752   8.226   3
   4   8   2 268.236   8.878   4
  -4   8  -2 241.136   8.802   2
   4   8   2 269.749   9.271   1
   5  -8   2 29.0786  3.0848   3
   5  -8   2 30.8334  2.6247   4
  -5  -8  -2 32.8276  2.8167   3
   5   8   2 31.6145  3.0517   1
   5   8   2 29.8785  3.0967   4
  -5   8  -2 29.1891  3.0243   2
   7  -9  -2 125.122   6.417   4
  -7  -9   2 136.376   6.425   3
  -7   9   2 141.328   6.249   2
   7   9  -2 122.494   6.503   1
   6  -9  -2 238.734   8.682   4
  -6  -9   2 238.083   8.551   3
  -6   9   2 249.428   8.760   2
  -6   9   2 236.862   7.580   3
   6   9  -2 238.033   9.855   1
   6   9  -2 250.342   7.996   4
   5  -9  -2 59.1067  3.7820   4
  -5  -9   2 50.6606  3.4623   3
  -5   9   2 58.0487  3.6487   2
  -5   9   2 54.8013  2.7779   3
   5   9  -2 57.3738  4.2507   1
   5   9  -2 53.8599  3.0279   4
   4  -9  -2 203.179   7.173   4
   4  -9  -2 201.149   6.108   3
  -4  -9   2 206.261   7.052   3
   4   9  -2 207.940   6.049   4
   4   9  -2 205.656   7.813   1
  -4   9   2 219.864   7.325   2
   3  -9  -2 158.173   5.788   4
   3  -9  -2 164.535   4.724   3
  -3  -9   2 154.811   5.617   3
  -3  -9   2 165.108   4.901   2
  -3   9   2 165.476   4.820   1
  -3   9   2 164.206   5.814   2
   3   9  -2 159.551   6.163   1
   3   9  -2 162.259   4.540   4
  -2  -9   2 435.034   9.381   4
   2  -9  -2 397.997  10.914   4
  -2  -9   2 409.322  11.196   3
   2  -9  -2 430.549   9.825   3
  -2  -9   2 425.413  10.665   2
  -2   9   2 417.628  10.778   1
  -2   9   2 432.453  11.207   2
   1  -9  -2 21.2329  1.8542   4
   1  -9  -2 21.8633  1.3483   3
  -1  -9   2 21.2115  1.3182   4
  -1  -9   2 20.1116  2.0193   3
  -1   9   2 23.3998  1.9178   1
   1   9  -2 22.2418  1.8649   1
  -1   9   2 23.8484  1.7101   2
   1   9  -2 24.3800  1.7058   2
   0  -9   2 58.7191  3.1519   3
   0  -9  -2 56.0447  2.2707   3
   0  -9  -2 59.0861  2.8926   4
   0  -9   2 56.3815  2.0890   4
   0   9   2 56.1483  2.3191   2
   0   9   2 55.2764  3.0538   1
   0   9  -2 59.3433  2.9192   2
   0   9  -2 56.4958  2.5645   1
   1  -9   2 142.070   4.284   4
  -1  -9  -2 124.629   4.244   3
   1  -9   2 148.544   5.269   3
  -1  -9  -2 136.546   4.766   4
   1   9   2 146.490   5.651   1
  -1   9  -2 141.073   4.267   1
  -1   9  -2 138.236   5.330   2
   1   9   2 139.390   3.880   2
   2  -9   2 4.85438 1.20467   4
   2  -9   2 2.76717 1.28564   3
  -2  -9  -2 3.50365 1.14587   3
  -2   9  -2 3.10422 1.60352   2
   2   9   2 4.80889 1.58610   1
   2   9   2 2.91845 1.30901   4
  -3  -9  -2 42.1846  2.7106   3
   3  -9   2 37.3561  3.0358   3
   3  -9   2 39.0451  2.7171   4
   3   9   2 37.3292  3.3096   1
  -3   9  -2 38.7655  3.0610   2
   3   9   2 40.8049  3.0661   4
   4  -9   2 5.01729 1.62003   4
  -4  -9  -2 3.84654 1.33847   3
   4  -9   2 5.41716 1.65811   3
   4   9   2 6.66820 1.90637   1
   4   9   2 3.95845 1.62957   4
  -4   9  -2 6.11305 1.80697   2
   5  -9   2 112.858   5.489   4
   5  -9   2 125.196   5.960   3
  -5  -9  -2 109.385   5.220   3
   5   9   2 115.442   5.721   4
   5   9   2 123.303   6.069   1
  -5   9  -2 119.287   5.855   2
   7 -10  -2 62.3998  4.4218   4
  -7 -10   2 52.0849  4.0025   3
  -7  10   2 54.2812  4.0180   2
   7  10  -2 53.9596  4.0975   1
  -6 -10   2 80.6415  4.6397   3
   6 -10  -2 77.4784  4.6599   4
  -6  10   2 83.5544  4.7154   2
   6  10  -2 90.0507  5.6667   1
  -5 -10   2 60.2492  3.7973   3
   5 -10  -2 56.2626  3.8509   4
   5  10  -2 57.3022  4.3953   1
   5  10  -2 57.9784  3.1689   4
  -5  10   2 57.3041  3.8103   2
   4 -10  -2 164.594   6.439   4
   4 -10  -2 171.703   5.467   3
  -4 -10   2 178.403   6.479   3
   4  10  -2 168.179   7.141   1
  -4  10   2 175.188   6.543   2
   4  10  -2 174.252   5.444   4
  -3 -10   2 265.515   7.248   2
  -3 -10   2 246.941   8.097   3
   3 -10  -2 265.465   7.062   3
   3 -10  -2 272.032   8.383   4
   3  10  -2 262.081   6.754   4
  -3  10   2 269.130   7.256   1
   3  10  -2 275.678   8.963   1
  -3  10   2 277.282   8.490   2
   2 -10  -2 223.351   7.068   4
  -2 -10   2 219.064   7.178   3
   2 -10  -2 222.966   5.813   3
  -2 -10   2 220.069   5.450   4
   2  10  -2 206.708   7.198   1
  -2  10   2 227.959   6.593   1
  -2  10   2 219.183   6.929   2
  -1 -10   2 216.611   6.811   3
   1 -10  -2 207.729   5.541   3
   1 -10  -2 203.341   6.449   4
   1  10  -2 202.683   6.612   1
  -1  10   2 199.287   6.202   2
  -1  10   2 213.185   6.613   1
   1  10  -2 207.621   6.213   2
   0 -10  -2 59.3837  2.9868   4
   0 -10   2 58.9299  3.2677   3
   0 -10  -2 53.0205  2.3723   3
   0 -10   2 54.9834  2.1552   4
   0  10  -2 57.7358  2.7383   1
   0  10  -2 55.0292  2.9835   2
   0  10   2 54.8527  2.3694   2
   0  10   2 54.0672  3.1049   1
  -1 -10  -2 5.95780 1.10817   3
   1 -10   2 4.09346 1.31450   3
  -1 -10  -2 3.49525 1.08714   4
   1 -10   2 6.73284 0.98991   4
   1  10   2 5.59825 0.72734   2
  -1  10  -2 4.53363 0.81223   1
   1  10   2 4.20094 1.52477   1
  -1  10  -2 6.75846 1.54842   2
   2 -10   2 3.53032 1.39236   3
   2 -10   2 1.97276 1.05926   4
  -2 -10  -2 3.35483 1.19493   3
  -2  10  -2 3.18739 1.61645   2
   2  10   2 2.57039 1.48509   1
   3 -10   2 72.4438  3.7002   4
  -3 -10  -2 71.2412  3.6267   3
   3 -10   2 71.3292  4.1111   3
   3  10   2 75.9693  4.6848   1
   3  10   2 67.4096  3.9310   4
  -3  10  -2 74.0355  4.3237   2
  -4 -10  -2 34.6245  2.7244   3
   4 -10   2 36.1749  3.1536   3
   4 -10   2 34.0378  2.8790   4
   4  10   2 38.6947  3.2271   4
   4  10   2 31.3770  3.3713   1
  -4  10  -2 38.6804  3.3165   2
   5 -10   2 3.31631 1.17854   4
  -5 -10  -2 0.53998 0.86485   3
   5 -10   2 2.50019 1.36796   3
  -5  10  -2 1.81241 1.34536   2
   5  10   2 1.18880 1.26478   4
   5  10   2 1.56851 1.20195   1
   6 -11  -2 178.538   7.380   4
  -6 -11   2 180.476   7.325   3
   6  11  -2 163.297   7.859   1
  -6  11   2 169.955   7.268   2
  -5 -11   2 229.680   8.337   3
   5 -11  -2 234.945   8.592   4
   5  11  -2 239.212   9.707   1
  -5  11   2 240.246   8.648   2
   4 -11  -2 441.834  12.571   4
   4 -11  -2 444.580  11.256   3
  -4 -11   2 436.261  12.499   3
   4  11  -2 418.931  13.647   1
  -4  11   2 443.196  12.844   2
  -3 -11   2 642.845  16.435   3
   3 -11  -2 627.917  16.213   4
   3 -11  -2 645.632  14.939   3
  -3  11   2 651.228  16.925   2
  -3  11   2 647.802  15.509   1
   3  11  -2 654.571  15.230   2
   3  11  -2 599.520  17.337   1
   2 -11  -2 1854.86   38.83   3
   2 -11  -2 1812.22   39.53   4
  -2 -11   2 1813.64   40.42   3
  -2  11   2 1781.84   41.25   2
   2  11  -2 1777.59   42.42   1
  -2  11   2 1828.36   41.34   1
   2  11  -2 1812.37   40.40   2
  -1 -11   2 594.241  14.962   3
   1 -11  -2 587.239  13.508   3
  -1 -11   2 568.049  12.802   4
   1 -11  -2 587.686  14.432   4
  -1  11   2 586.699  15.087   1
   1  11  -2 586.124  15.216   1
   1  11  -2 569.083  14.490   2
  -1  11   2 571.670  14.486   2
   0 -11  -2 414.184  10.699   4
   0 -11  -2 420.625  10.104   3
   0 -11   2 407.300   9.502   4
   0 -11   2 360.676  10.938   3
   0  11  -2 409.094  10.901   1
   0  11   2 404.226  10.198   2
   0  11   2 390.658  11.574   1
   0  11  -2 405.250  11.152   2
  -1 -11  -2 370.485   9.638   3
  -1 -11  -2 371.159  10.027   4
   1 -11   2 393.843   9.474   4
   1 -11   2 381.276  10.741   3
   1  11   2 341.785  11.282   1
  -1  11  -2 365.234  11.103   2
  -1  11  -2 382.771   9.896   1
  -2 -11  -2 391.733  10.479   3
  -2 -11  -2 407.544  10.816   4
   2 -11   2 405.848  10.406   4
   2 -11   2 389.103  11.334   3
  -2  11  -2 410.109  12.072   2
   2  11   2 350.082  12.093   1
   3 -11   2 216.959   7.004   4
   3 -11   2 201.457   7.448   3
  -3 -11  -2 202.265   6.831   3
  -3  11  -2 215.188   7.939   2
   3  11   2 210.247   7.434   4
   3  11   2 182.373   8.046   1
  -4 -11  -2 56.0994  3.5431   3
   4 -11   2 57.3043  3.6624   4
   4 -11   2 63.0103  4.0659   3
  -4  11  -2 61.8702  4.1717   2
   4  11   2 62.0224  3.9799   4
   4  11   2 54.7533  4.2150   1
   5 -11   2 132.636   6.017   4
   5 -11   2 128.842   6.394   3
  -5 -11  -2 123.230   5.745   3
   5  11   2 133.449   6.659   1
  -5  11  -2 136.710   6.500   2
   5  11   2 137.911   6.478   4
  -6 -12   2 163.137   7.220   3
   6 -12  -2 183.441   7.555   4
  -6  12   2 168.169   7.412   2
   6  12  -2 174.513   8.077   1
   5 -12  -2 84.9401  4.8218   4
  -5 -12   2 89.6106  4.8152   3
   5  12  -2 84.9911  5.4556   1
  -5  12   2 83.9144  4.7697   2
   4 -12  -2 371.233  11.102   4
  -4 -12   2 350.007  10.801   3
   4  12  -2 355.396  12.189   1
  -4  12   2 336.586  11.021   2
  -3 -12   2 148.495   5.944   3
   3 -12  -2 146.584   4.746   3
   3 -12  -2 144.514   5.919   4
   3  12  -2 134.658   6.292   1
  -3  12   2 134.478   5.782   2
   2 -12  -2 15.0062  2.0627   4
  -2 -12   2 15.1756  2.0841   3
   2 -12  -2 13.7021  1.3201   3
   2  12  -2 14.5447  2.1580   1
  -2  12   2 14.3690  1.6601   1
   2  12  -2 16.9674  1.6198   2
  -2  12   2 15.6599  2.0370   2
  -1 -12   2 436.060  11.997   3
   1 -12  -2 439.504  10.596   3
   1 -12  -2 425.047  11.400   4
   1  12  -2 421.320  12.100   1
   1  12  -2 434.503  11.558   2
  -1  12   2 417.849  11.415   2
  -1  12   2 429.999  12.014   1
   0 -12  -2 358.933  10.136   4
   0 -12   2 384.418  10.916   3
   0 -12  -2 390.897   9.736   3
   0  12  -2 377.791  10.561   1
   0  12   2 350.519  11.093   1
   0  12  -2 371.828  10.851   2
   0  12   2 388.168   9.879   2
   1 -12   2 167.742   6.403   3
   1 -12   2 181.092   5.424   4
  -1 -12  -2 176.287   6.007   4
  -1 -12  -2 166.581   5.512   3
   1  12   2 155.157   6.785   1
  -1  12  -2 170.880   6.702   2
   2 -12   2 128.426   4.824   4
   2 -12   2 116.445   5.416   3
  -2 -12  -2 125.616   4.884   3
  -2 -12  -2 125.963   5.061   4
   2  12   2 112.286   5.938   1
  -2  12  -2 132.394   5.839   2
  -3 -12  -2 78.2184  3.9907   3
   3 -12   2 88.6223  4.2547   4
   3 -12   2 86.1434  4.6858   3
   3  12   2 71.4575  4.9226   1
  -3  12  -2 86.6605  4.9245   2
  -4 -12  -2 73.1025  4.0773   3
   4 -12   2 73.2157  4.4443   3
   4 -12   2 78.2926  4.3374   4
   4  12   2 67.8113  4.7291   1
   4  12   2 70.9181  4.3161   4
  -4  12  -2 70.9354  4.5464   2
  -5 -12  -2 70.1344  4.2992   3
   5 -12   2 76.8555  4.4178   4
   5 -12   2 74.7173  4.9987   3
   5  12   2 73.5292  4.8400   4
  -5  12  -2 73.7007  4.7989   2
   5  12   2 72.0026  4.8531   1
  -6 -13   2 26.5857  3.2408   3
   6 -13  -2 24.4478  3.0610   4
  -6  13   2 23.6024  3.0792   2
   6  13  -2 23.2534  3.1378   1
  -5 -13   2 1.98061 1.45301   3
   5 -13  -2 2.70396 1.36764   4
   5  13  -2 0.78935 1.40767   1
  -5  13   2 2.89104 1.54062   2
   4 -13  -2 1.12613 1.45799   4
  -4 -13   2 -0.8143  1.2861   3
  -4  13   2 1.56271 1.46284   2
   4  13  -2 1.46669 1.55198   1
  -3 -13   2 43.9068  3.3193   3
   3 -13  -2 36.1973  3.1783   4
  -3  13   2 39.8128  3.3479   2
   3  13  -2 37.1832  3.5054   1
  -2 -13   2 6.96590 1.79811   3
   2 -13  -2 6.54633 1.16932   3
   2 -13  -2 5.36932 1.65195   4
  -2  13   2 4.63305 1.29822   1
  -2  13   2 4.72323 1.57091   2
   2  13  -2 5.04801 1.24965   2
   2  13  -2 5.61199 1.77190   1
   1 -13  -2 36.1870  2.7902   4
   1 -13  -2 36.0476  2.1633   3
  -1 -13   2 35.9668  2.9141   3
   1  13  -2 34.2494  2.8455   1
  -1  13   2 37.8812  2.8229   1
  -1  13   2 38.4296  2.5978   2
   0 -13   2 15.1546  2.1475   3
   0 -13  -2 18.2774  1.8415   3
   0 -13  -2 14.7828  1.9190   4
   0  13  -2 14.9625  2.1340   2
   0  13   2 10.1463  1.9973   1
   0  13   2 13.5087  1.5536   2
   0  13  -2 11.2354  1.8034   1
   1 -13   2 373.296  11.296   3
  -1 -13  -2 397.219  10.425   3
  -1 -13  -2 404.753  10.848   4
   1  13   2 362.113  12.088   1
  -1  13  -2 388.952  11.856   2
  -2 -13  -2 17.2402  2.1376   4
  -2 -13  -2 21.9498  2.2020   3
   2 -13   2 19.6324  2.4829   3
   2 -13   2 17.0112  2.0098   4
   2  13   2 19.9405  2.8318   1
  -2  13  -2 16.7177  2.4073   2
   3 -13   2 288.523   8.958   4
  -3 -13  -2 270.352   8.775   3
   3 -13   2 287.142   9.723   3
  -3 -13  -2 290.393   9.093   4
   3  13   2 274.162  10.618   1
  -3  13  -2 280.087   9.920   2
   4 -13   2 0.13066 1.27069   3
  -4 -13  -2 2.88429 1.26832   3
   4 -13   2 4.44147 1.60100   4
   4  13   2 2.05151 1.34419   1
  -4  13  -2 1.63061 1.29583   2
  -6 -14   2 99.1015  5.8785   3
   6 -14  -2 100.982   5.766   4
  -6  14   2 114.126   6.211   2
   6  14  -2 96.8296  5.9373   1
   5 -14  -2 293.159  10.127   4
  -5 -14   2 287.526   9.976   3
   5  14  -2 291.087  11.015   1
  -5  14   2 237.933   9.596   2
  -4 -14   2 94.9709  5.0826   3
   4 -14  -2 92.4433  5.1376   4
   4  14  -2 96.5344  5.8235   1
  -4  14   2 77.7665  4.8605   2
   3 -14  -2 240.145   8.335   4
  -3 -14   2 247.301   8.540   3
  -3  14   2 219.965   8.362   2
   3  14  -2 233.675   9.212   1
  -2 -14   2 285.715   9.180   3
   2 -14  -2 272.447   8.804   4
  -2  14   2 252.042   8.813   2
   2  14  -2 268.580   9.668   1
   2  14  -2 281.731   8.415   2
  -2  14   2 288.880   8.599   1
   1 -14  -2 6.10455 1.32827   3
   1 -14  -2 5.87102 1.61949   4
  -1 -14   2 7.06477 1.84620   3
  -1  14   2 8.06512 1.54384   2
   1  14  -2 8.85717 1.93160   1
   1  14  -2 3.88256 1.44235   2
  -1  14   2 5.62262 1.52659   1
   0 -14  -2 12.1980  1.8988   4
   0 -14  -2 13.1861  1.6965   3
   0 -14   2 12.6900  2.1724   3
   0  14   2 10.0224  1.4909   2
   0  14   2 7.39356 1.86575   1
   0  14  -2 13.8925  2.0092   1
   0  14  -2 13.9039  2.1186   2
  -1 -14  -2 264.712   8.087   3
   1 -14   2 266.231   9.021   3
  -1 -14  -2 270.033   8.408   4
  -1  14  -2 279.377   9.294   2
   1  14   2 264.285   9.637   1
  -2 -14  -2 6.45636 1.60980   3
  -2 -14  -2 6.93248 1.66163   4
   2 -14   2 4.02267 1.77249   3
  -2  14  -2 6.52126 1.77792   2
   2  14   2 5.28907 1.94468   1
   3 -14   2 78.7292  4.3497   4
  -3 -14  -2 71.3511  4.1404   4
  -3 -14  -2 84.8225  4.3769   3
   3 -14   2 80.5219  4.7333   3
   3  14   2 82.8529  5.3107   1
  -3  14  -2 83.9518  4.8096   2
  -4 -14  -2 117.719   5.491   4
   4 -14   2 125.235   6.225   3
  -4 -14  -2 130.724   5.761   3
   4 -14   2 120.790   5.698   4
  -4  14  -2 128.453   6.361   2
   4  14   2 123.458   6.702   1
   5 -15  -2 28.1688  3.2117   4
  -5 -15   2 21.2179  2.9748   3
  -5  15   2 20.3751  2.8638   2
   5  15  -2 24.4711  3.2950   1
   4 -15  -2 1.20935 1.56152   4
  -4 -15   2 -0.3648  1.0252   3
  -4  15   2 1.77108 1.36404   2
   4  15  -2 0.70813 1.51968   1
   3 -15  -2 9.60761 2.16090   4
  -3 -15   2 9.52581 2.15105   3
   3  15  -2 9.50923 2.40596   1
  -3  15   2 9.61251 2.20366   2
  -2 -15   2 291.466   9.498   3
   2 -15  -2 288.040   9.234   4
   2  15  -2 277.005  10.110   1
   2  15  -2 292.105   8.876   2
  -2  15   2 273.877   9.271   2
  -2  15   2 272.418   8.764   1
  -1 -15   2 817.808  20.104   3
   1 -15  -2 817.246  19.339   4
  -1  15   2 731.813  19.412   2
   1  15  -2 755.610  20.793   1
  -1  15   2 775.277  20.383   1
   1  15  -2 784.230  20.004   2
   0 -15  -2 228.557   7.147   3
   0 -15  -2 238.400   7.802   4
   0 -15   2 234.441   8.300   3
   0  15   2 231.767   8.539   1
   0  15  -2 236.830   8.353   2
   0  15  -2 235.955   8.145   1
  -1 -15  -2 139.678   5.689   4
  -1 -15  -2 150.178   5.579   3
   1 -15   2 146.808   6.318   3
   1  15   2 140.397   6.605   1
  -1  15  -2 140.766   6.158   2
  -2 -15  -2 269.969   8.762   4
   2 -15   2 257.638   9.281   3
  -2 -15  -2 269.528   8.534   3
   2  15   2 268.182  10.262   1
  -2  15  -2 259.937   9.333   2
  -3 -15  -2 126.117   5.575   3
   3 -15   2 120.243   5.969   3
  -3 -15  -2 117.687   5.363   4
   3  15   2 125.217   6.695   1
  -3  15  -2 117.366   5.943   2
  -4 -15  -2 18.1688  2.3742   4
   4 -15   2 10.9360  2.4755   3
  -4 -15  -2 15.3829  2.2677   3
  -4  15  -2 10.6844  2.4354   2
   4  15   2 11.5016  2.5426   1
   5 -16  -2 10.2034  2.1617   4
  -5 -16   2 7.78922 2.17514   3
   5  16  -2 4.49817 1.66833   1
  -5  16   2 6.48505 1.89986   2
  -4 -16   2 231.317   8.921   3
   4 -16  -2 222.202   8.694   4
  -4  16   2 233.804   8.952   2
   4  16  -2 233.691   9.634   1
  -3 -16   2 499.148  14.593   3
   3 -16  -2 493.006  14.322   4
   3  16  -2 472.010  15.481   1
  -3  16   2 520.667  14.971   2
  -2 -16   2 20.2661  2.6616   3
   2 -16  -2 22.9276  2.6886   4
   2  16  -2 26.5122  2.5920   2
  -2  16   2 19.5314  2.4840   2
  -2  16   2 19.3789  2.2745   1
   2  16  -2 17.8177  2.7903   1
   1 -16  -2 28.1036  2.8227   4
  -1 -16   2 24.8711  2.8181   3
  -1  16   2 19.8195  2.2903   2
   1  16  -2 24.6794  2.5997   2
  -1  16   2 23.3969  2.6312   1
   1  16  -2 25.2170  2.9023   1
   0 -16   2 27.6186  3.0141   3
   0 -16  -2 29.4933  2.7758   4
   0  16  -2 23.4336  2.6459   2
   0  16   2 25.1542  2.8983   1
   0  16  -2 25.6004  2.6012   1
  -1 -16  -2 164.476   6.057   3
  -1 -16  -2 146.340   6.047   4
   1 -16   2 145.273   6.537   3
  -1  16  -2 150.914   6.463   2
   1  16   2 156.569   7.031   1
   2 -16   2 32.8995  3.3946   3
  -2 -16  -2 34.0795  2.9358   4
  -2 -16  -2 32.2414  3.0204   3
   2  16   2 31.3252  3.6606   1
  -2  16  -2 38.6862  3.3036   2
  -3 -16  -2 1.63922 1.52626   3
   3 -16   2 2.52992 1.42424   3
  -3 -16  -2 4.20089 1.31373   4
  -3  16  -2 2.25556 1.38243   2
   3  16   2 4.58955 1.72966   1
  -5 -17   2 22.0276  3.4236   3
   5 -17  -2 14.9048  2.6242   4
   5  17  -2 12.0044  2.5289   1
  -5  17   2 13.8401  2.7539   2
  -4 -17   2 35.1725  3.2498   3
   4 -17  -2 25.2809  3.0991   4
   4  17  -2 28.9552  3.4723   1
  -4  17   2 29.0634  3.1734   2
  -3 -17   2 62.7986  4.2760   3
   3 -17  -2 61.7745  4.2578   4
   3  17  -2 68.1574  4.7273   1
  -3  17   2 69.2466  4.4203   2
  -2 -17   2 55.9931  3.9547   3
   2 -17  -2 55.2081  3.8760   4
   2  17  -2 59.2644  4.2037   1
  -2  17   2 61.6274  3.9328   2
   1 -17  -2 288.443   9.234   4
  -1 -17   2 280.936   9.580   3
   1  17  -2 252.724   9.474   1
  -1  17   2 276.553   9.519   1
   1  17  -2 280.101   9.156   2
  -1  17   2 292.333   9.109   2
   0 -17  -2 16.3672  2.3332   4
   0 -17   2 16.8287  2.6380   3
   0  17  -2 16.7718  2.3424   2
   0  17   2 18.5973  2.6591   1
   1 -17   2 15.0054  2.6507   3
  -1 -17  -2 10.5561  2.0734   4
   1  17   2 10.9188  2.3447   1
  -1  17  -2 14.2909  2.3203   2
  -2 -17  -2 7.70676 1.72932   4
   2 -17   2 5.10901 1.77353   3
   2  17   2 7.19233 2.13736   1
  -2  17  -2 7.27176 1.77899   2
  -3 -17  -2 23.5057  2.6674   4
  -3 -17  -2 18.2817  2.6077   3
   3 -17   2 17.4708  2.9178   3
   3  17   2 17.2770  2.8469   1
  -3  17  -2 21.0491  2.9420   2
  -4 -18   2 95.2465  5.6322   3
   4 -18  -2 85.6488  5.1541   4
  -4  18   2 97.6749  5.4673   2
   4  18  -2 92.6692  5.8348   1
  -3 -18   2 145.607   6.778   3
   3 -18  -2 145.665   6.677   4
   3  18  -2 147.394   7.150   1
  -3  18   2 157.857   6.821   2
   2 -18  -2 40.7975  3.5392   4
  -2 -18   2 44.0071  3.5069   3
  -2  18   2 40.1195  3.3059   2
   2  18  -2 37.0113  3.4366   1
   1 -18  -2 3.93495 1.75102   4
  -1 -18   2 3.86631 1.61070   3
  -1  18   2 3.47989 1.56426   2
   1  18  -2 4.31792 1.66434   1
  -1  18   2 3.84515 1.68374   1
   1  18  -2 2.39415 1.38693   2
   0 -18  -2 249.975   8.519   4
   0 -18   2 255.096   9.144   3
   0  18   2 244.104   9.245   1
   0  18  -2 238.630   8.642   2
   1 -18   2 130.533   6.283   3
  -1 -18  -2 141.271   6.066   4
   1  18   2 135.205   6.648   1
  -1  18  -2 140.532   6.331   2
   2 -18   2 128.312   6.420   3
  -2 -18  -2 131.438   5.954   4
  -2  18  -2 140.397   6.460   2
   2  18   2 146.392   7.126   1
  -3 -18  -2 98.1505  5.0620   4
   3 -18   2 87.9259  5.6253   3
   3  18   2 99.6174  6.0751   1
  -3  18  -2 85.1157  5.2724   2
   4 -19  -2 1.67364 1.24839   4
  -4 -19   2 -0.4119  1.6679   3
  -4  19   2 1.27049 1.36406   2
   4  19  -2 1.99866 1.78490   1
   3 -19  -2 24.5978  3.0769   4
  -3 -19   2 26.2547  3.1445   3
   3  19  -2 20.0010  2.9098   1
  -3  19   2 24.6594  2.8979   2
   2 -19  -2 320.010  10.863   4
  -2 -19   2 338.603  11.317   3
  -2  19   2 365.281  11.268   2
   2  19  -2 319.555  11.471   1
   1 -19  -2 102.534   5.181   4
  -1 -19   2 100.960   5.347   3
   1  19  -2 105.059   5.107   2
  -1  19   2 112.322   5.593   1
   1  19  -2 95.2884  5.1781   1
   0 -19   2 6.33065 1.87693   3
   0 -19  -2 9.96806 2.05053   4
   0  19  -2 14.2990  2.3038   2
   0  19   2 4.73329 1.82981   1
   1 -19   2 111.087   5.738   3
  -1 -19  -2 112.918   5.365   4
  -1  19  -2 110.487   5.484   2
   1  19   2 104.822   5.922   1
  -2 -19  -2 211.182   7.932   4
   2 -19   2 216.872   8.789   3
   2  19   2 203.043   9.053   1
  -2  19  -2 207.035   8.474   2
   3 -20  -2 29.4895  3.2723   4
  -3 -20   2 32.0961  3.5845   3
   3  20  -2 28.7519  3.5825   1
  -3  20   2 31.9336  3.0908   2
  -2 -20   2 185.162   7.897   3
   2 -20  -2 199.522   7.919   4
   2  20  -2 185.878   8.031   1
   1 -20  -2 1.44642 1.08142   4
  -1 -20   2 0.50131 0.94732   3
   1  20  -2 1.33526 1.44172   2
  -1  20   2 1.61837 1.52172   1
   1  20  -2 1.00457 1.31764   1
   0 -20   2 13.6892  2.3173   3
   0 -20  -2 17.9702  2.4707   4
   0  20   2 11.6632  2.3470   1
   0  20  -2 13.0153  2.1084   2
   1 -20   2 20.7446  2.9336   3
  -1 -20  -2 29.3108  2.6171   4
  -1  20  -2 23.8474  2.8044   2
   1  20   2 20.0860  3.0685   1
  -2 -21   2 1.59341 1.59960   3
   2 -21  -2 3.29670 1.29784   4
   2  21  -2 2.48554 1.41191   1
  -2  21   2 2.61598 1.06918   2
  -1 -21   2 15.8041  2.6863   3
   1 -21  -2 23.5300  2.7742   4
   0 -21  -2 100.121   5.116   4
   0 -21   2 94.6505  5.5220   3
   0  21  -2 95.9396  4.9965   2
   0  21   2 103.356   5.664   1
  -8   0   3 1.80363 0.84177   3
   8   0  -3 0.80328 1.41599   4
  -7   0   3 0.02457 1.07574   3
   7   0  -3 -0.4025  1.1330   4
  -6   0   3 0.72259 1.05064   2
   6   0  -3 1.09242 1.23703   4
  -6   0   3 0.38207 0.96766   3
   6   0  -3 0.28429 1.08427   1
  -5   0   3 0.74416 0.80640   3
  -5   0   3 0.34783 0.82817   2
   5   0  -3 -0.0235  0.9156   4
   5   0  -3 0.52957 0.78842   1
  -4   0   3 0.85823 0.76405   2
  -4   0   3 1.45182 0.65492   3
   4   0  -3 -0.1468  0.6477   1
   4   0  -3 0.43015 0.75859   4
  -3   0   3 1.57973 0.58516   3
  -3   0   3 0.80055 0.64279   2
   3   0  -3 0.27447 0.63654   1
   3   0  -3 -0.1123  0.4961   4
  -2   0   3 -1.9486  0.5499   3
   2   0  -3 -1.1972  0.5256   1
  -2   0   3 0.19969 0.70135   2
   2   0  -3 -0.5795  0.5392   4
  -1   0   3 -0.9068  0.4825   1
  -1   0   3 -0.2047  0.4816   3
  -1   0   3 -0.1585  0.5155   2
   1   0  -3 1.64385 0.59320   4
   0   0   3 -0.6832  0.5107   1
   0   0   3 1.00022 0.62756   2
   0   0   3 0.16012 0.51538   3
   0   0   3 0.09395 0.54281   4
   1   0   3 0.45979 0.56521   1
   1   0   3 -0.4548  0.6229   4
   1   0   3 -0.4019  0.5681   3
   1   0   3 -0.1223  0.4959   2
   2   0   3 0.86305 0.86417   4
   2   0   3 0.64293 0.68213   1
  -2   0  -3 1.05189 0.75417   2
   2   0   3 3.39841 1.04495   3
  -3   0  -3 1.37825 1.09196   3
   3   0   3 0.86493 0.85580   1
  -3   0  -3 0.99611 1.19187   2
   3   0   3 0.51814 1.12658   4
   4   0   3 -0.6360  1.0348   4
  -4   0  -3 0.18475 1.11573   3
  -5   0  -3 -0.2414  0.7191   3
   5   0   3 -0.0971  0.7507   4
   8  -1  -3 1.01090 1.34911   4
  -8  -1   3 3.27429 1.14865   3
  -8   1   3 0.83856 0.64912   3
   8   1  -3 1.24118 1.14658   4
   7  -1  -3 806.793  20.214   4
  -7  -1   3 799.181  20.033   3
   7   1  -3 820.277  20.217   4
  -7   1   3 771.753  19.751   3
   6  -1  -3 1291.84   29.67   4
  -6  -1   3 1294.40   29.75   3
  -6  -1   3 1359.24   30.49   2
  -6   1   3 1263.99   29.45   3
  -6   1   3 1291.20   30.52   2
   6   1  -3 1311.72   31.54   1
   6   1  -3 1321.39   29.53   4
  -5  -1   3 1.59427 0.98805   3
   5  -1  -3 3.55612 1.07419   1
  -5  -1   3 4.00138 1.12819   2
   5  -1  -3 3.22337 1.19277   4
  -5   1   3 1.55202 1.03903   2
  -5   1   3 3.75838 1.02061   3
   5   1  -3 2.55982 1.11495   1
   5   1  -3 1.80601 1.02910   4
  -4  -1   3 58.5569  2.7934   2
  -4  -1   3 59.9287  2.6680   3
   4  -1  -3 62.6166  2.8151   1
   4  -1  -3 58.2971  2.8139   4
  -4   1   3 61.8419  2.8762   2
   4   1  -3 60.3459  2.7300   4
   4   1  -3 60.2485  2.9173   1
  -4   1   3 60.9891  2.4643   3
  -3  -1   3 1002.34   23.30   2
   3  -1  -3 991.444  23.599   1
   3  -1  -3 1016.21   22.06   4
  -3  -1   3 1022.03   22.30   3
  -3   1   3 1036.12   23.46   2
   3   1  -3 1007.39   23.79   1
   3   1  -3 1029.08   21.77   4
  -3   1   3 1012.65   21.96   3
   2  -1  -3 1167.51   24.59   4
  -2  -1   3 1160.93   26.24   2
  -2  -1   3 1129.18   25.10   3
   2   1  -3 1179.99   24.29   4
   2   1  -3 1157.58   26.67   1
   1  -1  -3 25.2196  1.5427   4
  -1  -1   3 28.2158  1.7263   2
  -1  -1   3 26.5234  1.4761   3
  -1   1   3 28.3917  1.3231   3
  -1   1   3 26.3820  1.6500   2
  -1   1   3 28.8790  1.7666   1
   1   1  -3 27.7224  1.4232   4
   1   1  -3 30.5995  1.7386   1
   0  -1   3 13.2747  1.1183   4
   0  -1   3 13.9241  1.2034   3
   0  -1   3 13.4153  1.2343   1
   0  -1   3 14.2699  1.3281   2
   0   1   3 14.8961  1.2719   2
   0   1   3 13.0264  1.0849   3
   0   1   3 13.5997  1.3359   1
   0   1   3 13.6428  1.2189   4
   1  -1   3 1.40351 0.77782   3
   1  -1   3 1.15535 0.58215   1
   1  -1   3 2.14868 0.79902   2
   1  -1   3 1.08823 0.68133   4
   1   1   3 1.28943 0.58268   2
   1   1   3 2.39347 0.73292   3
   1   1   3 1.28154 0.69446   1
   1   1   3 2.34671 0.84603   4
   2  -1   3 15.8455  1.6570   4
   2  -1   3 15.0792  1.7317   3
   2  -1   3 14.6694  1.3701   1
  -2  -1  -3 17.0093  1.4080   2
  -2   1  -3 17.0522  1.5991   2
   2   1   3 15.5669  1.5418   1
   2   1   3 18.1181  1.8320   4
  -3  -1  -3 409.136  10.981   3
   3  -1   3 404.763  11.117   4
   3  -1   3 420.983  11.511   3
  -3   1  -3 387.905  11.336   2
   3   1   3 413.587  11.045   1
   3   1   3 413.765  11.286   4
  -4  -1  -3 143.470   5.688   3
   4  -1   3 144.948   5.955   4
  -4   1  -3 148.118   5.798   3
   4   1   3 142.231   6.022   4
   5  -1   3 62.3320  3.9731   4
  -5  -1  -3 65.6368  3.8647   3
   5   1   3 63.0923  3.9897   4
  -5   1  -3 71.4649  4.0359   3
  -8  -2   3 3.89553 1.36285   3
   8  -2  -3 3.54656 1.61416   4
  -8   2   3 3.49540 1.13506   3
   8   2  -3 6.82694 1.74570   4
  -7  -2   3 8.17233 1.83738   3
   7  -2  -3 5.15831 1.54679   4
   7   2  -3 9.16253 1.99458   4
  -7   2   3 8.14711 1.77680   2
  -7   2   3 9.85633 1.72667   3
   6  -2  -3 202.991   7.121   4
  -6  -2   3 218.350   6.712   2
  -6  -2   3 200.879   6.826   3
  -6   2   3 203.106   6.497   3
  -6   2   3 199.906   6.855   2
   6   2  -3 206.916   7.435   1
   6   2  -3 199.569   6.914   4
   5  -2  -3 72.3348  3.2704   1
  -5  -2   3 73.8362  3.4284   3
   5  -2  -3 70.4322  3.5746   4
  -5  -2   3 73.9912  3.3051   2
   5   2  -3 72.3884  3.6179   1
   5   2  -3 68.7141  3.3329   4
  -5   2   3 77.2877  3.5103   2
  -5   2   3 76.3611  3.0846   3
  -4  -2   3 22.6356  1.7538   2
   4  -2  -3 29.3789  1.8800   1
   4  -2  -3 24.3602  1.9865   4
  -4  -2   3 26.9796  1.8915   3
   4   2  -3 24.4161  1.6717   4
   4   2  -3 25.7526  1.9900   1
  -4   2   3 25.1306  1.4481   3
  -4   2   3 20.3775  1.7961   2
  -3  -2   3 2851.75   60.25   3
   3  -2  -3 2826.02   63.42   1
   3  -2  -3 2839.01   59.10   4
  -3  -2   3 2911.79   62.49   2
   3   2  -3 2932.18   58.56   4
  -3   2   3 2781.12   62.52   2
   3   2  -3 2826.56   63.77   1
  -3   2   3 2879.35   59.64   3
  -2  -2   3 5601.19  120.01   3
  -2  -2   3 5948.53  124.34   2
   2  -2  -3 5679.91  118.97   4
  -2   2   3 5910.80  128.37   1
   2   2  -3 5796.21  117.56   4
  -2   2   3 5866.10  120.49   3
   2   2  -3 5544.39  126.59   1
  -2   2   3 5864.01  128.08   2
  -1  -2   3 2569.35   53.40   3
  -1  -2   3 2491.15   55.39   2
   1  -2  -3 2466.05   52.25   4
   1   2  -3 2541.30   56.36   1
  -1   2   3 2609.63   52.88   3
   1   2  -3 2496.70   51.70   4
  -1   2   3 2535.32   55.34   2
  -1   2   3 2554.68   56.54   1
   0  -2   3 1119.69   23.31   4
   0  -2   3 1097.81   24.13   3
   0  -2   3 1091.87   24.98   2
   0  -2   3 1087.39   25.25   1
   0   2   3 1074.14   24.68   2
   0   2   3 1111.71   25.54   1
   0   2   3 1120.82   23.69   3
   0   2   3 1082.13   23.74   4
   1  -2   3 96.9748  3.4036   4
   1  -2   3 94.3964  3.6193   3
   1  -2   3 100.297   3.722   2
   1  -2   3 91.9085  3.3315   1
   1   2   3 98.8205  3.7231   1
   1   2   3 90.2287  3.6264   4
   1   2   3 95.8837  3.3949   3
   1   2   3 100.766   3.347   2
   2  -2   3 180.366   5.152   1
  -2  -2  -3 166.845   5.225   3
   2  -2   3 164.935   5.418   4
   2  -2   3 162.232   5.653   3
  -2   2  -3 166.500   5.502   2
   2   2   3 161.726   5.579   4
   2   2   3 164.995   5.477   1
   3  -2   3 1256.70   28.63   3
  -3  -2  -3 1238.79   27.95   3
   3  -2   3 1226.78   27.78   4
  -3   2  -3 1215.37   29.26   2
   3   2   3 1181.65   27.84   4
   3   2   3 1249.51   29.08   1
  -4  -2  -3 342.030  10.026   3
   4  -2   3 345.909  10.375   4
   4   2   3 318.397  10.213   4
  -4   2  -3 335.421  10.080   3
  -5  -2  -3 8.16929 1.66588   3
   5  -2   3 8.89595 1.71533   4
   5   2   3 8.74022 1.75486   4
  -5   2  -3 6.08571 1.61290   3
   7  -3  -3 136.982   5.901   4
  -7  -3   3 128.857   5.606   3
  -7   3   3 130.910   5.551   2
  -7   3   3 130.728   5.284   3
   7   3  -3 124.072   5.566   4
  -6  -3   3 124.151   5.137   3
   6  -3  -3 134.193   5.542   4
   6   3  -3 132.495   5.804   1
  -6   3   3 135.372   4.887   3
  -6   3   3 128.117   5.173   2
   6   3  -3 133.173   5.238   4
  -5  -3   3 21.7785  2.0198   3
  -5  -3   3 19.6054  1.7126   2
   5  -3  -3 20.0240  2.1208   4
   5  -3  -3 20.3046  1.7544   1
  -5   3   3 21.7853  1.9974   2
  -5   3   3 20.0411  1.6101   3
   5   3  -3 19.3725  1.8144   4
   5   3  -3 20.7480  2.1046   1
  -4  -3   3 377.061   9.800   2
   4  -3  -3 386.862   9.889   1
  -4  -3   3 377.282   9.745   3
   4  -3  -3 368.415   9.886   4
  -4   3   3 371.187  10.078   2
   4   3  -3 378.089  10.438   1
   4   3  -3 366.055   9.109   4
  -4   3   3 371.058   8.979   3
   3  -3  -3 260.390   7.408   1
   3  -3  -3 278.804   7.445   4
  -3  -3   3 278.718   7.487   2
  -3  -3   3 277.846   7.387   3
   3   3  -3 269.036   7.844   1
  -3   3   3 278.386   6.505   3
   3   3  -3 276.955   6.599   4
  -3   3   3 277.418   7.686   2
  -2  -3   3 25.0562  1.7440   3
  -2  -3   3 23.3124  1.7106   2
   2  -3  -3 22.4606  1.7448   4
   2   3  -3 18.9970  1.6378   1
   2   3  -3 21.7954  1.1329   4
  -2   3   3 20.8442  1.5690   1
  -2   3   3 22.1345  1.6751   2
   1  -3  -3 527.008  12.433   4
  -1  -3   3 547.398  13.133   2
  -1  -3   3 537.396  12.643   3
  -1   3   3 524.661  13.335   1
   1   3  -3 536.484  11.485   4
  -1   3   3 546.710  12.939   2
   1   3  -3 555.177  13.225   1
   0  -3  -3 156.767   4.555   4
   0  -3   3 158.743   4.143   4
   0  -3  -3 150.105   3.924   3
   0  -3   3 146.701   4.769   2
   0  -3   3 151.906   4.685   3
   0   3   3 148.047   4.896   1
   0   3   3 144.750   4.380   2
   0   3  -3 150.679   4.530   1
  -1  -3  -3 645.363  14.749   3
   1  -3   3 635.036  15.468   1
   1  -3   3 620.020  15.377   3
   1  -3   3 683.660  15.997   2
   1  -3   3 651.053  14.743   4
   1   3   3 669.174  15.215   2
   1   3   3 642.641  16.071   1
   1   3   3 657.675  15.316   4
  -2  -3  -3 0.82425 0.74252   3
   2  -3   3 1.36853 0.56215   1
   2  -3   3 2.74526 1.00426   4
   2  -3   3 2.53619 1.09296   3
  -2   3  -3 2.84020 1.06036   2
   2   3   3 1.99880 0.90845   1
   2   3   3 1.60159 0.62930   2
   2   3   3 0.37781 0.89027   4
   3  -3   3 105.584   4.476   4
   3  -3   3 103.515   4.666   3
  -3  -3  -3 99.9729  4.2016   3
   3   3   3 102.730   4.310   1
   3   3   3 96.2028  4.5494   4
  -3   3  -3 110.392   4.964   2
  -4  -3  -3 78.7935  4.0400   3
   4  -3   3 77.2352  4.2228   4
   4   3   3 74.1025  4.2856   4
  -5  -3  -3 37.1202  2.8775   3
   5  -3   3 38.2172  3.0542   4
  -5   3  -3 32.6760  2.7996   3
   5   3   3 41.4793  3.2477   4
  -7  -4   3 46.0530  3.2837   3
   7  -4  -3 51.9653  3.6048   4
  -7   4   3 48.0987  3.3894   2
   7   4  -3 52.6108  3.5950   4
  -7   4   3 46.8725  3.0868   3
   6  -4  -3 85.0248  4.4621   4
  -6  -4   3 91.8805  4.3388   3
  -6   4   3 92.9460  3.8790   3
   6   4  -3 91.3138  4.7861   1
   6   4  -3 91.3940  4.1840   4
  -6   4   3 84.1725  4.1613   2
   5  -4  -3 59.4269  2.8802   1
   5  -4  -3 58.0211  3.3095   4
  -5  -4   3 66.6402  3.3285   3
  -5  -4   3 61.1645  2.8919   2
  -5   4   3 58.7512  3.1835   2
   5   4  -3 55.6827  3.3726   1
   5   4  -3 58.1061  2.9324   4
  -5   4   3 61.9542  2.7127   3
   4  -4  -3 262.737   7.774   4
  -4  -4   3 269.667   7.421   2
   4  -4  -3 266.491   7.399   1
  -4  -4   3 260.248   7.562   3
  -4   4   3 267.707   6.712   3
   4   4  -3 268.462   8.161   1
   4   4  -3 266.273   6.873   4
  -4   4   3 266.747   7.785   2
  -3  -4   3 49.4196  2.3857   2
  -3  -4   3 52.2426  2.6359   3
   3  -4  -3 53.3729  2.7227   4
   3  -4  -3 48.4791  2.2963   1
   3   4  -3 51.8457  1.8551   4
  -3   4   3 45.1130  2.4895   2
   3   4  -3 52.2993  2.7216   1
  -3   4   3 50.4653  1.7154   3
  -2  -4   3 60.7696  2.6352   2
  -2  -4   3 61.5340  2.7499   3
   2  -4  -3 56.6565  2.7239   4
  -2   4   3 59.7612  2.6003   1
   2   4  -3 62.2968  2.8261   1
  -2   4   3 61.1985  2.6935   2
  -1  -4   3 535.644  12.829   2
  -1  -4   3 509.947  12.414   3
   1  -4  -3 534.338  12.308   4
  -1   4   3 516.344  12.539   2
   1   4  -3 520.029  10.960   4
   1   4  -3 526.373  12.877   1
  -1   4   3 490.633  12.918   1
   0  -4   3 8.58366 1.19698   3
   0  -4  -3 8.39690 0.76469   3
   0  -4   3 9.28084 1.23351   2
   0  -4   3 8.93271 0.84840   4
   0  -4  -3 7.92493 1.15050   4
   0   4   3 8.83197 0.94078   2
   0   4  -3 8.90092 0.94936   1
   0   4   3 14.2936  1.4261   1
  -1  -4  -3 2.81340 0.65305   3
   1  -4   3 1.33263 0.84295   3
   1  -4   3 2.88067 1.05606   2
   1  -4   3 2.58537 0.76584   4
  -1   4  -3 1.56847 0.56681   1
   1   4   3 3.34998 0.97266   1
   1   4   3 2.80583 0.62243   2
   1   4   3 2.91013 1.00867   4
  -2  -4  -3 21.6985  1.6960   3
   2  -4   3 23.2075  2.0206   4
   2  -4   3 21.1872  2.0948   3
   2   4   3 24.3020  2.0257   1
   2   4   3 20.3320  2.0406   4
  -2   4  -3 23.3462  1.3803   1
  -2   4  -3 23.7517  2.1491   2
  -3  -4  -3 2.89912 1.12970   3
   3  -4   3 2.12137 1.22676   4
   3  -4   3 1.14408 1.07748   3
   3   4   3 1.83466 1.12889   1
   3   4   3 2.22323 1.27396   4
  -3   4  -3 2.03889 1.39010   2
   4  -4   3 61.6296  3.9241   3
   4  -4   3 63.6309  3.8215   4
  -4  -4  -3 63.9216  3.5687   3
   4   4   3 61.3035  3.5857   1
   4   4   3 64.3125  3.9049   4
  -4   4  -3 58.2294  3.7227   2
   5  -4   3 31.7206  2.7766   4
  -5  -4  -3 29.4034  2.5939   3
   5   4   3 26.0231  2.9641   4
  -5   4  -3 29.6307  2.7155   3
   7  -5  -3 266.534   9.301   4
  -7  -5   3 277.023   9.160   3
  -7   5   3 266.839   9.004   2
   7   5  -3 268.694  10.324   1
   7   5  -3 266.904   8.789   4
   6  -5  -3 185.629   6.947   4
  -6  -5   3 180.920   6.671   3
   6   5  -3 180.520   6.260   4
  -6   5   3 186.851   6.029   3
   6   5  -3 183.109   7.376   1
  -6   5   3 179.351   6.595   2
  -5  -5   3 481.672  12.733   3
  -5  -5   3 485.589  12.211   2
  -5   5   3 487.305  11.755   3
   5   5  -3 479.752  11.896   4
  -5   5   3 465.043  12.913   2
   5   5  -3 500.600  13.750   1
  -4  -5   3 313.093   8.377   2
   4  -5  -3 311.971   8.868   4
   4  -5  -3 310.531   8.368   1
  -4  -5   3 310.498   8.736   3
  -4   5   3 317.083   7.635   3
   4   5  -3 308.450   7.720   4
  -4   5   3 310.853   8.902   2
   4   5  -3 310.998   9.337   1
  -3  -5   3 207.274   6.023   2
   3  -5  -3 217.793   6.455   4
  -3  -5   3 212.938   6.382   3
  -3   5   3 207.110   6.044   1
   3   5  -3 204.908   5.025   4
  -3   5   3 208.349   4.948   3
   3   5  -3 196.843   6.515   1
  -3   5   3 210.404   6.325   2
  -2  -5   3 622.388  15.278   3
   2  -5  -3 647.163  15.015   4
  -2  -5   3 654.505  15.433   2
  -2   5   3 647.513  15.450   2
  -2   5   3 648.505  15.657   1
   2   5  -3 627.783  15.862   1
   1  -5  -3 45.0891  2.4631   4
  -1  -5   3 47.6160  2.4101   2
  -1  -5   3 51.5622  2.5872   3
   1   5  -3 50.4634  2.4000   1
  -1   5   3 50.9425  2.2997   2
  -1   5   3 46.7702  2.4067   1
   0  -5   3 96.0621  2.8213   4
   0  -5  -3 88.4939  2.6758   3
   0  -5   3 94.3014  3.7138   2
   0  -5  -3 92.8232  3.4919   4
   0  -5   3 89.6169  3.5796   3
   0   5   3 91.7089  3.1264   2
   0   5   3 91.9877  3.7104   1
   0   5  -3 91.9094  3.2663   1
  -1  -5  -3 11.4367  1.0469   3
   1  -5   3 11.4740  1.1192   4
   1  -5   3 9.32137 1.40982   3
   1   5   3 9.01318 1.41471   4
   1   5   3 12.4645  1.0441   2
  -1   5  -3 10.9348  1.0242   1
  -1   5  -3 9.71064 1.34516   2
   1   5   3 11.0615  1.4896   1
  -2  -5  -3 36.9983  2.1674   3
   2  -5   3 41.3717  2.7494   3
   2  -5   3 44.8441  2.5932   4
  -2   5  -3 44.7719  3.0144   2
   2   5   3 38.6285  2.6264   1
   2   5   3 36.1247  2.6718   4
   3  -5   3 57.1569  3.3058   4
   3  -5   3 58.1103  3.5614   3
  -3  -5  -3 56.9445  3.0462   3
   3   5   3 56.7761  3.3838   1
   3   5   3 57.4807  3.4313   4
  -3   5  -3 60.7492  3.8189   2
  -4  -5  -3 51.3962  3.2544   3
   4  -5   3 55.7453  3.5727   4
   4  -5   3 54.1796  3.6526   3
   4   5   3 53.0526  3.6193   4
  -4   5  -3 47.4740  3.4763   2
   4   5   3 66.6898  3.7659   1
   5  -5   3 96.0997  4.9865   4
  -5  -5  -3 95.8874  4.8078   3
   5   5   3 92.3465  5.1012   4
  -5   5  -3 93.3045  4.8771   3
  -7  -6   3 19.5554  2.4679   3
   7  -6  -3 18.2922  2.5547   4
   7   6  -3 17.4300  3.0178   1
   7   6  -3 24.8083  2.6412   4
  -7   6   3 17.5761  2.2905   2
   6  -6  -3 471.787  13.608   4
  -6  -6   3 485.453  13.554   3
  -6   6   3 515.174  12.616   3
   6   6  -3 488.041  12.747   4
   6   6  -3 482.979  14.727   1
  -6   6   3 503.366  13.818   2
  -5  -6   3 1198.48   27.73   3
  -5  -6   3 1208.15   27.39   2
   5  -6  -3 1173.84   27.54   4
  -5   6   3 1178.88   26.39   3
   5   6  -3 1230.34   29.66   1
  -5   6   3 1180.80   28.44   2
   5   6  -3 1205.20   26.27   4
   4  -6  -3 147.671   5.395   4
  -4  -6   3 131.934   4.499   2
  -4  -6   3 136.052   5.077   3
   4  -6  -3 139.705   4.487   1
   4   6  -3 138.376   4.094   4
   4   6  -3 134.342   5.399   1
  -4   6   3 133.372   3.883   3
  -4   6   3 137.849   5.068   2
   3  -6  -3 18.5525  1.9148   4
  -3  -6   3 19.2141  1.8473   3
  -3  -6   3 13.4615  1.3929   2
  -3   6   3 13.4978  0.8981   3
  -3   6   3 14.0102  1.4964   2
  -3   6   3 14.6801  1.3624   1
   3   6  -3 15.4515  1.6915   1
   3   6  -3 13.5248  0.9669   4
  -2  -6   3 1754.01   38.74   3
  -2  -6   3 1773.23   39.47   2
   2  -6  -3 1764.50   37.81   4
  -2   6   3 1764.83   39.49   2
  -2   6   3 1770.58   40.17   1
   2   6  -3 1782.10   40.49   1
   1  -6  -3 3450.94   70.29   4
  -1  -6   3 3417.52   72.00   3
  -1  -6   3 3380.99   74.15   2
  -1   6   3 3373.53   73.79   2
   1   6  -3 3456.80   75.42   1
  -1   6   3 3292.32   75.49   1
   0  -6   3 765.515  15.950   4
   0  -6   3 728.369  18.025   2
   0  -6   3 723.192  17.556   3
   0  -6  -3 776.620  16.256   3
   0  -6  -3 724.028  17.001   4
   0   6   3 745.879  18.372   1
   0   6   3 731.031  17.175   2
   0   6  -3 758.049  17.722   1
  -1  -6  -3 419.218  10.026   3
   1  -6   3 422.703  10.024   4
   1  -6   3 413.754  11.061   3
   1   6   3 417.850  10.066   2
   1   6   3 427.005  11.582   1
  -1   6  -3 421.706  10.444   1
   1   6   3 408.305  10.918   4
  -1   6  -3 420.100  11.232   2
   2  -6   3 992.984  23.236   3
   2  -6   3 984.089  22.046   4
  -2  -6  -3 948.914  22.131   3
   2   6   3 987.905  22.856   4
   2   6   3 974.335  24.099   1
  -2   6  -3 992.844  24.009   2
   3  -6   3 229.164   7.350   4
  -3  -6  -3 226.326   7.070   3
   3  -6   3 222.746   7.781   3
   3   6   3 222.449   7.739   1
  -3   6  -3 235.263   8.359   2
   3   6   3 219.150   7.689   4
   4  -6   3 6.76666 1.68324   3
  -4  -6  -3 7.19948 1.60296   3
   4  -6   3 6.89221 1.73944   4
   4   6   3 5.50328 1.70373   4
  -4   6  -3 7.57981 1.88098   2
   4   6   3 5.71007 1.59292   1
  -5  -6  -3 -0.0267  0.9127   3
   5  -6   3 1.03550 0.75756   4
  -5   6  -3 2.03145 1.25694   3
   5   6   3 1.53150 1.31027   4
   7  -7  -3 1.91878 1.04577   4
  -7  -7   3 1.41429 0.92798   3
  -7   7   3 0.10012 1.03133   2
   7   7  -3 2.99530 1.59907   1
   6  -7  -3 0.27817 1.11782   4
  -6  -7   3 1.47831 1.26544   3
  -6   7   3 2.25619 1.29324   2
   6   7  -3 0.36354 1.32558   1
   5  -7  -3 2.32860 1.48183   4
  -5  -7   3 0.75195 1.20094   3
   5   7  -3 0.61552 1.19613   1
   5   7  -3 0.97061 0.90477   4
  -5   7   3 1.49852 1.17334   2
  -4  -7   3 349.547   9.320   2
   4  -7  -3 356.161  10.214   4
   4  -7  -3 363.884   9.353   1
  -4  -7   3 336.329   9.836   3
   4   7  -3 353.606   8.537   4
  -4   7   3 358.253  10.114   2
   4   7  -3 352.955  10.628   1
   3  -7  -3 1233.41   28.30   4
  -3  -7   3 1284.16   28.93   2
  -3  -7   3 1253.42   28.80   3
  -3   7   3 1274.14   29.32   1
   3   7  -3 1287.63   30.29   1
  -3   7   3 1260.55   29.38   2
   3   7  -3 1293.27   26.32   4
  -2  -7   3 23.6568  2.0889   3
  -2  -7   3 18.5644  1.6959   2
   2  -7  -3 20.6263  1.9473   4
  -2   7   3 19.2905  1.6851   2
  -2   7   3 17.0388  1.6115   1
   2   7  -3 19.9513  1.8672   1
  -1  -7   3 810.521  19.301   3
   1  -7  -3 795.843  18.715   4
  -1  -7   3 826.131  19.559   2
  -1   7   3 804.650  19.090   2
   1   7  -3 845.589  19.782   1
  -1   7   3 824.136  19.885   1
   0  -7  -3 324.848   8.699   4
   0  -7   3 317.937   9.049   3
   0  -7  -3 322.665   7.642   3
   0  -7   3 323.772   9.176   2
   0  -7   3 331.114   7.499   4
   0   7  -3 329.543   8.708   1
   0   7   3 322.508   8.284   2
   0   7   3 324.621   9.323   1
   1  -7   3 184.783   5.217   4
   1  -7   3 190.793   6.314   3
  -1  -7  -3 182.767   5.204   3
   1   7   3 191.844   6.492   1
  -1   7  -3 181.358   6.244   2
   1   7   3 188.704   5.092   2
  -1   7  -3 183.364   5.365   1
  -2  -7  -3 554.362  13.815   3
   2  -7   3 594.806  13.930   4
   2  -7   3 576.900  14.940   3
   2   7   3 571.256  14.705   4
  -2   7  -3 574.736  15.457   2
   2   7   3 563.703  15.507   1
   3  -7   3 11.0748  1.8120   4
   3  -7   3 8.33273 1.87685   3
  -3  -7  -3 7.63693 1.49444   3
   3   7   3 6.95551 1.80266   4
   3   7   3 10.6673  1.9873   1
  -3   7  -3 11.0827  2.2723   2
   4  -7   3 79.7299  4.4507   4
   4  -7   3 80.4544  4.5360   3
  -4  -7  -3 78.4957  4.1793   3
   4   7   3 92.0484  4.7573   1
  -4   7  -3 78.6191  4.6939   2
   4   7   3 89.2657  4.7767   4
  -5  -7  -3 6.04867 1.55670   3
   5  -7   3 6.25689 1.53508   4
   5  -7   3 4.87535 1.61242   3
   5   7   3 3.66057 1.82553   4
   7  -8  -3 2.66667 1.33158   4
  -7  -8   3 0.35190 1.02051   3
  -7   8   3 4.21954 1.38009   2
   7   8  -3 0.89948 1.19577   1
  -6  -8   3 -0.6418  1.1918   3
   6  -8  -3 1.64263 1.43261   4
   6   8  -3 1.69054 1.60523   1
  -6   8   3 0.75000 1.17355   2
  -5  -8   3 3.90907 1.55272   3
   5  -8  -3 1.34982 1.35636   4
  -5   8   3 1.05346 1.15232   2
   5   8  -3 1.51287 1.40712   1
   4  -8  -3 -1.6890  1.1246   4
  -4  -8   3 0.44451 0.78713   2
   4  -8  -3 1.40709 0.72883   1
  -4  -8   3 0.71591 1.13952   3
   4   8  -3 1.51791 1.22477   1
  -4   8   3 -0.3358  0.8648   2
  -3  -8   3 41.3511  2.7569   3
  -3  -8   3 44.5537  2.3896   2
   3  -8  -3 46.9579  3.0449   4
  -3   8   3 43.7811  2.6868   2
   3   8  -3 43.4208  2.8451   1
  -3   8   3 40.8031  2.2588   1
  -2  -8   3 1847.51   41.80   2
   2  -8  -3 1873.02   40.24   4
  -2  -8   3 1890.58   41.26   3
   2   8  -3 1891.10   43.00   1
  -2   8   3 1843.23   42.50   1
  -2   8   3 1859.99   41.86   2
  -1  -8   3 1491.58   33.54   3
   1  -8  -3 1495.36   32.60   4
  -1  -8   3 1481.12   34.17   2
   1  -8  -3 1526.63   31.58   3
  -1   8   3 1451.12   34.76   1
   1   8  -3 1540.37   34.70   1
  -1   8   3 1502.71   33.70   2
   0  -8   3 284.904   8.394   3
   0  -8  -3 279.161   7.973   4
   0  -8  -3 288.700   6.871   3
   0  -8   3 281.673   6.594   4
   0   8   3 273.992   8.467   1
   0   8  -3 271.556   7.758   1
   0   8   3 279.959   7.376   2
  -1  -8  -3 113.611   3.831   3
   1  -8   3 112.428   4.761   3
   1  -8   3 116.821   3.779   4
  -1  -8  -3 110.037   4.437   4
  -1   8  -3 118.046   3.858   1
   1   8   3 120.358   5.024   1
  -1   8  -3 112.422   4.719   2
   2  -8   3 521.039  12.795   4
  -2  -8  -3 505.516  12.686   3
  -2   8  -3 527.344  14.574   2
   2   8   3 493.005  13.519   4
   2   8   3 531.498  14.596   1
   3  -8   3 179.148   6.408   4
   3  -8   3 182.218   7.007   3
  -3  -8  -3 182.654   6.182   3
  -3   8  -3 185.003   7.507   2
   3   8   3 181.006   6.897   4
   3   8   3 187.230   7.224   1
   4  -8   3 0.22899 1.01078   3
   4  -8   3 0.35757 1.12792   4
  -4  -8  -3 -0.4940  1.0359   3
  -4   8  -3 0.51711 1.37045   2
   4   8   3 0.04517 1.28142   1
   4   8   3 1.60115 1.18142   4
  -5  -8  -3 0.04597 1.02852   3
   5  -8   3 2.16521 1.60479   3
   5  -8   3 1.36463 0.86768   4
   5   8   3 -0.4136  1.5489   4
  -5   8  -3 0.65789 1.00914   2
   7  -9  -3 234.213   9.268   4
  -7  -9   3 249.430   9.219   3
  -7   9   3 266.367   9.357   2
   7   9  -3 246.477  10.419   1
  -6  -9   3 306.448  10.106   3
   6  -9  -3 285.693   9.994   4
   6   9  -3 317.129  11.328   1
  -6   9   3 314.991  10.272   2
   5  -9  -3 313.027  10.006   4
  -5  -9   3 298.003   9.630   3
  -5   9   3 308.865   9.830   2
   5   9  -3 312.818  10.635   1
  -4  -9   3 44.5741  2.5691   2
  -4  -9   3 50.3737  3.3328   3
   4  -9  -3 49.9341  3.4737   4
  -4   9   3 56.7351  3.3622   2
   4   9  -3 49.8878  3.5300   1
   3  -9  -3 329.051   9.823   4
  -3  -9   3 346.733   9.265   2
  -3  -9   3 341.531   9.947   3
   3   9  -3 339.428  10.299   1
  -3   9   3 333.122   9.220   1
  -3   9   3 340.234   9.797   2
  -2  -9   3 1134.80   26.27   2
  -2  -9   3 1094.01   26.14   3
   2  -9  -3 1122.97   25.62   4
   2   9  -3 1155.49   27.22   1
  -2   9   3 1120.51   26.69   1
  -2   9   3 1143.01   26.37   2
  -1  -9   3 9.75950 1.52065   2
   1  -9  -3 10.7057  1.6431   4
  -1  -9   3 10.1952  1.7352   3
  -1   9   3 10.3557  1.5383   1
  -1   9   3 9.55894 1.23115   2
   1   9  -3 10.1440  1.4274   1
   0  -9  -3 285.335   8.233   4
   0  -9  -3 287.214   7.121   3
   0  -9   3 287.900   8.712   3
   0   9   3 273.275   7.573   2
   0   9  -3 306.334   8.219   1
   0   9   3 292.055   8.915   1
   0   9  -3 279.428   8.438   2
   1  -9   3 32.4879  1.8830   4
  -1  -9  -3 34.5285  2.4951   4
   1  -9   3 35.0120  2.7468   3
  -1  -9  -3 31.5720  1.9340   3
  -1   9  -3 31.3735  1.8166   1
  -1   9  -3 31.6620  2.6892   2
   1   9   3 36.4467  2.7980   1
   2  -9   3 19.7022  2.4094   3
   2  -9   3 28.5678  2.1921   4
  -2  -9  -3 20.7669  1.9176   3
   2   9   3 17.7983  2.4177   1
   2   9   3 22.9087  2.4639   4
  -2   9  -3 25.0041  2.7854   2
  -3  -9  -3 178.211   6.175   3
   3  -9   3 171.675   6.955   3
   3  -9   3 179.262   6.421   4
   3   9   3 182.521   7.390   1
  -3   9  -3 179.954   7.419   2
   3   9   3 175.159   6.862   4
  -4  -9  -3 17.1317  2.2336   3
   4  -9   3 17.3491  2.5690   3
   4  -9   3 20.3835  2.5470   4
   4   9   3 21.0536  2.7199   1
   4   9   3 19.4550  2.6153   4
  -4   9  -3 20.2150  2.8344   2
  -7 -10   3 100.092   5.571   3
   7 -10  -3 100.428   5.788   4
   7  10  -3 108.379   6.504   1
  -7  10   3 116.225   5.842   2
  -6 -10   3 54.7707  3.7927   3
   6 -10  -3 59.2001  4.0061   4
  -6  10   3 53.9775  3.8017   2
   6  10  -3 44.1772  4.0815   1
  -5 -10   3 105.506   5.230   3
   5 -10  -3 107.488   5.452   4
   5  10  -3 121.234   5.987   1
  -5  10   3 109.135   5.269   2
  -4 -10   3 536.948  14.647   3
   4 -10  -3 519.223  14.543   4
  -4 -10   3 556.570  13.694   2
  -4  10   3 544.632  14.871   2
   4  10  -3 553.251  15.674   1
  -3 -10   3 143.877   5.071   2
   3 -10  -3 143.835   5.794   4
  -3 -10   3 142.672   5.757   3
  -3  10   3 142.136   4.988   1
  -3  10   3 149.264   5.580   2
   3  10  -3 145.989   5.935   1
  -2 -10   3 280.547   8.249   2
   2 -10  -3 276.925   8.450   4
  -2 -10   3 265.675   8.579   3
  -2  10   3 287.114   8.298   2
   2  10  -3 287.595   8.814   1
  -2  10   3 283.609   8.340   1
  -1 -10   3 1258.35   29.69   2
  -1 -10   3 1246.21   29.22   3
   1 -10  -3 1271.60   28.39   4
  -1  10   3 1273.90   30.23   1
   1  10  -3 1273.10   29.98   1
  -1  10   3 1273.25   29.01   2
   0 -10   3 545.340  14.383   3
   0 -10  -3 548.846  12.567   3
   0 -10  -3 554.305  13.758   4
   0  10  -3 546.980  13.862   1
   0  10   3 542.957  13.221   2
   0  10   3 544.819  14.776   1
   0  10  -3 512.154  14.091   2
  -1 -10  -3 288.904   8.572   4
   1 -10   3 275.478   8.983   3
  -1 -10  -3 300.227   7.842   3
  -1  10  -3 283.894   9.141   2
   1  10   3 289.301   9.514   1
   2 -10   3 244.853   7.164   4
  -2 -10  -3 227.894   7.002   3
   2 -10   3 226.742   8.043   3
  -2 -10  -3 224.929   7.516   4
   2  10   3 240.637   8.699   1
  -2  10  -3 232.398   8.637   2
  -3 -10  -3 37.0725  2.6585   3
   3 -10   3 42.1717  2.9652   4
   3 -10   3 38.6330  3.2382   3
   3  10   3 38.1106  3.1292   4
  -3  10  -3 38.9322  3.4498   2
   3  10   3 39.1685  3.4353   1
   4 -10   3 75.0183  4.2883   4
   4 -10   3 71.3157  4.4702   3
  -4 -10  -3 74.7559  4.0438   3
  -4  10  -3 73.4374  4.6329   2
   4  10   3 81.5575  4.8451   1
   4  10   3 83.3868  4.7768   4
  -7 -11   3 2.52798 1.51597   3
   7 -11  -3 -0.1155  1.7482   4
  -7  11   3 0.88501 1.44504   2
   7  11  -3 2.73213 1.43882   1
  -6 -11   3 2.99926 1.49363   3
   6 -11  -3 1.25294 1.30129   4
  -6  11   3 2.95972 1.47141   2
   6  11  -3 2.05889 1.52639   1
   5 -11  -3 8.36911 2.07014   4
  -5 -11   3 5.27674 1.98167   3
  -5  11   3 5.85840 1.69920   2
   5  11  -3 1.90383 1.68571   1
  -4 -11   3 8.52703 1.98447   3
   4 -11  -3 9.68074 2.15147   4
   4  11  -3 8.08802 2.03373   1
  -4  11   3 11.7917  1.9719   2
  -3 -11   3 3.91715 1.61335   3
  -3 -11   3 6.25219 1.34967   2
   3 -11  -3 3.65849 1.65326   4
   3  11  -3 1.48263 1.21553   1
  -3  11   3 4.37625 1.48309   2
  -3  11   3 5.75677 1.22915   1
  -2 -11   3 151.032   5.536   2
   2 -11  -3 154.229   5.900   4
  -2 -11   3 154.765   5.933   3
  -2  11   3 156.297   5.619   2
  -2  11   3 153.454   5.559   1
   2  11  -3 150.508   5.928   1
  -1 -11   3 6.85078 1.69290   3
   1 -11  -3 3.09539 1.33465   4
  -1  11   3 5.83372 1.51080   1
   1  11  -3 7.16462 1.40387   2
   1  11  -3 4.86829 1.40589   1
  -1  11   3 5.14559 1.15059   2
   0 -11   3 31.1572  2.7795   3
   0 -11  -3 25.1434  2.3540   4
   0  11  -3 28.4593  2.5184   2
   0  11  -3 25.6521  2.1254   1
   0  11   3 30.9118  2.7310   1
   0  11   3 30.5031  1.9957   2
  -1 -11  -3 110.052   4.748   4
   1 -11   3 114.297   5.186   3
  -1 -11  -3 120.090   4.231   3
   1  11   3 112.397   5.502   1
  -1  11  -3 120.404   5.383   2
  -2 -11  -3 31.3321  2.6861   4
   2 -11   3 29.3334  2.7830   3
  -2 -11  -3 29.4293  2.3330   3
  -2  11  -3 26.7765  3.0364   2
   2  11   3 32.1701  3.1484   1
   3 -11   3 1.26975 1.32149   3
  -3 -11  -3 0.78794 1.05687   3
   3 -11   3 0.60384 1.25752   4
  -3  11  -3 0.08230 1.29147   2
   3  11   3 0.36398 1.32697   1
  -4 -11  -3 25.2309  2.5462   3
   4 -11   3 23.6114  3.0962   3
   4 -11   3 30.5619  2.7879   4
   4  11   3 30.0660  3.3075   1
   4  11   3 31.4280  3.2874   4
  -4  11  -3 24.2159  2.9886   2
  -6 -12   3 17.7044  2.6296   3
   6 -12  -3 15.3889  2.5047   4
   6  12  -3 23.7503  3.4239   1
  -6  12   3 20.3542  2.6952   2
   5 -12  -3 59.8136  4.1871   4
  -5 -12   3 51.5393  3.8508   3
   5  12  -3 50.5384  4.1983   1
  -5  12   3 55.5471  3.8474   2
   4 -12  -3 149.620   6.460   4
  -4 -12   3 148.840   6.409   3
   4  12  -3 140.926   6.583   1
  -4  12   3 148.824   6.364   2
  -3 -12   3 156.480   6.386   3
  -3 -12   3 163.295   5.753   2
   3 -12  -3 155.468   6.338   4
   3  12  -3 156.768   6.658   1
  -3  12   3 159.665   5.594   1
  -3  12   3 165.353   6.348   2
   2 -12  -3 9.20179 1.81178   4
  -2 -12   3 11.8938  2.1156   3
   2  12  -3 11.3600  1.9405   1
  -2  12   3 9.17879 1.61486   1
   2  12  -3 10.1303  1.4878   2
  -2  12   3 13.9850  1.8453   2
   1 -12  -3 92.9845  4.4353   4
  -1 -12   3 91.8344  4.6573   3
   1  12  -3 95.4714  4.3847   1
  -1  12   3 101.496   4.103   2
  -1  12   3 97.4712  4.5910   1
   1  12  -3 95.1711  4.2788   2
   0 -12  -3 864.514  21.697   4
   0  12   3 955.117  21.680   2
   0  12   3 929.334  23.786   1
   0  12  -3 927.604  22.971   2
   0  12  -3 942.909  22.647   1
  -1 -12  -3 425.450  10.937   3
  -1 -12  -3 420.132  11.816   4
   1 -12   3 432.559  12.585   3
   1  12   3 408.179  13.051   1
  -1  12  -3 442.371  12.962   2
  -2 -12  -3 1.93773 1.30302   4
  -2 -12  -3 3.03569 1.24816   3
   2 -12   3 1.69662 1.44077   3
   2  12   3 2.87989 1.55980   1
  -2  12  -3 2.60352 1.73710   2
  -3 -12  -3 7.22206 1.57546   4
   3 -12   3 2.70239 1.39858   3
  -3 -12  -3 1.47927 1.19112   3
   3  12   3 4.95474 1.68479   1
  -3  12  -3 2.31681 1.59107   2
  -4 -12  -3 17.7983  2.2099   3
   4 -12   3 18.7863  2.9731   3
   4  12   3 15.3158  2.5495   1
  -4  12  -3 17.4726  2.7533   2
   4  12   3 14.0943  2.6341   4
   6 -13  -3 86.8665  5.2677   4
  -6 -13   3 97.5146  5.4592   3
   6  13  -3 97.6018  6.1918   1
  -6  13   3 100.650   5.646   2
   5 -13  -3 74.4749  4.7516   4
  -5 -13   3 71.2547  4.5607   3
  -5  13   3 90.4760  5.0498   2
   5  13  -3 81.1692  5.3793   1
  -4 -13   3 275.439   9.459   3
   4 -13  -3 253.324   9.199   4
   4  13  -3 258.869   9.916   1
  -4  13   3 279.418   9.562   2
  -3 -13   3 808.387  20.799   3
   3 -13  -3 796.469  20.443   4
  -3  13   3 806.547  20.227   1
   3  13  -3 848.318  19.875   2
  -3  13   3 810.944  20.999   2
   3  13  -3 811.990  21.890   1
   2 -13  -3 239.620   8.191   4
  -2 -13   3 248.711   8.573   3
  -2  13   3 250.182   8.107   2
   2  13  -3 249.666   8.694   1
  -2  13   3 251.944   8.147   1
   2  13  -3 259.434   7.862   2
   1 -13  -3 215.217   7.444   4
  -1 -13   3 221.667   7.943   3
  -1  13   3 228.599   7.909   1
   1  13  -3 221.603   7.682   1
   1  13  -3 219.940   7.446   2
  -1  13   3 229.104   7.124   2
   0 -13   3 300.968   9.789   3
   0 -13  -3 306.114   9.339   4
   0  13  -3 305.759   9.714   2
   0  13  -3 306.108   9.192   1
   0  13   3 285.978  10.008   1
  -1 -13  -3 26.2733  2.6013   4
   1 -13   3 25.7019  2.8848   3
   1  13   3 19.7235  2.8300   1
  -1  13  -3 21.0740  2.7727   2
  -2 -13  -3 80.1060  3.9089   3
  -2 -13  -3 76.0731  4.2077   4
   2 -13   3 74.5964  4.5014   3
   2  13   3 71.6427  4.7361   1
  -2  13  -3 72.7613  4.7673   2
   3 -13   3 13.1785  2.4092   3
  -3 -13  -3 13.3377  2.1381   4
  -3 -13  -3 15.4513  2.1182   3
   3  13   3 12.7444  2.5127   1
  -3  13  -3 9.73836 2.20721   2
  -4 -13  -3 114.668   5.175   3
   4 -13   3 111.156   6.178   3
   4  13   3 104.000   6.172   1
  -4  13  -3 100.080   5.859   2
  -6 -14   3 126.591   6.618   3
   6 -14  -3 131.517   6.721   4
   6  14  -3 132.750   7.573   1
  -6  14   3 133.742   6.875   2
  -5 -14   3 263.143   9.765   3
   5 -14  -3 273.507   9.925   4
   5  14  -3 264.649  10.855   1
  -5  14   3 256.224   9.821   2
  -4 -14   3 28.0052  3.1670   3
   4 -14  -3 26.0716  3.0799   4
  -4  14   3 24.8350  2.9842   2
   4  14  -3 25.5673  3.3044   1
   3 -14  -3 8.85000 2.18864   4
  -3 -14   3 5.90732 1.96641   3
  -3  14   3 8.23702 1.95098   2
   3  14  -3 7.13404 1.49586   2
   3  14  -3 5.71436 1.95365   1
  -3  14   3 6.92515 1.54128   1
   2 -14  -3 385.259  11.356   4
  -2 -14   3 358.772  11.358   3
   2  14  -3 393.711  10.911   2
  -2  14   3 365.891  11.052   2
  -2  14   3 379.834  11.195   1
   2  14  -3 380.422  11.895   1
   1 -14  -3 710.714  18.091   4
  -1 -14   3 727.668  18.843   3
   1  14  -3 714.607  18.994   1
   1  14  -3 715.474  18.589   2
  -1  14   3 699.224  19.100   1
  -1  14   3 730.076  18.057   2
   0 -14   3 10.4991  2.2793   3
   0 -14  -3 12.0236  1.9972   4
   0  14  -3 9.15090 1.75265   1
   0  14  -3 10.7745  2.1021   2
   0  14   3 12.4837  2.3178   1
   1 -14   3 23.9102  2.9546   3
  -1 -14  -3 27.3862  2.7323   4
  -1  14  -3 34.1219  3.2629   2
   1  14   3 20.3187  2.8815   1
  -2 -14  -3 325.289   9.943   4
   2 -14   3 323.404  10.559   3
   2  14   3 266.633  10.721   1
  -2  14  -3 296.609  10.610   2
   3 -14   3 39.8899  3.4696   3
  -3 -14  -3 45.2396  3.2364   4
   3  14   3 27.1186  3.4606   1
  -3  14  -3 37.5863  3.4191   2
  -5 -15   3 1.99965 1.26952   3
   5 -15  -3 2.93010 1.26576   4
   5  15  -3 -0.9488  1.1114   1
  -5  15   3 0.37912 1.23793   2
  -4 -15   3 27.8857  3.1962   3
   4 -15  -3 25.1929  3.1408   4
   4  15  -3 24.0737  3.3985   1
  -4  15   3 25.0721  2.9792   2
  -3 -15   3 83.9425  4.8767   3
   3 -15  -3 89.2114  5.0248   4
  -3  15   3 84.2402  4.7668   2
   3  15  -3 87.2266  5.2793   1
   2 -15  -3 18.2941  2.5289   4
  -2 -15   3 28.2056  3.0477   3
   2  15  -3 20.2809  2.3187   2
   2  15  -3 20.2691  2.7278   1
  -2  15   3 17.9051  2.3653   1
  -2  15   3 20.3650  2.4414   2
  -1 -15   3 36.5624  3.1594   3
   1 -15  -3 37.3165  3.0874   4
  -1  15   3 36.6929  2.8074   2
  -1  15   3 38.5227  3.2387   1
   1  15  -3 40.4326  3.2052   1
   1  15  -3 40.4510  3.1542   2
   0 -15  -3 12.7716  2.1558   4
   0 -15   3 12.3867  2.4165   3
   0  15  -3 16.3309  2.5147   2
   0  15   3 12.5968  2.4117   1
   1 -15   3 24.5797  3.0644   3
  -1 -15  -3 25.9731  2.7612   4
  -1  15  -3 25.7047  3.1177   2
   1  15   3 24.6301  3.1906   1
   2 -15   3 0.61757 1.25894   3
  -2 -15  -3 -0.4233  0.8459   4
  -2  15  -3 -1.3152  1.0011   2
   2  15   3 -0.0253  1.1263   1
  -3 -15  -3 26.6205  2.8777   4
   3 -15   3 22.6907  3.2451   3
  -3  15  -3 28.4984  3.4876   2
   3  15   3 20.1904  3.1754   1
  -5 -16   3 205.673   8.756   3
   5 -16  -3 208.989   8.687   4
  -5  16   3 180.212   8.364   2
   5  16  -3 219.188   9.925   1
   4 -16  -3 1.18620 1.53683   4
  -4 -16   3 1.04943 1.24440   3
   4  16  -3 1.42468 1.43983   1
  -4  16   3 0.01721 1.10573   2
   3 -16  -3 28.5242  3.2105   4
  -3 -16   3 28.7305  3.1785   3
   3  16  -3 19.8019  3.0653   1
  -3  16   3 26.1031  2.9683   2
  -2 -16   3 189.761   7.544   3
   2 -16  -3 198.333   7.376   4
  -2  16   3 179.781   7.067   1
   2  16  -3 189.011   6.977   2
  -2  16   3 168.931   6.845   2
   2  16  -3 167.759   7.629   1
  -1 -16   3 179.134   7.202   3
   1 -16  -3 173.623   6.721   4
  -1  16   3 153.772   6.027   2
   1  16  -3 160.056   6.791   2
   1  16  -3 168.373   7.063   1
  -1  16   3 140.989   6.575   1
   0 -16  -3 281.384   9.212   4
   0 -16   3 288.812   9.943   3
   0  16  -3 262.082   9.699   2
   0  16   3 261.826   9.885   1
   1 -16   3 142.148   6.555   3
  -1 -16  -3 134.653   5.971   4
   1  16   3 134.154   6.739   1
  -1  16  -3 128.462   6.365   2
   2 -16   3 50.2936  3.8281   3
  -2 -16  -3 51.6377  3.5441   4
   2  16   3 44.8599  3.9880   1
  -2  16  -3 44.7439  3.5889   2
   3 -16   3 41.4965  4.2539   3
  -3 -16  -3 42.0854  3.3175   4
   3  16   3 37.7051  4.2356   1
  -3  16  -3 36.2550  3.9193   2
   5 -17  -3 13.1427  2.5854   4
  -5 -17   3 14.2553  3.0243   3
  -5  17   3 16.3302  2.9060   2
   5  17  -3 17.2896  3.5171   1
   4 -17  -3 166.019   7.399   4
  -4 -17   3 170.286   7.602   3
   4  17  -3 166.024   8.303   1
  -4  17   3 151.503   7.199   2
  -3 -17   3 161.676   7.190   3
   3 -17  -3 175.583   7.410   4
  -3  17   3 173.071   7.345   2
   3  17  -3 177.639   8.291   1
  -2 -17   3 2.29928 1.48011   3
   2 -17  -3 1.29623 1.35876   4
  -2  17   3 0.74793 1.25243   1
  -2  17   3 -0.9165  1.1827   2
   2  17  -3 1.78214 1.30711   2
   2  17  -3 2.82193 1.66487   1
  -1 -17   3 2.50348 1.54598   3
   1 -17  -3 8.42719 1.98270   4
   1  17  -3 4.76836 1.72791   2
  -1  17   3 2.30969 1.57474   1
   1  17  -3 4.49184 1.80753   1
   0 -17  -3 1.45218 1.20587   4
   0 -17   3 -0.2619  1.0776   3
   0  17  -3 2.50531 1.50279   2
   0  17   3 0.11479 1.38189   1
   1 -17   3 46.5464  3.7998   3
  -1 -17  -3 49.4924  3.4677   4
  -1  17  -3 41.8690  3.4997   2
   1  17   3 39.7558  3.7225   1
  -2 -17  -3 4.13606 1.39631   4
   2 -17   3 5.88966 1.94605   3
  -2  17  -3 6.95115 1.79732   2
   2  17   3 4.41346 2.00557   1
   4 -18  -3 1.31839 1.22564   4
  -4 -18   3 -0.5590  1.5371   3
   4  18  -3 4.27218 2.04631   1
  -4  18   3 0.76641 1.14023   2
  -3 -18   3 58.9046  4.1846   3
   3 -18  -3 60.7959  4.1820   4
   3  18  -3 57.7824  4.6313   1
  -3  18   3 61.0666  4.1342   2
  -2 -18   3 96.8718  5.3587   3
   2 -18  -3 92.8764  5.0503   4
  -2  18   3 94.3435  5.1270   1
  -2  18   3 95.8923  5.0158   2
   2  18  -3 96.2853  5.1826   2
   2  18  -3 89.1831  5.7106   1
  -1 -18   3 43.1702  3.6087   3
   1 -18  -3 50.9848  3.5163   4
  -1  18   3 39.3531  3.5230   1
   1  18  -3 44.6977  3.6766   2
   1  18  -3 45.8738  3.8931   1
   0 -18   3 31.8998  3.5141   3
   0 -18  -3 40.2739  3.1683   4
   0  18   3 45.4999  3.7378   1
   0  18  -3 37.8345  3.2514   2
  -1 -18  -3 1.72254 0.95466   4
   1 -18   3 0.79109 1.23038   3
  -1  18  -3 4.18821 1.48347   2
   1  18   3 0.72499 1.26900   1
  -2 -18  -3 2.34113 1.22664   4
   2 -18   3 2.53120 1.95487   3
  -2  18  -3 1.99936 1.46764   2
   2  18   3 3.47754 2.10166   1
  -4 -19   3 79.3422  5.4962   3
   4 -19  -3 82.4575  5.2473   4
  -4  19   3 80.4801  5.2003   2
   4  19  -3 75.8483  5.8406   1
  -3 -19   3 1.09394 1.56811   3
   3 -19  -3 3.61437 1.39035   4
   3  19  -3 -0.0876  1.1718   1
  -3  19   3 3.29571 1.20657   2
   2 -19  -3 6.48099 1.62607   4
  -2 -19   3 2.24527 1.52802   3
   2  19  -3 7.22987 1.94630   1
  -2  19   3 4.54661 1.67834   2
  -1 -19   3 4.04540 1.40768   3
   1 -19  -3 2.40217 1.09804   4
   1  19  -3 3.58509 1.45660   2
  -1  19   3 1.07503 1.34360   1
   0 -19  -3 9.21500 1.85634   4
   0 -19   3 4.06341 1.69837   3
   0  19  -3 7.34245 1.69332   2
   0  19   3 4.93101 1.75230   1
  -1 -19  -3 73.5051  4.4227   4
   1 -19   3 78.7764  5.2882   3
   1  19   3 71.4236  5.1760   1
  -1  19  -3 81.2692  4.9310   2
  -3 -20   3 73.9806  5.3113   3
   3 -20  -3 80.7340  5.1095   4
   3  20  -3 75.6554  5.4056   1
  -3  20   3 84.3669  4.9907   2
   2 -20  -3 155.670   7.136   4
  -2 -20   3 171.475   7.803   3
  -2  20   3 177.546   7.231   2
   2  20  -3 183.739   8.077   1
  -1 -20   3 114.859   6.264   3
   1 -20  -3 121.710   5.911   4
  -1  20   3 119.289   6.210   1
   1  20  -3 131.518   6.015   2
   0 -20   3 58.0814  4.5914   3
   0 -20  -3 65.1617  4.0670   4
   0  20  -3 58.2529  4.0230   2
   0  20   3 63.5264  4.6231   1
   8   0  -4 15.7447  2.3012   4
   7   0  -4 593.608  15.917   4
  -7   0   4 621.774  16.337   2
  -7   0   4 606.555  15.799   3
   6   0  -4 410.047  11.523   4
  -6   0   4 441.311  11.520   3
   6   0  -4 422.927  12.286   1
  -6   0   4 435.644  12.053   2
   5   0  -4 222.890   7.390   1
  -5   0   4 232.502   6.785   3
  -5   0   4 231.500   7.355   2
   5   0  -4 232.462   6.959   4
  -4   0   4 25.6878  1.7635   3
   4   0  -4 27.9363  1.9831   4
   4   0  -4 22.8522  1.9667   1
  -4   0   4 24.9200  2.0447   2
   3   0  -4 111.177   4.201   1
   3   0  -4 113.575   3.697   4
  -3   0   4 110.196   4.240   2
   2   0  -4 5.53754 0.85487   4
  -2   0   4 7.80337 0.84697   3
   2   0  -4 6.81324 1.14015   1
  -2   0   4 5.26222 1.10326   2
  -1   0   4 111.108   4.173   1
  -1   0   4 109.094   4.042   2
  -1   0   4 114.715   3.496   3
   1   0  -4 109.199   3.591   4
   0   0   4 358.035   9.043   3
   0   0   4 363.876   9.596   2
   0   0   4 356.351   9.810   1
   0   0   4 355.659   9.114   4
   1   0   4 8.83357 1.33493   3
   1   0   4 7.41192 1.27321   2
   1   0   4 9.01153 1.34310   1
   1   0   4 5.82609 1.26894   4
   2   0   4 188.254   6.357   3
   2   0   4 178.247   6.076   1
  -2   0  -4 180.196   5.957   2
   2   0   4 190.650   6.321   4
   3   0   4 390.379  11.570   4
  -3   0  -4 427.091  11.475   3
  -4   0  -4 5.59329 1.49660   3
   4   0   4 6.61001 1.52667   4
   8  -1  -4 7.50792 1.81286   4
  -8  -1   4 10.6729  1.7778   3
   8   1  -4 10.6430  1.9029   4
   7  -1  -4 121.845   5.421   4
  -7  -1   4 123.307   5.324   3
  -7   1   4 127.826   5.273   3
  -7   1   4 114.757   5.277   2
   7   1  -4 117.567   5.253   4
  -6  -1   4 165.001   5.919   3
   6  -1  -4 160.172   6.060   4
   6  -1  -4 170.283   6.245   1
  -6  -1   4 172.844   6.144   2
  -6   1   4 177.770   5.816   3
   6   1  -4 167.776   6.400   1
   6   1  -4 160.988   5.901   4
  -6   1   4 161.647   6.167   2
   5  -1  -4 226.013   7.423   1
  -5  -1   4 242.219   7.058   3
   5  -1  -4 232.492   7.153   4
  -5  -1   4 245.221   7.500   2
   5   1  -4 229.359   7.627   1
  -5   1   4 231.319   7.470   2
   5   1  -4 241.219   7.040   4
  -5   1   4 239.197   6.815   3
  -4  -1   4 790.142  19.081   2
  -4  -1   4 790.362  18.076   3
   4  -1  -4 771.824  19.245   1
   4  -1  -4 790.104  17.950   4
  -4   1   4 764.075  19.062   2
  -4   1   4 789.271  17.717   3
   4   1  -4 780.903  19.396   1
  -3  -1   4 297.311   8.428   2
   3  -1  -4 299.746   7.749   4
  -3  -1   4 288.351   7.764   3
   3  -1  -4 296.236   8.453   1
   3   1  -4 304.552   8.574   1
  -3   1   4 303.850   8.483   2
   3   1  -4 300.776   7.417   4
   2  -1  -4 517.149  12.210   4
  -2  -1   4 520.734  13.224   2
  -2  -1   4 533.450  12.269   3
  -2   1   4 512.011  13.210   2
   2   1  -4 537.511  13.503   1
   2   1  -4 545.893  11.908   4
   1  -1  -4 2435.48   51.11   4
  -1  -1   4 2440.12   52.07   3
  -1  -1   4 2459.64   54.38   2
  -1   1   4 2533.56   51.79   3
   1   1  -4 2435.08   50.79   4
  -1   1   4 2456.89   54.29   2
  -1   1   4 2480.67   55.48   1
   0  -1   4 354.901   9.168   3
   0  -1   4 371.952   9.084   4
   0  -1   4 356.793   9.657   2
   0  -1   4 366.058   9.805   1
   0   1   4 362.837   8.960   3
   0   1   4 356.327   9.502   2
   0   1   4 341.477   9.791   1
   1  -1   4 48.7250  2.6451   1
   1  -1   4 45.2125  2.6985   3
   1  -1   4 45.5906  2.7072   2
   1  -1   4 49.2087  2.6123   4
   1   1   4 41.5082  2.5492   1
   1   1   4 47.1347  2.7389   4
   1   1   4 49.8012  2.6254   2
   1   1   4 46.0167  2.4883   3
   2  -1   4 71.7983  3.5882   3
   2  -1   4 71.4469  3.5745   4
   2  -1   4 69.4457  3.2967   1
  -2  -1  -4 63.9885  3.1779   3
   2   1   4 74.3359  3.5210   1
   2   1   4 67.3695  3.5498   4
  -2   1  -4 74.5786  3.5127   2
   3  -1   4 96.2641  4.6129   4
  -3  -1  -4 101.328   4.438   3
   3   1   4 95.3204  4.6405   4
   4  -1   4 11.9472  1.9711   4
  -4  -1  -4 12.2408  1.9236   3
  -4   1  -4 10.9291  1.9129   3
   4   1   4 13.4219  2.2061   4
   8  -2  -4 4.26753 1.40022   4
  -8  -2   4 5.48395 1.45515   3
   8   2  -4 5.12753 1.36567   4
  -7  -2   4 5.74101 1.65010   3
   7  -2  -4 3.85036 1.50693   4
  -7   2   4 6.43438 1.71763   2
   7   2  -4 5.72659 1.82602   1
   7   2  -4 2.09630 1.35646   4
  -6  -2   4 4.85157 1.42644   2
  -6  -2   4 4.81613 1.44639   3
   6  -2  -4 5.05278 1.40333   1
   6  -2  -4 3.75865 1.50332   4
   6   2  -4 4.40843 1.31283   4
  -6   2   4 4.52488 1.35394   3
  -6   2   4 4.92090 1.43825   2
   6   2  -4 6.62694 1.66564   1
  -5  -2   4 0.70063 0.97611   3
   5  -2  -4 0.91769 1.09224   4
   5  -2  -4 2.08238 1.06849   1
  -5  -2   4 1.41617 1.01466   2
  -5   2   4 0.20966 0.93297   2
  -5   2   4 1.00234 0.80768   3
   5   2  -4 0.83302 0.84722   4
   5   2  -4 1.51376 1.04499   1
  -4  -2   4 257.252   7.625   2
  -4  -2   4 249.937   7.207   3
   4  -2  -4 255.388   7.553   1
   4  -2  -4 253.899   7.268   4
   4   2  -4 245.494   6.649   4
   4   2  -4 248.296   7.807   1
  -4   2   4 248.483   6.521   3
  -4   2   4 253.984   7.701   2
  -3  -2   4 283.132   8.175   2
   3  -2  -4 290.710   7.737   4
  -3  -2   4 280.519   7.742   3
   3  -2  -4 283.574   8.203   1
   3   2  -4 292.311   7.037   4
  -3   2   4 287.255   8.234   2
  -3   2   4 294.042   6.971   3
   3   2  -4 291.122   8.403   1
   2  -2  -4 767.342  17.468   4
  -2  -2   4 789.524  17.674   3
  -2  -2   4 765.731  18.626   2
  -2   2   4 747.468  18.876   1
   2   2  -4 782.240  16.675   4
  -2   2   4 800.219  16.752   3
   2   2  -4 781.295  18.918   1
  -2   2   4 790.078  18.667   2
  -1  -2   4 758.507  17.857   3
  -1  -2   4 784.268  18.934   2
   1  -2  -4 780.868  17.775   4
  -1   2   4 820.358  17.297   3
   1   2  -4 783.693  17.113   4
   1   2  -4 807.758  19.160   1
  -1   2   4 807.621  19.375   1
  -1   2   4 781.134  18.711   2
   0  -2   4 217.206   6.542   2
   0  -2   4 209.059   6.383   1
   0  -2   4 213.655   5.849   4
   0  -2  -4 210.424   6.029   4
   0  -2   4 208.711   6.151   3
   0   2   4 211.705   5.699   3
   0   2   4 196.995   6.540   1
   0   2   4 199.968   6.130   2
   1  -2   4 156.875   5.459   2
   1  -2   4 152.871   5.033   4
   1  -2   4 152.352   5.147   1
   1  -2   4 150.993   5.297   3
   1   2   4 151.443   5.045   2
   1   2   4 152.944   5.444   1
   1   2   4 151.678   5.340   4
   2  -2   4 25.9300  1.9557   1
   2  -2   4 27.1041  2.3443   3
  -2  -2  -4 27.0344  2.1275   3
   2  -2   4 33.6074  2.4849   4
   2   2   4 27.1663  2.1868   1
   2   2   4 29.0193  2.1869   2
  -2   2  -4 21.4792  2.0976   2
   2   2   4 30.4191  2.5060   4
   3  -2   4 21.9564  2.3886   4
  -3  -2  -4 21.0644  2.1652   3
   3  -2   4 23.7841  2.5811   3
   3   2   4 21.1422  2.4292   4
  -3   2  -4 20.8038  2.4294   2
   3   2   4 21.3864  2.1388   1
  -4  -2  -4 2.25360 1.09590   3
   4  -2   4 6.56305 1.52086   4
  -4   2  -4 8.02474 1.69289   3
   4   2   4 6.67557 1.52595   4
  -8  -3   4 6.57866 1.43196   3
   8  -3  -4 4.54291 1.80227   4
  -7  -3   4 52.8496  3.4903   3
   7  -3  -4 53.6088  3.6150   4
  -7   3   4 53.8370  3.5084   2
   7   3  -4 52.5160  3.9516   1
   7   3  -4 55.9843  3.5814   4
   6  -3  -4 617.825  15.898   4
  -6  -3   4 615.502  15.815   3
  -6  -3   4 627.952  15.998   2
   6   3  -4 613.078  16.932   1
   6   3  -4 616.931  15.208   4
  -6   3   4 615.352  16.324   2
  -5  -3   4 1513.17   34.63   2
   5  -3  -4 1502.82   33.27   4
   5  -3  -4 1509.22   35.07   1
  -5  -3   4 1521.71   33.68   3
  -5   3   4 1500.46   34.92   2
   5   3  -4 1493.74   32.30   4
   5   3  -4 1484.73   35.71   1
  -4  -3   4 422.954  11.554   2
   4  -3  -4 449.212  11.414   4
  -4  -3   4 446.992  11.350   3
   4  -3  -4 441.303  11.670   1
  -4   3   4 432.186  11.771   2
   4   3  -4 447.039  10.363   4
   4   3  -4 433.348  12.100   1
  -3  -3   4 -0.1465  0.7950   2
  -3  -3   4 3.09262 1.03410   3
   3  -3  -4 1.45850 0.78662   1
   3   3  -4 1.73449 0.54504   4
   3   3  -4 1.60058 0.84695   1
  -3   3   4 1.89457 0.89671   2
  -2  -3   4 394.530  10.426   2
   2  -3  -4 383.225   9.899   4
  -2  -3   4 394.099   9.968   3
  -2   3   4 394.009  10.632   1
   2   3  -4 400.360  10.608   1
  -2   3   4 400.718  10.399   2
   2   3  -4 387.298   8.723   4
  -1  -3   4 3192.42   67.05   3
  -1  -3   4 3105.19   69.57   2
   1  -3  -4 3179.01   65.68   4
  -1   3   4 3195.06   66.01   3
  -1   3   4 3167.45   69.34   2
   1   3  -4 3180.32   70.68   1
   1   3  -4 3164.63   64.70   4
  -1   3   4 3195.00   70.99   1
   0  -3   4 2159.17   48.99   2
   0  -3   4 2183.23   47.21   3
   0  -3   4 2257.78   45.75   4
   0  -3  -4 2188.39   46.22   4
   0   3   4 2202.64   48.52   2
   0   3  -4 2160.76   49.44   1
   0   3   4 2219.24   50.02   1
   1  -3   4 47.3362  2.7687   3
   1  -3   4 47.8353  2.8961   2
   1  -3   4 44.8532  2.5238   4
  -1  -3  -4 43.0022  2.2142   3
   1   3   4 42.5863  2.7490   4
   1   3   4 47.7760  2.7842   1
   1   3   4 48.1167  2.4813   2
  -2  -3  -4 60.5307  3.0176   3
   2  -3   4 62.3512  3.5222   3
   2  -3   4 66.8702  3.4152   4
   2   3   4 59.2707  3.4889   4
  -2   3  -4 66.9688  3.5660   2
   2   3   4 64.6192  3.4085   1
   3  -3   4 3.49501 1.38851   3
  -3  -3  -4 5.46326 1.35803   3
   3  -3   4 6.02699 1.59233   4
  -3   3  -4 5.56987 1.76860   2
   3   3   4 2.95430 1.27764   1
   3   3   4 4.71850 1.51703   4
  -4  -3  -4 39.8988  2.8998   3
   4  -3   4 38.8498  3.0271   4
  -4   3  -4 39.8962  2.9866   3
   4   3   4 39.8143  3.1517   4
   7  -4  -4 42.8110  3.1565   4
  -7  -4   4 32.4440  2.8754   3
   7   4  -4 36.3999  3.4624   1
  -7   4   4 31.6730  2.8073   2
  -6  -4   4 440.015  11.789   2
  -6  -4   4 423.269  11.973   3
   6  -4  -4 412.141  11.999   4
   6   4  -4 433.695  11.264   4
   6   4  -4 427.116  12.877   1
  -6   4   4 425.911  12.265   2
   5  -4  -4 626.651  15.489   1
   5  -4  -4 593.210  15.181   4
  -5  -4   4 600.762  15.181   3
  -5  -4   4 599.097  15.286   2
   5   4  -4 601.405  14.088   4
   5   4  -4 598.402  16.228   1
  -5   4   4 586.563  15.631   2
   4  -4  -4 1.53091 1.15900   4
  -4  -4   4 0.80309 0.95979   2
  -4  -4   4 2.63139 1.16604   3
   4  -4  -4 0.87583 0.82016   1
   4   4  -4 0.32969 0.90656   1
  -4   4   4 0.89019 1.00968   2
   4   4  -4 1.12177 0.45370   4
   3  -4  -4 134.019   4.761   4
  -3  -4   4 133.057   4.764   2
  -3  -4   4 132.186   4.756   3
   3   4  -4 132.948   5.000   1
  -3   4   4 130.296   4.815   2
   3   4  -4 137.667   3.527   4
  -3   4   4 130.156   4.742   1
  -2  -4   4 98.1241  3.9154   2
  -2  -4   4 100.385   3.808   3
   2  -4  -4 97.4260  3.8583   4
   2   4  -4 97.7935  2.5649   4
  -2   4   4 94.7767  3.7366   2
   2   4  -4 90.8998  3.8580   1
  -2   4   4 96.2743  3.8852   1
  -1  -4   4 29.8712  2.0106   3
   1  -4  -4 31.2611  2.1925   4
  -1  -4   4 29.1825  2.1749   2
   1  -4  -4 27.7631  1.1242   3
  -1   4   4 30.4558  2.1996   1
  -1   4   4 25.0168  1.8672   2
   1   4  -4 27.8857  1.3760   4
   1   4  -4 30.1593  2.0267   1
   0  -4   4 1335.51   29.38   3
   0  -4   4 1304.12   30.34   2
   0  -4  -4 1317.18   28.68   4
   0  -4   4 1349.91   27.95   4
   0  -4  -4 1328.07   28.09   3
   0   4  -4 1278.43   30.31   1
   0   4   4 1315.86   30.93   1
   0   4   4 1271.18   29.68   2
   1  -4   4 230.553   6.607   4
  -1  -4  -4 215.154   6.205   3
   1  -4   4 230.715   7.178   3
   1  -4   4 233.376   7.430   2
   1   4   4 227.525   7.355   1
   1   4   4 230.868   6.592   2
  -1   4  -4 227.627   6.675   1
   1   4   4 232.582   7.259   4
  -2  -4  -4 55.1456  2.8425   3
   2  -4   4 52.0470  3.0293   4
   2  -4   4 50.1365  3.2428   3
  -2   4  -4 58.0062  3.3200   2
   2   4   4 51.9283  3.2250   1
   2   4   4 58.2040  3.4290   4
  -3  -4  -4 23.4676  2.1459   3
   3  -4   4 25.0764  2.4860   4
   3  -4   4 29.0378  2.6472   3
   3   4   4 24.0814  2.7141   4
   3   4   4 23.6009  2.3849   1
  -3   4  -4 23.7749  2.7412   2
   4  -4   4 289.392   9.586   4
  -4  -4  -4 281.338   9.107   3
   4   4   4 280.325   9.719   4
  -7  -5   4 9.25920 1.91309   3
   7  -5  -4 11.9912  2.1533   4
  -7   5   4 8.98377 1.82642   2
   7   5  -4 11.7730  2.3970   1
  -6  -5   4 138.619   5.725   3
   6  -5  -4 137.398   5.874   4
  -6  -5   4 147.405   5.427   2
   6   5  -4 140.984   6.277   1
  -6   5   4 147.937   5.936   2
  -5  -5   4 155.581   5.766   3
   5  -5  -4 162.977   6.064   4
   5  -5  -4 153.241   5.419   1
  -5  -5   4 149.687   5.378   2
  -5   5   4 151.706   5.844   2
   5   5  -4 153.489   6.184   1
  -4  -5   4 479.713  12.586   3
  -4  -5   4 473.092  12.470   2
   4  -5  -4 488.093  12.546   4
   4  -5  -4 473.858  12.502   1
  -4   5   4 468.702  12.754   2
   4   5  -4 485.948  13.276   1
  -3  -5   4 332.330   9.245   2
   3  -5  -4 334.999   9.220   4
  -3  -5   4 337.266   9.364   3
   3   5  -4 337.335   9.740   1
  -3   5   4 329.281   9.384   2
  -3   5   4 332.838   9.331   1
   2  -5  -4 158.656   5.419   4
  -2  -5   4 159.129   5.425   3
  -2  -5   4 158.939   5.446   2
  -2   5   4 162.311   5.523   1
   2   5  -4 159.008   5.483   1
  -2   5   4 172.037   5.436   2
  -1  -5   4 292.588   8.515   2
  -1  -5   4 298.051   8.285   3
   1  -5  -4 291.389   8.178   4
  -1   5   4 293.847   8.663   1
   1   5  -4 294.146   6.645   4
  -1   5   4 297.758   8.167   2
   1   5  -4 292.764   8.357   1
   0  -5   4 27.2439  2.1772   3
   0  -5  -4 29.3756  2.0947   4
   0  -5   4 28.0566  1.5536   4
   0  -5   4 29.3125  2.3457   2
   0  -5  -4 25.1720  1.2969   3
   0   5   4 24.1334  1.8166   2
   0   5  -4 23.5676  1.8313   1
   0   5   4 21.7564  1.9996   1
   1  -5   4 54.3468  3.1838   3
   1  -5   4 60.2042  2.8332   4
   1  -5   4 57.4155  3.4071   2
  -1  -5  -4 55.5474  2.4682   3
   1   5   4 60.9775  3.3918   4
  -1   5  -4 52.0864  2.5857   1
   1   5   4 57.4832  3.2448   1
   1   5   4 59.2817  2.6965   2
  -2  -5  -4 280.744   7.910   3
   2  -5   4 298.410   8.424   4
   2  -5   4 287.197   8.972   3
   2   5   4 275.400   8.898   1
  -2   5  -4 291.016   9.074   2
   2   5   4 268.937   8.721   4
   3  -5   4 7.59251 1.80653   3
  -3  -5  -4 5.87449 1.34880   3
   3  -5   4 6.53215 1.61000   4
   3   5   4 3.97801 1.50819   4
   3   5   4 5.60857 1.50188   1
  -3   5  -4 5.16472 1.79821   2
   4  -5   4 3.46966 1.33093   3
   4  -5   4 3.59378 1.21424   4
  -4  -5  -4 0.72099 1.06973   3
   4   5   4 1.67940 1.18239   4
  -7  -6   4 8.53086 1.78882   3
   7  -6  -4 9.90443 1.89057   4
  -7   6   4 7.69302 1.65798   2
   7   6  -4 9.00674 2.10103   1
  -6  -6   4 395.122  11.618   3
  -6   6   4 397.977  11.777   2
   6   6  -4 387.370  12.405   1
  -5  -6   4 226.242   7.607   3
  -5  -6   4 227.115   7.096   2
   5  -6  -4 236.903   7.159   1
   5  -6  -4 225.206   7.700   4
  -5   6   4 222.823   7.622   2
   5   6  -4 219.515   8.019   1
  -4  -6   4 4.47753 1.19824   2
  -4  -6   4 4.63127 1.41694   3
   4  -6  -4 4.58861 1.12999   1
   4  -6  -4 2.24105 1.33762   4
  -4   6   4 6.29386 1.42530   2
   4   6  -4 6.20254 1.53395   1
  -3  -6   4 12.2924  1.7697   3
   3  -6  -4 13.4530  1.8507   4
  -3  -6   4 12.9582  1.6184   2
  -3   6   4 10.3661  1.4740   1
  -3   6   4 11.0828  1.5384   2
   3   6  -4 11.1165  1.6292   1
  -2  -6   4 155.812   5.369   2
   2  -6  -4 148.222   5.368   4
  -2  -6   4 148.660   5.382   3
  -2   6   4 149.629   5.187   2
  -2   6   4 157.713   5.432   1
   2   6  -4 152.883   5.459   1
  -1  -6   4 45.3414  2.7616   3
   1  -6  -4 37.9542  2.6065   4
  -1  -6   4 35.7860  2.4359   2
  -1   6   4 40.1669  2.6088   1
  -1   6   4 40.0816  2.2661   2
   1   6  -4 43.8178  2.4771   1
   0  -6  -4 2.60879 1.17229   4
   0  -6   4 4.28458 1.28160   2
   0  -6  -4 3.50378 0.61839   3
   0  -6   4 8.98379 1.55219   3
   0   6   4 2.54726 1.16696   1
   0   6   4 4.85281 1.03529   2
   0   6  -4 3.43902 0.97128   1
   1  -6   4 84.8764  3.4275   4
   1  -6   4 84.9456  4.0208   3
  -1  -6  -4 75.6233  2.9937   3
  -1   6  -4 81.7277  3.2674   1
  -1   6  -4 78.9046  3.8463   2
   1   6   4 81.3634  4.0038   1
   2  -6   4 4.70584 1.28092   4
   2  -6   4 4.35099 1.51277   3
  -2  -6  -4 3.11456 1.05274   3
   2   6   4 3.13796 1.38756   4
   2   6   4 3.01419 1.34754   1
  -2   6  -4 3.43977 1.43463   2
   3  -6   4 0.72914 1.15364   3
  -3  -6  -4 0.45673 1.00639   3
   3  -6   4 0.82652 1.16539   4
   3   6   4 -0.5347  1.1217   4
   3   6   4 2.96069 1.31260   1
  -3   6  -4 0.47092 1.43232   2
   4  -6   4 217.216   7.906   4
   4  -6   4 188.046   7.838   3
  -4  -6  -4 214.680   7.503   3
  -4   6  -4 210.089   8.206   2
   4   6   4 202.361   8.057   4
   7  -7  -4 6.66858 1.64663   4
  -7  -7   4 6.52545 1.69598   3
   7   7  -4 9.20332 2.09062   1
  -7   7   4 6.54018 1.74336   2
  -6  -7   4 610.105  16.414   3
   6   7  -4 600.314  17.600   1
  -6   7   4 625.507  16.779   2
   5  -7  -4 953.631  23.047   4
  -5  -7   4 943.769  22.715   2
   5  -7  -4 953.336  22.986   1
  -5  -7   4 959.620  23.162   3
   5   7  -4 967.797  24.625   1
  -5   7   4 944.570  23.617   2
  -4  -7   4 83.4104  4.1558   3
  -4  -7   4 79.7338  3.6666   2
   4  -7  -4 80.6578  4.1817   4
   4   7  -4 89.3457  4.4091   1
  -4   7   4 82.7230  4.0055   2
  -3  -7   4 653.838  16.466   2
  -3  -7   4 674.828  16.743   3
   3  -7  -4 656.273  16.374   4
   3   7  -4 679.619  17.330   1
  -3   7   4 648.962  16.618   2
  -3   7   4 662.551  16.707   1
  -2  -7   4 2128.03   48.23   2
  -2  -7   4 2129.53   47.12   3
   2  -7  -4 2149.25   46.07   4
  -2   7   4 2184.32   49.18   1
  -2   7   4 2142.31   48.05   2
   2   7  -4 2164.77   49.26   1
  -1  -7   4 511.755  13.419   2
  -1  -7   4 500.557  13.173   3
   1  -7  -4 526.792  13.035   4
  -1   7   4 499.442  13.568   1
  -1   7   4 508.764  12.860   2
   1   7  -4 503.478  13.277   1
   0  -7   4 359.005  10.169   3
   0  -7  -4 351.513   9.799   4
   0  -7   4 354.243  10.337   2
   0   7   4 360.952   9.424   2
   0   7  -4 359.695   9.750   1
   0   7   4 364.046  10.545   1
  -1  -7  -4 386.402   9.733   3
   1  -7   4 378.937  11.007   3
  -1  -7  -4 381.552  10.629   4
   1  -7   4 407.846   9.944   4
   1   7   4 386.275  11.498   1
  -1   7  -4 381.085  10.231   1
  -1   7  -4 406.086  11.287   2
  -2  -7  -4 2.35517 1.02559   3
   2  -7   4 1.83851 1.22224   4
   2  -7   4 1.27035 1.16015   3
   2   7   4 1.48734 1.21055   1
  -2   7  -4 1.97667 1.42133   2
   2   7   4 1.22373 1.25549   4
   3  -7   4 2.24331 1.28713   3
  -3  -7  -4 2.74649 1.25832   3
   3  -7   4 2.13743 1.27566   4
  -3   7  -4 1.37708 1.55307   2
   3   7   4 3.38221 1.46932   1
   3   7   4 1.70711 1.17772   4
   4  -7   4 31.8493  2.9202   3
  -4  -7  -4 31.1035  2.6166   3
   4  -7   4 41.4996  3.1406   4
   4   7   4 31.8631  2.8540   1
   4   7   4 32.4126  3.3457   4
  -4   7  -4 31.1346  3.0016   2
  -7  -8   4 219.239   8.366   3
   7  -8  -4 215.108   8.484   4
  -7   8   4 231.557   8.496   2
   7   8  -4 223.143   9.287   1
  -6  -8   4 254.487   8.852   3
   6  -8  -4 250.037   9.010   4
  -6   8   4 258.374   8.935   2
   6   8  -4 252.951   9.578   1
  -5  -8   4 33.4438  3.0271   3
   5  -8  -4 27.9474  2.8584   4
  -5  -8   4 27.3709  2.3241   2
  -5   8   4 33.5288  2.8110   2
   5   8  -4 26.2898  2.8972   1
  -4  -8   4 61.1298  3.2094   2
   4  -8  -4 60.7089  3.7570   4
  -4  -8   4 55.9778  3.5750   3
   4   8  -4 60.0218  3.6891   1
  -4   8   4 63.0495  3.5290   2
   3  -8  -4 208.055   7.120   4
  -3  -8   4 211.307   6.719   2
  -3  -8   4 201.381   7.090   3
   3   8  -4 213.251   7.316   1
  -3   8   4 208.384   6.722   1
  -3   8   4 202.013   6.804   2
   2  -8  -4 68.3728  3.6295   4
  -2  -8   4 76.6966  3.6863   2
  -2  -8   4 76.0703  3.9294   3
   2   8  -4 78.7985  3.8254   1
  -2   8   4 79.1973  3.5523   2
  -2   8   4 73.6736  3.6434   1
   1  -8  -4 42.8312  2.8252   4
  -1  -8   4 49.3788  3.1023   3
  -1  -8   4 45.1605  2.8903   2
  -1   8   4 49.8113  2.6053   2
  -1   8   4 44.0232  2.9054   1
   1   8  -4 46.5152  2.7485   1
   0  -8   4 163.981   6.013   3
   0  -8  -4 161.289   5.766   4
   0  -8   4 156.472   6.087   2
   0   8   4 158.634   6.058   1
   0   8  -4 159.283   5.426   1
   0   8   4 161.930   5.148   2
  -1  -8  -4 428.185  10.399   3
  -1  -8  -4 403.225  11.347   4
   1  -8   4 419.106  11.811   3
   1   8   4 425.034  12.358   1
  -1   8  -4 411.972  11.986   2
   2  -8   4 91.8523  4.7169   3
  -2  -8  -4 94.6328  3.9005   3
  -2   8  -4 94.5907  4.9320   2
   2   8   4 94.3905  4.8291   1
  -3  -8  -4 7.17669 1.59623   3
   3  -8   4 8.11203 1.85126   3
   3  -8   4 6.97636 1.70768   4
   3   8   4 5.91518 1.71780   1
   3   8   4 8.31897 1.80277   4
  -3   8  -4 8.13947 2.21134   2
   4  -8   4 5.74222 1.73104   3
  -4  -8  -4 6.40138 1.45525   3
   4  -8   4 2.56451 1.21339   4
   4   8   4 6.05102 1.71824   4
   4   8   4 7.04299 1.59455   1
  -4   8  -4 4.20171 1.49474   2
   7  -9  -4 37.6608  3.6739   4
  -7  -9   4 30.0818  3.1448   3
  -7   9   4 31.3105  3.0364   2
   7   9  -4 27.1000  3.4556   1
  -6  -9   4 28.0685  3.0189   3
   6  -9  -4 18.2500  2.6560   4
   6   9  -4 21.9039  3.0320   1
  -6   9   4 25.4198  2.7456   2
  -5  -9   4 237.465   7.479   2
  -5  -9   4 241.630   8.444   3
   5  -9  -4 241.076   8.568   4
   5   9  -4 243.095   8.969   1
  -5   9   4 239.804   8.352   2
  -4  -9   4 372.018  11.362   3
   4  -9  -4 393.617  11.541   4
  -4  -9   4 385.985  10.694   2
  -4   9   4 396.176  11.396   2
  -4   9   4 381.564  10.663   1
   4   9  -4 392.773  11.967   1
  -3  -9   4 14.3180  1.8195   2
   3  -9  -4 17.4654  2.2260   4
  -3  -9   4 14.8222  2.1784   3
  -3   9   4 12.3375  1.6818   1
   3   9  -4 15.6099  2.1339   1
  -3   9   4 15.7130  1.8889   2
   2  -9  -4 4.01994 1.44292   4
  -2  -9   4 3.68230 1.26940   2
  -2  -9   4 4.32242 1.49622   3
  -2   9   4 2.51481 1.09745   2
  -2   9   4 4.43379 1.25918   1
   2   9  -4 3.44016 1.27718   1
  -1  -9   4 88.8803  4.3168   3
   1  -9  -4 88.9091  4.1851   4
  -1  -9   4 87.6540  4.2287   2
  -1   9   4 86.7478  4.2262   1
  -1   9   4 87.8866  3.6912   2
   1   9  -4 80.7606  3.8361   1
   0  -9  -4 78.9067  3.9858   4
   0  -9   4 83.0311  4.1863   3
   0   9   4 80.5811  3.3187   2
   0   9   4 81.6883  4.2493   1
   0   9  -4 79.2470  3.5480   1
  -1  -9  -4 4.44181 1.50828   4
   1  -9   4 3.14395 1.46590   3
  -1   9  -4 2.74230 1.44500   2
   1   9   4 3.29521 1.36392   1
  -2  -9  -4 4.41929 1.24536   3
  -2  -9  -4 1.73973 1.27634   4
   2  -9   4 2.43360 1.51834   3
   2   9   4 1.33290 1.40491   1
  -2   9  -4 3.46095 1.65081   2
   3  -9   4 197.111   7.743   3
  -3  -9  -4 193.343   6.742   3
   3   9   4 198.872   7.730   4
  -3   9  -4 198.826   8.396   2
   3   9   4 194.420   7.950   1
   4  -9   4 45.6288  3.7886   3
  -4  -9  -4 55.7707  3.4519   3
  -4   9  -4 62.6090  4.2108   2
   4   9   4 60.6233  4.3020   4
   4   9   4 57.5916  3.9472   1
  -7 -10   4 62.5687  4.2930   3
   7 -10  -4 62.1398  4.5824   4
  -7  10   4 65.4794  4.4484   2
   7  10  -4 69.0275  4.9620   1
  -6 -10   4 149.671   6.558   3
   6 -10  -4 148.121   6.737   4
  -6  10   4 150.033   6.574   2
   6  10  -4 142.900   7.052   1
  -5 -10   4 25.1871  2.8655   3
   5 -10  -4 26.5606  3.0478   4
  -5  10   4 28.9428  2.8211   2
   5  10  -4 23.9807  3.0164   1
   4 -10  -4 2.30138 1.61700   4
  -4 -10   4 1.58742 1.23682   2
  -4 -10   4 0.27463 1.31083   3
  -4  10   4 1.43680 1.02444   1
   4  10  -4 2.08097 1.50197   1
  -4  10   4 3.29059 1.40300   2
  -3 -10   4 0.18414 1.25181   3
  -3 -10   4 1.15252 1.14723   2
   3 -10  -4 1.61460 1.40551   4
  -3  10   4 0.72065 1.04808   1
  -3  10   4 0.91359 1.09504   2
   3  10  -4 3.12179 1.29904   1
  -2 -10   4 -0.6056  1.0397   2
  -2 -10   4 -0.5495  0.9639   3
   2 -10  -4 -0.6609  1.0149   4
  -2  10   4 3.16498 1.19113   1
   2  10  -4 0.35535 1.03376   1
  -2  10   4 0.49482 0.95846   2
  -1 -10   4 9.06958 1.77584   2
  -1 -10   4 9.19605 1.87904   3
   1 -10  -4 15.3609  2.0728   4
  -1  10   4 11.0307  1.8476   1
   1  10  -4 9.06433 1.60514   1
  -1  10   4 11.4479  1.5331   2
   0 -10   4 73.7383  4.1309   3
   0 -10  -4 72.4547  3.9638   4
   0  10  -4 73.3817  3.9674   2
   0  10   4 76.0573  4.1771   1
   0  10  -4 80.9704  3.6450   1
   0  10   4 77.3238  3.3081   2
   1 -10   4 173.727   7.046   3
  -1 -10  -4 203.018   7.027   4
  -1  10  -4 191.087   7.311   2
   1  10   4 206.843   7.754   1
   2 -10   4 77.2666  4.4391   3
  -2 -10  -4 70.1636  4.0389   4
  -2  10  -4 64.3705  4.4633   2
   2  10   4 70.5157  4.4802   1
   3 -10   4 15.8546  2.4290   3
  -3  10  -4 17.7713  2.8615   2
   3  10   4 19.1842  2.7178   1
  -6 -11   4 2.04035 1.30008   3
   6 -11  -4 2.94619 1.40434   4
   6  11  -4 2.78989 1.43126   1
  -6  11   4 1.96679 1.34896   2
  -5 -11   4 822.033  21.549   3
   5 -11  -4 834.215  21.511   4
   5  11  -4 812.435  22.774   1
  -5  11   4 835.274  21.859   2
   4 -11  -4 992.194  24.652   4
  -4 -11   4 982.139  24.906   3
  -4 -11   4 1041.75   24.28   2
  -4  11   4 1024.12   24.48   1
   4  11  -4 986.153  26.052   1
  -4  11   4 997.214  25.127   2
  -3 -11   4 516.161  13.567   2
  -3 -11   4 500.269  14.051   3
   3 -11  -4 501.526  13.858   4
  -3  11   4 517.308  13.674   1
   3  11  -4 473.750  14.259   1
  -3  11   4 476.464  13.605   2
   2 -11  -4 498.611  13.693   4
  -2 -11   4 520.220  13.978   2
  -2 -11   4 498.080  14.069   3
  -2  11   4 512.262  14.064   1
  -2  11   4 501.408  13.575   2
   2  11  -4 528.454  14.367   1
   1 -11  -4 525.176  13.988   4
  -1 -11   4 513.524  14.437   3
  -1  11   4 535.946  14.766   1
   1  11  -4 538.691  14.351   1
  -1  11   4 516.541  13.547   2
   0 -11   4 264.250   9.117   3
   0 -11  -4 279.605   8.845   4
   0  11  -4 279.173   9.052   2
   0  11   4 281.391   9.505   1
   0  11  -4 282.621   8.466   1
  -1 -11  -4 0.74918 1.13053   4
   1 -11   4 0.39446 1.30721   3
  -1  11  -4 3.33711 1.61303   2
   1  11   4 0.48163 1.36072   1
   2 -11   4 4.25869 1.51324   3
  -2 -11  -4 2.89330 1.37912   4
   2  11   4 3.55924 1.65035   1
  -2  11  -4 3.02671 1.77249   2
  -3 -11  -4 325.629  10.469   4
   3 -11   4 314.618  11.028   3
   3  11   4 336.860  11.650   1
  -3  11  -4 314.538  11.437   2
   6 -12  -4 182.250   7.918   4
  -6 -12   4 174.161   7.650   3
   6  12  -4 182.469   8.501   1
  -6  12   4 194.342   7.999   2
   5 -12  -4 66.8966  4.5893   4
  -5 -12   4 74.0352  4.5922   3
   5  12  -4 74.5062  4.9288   1
  -5  12   4 73.5523  4.4839   2
  -4 -12   4 157.045   6.699   3
  -4 -12   4 151.869   5.838   2
   4 -12  -4 151.870   6.669   4
  -4  12   4 159.175   6.560   2
  -4  12   4 163.972   5.805   1
   4  12  -4 140.567   6.699   1
  -3 -12   4 112.670   4.999   2
  -3 -12   4 114.111   5.457   3
   3 -12  -4 121.994   5.502   4
  -3  12   4 111.577   5.081   2
  -3  12   4 110.194   4.883   1
   3  12  -4 118.803   5.607   1
   2 -12  -4 119.328   5.322   4
  -2 -12   4 118.166   5.248   2
  -2 -12   4 114.314   5.498   3
   2  12  -4 118.757   5.353   1
  -2  12   4 125.138   5.073   2
  -2  12   4 115.102   5.141   1
   1 -12  -4 2.29829 1.40890   4
  -1 -12   4 3.21056 1.43841   3
   1  12  -4 1.64275 1.25392   2
   1  12  -4 1.83553 1.23076   1
  -1  12   4 2.06434 1.07993   2
  -1  12   4 1.00182 1.18471   1
   0 -12  -4 37.3575  3.0400   4
   0 -12   4 38.6695  3.2698   3
   0  12   4 38.1016  3.1921   1
   0  12  -4 37.6016  3.0042   2
   0  12  -4 39.0740  2.7764   1
  -1 -12  -4 341.455  10.373   4
   1 -12   4 324.877  10.785   3
  -1  12  -4 327.256  10.930   2
   1  12   4 323.617  11.220   1
  -2 -12  -4 44.8620  3.2692   4
   2 -12   4 40.4942  3.3837   3
  -2  12  -4 39.9501  3.6727   2
   2  12   4 48.3351  3.8507   1
   3 -12   4 29.0750  3.3233   3
  -3 -12  -4 31.3071  2.8951   4
  -3  12  -4 29.0992  3.3823   2
   3  12   4 30.6261  3.4818   1
  -6 -13   4 36.0083  3.4372   3
   6 -13  -4 43.2552  3.9078   4
  -6  13   4 45.0647  3.8443   2
   6  13  -4 42.7380  4.0715   1
  -5 -13   4 5.75300 1.83515   3
   5 -13  -4 4.33890 1.79021   4
  -5  13   4 4.64638 1.69402   2
   5  13  -4 5.02814 1.92065   1
  -4 -13   4 148.253   5.813   2
  -4 -13   4 144.032   6.564   3
   4 -13  -4 148.451   6.760   4
  -4  13   4 141.469   6.359   2
   4  13  -4 146.300   6.885   1
  -3 -13   4 38.7316  3.3652   3
   3 -13  -4 36.3227  3.3206   4
  -3 -13   4 45.4761  3.2525   2
   3  13  -4 40.9320  3.3256   1
  -3  13   4 39.3334  3.0818   2
  -3  13   4 45.1198  3.0205   1
  -2 -13   4 235.119   8.516   3
   2 -13  -4 226.104   8.185   4
  -2  13   4 238.369   8.266   1
   2  13  -4 253.679   8.667   1
  -2  13   4 239.845   7.922   2
   2  13  -4 228.993   7.782   2
  -1 -13   4 78.0263  4.5791   3
   1 -13  -4 75.1825  4.2045   4
   1  13  -4 82.1638  4.2496   1
   1  13  -4 75.0958  4.1685   2
  -1  13   4 75.0827  4.4321   1
  -1  13   4 77.3252  3.7405   2
   0 -13   4 27.3172  3.0396   3
   0 -13  -4 28.8430  2.8820   4
   0  13   4 28.6528  3.0828   1
   0  13  -4 30.8604  3.0411   2
   1 -13   4 72.9935  4.5647   3
  -1 -13  -4 76.1923  4.3275   4
   1  13   4 72.0173  4.7088   1
  -1  13  -4 69.0725  4.5818   2
   2 -13   4 5.14000 1.65023   3
  -2 -13  -4 5.75043 1.48959   4
  -2  13  -4 7.73321 2.13209   2
   2  13   4 4.42731 1.71751   1
   3 -13   4 3.65659 1.57203   3
  -3 -13  -4 6.26390 1.74097   4
   3  13   4 3.13175 1.46512   1
  -3  13  -4 1.16907 1.63133   2
  -6 -14   4 4.40917 1.67514   3
   6 -14  -4 6.96780 2.41281   4
  -6  14   4 5.09273 2.12409   2
   6  14  -4 0.89354 1.56368   1
  -5 -14   4 4.94817 1.55321   3
   5 -14  -4 3.26508 1.46509   4
  -5  14   4 3.96362 1.52926   2
   5  14  -4 4.79647 1.65340   1
   4 -14  -4 19.7891  2.8705   4
  -4 -14   4 19.4399  2.8139   3
   4  14  -4 20.0461  2.9628   1
  -4  14   4 22.5190  2.7797   2
   3 -14  -4 12.3774  2.3788   4
  -3 -14   4 8.10132 2.14113   3
   3  14  -4 6.50990 1.93112   1
   3  14  -4 8.10895 1.60819   2
  -3  14   4 9.60427 1.99176   2
  -3  14   4 13.3447  2.0352   1
   2 -14  -4 20.9744  2.6931   4
  -2 -14   4 20.4955  2.7751   3
   2  14  -4 18.5459  2.5106   1
  -2  14   4 17.3629  2.2235   2
  -2  14   4 15.3456  2.2435   1
   2  14  -4 19.7747  2.2928   2
   1 -14  -4 54.4030  3.7569   4
  -1 -14   4 37.6791  3.3482   3
   1  14  -4 51.1558  3.5741   2
   1  14  -4 57.4780  3.6116   1
  -1  14   4 55.6232  3.9199   1
  -1  14   4 58.4029  3.2640   2
   0 -14  -4 313.544  10.036   4
   0 -14   4 310.318  10.575   3
   0  14   4 304.412  10.879   1
   0  14  -4 311.709  10.518   2
   1 -14   4 44.9370  3.6414   3
  -1 -14  -4 53.3808  3.6504   4
   1  14   4 51.3086  4.0887   1
  -1  14  -4 58.0972  4.1450   2
   2 -14   4 27.4788  3.3128   3
  -2 -14  -4 37.8720  3.0371   4
   2  14   4 31.8136  3.6385   1
  -2  14  -4 34.1260  3.7729   2
  -5 -15   4 291.454  10.786   3
   5 -15  -4 318.334  11.266   4
   5  15  -4 299.806  11.847   1
  -5  15   4 285.453  10.747   2
   4 -15  -4 300.841  10.737   4
  -4 -15   4 311.856  10.871   3
  -4  15   4 306.381  10.708   2
   4  15  -4 317.136  11.613   1
   3 -15  -4 204.386   8.075   4
  -3 -15   4 205.003   8.152   3
  -3  15   4 209.477   7.965   2
   3  15  -4 214.087   8.676   1
   3  15  -4 219.449   7.514   2
  -3  15   4 203.014   7.539   1
   2 -15  -4 187.550   7.443   4
  -2 -15   4 196.340   7.789   3
  -2  15   4 184.976   7.367   1
  -2  15   4 179.730   6.962   2
   2  15  -4 187.314   7.692   1
   2  15  -4 195.982   7.192   2
   1 -15  -4 244.601   8.699   4
  -1 -15   4 246.601   9.142   3
  -1  15   4 242.273   9.186   1
   1  15  -4 253.200   8.895   2
   1  15  -4 246.299   8.830   1
   0 -15  -4 117.928   5.528   4
   0 -15   4 111.362   5.785   3
   0  15   4 103.830   5.836   1
   0  15  -4 123.168   5.935   2
   1 -15   4 57.5115  4.1834   3
  -1 -15  -4 55.7507  3.7736   4
   1  15   4 50.5152  4.1144   1
  -1  15  -4 57.4318  4.2713   2
  -2 -15  -4 52.2309  3.7658   4
   2 -15   4 49.3907  4.1925   3
   2  15   4 51.2645  4.3434   1
  -2  15  -4 51.7327  4.4041   2
   5 -16  -4 32.4675  3.7766   4
  -5 -16   4 31.0661  3.7366   3
   5  16  -4 29.6791  4.2111   1
  -5  16   4 28.8256  3.4836   2
  -4 -16   4 3.63205 1.54268   3
   4 -16  -4 0.99719 1.30697   4
   4  16  -4 2.36192 1.46347   1
  -4  16   4 2.21410 1.32125   2
  -3 -16   4 3.90457 1.70856   3
   3 -16  -4 1.45223 1.46555   4
   3  16  -4 2.93826 1.46709   2
  -3  16   4 4.00106 1.53974   2
  -3  16   4 3.51410 1.51180   1
   3  16  -4 4.59822 1.73355   1
  -2 -16   4 13.8154  2.3404   3
   2 -16  -4 10.1339  2.0621   4
  -2  16   4 13.1471  2.2864   1
  -2  16   4 11.3691  2.0618   2
   2  16  -4 11.2270  2.3586   1
   2  16  -4 12.4213  2.2602   2
  -1 -16   4 1.24858 1.22979   3
   1 -16  -4 0.85084 0.99264   4
   1  16  -4 0.53827 1.33839   1
   1  16  -4 1.74746 1.24433   2
  -1  16   4 0.55576 1.28955   1
   0 -16   4 61.7193  4.3826   3
   0 -16  -4 67.6821  4.1220   4
   0  16   4 56.4972  4.3480   1
   0  16  -4 62.6237  4.3817   2
  -1 -16  -4 5.27781 1.48125   4
   1 -16   4 4.29105 1.81872   3
   1  16   4 4.50214 1.82921   1
  -1  16  -4 4.09642 1.61294   2
   2 -16   4 75.5892  5.3258   3
  -2 -16  -4 68.3847  4.5019   4
  -2  16  -4 67.6889  5.0841   2
   2  16   4 56.1969  4.7990   1
   4 -17  -4 46.5690  3.9461   4
  -4 -17   4 47.1848  3.8774   3
   4  17  -4 41.6496  4.1710   1
  -4  17   4 40.8917  3.4865   2
  -3 -17   4 167.213   7.374   3
   3 -17  -4 161.141   7.125   4
   3  17  -4 166.947   7.810   1
  -3  17   4 151.052   6.838   2
   2 -17  -4 46.7099  3.6618   4
   2  17  -4 42.8351  3.4330   2
   2  17  -4 42.5646  3.8256   1
  -2  17   4 41.2151  3.4786   1
   1 -17  -4 16.9014  2.4644   4
  -1 -17   4 11.1594  2.4138   3
  -1  17   4 17.2618  2.7132   1
   1  17  -4 14.4997  2.4203   2
   0 -17  -4 71.4108  4.3225   4
   0 -17   4 79.3713  4.9839   3
   0  17  -4 72.2054  4.7545   2
   0  17   4 72.2385  4.9445   1
  -1 -17  -4 3.32285 1.32757   4
   1 -17   4 2.22777 1.84210   3
   1  17   4 2.99307 1.95388   1
  -1  17  -4 2.60579 1.49017   2
   4 -18  -4 23.6382  3.3316   4
  -4 -18   4 23.8295  3.3388   3
  -4  18   4 20.3796  2.8890   2
   4  18  -4 19.6121  3.6562   1
  -3 -18   4 43.8901  3.8313   3
   3 -18  -4 52.7690  4.0460   4
  -3  18   4 46.6972  3.5780   2
   3  18  -4 54.0957  4.3774   1
   2 -18  -4 109.339   5.534   4
  -2 -18   4 101.489   5.683   3
   2  18  -4 104.188   6.007   1
   2  18  -4 91.2360  5.1220   2
  -2  18   4 95.0580  5.0809   2
  -2  18   4 95.0106  5.3148   1
   1 -18  -4 24.9007  2.9694   4
  -1 -18   4 19.2832  2.9958   3
  -1  18   4 16.7249  2.8132   1
   1  18  -4 15.9877  2.6050   2
   0 -18   4 286.406  10.710   3
   0 -18  -4 298.946  10.215   4
   0  18   4 266.608  10.773   1
   0  18  -4 265.750  10.531   2
  -1 -18  -4 175.147   7.533   4
   1 -18   4 170.580   8.258   3
   1  18   4 165.223   8.433   1
  -1  18  -4 170.717   8.054   2
  -3 -19   4 24.1821  3.5341   3
   3 -19  -4 19.5322  3.0328   4
  -3  19   4 23.4032  2.8289   2
   3  19  -4 21.5835  3.5078   1
   2 -19  -4 46.2381  3.6975   4
  -2 -19   4 46.3769  4.1222   3
   2  19  -4 53.4429  4.2729   1
   2  19  -4 47.4406  3.6564   2
  -2  19   4 44.8237  3.6547   1
  -1 -19   4 369.595  12.758   3
   1 -19  -4 363.230  12.024   4
   1  19  -4 368.729  12.688   2
  -1  19   4 350.600  12.612   1
   0 -19  -4 62.9506  4.3391   4
   0 -19   4 58.4453  4.7527   3
   0  19  -4 62.0516  4.6369   2
   0  19   4 54.8002  4.7039   1
   7   0  -5 1.46763 1.24172   1
   7   0  -5 -0.1861  1.1879   4
  -7   0   5 0.38419 1.04520   2
  -6   0   5 1.23595 1.09200   2
   6   0  -5 -0.0630  1.0087   4
   6   0  -5 -0.4386  0.9992   1
   5   0  -5 -0.0709  0.9687   4
  -5   0   5 -0.1509  0.9822   2
   5   0  -5 1.29422 1.04641   1
  -4   0   5 -0.3261  0.9433   2
   4   0  -5 0.05677 0.77844   4
   4   0  -5 -0.2334  0.7633   1
   3   0  -5 0.74551 0.75803   4
  -3   0   5 0.25556 0.95655   2
   3   0  -5 0.15641 0.81387   1
   2   0  -5 -0.0698  0.8175   1
  -2   0   5 -0.1062  0.3828   3
  -2   0   5 0.58975 0.83662   2
   2   0  -5 0.54423 0.67281   4
  -1   0   5 -0.2319  0.8365   1
  -1   0   5 -0.4934  0.8139   2
   1   0  -5 -0.2140  0.7332   4
  -1   0   5 0.04707 0.61989   3
   0   0   5 -0.3333  0.7543   3
   0   0   5 -0.1509  0.8634   1
   0   0  -5 0.78519 0.85371   4
   0   0   5 0.06334 0.95341   2
   1   0   5 0.39204 1.19563   4
   1   0   5 0.59852 1.12133   3
   1   0   5 1.15331 1.21762   1
   1   0   5 1.48096 1.18718   2
   2   0   5 0.18072 1.18033   4
   2   0   5 1.41981 1.12498   1
  -2   0  -5 0.42456 0.94729   2
  -3   0  -5 0.06909 0.90012   3
   3   0   5 0.50244 1.06538   4
   7  -1  -5 24.1760  2.6450   4
  -7  -1   5 19.8523  2.3797   2
  -7   1   5 20.8460  2.4662   2
   7   1  -5 19.6566  2.5621   1
   6  -1  -5 33.8280  2.6046   4
  -6  -1   5 30.4058  2.6959   2
   6  -1  -5 32.0676  2.7091   1
   6   1  -5 31.9805  2.7691   1
  -6   1   5 28.7032  2.6305   2
   6   1  -5 37.9364  2.7136   4
  -5  -1   5 4.22432 1.33681   3
   5  -1  -5 5.78782 1.45512   4
  -5  -1   5 9.93471 1.75387   2
   5  -1  -5 5.00827 1.44661   1
  -5   1   5 5.46314 1.55758   2
   5   1  -5 7.45195 1.64769   1
   4  -1  -5 0.60146 0.89082   4
   4  -1  -5 0.13025 0.88010   1
  -4  -1   5 0.25676 0.93634   2
   4   1  -5 2.18035 1.11675   1
   4   1  -5 -0.5576  0.8136   4
  -4   1   5 0.18582 1.02333   2
   3  -1  -5 85.9869  3.8855   1
   3  -1  -5 88.0771  3.5000   4
  -3  -1   5 87.6872  3.2227   3
  -3  -1   5 80.1649  3.8242   2
  -3   1   5 89.8413  4.0295   2
   3   1  -5 90.2608  3.1792   4
   3   1  -5 87.0343  3.9823   1
   2  -1  -5 278.927   7.539   4
  -2  -1   5 279.376   7.274   3
  -2  -1   5 283.201   8.333   2
   2   1  -5 270.531   8.340   1
   2   1  -5 279.493   7.158   4
  -2   1   5 265.786   8.189   2
   1  -1  -5 146.976   4.874   4
  -1  -1   5 139.396   5.222   2
  -1  -1   5 145.598   4.633   3
  -1   1   5 146.413   4.325   3
   1   1  -5 138.190   5.216   1
  -1   1   5 143.461   5.147   2
  -1   1   5 125.027   5.145   1
   1   1  -5 147.203   4.606   4
   0  -1   5 166.551   5.552   3
   0  -1   5 171.888   6.003   2
   0  -1   5 176.153   6.043   1
   0  -1  -5 171.348   5.529   4
   0   1   5 166.031   5.818   2
   0   1   5 172.156   6.124   1
   0   1   5 170.583   5.385   3
   1  -1   5 697.606  17.166   4
   1  -1   5 694.956  17.989   2
   1  -1   5 696.163  18.030   1
   1  -1   5 726.682  17.493   3
   1   1   5 699.787  17.723   2
   1   1   5 707.287  17.396   4
   1   1   5 706.875  18.245   1
   1   1   5 725.916  17.263   3
  -2  -1  -5 158.756   5.746   3
   2  -1   5 160.454   6.196   4
   2  -1   5 158.435   6.166   3
   2   1   5 158.874   6.239   4
  -2   1  -5 162.938   6.031   2
   2   1   5 162.080   6.112   1
   3  -1   5 82.8700  4.5158   4
  -3  -1  -5 94.4633  4.4338   3
  -3   1  -5 92.0723  4.4651   3
   3   1   5 85.5020  4.6308   4
  -7  -2   5 4.39197 1.54917   2
   7  -2  -5 7.42620 1.80401   4
   7   2  -5 6.38006 1.74343   1
  -7   2   5 7.10148 1.68486   2
   6  -2  -5 251.118   8.011   4
  -6  -2   5 246.633   8.264   2
  -6  -2   5 249.170   8.003   3
   6  -2  -5 245.762   8.340   1
  -6   2   5 247.579   8.384   2
   6   2  -5 241.183   8.577   1
   5  -2  -5 2725.03   62.57   1
   5  -2  -5 2778.43   58.22   4
  -5  -2   5 2749.11   61.65   2
  -5  -2   5 2782.82   59.38   3
   5   2  -5 2737.41   62.98   1
  -5   2   5 2720.47   61.71   2
  -4  -2   5 1872.03   42.57   2
   4  -2  -5 1874.93   43.14   1
   4  -2  -5 1861.31   39.96   4
  -4  -2   5 1866.88   40.76   3
   4   2  -5 1841.22   43.35   1
  -4   2   5 1854.38   42.57   2
  -3  -2   5 208.089   6.833   2
   3  -2  -5 197.811   6.203   4
  -3  -2   5 206.014   6.125   3
   3  -2  -5 203.518   6.783   1
   3   2  -5 208.656   6.907   1
  -3   2   5 205.925   6.793   2
  -2  -2   5 250.468   6.897   3
  -2  -2   5 239.415   7.615   2
   2  -2  -5 244.627   7.091   4
   2   2  -5 241.065   7.672   1
   2   2  -5 249.812   6.290   4
  -2   2   5 252.463   7.653   2
  -2   2   5 248.508   7.812   1
  -1  -2   5 204.036   6.123   3
  -1  -2   5 199.248   6.698   2
   1  -2  -5 201.196   6.271   4
   1   2  -5 206.931   5.711   4
  -1   2   5 203.562   6.553   2
   1   2  -5 208.357   6.750   1
  -1   2   5 210.220   6.943   1
   0  -2  -5 209.459   6.550   4
   0  -2   5 209.693   6.390   4
   0  -2   5 203.197   6.506   3
   0  -2   5 214.407   7.029   2
   0   2   5 215.768   7.172   1
   0   2   5 207.634   6.111   3
   0   2   5 218.800   6.784   2
   1  -2   5 229.185   7.264   4
   1  -2   5 232.527   7.745   2
   1  -2   5 239.800   7.492   1
   1  -2   5 228.310   7.426   3
   1   2   5 226.214   7.248   2
   1   2   5 227.753   7.688   1
   1   2   5 232.997   7.604   4
   2  -2   5 2.89054 1.30058   3
   2  -2   5 4.71493 1.44939   4
  -2  -2  -5 3.08288 1.13444   3
   2   2   5 3.73314 1.35035   1
   2   2   5 2.85923 1.37996   4
  -2   2  -5 2.70053 1.20339   2
  -3  -2  -5 2.85173 1.10495   3
   3  -2   5 1.67205 1.15338   4
   3   2   5 1.59602 1.02262   4
  -7  -3   5 -0.5779  1.1170   3
  -7  -3   5 0.85552 1.23074   2
   7  -3  -5 1.33327 1.15491   4
  -7   3   5 -0.0956  0.9125   2
   7   3  -5 1.40336 1.01499   1
   6  -3  -5 392.738  11.531   1
  -6  -3   5 404.603  11.497   2
   6  -3  -5 382.118  11.047   4
  -6  -3   5 393.789  11.296   3
  -6   3   5 377.756  11.554   2
   6   3  -5 380.832  12.033   1
  -5  -3   5 3.54129 1.42985   2
   5  -3  -5 4.20381 1.40266   4
  -5  -3   5 2.16329 1.27791   3
   5  -3  -5 2.70824 1.19906   1
   5   3  -5 1.40342 1.20312   1
  -5   3   5 0.93337 1.19149   2
   4  -3  -5 1018.26   24.58   1
  -4  -3   5 1024.93   24.35   2
   4  -3  -5 1008.27   23.00   4
  -4  -3   5 962.965  23.282   3
   4   3  -5 1013.82   24.96   1
  -4   3   5 1008.27   24.44   2
   3  -3  -5 17.3148  1.8859   1
   3  -3  -5 22.1095  1.9894   4
  -3  -3   5 19.3459  2.0271   2
  -3  -3   5 23.9329  1.9816   3
   3   3  -5 17.3927  1.9306   1
  -3   3   5 18.2548  1.9687   2
   2  -3  -5 50.0020  2.8226   4
  -2  -3   5 51.1714  3.0237   2
  -2  -3   5 49.3643  2.6236   3
  -2   3   5 49.6413  2.9159   2
   2   3  -5 53.3355  2.9536   1
  -2   3   5 51.0013  3.0793   1
   1  -3  -5 199.518   6.312   4
  -1  -3   5 194.483   6.625   2
  -1  -3   5 191.154   6.105   3
   1   3  -5 195.787   6.555   1
  -1   3   5 199.210   6.440   2
   1   3  -5 197.269   5.400   4
  -1   3   5 208.970   6.899   1
   0  -3  -5 134.613   4.966   4
   0  -3   5 129.875   5.225   2
   0  -3   5 138.678   4.741   4
   0  -3  -5 137.374   4.211   3
   0  -3   5 132.727   4.969   3
   0   3   5 129.977   5.254   1
   0   3  -5 134.881   5.056   1
   0   3   5 141.616   5.062   2
   1  -3   5 66.7927  3.3923   4
  -1  -3  -5 63.2895  2.9633   3
   1  -3   5 64.1661  3.5316   3
   1  -3   5 61.9861  3.6477   2
   1   3   5 62.7736  3.5655   1
   1   3   5 70.9023  3.3977   2
   1   3   5 63.7474  3.7209   4
  -1   3  -5 59.5341  3.2057   1
  -2  -3  -5 68.4390  3.3602   3
   2  -3   5 65.5979  3.8525   3
   2  -3   5 62.1090  3.6044   4
   2   3   5 57.6701  3.7220   4
  -2   3  -5 65.1919  3.7703   2
   2   3   5 60.6056  3.6347   1
   3  -3   5 5.26812 1.40630   3
   3  -3   5 4.08753 1.49104   4
  -3  -3  -5 1.17504 1.08633   3
   3   3   5 4.95434 1.58472   4
   7  -4  -5 14.6723  2.2180   4
  -7  -4   5 16.0878  2.4058   3
   7   4  -5 17.1951  2.5201   1
  -7   4   5 18.1908  2.3408   2
   6  -4  -5 159.482   6.258   4
   6  -4  -5 166.451   6.186   1
  -6  -4   5 155.670   5.985   2
  -6  -4   5 154.610   6.127   3
   6   4  -5 141.318   6.358   1
  -6   4   5 150.729   6.212   2
  -5  -4   5 331.690   9.688   3
  -5  -4   5 317.056   9.619   2
   5  -4  -5 319.168   9.546   4
   5  -4  -5 327.836   9.735   1
  -5   4   5 313.682   9.838   2
   5   4  -5 316.411  10.201   1
  -4  -4   5 217.483   7.181   3
   4  -4  -5 230.672   7.392   1
  -4  -4   5 212.348   7.302   2
   4  -4  -5 234.795   7.353   4
  -4   4   5 222.583   7.475   2
   4   4  -5 228.565   7.762   1
  -3  -4   5 9.33840 1.65045   2
   3  -4  -5 11.2078  1.6758   4
  -3  -4   5 15.9367  1.7727   3
   3   4  -5 10.8501  1.7095   1
  -3   4   5 12.1421  1.7080   1
  -3   4   5 9.99394 1.56987   2
  -2  -4   5 252.774   7.866   2
  -2  -4   5 250.223   7.319   3
   2  -4  -5 230.071   7.311   4
  -2   4   5 248.548   7.629   2
   2   4  -5 242.901   7.756   1
  -2   4   5 252.415   7.918   1
  -1  -4   5 55.1879  3.2041   2
   1  -4  -5 53.7272  3.1203   4
  -1  -4   5 54.1623  2.9604   3
  -1   4   5 59.7949  3.3508   1
  -1   4   5 64.7585  3.2257   2
   1   4  -5 53.1249  2.9944   1
   0  -4  -5 117.176   4.712   4
   0  -4   5 127.806   5.166   2
   0  -4   5 120.290   4.848   3
   0   4  -5 121.787   4.700   1
   0   4   5 126.805   5.226   1
   0   4   5 117.347   4.614   2
   1  -4   5 4.76851 1.58359   2
   1  -4   5 4.81615 1.36424   4
  -1  -4  -5 4.67056 1.09007   3
   1  -4   5 3.37981 1.31059   3
   1   4   5 6.38081 1.40425   2
   1   4   5 3.39837 1.36695   1
  -1   4  -5 5.44378 1.23260   1
   2  -4   5 23.1997  2.3333   4
   2  -4   5 21.9639  2.4788   3
  -2  -4  -5 20.7321  1.9702   3
   2   4   5 19.7284  2.3241   1
   2   4   5 21.1218  2.5286   4
  -2   4  -5 18.7124  2.3014   2
  -3  -4  -5 0.11306 0.99810   3
   3  -4   5 1.02493 0.89933   3
   3  -4   5 -0.1824  1.0889   4
   3   4   5 1.27893 0.91465   4
   3   4   5 -0.1342  1.1646   1
   7  -5  -5 1.01781 0.95182   4
  -7  -5   5 0.26759 1.15033   3
   7   5  -5 -0.1480  1.0032   1
  -7   5   5 0.97164 0.91680   2
   6  -5  -5 12.3611  1.8535   1
  -6  -5   5 9.33408 1.79479   2
  -6  -5   5 10.7668  2.0384   3
   6  -5  -5 9.61349 1.96875   4
  -6   5   5 9.66955 1.89946   2
   6   5  -5 9.92016 2.08867   1
  -5  -5   5 4.98220 1.49333   2
  -5  -5   5 2.94185 1.45955   3
   5  -5  -5 8.09823 1.54460   1
   5  -5  -5 5.80948 1.67086   4
   5   5  -5 5.26633 1.55090   1
  -5   5   5 4.95684 1.48571   2
  -4  -5   5 15.5958  1.9759   2
   4  -5  -5 22.2542  2.1285   1
  -4  -5   5 22.1180  2.2579   3
   4  -5  -5 26.1015  2.4696   4
   4   5  -5 20.6020  2.2653   1
  -4   5   5 20.3467  2.1335   2
  -3  -5   5 132.646   5.320   2
  -3  -5   5 141.623   5.261   3
   3  -5  -5 148.262   5.462   4
   3   5  -5 144.531   5.577   1
  -3   5   5 135.987   5.334   1
  -3   5   5 135.551   5.300   2
  -2  -5   5 77.4279  3.8943   2
   2  -5  -5 86.9320  3.9658   4
  -2  -5   5 87.7574  3.8340   3
   2   5  -5 84.1179  3.9734   1
  -2   5   5 78.8223  3.8870   1
  -2   5   5 83.7608  3.8314   2
   1  -5  -5 387.163  10.596   4
  -1  -5   5 391.194  10.582   3
  -1  -5   5 400.632  11.197   2
  -1   5   5 387.269  10.603   2
  -1   5   5 381.196  11.211   1
   1   5  -5 381.973  10.828   1
   0  -5   5 1153.46   25.88   3
   0  -5  -5 1108.79   25.32   4
   0  -5   5 1123.17   26.93   2
   0   5   5 1049.37   27.09   1
   0   5   5 1136.01   26.03   2
   0   5  -5 1090.13   26.47   1
  -1  -5  -5 147.981   5.574   4
   1  -5   5 143.790   6.089   2
   1  -5   5 143.909   5.753   3
   1   5   5 148.042   5.954   1
  -1   5  -5 148.389   5.236   1
  -2  -5  -5 12.7041  1.6448   3
   2  -5   5 13.7053  2.2287   3
  -2   5  -5 12.0459  2.0726   2
   2   5   5 11.2097  2.0282   1
   2   5   5 10.4315  2.0729   4
  -3  -5  -5 39.8844  2.8629   3
   3  -5   5 44.9126  3.3795   4
   3  -5   5 43.6938  3.2396   3
  -3   5  -5 41.6177  3.6772   2
   3   5   5 43.8005  3.3374   4
   3   5   5 41.7439  3.1721   1
   7  -6  -5 249.758   8.936   4
  -7  -6   5 264.443   9.101   3
   7   6  -5 245.137   9.570   1
  -7   6   5 243.603   8.940   2
  -6  -6   5 321.078  10.251   3
   6  -6  -5 311.460  10.149   4
  -6  -6   5 324.991   9.745   2
  -6   6   5 313.396  10.260   2
   6   6  -5 314.912  10.794   1
   5  -6  -5 571.367  15.289   1
  -5  -6   5 591.635  15.567   3
  -5  -6   5 575.831  15.225   2
   5  -6  -5 584.760  15.434   4
  -5   6   5 564.525  15.626   2
   5   6  -5 572.112  16.263   1
  -4  -6   5 1053.55   24.91   3
   4  -6  -5 1064.89   24.55   4
  -4  -6   5 1029.23   25.10   2
   4   6  -5 1028.71   26.06   1
  -4   6   5 1033.15   25.37   2
  -3  -6   5 439.713  12.296   2
  -3  -6   5 448.195  12.177   3
   3  -6  -5 443.969  12.065   4
  -3   6   5 451.954  12.517   1
  -3   6   5 441.903  12.272   2
   3   6  -5 457.733  12.792   1
  -2  -6   5 27.6876  2.3181   2
   2  -6  -5 29.3476  2.5487   4
  -2  -6   5 29.8102  2.4026   3
  -2   6   5 29.4460  2.2893   2
  -2   6   5 24.7072  2.2767   1
   2   6  -5 27.0082  2.3142   1
   1  -6  -5 296.034   8.913   4
  -1  -6   5 315.992   9.043   3
  -1  -6   5 297.991   9.271   2
   1   6  -5 295.638   8.972   1
  -1   6   5 308.592   8.809   2
  -1   6   5 297.001   9.412   1
   0  -6   5 842.955  21.290   2
   0  -6  -5 844.254  20.097   4
   0  -6   5 835.884  20.470   3
   0   6  -5 817.953  20.635   1
   0   6   5 849.770  20.248   2
   0   6   5 853.068  21.590   1
  -1  -6  -5 72.8009  3.8619   4
   1  -6   5 70.5769  3.9506   3
  -1   6  -5 70.9072  3.8690   2
   1   6   5 70.0851  4.0129   1
   2  -6   5 94.8663  4.8817   3
   2   6   5 99.8550  5.0722   4
  -2   6  -5 103.452   5.226   2
   2   6   5 107.497   5.132   1
   3  -6   5 12.6196  2.1259   3
   3   6   5 14.2914  2.2420   4
   3   6   5 11.8664  2.0578   1
  -3   6  -5 11.5111  2.3381   2
   7  -7  -5 1.88254 1.03955   4
  -7  -7   5 2.59400 1.17270   3
  -7   7   5 2.68444 1.24719   2
  -6  -7   5 39.3329  3.3281   3
  -6  -7   5 39.6767  2.9935   2
   6  -7  -5 47.3683  3.5278   4
   6   7  -5 37.1862  3.3324   1
  -6   7   5 48.8391  3.3962   2
  -5  -7   5 56.6812  3.8456   3
   5  -7  -5 55.6460  3.7714   4
   5  -7  -5 61.1068  3.3793   1
  -5  -7   5 64.6229  3.6136   2
   5   7  -5 55.3460  3.7358   1
  -5   7   5 55.5458  3.5892   2
   4  -7  -5 37.7211  3.0797   4
  -4  -7   5 32.1988  2.8604   3
  -4  -7   5 33.0573  2.7907   2
   4   7  -5 31.5583  2.7566   1
  -4   7   5 37.8486  2.8400   2
  -3  -7   5 289.067   9.040   3
  -3  -7   5 301.925   9.123   2
   3  -7  -5 286.538   9.002   4
   3   7  -5 292.040   9.347   1
  -3   7   5 295.078   9.017   2
  -3   7   5 296.255   9.096   1
  -2  -7   5 180.314   6.564   2
   2  -7  -5 170.179   6.337   4
  -2  -7   5 176.581   6.431   3
  -2   7   5 184.097   6.611   1
  -2   7   5 191.440   6.350   2
   2   7  -5 185.044   6.543   1
   1  -7  -5 5.21120 1.56684   4
  -1  -7   5 3.76298 1.39765   3
  -1  -7   5 4.90712 1.43450   2
   1   7  -5 4.68803 1.29019   1
  -1   7   5 5.04297 1.41845   1
  -1   7   5 5.38298 1.26646   2
   0  -7   5 79.8364  4.3216   2
   0  -7   5 80.3905  4.1381   3
   0  -7  -5 72.1710  3.9531   4
   0   7   5 78.2323  4.2377   1
   0   7  -5 79.8766  3.6633   1
   0   7   5 81.3647  3.6211   2
  -1  -7  -5 15.0919  2.1202   4
   1  -7   5 12.1455  2.0448   3
   1   7   5 12.9833  2.1667   1
  -1   7  -5 13.6942  2.0830   2
   2  -7   5 49.1381  3.5247   3
   2   7   5 56.2399  3.7836   1
  -2   7  -5 49.0459  3.7086   2
   3  -7   5 3.19701 1.14507   3
   3   7   5 1.64908 1.14560   4
  -3   7  -5 1.00968 1.38697   2
   3   7   5 1.37428 0.95590   1
  -7  -8   5 73.3569  4.3920   3
   7  -8  -5 67.0376  4.4417   4
  -7   8   5 68.8653  4.4027   2
   7   8  -5 70.5912  4.7883   1
   6  -8  -5 20.1151  2.7394   4
  -6  -8   5 20.7477  2.8301   3
   6   8  -5 23.8662  2.9105   1
  -6   8   5 24.7977  2.7168   2
  -5  -8   5 4.00686 1.42626   2
   5  -8  -5 4.74901 1.35524   1
   5  -8  -5 5.00266 1.76258   4
  -5  -8   5 3.90394 1.59094   3
   5   8  -5 6.41768 1.79049   1
  -5   8   5 3.94975 1.42757   2
   4  -8  -5 598.726  15.881   4
  -4  -8   5 589.769  15.678   2
  -4  -8   5 599.010  15.979   3
  -4   8   5 580.553  15.785   1
   4   8  -5 607.118  16.723   1
  -4   8   5 601.468  16.072   2
   3  -8  -5 595.809  15.734   4
  -3  -8   5 592.455  15.856   2
  -3  -8   5 613.944  16.039   3
  -3   8   5 606.249  16.150   1
   3   8  -5 621.160  16.587   1
  -3   8   5 610.188  15.961   2
  -2  -8   5 50.6311  3.3248   2
  -2  -8   5 58.2438  3.5796   3
   2  -8  -5 53.8649  3.4810   4
  -2   8   5 55.2490  3.1451   2
   2   8  -5 53.6869  3.3238   1
  -2   8   5 52.6262  3.2533   1
   1  -8  -5 47.0189  3.1353   4
  -1  -8   5 42.7014  3.1849   3
  -1  -8   5 42.2818  3.0580   2
  -1   8   5 41.3274  2.6316   2
  -1   8   5 44.5653  3.2004   1
   1   8  -5 39.7830  2.7301   1
   0  -8   5 77.5436  4.3600   2
   0  -8  -5 76.5085  4.0829   4
   0  -8   5 76.7142  4.1627   3
   0   8  -5 67.9938  3.5158   1
   0   8   5 75.4041  4.2196   1
   0   8   5 75.0427  3.4895   2
  -1  -8  -5 10.7071  2.0259   4
   1  -8   5 9.92159 1.99525   3
  -1   8  -5 13.1686  2.1250   2
   1   8   5 13.1596  2.2808   1
  -2  -8  -5 4.28328 1.33063   4
   2  -8   5 3.22902 1.37624   3
  -2   8  -5 4.20445 1.60740   2
   2   8   5 2.96320 1.43089   1
   3  -8   5 10.8540  2.0716   3
  -3   8  -5 10.9091  2.3133   2
   3   8   5 11.6264  2.1468   1
   7  -9  -5 87.1147  5.2430   4
  -7  -9   5 86.1310  4.9874   3
  -7   9   5 84.0074  5.1097   2
   7   9  -5 85.4223  5.4927   1
   6  -9  -5 39.8544  3.3920   4
  -6  -9   5 37.7833  3.2521   3
   6   9  -5 37.7905  3.4407   1
  -6   9   5 42.0743  3.3279   2
   5  -9  -5 2.59967 1.23059   1
  -5  -9   5 5.14631 1.50619   2
  -5  -9   5 0.62571 1.40781   3
   5  -9  -5 1.33063 1.49637   4
  -5   9   5 1.08475 1.25464   2
   5   9  -5 3.91157 1.60201   1
  -4  -9   5 138.452   5.973   3
   4  -9  -5 135.114   6.010   4
  -4  -9   5 134.014   5.444   2
  -4   9   5 134.754   5.660   2
  -4   9   5 121.417   5.190   1
   4   9  -5 136.011   6.084   1
   3  -9  -5 865.978  21.431   4
  -3  -9   5 855.844  21.718   3
  -3  -9   5 884.718  21.913   2
   3   9  -5 887.635  22.640   1
  -3   9   5 867.127  22.090   1
  -3   9   5 880.277  21.828   2
   2  -9  -5 88.1084  4.5246   4
  -2  -9   5 87.7931  4.4315   2
  -2  -9   5 86.4713  4.5419   3
   2   9  -5 86.3876  4.2758   1
  -2   9   5 78.7956  3.9513   2
  -2   9   5 93.6505  4.5283   1
  -1  -9   5 32.3259  2.7861   2
  -1  -9   5 37.8528  3.0166   3
   1  -9  -5 35.4961  2.9695   4
  -1   9   5 40.8558  3.0803   1
  -1   9   5 35.9755  2.4705   2
   1   9  -5 31.3582  2.5071   1
   0  -9   5 310.465   9.924   3
   0  -9  -5 302.137   9.585   4
   0   9   5 307.119  10.179   1
   0   9  -5 308.728   9.220   1
   1  -9   5 509.222  14.599   3
  -1  -9  -5 514.403  14.129   4
   1   9   5 519.265  15.263   1
  -1   9  -5 515.176  14.816   2
   2  -9   5 73.9180  4.4415   3
  -2  -9  -5 82.1918  4.4974   4
   2   9   5 78.1843  4.6575   1
  -2   9  -5 82.0562  4.8526   2
   3  -9   5 23.8964  3.0684   3
  -3  -9  -5 28.0158  3.1552   4
  -3   9  -5 25.7837  3.3913   2
   3   9   5 32.2616  2.9906   1
   6 -10  -5 109.851   5.766   4
  -6 -10   5 122.571   5.948   3
   6  10  -5 113.145   6.104   1
  -6  10   5 109.228   5.625   2
  -5 -10   5 184.002   7.600   3
   5 -10  -5 190.387   7.742   4
  -5 -10   5 189.050   6.794   2
   5  10  -5 199.372   8.065   1
  -4 -10   5 326.453  10.432   3
   4 -10  -5 309.576  10.338   4
  -4 -10   5 306.841   9.734   2
   4  10  -5 323.506  10.766   1
  -4  10   5 316.465   9.776   1
  -4  10   5 318.672  10.167   2
  -3 -10   5 232.889   8.288   3
  -3 -10   5 235.302   7.928   2
   3 -10  -5 230.022   8.153   4
  -3  10   5 229.446   7.931   1
  -3  10   5 236.750   7.939   2
   3  10  -5 224.187   8.260   1
  -2 -10   5 274.500   8.988   2
  -2 -10   5 260.856   8.966   3
   2 -10  -5 264.263   8.814   4
   2  10  -5 269.869   8.918   1
  -2  10   5 276.164   8.482   2
  -2  10   5 264.921   8.923   1
  -1 -10   5 753.162  19.893   2
   1 -10  -5 750.834  19.068   4
  -1 -10   5 765.052  19.664   3
   1  10  -5 754.425  19.530   1
  -1  10   5 754.441  20.185   1
  -1  10   5 777.998  18.937   2
   0 -10   5 42.3727  3.3760   3
   0 -10  -5 37.4710  3.1895   4
   0  10   5 43.3829  3.4224   1
   0  10  -5 40.4579  2.8077   1
   0  10  -5 37.2586  3.0693   2
   1 -10   5 191.659   7.476   3
  -1 -10  -5 182.463   7.073   4
   1  10   5 177.857   7.516   1
  -1  10  -5 183.611   7.418   2
  -2 -10  -5 15.5478  2.3289   4
   2 -10   5 17.8199  2.4768   3
   2  10   5 12.9754  2.2685   1
  -2  10  -5 13.2231  2.5165   2
  -6 -11   5 3.27718 1.30264   3
   6 -11  -5 3.84594 1.55838   4
   6  11  -5 4.59689 1.76430   1
  -6  11   5 2.20674 1.48060   2
   5 -11  -5 0.57727 1.40060   4
  -5 -11   5 2.32282 1.43457   3
  -5 -11   5 5.30308 1.56759   2
  -5  11   5 0.50786 1.12976   2
   5  11  -5 2.40521 1.36662   1
  -4 -11   5 22.9597  2.4053   2
  -4 -11   5 22.9495  2.8625   3
   4 -11  -5 21.1728  2.8625   4
  -4  11   5 21.2688  2.5151   2
  -4  11   5 17.3573  2.1903   1
   4  11  -5 19.4661  2.7053   1
  -3 -11   5 113.114   5.200   2
   3 -11  -5 111.613   5.369   4
  -3 -11   5 117.780   5.653   3
  -3  11   5 116.357   5.200   2
  -3  11   5 121.233   5.258   1
   3  11  -5 111.829   5.469   1
  -2 -11   5 9.15550 1.98077   3
   2 -11  -5 8.41355 1.97356   4
  -2 -11   5 6.24982 1.80920   2
  -2  11   5 5.97998 1.49736   2
   2  11  -5 6.45232 1.69418   1
  -2  11   5 6.77944 1.70921   1
   1 -11  -5 183.212   7.053   4
  -1 -11   5 181.171   7.304   2
  -1 -11   5 184.753   7.370   3
   1  11  -5 196.348   6.981   1
  -1  11   5 188.627   6.471   2
  -1  11   5 189.127   7.407   1
   0 -11   5 3.14119 1.61250   3
   0 -11  -5 1.81166 1.37691   4
   0  11  -5 1.54949 1.25161   2
   0  11   5 1.51003 1.37734   1
  -1 -11  -5 14.6123  2.3305   4
   1 -11   5 18.1636  2.5874   3
  -1  11  -5 12.8844  2.3473   2
   1  11   5 15.5514  2.4894   1
   2 -11   5 3.31654 1.16821   3
  -2 -11  -5 0.28937 1.21070   4
  -2  11  -5 0.89016 1.35898   2
   2  11   5 1.02124 1.02431   1
  -6 -12   5 78.6282  4.9088   3
   6 -12  -5 81.8680  5.3520   4
   6  12  -5 90.0380  5.7260   1
  -6  12   5 85.6371  5.2217   2
   5 -12  -5 365.984  12.141   4
  -5 -12   5 358.195  11.921   3
   5  12  -5 363.183  12.632   1
  -5  12   5 371.935  12.026   2
  -4 -12   5 70.1786  3.9849   2
   4 -12  -5 64.5536  4.4434   4
  -4 -12   5 66.3380  4.3486   3
  -4  12   5 66.7115  4.1494   2
  -4  12   5 67.1575  3.8900   1
   4  12  -5 70.0227  4.4692   1
  -3 -12   5 1.05746 1.34965   2
  -3 -12   5 0.99537 1.43219   3
   3 -12  -5 0.60185 1.41140   4
  -3  12   5 0.21904 1.07051   2
  -3  12   5 0.96095 1.15470   1
   3  12  -5 -0.0832  1.1875   1
   2 -12  -5 172.803   6.903   4
  -2 -12   5 169.454   7.045   3
  -2 -12   5 167.493   6.813   2
  -2  12   5 171.474   6.415   2
  -2  12   5 166.105   6.850   1
   2  12  -5 169.470   6.806   1
  -1 -12   5 241.559   8.876   3
   1 -12  -5 224.090   8.339   4
   1  12  -5 240.750   8.234   1
  -1  12   5 239.260   8.855   1
   1  12  -5 237.865   8.352   2
  -1  12   5 242.082   7.743   2
   0 -12   5 0.75789 1.38554   3
   0 -12  -5 1.65257 1.32898   4
   0  12  -5 0.51957 1.06634   2
   0  12   5 -0.4623  1.2153   1
   1 -12   5 34.3668  3.1329   3
  -1 -12  -5 28.2440  2.9984   4
  -1  12  -5 26.5289  3.1882   2
   1  12   5 31.3381  3.1268   1
  -2 -12  -5 5.61226 1.92856   4
   2 -12   5 5.98529 1.67850   3
  -2  12  -5 6.17979 2.23627   2
   2  12   5 5.81031 1.71595   1
   6 -13  -5 61.9468  4.9932   4
  -6 -13   5 65.9278  4.6533   3
  -6  13   5 65.7978  4.6509   2
   6  13  -5 71.8691  5.2592   1
  -5 -13   5 33.7751  3.1582   3
   5 -13  -5 31.7355  3.4887   4
  -5  13   5 30.1179  3.1761   2
   5  13  -5 31.0765  3.6115   1
  -4 -13   5 80.8344  4.4287   2
  -4 -13   5 83.7947  4.9144   3
   4 -13  -5 79.8811  4.9281   4
   4  13  -5 89.1393  5.1664   1
  -4  13   5 81.9526  4.3221   1
  -4  13   5 84.7774  4.7324   2
  -3 -13   5 472.912  13.876   2
   3 -13  -5 466.406  13.876   4
  -3 -13   5 477.033  14.326   3
   3  13  -5 507.015  14.844   1
  -3  13   5 475.333  13.875   2
  -3  13   5 474.051  13.976   1
  -2 -13   5 174.012   7.329   3
   2 -13  -5 162.604   6.859   4
  -2 -13   5 172.183   7.165   2
   2  13  -5 180.209   7.139   1
  -2  13   5 176.573   7.150   1
  -2  13   5 166.777   6.472   2
  -1 -13   5 1.91043 1.38933   3
   1 -13  -5 3.36854 1.63324   4
   1  13  -5 1.35663 1.27141   1
   1  13  -5 2.60432 1.33468   2
  -1  13   5 0.65387 1.25257   1
   0 -13  -5 36.5128  3.1352   4
   0 -13   5 24.1137  2.9766   3
   0  13  -5 27.8699  2.7217   2
   0  13   5 31.1140  3.1207   1
  -1 -13  -5 133.594   6.222   4
   1 -13   5 130.728   6.348   3
   1  13   5 144.654   6.912   1
  -1  13  -5 126.632   6.501   2
  -2 -13  -5 99.8260  5.6164   4
   2 -13   5 101.980   5.788   3
   2  13   5 96.2627  5.8948   1
  -2  13  -5 89.3319  6.0864   2
   5 -14  -5 27.4430  3.5651   4
  -5 -14   5 27.8028  3.3456   3
   5  14  -5 30.3951  3.8037   1
  -5  14   5 33.2325  3.1003   2
   4 -14  -5 238.739   9.314   4
  -4 -14   5 246.240   9.350   3
  -4 -14   5 246.861   8.703   2
  -4  14   5 242.600   9.112   2
   4  14  -5 244.054   9.757   1
  -4  14   5 252.578   8.687   1
  -3 -14   5 158.680   6.765   2
  -3 -14   5 153.153   6.928   3
   3 -14  -5 152.683   6.723   4
  -3  14   5 154.682   6.584   1
  -3  14   5 149.997   6.472   2
   3  14  -5 157.144   7.063   1
  -2 -14   5 2.48439 1.36440   3
   2 -14  -5 -0.2656  1.1963   4
  -2  14   5 0.96343 1.19992   2
  -2  14   5 3.10799 1.43329   1
   2  14  -5 -0.0590  1.2520   1
   2  14  -5 2.16764 1.23288   2
  -1 -14   5 54.9249  4.0395   3
   1 -14  -5 63.7111  4.1653   4
   1  14  -5 63.8633  4.0496   1
   1  14  -5 66.1943  4.1092   2
  -1  14   5 55.8703  4.0883   1
   0 -14  -5 213.426   8.292   4
   0 -14   5 222.164   8.838   3
   0  14  -5 224.379   8.717   2
   0  14   5 222.785   9.062   1
   1 -14   5 13.4784  2.3944   3
  -1 -14  -5 12.2110  2.3457   4
   1  14   5 11.0142  2.3417   1
  -1  14  -5 13.6094  2.7958   2
   5 -15  -5 2.13977 1.99844   4
  -5 -15   5 8.49200 2.01287   3
  -5  15   5 6.32317 1.84375   2
   5  15  -5 5.69943 2.16657   1
  -4 -15   5 -0.3102  1.0509   3
   4 -15  -5 4.80582 1.74752   4
  -4  15   5 5.18269 1.56458   2
   4  15  -5 2.63710 1.36089   1
  -3 -15   5 6.31033 1.85453   3
   3 -15  -5 8.77524 2.01457   4
  -3  15   5 7.23259 2.02663   1
   3  15  -5 6.50370 1.58923   2
   3  15  -5 11.5905  2.2699   1
  -3  15   5 8.96801 1.92205   2
  -2 -15   5 64.8704  4.3902   3
   2 -15  -5 62.7765  4.2418   4
  -2  15   5 67.6672  4.0175   2
   2  15  -5 65.0736  4.3272   1
  -2  15   5 55.3352  3.9551   1
   2  15  -5 73.5246  4.1746   2
   1 -15  -5 16.3154  2.5036   4
  -1 -15   5 14.0901  2.4172   3
   1  15  -5 13.3328  2.3178   2
  -1  15   5 13.4783  2.4794   1
   0 -15  -5 38.3117  3.2387   4
   0 -15   5 34.9681  3.6805   3
   0  15  -5 41.4994  3.5315   2
   0  15   5 40.4159  3.7123   1
   1 -15   5 15.2371  2.6699   3
  -1 -15  -5 17.8656  2.7732   4
   1  15   5 15.8373  2.9677   1
  -1  15  -5 18.2903  3.2991   2
  -4 -16   5 83.9220  5.1936   3
   4 -16  -5 77.2651  5.2640   4
   4  16  -5 80.3091  5.4173   1
  -4  16   5 83.6172  4.9120   2
   3 -16  -5 93.6131  5.3717   4
  -3 -16   5 91.1343  5.3308   3
  -3  16   5 95.7227  5.0264   2
   3  16  -5 87.8008  5.4117   1
  -3  16   5 95.3469  5.1145   1
   3  16  -5 91.0630  4.7470   2
  -2 -16   5 135.687   6.662   3
   2 -16  -5 136.488   6.470   4
  -2  16   5 143.224   6.684   1
   2  16  -5 148.985   6.900   1
   2  16  -5 146.710   6.437   2
  -1 -16   5 21.4590  2.9974   3
   1 -16  -5 22.4124  2.8478   4
   1  16  -5 16.7541  2.5586   2
  -1  16   5 13.6098  2.4960   1
   0 -16  -5 9.05074 1.99579   4
   0 -16   5 5.35115 1.75335   3
   0  16  -5 11.1102  2.3026   2
   0  16   5 8.75647 2.44849   1
   4 -17  -5 168.790   8.014   4
  -4 -17   5 179.140   8.045   3
   4  17  -5 161.611   8.319   1
  -4  17   5 157.458   7.392   2
  -3 -17   5 48.6935  3.9757   3
   3 -17  -5 42.6211  3.7584   4
   3  17  -5 42.3568  3.2000   2
  -3  17   5 35.6365  3.2458   1
  -3  17   5 42.8540  3.2473   2
   3  17  -5 38.0239  3.5559   1
   2 -17  -5 4.52447 1.54503   4
  -2 -17   5 0.99249 1.09366   3
   2  17  -5 1.71591 1.18899   2
  -2  17   5 1.43514 1.03528   1
   2  17  -5 6.27626 1.71030   1
   1 -17  -5 67.7853  4.4405   4
  -1 -17   5 61.8081  4.5123   3
  -1  17   5 57.1466  4.4681   1
   1  17  -5 57.3877  4.1623   2
   0 -17  -5 48.4171  3.9879   4
   0 -17   5 49.9230  4.3104   3
   0  17  -5 46.1666  4.0576   2
   0  17   5 35.3400  4.2470   1
  -2 -18   5 2.31619 1.55406   3
   2 -18  -5 4.71659 1.78910   4
   2  18  -5 4.03504 1.44420   1
   2  18  -5 5.37507 1.49120   2
  -2  18   5 2.22001 1.53975   1
   7   0  -6 12.1051  2.0395   1
  -7   0   6 12.6165  2.1427   2
  -6   0   6 61.7950  3.9203   2
   6   0  -6 58.4817  3.8192   1
  -5   0   6 182.064   6.945   2
   5   0  -6 180.199   6.925   1
  -4   0   6 712.156  18.492   2
   4   0  -6 700.115  18.591   1
  -3   0   6 1732.85   40.51   2
   3   0  -6 1762.93   41.24   1
   2   0  -6 172.491   6.527   1
  -2   0   6 179.429   6.516   2
   2   0  -6 181.772   5.708   4
   1   0  -6 200.691   6.527   4
  -1   0   6 212.809   7.240   2
   0   0   6 348.318  10.551   2
   0   0  -6 350.327   9.743   4
   0   0   6 355.887  10.737   1
   1   0   6 1444.35   32.79   4
   1   0   6 1465.60   34.74   1
   1   0   6 1385.30   32.81   3
   1   0   6 1449.09   34.25   2
   2   0   6 68.6455  4.1757   4
  -2   0  -6 66.8718  3.7409   3
   7  -1  -6 39.4111  3.1618   1
  -7  -1   6 43.0766  3.2623   2
   7   1  -6 45.1626  3.4368   1
  -7   1   6 42.8959  3.2222   2
  -6  -1   6 28.8507  2.7169   2
   6  -1  -6 23.7348  2.6427   1
   6   1  -6 30.0044  2.7787   1
  -6   1   6 27.0832  2.6358   2
   5  -1  -6 27.5978  2.5560   1
  -5  -1   6 31.2714  2.7998   2
  -5   1   6 28.1851  2.7769   2
   5   1  -6 26.4455  2.4873   1
   4  -1  -6 440.838  11.318   4
  -4  -1   6 436.072  12.564   2
   4  -1  -6 434.110  12.643   1
  -4   1   6 431.767  12.548   2
   3  -1  -6 816.579  21.004   1
   3  -1  -6 816.238  18.824   4
  -3  -1   6 820.617  20.752   2
   3   1  -6 821.950  21.033   1
  -3   1   6 817.260  20.681   2
   2  -1  -6 2.39382 1.12811   4
   2  -1  -6 1.37284 1.09421   1
  -2  -1   6 1.16330 1.20195   2
  -2   1   6 1.89023 1.18516   2
   2   1  -6 1.49595 1.11823   1
   1  -1  -6 73.7260  3.5531   4
  -1  -1   6 73.5464  3.8912   2
  -1   1   6 68.3184  3.8322   1
  -1   1   6 71.1190  3.7893   2
   1   1  -6 69.0466  3.7934   1
   0  -1  -6 1.26566 1.15807   4
   0  -1   6 2.55323 1.20279   3
   0  -1   6 4.26064 1.43901   2
   0   1   6 5.28958 1.53119   2
   0   1   6 2.80132 1.29337   1
   0   1  -6 1.67422 1.10780   4
   1  -1   6 2.44034 1.42070   1
   1  -1   6 1.82615 1.48026   4
   1  -1   6 2.38076 1.57595   2
   1  -1   6 3.85343 1.44233   3
   1   1   6 2.96884 1.45286   2
   1   1   6 2.42820 1.36218   1
  -2  -1  -6 2.66369 1.29433   3
   2  -1   6 2.15373 1.43050   4
   2   1   6 2.50357 1.13435   4
   7  -2  -6 54.8750  3.7238   1
  -7  -2   6 49.3596  3.5171   2
   7   2  -6 55.7762  3.8411   1
  -7   2   6 60.2158  3.8302   2
   6  -2  -6 -0.7155  1.1347   4
   6  -2  -6 -0.9127  0.8732   1
  -6  -2   6 1.44059 1.25155   2
  -6   2   6 -0.6069  0.8955   2
   6   2  -6 1.55586 1.11971   1
  -5  -2   6 77.4673  4.1765   2
   5  -2  -6 69.5339  3.9532   1
   5  -2  -6 73.3849  3.7531   4
  -5   2   6 70.2130  4.0594   2
   5   2  -6 70.3636  4.1333   1
   4  -2  -6 61.3153  3.6641   1
  -4  -2   6 66.5166  3.8485   2
   4  -2  -6 65.0966  3.4493   4
  -4   2   6 67.4426  3.8761   2
   4   2  -6 67.0868  3.8980   1
  -3  -2   6 160.140   6.218   2
   3  -2  -6 160.054   6.240   1
   3  -2  -6 161.794   5.623   4
  -3   2   6 154.184   6.104   2
   3   2  -6 166.431   6.292   1
  -2  -2   6 9.73610 1.83525   2
   2  -2  -6 11.1644  1.6895   4
  -2   2   6 10.4480  1.8814   1
  -2   2   6 9.44599 1.75580   2
   2   2  -6 10.5497  1.8061   1
  -1  -2   6 16.2147  2.0929   2
  -1  -2   6 19.1751  1.9260   3
   1  -2  -6 16.7019  1.9505   4
   1   2  -6 18.3431  2.0691   1
  -1   2   6 16.2651  2.1432   1
  -1   2   6 16.1505  1.9886   2
   0  -2  -6 11.2614  1.8043   4
   0  -2   6 15.6376  1.9525   3
   0  -2   6 13.4575  1.9866   2
   0   2   6 12.8757  1.8689   2
   0   2   6 14.9551  2.0828   1
   0   2  -6 14.1808  1.9152   1
   1  -2   6 33.7885  2.9683   2
   1  -2   6 30.7148  2.7240   3
  -1  -2  -6 32.3531  2.6341   4
  -1   2  -6 33.7153  2.6764   1
   1   2   6 32.0807  2.8726   1
   2  -2   6 1.64043 1.09789   3
   2   2   6 1.81350 1.30348   1
   2   2   6 1.11946 1.07785   4
  -7  -3   6 130.255   5.757   2
   7  -3  -6 118.127   5.482   4
  -7   3   6 116.291   5.623   2
   7   3  -6 126.501   6.072   1
   6  -3  -6 55.8897  3.5683   4
   6  -3  -6 56.4870  3.6232   1
  -6  -3   6 57.2892  3.7254   2
  -6   3   6 53.8514  3.6436   2
   6   3  -6 57.7482  3.8608   1
  -5  -3   6 167.070   6.557   2
   5  -3  -6 160.328   6.404   1
   5  -3  -6 170.435   6.193   4
  -5   3   6 161.968   6.555   2
   5   3  -6 176.927   6.952   1
   4  -3  -6 443.771  11.736   4
  -4  -3   6 434.916  12.537   2
   4  -3  -6 430.176  12.578   1
  -4   3   6 425.549  12.494   2
   4   3  -6 426.159  12.715   1
   3  -3  -6 361.231   9.959   4
  -3  -3   6 361.826  10.728   2
   3  -3  -6 368.527  10.894   1
  -3   3   6 348.245  10.540   2
   3   3  -6 331.824  10.656   1
   2  -3  -6 53.6435  3.1571   4
  -2  -3   6 53.4689  2.9195   3
  -2  -3   6 50.5807  3.3765   2
  -2   3   6 53.6270  3.3982   1
   2   3  -6 50.6933  3.2661   1
  -2   3   6 54.4031  3.3301   2
   1  -3  -6 7.35231 1.62738   4
  -1  -3   6 9.12939 1.77964   2
  -1  -3   6 8.72429 1.51148   3
  -1   3   6 10.5646  1.7899   2
   1   3  -6 9.73774 1.68375   1
  -1   3   6 7.57586 1.69575   1
   0  -3   6 15.7057  1.9396   3
   0  -3   6 11.3982  1.9817   2
   0  -3  -6 13.7300  1.9467   4
   0   3   6 14.9096  2.1497   1
   0   3  -6 14.0800  1.8640   1
   0   3   6 10.5415  1.7378   2
  -1  -3  -6 0.63784 1.14275   4
   1  -3   6 2.91628 1.48558   2
   1  -3   6 1.41969 1.15598   3
   1   3   6 1.97036 1.25628   1
  -1   3  -6 2.37996 1.24300   1
   2  -3   6 1.41509 0.89926   3
   2   3   6 4.50240 1.40821   4
  -2   3  -6 0.85251 1.21067   2
   2   3   6 1.93447 1.19159   1
   7  -4  -6 8.70204 1.87858   4
  -7  -4   6 11.9451  2.0830   2
  -7   4   6 12.1369  2.1750   2
   7   4  -6 11.3986  2.0703   1
  -6  -4   6 62.2688  3.8871   2
   6  -4  -6 67.7793  3.9889   4
   6  -4  -6 67.6048  3.9433   1
   6   4  -6 63.3461  4.0736   1
  -6   4   6 62.0080  3.9098   2
   5  -4  -6 171.436   6.422   4
   5  -4  -6 165.618   6.542   1
  -5  -4   6 173.817   6.701   2
  -5   4   6 166.380   6.630   2
   5   4  -6 168.914   6.939   1
   4  -4  -6 154.852   6.158   1
   4  -4  -6 159.989   5.968   4
  -4  -4   6 156.656   5.809   3
  -4  -4   6 159.723   6.275   2
   4   4  -6 158.384   6.420   1
  -4   4   6 157.720   6.254   2
  -3  -4   6 524.963  14.544   2
  -3  -4   6 539.459  13.557   3
   3  -4  -6 539.815  13.704   4
  -3   4   6 519.807  14.416   2
   3   4  -6 506.011  14.624   1
   2  -4  -6 788.879  19.488   4
  -2  -4   6 835.565  19.502   3
  -2  -4   6 808.307  20.753   2
  -2   4   6 825.780  21.179   1
  -2   4   6 817.077  20.473   2
   2   4  -6 811.222  20.876   1
  -1  -4   6 211.968   7.607   2
   1  -4  -6 214.044   7.208   4
  -1  -4   6 216.928   6.997   3
  -1   4   6 216.383   7.686   1
  -1   4   6 217.174   7.277   2
   1   4  -6 214.025   7.416   1
   0  -4   6 33.0929  2.8928   2
   0  -4   6 37.2789  2.7963   3
   0  -4  -6 38.3521  2.9608   4
   0   4   6 38.5666  2.9873   1
   0   4  -6 37.0916  2.6769   1
   0   4   6 39.4290  2.8374   2
   1  -4   6 99.3690  5.1815   2
   1  -4   6 92.7361  4.6982   3
  -1  -4  -6 96.9279  4.6737   4
   1   4   6 98.3071  4.9240   1
   2  -4   6 139.987   6.231   3
  -2   4  -6 155.261   6.545   2
   2   4   6 155.180   6.458   1
   7  -5  -6 65.4233  4.0035   4
  -7  -5   6 61.4478  3.8534   2
  -7   5   6 64.7954  4.2038   2
   7   5  -6 59.7041  4.1690   1
   6  -5  -6 105.642   5.058   1
   6  -5  -6 103.238   5.178   4
  -6  -5   6 102.485   5.008   2
   6   5  -6 106.102   5.432   1
  -6   5   6 101.656   5.129   2
   5  -5  -6 113.092   5.154   1
  -5  -5   6 119.288   5.392   3
  -5  -5   6 119.476   5.352   2
   5  -5  -6 119.084   5.302   4
  -5   5   6 114.155   5.346   2
   5   5  -6 118.244   5.629   1
   4  -5  -6 166.953   6.283   4
  -4  -5   6 164.754   6.454   2
  -4  -5   6 173.347   6.253   3
   4  -5  -6 159.531   6.332   1
  -4   5   6 156.489   6.321   2
   4   5  -6 161.337   6.620   1
  -3  -5   6 5.99522 1.72156   2
   3  -5  -6 4.46090 1.52215   4
  -3  -5   6 6.34654 1.50247   3
   3   5  -6 3.86309 1.38882   1
  -3   5   6 3.91550 1.36614   2
  -3   5   6 3.45762 1.45430   1
  -2  -5   6 171.750   5.934   3
  -2  -5   6 155.651   6.184   2
   2  -5  -6 152.962   5.954   4
  -2   5   6 159.607   6.059   2
   2   5  -6 152.155   6.079   1
  -2   5   6 159.581   6.338   1
   1  -5  -6 49.7612  3.3371   4
  -1  -5   6 45.4426  3.0227   3
  -1  -5   6 42.2607  3.0960   2
  -1   5   6 44.5714  2.9600   2
  -1   5   6 44.0589  3.1394   1
   1   5  -6 41.6435  2.9005   1
   0  -5  -6 503.439  13.561   4
   0  -5   6 527.637  13.850   3
   0  -5   6 505.404  14.441   2
   0   5   6 487.079  14.429   1
   0   5   6 511.582  13.682   2
   0   5  -6 481.785  13.753   1
   1  -5   6 0.89459 1.22781   3
  -1  -5  -6 1.53351 1.21825   4
   1   5   6 1.37322 1.15609   1
   2  -5   6 64.8577  4.0268   3
  -2  -5  -6 64.4215  3.8306   4
  -2   5  -6 66.2109  4.0901   2
   2   5   6 68.3377  4.1371   1
   7  -6  -6 25.1294  2.7767   4
   7   6  -6 26.7367  3.1169   1
  -7   6   6 24.6275  2.9614   2
  -6  -6   6 1.47184 1.54328   3
   6  -6  -6 0.24941 1.25541   4
   6  -6  -6 1.26749 1.12388   1
  -6  -6   6 0.89733 1.28038   2
   6   6  -6 1.43220 1.00694   1
  -6   6   6 0.60583 1.03693   2
  -5  -6   6 116.013   5.444   3
   5  -6  -6 125.324   5.386   1
  -5  -6   6 119.519   5.355   2
   5  -6  -6 130.789   5.742   4
   5   6  -6 118.098   5.755   1
  -5   6   6 111.114   5.369   2
  -4  -6   6 364.096  10.760   3
   4  -6  -6 362.979  10.851   4
   4  -6  -6 364.427  11.016   1
  -4  -6   6 352.241  10.951   2
  -4   6   6 342.572  10.917   2
   4   6  -6 367.026  11.488   1
  -3  -6   6 5.16462 1.47501   3
   3  -6  -6 6.48909 1.70075   4
  -3  -6   6 7.39333 1.78739   2
  -3   6   6 5.68534 1.55302   2
  -3   6   6 6.45307 1.68608   1
   3   6  -6 5.33502 1.60190   1
  -2  -6   6 13.6967  2.1229   2
  -2  -6   6 13.7696  1.9557   3
   2  -6  -6 11.7298  2.0577   4
  -2   6   6 12.1794  2.0454   1
   2   6  -6 13.8113  1.9740   1
  -2   6   6 11.2954  1.7874   2
  -1  -6   6 61.7047  3.6548   3
  -1  -6   6 66.1717  3.9249   2
   1  -6  -6 64.4993  3.8006   4
  -1   6   6 63.5503  3.8736   1
   1   6  -6 66.2883  3.6580   1
  -1   6   6 63.5965  3.6044   2
   0  -6  -6 4.33012 1.56237   4
   0  -6   6 6.43908 1.67831   3
   0  -6   6 5.74691 1.76617   2
   0   6  -6 4.79170 1.40917   1
   0   6   6 2.23952 1.30244   1
  -1  -6  -6 10.8513  1.9231   4
   1  -6   6 16.4316  2.3461   3
   1   6   6 12.1681  2.0832   1
  -1   6  -6 13.3947  2.1193   2
   2  -6   6 174.575   7.191   3
  -2  -6  -6 165.267   6.815   4
   2   6   6 178.898   7.310   1
  -2   6  -6 174.140   7.352   2
   7  -7  -6 202.192   7.955   4
  -7   7   6 188.652   7.967   2
   7   7  -6 186.747   8.333   1
  -6  -7   6 2.65098 1.66468   3
   6  -7  -6 2.52827 1.37343   1
  -6  -7   6 1.55467 1.36216   2
   6  -7  -6 -0.0484  1.0542   4
  -6   7   6 4.00493 1.34667   2
   6   7  -6 3.91723 1.35768   1
  -5  -7   6 349.952  10.947   3
  -5  -7   6 341.183  10.799   2
   5  -7  -6 332.696  10.768   4
   5  -7  -6 360.907  10.929   1
   5   7  -6 332.135  11.385   1
  -5   7   6 355.726  11.094   2
   4  -7  -6 998.018  24.100   4
  -4  -7   6 977.600  24.254   3
  -4  -7   6 973.529  24.783   2
  -4   7   6 1010.73   24.96   2
   4   7  -6 1010.39   25.69   1
  -3  -7   6 50.2736  3.3669   3
   3  -7  -6 46.9296  3.3610   4
  -3  -7   6 49.3926  3.3123   2
   3   7  -6 42.3270  3.2339   1
  -3   7   6 49.9446  3.2913   2
  -3   7   6 48.0128  3.4188   1
  -2  -7   6 7.71019 1.68765   3
   2  -7  -6 6.97397 1.80120   4
  -2  -7   6 6.74312 1.75948   2
  -2   7   6 5.65670 1.68580   1
   2   7  -6 5.27996 1.47327   1
  -2   7   6 6.11604 1.48495   2
  -1  -7   6 9.03166 2.01137   2
   1  -7  -6 7.27170 1.80830   4
  -1  -7   6 8.24580 1.80952   3
   1   7  -6 6.42428 1.56954   1
  -1   7   6 9.47711 1.72757   2
  -1   7   6 8.71640 1.85015   1
   0  -7   6 7.54736 1.90576   2
   0  -7  -6 3.17380 1.54395   4
   0  -7   6 13.6117  2.2272   3
   0   7  -6 7.02196 1.59823   1
   0   7   6 5.93227 1.65779   1
   1  -7   6 2.17453 1.08985   3
  -1  -7  -6 0.39090 0.96706   4
  -1   7  -6 -0.6849  0.8521   2
   1   7   6 -0.0670  0.8876   1
  -2  -7  -6 42.2631  3.4482   4
   2  -7   6 44.9599  3.4526   3
  -2   7  -6 51.7836  3.7703   2
   2   7   6 45.1096  3.4030   1
  -6  -8   6 26.4852  2.7388   2
  -6  -8   6 29.3999  3.1160   3
   6  -8  -6 27.3924  3.0583   4
  -6   8   6 28.5517  2.9820   2
   6   8  -6 27.4180  3.1253   1
   5  -8  -6 50.8430  3.4089   1
  -5  -8   6 50.9733  3.5717   2
  -5  -8   6 47.5057  3.6979   3
   5  -8  -6 45.8242  3.6609   4
   5   8  -6 47.1078  3.5728   1
  -5   8   6 46.9168  3.3467   2
  -4  -8   6 122.350   5.570   2
  -4  -8   6 125.033   5.693   3
   4  -8  -6 125.895   5.782   4
  -4   8   6 128.487   5.638   1
  -4   8   6 135.126   5.785   2
   4   8  -6 122.817   5.901   1
  -3  -8   6 637.339  17.138   3
   3  -8  -6 669.624  17.208   4
  -3  -8   6 644.866  17.560   2
  -3   8   6 663.460  17.364   2
   3   8  -6 651.292  17.893   1
  -3   8   6 639.218  17.676   1
   2  -8  -6 371.355  10.992   4
  -2  -8   6 368.359  11.039   3
  -2  -8   6 359.519  11.199   2
  -2   8   6 373.885  10.874   2
  -2   8   6 350.846  11.262   1
   2   8  -6 336.900  10.931   1
  -1  -8   6 172.696   7.042   2
   1  -8  -6 164.329   6.773   4
  -1  -8   6 187.772   7.031   3
  -1   8   6 185.098   6.547   2
   1   8  -6 179.998   6.686   1
  -1   8   6 174.522   7.116   1
   0  -8   6 53.7207  3.6937   3
   0  -8  -6 54.0173  3.6889   4
   0  -8   6 56.5533  3.9295   2
   0   8   6 56.3896  3.7984   1
  -1  -8  -6 31.5313  2.8517   4
   1  -8   6 36.0073  2.9692   3
   1   8   6 37.2517  3.1515   1
  -1   8  -6 35.3530  3.0247   2
   2  -8   6 39.7900  3.3046   3
  -2  -8  -6 35.9966  3.3372   4
  -2   8  -6 42.6409  3.6971   2
   2   8   6 43.5171  3.4200   1
  -6  -9   6 157.507   6.862   3
   6  -9  -6 149.090   6.774   4
  -6  -9   6 137.166   6.050   2
   6   9  -6 144.104   7.022   1
  -6   9   6 151.138   6.782   2
  -5  -9   6 58.3891  4.1207   3
   5  -9  -6 72.0865  4.4616   4
   5  -9  -6 61.1590  3.8309   1
  -5  -9   6 64.3528  3.9759   2
   5   9  -6 60.7875  4.2057   1
  -5   9   6 67.0910  4.1239   2
  -4  -9   6 11.1466  2.0544   2
  -4  -9   6 20.1265  2.6698   3
   4  -9  -6 14.1769  2.4379   4
  -4   9   6 12.4266  2.0990   2
  -4   9   6 11.7529  2.0982   1
   4   9  -6 11.8586  2.2425   1
  -3  -9   6 14.3479  2.3239   3
  -3  -9   6 14.1378  2.2659   2
   3  -9  -6 16.0023  2.4283   4
  -3   9   6 15.4913  2.1677   2
  -3   9   6 16.3515  2.3301   1
   3   9  -6 13.0551  2.1747   1
  -2  -9   6 27.9191  2.8491   3
   2  -9  -6 28.7636  2.9633   4
  -2  -9   6 21.2512  2.6251   2
   2   9  -6 24.3915  2.5899   1
  -2   9   6 28.4170  2.5972   2
  -2   9   6 19.8308  2.5496   1
  -1  -9   6 24.1868  2.8256   2
   1  -9  -6 25.0606  2.7996   4
  -1  -9   6 18.4185  2.5528   3
  -1   9   6 21.7395  2.3028   2
  -1   9   6 22.6294  2.7467   1
   1   9  -6 23.0932  2.3013   1
   0  -9  -6 22.1973  2.6398   4
   0  -9   6 8.76908 1.97920   3
   0   9   6 17.6615  2.5464   1
   1  -9   6 87.0426  4.7937   3
  -1  -9  -6 90.2106  4.7700   4
   1   9   6 90.7667  5.0773   1
  -1   9  -6 83.2816  4.7868   2
  -6 -10   6 6.91051 1.70530   3
   6 -10  -6 13.0114  2.3520   4
  -6  10   6 5.95819 1.92313   2
   6  10  -6 8.83542 2.13415   1
  -5 -10   6 15.4728  2.5045   3
   5 -10  -6 18.8023  2.3405   1
   5 -10  -6 16.1001  2.5696   4
  -5 -10   6 12.3469  2.1217   2
  -5  10   6 14.2073  2.2383   2
   5  10  -6 14.1665  2.4074   1
   4 -10  -6 99.1337  5.2998   4
  -4 -10   6 103.991   5.452   3
  -4 -10   6 100.713   5.083   2
  -4  10   6 105.790   5.174   2
   4  10  -6 103.754   5.431   1
  -4  10   6 106.780   5.171   1
  -3 -10   6 118.775   5.697   3
   3 -10  -6 119.726   5.732   4
  -3 -10   6 113.446   5.423   2
   3  10  -6 109.127   5.489   1
  -3  10   6 115.333   5.328   2
  -3  10   6 112.562   5.446   1
  -2 -10   6 54.4694  3.8808   2
  -2 -10   6 55.1824  3.8717   3
   2 -10  -6 55.2298  3.9033   4
   2  10  -6 55.5061  3.6697   1
  -2  10   6 56.2163  3.4805   2
  -2  10   6 56.8475  3.8481   1
   1 -10  -6 39.2712  3.3173   4
  -1 -10   6 42.5334  3.4318   2
  -1 -10   6 49.9892  3.6381   3
  -1  10   6 45.4022  3.4488   1
   1  10  -6 46.9382  3.1820   1
   0 -10   6 47.5696  3.4400   3
   0 -10  -6 40.6333  3.2757   4
   0  10   6 43.8104  3.5214   1
   0  10  -6 41.1100  3.2812   2
  -1 -10  -6 56.6603  3.9409   4
   1 -10   6 48.1263  3.5928   3
   1  10   6 56.0127  4.0100   1
  -1  10  -6 54.0757  3.9996   2
   6 -11  -6 202.323   8.642   4
  -6 -11   6 194.239   8.302   3
   6  11  -6 204.106   9.015   1
  -6  11   6 211.855   8.594   2
  -5 -11   6 258.958   9.086   2
  -5 -11   6 280.121   9.851   3
   5 -11  -6 260.927   9.769   4
   5 -11  -6 271.059   9.209   1
  -5  11   6 263.324   9.631   2
   5  11  -6 273.636  10.302   1
   4 -11  -6 124.784   5.995   4
  -4 -11   6 119.416   5.995   3
  -4 -11   6 122.689   5.631   2
   4  11  -6 116.476   5.957   1
  -4  11   6 114.050   5.568   2
  -4  11   6 127.249   5.742   1
  -3 -11   6 24.0495  2.9425   3
   3 -11  -6 31.2017  3.2044   4
  -3 -11   6 25.5090  2.8491   2
  -3  11   6 29.6414  2.8315   1
   3  11  -6 23.9793  2.8183   1
  -3  11   6 28.5920  2.8092   2
  -2 -11   6 34.7343  3.2137   3
   2 -11  -6 32.5718  3.2880   4
  -2 -11   6 31.0952  2.9905   2
  -2  11   6 34.2192  3.0705   1
  -2  11   6 35.2659  2.8778   2
   2  11  -6 32.6904  2.9422   1
  -1 -11   6 2.63478 1.47589   2
  -1 -11   6 4.76424 1.55683   3
   1 -11  -6 4.30040 1.58754   4
   1  11  -6 2.45309 1.32919   1
  -1  11   6 2.42624 1.25366   1
   0 -11   6 3.70911 1.35888   3
   0 -11  -6 4.08205 1.35053   4
   0  11  -6 0.02572 0.94849   2
   0  11   6 4.28989 1.42912   1
  -1 -11  -6 63.3205  4.3960   4
   1 -11   6 61.6589  4.2237   3
   1  11   6 70.4780  4.7119   1
  -1  11  -6 62.7656  4.5622   2
  -5 -12   6 24.3589  2.9784   3
   5 -12  -6 21.9661  3.0689   4
  -5 -12   6 20.2924  2.5422   2
   5  12  -6 20.5795  3.0708   1
  -5  12   6 20.4550  2.7361   2
   4 -12  -6 92.8899  5.2352   4
  -4 -12   6 85.9614  4.7663   2
  -4 -12   6 86.6762  4.9930   3
   4  12  -6 88.9734  5.1911   1
  -4  12   6 100.049   5.049   1
  -4  12   6 93.0044  4.9568   2
  -3 -12   6 227.617   8.731   3
   3 -12  -6 230.099   8.682   4
  -3 -12   6 230.387   8.583   2
  -3  12   6 227.843   8.599   1
  -3  12   6 233.163   8.378   2
   3  12  -6 224.126   8.682   1
  -2 -12   6 87.0305  4.9359   3
  -2 -12   6 86.0704  4.9008   2
   2 -12  -6 87.6720  4.9021   4
   2  12  -6 83.3204  4.6683   1
  -2  12   6 84.8739  4.4306   2
  -2  12   6 83.2578  4.8609   1
   1 -12  -6 64.3746  4.2976   4
  -1 -12   6 64.3894  4.2502   3
   1  12  -6 70.0298  4.1227   1
  -1  12   6 70.9829  4.5874   1
   1  12  -6 75.3555  4.3389   2
   0 -12   6 20.5829  2.8223   3
   0 -12  -6 17.4720  2.6590   4
   0  12  -6 15.7004  2.5467   2
   0  12   6 15.1595  2.5609   1
  -1 -12  -6 21.9516  3.2296   4
   1 -12   6 19.1192  2.9143   3
   1  12   6 25.9107  3.4411   1
  -1  12  -6 20.7314  3.2992   2
  -5 -13   6 4.36163 1.57552   2
   5 -13  -6 8.04577 2.46877   4
  -5 -13   6 5.23156 1.59603   3
  -5  13   6 6.09829 1.74329   2
   5  13  -6 10.2689  2.5423   1
   4 -13  -6 119.747   6.182   4
  -4 -13   6 120.956   6.090   3
  -4 -13   6 123.283   5.844   2
   4  13  -6 113.992   6.104   1
  -4  13   6 113.499   5.583   1
  -4  13   6 122.038   5.874   2
  -3 -13   6 1.29368 1.30408   2
   3 -13  -6 1.98228 1.46484   4
  -3 -13   6 2.49959 1.22627   3
  -3  13   6 0.34063 1.03429   2
  -3  13   6 -0.3742  1.0089   1
   3  13  -6 1.41144 1.18097   1
  -2 -13   6 1.09561 1.18581   2
   2 -13  -6 2.69161 1.38591   4
  -2 -13   6 0.18767 0.98354   3
   2  13  -6 2.89102 1.28853   1
  -2  13   6 1.28946 1.16310   1
  -2  13   6 1.94021 1.34992   2
   1 -13  -6 18.0260  2.6475   4
  -1 -13   6 15.4853  2.3668   3
   1  13  -6 16.1242  2.4123   2
  -1  13   6 13.4484  2.4802   1
   0 -13  -6 7.06659 2.01617   4
   0 -13   6 8.59671 1.97519   3
   0  13   6 6.47799 2.06767   1
   0  13  -6 9.61866 2.30121   2
  -4 -14   6 6.41596 1.59780   2
  -4 -14   6 9.64810 1.97384   3
   4 -14  -6 5.95061 2.16370   4
  -4  14   6 3.57405 1.27259   2
  -4  14   6 6.85835 1.65776   1
   4  14  -6 5.71249 1.78523   1
   3 -14  -6 250.826   9.481   4
  -3 -14   6 244.725   9.340   2
  -3 -14   6 244.365   9.500   3
   3  14  -6 267.551   9.805   1
  -3  14   6 250.214   9.376   1
  -3  14   6 248.230   9.005   2
   2 -14  -6 403.717  13.084   4
  -2 -14   6 416.299  13.563   3
   2  14  -6 417.483  13.273   1
   2  14  -6 430.077  13.174   2
  -2  14   6 427.558  13.779   1
  -1 -14   6 38.5360  3.3656   3
   1 -14  -6 42.6892  3.8122   4
  -1  14   6 45.6895  3.9733   1
   1  14  -6 44.6268  3.5654   2
   0 -14   6 28.4830  3.5028   3
   0 -14  -6 28.1274  3.5775   4
   0  14  -6 26.4652  3.4223   2
   0  14   6 25.6680  3.6959   1
  -4 -15   6 165.441   7.609   3
   4 -15  -6 163.426   7.911   4
  -4 -15   6 163.816   7.185   2
  -4  15   6 170.097   7.430   2
  -4  15   6 166.607   7.066   1
   4  15  -6 162.057   7.962   1
   3 -15  -6 2.86751 1.83222   4
  -3 -15   6 0.33801 1.00139   3
  -3  15   6 3.46917 1.40171   1
   3  15  -6 2.84324 1.30679   1
  -3  15   6 2.54587 1.08610   2
  -2 -15   6 53.3020  4.0194   3
   2 -15  -6 49.4809  4.1413   4
  -2  15   6 58.4033  4.2864   1
   2  15  -6 48.9206  3.6422   2
   2  15  -6 48.2900  3.7084   1
   1 -15  -6 17.4084  2.9861   4
  -1 -15   6 16.1384  2.7061   3
   1  15  -6 20.4970  2.9216   2
  -1  15   6 18.2877  3.1020   1
   7   0  -7 2.58672 1.24563   1
  -7   0   7 -0.3357  1.3224   2
  -6   0   7 -0.4570  0.9143   2
   6   0  -7 1.76316 0.88026   1
  -5   0   7 -0.2096  0.8741   2
   5   0  -7 0.45567 0.90385   1
   4   0  -7 0.01093 1.03093   1
  -4   0   7 0.52400 1.17285   2
   3   0  -7 -0.0361  1.0838   1
  -3   0   7 1.67802 1.35156   2
  -2   0   7 -0.6689  1.0538   2
   2   0  -7 0.45428 1.09218   1
   1   0  -7 -0.9508  0.9686   1
  -1   0   7 -1.1598  1.0869   2
   0   0   7 0.59618 1.22376   2
   0   0  -7 0.13617 0.87496   1
  -7  -1   7 148.994   6.819   2
   7  -1  -7 153.534   6.892   1
   7   1  -7 153.788   6.984   1
  -7   1   7 150.217   6.898   2
   6  -1  -7 16.7322  2.3618   1
  -6  -1   7 15.1336  2.3201   2
  -6   1   7 12.7987  2.1326   2
   6   1  -7 18.1510  2.4584   1
   5  -1  -7 9.68232 1.83879   1
  -5  -1   7 11.3630  2.0203   2
   5   1  -7 9.56583 1.86917   1
  -5   1   7 10.2626  2.0085   2
  -4  -1   7 480.832  13.933   2
   4  -1  -7 462.301  13.911   1
  -4   1   7 461.426  13.714   2
   4   1  -7 469.401  14.032   1
  -3  -1   7 608.501  16.942   2
   3  -1  -7 609.302  17.256   1
   3   1  -7 642.179  17.377   1
  -3   1   7 612.384  16.933   2
   2  -1  -7 125.039   5.635   1
  -2  -1   7 113.133   5.404   2
  -2   1   7 117.585   5.411   2
   2   1  -7 112.846   5.413   1
  -1  -1   7 91.8478  4.6458   2
  -1   1   7 75.1427  4.3298   2
   1   1  -7 82.3860  4.5209   1
   0  -1   7 32.8717  2.8925   2
   0   1   7 34.6895  2.9056   1
   0   1   7 35.8757  3.0225   2
   0   1  -7 38.0774  2.9839   1
   1   1   7 5.19192 1.33075   1
   7  -2  -7 604.723  17.627   1
  -7  -2   7 591.329  17.319   2
  -7   2   7 587.744  17.418   2
   7   2  -7 624.814  18.047   1
  -6  -2   7 15.1161  2.3647   2
   6  -2  -7 14.7507  2.2250   1
  -6   2   7 12.7064  2.1579   2
   6   2  -7 12.0893  2.1215   1
   5  -2  -7 17.4467  2.3342   1
  -5  -2   7 18.9898  2.4584   2
  -5   2   7 18.1737  2.4165   2
   5   2  -7 21.9124  2.6081   1
  -4  -2   7 57.0801  3.8264   2
   4  -2  -7 56.2263  3.6932   1
   4   2  -7 60.3993  3.8344   1
  -4   2   7 51.9024  3.5917   2
  -3  -2   7 38.8678  3.2423   2
   3  -2  -7 44.7377  3.3386   1
  -3   2   7 42.5915  3.3083   2
   3   2  -7 46.7583  3.3818   1
   2  -2  -7 -0.1613  0.9699   1
  -2  -2   7 -0.4232  1.0669   2
  -2   2   7 0.61891 1.13466   2
   2   2  -7 0.78288 1.13621   1
  -1  -2   7 11.1680  2.0975   2
   1   2  -7 15.8551  2.2368   1
  -1   2   7 15.4953  2.2914   2
  -1   2   7 15.2389  2.2422   1
   0  -2   7 38.0515  3.1243   2
   0  -2  -7 39.8977  3.0846   4
   0   2   7 36.8731  3.0635   2
   0   2   7 41.8438  3.1421   1
   0   2  -7 39.2518  3.0444   1
  -1  -2  -7 2.15352 1.13479   4
   1  -2   7 3.58765 1.27870   2
   1   2   7 1.15016 0.90163   1
  -6  -3   7 457.509  13.873   2
   6  -3  -7 453.808  13.836   1
   6   3  -7 437.416  14.105   1
  -6   3   7 457.987  13.928   2
   5  -3  -7 28.3798  2.6253   1
  -5  -3   7 34.9765  3.0224   2
   5   3  -7 31.7039  2.8895   1
  -5   3   7 32.4185  2.9140   2
  -4  -3   7 12.2311  2.1205   2
   4  -3  -7 11.6711  2.0240   1
   4   3  -7 7.66943 1.74088   1
  -4   3   7 9.54919 1.92746   2
   3  -3  -7 183.591   7.312   1
  -3  -3   7 186.650   7.376   2
  -3   3   7 190.731   7.282   2
   3   3  -7 198.842   7.584   1
   2  -3  -7 129.946   5.543   4
  -2  -3   7 135.423   6.033   2
   2   3  -7 146.522   6.175   1
  -2   3   7 142.374   6.241   1
  -2   3   7 140.141   5.948   2
  -1  -3   7 43.7383  3.3227   2
   1  -3  -7 46.1954  3.3119   4
  -1   3   7 37.9136  3.1007   2
   1   3  -7 47.2877  3.3110   1
  -1   3   7 40.1129  3.1479   1
   0  -3  -7 -0.7402  1.1102   4
   0  -3   7 1.83866 1.08096   2
   0   3  -7 1.62036 1.16962   1
   0   3   7 1.14947 0.97016   1
   0   3   7 1.62288 1.37496   2
  -1  -3  -7 10.7324  1.8197   4
   1  -3   7 12.0458  2.0711   2
   1   3   7 14.7279  2.1020   1
  -6  -4   7 99.5771  5.1827   2
   6  -4  -7 96.0475  5.0273   1
  -6   4   7 85.6436  5.0058   2
   6   4  -7 100.625   5.371   1
   5  -4  -7 56.0845  3.6135   1
  -5  -4   7 49.6192  3.6286   2
   5   4  -7 54.3703  3.8384   1
  -5   4   7 54.2066  3.7121   2
   4  -4  -7 174.572   6.967   1
  -4  -4   7 168.612   6.987   2
   4  -4  -7 169.354   6.533   4
   4   4  -7 160.882   6.918   1
  -4   4   7 175.038   6.937   2
   3  -4  -7 17.9364  2.3690   4
   3  -4  -7 18.2526  2.4040   1
  -3  -4   7 19.7624  2.5348   2
   3   4  -7 21.7084  2.6315   1
  -3   4   7 20.5831  2.4841   2
  -2  -4   7 15.0609  2.3131   2
   2  -4  -7 16.5217  2.2901   4
   2   4  -7 12.0153  2.0933   1
  -2   4   7 12.7626  2.2065   1
  -2   4   7 12.7655  2.1526   2
  -1  -4   7 9.70271 1.90970   2
   1  -4  -7 10.6399  2.0650   4
  -1   4   7 7.58645 1.81015   2
   1   4  -7 8.20665 1.80209   1
  -1   4   7 6.71343 1.57251   1
   0  -4  -7 12.7495  2.2253   4
   0  -4   7 15.4017  2.4391   2
   0   4  -7 14.4474  2.0989   1
   0   4   7 17.9200  2.3780   1
  -1  -4  -7 6.57228 1.49638   4
  -1   4  -7 5.68176 1.36023   2
   1   4   7 4.10298 1.29339   1
   6  -5  -7 206.618   7.874   1
  -6  -5   7 197.018   7.783   2
   6   5  -7 201.163   8.262   1
  -6   5   7 180.946   7.675   2
   5  -5  -7 59.1916  3.7165   1
   5  -5  -7 61.2643  3.9481   4
  -5  -5   7 60.4710  3.9800   2
  -5   5   7 59.5601  3.8855   2
   5   5  -7 60.2181  4.0740   1
   4  -5  -7 19.0808  2.4042   1
  -4  -5   7 15.6600  2.3722   2
   4  -5  -7 24.2467  2.5713   4
   4   5  -7 19.6903  2.5411   1
  -4   5   7 21.0025  2.5114   2
   3  -5  -7 602.558  15.943   4
  -3  -5   7 593.539  16.931   2
   3   5  -7 609.983  17.172   1
  -3   5   7 620.007  16.787   2
  -2  -5   7 1194.95   30.09   2
   2  -5  -7 1213.97   28.40   4
  -2   5   7 1193.33   30.43   1
   2   5  -7 1213.10   30.33   1
  -2   5   7 1240.00   29.74   2
   1  -5  -7 43.2431  3.3550   4
  -1  -5   7 43.3387  3.3223   2
   1   5  -7 44.3477  3.2279   1
  -1   5   7 44.7070  3.3198   2
  -1   5   7 40.9415  3.2329   1
   0  -5  -7 74.9517  4.2499   4
   0  -5   7 69.4275  4.0926   3
   0  -5   7 67.0275  4.2706   2
   0   5  -7 75.0710  4.1632   1
   0   5   7 70.8390  4.2536   1
   1  -5   7 16.6678  2.2351   3
  -1  -5  -7 21.6121  2.6242   4
  -1   5  -7 17.8011  2.4540   2
   1   5   7 18.3787  2.5065   1
  -6  -6   7 42.3812  3.4315   2
   6  -6  -7 46.3298  3.2757   1
   6  -6  -7 46.1553  3.4229   4
   6   6  -7 38.0606  3.4194   1
  -6   6   7 44.1594  3.5553   2
   5  -6  -7 83.4141  4.5082   1
   5  -6  -7 77.5901  4.5132   4
  -5  -6   7 84.7390  4.7302   2
  -5   6   7 83.7233  4.6424   2
   5   6  -7 72.9434  4.5561   1
   4  -6  -7 38.0692  2.9536   1
  -4  -6   7 38.8570  3.1957   2
   4  -6  -7 43.6201  3.3531   4
  -4   6   7 38.7639  3.0255   2
   4   6  -7 37.5905  3.1770   1
   3  -6  -7 0.43484 1.29744   4
  -3  -6   7 -0.2064  1.0848   2
  -3   6   7 0.16259 1.02515   2
  -3   6   7 1.07267 1.14299   1
   3   6  -7 0.29638 0.97837   1
   2  -6  -7 4.56948 1.74872   4
  -2  -6   7 4.57720 1.60828   2
  -2   6   7 10.6288  2.0513   2
  -2   6   7 5.67661 1.59590   1
   2   6  -7 10.5900  2.0249   1
  -1  -6   7 4.89913 1.57317   3
   1  -6  -7 3.35894 1.58722   4
  -1  -6   7 2.88127 1.36315   2
  -1   6   7 5.81955 1.65612   2
   1   6  -7 3.44998 1.35800   1
  -1   6   7 5.06745 1.43956   1
   0  -6  -7 5.19380 1.59189   4
   0  -6   7 2.53987 1.20571   2
   0  -6   7 4.83317 1.36747   3
   0   6   7 3.16800 1.15738   1
   6  -7  -7 100.877   5.252   4
  -6  -7   7 97.7216  5.1268   2
   6  -7  -7 94.8872  4.9115   1
   6   7  -7 92.1650  5.5745   1
  -6   7   7 97.2146  5.3889   2
   5  -7  -7 14.9153  2.2422   1
   5  -7  -7 13.7826  2.3576   4
  -5  -7   7 14.6333  2.3316   2
   5   7  -7 10.8205  2.1614   1
  -5   7   7 11.4930  2.0257   2
  -4  -7   7 12.9498  2.2598   2
   4  -7  -7 6.17201 1.92711   4
   4  -7  -7 6.95771 1.56620   1
  -4   7   7 10.9418  2.0100   2
   4   7  -7 11.9695  2.1515   1
  -3  -7   7 5.74295 1.73622   2
   3  -7  -7 7.02811 1.89243   4
  -3   7   7 7.55368 1.71222   2
  -3   7   7 7.71829 1.69242   1
   3   7  -7 4.90902 1.52527   1
   2  -7  -7 3.60039 1.69670   4
  -2  -7   7 4.01140 1.60055   2
  -2  -7   7 11.0102  2.1049   3
  -2   7   7 3.85591 1.48960   1
  -2   7   7 3.08372 1.44791   2
   2   7  -7 3.86146 1.35538   1
  -1  -7   7 67.3351  4.2729   2
   1  -7  -7 66.2145  4.1098   4
  -1  -7   7 66.6310  4.0414   3
  -1   7   7 72.1839  4.1090   2
  -1   7   7 62.5871  4.0518   1
   1   7  -7 61.6685  3.8241   1
   0  -7  -7 47.4241  3.4717   4
   0  -7   7 50.2445  3.7790   2
   0  -7   7 51.9112  3.4509   3
   0   7   7 49.8706  3.6563   1
   6  -8  -7 16.3231  2.4573   4
  -6  -8   7 11.4768  2.1791   2
   6  -8  -7 16.6106  2.2063   1
   6   8  -7 10.5196  2.3006   1
  -6   8   7 13.1182  2.3473   2
   5  -8  -7 11.8463  2.1271   4
   5  -8  -7 8.53309 1.78307   1
  -5  -8   7 6.90584 1.79445   2
  -5   8   7 13.1207  2.1236   2
   5   8  -7 10.0119  2.1098   1
   4  -8  -7 6.39115 1.76229   4
  -4  -8   7 10.2349  1.9989   2
   4   8  -7 6.14226 1.60571   1
  -4   8   7 4.47671 1.40915   2
  -3  -8   7 -0.4621  1.0434   3
   3  -8  -7 -0.0714  1.4232   4
  -3  -8   7 -0.4712  0.9714   2
  -3   8   7 0.43432 0.99753   2
  -3   8   7 0.83825 1.16292   1
   3   8  -7 2.18678 1.14779   1
  -2  -8   7 -1.6853  1.1302   3
  -2  -8   7 -0.1918  0.9768   2
   2  -8  -7 -0.4751  1.1993   4
  -2   8   7 1.30458 1.18456   1
   2   8  -7 1.10984 1.06085   1
  -2   8   7 -0.1808  1.1539   2
  -1  -8   7 3.55860 1.41781   2
  -1  -8   7 7.78710 1.71660   3
   1  -8  -7 5.46685 1.52582   4
   1   8  -7 3.27283 1.35790   1
  -1   8   7 1.24564 1.08364   1
   0  -8   7 22.3166  2.5779   3
   0  -8  -7 17.2511  2.6173   4
   0   8   7 18.9504  2.6607   1
   5  -9  -7 384.888  12.465   4
   5  -9  -7 401.678  12.451   1
  -5  -9   7 375.549  12.193   2
  -5   9   7 386.301  12.570   2
   5   9  -7 389.504  13.192   1
   4  -9  -7 112.688   5.646   4
  -4  -9   7 112.791   5.651   3
  -4  -9   7 111.957   5.611   2
  -4   9   7 111.441   5.603   1
  -4   9   7 112.062   5.449   2
   4   9  -7 111.480   5.735   1
  -3  -9   7 87.7014  4.8729   3
  -3  -9   7 97.6103  5.1717   2
   3  -9  -7 91.9859  5.0454   4
   3   9  -7 94.7446  5.0808   1
  -3   9   7 93.2312  4.8762   2
  -3   9   7 89.2716  5.0442   1
  -2  -9   7 244.590   8.852   3
   2  -9  -7 253.947   9.049   4
  -2  -9   7 238.220   9.137   2
  -2   9   7 247.824   8.650   2
   2   9  -7 242.664   8.861   1
  -2   9   7 242.212   9.208   1
  -1  -9   7 51.6948  3.6386   3
  -1  -9   7 50.8187  3.8789   2
   1  -9  -7 53.7840  3.8145   4
  -1   9   7 48.1965  3.7131   1
   1   9  -7 49.0128  3.4511   1
   0  -9   7 32.5287  2.8734   3
   0  -9  -7 31.5055  3.2812   4
   0   9  -7 29.7437  3.2790   2
   0   9   7 28.9534  3.2610   1
   5 -10  -7 1.74619 0.93149   1
   5 -10  -7 3.97847 1.46906   4
  -5 -10   7 -0.0486  1.0489   2
  -5 -10   7 0.27956 1.08611   3
   5  10  -7 1.04557 1.43345   1
  -5  10   7 0.09557 0.99183   2
  -4 -10   7 117.741   5.786   3
  -4 -10   7 119.810   5.901   2
   4 -10  -7 126.348   6.126   4
   4  10  -7 116.620   6.058   1
  -4  10   7 123.562   5.814   2
  -4  10   7 119.878   5.856   1
   3 -10  -7 361.755  12.114   4
  -3 -10   7 384.166  12.514   2
   3  10  -7 403.205  12.760   1
  -3  10   7 392.379  12.233   2
  -3  10   7 399.404  12.739   1
  -2 -10   7 43.3617  3.3009   3
   2 -10  -7 41.9756  3.4666   4
  -2 -10   7 37.3869  3.4168   2
  -2  10   7 40.7872  3.1120   2
   2  10  -7 42.6384  3.2310   1
  -2  10   7 37.3034  3.2989   1
  -1 -10   7 486.061  14.163   3
   1 -10  -7 437.632  13.674   4
  -1 -10   7 449.516  14.587   2
  -1  10   7 460.713  14.671   1
   5 -11  -7 27.7285  3.5054   4
  -5 -11   7 35.9670  3.1971   3
   5 -11  -7 42.5569  3.1374   1
  -5 -11   7 33.3024  3.1334   2
   5  11  -7 31.8557  3.7955   1
  -5  11   7 37.2236  3.2828   2
  -4 -11   7 3.62573 1.20419   3
   4 -11  -7 -0.1532  1.0580   4
  -4 -11   7 1.12532 1.20992   2
  -4  11   7 4.14685 1.20830   2
  -4  11   7 1.61824 1.05920   1
   4  11  -7 1.21222 1.21078   1
   3 -11  -7 8.82066 2.02285   4
  -3 -11   7 8.82833 2.16400   2
  -3 -11   7 8.08904 1.73699   3
  -3  11   7 9.83161 2.07753   1
   3  11  -7 7.14853 1.70434   1
  -3  11   7 9.76360 1.82279   2
   2 -11  -7 1.16865 1.45941   4
  -2 -11   7 1.91842 0.93816   3
  -2 -11   7 3.01453 1.70702   2
  -2  11   7 3.05570 1.31380   2
  -2  11   7 1.78835 1.46878   1
   2  11  -7 2.23442 1.09816   1
  -1 -11   7 2.37016 0.99198   3
   1 -11  -7 2.00146 1.64780   4
  -1  11   7 3.28414 1.46565   1
  -4 -12   7 23.5537  2.8930   3
   4 -12  -7 18.2658  2.9955   4
  -4 -12   7 20.2044  2.8922   2
   4  12  -7 17.0027  2.8682   1
  -4  12   7 22.3053  2.9210   1
  -4  12   7 15.6278  2.4146   2
  -3 -12   7 14.5827  2.3189   3
   3 -12  -7 13.2915  2.4820   4
  -3 -12   7 14.9519  2.6924   2
   3  12  -7 16.0553  2.5086   1
  -3  12   7 11.4642  2.3403   1
  -3  12   7 19.9089  2.4382   2
   2 -12  -7 47.3886  3.9648   4
  -2 -12   7 51.2765  4.2173   2
  -2 -12   7 45.2475  3.4350   3
   2  12  -7 41.8265  3.2738   1
  -2  12   7 38.7334  3.7271   1
  -3 -13   7 78.0292  5.1558   2
  -3  13   7 78.8163  4.5252   2
   5   0  -8 685.700  19.637   1
  -5   0   8 676.286  19.293   2
  -4   0   8 23.0240  2.7517   2
   4   0  -8 26.3304  2.9107   1
   3   0  -8 33.7121  3.0570   1
  -3   0   8 28.5107  2.7783   2
  -2   0   8 306.679  10.467   2
   2   0  -8 295.331  10.621   1
  -1   0   8 521.780  15.500   2
   1   0  -8 518.685  15.760   1
   5  -1  -8 -0.1662  0.8255   1
  -5  -1   8 -0.7483  1.1175   2
   5   1  -8 1.65475 1.25261   1
  -5   1   8 0.90075 1.48579   2
  -4  -1   8 6.94004 1.75727   2
   4  -1  -8 13.7319  2.1838   1
  -4   1   8 12.2742  2.1256   2
   4   1  -8 10.4949  2.1506   1
   3  -1  -8 -0.1359  0.8600   1
  -3  -1   8 0.55429 0.78205   2
  -3   1   8 0.01699 0.91516   2
   3   1  -8 -0.3633  0.8654   1
   2  -1  -8 10.1670  2.0357   1
  -2  -1   8 13.1860  2.2348   2
   2   1  -8 15.7778  2.4367   1
  -2   1   8 17.4926  2.3873   2
   1  -1  -8 143.128   6.648   1
  -1  -1   8 142.276   6.498   2
   1   1  -8 136.820   6.535   1
  -1   1   8 137.184   6.318   2
   5  -2  -8 3.99794 1.35769   1
  -5  -2   8 1.85601 1.64395   2
  -5   2   8 2.74360 1.43799   2
   5   2  -8 2.04133 1.34007   1
  -4  -2   8 11.9073  2.1755   2
   4  -2  -8 8.02863 1.80745   1
  -4   2   8 9.22447 1.94522   2
   4   2  -8 7.03204 1.77297   1
  -3  -2   8 6.21123 1.59670   2
   3  -2  -8 4.42652 1.50871   1
   3   2  -8 7.27292 1.69607   1
  -3   2   8 4.10505 1.45100   2
  -2  -2   8 19.2927  2.5380   2
   2  -2  -8 12.9377  2.3052   1
  -2   2   8 14.4752  2.2162   2
   2   2  -8 15.3860  2.3717   1
  -1  -2   8 78.5066  4.6751   2
   1  -2  -8 71.9111  4.6419   1
   1   2  -8 76.6246  4.6085   1
  -1   2   8 83.3617  4.5678   2
   5  -3  -8 1.10038 1.00099   1
  -5  -3   8 0.70957 1.39286   2
  -5   3   8 2.48985 1.34633   2
   5   3  -8 5.84244 1.66108   1
  -4  -3   8 19.3136  2.7728   2
   4  -3  -8 23.0699  2.7685   1
  -4   3   8 22.8384  2.7403   2
   4   3  -8 19.9780  2.7546   1
   3  -3  -8 59.8818  4.0965   1
  -3  -3   8 59.5578  4.1055   2
  -3   3   8 59.8387  3.9205   2
   3   3  -8 61.1882  4.1708   1
  -2  -3   8 105.034   5.537   2
   2  -3  -8 105.569   5.610   1
   2   3  -8 105.648   5.490   1
  -2   3   8 105.759   5.336   2
  -1  -3   8 24.2856  2.8716   2
   1   3  -8 30.4827  2.8124   1
  -1   3   8 26.4326  2.4879   2
   5  -4  -8 86.4944  5.0296   1
  -5  -4   8 100.668   5.641   2
  -5   4   8 94.4276  5.2626   2
   5   4  -8 96.7073  5.5324   1
  -4  -4   8 15.8311  2.6366   2
   4  -4  -8 21.9513  2.8083   1
  -4   4   8 28.5641  2.7342   2
   4   4  -8 22.7761  2.9589   1
  -3  -4   8 174.563   7.503   2
   3  -4  -8 172.930   7.498   1
  -3   4   8 179.131   7.318   2
   3   4  -8 180.083   7.678   1
  -2  -4   8 292.472  10.670   2
   2   4  -8 310.790  10.853   1
  -2   4   8 318.545  10.578   2
  -1  -4   8 44.7117  3.6130   2
  -1   4   8 36.2227  2.9315   2
  -1   4   8 34.6381  3.1519   1
   1   4  -8 42.1518  3.2656   1
   5  -5  -8 17.2847  2.4942   1
  -5  -5   8 13.5598  2.6698   2
   5   5  -8 15.4291  2.7429   1
  -5   5   8 15.0839  2.4941   2
  -4  -5   8 88.4213  5.3004   2
   4  -5  -8 96.7741  5.2539   1
   4   5  -8 89.7104  5.3292   1
  -4   5   8 103.603   5.316   2
   3  -5  -8 11.7360  2.1339   1
  -3  -5   8 14.8649  2.3911   2
   3   5  -8 15.5815  2.4622   1
  -3   5   8 19.0895  2.5037   2
  -2  -5   8 82.0121  4.9801   2
  -2   5   8 81.3389  4.9379   1
   2   5  -8 83.0030  4.9109   1
  -2   5   8 95.3568  4.8925   2
  -5  -6   8 4.10235 1.99967   2
   5  -6  -8 3.92688 1.39249   1
   5   6  -8 2.31025 1.64340   1
  -5   6   8 2.71372 1.46134   2
  -4  -6   8 9.61632 2.34369   2
   4  -6  -8 10.7894  2.1072   1
   4   6  -8 11.6904  2.3751   1
  -4   6   8 7.17257 1.78015   2
   3  -6  -8 45.5123  3.5222   1
  -3  -6   8 45.4330  3.7100   2
  -3   6   8 43.3519  3.2778   2
   3   6  -8 39.9301  3.4497   1
  -2  -6   8 2.81178 1.47874   2
  -2   6   8 9.35337 2.02081   1
  -2   6   8 10.4880  1.8542   2
   2   6  -8 6.26177 1.71060   1
   4  -7  -8 49.6488  3.7388   1
  -4  -7   8 48.3933  4.0132   2
   4   7  -8 49.9323  4.0406   1
  -4   7   8 43.1512  3.5012   2
  -3  -7   8 6.61228 2.05700   2
   3  -7  -8 14.1891  2.3369   4
  -3   7   8 10.8417  1.9906   2
   3   7  -8 8.84519 2.04477   1
  -3   7   8 13.5211  2.6454   1
  -2  -7   8 4.34259 1.64115   2
   2  -7  -8 5.73876 1.48761   4
  -2   7   8 3.33589 1.46628   1
  -2   7   8 6.02847 1.36142   2
   2   7  -8 3.33019 1.32191   1
  -4   8   8 96.5372  5.3548   2
  -3  -8   8 98.9072  5.7693   2
   3  -8  -8 92.9856  5.1138   4
  -3   8   8 92.3753  5.5695   1
  -3   8   8 98.2943  5.1665   2
   3   8  -8 90.3805  5.3815   1
   0   0   0    0.00    0.00   0
;
_shelx_hkl_checksum              12186
loop_
_space_group_symop_operation_xyz
'x, y, z'
'-x, y+1/2, -z+1/2'
'-x, -y, -z'
'x, -y-1/2, z-1/2'
loop_
_atom_site_label
_atom_site_type_symbol
_atom_site_fract_x
_atom_site_fract_y
_atom_site_fract_z
_atom_site_U_iso_or_equiv
_atom_site_adp_type
_atom_site_occupancy
_atom_site_site_symmetry_order
_atom_site_calc_flag
Mo1 Mo 0.46961(12) 0.11549(4) 0.41688(11) 0.0353(2) Uani 1 1 d
Cl1 Cl 0.2687(3) 0.11922(9) 0.6410(3) 0.0282(3) Uani 1 1 d
Cl2 Cl 0.7617(2) 0.02406(9) 0.7210(2) 0.0237(3) Uani 1 1 d
Cl3 Cl 0.6704(3) 0.07595(9) 0.2107(2) 0.0274(3) Uani 1 1 d
Cl4 Cl 0.1679(3) 0.17162(11) 0.1210(3) 0.0363(4) Uani 1 1 d
Cl5 Cl 0.6800(4) 0.21673(14) 0.5534(4) 0.0530(5) Uani 1 1 d
loop_
_atom_site_aniso_label
_atom_site_aniso_U_11
_atom_site_aniso_U_22
_atom_site_aniso_U_33
_atom_site_aniso_U_23
_atom_site_aniso_U_13
_atom_site_aniso_U_12
Mo1 0.0447(4) 0.0344(3) 0.0429(4) 0.0115(2) 0.0340(3) 0.0136(2)
Cl1 0.0298(7) 0.0321(7) 0.0299(7) -0.0015(6) 0.0197(6) 0.0028(6)
Cl2 0.0189(6) 0.0306(7) 0.0205(6) -0.0024(5) 0.0075(5) -0.0013(5)
Cl3 0.0279(7) 0.0347(8) 0.0262(7) 0.0010(6) 0.0177(6) 0.0014(6)
Cl4 0.0359(8) 0.0352(8) 0.0374(8) 0.0039(7) 0.0154(7) 0.0032(6)
Cl5 0.0552(12) 0.0512(12) 0.0547(12) -0.0055(10) 0.0259(10) -0.0036(9)
loop_
_atom_type_symbol
_atom_type_description
_atom_type_scat_dispersion_real
_atom_type_scat_dispersion_imag
_atom_type_scat_source
Cl Cl 0.1484 0.1585 'International Tables Vol C Tables 4.2.6.8 and 6.1.1.4'
Mo Mo -1.6832 0.6857 'International Tables Vol C Tables 4.2.6.8 and 6.1.1.4'
loop_
_geom_angle_atom_site_label_1
_geom_angle_atom_site_label_2
_geom_angle_atom_site_label_3
_geom_angle
_geom_angle_site_symmetry_3
Cl5 Mo1 Cl4 98.76(9) .
Cl5 Mo1 Cl3 95.71(8) .
Cl4 Mo1 Cl3 94.00(7) .
Cl5 Mo1 Cl1 96.20(8) .
Cl4 Mo1 Cl1 93.92(7) .
Cl3 Mo1 Cl1 164.52(6) .
Cl5 Mo1 Cl2 93.66(8) .
Cl4 Mo1 Cl2 167.58(7) .
Cl3 Mo1 Cl2 84.62(5) .
Cl1 Mo1 Cl2 84.79(5) .
Cl5 Mo1 Cl2 173.53(8) 3_656
Cl4 Mo1 Cl2 87.70(6) 3_656
Cl3 Mo1 Cl2 83.57(5) 3_656
Cl1 Mo1 Cl2 83.48(5) 3_656
Cl2 Mo1 Cl2 79.87(5) 3_656
Mo1 Cl2 Mo1 100.13(5) 3_656
loop_
_geom_bond_atom_site_label_1
_geom_bond_atom_site_label_2
_geom_bond_distance
_geom_bond_site_symmetry_2
Mo1 Cl5 2.069(2) .
Mo1 Cl4 2.2048(18) .
Mo1 Cl3 2.2550(14) .
Mo1 Cl1 2.2580(15) .
Mo1 Cl2 2.5138(15) .
Mo1 Cl2 2.6634(16) 3_656
