#------------------------------------------------------------------------------
#$Date: 2019-10-29 23:13:16 +0200 (Tue, 29 Oct 2019) $
#$Revision: 220394 $
#$URL: file:///home/coder/svn-repositories/cod/cif/4/00/29/4002970.cif $
#------------------------------------------------------------------------------
#
# This file is available in the Crystallography Open Database (COD),
# http://www.crystallography.net/
#
# All data on this site have been placed in the public domain by the
# contributors.
#
data_4002970
loop_
_publ_author_name
'Takenaka, Hiroyuki'
'Ogaki, Takuya'
'Wang, Chengyuan'
'Kawabata, Kohsuke'
'Takimiya, Kazuo'
_publ_section_title
;
 Selenium-Substituted \b-Methylthiobenzo[1,2-b:4,5-b&#x2032;]dithiophenes:
 Synthesis, Packing Structure, and Transport Properties
;
_journal_issue                   17
_journal_name_full               'Chemistry of Materials'
_journal_page_first              6696
_journal_paper_doi               10.1021/acs.chemmater.9b01187
_journal_volume                  31
_journal_year                    2019
_chemical_formula_moiety         'C12 H10 S2 Se2'
_chemical_formula_sum            'C12 H10 S2 Se2'
_chemical_formula_weight         376.25
_space_group_crystal_system      triclinic
_space_group_IT_number           2
_space_group_name_Hall           '-P 1'
_space_group_name_H-M_alt        'P -1'
_symmetry_space_group_name_Hall  '-P 1'
_symmetry_space_group_name_H-M   'P -1'
_atom_sites_solution_hydrogens   geom
_atom_sites_solution_primary     direct
_atom_sites_solution_secondary   difmap
_cell_angle_alpha                81.0598(15)
_cell_angle_beta                 80.9249(15)
_cell_angle_gamma                71.7042(13)
_cell_formula_units_Z            1
_cell_length_a                   5.32021(10)
_cell_length_b                   7.28902(17)
_cell_length_c                   8.31911(19)
_cell_measurement_reflns_used    2440
_cell_measurement_temperature    100
_cell_measurement_theta_max      68.08
_cell_measurement_theta_min      5.42
_cell_volume                     300.530(12)
_computing_cell_refinement       'RAPID AUTO'
_computing_data_collection       'RAPID AUTO (Rigaku, ????)'
_computing_data_reduction        'RAPID AUTO'
_computing_molecular_graphics    'CrystalStructure 4.2.5'
_computing_publication_material  'CrystalStructure 4.2.5 (Rigaku, 2017)'
_computing_structure_refinement  'SHELXL97 (Sheldrick, 2008)'
_computing_structure_solution    'SIR2011 (Burla, et al., 2012)'
_diffrn_ambient_temperature      100
_diffrn_detector_area_resol_mean 10.000
_diffrn_measured_fraction_theta_full 0.987
_diffrn_measured_fraction_theta_max 0.987
_diffrn_measurement_device_type  'Rigaku R-AXIS RAPID'
_diffrn_measurement_method       \w
_diffrn_radiation_type           'Cu K\a'
_diffrn_radiation_wavelength     1.54187
_diffrn_reflns_av_R_equivalents  0.1528
_diffrn_reflns_Laue_measured_fraction_full 0.987
_diffrn_reflns_Laue_measured_fraction_max 0.987
_diffrn_reflns_limit_h_max       6
_diffrn_reflns_limit_h_min       -6
_diffrn_reflns_limit_k_max       8
_diffrn_reflns_limit_k_min       -8
_diffrn_reflns_limit_l_max       10
_diffrn_reflns_limit_l_min       -10
_diffrn_reflns_number            5361
_diffrn_reflns_point_group_measured_fraction_full 0.987
_diffrn_reflns_point_group_measured_fraction_max 0.987
_diffrn_reflns_theta_full        67.687
_diffrn_reflns_theta_max         68.208
_diffrn_reflns_theta_min         5.420
_diffrn_standards_number         0
_exptl_absorpt_coefficient_mu    10.647
_exptl_absorpt_correction_T_max  0.727
_exptl_absorpt_correction_T_min  0.068
_exptl_absorpt_correction_type   numerical
_exptl_absorpt_process_details   'NUMABS (Rigaku, 1999)'
_exptl_crystal_colour            colorless
_exptl_crystal_density_diffrn    2.079
_exptl_crystal_density_method    'not measured'
_exptl_crystal_description       platelet
_exptl_crystal_F_000             182.00
_exptl_crystal_size_max          0.430
_exptl_crystal_size_mid          0.410
_exptl_crystal_size_min          0.030
_refine_diff_density_max         1.70
_refine_diff_density_min         -1.15
_refine_ls_extinction_coef       0.018(2)
_refine_ls_extinction_method     SHELXL
_refine_ls_goodness_of_fit_ref   1.076
_refine_ls_hydrogen_treatment    constr
_refine_ls_number_parameters     74
_refine_ls_number_reflns         1085
_refine_ls_number_restraints     0
_refine_ls_R_factor_all          0.0607
_refine_ls_R_factor_gt           0.0566
_refine_ls_shift/su_max          0.000
_refine_ls_structure_factor_coef Fsqd
_refine_ls_weighting_details
'w = 1/[\s^2^(Fo^2^)+(0.0619P)^2^] where P=(Fo^2^+2Fc^2^)/3'
_refine_ls_weighting_scheme      calc
_refine_ls_wR_factor_gt          0.1393
_refine_ls_wR_factor_ref         0.1442
_reflns_Friedel_coverage         0.000
_reflns_number_gt                1012
_reflns_number_total             1085
_reflns_threshold_expression     F^2^>2.0\s(F^2^)
_cod_data_source_file            cm9b01187_si_002.cif
_cod_data_source_block           BDT-SeMe_plate
_cod_database_code               4002970
_shelx_res_file
;

    shelxl.res created by SHELXL-2014/7

TITL BDT-SeMe_plate
CELL  1.54187 5.32021 7.28902 8.31911 81.05980 80.92490 71.70420
ZERR  1 0.00010 0.00017 0.00019 0.00150 0.00150 0.00130
LATT 1
SFAC C H S SE
UNIT 12 10 2 2
L.S. 20
FMAP 2
PLAN 20
WPDB -2
HTAB
BOND $H
CONF
LIST 4
TEMP -173.0
ACTA
SIZE 0.430 0.410 0.030
WGHT    0.061900
EXTI    0.018421
FVAR       1.65535
SE1   4    0.183763    0.170660    0.721423    11.00000    0.01123    0.01721 =
         0.02158   -0.00454    0.00555   -0.00376
S1    3   -0.211772    0.790379    0.804830    11.00000    0.01121    0.01647 =
         0.02067   -0.00315    0.00393   -0.00447
C1    1   -0.377131    0.299230    0.974893    11.00000    0.00954    0.02382 =
         0.01941   -0.00674    0.00068   -0.00231
AFIX  43
H1    2   -0.297324    0.166351    0.958249    11.00000   -1.20000
AFIX   0
C2    1   -0.390546    0.641549    0.918111    11.00000    0.01086    0.02124 =
         0.01474    0.00104   -0.00104   -0.00765
C3    1   -0.266178    0.443778    0.892905    11.00000    0.00852    0.01218 =
         0.01437   -0.00041   -0.00195    0.00202
C4    1   -0.025877    0.421122    0.777881    11.00000    0.01290    0.01059 =
         0.01991   -0.00316   -0.00204   -0.00094
C5    1    0.023347    0.592378    0.723014    11.00000    0.00714    0.02060 =
         0.01815   -0.00439    0.00409   -0.00101
AFIX  43
H5    2    0.172456    0.603399    0.646894    11.00000   -1.20000
AFIX   0
C6    1    0.461415    0.251940    0.573434    11.00000    0.01049    0.02550 =
         0.02247   -0.00893    0.00419   -0.00086
AFIX  33
H6A   2    0.593270    0.137802    0.530232    11.00000   -1.20000
H6B   2    0.381745    0.343041    0.482565    11.00000   -1.20000
H6C   2    0.548853    0.315851    0.633084    11.00000   -1.20000
AFIX   0
HKLF 4

REM  BDT-SeMe_plate
REM R1 =  0.0566 for    1012 Fo > 4sig(Fo)  and  0.0607 for all    1085 data
REM     74 parameters refined using      0 restraints

END

WGHT      0.0619      0.0000

REM Instructions for potential hydrogen bonds
EQIV $1 -x+1, -y, -z+1
HTAB C6 Se1_$1

REM Highest difference peak  1.704,  deepest hole -1.151,  1-sigma level  0.246
Q1    1   0.1642  0.1482  0.8383  11.00000  0.05    1.70
Q2    1   0.2212  0.1868  0.6079  11.00000  0.05    1.37
Q3    1   0.0364  0.2776  0.7798  11.00000  0.05    0.97
Q4    1   0.3966  0.0827  0.7757  11.00000  0.05    0.82
Q5    1   0.3881  0.0816  0.7107  11.00000  0.05    0.79
Q6    1  -0.0749  0.3223  0.8945  11.00000  0.05    0.78
Q7    1  -0.1593  0.7844  0.6826  11.00000  0.05    0.74
Q8    1  -0.0449 -0.0028  1.0631  11.00000  0.05    0.74
Q9    1  -0.1721 -0.0364  1.0417  11.00000  0.05    0.73
Q10   1  -0.3274  0.5451  0.8831  11.00000  0.05    0.72
Q11   1   0.4988  0.3352  0.2929  11.00000  0.05    0.71
Q12   1  -0.2943  0.3823  0.9568  11.00000  0.05    0.71
Q13   1   0.0000  0.5000  1.0000  10.50000  0.05    0.70
Q14   1   0.3388  0.0673  0.6591  11.00000  0.05    0.69
Q15   1  -0.0360  0.1587  0.8844  11.00000  0.05    0.69
Q16   1  -0.0332  0.6911  0.7787  11.00000  0.05    0.68
Q17   1   0.2837  0.2209  0.4195  11.00000  0.05    0.65
Q18   1  -0.0125  0.1143  0.6715  11.00000  0.05    0.64
Q19   1   0.1180  0.1442  0.4993  11.00000  0.05    0.63
Q20   1  -0.3409  0.8793  0.6137  11.00000  0.05    0.63
;
_shelx_res_checksum              85796
_shelx_hkl_file
;
   0   0   1  494.20  111.71
   0   0   1  659.89  147.31
   0   0   1  599.51  136.87
   0   0   1  887.22  186.54
   0   0   1  471.92  101.41
   0   0   1  809.08  171.86
   0   0   1 1018.17  207.01
   0   0  -1  908.12  187.17
   0   0  -1  952.12  205.31
   0   0  -1  506.36  105.86
   0   0  -1 1002.85  216.05
   0   0  -1  476.18  102.39
   0   0  -1  532.94  112.20
   0   0   218816.91 4504.78
   0   0   213881.41 3327.65
   0   0   212374.78 2969.62
   0   0   211846.84 2875.99
   0   0   213348.64 3196.76
   0   0   213461.50 3256.16
   0   0   220947.85 5002.35
   0   0   2 9633.41 2318.07
   0   0  -217789.47 4271.74
   0   0  -210106.40 2422.32
   0   0  -212036.00 2907.77
   0   0  -210104.66 2427.62
   0   0  -212354.00 2989.17
   0   0  -215457.26 3704.12
   0   0   3  369.27   82.55
   0   0   3  292.63   66.04
   0   0   3  392.50   88.02
   0   0   3  274.33   61.22
   0   0   3  365.08   77.80
   0   0   3  294.31   61.26
   0   0   3  305.95   70.87
   0   0   3  267.75   60.11
   0   0   3  294.93   65.66
   0   0  -3  312.67   69.07
   0   0  -3  361.59   84.85
   0   0  -3  269.65   56.83
   0   0  -3  383.55   81.12
   0   0  -3  310.44   70.35
   0   0  -3  314.74   71.12
   0   0   4 3914.91  891.18
   0   0   4 3966.01  907.01
   0   0   4 4402.19  979.85
   0   0   4 4929.87 1116.24
   0   0   4 4259.02  969.11
   0   0   4 4971.60 1115.08
   0   0   4 3580.14  810.67
   0   0   4 4023.01  913.13
   0   0  -4 4139.41  938.64
   0   0  -4 4848.42 1086.97
   0   0  -4 4435.01 1004.52
   0   0  -4 4027.60  910.80
   0   0  -4 3944.43  882.33
   0   0  -4 4703.23 1057.75
   0   0   5  608.94  135.33
   0   0   5  655.00  143.91
   0   0   5  762.13  166.04
   0   0   5  783.10  171.10
   0   0   5  601.58  137.83
   0   0   5  634.73  133.06
   0   0   5  758.92  164.82
   0   0  -5  618.55  132.91
   0   0  -5  600.31  131.76
   0   0  -5  622.57  138.63
   0   0  -5  719.42  151.32
   0   0  -5  657.69  148.15
   0   0  -5  762.43  162.95
   0   0   6  931.06  208.79
   0   0   6 1068.19  241.36
   0   0   6 1063.88  239.79
   0   0  -6 1208.92  270.64
   0   0  -6 1072.75  237.18
   0   0  -6  869.02  188.88
   0   0   7  932.73  212.61
   0   0   7  980.99  223.65
   0   0   7  835.65  192.96
   0   0  -7 1051.31  232.34
   0   0  -7  987.65  220.15
   0   0   8  107.25   31.89
   0   0   8   92.97   35.70
   0   0   8  112.90   36.98
   0   0  -8   94.32   32.57
   0   0  -8  100.66   29.43
   0   0   9  593.22  135.89
   0   0   9  585.05  131.53
   0   0   9  711.58  161.37
   0   0  -9  714.75  157.44
   0   0  -9  617.44  134.34
   0   1  -9 1264.97  277.23
   0  -1   9  915.20  210.74
   0  -1   9 1103.37  249.83
   0   1  -8 2075.74  465.47
   0  -1   8 2153.29  496.33
   0  -1   8 1730.81  399.46
   0  -1   8 1884.67  438.03
   0   1  -7 1889.83  424.88
   0  -1   7 1597.85  367.57
   0  -1   7 1898.13  449.27
   0  -1   7 1709.33  396.56
   0   1  -6 2585.85  586.57
   0   1  -6 2962.10  666.64
   0  -1   6 2523.26  565.51
   0  -1   6 3064.49  700.63
   0  -1   6 2457.97  570.45
   0  -1   6 2662.53  612.64
   0   1  -5 2692.16  605.24
   0   1  -5 2928.78  644.63
   0   1  -5 2635.15  583.39
   0   1  -5 1904.17  420.91
   0   1  -5 2412.21  537.19
   0  -1   5 2123.37  477.18
   0  -1   5 2241.77  511.26
   0  -1   5 2165.02  484.80
   0  -1   5 2479.23  563.58
   0  -1   5 2302.75  511.71
   0  -1   5 2795.14  616.01
   0  -1   5 2129.13  472.96
   0   1  -4  952.93  197.29
   0   1  -4 1106.38  244.97
   0   1  -4 1128.71  243.31
   0   1  -4 1075.85  238.68
   0   1  -4  898.09  189.47
   0   1  -4 1078.69  230.09
   0  -1   4  662.97  157.10
   0  -1   4  840.35  184.89
   0  -1   4  912.05  196.32
   0  -1   4  891.88  203.82
   0  -1   4  956.57  208.25
   0  -1   4 1086.48  232.18
   0  -1   4 1012.73  217.49
   0   1  -3 1485.69  323.68
   0   1  -3 2405.34  502.42
   0   1  -3 1280.87  283.02
   0   1  -3 1363.14  299.10
   0   1  -3 2058.05  424.72
   0   1  -3 1742.75  362.38
   0  -1   3  975.32  213.34
   0  -1   3  717.78  177.96
   0  -1   3 2281.37  474.63
   0  -1   3  807.02  181.79
   0  -1   3  917.32  213.82
   0  -1   3 1662.01  356.23
   0  -1   3 2420.80  507.06
   0   1  -2  913.99  194.13
   0   1  -2 1056.26  228.67
   0   1  -2  915.17  204.31
   0   1  -2 1001.80  228.55
   0   1  -2  601.09  132.60
   0   1  -2  633.77  130.45
   0  -1   2  541.91  119.76
   0  -1   2  847.25  192.46
   0  -1   2  610.02  133.00
   0  -1   2  783.21  167.64
   0  -1   2  808.33  177.23
   0  -1   2  674.02  149.46
   0   1  -1 5033.31 1112.18
   0   1  -1 7009.67 1598.90
   0   1  -1 5733.11 1275.93
   0   1  -1 4246.49  941.71
   0   1  -1 7105.05 1571.04
   0   1  -1 5609.10 1254.67
   0   1  -1 5148.85 1146.36
   0  -1   1 3508.12  774.88
   0  -1   1 7289.82 1658.14
   0  -1   1 3032.31  690.24
   0  -1   1 4878.91 1094.20
   0  -1   1 5961.95 1339.87
   0  -1   1 6625.13 1471.87
   0  -1   1 4405.85  979.82
   0  -1   1 4789.53 1064.69
   0   1   0   28.27   13.81
   0   1   0   28.24    9.07
   0   1   0   47.56   15.04
   0   1   0   49.39   11.36
   0   1   0  111.16   26.32
   0   1   0   25.27    6.01
   0   1   0   26.67   11.82
   0   1   0   26.48    7.22
   0  -1   0   38.04    9.13
   0  -1   0   33.19   13.37
   0  -1   0   31.34    8.59
   0  -1   0   24.76    9.68
   0  -1   0   29.84   31.00
   0  -1   0    7.19   13.93
   0  -1   0   24.68    9.58
   0  -1   0   28.75    9.34
   0   1   1  524.14  104.55
   0   1   1  627.98  126.59
   0   1   1  317.32   84.67
   0   1   1  505.21  106.88
   0   1   1  659.21  145.87
   0  -1  -1  477.61   96.63
   0  -1  -1  604.96  129.54
   0  -1  -1  673.37  137.63
   0  -1  -1  661.64  151.37
   0  -1  -1  416.53   85.41
   0  -1  -1  616.54  131.31
   0  -1  -1  479.53   98.97
   0   1   214526.26 3337.31
   0   1   2 9576.42 2187.32
   0   1   211480.88 2632.05
   0   1   2 8749.24 2016.10
   0   1   2 4462.11 1047.06
   0   1   215968.46 3685.54
   0   1   2 9443.86 2158.80
   0  -1  -2 8966.29 2051.21
   0  -1  -2 6352.30 1478.02
   0  -1  -2 8218.44 1886.63
   0  -1  -2 5874.79 1386.17
   0  -1  -2 8408.77 1934.45
   0  -1  -2 4599.39 1042.13
   0  -1  -2 6374.71 1486.55
   0   1   3  273.24   62.48
   0   1   3  176.90   52.83
   0   1   3  475.15  104.41
   0   1   3  236.24   60.57
   0   1   3  361.23   86.15
   0   1   3  393.27   85.96
   0   1   3  391.36   87.12
   0   1   3  259.75   68.15
   0  -1  -3  268.90   61.68
   0  -1  -3  558.79  120.05
   0  -1  -3  301.48   61.22
   0  -1  -3  233.21   59.60
   0  -1  -3  354.82   77.03
   0   1   4 8265.04 1922.81
   0   1   4 6938.27 1630.62
   0   1   4 7749.58 1814.20
   0   1   4 6651.26 1546.47
   0   1   4 7062.50 1639.75
   0   1   4 7590.85 1777.06
   0   1   4 6417.54 1493.25
   0   1   4 7105.81 1660.94
   0  -1  -4 4723.70 1109.63
   0  -1  -4 7544.44 1738.78
   0  -1  -4 7288.76 1671.87
   0  -1  -4 6628.31 1536.49
   0  -1  -4 6923.87 1610.96
   0  -1  -4 6402.41 1484.61
   0   1   5 1835.50  416.11
   0   1   5 1289.17  281.00
   0   1   5 1644.28  367.13
   0   1   5 1159.65  254.50
   0   1   5 1494.97  331.05
   0   1   5 1448.37  318.20
   0   1   5 1303.84  290.71
   0  -1  -5 1323.34  286.29
   0  -1  -5 1204.55  266.05
   0  -1  -5 1352.09  294.17
   0  -1  -5 1172.15  256.36
   0   1   6 3151.02  713.24
   0   1   6 2538.28  577.54
   0   1   6 2554.35  578.10
   0  -1  -6 2454.19  552.46
   0  -1  -6 2492.24  563.72
   0  -1  -6 3557.76  806.73
   0   1   7    5.76   10.52
   0   1   7   28.70   21.52
   0   1   7    6.11    9.97
   0  -1  -7    7.56    5.54
   0  -1  -7    5.65    9.99
   0  -1  -7    7.46   16.74
   0   1   8 1291.98  298.27
   0   1   8 1572.56  356.18
   0   1   8 1469.89  333.93
   0  -1  -8 1463.23  328.33
   0  -1  -8 1711.95  383.33
   0   1   9   11.40   11.13
   0   1   9   15.95   11.78
   0   1   9   21.35   16.10
   0  -1  -9   10.66    8.79
   0  -1  -9   16.40   10.44
   0   2  -9  271.78   62.72
   0  -2   9  252.80   62.12
   0   2  -8  379.02   87.19
   0  -2   8  381.73   93.95
   0   2  -7   11.39   12.12
   0  -2   7    5.31   14.99
   0  -2   7    7.13    7.00
   0   2  -6 2739.83  619.82
   0  -2   6 2532.22  598.48
   0  -2   6 2986.15  698.59
   0  -2   6 2758.84  622.64
   0   2  -5 1939.21  423.44
   0  -2   5 1362.96  295.81
   0  -2   5 1242.32  283.94
   0  -2   5 2024.10  440.55
   0  -2   5 1127.37  269.17
   0  -2   5 1684.96  390.09
   0   2  -4 8826.44 1976.33
   0   2  -4 6006.00 1369.15
   0   2  -4 5843.73 1340.33
   0  -2   4 7784.50 1735.44
   0  -2   4 2573.41  651.06
   0  -2   4 8003.91 1790.77
   0  -2   4 2807.90  672.30
   0  -2   410784.76 2417.72
   0   2  -3 1800.15  392.89
   0   2  -3 1560.76  336.81
   0   2  -3 1040.36  219.67
   0   2  -3  678.51  144.29
   0   2  -3 1725.60  375.23
   0  -2   3 1316.15  287.04
   0  -2   3 1036.36  229.19
   0  -2   3 1228.24  273.56
   0  -2   3 1451.70  306.40
   0  -2   3 1464.89  313.32
   0  -2   3 1568.13  369.90
   0   2  -2 4050.49  916.75
   0   2  -2 6202.82 1416.07
   0   2  -2 8220.78 1876.73
   0   2  -2 8929.25 2050.84
   0   2  -2 6068.14 1364.04
   0  -2   2 5891.92 1364.64
   0  -2   2 5398.02 1225.36
   0  -2   2 6292.31 1435.71
   0  -2   2 7570.17 1748.86
   0  -2   2 7403.86 1670.97
   0  -2   2 4253.57  976.12
   0  -2   2 7865.03 1799.68
   0  -2   2 5610.39 1280.82
   0   2  -1 2209.75  485.61
   0   2  -1 3387.31  726.63
   0   2  -1 2775.87  604.40
   0   2  -1 2984.94  634.62
   0   2  -1 3039.67  661.78
   0   2  -1 1947.76  437.29
   0  -2   1 2181.03  472.74
   0  -2   1 2240.03  479.69
   0  -2   1 2460.62  546.37
   0  -2   1 2860.22  623.75
   0  -2   1 2264.39  498.58
   0  -2   1 2495.88  556.65
   0  -2   1 4002.65  884.46
   0   2   0 9472.91 2163.33
   0   2   0 6658.35 1510.53
   0   2   0 6800.81 1543.16
   0   2   0 7044.41 1590.40
   0   2   0 5811.72 1301.50
   0   2   0 7870.41 1777.88
   0   2   0 9644.86 2168.22
   0   2   0 5894.47 1322.62
   0  -2   0 5489.14 1269.27
   0  -2   0 8025.72 1809.42
   0  -2   0 3050.22  737.19
   0  -2   0 5628.02 1287.18
   0  -2   0 4844.82 1084.47
   0  -2   0 7021.42 1574.51
   0  -2   0 7773.78 1751.29
   0  -2   0 7119.93 1616.97
   0   2   1 4631.69 1028.50
   0   2   1 4481.43  977.68
   0   2   1 3441.91  796.88
   0   2   1 3526.10  802.12
   0   2   1 3509.21  775.26
   0  -2  -1 3877.48  901.52
   0  -2  -1 4412.44  982.41
   0  -2  -1 4122.01  927.99
   0  -2  -1 5660.72 1241.82
   0  -2  -1 3330.95  738.18
   0  -2  -1 6079.41 1348.57
   0  -2  -1 4424.13  981.32
   0  -2  -1 3124.45  697.42
   0   2   2   48.72   19.41
   0   2   2   33.36   12.53
   0   2   2   43.56   15.63
   0   2   2  199.80   45.55
   0   2   2   35.91   30.39
   0  -2  -2   31.80   50.48
   0  -2  -2   35.91   14.56
   0  -2  -2   34.35   11.93
   0  -2  -2   32.74   15.13
   0  -2  -2   19.80   11.95
   0  -2  -2   36.21   16.65
   0  -2  -2   36.89   23.52
   0   2   3 3085.56  697.64
   0   2   3 2767.30  617.24
   0   2   3 3615.46  795.52
   0   2   3 2990.82  655.01
   0   2   3 4308.46  974.15
   0  -2  -3 3302.45  742.42
   0  -2  -3 2818.74  620.80
   0  -2  -3 1551.66  349.59
   0  -2  -3 2644.49  586.43
   0   2   4  890.46  191.32
   0   2   4  737.52  161.84
   0   2   4  546.22  141.01
   0   2   4  986.16  211.35
   0   2   4 1136.13  246.68
   0   2   4  623.20  143.40
   0   2   4  703.38  164.51
   0  -2  -4 1474.53  316.35
   0  -2  -4  768.98  165.34
   0  -2  -4  537.32  119.73
   0  -2  -4  675.77  146.03
   0   2   5 1062.94  237.89
   0   2   5 1133.09  255.00
   0   2   5 1059.86  237.50
   0   2   5  903.44  197.36
   0   2   5  979.61  215.86
   0   2   5 1149.51  259.11
   0   2   5 1096.14  253.48
   0   2   5  834.19  182.48
   0  -2  -5  927.91  199.35
   0  -2  -5  678.14  153.04
   0  -2  -5  743.26  166.22
   0  -2  -5  551.37  128.86
   0  -2  -5  920.61  197.30
   0   2   6 3195.94  734.94
   0   2   6 3564.83  822.73
   0   2   6 3027.07  690.76
   0  -2  -6 3034.73  695.56
   0  -2  -6 3443.93  787.55
   0  -2  -6 2726.52  629.57
   0   2   7 1200.74  272.54
   0   2   7 1446.45  326.65
   0   2   7 1304.82  295.86
   0  -2  -7 1370.78  304.41
   0  -2  -7 1497.64  337.21
   0  -2  -7 1348.31  304.81
   0   2   8 3192.95  737.27
   0   2   8 2890.49  659.40
   0   2   8 2520.82  577.98
   0  -2  -8 2779.63  642.46
   0  -2  -8 2586.10  598.45
   0  -2  -8 2262.46  522.37
   0   2   9  396.20   92.72
   0   2   9  323.67   76.92
   0   2   9  357.31   82.35
   0  -2  -9  381.48   86.35
   0  -2  -9  415.51   95.25
   0   3  -8  472.70  104.25
   0  -3   8  411.99   88.65
   0  -3   8  503.02  118.37
   0   3  -7 1443.48  321.87
   0  -3   7 1294.48  316.19
   0  -3   7 1246.73  279.97
   0   3  -6   23.55   12.89
   0  -3   6   42.09   33.01
   0  -3   6   22.11   12.11
   0   3  -5 1712.92  372.25
   0  -3   5 1612.92  352.77
   0  -3   5  812.65  207.22
   0  -3   4  143.29   40.09
   0  -3   4  174.85   59.12
   0  -3   4  339.21   82.52
   0  -3   4  320.73   74.90
   0   3  -3   24.98   25.17
   0   3  -3   26.34   17.06
   0   3  -3   21.90   22.06
   0  -3   3   26.51   29.17
   0  -3   3   18.01   10.59
   0  -3   3   15.45   10.39
   0  -3   3   15.49   11.13
   0   3  -2 3956.28  888.52
   0   3  -2 3628.24  826.33
   0   3  -2 5324.73 1181.57
   0   3  -2 2992.08  673.50
   0   3  -2 3060.55  674.66
   0  -3   2 3598.62  811.57
   0  -3   2 4899.67 1095.09
   0  -3   2 3377.14  756.04
   0  -3   2 3741.30  855.07
   0  -3   2 2815.62  624.35
   0  -3   2 3065.19  701.66
   0   3  -1    4.21    4.84
   0   3  -1    5.53    9.41
   0   3  -1    2.78    4.00
   0   3  -1    3.62    7.41
   0   3  -1    1.39    8.18
   0   3  -1    2.27    8.08
   0  -3   1    1.98    5.47
   0  -3   1    1.31    8.50
   0  -3   1    1.27    6.87
   0  -3   1    3.57    1.67
   0  -3   1    6.46    8.43
   0  -3   1   17.09    8.66
   0  -3   1    3.37   14.12
   0   3   0 8573.42 1989.62
   0   3   011924.75 2724.91
   0   3   0 6889.22 1581.91
   0   3   0 7011.85 1612.68
   0   3   0 5347.39 1217.79
   0   3   0 7158.96 1654.28
   0   3   0 6578.48 1527.12
   0  -3   0 9333.82 2170.81
   0  -3   0 5782.53 1340.73
   0  -3   0 5597.81 1273.92
   0  -3   0 6526.03 1503.56
   0  -3   0 5554.43 1289.19
   0  -3   0 6378.77 1462.54
   0   3   1  915.49  189.91
   0   3   1 1092.78  249.45
   0   3   1  949.06  194.07
   0   3   1  874.82  191.07
   0   3   1 1225.53  257.03
   0   3   1  762.73  159.59
   0   3   1  782.68  163.52
   0  -3  -1  946.41  199.64
   0  -3  -1 1398.83  289.22
   0  -3  -1  833.46  174.84
   0  -3  -1  756.62  162.52
   0  -3  -1 1077.81  234.98
   0  -3  -1  602.09  177.77
   0  -3  -1  957.70  212.63
   0  -3  -1 1041.62  216.69
   0   3   216655.87 3954.80
   0   3   210629.43 2573.37
   0   3   2 6909.32 1751.02
   0   3   220447.60 4863.84
   0  -3  -216438.38 3917.99
   0  -3  -2 9827.46 2417.70
   0  -3  -213983.94 3329.73
   0  -3  -210202.26 2456.87
   0  -3  -213590.45 3236.13
   0  -3  -215848.91 3796.19
   0  -3  -216885.40 4038.73
   0   3   3  633.33  148.31
   0   3   3  692.83  145.06
   0   3   3  735.23  174.80
   0   3   3  512.73  109.86
   0   3   3  679.08  150.42
   0   3   3  942.01  222.56
   0  -3  -3  493.19  117.53
   0  -3  -3  651.15  155.23
   0  -3  -3  569.31  123.39
   0  -3  -3  520.18  114.40
   0   3   4 7690.08 1792.57
   0   3   4 6059.58 1404.78
   0   3   4 6203.43 1488.42
   0   3   4 6501.39 1496.57
   0   3   4 4497.42 1051.45
   0   3   4 5691.05 1319.09
   0  -3  -4 3933.89  925.19
   0  -3  -4 4849.58 1135.14
   0  -3  -4 4416.73 1021.86
   0  -3  -4 5546.97 1286.59
   0  -3  -4 9587.54 2221.87
   0   3   5  237.96   59.38
   0   3   5  221.15   63.27
   0   3   5  216.31   50.45
   0  -3  -5  274.85   68.97
   0  -3  -5  231.75   56.71
   0  -3  -5  234.81   54.37
   0  -3  -5  192.39   48.56
   0   3   6 1583.15  358.31
   0   3   6 1519.96  338.74
   0   3   6 1726.15  392.96
   0  -3  -6 1239.06  275.86
   0  -3  -6 1385.44  311.93
   0  -3  -6 1279.48  287.92
   0  -3  -6  972.04  229.90
   0   3   7  818.32  185.74
   0   3   7  701.16  157.45
   0   3   7  903.16  204.41
   0  -3  -7  769.80  175.35
   0  -3  -7  731.49  164.97
   0  -3  -7  736.86  170.65
   0   3   8  247.57   60.44
   0   3   8  253.76   61.56
   0   3   8  278.82   65.66
   0  -3  -8  358.20   94.06
   0  -3  -8  298.29   75.22
   0   3   9  426.81   97.75
   0   3   9  417.63   95.09
   0  -3  -9  433.04   98.54
   0  -3  -9  369.91   81.32
   0   4  -8   85.07   24.67
   0   4  -8   90.91   22.11
   0  -4   8   90.84   33.08
   0   4  -7 1681.70  371.72
   0  -4   7 1576.98  366.54
   0  -4   7 1561.01  348.72
   0   4  -6  914.89  200.64
   0  -4   6  912.63  221.42
   0  -4   6  907.95  207.80
   0   4  -5 3730.89  802.21
   0  -4   5 1104.67  284.15
   0  -4   5 3499.87  759.89
   0  -4   4  634.31  165.78
   0  -4   4  894.93  200.16
   0  -4   3 2195.44  501.85
   0  -4   3 3274.14  737.14
   0  -4   3 2247.37  519.30
   0  -4   3 3146.88  729.59
   0  -4   2    2.59    6.56
   0  -4   2    4.30    9.11
   0  -4   2    2.85   14.86
   0  -4   2    3.73    9.68
   0   4  -1 2110.45  461.44
   0   4  -1 3753.21  815.58
   0   4  -1 2744.12  605.64
   0   4  -1 2351.58  515.16
   0   4  -1 1869.72  412.47
   0   4  -1 2230.95  494.15
   0  -4   1 2419.18  545.59
   0  -4   1 1894.23  412.10
   0  -4   1 1726.30  387.85
   0  -4   1 1801.24  403.00
   0  -4   1 1602.39  348.59
   0  -4   1 1309.57  311.19
   0   4   0  560.63  128.07
   0   4   0  463.63   99.26
   0   4   0  434.15   94.03
   0   4   0  501.15  105.43
   0   4   0  632.19  133.92
   0   4   0  431.15   95.44
   0  -4   0  382.31   81.92
   0  -4   0  240.89   68.14
   0  -4   0  442.62   92.85
   0  -4   0  392.35   91.32
   0  -4   0  414.43   92.34
   0  -4   0  622.73  138.94
   0   4   1 1832.41  404.08
   0   4   1 2025.78  433.28
   0   4   1 2329.94  523.83
   0   4   1 1957.47  427.11
   0   4   1 2721.42  584.17
   0  -4  -1 1642.76  358.20
   0  -4  -1 1885.33  410.50
   0  -4  -1 1614.66  347.18
   0  -4  -1 1508.27  330.27
   0  -4  -1  970.19  238.54
   0   4   2 1959.29  428.16
   0   4   2 2754.28  604.70
   0   4   2 2192.79  493.57
   0   4   2 1381.62  340.92
   0   4   2 2599.84  561.07
   0  -4  -2 2017.50  440.00
   0  -4  -2 2203.74  511.67
   0  -4  -2 2523.72  561.13
   0  -4  -2 2162.61  478.80
   0  -4  -2 1838.68  404.27
   0   4   3   60.84   24.06
   0   4   3   55.00   15.26
   0   4   3   45.59   12.83
   0  -4  -3   60.97   18.56
   0  -4  -3   48.61   27.87
   0  -4  -3   69.84   32.38
   0  -4  -3   49.44   18.59
   0   4   4 5095.76 1187.55
   0   4   4 4493.25 1052.54
   0  -4  -4 4932.10 1154.72
   0  -4  -4 8329.84 1952.92
   0   4   5   42.34   26.48
   0   4   5   46.48   17.63
   0   4   5   44.31   14.14
   0  -4  -5   57.64   21.39
   0  -4  -5   34.06   18.02
   0  -4  -5   36.70   15.30
   0   4   6 5690.32 1331.75
   0   4   6 5154.42 1195.23
   0   4   6 5101.65 1204.60
   0  -4  -6 3617.13  854.03
   0  -4  -6 3736.14  884.22
   0  -4  -6 4661.04 1077.93
   0   4   7  247.26   59.44
   0   4   7  216.00   50.38
   0   4   7  326.22   79.81
   0  -4  -7  320.29   83.42
   0  -4  -7  289.57   78.07
   0   4   8 1106.10  248.08
   0   4   8  928.77  212.44
   0  -4  -8 1276.74  282.90
   0  -4  -8 1246.32  278.85
   0   4   9  114.90   29.20
   0   4   9  121.83   31.79
   0  -4  -9  118.07   30.47
   0  -4  -9  118.41   30.31
   0  -5   7   65.44   18.92
   0  -5   7   54.18   18.58
   0   5  -6  874.76  189.29
   0  -5   6  718.72  170.20
   0  -5   6  849.33  190.34
   0   5  -5   57.29   18.19
   0  -5   5   42.61   24.93
   0  -5   5   16.41   32.33
   0   5  -4 2090.50  461.94
   0  -5   4 1191.23  302.84
   0  -5   4 1796.76  403.40
   0  -5   3 2818.84  664.85
   0  -5   3 2694.70  621.81
   0  -5   3 3035.89  702.46
   0  -5   2 2948.79  696.59
   0  -5   2 4392.13 1021.58
   0  -5   2 4507.86 1046.31
   0  -5   2 5280.69 1220.00
   0  -5   1 1418.25  328.60
   0  -5   1 1479.40  332.68
   0  -5   1 1454.66  332.50
   0  -5   0 3145.26  719.88
   0  -5   0 5052.43 1187.00
   0  -5   0 3497.85  796.07
   0  -5   0 3152.44  716.60
   0  -5  -1  695.16  180.34
   0  -5  -1 1777.48  381.37
   0  -5  -1 1765.41  379.91
   0  -5  -1 1833.97  396.66
   0  -5  -2 2250.49  511.29
   0  -5  -2 1995.32  446.40
   0  -5  -2 2445.87  557.07
   0  -5  -2 2727.04  642.12
   0   5   3 2151.95  480.71
   0  -5  -3 3932.22  909.80
   0  -5  -3 2369.21  536.74
   0  -5  -3 2543.27  588.67
   0   5   4   68.51   21.25
   0  -5  -4   40.68   33.48
   0  -5  -4   23.86   19.78
   0  -5  -4   38.04   18.24
   0   5   5  621.99  151.73
   0  -5  -5  288.02   76.47
   0  -5  -5  820.83  179.52
   0   5   6  185.08   51.41
   0   5   6  126.51   31.48
   0  -5  -6  136.76   40.03
   0  -5  -6  145.10   37.47
   0  -5  -6  117.20   32.26
   0   5   7   53.14   22.63
   0   5   7   71.86   26.12
   0  -5  -7   67.60   19.83
   0  -5  -7   64.68   23.10
   0  -5  -7   59.46   19.22
   0   5   8 1565.99  349.31
   0  -5  -8 1721.75  381.49
   0  -5  -8 1609.22  359.50
   0   6  -6    0.08    5.89
   0  -6   5  920.02  201.71
   0  -6   5  612.18  151.27
   0  -6   4   52.23   31.55
   0  -6   4  128.49   35.28
   0  -6   3  665.33  160.19
   0  -6   3  749.14  181.40
   0  -6   2   99.91   28.20
   0  -6   2   46.71   26.18
   0  -6   1  252.15   60.52
   0  -6   0 1302.20  294.63
   0  -6   0 1269.13  284.85
   0  -6   0 1235.34  288.41
   0  -6  -1  248.62   72.62
   0  -6  -1  606.81  135.49
   0  -6  -2 1971.32  475.45
   0  -6  -2 3250.10  728.72
   0  -6  -2 3296.86  746.22
   0  -6  -3  649.19  158.24
   0  -6  -3  628.08  150.70
   0  -6  -3  677.27  153.96
   0  -6  -4 1619.84  392.34
   0  -6  -4 2373.42  539.01
   0   6   5 1119.41  263.16
   0  -6  -5 1148.16  260.56
   0   6   6 1171.44  262.06
   0  -6  -6  887.72  202.67
   0  -6  -6  850.61  204.21
   0   6   7  301.69   70.12
   0  -6  -7  278.58   72.33
   0  -6  -7  313.26   69.36
   0  -7   3  770.54  170.77
   0  -7  -1  695.78  163.13
   0  -7  -1  865.02  192.34
   0  -7  -2  226.77   49.38
   0  -7  -2   49.43   18.96
   0   7   3   67.59   21.18
   0  -7  -3  110.40   29.55
   0  -7  -3   83.23   26.39
   0   7   4 1872.34  426.45
   0  -7  -4 1580.46  367.11
   0  -7  -4 2091.24  469.55
   0   7   5    0.81    8.76
   0  -7  -5    0.50    7.53
   0  -7  -5    0.53   17.65
   0   7   6 2238.56  497.57
   0  -7  -6 1709.21  384.61
   0  -7  -6 2067.71  460.48
   0  -8  -2  655.94  150.14
   0  -8  -3  452.25  103.06
   1  -7  -4 1966.38  440.77
  -1   7   4 1896.86  435.27
   1  -7  -3  554.37  127.60
   1  -7  -2 3915.01  837.08
   1  -7  -2 1176.43  276.38
   1  -7  -1  176.58   46.45
   1  -7  -1  332.94   74.81
   1  -7   0 1868.75  411.19
   1  -7   0 1309.56  296.48
   1  -7   1   -0.06   10.97
   1  -7   1    7.88    8.01
   1  -7   2  591.58  132.32
   1  -7   3   16.93    9.13
   1  -6  -6  493.75  112.18
   1  -6  -6  496.74  117.88
  -1   6   6  642.03  144.25
   1  -6  -5   93.48   36.93
   1  -6  -5  248.86   58.99
  -1   6   5  230.60   62.76
   1  -6  -4    4.57   15.17
   1  -6  -4   10.49   22.22
  -1   6   4   -0.00   14.01
  -1   6   4    6.79   12.77
   1  -6  -3 1644.78  373.12
   1  -6  -3 2437.54  578.80
   1  -6  -3 1301.63  309.94
  -1   6   3 1795.26  400.25
   1  -6  -2  174.38   50.36
   1  -6  -2  237.21   72.32
  -1   6   2  200.69   48.36
   1  -6  -1 1699.58  385.71
   1  -6  -1 1873.45  427.66
   1  -6   0 1852.16  421.54
   1  -6   0 2045.16  466.30
   1  -6   0 1965.64  476.69
   1  -6   1 1858.00  427.28
   1  -6   1 2313.72  529.78
   1  -6   2 1198.53  271.62
   1  -6   2  685.15  162.66
   1  -6   3  381.20   93.67
   1  -6   3 1613.15  343.45
   1  -6   4  144.46   45.62
  -1   6  -4  348.17   78.32
   1  -6   5  112.81   32.29
  -1   6  -5  139.48   35.15
   1  -5  -7    3.34    5.15
   1  -5  -7    2.21    5.08
   1  -5  -7    3.30    9.79
  -1   5   7   24.05   12.42
   1  -5  -6 4036.24  945.14
   1  -5  -6 3934.17  913.26
  -1   5   6 4433.69 1031.23
  -1   5   6 4642.34 1087.62
  -1   5   6 3770.56  897.08
   1  -5  -5   11.43   13.52
   1  -5  -5   23.53   25.72
  -1   5   5   11.38   11.84
  -1   5   5   14.11   20.11
  -1   5   5   17.12    8.41
   1  -5  -4 2812.84  653.12
   1  -5  -4 4110.71  967.22
  -1   5   4 2900.67  665.72
   1  -5  -3   23.05   12.90
   1  -5  -3   20.42   25.92
   1  -5  -3   19.89   13.45
  -1   5   3   17.50    9.81
   1  -5  -2 1932.76  437.43
   1  -5  -2 1688.83  408.15
   1  -5  -2 1783.83  407.42
   1  -5  -2 1843.16  414.30
   1  -5  -1  672.83  147.65
   1  -5  -1  711.21  157.23
   1  -5  -1  385.03  106.07
   1  -5   0  110.91   40.19
   1  -5   0   71.73   23.72
   1  -5   0   23.37   20.02
   1  -5   1 1090.74  250.53
   1  -5   1  970.76  223.44
   1  -5   2  469.10  116.41
   1  -5   2  518.25  134.94
   1  -5   2  440.84  107.30
   1  -5   3 1067.28  247.39
   1  -5   3  460.64  113.54
   1  -5   3  673.63  158.80
   1  -5   4 1470.39  362.42
   1  -5   4 1645.54  376.57
   1  -5   5 3306.35  716.07
   1  -5   5 1124.50  281.21
   1  -5   6  571.77  136.19
  -1   5  -6  527.60  121.06
   1  -4  -8   63.68   19.90
   1  -4  -8   53.57   19.52
  -1   4   8   43.41   15.43
  -1   4   8  164.73   36.88
  -1   4   8   59.70   21.35
   1  -4  -7  996.50  229.32
   1  -4  -7  968.66  219.25
  -1   4   7 1167.79  268.97
  -1   4   7 1046.13  233.65
  -1   4   7 1111.87  248.32
   1  -4  -6  192.92   47.31
   1  -4  -6  171.94   46.18
   1  -4  -6  172.56   43.07
  -1   4   6  153.43   38.05
  -1   4   6  219.92   60.28
  -1   4   6  206.11   52.84
   1  -4  -5   35.07   22.34
   1  -4  -5   18.65    9.82
   1  -4  -5   20.99   14.80
  -1   4   5   28.06   12.53
  -1   4   5   21.13   21.71
  -1   4   5   17.20   14.54
   1  -4  -4 2001.68  474.67
   1  -4  -4 4325.78  974.87
   1  -4  -4 5051.69 1160.56
  -1   4   4 4478.38 1004.55
   1  -4  -3 1130.46  257.53
   1  -4  -3  953.24  215.43
   1  -4  -3  852.70  222.56
   1  -4  -3 1538.73  344.07
  -1   4   3 1118.04  243.57
   1  -4  -2 6371.90 1500.54
   1  -4  -2 5941.05 1394.37
   1  -4  -2 6371.69 1549.35
   1  -4  -2 6927.62 1612.43
   1  -4  -2 5796.32 1357.72
   1  -4  -1 1117.59  258.19
   1  -4  -1  968.06  219.57
   1  -4  -1  979.54  210.67
   1  -4  -1  927.47  231.67
   1  -4  -1 1039.09  226.14
   1  -4   0 5363.55 1262.71
   1  -4   0 6326.73 1486.22
   1  -4   0 6970.73 1625.93
   1  -4   1    2.28   15.73
   1  -4   1   -0.07   11.97
   1  -4   1    0.99   10.03
   1  -4   1    2.32    8.06
   1  -4   2 3734.51  888.85
   1  -4   2 3713.26  868.36
   1  -4   2 3662.01  857.77
   1  -4   3  108.61   35.45
   1  -4   3   78.86   37.67
   1  -4   3  115.09   41.83
   1  -4   4 1637.43  403.41
   1  -4   4 1641.41  366.83
   1  -4   4  869.42  215.37
   1  -4   5   71.24   28.58
   1  -4   5   52.11   61.20
   1  -4   5  176.99   46.18
   1  -4   6   31.44   14.38
   1  -4   6   32.42   37.06
   1  -4   6   41.11   18.16
  -1   4  -6   33.35   11.02
   1  -4   7 1424.36  328.84
  -1   4  -7 1398.78  311.91
   1  -3  -9  191.05   45.04
   1  -3  -9  179.68   40.38
  -1   3   9  189.40   45.12
   1  -3  -8 1656.46  371.82
   1  -3  -8 1645.37  372.17
  -1   3   8 1915.05  434.70
  -1   3   8 1603.18  359.85
  -1   3   8 1476.18  331.23
   1  -3  -7  497.76  114.81
   1  -3  -7  464.76  107.69
  -1   3   7  485.69  113.44
  -1   3   7  468.88  107.82
  -1   3   7  839.33  196.92
   1  -3  -6  790.59  179.31
   1  -3  -6  631.24  143.10
   1  -3  -6  706.92  162.70
  -1   3   6  764.39  178.38
  -1   3   6  776.89  186.06
  -1   3   6  639.46  145.00
   1  -3  -5 1709.10  384.46
   1  -3  -5 2172.36  497.89
   1  -3  -5 3207.98  721.18
  -1   3   5 1824.32  428.25
  -1   3   5 1593.30  374.08
  -1   3   5 2629.62  591.87
   1  -3  -4  259.73   65.73
   1  -3  -4  409.27   90.91
   1  -3  -4  213.06   58.73
   1  -3  -4  304.10   85.80
   1  -3  -4  336.91   73.72
  -1   3   4  429.81   94.91
   1  -3  -3  715.87  173.01
   1  -3  -3  739.44  161.00
   1  -3  -3  450.47  100.23
   1  -3  -3  701.33  159.83
  -1   3   3  790.49  183.20
  -1   3   3  704.50  173.03
  -1   3   3  546.04  119.28
  -1   3   3  699.05  178.88
   1  -3  -2  440.37  103.38
   1  -3  -2  498.16  122.44
   1  -3  -2  389.17   83.84
   1  -3  -2  321.26   72.12
   1  -3  -2  386.49   84.33
   1  -3  -2  324.94   73.20
  -1   3   2  243.32   75.62
  -1   3   2  397.35   94.13
  -1   3   2  413.44   92.01
  -1   3   2  479.42  110.80
   1  -3  -1 2072.37  447.22
   1  -3  -1 1670.63  357.31
   1  -3  -1 1672.94  369.66
   1  -3  -1 1839.19  406.36
   1  -3  -1 2596.80  600.45
   1  -3  -1 1518.55  330.65
   1  -3  -1 1871.53  399.46
  -1   3   1 1656.90  365.53
  -1   3   1 2377.68  537.14
  -1   3   1 2441.32  550.55
  -1   3   1 1589.01  338.52
  -1   3   1 1227.78  261.43
  -1   3   1 1853.47  413.10
   1  -3   0 5139.10 1200.64
   1  -3   0 4932.91 1187.81
   1  -3   0 5794.39 1329.97
   1  -3   0 5372.73 1257.23
   1  -3   0 6044.36 1378.55
   1  -3   0 7520.53 1725.21
  -1   3   0 5390.46 1242.58
  -1   3   0 5482.57 1275.46
  -1   3   0 7766.14 1805.39
  -1   3   0 6159.04 1431.56
   1  -3   1 3270.68  738.13
   1  -3   1 1531.69  379.81
   1  -3   1 3494.36  771.98
   1  -3   1 2876.32  637.82
   1  -3   1 3388.24  764.15
   1  -3   1 4862.61 1088.17
  -1   3  -1 3375.81  760.09
  -1   3  -1 3987.79  888.13
  -1   3  -1 4020.18  883.49
  -1   3  -1 3409.18  743.80
  -1   3  -1 3392.63  756.49
   1  -3   2 4966.46 1149.24
   1  -3   2 3389.24  789.27
   1  -3   2 4334.66 1004.91
   1  -3   2 6388.95 1481.42
   1  -3   2 3955.20  896.03
  -1   3  -2 6303.27 1405.34
  -1   3  -2 5984.10 1362.33
  -1   3  -2 2154.79  484.31
  -1   3  -2 4939.32 1112.02
  -1   3  -2 5676.35 1284.72
  -1   3  -2 4839.55 1101.30
  -1   3  -2 4731.39 1062.31
   1  -3   3 1479.52  341.21
   1  -3   3  916.41  209.26
   1  -3   3 1239.79  285.47
  -1   3  -3 1226.33  264.54
   1  -3   4 2678.83  615.06
   1  -3   4 2220.31  533.27
   1  -3   4 3642.51  863.66
  -1   3  -4 2853.48  636.81
   1  -3   5 1259.66  265.81
   1  -3   5  310.11   89.05
   1  -3   5  412.99  120.63
  -1   3  -5  995.39  206.91
   1  -3   6 1121.90  275.24
   1  -3   6 1039.47  250.35
   1  -3   6 1254.52  283.36
  -1   3  -6 1290.52  285.67
   1  -3   7   44.72   22.27
   1  -3   7   44.94   17.28
   1  -3   7   47.11   25.40
  -1   3  -7   42.69   14.85
   1  -3   8  317.41   87.29
  -1   3  -8  328.60   73.39
  -1   3  -8  281.46   64.01
   1  -2  -9    2.92    8.14
   1  -2  -9    2.29    4.06
  -1   2   9    0.28    5.55
  -1   2   9    6.60   16.04
  -1   2   9    2.04    6.16
   1  -2  -8 1903.70  433.08
   1  -2  -8 1927.64  435.82
  -1   2   8 1990.37  459.00
  -1   2   8 2079.32  477.88
  -1   2   8 1854.53  420.46
   1  -2  -7   44.59   20.74
  -1   2   7  169.03   51.67
   1  -2  -6 5447.22 1278.62
   1  -2  -6 5637.57 1326.13
  -1   2   6 6399.18 1503.81
  -1   2   6 7550.65 1786.93
  -1   2   6 6657.78 1576.23
   1  -2  -5  374.64   84.13
   1  -2  -5  351.22   80.36
   1  -2  -5  489.29  110.52
  -1   2   5  283.07   74.27
  -1   2   5  277.56   73.26
  -1   2   5  402.33   95.88
   1  -2  -4 8617.25 2052.28
   1  -2  -4 9163.77 2179.37
   1  -2  -4 7123.15 1718.84
   1  -2  -4 8625.34 2100.69
   1  -2  -411832.38 2796.77
  -1   2   4 9224.74 2200.79
  -1   2   4 8102.96 1979.32
  -1   2   4 9023.24 2158.50
  -1   2   4 9322.65 2257.59
  -1   2   411885.02 2855.99
   1  -2  -3  356.94   75.34
   1  -2  -3  336.56   76.84
   1  -2  -3  413.87   87.72
   1  -2  -3  261.36   62.74
   1  -2  -3  476.85  109.16
   1  -2  -3  566.78  131.14
   1  -2  -3  600.57  134.87
  -1   2   3  410.14   98.30
  -1   2   3  442.91  113.84
  -1   2   3  480.78  108.17
  -1   2   3  361.99   79.14
   1  -2  -2 8010.21 1861.21
   1  -2  -2 6912.99 1632.33
   1  -2  -2 9177.63 2126.64
   1  -2  -2 8526.96 1982.30
   1  -2  -212753.57 2992.49
   1  -2  -2 8463.25 1933.23
   1  -2  -210637.44 2474.50
   1  -2  -2 5480.73 1263.62
  -1   2   211382.67 2671.48
  -1   2   2 8729.70 2031.00
  -1   2   2 9573.93 2242.29
  -1   2   2 8935.05 2091.87
  -1   2   2 4645.81 1139.35
   1  -2  -1 1059.63  229.65
   1  -2  -1 1453.84  306.88
   1  -2  -1 1065.49  230.90
   1  -2  -1 1191.72  254.59
   1  -2  -1 1563.82  343.10
   1  -2  -1 1209.78  255.56
   1  -2  -1  762.12  166.29
  -1   2   1 1115.07  240.81
  -1   2   1 1006.11  208.57
  -1   2   1 1436.74  322.20
  -1   2   1 1295.42  289.44
  -1   2   1 1152.50  252.62
  -1   2   1 1139.91  249.50
   1  -2   0 8098.08 1885.30
   1  -2   0 8500.06 2004.11
   1  -2   0 7541.72 1767.34
   1  -2   0 7045.94 1620.99
   1  -2   0 9954.12 2308.06
   1  -2   010075.05 2319.17
   1  -2   0 6571.82 1543.37
  -1   2   0 7252.84 1689.78
  -1   2   010259.83 2405.37
  -1   2   0 6327.35 1493.45
  -1   2   0 8162.92 1910.54
   1  -2   1 1640.28  369.13
   1  -2   1 1093.42  258.69
   1  -2   1 1529.99  334.83
   1  -2   1 1604.62  361.19
   1  -2   1 1419.18  294.09
   1  -2   1 2295.36  505.60
  -1   2  -1 1844.71  399.75
  -1   2  -1 1896.49  421.55
  -1   2  -1 1595.27  333.79
  -1   2  -1 1872.52  414.88
  -1   2  -1 1625.25  348.10
   1  -2   2   27.00   18.50
   1  -2   2   29.35   16.42
   1  -2   2   15.07   16.30
   1  -2   2   33.99   19.28
   1  -2   2   31.04   17.66
  -1   2  -2   36.99   11.64
  -1   2  -2   52.93   16.20
  -1   2  -2   56.40   15.61
  -1   2  -2   41.12   16.81
  -1   2  -2   33.18   15.89
   1  -2   3 3051.40  692.52
   1  -2   3 2832.24  666.87
   1  -2   3 2397.26  548.89
   1  -2   3 2774.81  612.35
   1  -2   3 3794.89  885.47
   1  -2   3 3016.11  681.80
  -1   2  -3 3799.65  857.80
  -1   2  -3 3440.63  772.20
  -1   2  -3 3283.01  740.30
  -1   2  -3 3434.53  763.73
  -1   2  -3 2888.25  645.57
   1  -2   4  858.55  187.71
   1  -2   4  489.14  111.43
   1  -2   4  766.65  179.10
   1  -2   4  612.59  164.87
   1  -2   4  881.77  229.03
  -1   2  -4 1096.67  242.57
  -1   2  -4  882.26  192.24
  -1   2  -4  766.09  164.82
  -1   2  -4 1122.46  256.83
   1  -2   5  387.55  120.33
   1  -2   5  495.08  131.31
   1  -2   5 1388.63  298.64
  -1   2  -5 1058.89  223.18
   1  -2   6 2505.76  566.19
   1  -2   6 1785.25  425.15
   1  -2   6 2155.13  521.10
   1  -2   6 2191.49  524.99
  -1   2  -6 3012.73  671.17
   1  -2   7 2310.78  524.20
   1  -2   7 2375.42  555.72
   1  -2   7 2664.91  635.80
  -1   2  -7 2294.39  521.85
   1  -2   8 1596.77  369.54
   1  -2   8 1381.22  317.42
  -1   2  -8 1326.71  293.07
  -1   2  -8 1746.60  396.76
   1  -2   9  560.73  127.81
  -1   2  -9  557.58  121.81
   1  -1  -9  757.02  201.53
   1  -1  -9 1261.38  278.55
  -1   1   9  981.15  222.25
  -1   1   9 1128.07  247.92
   1  -1  -8  660.12  147.88
   1  -1  -8  589.26  131.99
   1  -1  -8  523.17  117.52
  -1   1   8  515.17  118.27
  -1   1   8  646.18  147.58
  -1   1   8  555.76  126.20
   1  -1  -7  827.54  186.38
   1  -1  -7 1183.75  269.29
   1  -1  -7  775.00  171.55
  -1   1   7  657.65  151.94
  -1   1   7  746.96  168.88
  -1   1   7 1005.25  236.43
   1  -1  -6   55.10   18.32
   1  -1  -6   41.74   12.98
   1  -1  -6   52.68   17.28
  -1   1   6   45.42   16.62
  -1   1   6   54.30   17.40
  -1   1   6   52.25   20.28
   1  -1  -5 1689.78  375.36
   1  -1  -5 1825.46  402.65
   1  -1  -5 1298.13  287.93
   1  -1  -5 1739.34  388.15
  -1   1   5 1773.01  397.46
  -1   1   5 1624.38  380.01
  -1   1   5 1600.43  358.17
  -1   1   5 1711.11  386.76
   1  -1  -4 1093.28  233.04
   1  -1  -4 1708.88  366.23
   1  -1  -4 1530.71  328.38
   1  -1  -4 1016.90  218.52
   1  -1  -4 1030.04  235.53
   1  -1  -4  816.33  187.21
  -1   1   4 1112.40  255.44
  -1   1   4 1156.82  252.66
  -1   1   4  752.40  187.49
  -1   1   4  927.96  211.34
  -1   1   4 1459.55  315.97
  -1   1   4  823.64  191.35
   1  -1  -3  100.42   33.47
   1  -1  -3   44.77   17.67
   1  -1  -3  119.78   32.74
   1  -1  -3   87.63   25.43
   1  -1  -3   79.66   21.69
   1  -1  -3   80.69   20.78
   1  -1  -3   86.29   26.61
  -1   1   3   86.71   42.86
  -1   1   3   89.97   28.08
  -1   1   3   79.76   28.45
  -1   1   3   82.59   23.50
  -1   1   3   83.79   30.45
  -1   1   3   73.46   32.04
   1  -1  -2 6243.41 1408.72
   1  -1  -2 8535.46 1935.25
   1  -1  -2 6401.18 1455.95
   1  -1  -2 5101.88 1151.91
   1  -1  -2 6091.56 1371.46
   1  -1  -2 5439.23 1235.18
   1  -1  -2 6208.44 1400.28
  -1   1   2 7066.78 1611.27
  -1   1   2 5744.26 1309.24
  -1   1   2 6890.47 1580.06
  -1   1   2 6729.85 1495.94
  -1   1   2 6925.74 1576.88
  -1   1   2 2562.37  617.16
  -1   1   2 6230.71 1420.39
   1  -1  -1  702.32  145.31
   1  -1  -1  670.65  142.16
   1  -1  -1  726.23  160.65
   1  -1  -1  484.18  107.85
   1  -1  -1  715.09  151.45
   1  -1  -1  801.62  169.29
   1  -1  -1  961.61  206.67
  -1   1   1  712.32  153.32
  -1   1   1  700.89  157.75
  -1   1   1  694.85  140.45
  -1   1   1  841.77  187.85
  -1   1   1  703.17  157.97
   1  -1   0 8265.97 1945.34
   1  -1   011769.81 2770.99
   1  -1   0 9517.44 2219.04
   1  -1   0 8447.15 1971.06
   1  -1   0 9470.93 2220.40
   1  -1   0 8665.05 2018.75
   1  -1   0 9165.43 2152.63
  -1   1   0 8378.19 1962.66
  -1   1   0 9276.50 2179.62
  -1   1   0 9143.51 2150.53
  -1   1   010832.40 2548.72
  -1   1   012984.91 3065.03
   1  -1   1  638.78  138.32
   1  -1   1  391.96   92.32
   1  -1   1  392.42   79.43
   1  -1   1  438.43   97.60
   1  -1   1  490.67  121.62
   1  -1   1  414.03   93.36
  -1   1  -1  520.07  107.13
  -1   1  -1  399.74   85.88
  -1   1  -1  404.61   89.19
  -1   1  -1  484.62  105.06
  -1   1  -1  580.66  122.62
  -1   1  -1  464.08  100.90
   1  -1   2 7667.00 1752.83
   1  -1   2 6141.45 1417.92
   1  -1   2 7908.39 1812.61
   1  -1   2 3475.49  817.37
   1  -1   2 7356.26 1695.88
   1  -1   212339.38 2765.04
  -1   1  -2 3773.21  869.12
  -1   1  -2 8332.97 1896.08
  -1   1  -2 8667.55 1970.13
  -1   1  -2 6095.49 1387.87
  -1   1  -2 8274.04 1874.90
  -1   1  -2 6367.16 1453.80
   1  -1   3  591.76  140.17
   1  -1   3  561.41  125.95
   1  -1   3  629.30  145.40
   1  -1   3  341.90   78.60
   1  -1   3  428.97   88.72
   1  -1   3  309.96   70.73
   1  -1   3  370.93   77.65
  -1   1  -3  388.81   84.59
  -1   1  -3  585.23  123.21
  -1   1  -3  616.94  144.25
  -1   1  -3  401.97   94.77
  -1   1  -3  601.50  129.56
   1  -1   4 1783.32  380.27
   1  -1   4 1681.34  391.35
   1  -1   4  936.86  258.52
   1  -1   4 1788.32  396.31
   1  -1   4 1988.85  466.78
   1  -1   4 1778.48  393.38
  -1   1  -4 2516.45  562.89
  -1   1  -4 1548.85  346.02
  -1   1  -4 2484.67  551.47
  -1   1  -4 1696.25  369.33
  -1   1  -4 2452.87  534.39
   1  -1   5  333.09   73.19
   1  -1   5  183.37   50.75
   1  -1   5  267.71   73.89
   1  -1   5  339.75   80.93
   1  -1   5  306.57   66.86
   1  -1   5  231.29   64.92
  -1   1  -5  323.34   70.89
  -1   1  -5  345.96   83.81
  -1   1  -5  210.52   49.15
   1  -1   6  583.92  141.41
   1  -1   6  602.85  146.18
   1  -1   6  581.43  128.78
   1  -1   6  504.24  120.12
  -1   1  -6  608.56  137.03
   1  -1   7  434.91  109.38
   1  -1   7  437.58  108.27
   1  -1   7  404.96   90.51
   1  -1   7  459.37  113.04
  -1   1  -7  421.56   97.79
   1  -1   8   41.76   16.26
   1  -1   8   45.15   26.54
   1  -1   8   74.64   34.05
  -1   1  -8   69.84   34.09
   1  -1   9  837.49  188.77
   1  -1   9  753.99  173.49
   1  -1   9  922.71  209.30
  -1   1  -9  946.71  209.14
   1   0  -9  662.58  145.01
   1   0  -9  754.41  162.71
  -1   0   9  641.71  142.43
  -1   0   9  781.26  175.90
   1   0  -8 1894.96  423.11
   1   0  -8 1763.81  391.72
  -1   0   8 1339.23  304.08
  -1   0   8 1597.93  363.50
   1   0  -7 1029.47  230.64
   1   0  -7 1213.17  267.82
   1   0  -7 1182.49  262.18
  -1   0   7 1367.96  309.93
  -1   0   7 1251.88  279.52
   1   0  -6 3648.46  819.17
   1   0  -6 3352.60  751.81
   1   0  -6 3277.53  732.75
  -1   0   6 2419.60  548.84
  -1   0   6 2282.42  526.99
  -1   0   6 2728.90  620.67
   1   0  -5 3294.84  736.48
   1   0  -5 2188.82  486.17
   1   0  -5 2646.44  597.41
   1   0  -5 2357.78  520.90
  -1   0   5 2575.06  575.14
  -1   0   5 2107.63  478.27
  -1   0   5 2545.80  574.04
  -1   0   5 2760.69  630.60
   1   0  -4  479.24  106.82
   1   0  -4  540.24  118.93
   1   0  -4  549.92  122.88
   1   0  -4  514.27  108.90
   1   0  -4  509.68  108.47
  -1   0   4  510.70  113.78
  -1   0   4  453.36   95.91
  -1   0   4  701.34  159.38
  -1   0   4  298.77   80.19
  -1   0   4  548.29  128.29
  -1   0   4  309.38   78.52
  -1   0   4  455.88  108.58
   1   0  -3 3721.91  831.11
   1   0  -3 3315.02  745.12
   1   0  -3 5517.92 1218.27
   1   0  -3 5688.53 1260.99
   1   0  -3 2597.08  585.18
  -1   0   3 2537.16  593.57
  -1   0   3 4460.76  999.89
  -1   0   3 3721.74  845.71
  -1   0   3 3344.76  762.45
  -1   0   3 2758.19  621.21
  -1   0   3 3460.81  784.36
   1   0  -2  136.12   36.01
   1   0  -2   87.96   32.26
   1   0  -2  116.01   27.76
   1   0  -2  109.90   26.84
   1   0  -2  129.67   35.74
   1   0  -2  106.77   25.61
   1   0  -2  131.06   36.24
  -1   0   2  104.20   37.21
  -1   0   2  124.00   31.71
  -1   0   2  113.94   28.44
  -1   0   2  107.58   25.84
  -1   0   2  115.23   33.16
  -1   0   2   46.56   25.97
   1   0  -1 1427.97  304.85
   1   0  -1 1485.97  315.81
   1   0  -1 1580.76  329.53
   1   0  -1 1614.47  347.39
   1   0  -1 1606.67  347.14
   1   0  -1 1600.23  338.82
   1   0  -1 1759.66  386.02
   1   0  -1 1487.04  324.45
  -1   0   1 1444.63  303.26
  -1   0   1 1423.48  301.82
  -1   0   1 1454.42  313.02
  -1   0   1 1409.57  307.87
  -1   0   1 1560.44  333.66
   1   0   0 1290.84  286.04
   1   0   0 1146.35  240.28
   1   0   0 1167.73  236.03
   1   0   0 1219.37  255.50
   1   0   0 1087.57  227.23
   1   0   0 1269.12  264.59
   1   0   0 1068.52  225.83
   1   0   0 1208.85  256.08
  -1   0   0 1037.74  216.87
  -1   0   0 1199.57  250.08
  -1   0   0 1401.00  308.89
  -1   0   0 1072.99  232.38
  -1   0   0 1118.72  226.79
  -1   0   0 1161.35  243.72
  -1   0   0 1193.75  254.49
   1   0   1  433.46   94.51
   1   0   1  533.10  125.02
   1   0   1  456.23   94.58
   1   0   1  540.65  121.67
   1   0   1  534.83  108.72
   1   0   1  424.31   82.84
  -1   0  -1  428.58   92.04
  -1   0  -1  560.03  128.07
  -1   0  -1  435.39   97.67
  -1   0  -1  512.75  111.17
  -1   0  -1  480.92  106.03
  -1   0  -1  451.17   95.58
   1   0   226120.28 6455.17
   1   0   216404.65 4045.18
   1   0   226249.13 6504.86
   1   0   213412.10 3366.59
   1   0   217274.97 4243.39
   1   0   222611.64 5599.01
   1   0   222021.96 5450.82
   1   0   225557.02 6316.42
  -1   0  -222349.76 5526.10
  -1   0  -221158.30 5236.54
  -1   0  -221843.13 5403.40
  -1   0  -224492.86 6071.11
  -1   0  -216984.96 4199.34
  -1   0  -216023.58 3963.16
   1   0   3 5409.34 1257.04
   1   0   3 4727.98 1061.04
   1   0   3 2559.66  588.86
   1   0   3 4845.24 1083.11
   1   0   3 2964.41  712.97
   1   0   3 3436.74  759.93
   1   0   3 4522.79 1037.01
  -1   0  -3 4989.40 1120.82
  -1   0  -3 5033.03 1151.15
  -1   0  -3 3837.21  860.80
  -1   0  -3 5163.30 1142.40
  -1   0  -3 4917.55 1114.52
  -1   0  -3 4676.74 1075.14
   1   0   4 6742.35 1549.98
   1   0   4 6637.54 1518.09
   1   0   4 4137.53 1000.08
   1   0   4 6591.93 1513.88
   1   0   4 6139.78 1447.94
   1   0   4 7503.11 1721.28
   1   0   4 5397.26 1255.72
   1   0   4 3963.51  943.27
  -1   0  -4 7154.40 1649.08
  -1   0  -4 6591.15 1519.46
  -1   0  -4 8292.74 1902.26
   1   0   5  339.24   76.10
   1   0   5  273.00   59.15
   1   0   5  284.01   78.56
   1   0   5  295.13   66.83
   1   0   5  320.15   78.74
   1   0   5  283.36   62.48
   1   0   5  240.63   59.84
  -1   0  -5  283.71   65.88
  -1   0  -5  305.37   68.93
  -1   0  -5  216.66   54.92
  -1   0  -5  294.64   66.33
  -1   0  -5  294.10   65.59
   1   0   6 4451.11 1035.45
   1   0   6 4088.20  956.88
   1   0   6 3632.09  828.22
   1   0   6 3845.48  899.30
  -1   0  -6 3915.06  903.52
  -1   0  -6 4609.68 1065.51
   1   0   7  138.36   39.35
   1   0   7  128.23   44.85
   1   0   7  145.91   41.99
  -1   0  -7  124.33   35.11
  -1   0  -7  141.47   36.02
   1   0   8 2420.44  562.48
   1   0   8 2053.79  473.68
   1   0   8 2281.90  527.72
  -1   0  -8 2496.75  570.58
  -1   0  -8 2082.21  470.35
   1   0   9    4.81    8.87
   1   0   9   10.62   10.02
   1   0   9    4.47   13.86
  -1   0  -9    3.60   10.19
   1   1  -9  307.22   67.78
  -1  -1   9  292.31   69.61
   1   1  -8   49.28   15.49
   1   1  -8   39.71   11.99
  -1  -1   8   24.49   10.17
  -1  -1   8   34.98   28.70
   1   1  -7  144.27   36.84
   1   1  -7  146.70   40.60
  -1  -1   7  102.68   26.41
  -1  -1   7  117.36   34.93
   1   1  -6 2997.24  674.72
   1   1  -6 3034.32  680.35
   1   1  -6 2674.54  603.44
  -1  -1   6 2898.24  660.75
  -1  -1   6 3161.34  727.25
   1   1  -5  520.63  116.09
   1   1  -5  412.06   90.19
   1   1  -5  396.14   84.84
   1   1  -5  442.58   97.32
  -1  -1   5  323.67   73.32
  -1  -1   5  324.48   80.01
  -1  -1   5  293.35   66.76
  -1  -1   5  424.09   99.51
  -1  -1   5  343.05   77.77
  -1  -1   5  415.85   88.83
   1   1  -4 9548.25 2275.77
   1   1  -410054.38 2386.60
   1   1  -4 7431.26 1800.74
   1   1  -413237.68 3145.18
  -1  -1   410009.56 2374.70
  -1  -1   411238.40 2674.21
  -1  -1   4 8616.33 2068.41
  -1  -1   413614.99 3254.58
  -1  -1   4 9766.05 2337.49
  -1  -1   4 7269.50 1768.31
  -1  -1   4 8957.44 2137.03
   1   1  -3 2385.94  537.57
   1   1  -3 1980.04  443.72
   1   1  -3 2147.36  474.90
   1   1  -3 2454.51  535.99
   1   1  -3 2634.09  576.30
  -1  -1   3 2088.29  459.05
  -1  -1   3 1190.08  274.65
  -1  -1   3 2276.07  496.29
  -1  -1   3 2873.44  625.54
  -1  -1   3 1735.78  382.19
  -1  -1   3 2708.66  591.39
   1   1  -2 8678.34 2029.20
   1   1  -2 8821.46 2095.00
   1   1  -210177.32 2410.52
   1   1  -210751.73 2529.32
   1   1  -212012.77 2807.21
   1   1  -210110.27 2346.30
   1   1  -2 9344.05 2194.84
  -1  -1   2 9187.32 2165.89
  -1  -1   2 9604.65 2246.53
  -1  -1   2 6022.98 1418.98
  -1  -1   211606.24 2712.46
  -1  -1   211976.22 2836.48
   1   1  -1 1443.91  303.06
   1   1  -1 1420.34  305.03
   1   1  -1 1397.81  297.11
   1   1  -1 1168.57  247.64
   1   1  -1 1535.06  327.33
   1   1  -1 1310.04  280.03
  -1  -1   1 1292.39  272.45
  -1  -1   1 1576.08  332.63
  -1  -1   1 1485.36  304.71
  -1  -1   1 1317.91  268.63
  -1  -1   1 1401.83  300.99
  -1  -1   1 1324.93  279.06
  -1  -1   1 1883.28  413.84
   1   1   0 6475.02 1460.57
   1   1   0 8349.87 1889.74
   1   1   0 3372.76  757.77
   1   1   0 6927.15 1570.86
   1   1   0 7699.72 1747.13
   1   1   011437.92 2589.78
   1   1   0 7944.73 1797.01
  -1  -1   0 7771.39 1760.24
  -1  -1   0 6071.60 1372.09
  -1  -1   0 7136.60 1618.67
  -1  -1   0 7420.25 1682.55
  -1  -1   0 8255.40 1865.87
  -1  -1   0 5642.99 1270.55
   1   1   1 9091.06 2067.37
   1   1   1 9530.93 2168.03
   1   1   1 5546.98 1257.23
   1   1   1 5641.32 1283.48
   1   1   1 6292.86 1424.81
   1   1   1 5047.48 1144.79
   1   1   1 5494.49 1244.67
  -1  -1  -1 5912.71 1351.38
  -1  -1  -1 5265.19 1198.01
  -1  -1  -1 9045.38 2072.41
  -1  -1  -1 5680.35 1288.96
  -1  -1  -1 6555.58 1481.50
  -1  -1  -1 4418.16 1002.04
   1   1   2 9305.77 2197.63
   1   1   211309.92 2652.59
   1   1   2 6140.98 1496.92
   1   1   216267.80 3834.69
   1   1   226877.80 6351.71
   1   1   212071.88 2834.60
   1   1   218770.07 4422.57
  -1  -1  -214867.99 3497.52
  -1  -1  -2 9864.62 2330.53
  -1  -1  -218070.41 4276.18
  -1  -1  -2 7367.85 1779.84
  -1  -1  -213083.26 3087.39
  -1  -1  -2 9639.84 2268.21
  -1  -1  -211047.31 2609.78
   1   1   3  955.48  202.03
   1   1   3  732.33  167.31
   1   1   3  776.67  173.92
   1   1   3  786.15  173.27
   1   1   3  895.97  182.86
   1   1   3  889.15  189.48
   1   1   3  392.59   94.77
   1   1   3  850.73  187.07
   1   1   3 1342.88  287.07
  -1  -1  -3  652.62  146.12
  -1  -1  -3  789.05  171.54
  -1  -1  -3  823.19  173.01
  -1  -1  -3  567.38  124.97
  -1  -1  -3  934.69  190.72
  -1  -1  -3 1085.78  229.98
  -1  -1  -3 1141.23  252.50
   1   1   4  236.44   54.79
   1   1   4  211.33   50.11
   1   1   4  188.15   51.11
   1   1   4  134.52   37.24
   1   1   4  156.64   35.24
   1   1   4  195.01   49.36
   1   1   4  195.19   45.79
   1   1   4  140.25   34.71
  -1  -1  -4  148.59   34.38
  -1  -1  -4  179.32   40.51
  -1  -1  -4  233.97   50.30
  -1  -1  -4  157.80   41.99
   1   1   5 1065.06  237.22
   1   1   5 1225.63  269.26
   1   1   5 1382.38  305.15
   1   1   5 1160.09  245.38
   1   1   5 1082.87  235.93
   1   1   5 1226.22  264.11
   1   1   5 1514.70  335.13
   1   1   5 1133.82  251.65
   1   1   5 1390.26  298.17
  -1  -1  -5  867.84  195.28
  -1  -1  -5 1171.05  246.48
  -1  -1  -5  987.40  221.12
  -1  -1  -5 1289.00  284.88
  -1  -1  -5  896.77  194.24
  -1  -1  -5  981.81  212.26
  -1  -1  -5  918.59  198.53
   1   1   6  847.37  197.74
   1   1   6 1181.06  274.10
   1   1   6  963.00  215.00
  -1  -1  -6  838.53  193.14
  -1  -1  -6  928.68  211.49
   1   1   7 1612.96  372.03
   1   1   7 1703.07  391.02
   1   1   7 1415.61  322.12
  -1  -1  -7 1699.02  387.04
  -1  -1  -7 1758.04  404.21
   1   1   8  904.72  209.19
   1   1   8  857.23  199.58
   1   1   8  929.49  212.50
  -1  -1  -8  946.62  216.12
  -1  -1  -8  919.40  208.33
   1   1   9  454.16  111.56
   1   1   9  548.40  127.40
   1   1   9  454.81  105.65
  -1  -1  -9  505.67  115.92
  -1  -1  -9  457.78  105.77
   1   1  10 1185.71  262.87
   1   1  10 1217.74  276.55
  -1  -1 -10 1363.85  298.28
   1   2  -9 1096.69  236.67
  -1  -2   9 1020.11  235.30
   1   2  -8   19.04   11.27
  -1  -2   8   22.04   14.89
   1   2  -7 2927.79  674.23
  -1  -2   7 2623.33  615.14
   1   2  -6  127.20   34.58
  -1  -2   6  138.73   39.25
  -1  -2   6  130.03   32.83
   1   2  -5 1515.03  340.14
   1   2  -5 1699.30  371.20
   1   2  -5 1402.91  310.07
  -1  -2   5 1767.50  388.08
  -1  -2   5 1459.87  334.00
   1   2  -4  653.86  155.50
   1   2  -4  780.90  169.43
   1   2  -4  555.22  123.81
   1   2  -4 1013.81  228.67
   1   2  -4  994.22  209.59
  -1  -2   4  711.23  152.10
  -1  -2   4  711.75  163.37
  -1  -2   4  620.81  142.21
  -1  -2   4  791.98  178.41
   1   2  -3   49.71   20.20
   1   2  -3   34.91   13.09
   1   2  -3   45.41   23.25
   1   2  -3   44.29   13.66
   1   2  -3   36.40   14.28
  -1  -2   3   28.29    9.71
  -1  -2   3   84.66   18.56
  -1  -2   3   33.73   17.97
  -1  -2   3   53.61   13.22
  -1  -2   3   15.70   10.12
  -1  -2   3   51.41   23.31
  -1  -2   3   10.26   16.09
   1   2  -211281.83 2643.59
   1   2  -2 9069.27 2123.39
   1   2  -2 7561.63 1749.60
   1   2  -2 8775.36 2066.64
  -1  -2   2 5716.66 1329.72
  -1  -2   2 8305.16 1926.22
  -1  -2   2 8390.35 1948.32
  -1  -2   2 7530.89 1761.67
  -1  -2   2 7554.49 1752.09
  -1  -2   212696.89 2970.57
  -1  -2   2 7281.86 1733.61
   1   2  -1   85.51   32.36
   1   2  -1  122.44   25.76
   1   2  -1   63.02   20.14
   1   2  -1   73.08   24.68
  -1  -2   1   62.23   13.07
  -1  -2   1   67.05   14.79
  -1  -2   1   93.48   25.06
  -1  -2   1  105.11   25.02
  -1  -2   1   58.39   17.04
  -1  -2   1   70.61   19.95
   1   2   0 6629.44 1532.58
   1   2   0 7293.49 1672.37
   1   2   0 5589.13 1269.63
   1   2   013176.42 3011.24
   1   2   0 7858.19 1802.40
  -1  -2   0 5338.77 1228.10
  -1  -2   0 6472.15 1487.19
  -1  -2   0 7121.32 1618.88
  -1  -2   0 8999.49 2069.06
  -1  -2   0 7956.59 1844.11
  -1  -2   0 6386.80 1469.45
  -1  -2   0 5904.63 1346.67
   1   2   1   33.98   13.23
   1   2   1   33.46   10.17
   1   2   1   32.71    6.11
   1   2   1   30.90   35.08
   1   2   1   34.31   10.86
   1   2   1   31.73   12.62
   1   2   1   46.44   10.77
   1   2   1   32.05   12.97
  -1  -2  -1   40.79   21.07
  -1  -2  -1   33.07   12.14
  -1  -2  -1   37.73   28.20
  -1  -2  -1   61.05   15.99
  -1  -2  -1   35.38   20.69
  -1  -2  -1   36.57   15.58
   1   2   210410.02 2547.31
   1   2   219056.43 4502.57
   1   2   2 9556.77 2258.78
   1   2   2 8986.60 2169.25
   1   2   214414.68 3393.01
   1   2   212803.47 3014.56
   1   2   213310.06 3134.26
  -1  -2  -215550.92 3682.40
  -1  -2  -2 6486.12 1567.89
  -1  -2  -210014.56 2381.96
  -1  -2  -2 9427.35 2225.08
  -1  -2  -215686.44 3709.88
   1   2   3  737.71  168.53
   1   2   3 1690.08  366.57
   1   2   3 1138.86  243.27
   1   2   3 1308.17  289.38
   1   2   3 1116.81  233.75
   1   2   3 1382.55  308.15
   1   2   3 1075.69  228.02
  -1  -2  -3  747.88  160.03
  -1  -2  -3 1030.47  226.48
  -1  -2  -3  947.72  208.01
  -1  -2  -3  936.41  191.85
  -1  -2  -3 1220.52  266.30
  -1  -2  -3 1233.75  273.92
   1   2   4 1813.17  416.77
   1   2   4 3644.53  818.38
   1   2   4 4557.49 1025.26
   1   2   4 2602.62  586.26
   1   2   4 3773.93  836.24
   1   2   4 5108.87 1135.15
   1   2   4 5691.83 1272.10
   1   2   4 4062.32  915.73
  -1  -2  -4 3460.99  773.62
  -1  -2  -4 3482.19  758.27
  -1  -2  -4 2723.22  628.60
   1   2   5  985.47  214.26
   1   2   5  910.68  200.88
   1   2   5  815.94  181.55
   1   2   5  667.10  144.70
   1   2   5  787.45  174.15
   1   2   5  869.95  187.30
   1   2   5  683.18  147.26
  -1  -2  -5  586.17  134.95
  -1  -2  -5  863.71  185.50
  -1  -2  -5  687.27  153.79
  -1  -2  -5  520.59  116.79
   1   2   6  991.16  218.43
   1   2   6  865.42  195.09
   1   2   6  932.39  209.92
  -1  -2  -6  829.25  190.17
  -1  -2  -6  865.06  200.49
  -1  -2  -6  769.81  169.33
   1   2   7  105.44   38.22
   1   2   7  116.08   29.98
   1   2   7  115.02   40.53
  -1  -2  -7  127.69   36.48
  -1  -2  -7  143.20   49.94
   1   2   8   16.28   15.85
   1   2   8   16.17   14.08
   1   2   8   18.51   15.74
  -1  -2  -8   17.00   14.42
  -1  -2  -8   17.43   19.87
   1   2   9  717.45  170.18
   1   2   9  701.93  161.97
  -1  -2  -9  847.69  190.42
  -1  -2  -9  732.90  165.21
   1   3  -8 1263.77  277.54
  -1  -3   8 1264.53  287.49
   1   3  -7 1120.22  250.99
  -1  -3   7 1159.86  267.13
  -1  -3   7 1015.23  224.17
   1   3  -6 2508.87  566.85
  -1  -3   6 2412.63  548.25
  -1  -3   6 2195.21  516.38
  -1  -3   5 2776.91  623.73
  -1  -3   5 2327.82  550.61
   1   3  -4 2060.72  464.16
  -1  -3   4 3455.96  766.92
  -1  -3   4 2349.74  535.44
   1   3  -3 7134.62 1670.76
   1   3  -3 6268.68 1488.40
   1   3  -3 8459.57 1991.22
   1   3  -3 5731.77 1340.56
  -1  -3   3 4882.33 1181.36
  -1  -3   3 6660.42 1550.94
  -1  -3   3 9152.49 2156.00
   1   3  -2 2114.06  469.30
   1   3  -2 2046.22  460.74
   1   3  -2 1980.44  421.39
   1   3  -2 2996.50  643.89
   1   3  -2 1594.47  362.66
  -1  -3   2 2263.80  502.96
  -1  -3   2 1864.20  408.62
  -1  -3   2 1853.71  405.08
  -1  -3   2 1990.96  452.37
  -1  -3   2 1721.38  372.07
   1   3  -1 1711.45  363.99
   1   3  -1 1211.82  264.84
   1   3  -1 1407.99  312.83
   1   3  -1 1050.47  219.47
   1   3  -1 1492.14  312.97
   1   3  -1 2281.73  492.03
  -1  -3   1 1795.85  383.09
  -1  -3   1 1155.27  249.40
  -1  -3   1 1143.74  249.98
  -1  -3   1 1675.28  369.94
  -1  -3   1 1083.34  228.10
  -1  -3   1 1127.99  244.23
   1   3   0  127.41   29.66
   1   3   0  136.60   33.71
   1   3   0  164.56   38.24
   1   3   0  151.19   35.13
   1   3   0  199.72   41.60
   1   3   0  182.17   38.10
  -1  -3   0  146.17   43.52
  -1  -3   0  118.74   25.88
  -1  -3   0  216.10   53.12
  -1  -3   0  126.77   26.79
  -1  -3   0  127.14   30.97
  -1  -3   0  111.52   26.19
  -1  -3   0  131.74   32.11
   1   3   1 1649.93  356.92
   1   3   1 1691.89  352.22
   1   3   1 2338.18  495.17
   1   3   1 1761.29  378.10
   1   3   1 2459.43  532.60
   1   3   1 1926.85  407.09
  -1  -3  -1 1627.53  354.06
  -1  -3  -1 1526.06  329.03
  -1  -3  -1 1657.56  356.80
  -1  -3  -1 1734.27  398.55
  -1  -3  -1 1859.51  409.94
  -1  -3  -1 1391.21  306.53
  -1  -3  -1 1661.70  350.94
   1   3   2 2226.89  477.49
   1   3   2 3081.13  696.45
   1   3   2 2727.91  587.79
   1   3   2 1317.48  278.09
   1   3   2 2121.78  454.44
   1   3   2 1553.32  326.46
   1   3   2 1372.21  299.99
  -1  -3  -2 1443.10  321.10
  -1  -3  -2 1606.62  349.20
  -1  -3  -2 1205.56  279.79
  -1  -3  -2 1705.12  372.21
  -1  -3  -2 1860.29  408.69
   1   3   3  362.63   83.40
   1   3   3  455.49  123.39
   1   3   3  207.52   50.37
   1   3   3  256.10   66.45
   1   3   3  306.09   69.42
   1   3   3  326.37   70.08
   1   3   3  199.92   46.36
  -1  -3  -3  290.55   67.85
  -1  -3  -3  294.78   71.28
  -1  -3  -3  412.81  103.97
  -1  -3  -3  369.21   94.57
   1   3   412706.64 2949.36
   1   3   4 8661.07 2009.56
   1   3   4 6970.43 1612.38
   1   3   411035.03 2570.57
   1   3   410380.29 2379.52
   1   3   4 9733.07 2232.19
   1   3   411579.45 2654.18
  -1  -3  -4 8789.92 2057.72
  -1  -3  -4 9442.76 2182.33
  -1  -3  -4 3533.72  858.03
  -1  -3  -4 3983.83  957.80
   1   3   5  129.33   33.27
   1   3   5  121.57   27.53
   1   3   5  161.57   49.40
  -1  -3  -5   45.81   34.23
  -1  -3  -5   59.75   25.12
  -1  -3  -5  117.31   33.30
  -1  -3  -5   62.03   29.51
   1   3   6 4771.34 1107.66
   1   3   6 5551.77 1290.19
  -1  -3  -6 3383.47  818.95
  -1  -3  -6 5073.73 1179.30
  -1  -3  -6 5112.03 1207.81
  -1  -3  -6 4809.08 1123.86
   1   3   7   27.60   16.41
   1   3   7   33.29   21.44
  -1  -3  -7   31.67   19.30
  -1  -3  -7   41.87   18.09
  -1  -3  -7   29.38   12.30
   1   3   8 2903.10  672.70
   1   3   8 3084.03  715.23
  -1  -3  -8 3026.46  698.42
  -1  -3  -8 2706.45  629.29
  -1  -3  -8 2420.63  561.27
   1   3   9    0.01    8.12
   1   3   9    1.04    8.49
  -1  -3  -9    1.25    8.65
  -1  -3  -9    0.27    6.21
   1   4  -8   85.43   22.03
  -1  -4   8   82.94   27.94
   1   4  -7   51.46   26.36
  -1  -4   7   41.07   17.62
  -1  -4   7   42.98   21.11
   1   4  -6  123.71   33.50
  -1  -4   6  102.47   29.05
  -1  -4   6  101.41   34.05
  -1  -4   5  173.82   64.07
  -1  -4   5  318.37   82.19
  -1  -4   4 1739.76  384.63
  -1  -4   4 2427.75  518.56
  -1  -4   4  795.82  205.34
   1   4  -3 1528.69  335.27
  -1  -4   3 1717.42  403.54
  -1  -4   3 1757.89  398.02
  -1  -4   3 2091.33  465.94
   1   4  -2 3777.10  865.71
   1   4  -2 3535.69  823.62
  -1  -4   2 3236.91  734.58
  -1  -4   2 3546.65  801.98
  -1  -4   2 4067.31  931.89
  -1  -4   2 3727.13  854.81
   1   4  -1 4098.17  946.20
   1   4  -1 5527.81 1255.74
   1   4  -1 6808.99 1549.12
   1   4  -1 4604.41 1060.21
   1   4  -1 4564.26 1033.32
  -1  -4   1 4008.96  907.95
  -1  -4   1 4018.95  914.95
  -1  -4   1 4733.29 1109.64
  -1  -4   1 3446.06  790.48
  -1  -4   1 3449.27  788.08
   1   4   0 3851.25  858.25
   1   4   0 3025.14  670.82
   1   4   0 2811.54  616.01
   1   4   0 4238.13  935.13
   1   4   0 3026.74  666.74
   1   4   0 3758.10  817.79
  -1  -4   0 2466.55  549.07
  -1  -4   0 1400.93  337.68
  -1  -4   0 3718.11  828.65
  -1  -4   0 2586.11  565.44
  -1  -4   0 2540.55  567.27
  -1  -4   0 2424.46  531.50
   1   4   1 2451.08  540.18
   1   4   1 4367.00  951.98
   1   4   1 2357.69  519.11
   1   4   1 2308.66  503.79
   1   4   1 3162.01  684.09
   1   4   1 3180.87  728.16
   1   4   1 3412.08  745.18
  -1  -4  -1 2037.64  473.00
  -1  -4  -1 2423.30  536.04
  -1  -4  -1 2102.72  460.57
  -1  -4  -1 1453.91  343.54
  -1  -4  -1 2452.61  544.80
  -1  -4  -1 2812.78  619.06
  -1  -4  -1 2254.01  489.75
   1   4   2 1592.19  350.13
   1   4   2 2118.78  500.58
   1   4   2 2757.84  593.81
   1   4   2 1649.29  360.44
  -1  -4  -2 1076.14  253.18
  -1  -4  -2 1826.93  397.47
  -1  -4  -2 1692.24  372.29
  -1  -4  -2 1850.34  404.89
  -1  -4  -2 1959.46  433.67
   1   4   3 2957.61  671.37
   1   4   3 4250.04  956.31
   1   4   3 4120.68  922.31
   1   4   3 2615.95  596.34
   1   4   3 5148.57 1191.94
  -1  -4  -3 3084.30  705.43
  -1  -4  -3 3603.32  821.92
  -1  -4  -3 3514.13  808.15
  -1  -4  -3 4069.78  934.93
   1   4   4  404.79  101.69
   1   4   4  341.53   77.46
  -1  -4  -4  458.14  109.79
  -1  -4  -4  422.38  102.85
  -1  -4  -4  343.42   89.01
  -1  -4  -4  497.92  113.21
   1   4   5  628.69  140.78
   1   4   5  918.65  207.39
  -1  -4  -5  741.87  164.59
  -1  -4  -5  498.64  123.10
   1   4   6  282.05   67.07
   1   4   6  400.42  104.80
  -1  -4  -6  366.90   88.93
  -1  -4  -6  390.10   92.14
  -1  -4  -6  296.69   73.26
   1   4   7  117.66   39.89
   1   4   7  109.11   33.21
  -1  -4  -7   97.21   30.29
  -1  -4  -7  101.14   26.52
  -1  -4  -7  107.51   33.90
  -1  -4  -7  105.76   29.82
   1   4   8 1286.18  291.00
   1   4   8 1162.42  269.43
  -1  -4  -8 1243.22  276.16
  -1  -4  -8 1227.12  283.35
  -1  -4  -8 1292.89  294.29
   1   4   9  602.02  133.56
   1   4   9  702.53  156.76
  -1  -4  -9  584.30  128.67
  -1  -4  -9  697.98  161.74
  -1  -4  -9  523.35  115.77
   1   5  -7 1591.00  343.93
  -1  -5   7 1391.13  303.63
  -1  -5   7 1294.39  291.56
   1   5  -6   26.25   12.34
  -1  -5   6   23.03   19.20
  -1  -5   6   57.31   18.32
   1   5  -5 2331.39  502.54
  -1  -5   5 1971.45  429.64
  -1  -5   5  793.25  196.78
  -1  -5   4  134.76   37.80
  -1  -5   4  145.07   47.71
  -1  -5   4   58.07   23.89
  -1  -5   3 1437.00  320.78
  -1  -5   3 1405.62  316.86
  -1  -5   3 1216.26  290.75
  -1  -5   2 1124.00  248.78
  -1  -5   2 1192.94  268.33
  -1  -5   1  118.28   32.87
  -1  -5   1  116.14   31.83
  -1  -5   1  124.69   33.23
  -1  -5   0 5978.03 1377.29
  -1  -5   0 5721.64 1290.28
  -1  -5   0 2703.72  640.65
  -1  -5   0 5051.40 1145.63
  -1  -5  -1  137.50   40.33
  -1  -5  -1  130.46   31.49
  -1  -5  -1  149.34   39.92
  -1  -5  -1  143.53   37.17
  -1  -5  -2 5585.84 1303.96
  -1  -5  -2 5529.30 1288.24
  -1  -5  -2 5747.24 1349.78
  -1  -5  -3  331.47   82.36
  -1  -5  -3  378.16   91.29
  -1  -5  -3  428.62  112.57
   1   5   4 4583.17 1089.96
  -1  -5  -4 4181.02  999.55
  -1  -5  -4 4491.32 1051.63
  -1  -5  -4 4343.50 1027.48
  -1  -5  -4 4863.67 1133.76
   1   5   5 1490.05  334.98
  -1  -5  -5 1144.08  255.96
  -1  -5  -5  748.90  181.00
   1   5   6 2407.87  542.59
  -1  -5  -6 1510.69  347.35
  -1  -5  -6 1033.01  244.82
  -1  -5  -6 2246.97  500.46
   1   5   7  558.93  128.60
   1   5   7  669.28  152.45
  -1  -5  -7  553.79  133.44
  -1  -5  -7  603.05  138.54
  -1  -5  -7  647.49  144.61
   1   5   8  512.85  114.52
   1   5   8  538.65  126.52
  -1  -5  -8  622.81  140.48
  -1  -5  -8  567.31  125.44
  -1  -6   6  459.81  101.25
   1   6  -5 1848.68  404.80
  -1  -6   5 1435.12  327.62
   1   6  -4 1137.46  251.96
  -1  -6   4 1050.79  237.84
  -1  -6   3 1975.61  454.27
  -1  -6   3 2501.18  568.98
  -1  -6   2  348.85   84.40
  -1  -6   2  396.68   94.91
  -1  -6   1 4339.17  918.62
  -1  -6   1 1196.43  288.16
  -1  -6   0  662.20  144.83
  -1  -6   0  652.96  145.69
  -1  -6  -1  402.31   89.14
  -1  -6  -1  333.98   82.12
  -1  -6  -1  386.61   93.21
  -1  -6  -2    8.58   11.38
  -1  -6  -2   82.05   23.30
   1   6   3   61.79   17.92
  -1  -6  -3  140.85   39.86
  -1  -6  -3   89.40   28.94
   1   6   4  776.09  178.59
  -1  -6  -4 1029.75  243.57
  -1  -6  -4 1085.61  245.21
   1   6   5   37.71   17.10
  -1  -6  -5   38.90   32.50
  -1  -6  -5   10.21   26.01
   1   6   6 2186.71  492.95
  -1  -6  -6 2117.61  478.34
  -1  -6  -6 1410.42  328.60
   1   6   7  131.79   33.98
  -1  -6  -7   96.61   25.87
  -1  -6  -7  119.40   31.02
  -1  -6  -7  113.52   32.53
   1   6   8 1529.61  339.37
  -1  -6  -8 1293.80  284.42
  -1  -7   4  402.90   90.47
  -1  -7   3  366.01   89.01
  -1  -7   2  325.11   79.23
  -1  -7  -1 2855.93  677.23
  -1  -7  -1 2650.95  607.27
  -1  -7  -2  335.43   93.76
  -1  -7  -2  672.26  149.75
  -1  -7  -3 1091.81  263.91
  -1  -7  -3 2146.53  483.99
   1   7   4  468.33  105.28
  -1  -7  -4  519.22  131.29
  -1  -7  -4  405.51  101.56
   1   7   5 1042.94  239.25
  -1  -7  -5  843.77  195.80
   1   7   6  162.86   38.73
  -1  -7  -6  174.42   44.16
  -1  -7  -6  127.16   35.77
  -1  -8  -2 1116.80  259.94
  -1  -8  -2 1518.57  333.33
  -1  -8  -3   75.15   23.53
  -1  -8  -3  310.04   67.06
  -1  -8  -4 1380.47  304.44
  -1  -8  -4 1001.23  229.32
  -1  -8  -5  553.00  116.33
  -1  -8  -5  224.37   54.31
   2  -7  -1 1232.87  272.99
   2  -7   0 1362.07  300.24
   2  -6  -5   46.30   16.84
  -2   6   5   55.38   20.33
   2  -6  -4 3541.83  802.79
  -2   6   4 2776.56  644.10
  -2   6   4 2250.48  517.97
   2  -6  -3    9.30   36.72
   2  -6  -3    7.98   12.10
  -2   6   3    8.39   11.83
   2  -6  -2 2178.90  521.61
   2  -6  -2 1537.80  350.24
  -2   6   2 1896.03  426.81
   2  -6  -1  360.26   91.89
   2  -6  -1  111.89   44.30
   2  -6   0  995.39  225.46
   2  -6   0  591.36  151.98
   2  -6   0 1004.96  225.74
   2  -6   1  699.67  162.54
   2  -6   1  651.02  152.37
   2  -6   2   59.82   22.73
   2  -6   2   81.36   36.71
   2  -6   3  382.75   91.12
   2  -6   3 1302.42  292.96
   2  -6   4   52.10   13.58
   2  -6   4   47.12   34.00
   2  -5  -6  529.24  115.71
   2  -5  -6  560.64  125.15
  -2   5   6  659.21  148.78
  -2   5   6  631.45  144.34
   2  -5  -5  534.14  130.92
   2  -5  -5  286.21   70.87
  -2   5   5  483.71  107.41
  -2   5   5  364.89   93.59
  -2   5   5  363.79   89.93
   2  -5  -4 3721.73  866.77
   2  -5  -4 2525.05  580.89
  -2   5   4 2192.70  510.86
  -2   5   4 2640.72  610.98
   2  -5  -3  449.11  105.25
   2  -5  -3  488.92  130.08
  -2   5   3  521.99  121.30
   2  -5  -2 2298.22  574.43
   2  -5  -2 3422.32  782.14
   2  -5  -1  788.97  183.31
   2  -5  -1  523.92  170.19
   2  -5  -1  747.69  172.76
   2  -5   0 2657.12  619.19
   2  -5   0 2721.30  634.43
   2  -5   1   96.09   34.82
   2  -5   1   34.85   25.46
   2  -5   1   99.41   35.16
   2  -5   2 1988.51  472.89
   2  -5   2 2058.71  486.86
  -2   5  -2 2456.92  578.10
   2  -5   3    3.69   15.50
   2  -5   3    1.30   18.13
  -2   5  -3    4.10    9.93
   2  -5   4   40.76   23.14
   2  -5   4   98.20   41.66
  -2   5  -4   74.70   23.85
   2  -5   5   11.30   15.98
   2  -5   5   11.59   11.31
  -2   5  -5   11.64   10.99
   2  -4  -7  548.18  118.88
   2  -4  -7  505.42  119.29
  -2   4   7  445.89   98.68
  -2   4   7  539.44  119.88
  -2   4   7  448.26   99.36
   2  -4  -6 2261.50  518.07
   2  -4  -6 1949.49  450.17
   2  -4  -6 2191.36  499.36
  -2   4   6 2550.92  580.04
  -2   4   6 2470.29  556.42
  -2   4   6 2694.61  618.43
   2  -4  -5 2038.23  462.47
   2  -4  -5 1166.73  267.63
  -2   4   5 1634.07  363.67
  -2   4   5 1131.06  268.84
  -2   4   5  989.84  237.29
   2  -4  -4  999.91  232.57
   2  -4  -4 1202.19  269.94
   2  -4  -4 1015.04  246.63
  -2   4   4 1258.48  284.14
   2  -4  -3  224.74   55.03
   2  -4  -3  199.24   52.97
   2  -4  -3  274.99   90.91
   2  -4  -3  155.21   42.71
  -2   4   3  213.55   52.20
   2  -4  -2  371.25   88.69
   2  -4  -2  390.68   92.18
   2  -4  -2  334.84   80.53
   2  -4  -2  443.70  122.89
   2  -4  -1 1658.72  366.84
   2  -4  -1 1363.50  315.49
   2  -4  -1 1528.28  346.25
   2  -4  -1 2136.30  511.01
   2  -4   0 1565.45  357.08
   2  -4   0 1628.35  370.75
   2  -4   0 1078.76  277.01
   2  -4   1 2219.23  509.18
   2  -4   1 2345.88  536.45
   2  -4   1 1343.87  345.08
  -2   4  -1 2792.30  623.10
   2  -4   2 3585.51  861.71
   2  -4   2 3665.46  879.09
  -2   4  -2 5375.86 1261.81
   2  -4   3 1023.52  243.48
   2  -4   3 1124.19  264.93
  -2   4  -3  502.81  126.03
   2  -4   4 3507.29  823.53
   2  -4   4 2024.70  492.53
  -2   4  -4 1739.88  407.65
   2  -4   5  130.16   47.74
   2  -4   5  116.17   50.15
  -2   4  -5  252.73   62.50
   2  -4   6 2092.80  487.09
   2  -4   6 1976.99  467.04
  -2   4  -6 2059.97  469.30
   2  -4   7  366.83   81.23
   2  -4   7  429.57  106.73
  -2   4  -7  410.31   91.83
   2  -3  -8  530.31  118.30
   2  -3  -8  534.93  120.80
  -2   3   8  659.09  148.05
  -2   3   8  549.75  120.04
   2  -3  -7   18.76   11.02
   2  -3  -7   16.50   11.72
  -2   3   7   16.16    8.13
  -2   3   7   16.91   11.34
   2  -3  -6 3195.87  740.49
   2  -3  -6 2927.50  675.60
  -2   3   6 3132.45  720.37
  -2   3   6 3189.02  739.99
  -2   3   6 2935.82  678.62
   2  -3  -5    4.16    6.79
   2  -3  -5    5.22   11.28
   2  -3  -5    6.36   17.43
  -2   3   5    2.33   12.11
  -2   3   5    3.20   11.46
  -2   3   5    1.62   14.05
   2  -3  -4 2990.81  684.32
   2  -3  -4 3117.86  718.32
   2  -3  -4 3256.26  738.36
   2  -3  -4 2216.40  519.57
   2  -3  -4 3247.65  775.06
  -2   3   4 3549.22  807.35
   2  -3  -3 1475.21  334.42
   2  -3  -3 1420.78  323.81
   2  -3  -3 1269.69  285.11
   2  -3  -3 1726.07  405.03
  -2   3   3 1153.17  258.89
   2  -3  -2 5273.93 1231.00
   2  -3  -2 7982.19 1900.64
   2  -3  -2 5122.74 1188.28
   2  -3  -2 4560.90 1064.45
   2  -3  -2 5705.64 1341.06
   2  -3  -1   33.82   16.61
   2  -3  -1   52.80   28.92
   2  -3  -1   30.07   21.34
   2  -3  -1   42.99   21.36
   2  -3  -1   37.62   11.33
   2  -3   0 1849.35  419.63
   2  -3   0 2463.28  571.99
   2  -3   0 1821.74  413.71
   2  -3   0 1986.48  443.33
  -2   3   0 1941.02  428.21
   2  -3   1  461.57  114.24
   2  -3   1  473.89  107.94
   2  -3   1  264.25   75.60
   2  -3   1  527.84  123.13
  -2   3  -1  648.12  142.00
   2  -3   2    2.41   11.15
   2  -3   2    3.89    7.29
   2  -3   2    4.49   14.18
   2  -3   2    4.39   13.84
  -2   3  -2    0.02   14.90
   2  -3   3 1843.76  437.34
   2  -3   3 2251.97  522.60
   2  -3   3 2412.85  568.92
   2  -3   3 2782.67  647.73
   2  -3   4  239.61   64.37
   2  -3   4  287.78  101.42
   2  -3   4  364.32  102.92
   2  -3   5  346.94  121.05
   2  -3   5  802.20  201.07
   2  -3   6  443.41  125.43
   2  -3   6  376.45  100.53
  -2   3  -6  467.46  111.44
   2  -3   7 1218.14  282.86
   2  -3   7 1201.45  279.10
  -2   3  -7 1218.28  273.43
   2  -3   8  493.45  109.19
   2  -3   8  506.81  114.78
  -2   3  -8  483.99  108.51
   2  -2  -8  157.06   38.93
   2  -2  -8  145.36   36.16
  -2   2   8  144.27   36.37
  -2   2   8  173.18   49.90
   2  -2  -7  576.97  139.49
   2  -2  -7  493.30  118.38
  -2   2   7  364.37   83.42
  -2   2   7  436.37  100.61
   2  -2  -6  130.08   33.81
   2  -2  -6  132.73   36.07
  -2   2   6  149.62   40.98
  -2   2   6  127.54   36.79
  -2   2   6  147.48   52.21
   2  -2  -5  700.84  165.06
   2  -2  -5  555.69  131.27
   2  -2  -5  887.40  193.03
   2  -2  -5  764.87  169.57
  -2   2   5  538.25  129.57
  -2   2   5  515.45  129.72
   2  -2  -4 4637.59 1098.96
   2  -2  -4 5650.16 1303.23
   2  -2  -4 3739.94  863.85
   2  -2  -4 4459.83 1034.98
   2  -2  -4 4098.85  948.75
  -2   2   4 4003.32  939.07
   2  -2  -3  477.08  106.96
   2  -2  -3  640.16  158.30
   2  -2  -3  510.46  116.61
   2  -2  -3  455.04  113.01
   2  -2  -3  489.16  110.46
   2  -2  -3  397.81   92.51
  -2   2   3  424.52   95.61
   2  -2  -2 7292.92 1674.30
   2  -2  -2 9853.31 2276.38
   2  -2  -2 6191.48 1418.47
   2  -2  -2 5979.96 1371.95
   2  -2  -2 7074.84 1630.51
   2  -2  -2 4281.97  998.10
   2  -2  -2 4174.86  995.85
  -2   2   2 3431.29  838.30
  -2   2   2 7741.44 1794.49
  -2   2   2 7436.02 1722.75
  -2   2   2 7345.56 1701.59
   2  -2  -1   51.37   24.51
   2  -2  -1   66.97   19.90
   2  -2  -1   84.59   30.22
   2  -2  -1   54.78   18.87
   2  -2  -1   56.31   15.08
   2  -2  -1   57.56   18.88
   2  -2  -1   78.12   20.59
   2  -2  -1   58.79   19.58
  -2   2   1   56.29   20.96
  -2   2   1   71.66   24.88
  -2   2   1   53.61   13.34
  -2   2   1  113.21   37.20
  -2   2   1   63.36   23.72
   2  -2   0 7704.54 1841.17
   2  -2   0 9110.16 2147.22
   2  -2   0 9880.06 2354.26
   2  -2   0 9262.49 2215.21
   2  -2   0 7863.24 1857.26
   2  -2   0 8039.24 1890.51
   2  -2   0 9238.91 2196.16
   2  -2   011994.79 2887.31
  -2   2   010894.25 2594.41
  -2   2   0 8803.92 2099.16
  -2   2   0 8576.64 2031.15
  -2   2   0 9393.43 2232.63
  -2   2   010942.42 2617.12
   2  -2   1   29.84   14.66
   2  -2   1   30.03   17.37
   2  -2   1   43.73   23.30
   2  -2   1   37.56   19.24
  -2   2  -1   34.75   22.63
  -2   2  -1   32.49   17.04
  -2   2  -1   33.57   13.91
  -2   2  -1   38.18   16.74
  -2   2  -1   41.34   21.84
   2  -2   2 8554.29 2023.68
   2  -2   2 8291.18 1979.64
   2  -2   210746.42 2526.69
   2  -2   2 3967.16  981.59
  -2   2  -210642.41 2483.47
  -2   2  -2 9691.62 2252.47
  -2   2  -210655.57 2492.27
  -2   2  -211093.60 2610.52
   2  -2   3   25.08   15.35
   2  -2   3   27.21   22.95
   2  -2   3   30.33   33.88
   2  -2   3   26.57   20.19
   2  -2   3   23.88   17.12
   2  -2   3   24.73    8.95
   2  -2   4 2337.42  545.97
   2  -2   4 2262.74  544.85
   2  -2   4 1736.81  405.84
   2  -2   4 2813.16  662.25
   2  -2   5  158.76   52.05
   2  -2   5   95.12   49.45
   2  -2   5  334.19   79.06
   2  -2   5  280.52   83.94
  -2   2  -5  236.44   53.60
   2  -2   6  196.56   60.88
   2  -2   6  158.78   46.03
   2  -2   6  208.13   63.94
  -2   2  -6  249.08   62.30
  -2   2  -6  235.16   59.80
   2  -2   7  110.97   31.17
   2  -2   7  130.21   41.96
   2  -2   7  136.25   43.34
  -2   2  -7  131.56   33.80
  -2   2  -7  131.54   35.81
   2  -2   8   93.14   36.55
   2  -2   8   92.17   36.53
  -2   2  -8   86.29   23.07
  -2   2  -8   89.38   23.51
   2  -1  -8 1387.77  310.93
   2  -1  -8 1484.69  328.78
  -2   1   8 1385.19  310.99
  -2   1   8 1221.86  272.46
   2  -1  -7 1346.04  297.28
   2  -1  -7 1541.49  339.22
  -2   1   7 1214.47  273.99
  -2   1   7 1379.69  309.44
   2  -1  -6 4844.48 1122.82
   2  -1  -6 4612.31 1071.08
  -2   1   6 4545.86 1061.47
  -2   1   6 4563.65 1070.38
   2  -1  -5 1598.00  369.93
   2  -1  -5 1449.05  326.92
   2  -1  -5 2390.16  539.99
  -2   1   5 1888.89  434.05
  -2   1   5 1640.80  373.50
   2  -1  -4 4029.29  920.90
   2  -1  -4 3754.60  844.96
   2  -1  -4 3178.97  719.98
   2  -1  -4 3191.22  712.18
  -2   1   4 2326.86  529.44
  -2   1   4 2211.79  526.17
  -2   1   4 3210.86  732.74
  -2   1   4 2795.21  644.62
   2  -1  -3 4543.98 1055.69
   2  -1  -3 4981.49 1133.72
   2  -1  -3 3385.01  761.92
   2  -1  -3 3898.06  883.53
   2  -1  -3 4105.76  953.18
   2  -1  -3 3930.75  888.63
   2  -1  -3 3039.26  700.08
  -2   1   3 3944.33  915.59
  -2   1   3 3796.57  874.95
  -2   1   3 3113.50  735.88
  -2   1   3 3948.94  895.54
  -2   1   3 4287.18  994.47
   2  -1  -2  819.92  188.53
   2  -1  -2 1144.68  256.76
   2  -1  -2 1020.98  231.05
   2  -1  -2 1007.55  215.21
   2  -1  -2  831.05  177.26
   2  -1  -2 1017.72  219.87
   2  -1  -2  754.28  167.05
  -2   1   2  961.95  211.13
  -2   1   2  803.38  168.67
  -2   1   2  959.00  214.14
  -2   1   2  975.28  217.07
   2  -1  -1  489.65  105.89
   2  -1  -1  520.38  113.73
   2  -1  -1  504.51  108.45
   2  -1  -1  513.64  110.51
   2  -1  -1  552.97  119.84
   2  -1  -1  572.11  125.23
   2  -1  -1  368.93   84.98
   2  -1  -1  730.96  161.60
  -2   1   1  548.76  128.20
  -2   1   1  588.69  133.35
  -2   1   1  529.95  113.06
  -2   1   1  580.68  134.86
  -2   1   1  563.32  130.65
   2  -1   0  341.38   74.07
   2  -1   0  306.72   69.09
   2  -1   0  351.25   74.32
   2  -1   0  330.88   75.41
   2  -1   0  319.80   68.71
   2  -1   0  508.79  104.58
   2  -1   0  324.37   72.82
   2  -1   0  424.18   99.58
  -2   1   0  380.68   85.55
  -2   1   0  329.17   74.96
  -2   1   0  337.22   77.12
  -2   1   0  420.74  108.10
  -2   1   0  339.10   76.76
   2  -1   1 1853.64  418.01
   2  -1   1 1860.82  400.84
   2  -1   1 1876.07  417.50
   2  -1   1 1956.67  432.85
   2  -1   1 2711.24  568.21
   2  -1   1 2459.31  566.51
   2  -1   1 1662.32  351.43
  -2   1  -1 1747.38  385.87
  -2   1  -1 2289.69  503.49
  -2   1  -1 2153.61  476.63
  -2   1  -1 2090.35  460.11
  -2   1  -1 1823.57  382.21
  -2   1  -1 1872.29  413.02
   2  -1   2 2009.71  450.44
   2  -1   2 2518.62  539.13
   2  -1   2 2086.22  470.43
   2  -1   2 1538.45  363.56
   2  -1   2 2137.66  483.07
  -2   1  -2 1967.54  433.62
  -2   1  -2 1708.03  381.20
  -2   1  -2 2405.88  519.08
  -2   1  -2 2490.35  545.86
  -2   1  -2 2478.60  556.56
  -2   1  -2 2218.40  491.35
  -2   1  -2 1832.62  412.57
   2  -1   3 1923.38  441.60
   2  -1   3 2053.24  480.92
   2  -1   3 2393.79  509.79
   2  -1   3 1894.70  415.44
   2  -1   3 1600.63  366.52
   2  -1   3  948.79  230.92
   2  -1   3 2118.01  477.50
  -2   1  -3 2186.23  478.63
  -2   1  -3 1762.50  393.37
  -2   1  -3 2140.57  474.93
  -2   1  -3 1935.58  426.26
  -2   1  -3 1724.53  377.81
   2  -1   4 5693.76 1373.78
   2  -1   4 6182.29 1468.34
   2  -1   4 3733.77  885.99
   2  -1   4 6968.06 1654.26
  -2   1  -4 6823.91 1588.08
   2  -1   5  257.43   75.24
   2  -1   5  136.20   58.48
   2  -1   5  382.33  100.73
  -2   1  -5  294.13   66.45
   2  -1   6 1979.53  472.40
   2  -1   6 2429.81  581.80
   2  -1   6 2226.69  529.26
  -2   1  -6 2721.44  623.35
  -2   1  -6 2561.02  584.01
   2  -1   7  113.13   50.70
   2  -1   7   99.34   32.28
   2  -1   7  114.80   36.15
  -2   1  -7  121.23   33.71
  -2   1  -7  103.51   28.89
   2  -1   8 1589.82  364.93
   2  -1   8 1599.92  371.11
   2  -1   8 1490.91  347.23
  -2   1  -8 1569.43  353.58
  -2   1  -8 1380.62  313.87
   2  -1   9   62.77   17.39
   2  -1   9   75.43   23.46
   2  -1   9   64.13   23.40
  -2   1  -9   82.02   28.90
   2   0  -8  686.57  152.51
   2   0  -8  622.10  139.09
  -2   0   8 1139.56  247.66
  -2   0   8  578.13  132.86
   2   0  -7    1.45    9.99
   2   0  -7   10.08    8.41
  -2   0   7    1.40   18.95
  -2   0   7   25.36   16.04
   2   0  -6 1961.26  433.04
   2   0  -6 1390.33  310.69
  -2   0   6 1445.02  322.18
  -2   0   6 1441.87  325.90
   2   0  -5  232.55   54.28
   2   0  -5  285.28   69.60
  -2   0   5  249.83   68.87
   2   0  -4 5969.04 1366.42
   2   0  -4 6450.28 1500.41
   2   0  -4 5164.02 1212.42
   2   0  -4 6843.23 1583.34
   2   0  -4 4230.85  993.13
  -2   0   4 6235.89 1456.79
  -2   0   4 7139.74 1672.30
   2   0  -3  579.69  138.74
   2   0  -3  733.35  157.16
   2   0  -3  742.08  153.95
   2   0  -3  641.51  138.37
   2   0  -3  680.71  167.04
   2   0  -3  659.16  142.23
   2   0  -3  839.46  187.01
   2   0  -3  667.37  144.79
  -2   0   3  616.52  149.05
  -2   0   3  605.12  140.83
  -2   0   3  500.18  114.20
  -2   0   3  584.14  123.08
  -2   0   3  562.35  126.14
  -2   0   3  599.44  136.39
   2   0  -2 4487.14 1040.73
   2   0  -2 5416.35 1245.44
   2   0  -2 4092.88  933.25
   2   0  -2 4797.96 1079.19
   2   0  -2 5023.99 1150.79
   2   0  -2 4130.73  958.73
   2   0  -2 5870.47 1337.35
   2   0  -2 4350.58  991.54
  -2   0   2 4968.12 1129.28
  -2   0   2 4868.70 1099.28
  -2   0   2 5181.35 1190.96
  -2   0   2 5352.49 1213.01
  -2   0   2 4785.91 1103.98
   2   0  -1 4200.27  952.39
   2   0  -1 4819.86 1069.65
   2   0  -1 4435.92 1002.18
   2   0  -1 4633.56 1055.10
   2   0  -1 4841.27 1098.87
   2   0  -1 4128.67  954.31
   2   0  -1 5580.79 1279.47
   2   0  -1 5090.17 1146.85
   2   0  -1 4756.01 1088.21
  -2   0   1 4567.69 1040.44
  -2   0   1 3682.38  852.42
  -2   0   1 4311.97  970.63
  -2   0   1 4613.13 1043.93
  -2   0   1 4417.01 1002.39
   2   0   0 3785.04  849.57
   2   0   0 3921.13  856.96
   2   0   0 3636.45  815.50
   2   0   0 3914.30  883.18
   2   0   0 3488.34  786.45
   2   0   0 4772.93 1082.85
   2   0   0 3380.16  755.15
   2   0   0 3707.27  826.68
  -2   0   0 3700.29  833.51
  -2   0   0 3967.01  891.38
  -2   0   0 4017.03  911.76
  -2   0   0 3608.37  809.03
  -2   0   0 3971.20  888.04
  -2   0   0 3619.09  809.90
   2   0   1 1309.18  268.72
   2   0   1  958.33  209.60
   2   0   1  832.92  179.43
   2   0   1  952.38  202.95
   2   0   1  984.65  213.29
   2   0   1 1235.24  286.92
   2   0   1  926.34  191.45
   2   0   1  976.70  209.24
  -2   0  -1 1016.22  219.42
  -2   0  -1  960.23  208.02
  -2   0  -1 1219.86  266.47
  -2   0  -1 1081.14  233.89
  -2   0  -1 1243.04  265.41
  -2   0  -1 1005.70  208.56
  -2   0  -1 1269.97  277.89
  -2   0  -1  983.82  209.19
   2   0   2 1562.11  347.98
   2   0   2 1819.71  403.97
   2   0   2 1659.84  356.56
   2   0   2 1552.18  358.66
   2   0   2 1812.48  397.37
   2   0   2 1423.30  294.35
   2   0   2 1646.57  365.56
  -2   0  -2 1410.66  308.33
  -2   0  -2 1681.77  362.28
  -2   0  -2 1675.47  371.32
  -2   0  -2 1705.20  379.11
  -2   0  -2 1837.77  401.77
  -2   0  -2 1879.29  407.36
  -2   0  -2 1668.39  359.58
   2   0   3  673.74  151.00
   2   0   3  664.35  154.62
   2   0   3  595.08  125.29
   2   0   3  525.42  119.52
   2   0   3  723.14  171.04
  -2   0  -3  722.62  166.09
  -2   0  -3  473.22  115.14
  -2   0  -3  646.90  143.55
  -2   0  -3  628.15  135.28
  -2   0  -3  674.13  150.08
  -2   0  -3  661.75  141.70
  -2   0  -3  752.74  178.06
   2   0   4 2290.56  532.91
   2   0   4 1754.49  429.74
   2   0   4 2192.57  481.14
   2   0   4 1844.12  415.41
   2   0   4 1305.95  303.92
   2   0   4 2363.31  550.43
  -2   0  -4 2011.67  447.18
  -2   0  -4 2040.44  457.79
  -2   0  -4 2302.62  521.23
  -2   0  -4 1740.15  385.63
  -2   0  -4 1641.37  384.19
   2   0   5 1806.27  431.66
   2   0   5 1841.58  403.66
   2   0   5 1489.54  372.94
   2   0   5 1879.25  442.59
  -2   0  -5 1737.25  399.22
  -2   0  -5 1316.08  313.57
  -2   0  -5 1877.68  418.79
  -2   0  -5 2306.48  507.03
   2   0   6 1268.30  298.46
   2   0   6 1567.57  366.30
   2   0   6 1097.75  261.91
  -2   0  -6 1386.86  313.31
  -2   0  -6 1099.22  250.54
  -2   0  -6 1191.74  265.91
   2   0   7  681.41  163.21
   2   0   7  760.11  183.67
   2   0   7  666.07  162.17
  -2   0  -7  696.62  160.56
  -2   0  -7  586.12  133.37
   2   0   8 1216.42  281.25
   2   0   8 1256.08  294.84
   2   0   8 1173.37  268.14
  -2   0  -8 1177.36  268.88
   2   0   9  479.33  111.25
   2   0   9  558.71  137.28
   2   0   9  526.68  125.68
  -2   0  -9  642.05  151.84
   2   1  -8  254.06   59.10
   2   1  -8  267.69   59.67
  -2  -1   8  222.87   59.54
   2   1  -7 1993.63  441.81
   2   1  -7 2372.07  532.78
   2   1  -7 2102.37  474.03
  -2  -1   7 1736.71  397.48
  -2  -1   7 2130.66  484.83
   2   1  -6  312.06   70.61
   2   1  -6  461.87  102.17
   2   1  -6  352.83   77.61
  -2  -1   6  248.86   58.75
  -2  -1   6  406.39  101.94
   2   1  -5  723.25  157.01
   2   1  -5  714.55  157.09
   2   1  -5  820.36  182.49
  -2  -1   5  677.99  149.89
  -2  -1   5  655.96  147.14
   2   1  -4  365.48   84.64
   2   1  -4  347.20   88.04
   2   1  -4  489.10  112.95
   2   1  -4  459.81  106.94
   2   1  -4  334.38   82.52
  -2  -1   4  481.62  107.47
  -2  -1   4  423.11   95.18
  -2  -1   4  524.36  115.63
  -2  -1   4  480.51  130.89
   2   1  -3  881.54  189.31
   2   1  -3  767.52  163.86
   2   1  -3  484.69  114.86
   2   1  -3  675.40  151.73
   2   1  -3  612.24  143.82
  -2  -1   3  708.92  162.21
  -2  -1   3  793.12  167.68
  -2  -1   3  968.61  215.08
  -2  -1   3  732.49  157.50
  -2  -1   3  638.28  156.42
   2   1  -2 6948.03 1596.73
   2   1  -2 8018.61 1866.82
   2   1  -2 8131.35 1875.40
   2   1  -2 8070.51 1869.36
   2   1  -2 8420.82 1957.13
   2   1  -2 6730.47 1575.87
   2   1  -2 8252.83 1902.20
   2   1  -2 7897.39 1821.03
  -2  -1   2 7558.04 1753.72
  -2  -1   2 8132.44 1887.40
  -2  -1   2 8721.80 2003.31
  -2  -1   2 3474.12  799.94
  -2  -1   2 6135.91 1444.36
  -2  -1   2 7028.83 1601.89
  -2  -1   2 7656.20 1754.09
   2   1  -1    2.72    9.02
   2   1  -1    4.23    7.02
   2   1  -1    3.41    5.84
   2   1  -1    2.31    8.58
   2   1  -1    1.21   16.07
   2   1  -1   11.11    9.43
   2   1  -1    1.29    9.74
   2   1  -1    1.42    8.93
  -2  -1   1    6.57   12.48
  -2  -1   1    6.77    4.60
  -2  -1   1    1.47    2.92
  -2  -1   1    1.55   10.33
  -2  -1   1    1.14    9.77
  -2  -1   1   13.85    6.50
   2   1   0 9633.02 2284.42
   2   1   010139.41 2393.25
   2   1   010269.85 2439.07
   2   1   011506.29 2726.69
   2   1   011479.11 2738.58
   2   1   0 9251.56 2195.57
  -2  -1   011167.78 2655.13
  -2  -1   010211.65 2427.45
  -2  -1   0 9860.62 2339.70
  -2  -1   011128.31 2631.45
  -2  -1   010597.50 2489.61
  -2  -1   010597.30 2496.04
  -2  -1   0 9537.69 2239.42
  -2  -1   0 9663.95 2279.05
   2   1   1   15.79   10.65
   2   1   1    0.00    9.40
   2   1   1   16.61    8.21
   2   1   1   16.24   11.00
   2   1   1   23.61   34.37
   2   1   1   39.06   19.12
   2   1   1   15.58   10.86
   2   1   1   21.96    8.41
  -2  -1  -1   23.36   16.43
  -2  -1  -1   15.65   10.15
  -2  -1  -1   23.51   13.37
  -2  -1  -1   14.57   12.16
  -2  -1  -1   21.11   12.63
  -2  -1  -1   26.00   17.89
  -2  -1  -1   17.91    7.95
   2   1   2 9647.91 2298.64
   2   1   211288.01 2709.84
   2   1   212255.66 2934.16
   2   1   211599.23 2764.51
   2   1   211415.26 2777.48
   2   1   211183.61 2646.01
   2   1   211850.49 2849.29
  -2  -1  -211771.49 2807.31
  -2  -1  -211040.55 2642.32
  -2  -1  -210992.06 2640.13
  -2  -1  -2 9046.05 2189.35
  -2  -1  -213054.31 3150.14
  -2  -1  -210645.52 2550.86
  -2  -1  -212352.85 2921.24
   2   1   3 1392.65  299.56
   2   1   3 1143.48  245.63
   2   1   3 1565.85  361.00
   2   1   3 1463.68  320.25
   2   1   3 1451.66  302.09
   2   1   3 1484.50  338.19
  -2  -1  -3 1266.15  279.56
  -2  -1  -3 1157.87  251.35
  -2  -1  -3  917.59  212.24
  -2  -1  -3 1510.54  335.89
  -2  -1  -3 1019.61  230.02
  -2  -1  -3 1306.96  280.77
  -2  -1  -3  973.89  213.60
   2   1   424502.79 5899.46
   2   1   423683.91 5782.28
   2   1   410581.13 2603.07
   2   1   420041.16 4911.45
   2   1   4 6894.07 1743.40
   2   1   420429.08 4978.56
  -2  -1  -421116.36 5102.24
  -2  -1  -412008.72 2958.72
  -2  -1  -421025.20 5146.03
  -2  -1  -417878.64 4311.08
  -2  -1  -413067.15 3160.85
   2   1   5    5.04   16.35
   2   1   5    8.95    9.41
   2   1   5   35.68   18.20
   2   1   5   16.09    9.12
   2   1   5   11.13   11.59
   2   1   5   36.28   19.51
  -2  -1  -5    3.65   11.08
  -2  -1  -5    3.66   12.53
  -2  -1  -5   13.34    7.78
  -2  -1  -5   16.60    9.04
  -2  -1  -5    9.25    5.21
   2   1   6 1292.00  299.70
   2   1   6 1427.91  328.46
   2   1   6 1174.51  268.95
  -2  -1  -6 1252.11  286.17
  -2  -1  -6 1093.36  252.85
   2   1   7  273.77   80.25
   2   1   7  252.65   61.82
   2   1   7  284.63   81.91
  -2  -1  -7  284.41   71.21
  -2  -1  -7  272.27   71.32
   2   1   8  122.07   38.84
   2   1   8  129.79   42.68
  -2  -1  -8  113.76   34.96
  -2  -1  -8  116.17   31.37
   2   1   9  440.80  104.10
   2   1   9  468.35  112.33
  -2  -1  -9  502.65  116.14
  -2  -1  -9  382.14   84.72
   2   2  -8  833.63  179.01
  -2  -2   8  914.90  204.41
   2   2  -7  696.07  150.47
   2   2  -7  906.44  198.65
   2   2  -7 1104.59  243.40
  -2  -2   7 1060.28  246.52
   2   2  -6  343.12   76.27
   2   2  -6  348.24   76.88
   2   2  -6  313.15   69.21
  -2  -2   6  249.49   58.24
  -2  -2   6  300.63   72.57
   2   2  -5 3991.08  928.27
   2   2  -5 5464.81 1256.93
   2   2  -5 5667.82 1321.61
  -2  -2   5 4285.62 1000.00
  -2  -2   5 4069.48  955.33
   2   2  -4 2486.15  567.38
   2   2  -4 2508.94  566.75
  -2  -2   4 2683.95  610.76
  -2  -2   4 3097.18  708.53
  -2  -2   4 3535.84  805.17
   2   2  -3 3595.57  797.29
   2   2  -3 3954.48  892.75
   2   2  -3 3952.47  883.96
   2   2  -3 2895.68  680.50
  -2  -2   3 1929.04  456.03
  -2  -2   3 3872.73  860.71
  -2  -2   3 3229.50  724.78
  -2  -2   3 4149.16  929.38
  -2  -2   3 2980.64  673.69
   2   2  -2 2005.92  439.40
   2   2  -2 1946.96  424.68
   2   2  -2 2123.35  479.30
   2   2  -2 2009.61  433.94
   2   2  -2 1928.46  412.22
   2   2  -2 2046.27  451.81
  -2  -2   2 1762.27  380.50
  -2  -2   2 1612.13  355.68
  -2  -2   2 1725.40  375.34
  -2  -2   2 2032.36  439.57
  -2  -2   2 1055.29  241.71
   2   2  -1 3473.43  771.42
   2   2  -1 3013.52  665.24
   2   2  -1 3010.34  670.26
   2   2  -1 3085.79  685.72
  -2  -2   1 2994.27  666.30
  -2  -2   1 2729.96  596.70
  -2  -2   1 2743.15  602.10
  -2  -2   1 3414.08  750.78
  -2  -2   1 1773.40  399.57
  -2  -2   1 3025.48  662.62
   2   2   0  600.51  129.24
   2   2   0  682.21  148.78
   2   2   0  622.85  135.37
   2   2   0  613.16  137.77
  -2  -2   0  549.90  114.04
  -2  -2   0  533.96  123.06
  -2  -2   0  594.08  127.49
  -2  -2   0  539.34  115.57
  -2  -2   0  466.96   92.74
  -2  -2   0  836.40  164.67
  -2  -2   0  615.96  140.65
   2   2   1  793.53  168.85
   2   2   1 1020.25  219.41
   2   2   1  906.31  193.49
   2   2   1  888.39  191.06
   2   2   1 1368.29  302.82
   2   2   1  923.58  192.11
   2   2   1 1013.78  215.52
  -2  -2  -1  936.89  196.74
  -2  -2  -1  833.44  179.77
  -2  -2  -1  904.50  197.66
  -2  -2  -1  954.88  205.11
  -2  -2  -1  991.73  214.14
   2   2   2 1029.02  224.00
   2   2   2 1120.36  241.91
   2   2   2  927.21  199.40
   2   2   2 1427.60  332.52
   2   2   2 1538.62  351.74
   2   2   2 1060.37  224.87
   2   2   2 1576.31  347.57
  -2  -2  -2  977.86  208.46
  -2  -2  -2  961.30  211.26
  -2  -2  -2 1041.40  230.80
  -2  -2  -2  921.81  205.48
  -2  -2  -2  944.16  201.93
  -2  -2  -2 1112.85  241.85
   2   2   3 1305.97  287.09
   2   2   3 1452.43  313.72
   2   2   3 2151.12  483.90
   2   2   3 1707.88  379.03
   2   2   3 1545.14  327.62
   2   2   3  975.74  234.86
  -2  -2  -3 1511.14  336.90
  -2  -2  -3 1740.77  379.30
  -2  -2  -3 1792.20  410.54
  -2  -2  -3 1216.54  271.07
  -2  -2  -3 1227.56  263.79
  -2  -2  -3 1734.75  379.83
   2   2   4 3376.12  751.66
   2   2   4 4109.86  946.64
   2   2   4 2094.02  487.09
   2   2   4 4291.98  956.76
   2   2   4 2538.98  581.16
   2   2   4 2917.15  638.75
   2   2   4 1947.74  456.22
  -2  -2  -4 2682.20  624.30
  -2  -2  -4 3790.53  872.20
  -2  -2  -4 2715.93  600.51
  -2  -2  -4 3179.63  726.42
   2   2   5   26.76   18.21
   2   2   5   44.51   17.53
   2   2   5   32.49   12.96
   2   2   5   25.66    8.18
   2   2   5   41.25   27.90
  -2  -2  -5    8.44   14.09
  -2  -2  -5    8.40   16.10
  -2  -2  -5   10.01    9.24
   2   2   6 3564.70  821.36
   2   2   6 2832.38  652.68
   2   2   6 4372.75  997.45
  -2  -2  -6 2282.35  538.34
  -2  -2  -6 2776.89  649.33
   2   2   7    1.93   10.84
   2   2   7    0.57   11.18
  -2  -2  -7    0.87   16.52
  -2  -2  -7    0.58    9.87
   2   2   8 1598.24  378.27
   2   2   8 1617.99  384.45
  -2  -2  -8 1997.32  470.45
  -2  -2  -8 1799.87  418.58
   2   2   9   90.46   29.76
   2   2   9   99.05   32.32
  -2  -2  -9   98.39   30.95
  -2  -2  -9   90.81   25.85
   2   3  -8  264.52   57.59
  -2  -3   8  277.28   64.03
   2   3  -7   12.49   12.57
  -2  -3   7   12.01    5.75
  -2  -3   7   12.90   10.46
   2   3  -6 2198.90  489.25
  -2  -3   6 1889.71  434.23
  -2  -3   6 1594.51  365.83
   2   3  -5   39.94   15.76
  -2  -3   5   44.02   22.26
  -2  -3   5   57.15   18.81
  -2  -3   5   37.36   23.78
   2   3  -4 2396.72  542.74
   2   3  -4 1840.95  413.79
  -2  -3   4 2662.43  597.49
  -2  -3   4 3172.55  718.42
  -2  -3   4 1701.64  401.25
   2   3  -3  782.01  169.52
   2   3  -3  880.65  194.04
  -2  -3   3 1072.81  243.67
  -2  -3   3  939.88  214.87
  -2  -3   3  872.36  191.90
   2   3  -2 7100.48 1644.80
   2   3  -2 7091.41 1661.15
   2   3  -2 7000.11 1647.84
  -2  -3   2 6360.24 1489.71
  -2  -3   2 5977.86 1392.06
  -2  -3   2 8019.37 1876.56
  -2  -3   2 5135.17 1206.37
   2   3  -1 6024.60 1399.77
   2   3  -1 4994.62 1147.10
   2   3  -1 6632.14 1541.96
  -2  -3   1 5385.40 1224.98
  -2  -3   1 5267.35 1219.77
  -2  -3   1 5060.39 1164.69
  -2  -3   1 6304.73 1449.48
  -2  -3   1 5243.89 1194.46
   2   3   010695.53 2558.28
   2   3   012612.53 3025.32
   2   3   010870.08 2598.68
   2   3   011642.24 2779.73
  -2  -3   0 9763.33 2333.93
  -2  -3   0 8606.35 2064.70
  -2  -3   011879.51 2844.06
  -2  -3   0 9724.62 2330.99
   2   3   1 1496.35  320.29
   2   3   1 1832.02  402.64
   2   3   1 2182.69  466.38
   2   3   1 2033.08  443.47
   2   3   1 1911.21  422.15
   2   3   1 1979.21  432.50
  -2  -3  -1 1961.34  426.76
  -2  -3  -1 1755.33  388.49
  -2  -3  -1 1772.83  400.24
  -2  -3  -1 2765.47  617.18
  -2  -3  -1 2134.13  467.82
  -2  -3  -1 2006.38  450.01
   2   3   2 2446.89  538.21
   2   3   2 2129.33  476.78
   2   3   2 2249.89  528.17
   2   3   2 3090.70  694.12
   2   3   2 2303.97  507.97
   2   3   2 3704.53  821.89
   2   3   2 3015.43  668.61
  -2  -3  -2 2267.04  509.37
  -2  -3  -2 2517.89  565.31
  -2  -3  -2 2460.65  548.20
  -2  -3  -2 2687.23  625.35
  -2  -3  -2 2909.41  651.29
   2   3   3 2799.98  618.74
   2   3   3 2636.78  578.06
   2   3   3 2168.66  523.12
   2   3   3 1880.95  424.22
   2   3   3 2997.33  652.87
   2   3   3 2922.22  633.85
  -2  -3  -3 2440.22  547.07
  -2  -3  -3 1347.79  318.01
  -2  -3  -3 2885.57  653.78
  -2  -3  -3 1552.85  353.83
  -2  -3  -3 2282.98  493.80
  -2  -3  -3 3138.27  698.09
   2   3   4  750.77  164.76
   2   3   4 1047.85  235.82
   2   3   4  906.38  211.07
   2   3   4  808.89  191.67
   2   3   4  610.93  139.21
   2   3   4  724.22  154.47
  -2  -3  -4  750.79  176.03
  -2  -3  -4  797.92  188.53
  -2  -3  -4  626.47  145.47
  -2  -3  -4  779.68  189.28
   2   3   5 1000.45  221.90
   2   3   5  806.95  188.64
  -2  -3  -5  701.47  174.24
  -2  -3  -5 1013.70  223.99
   2   3   6  887.70  200.63
   2   3   6  859.40  195.06
   2   3   6  950.95  208.11
  -2  -3  -6  370.07   98.15
  -2  -3  -6  598.77  144.96
  -2  -3  -6  735.64  163.76
   2   3   7  622.19  146.72
   2   3   7  766.81  177.66
  -2  -3  -7  584.00  142.00
  -2  -3  -7  572.34  144.85
   2   3   8 1212.62  288.06
   2   3   8 1297.25  300.41
  -2  -3  -8 1392.64  321.94
  -2  -3  -8 1350.37  320.84
   2   3   9  166.92   44.92
   2   3   9  188.39   60.50
  -2  -3  -9  172.29   45.62
  -2  -3  -9  165.33   43.76
   2   4  -7 1985.36  439.63
  -2  -4   7 1796.31  401.04
  -2  -4   7 1991.99  457.85
   2   4  -6  135.01   35.87
  -2  -4   6  135.34   35.07
  -2  -4   6  106.63   34.59
  -2  -4   5 2210.01  497.87
  -2  -4   5 1983.34  442.72
  -2  -4   5 1199.97  291.08
   2   4  -4  114.36   34.72
  -2  -4   4  126.31   38.25
  -2  -4   4  196.73   48.68
   2   4  -3  708.25  157.26
  -2  -4   3  712.69  170.77
  -2  -4   3  750.26  166.97
  -2  -4   2  507.12  114.88
  -2  -4   2  484.09  107.18
  -2  -4   2  574.43  136.26
   2   4  -1  220.28   54.87
   2   4  -1  162.34   35.19
   2   4  -1  212.49   58.89
  -2  -4   1  197.14   53.76
  -2  -4   1  195.37   46.68
  -2  -4   1  281.84   78.59
   2   4   0 2890.94  654.48
   2   4   0 3238.06  719.30
   2   4   0 2948.85  663.96
   2   4   0 3081.92  692.58
  -2  -4   0 2766.63  630.70
  -2  -4   0 3061.60  691.04
  -2  -4   0 2331.05  521.81
  -2  -4   0 3040.48  690.72
  -2  -4   0 2562.77  581.40
   2   4   1  949.49  210.32
   2   4   1 1494.65  324.04
   2   4   1  951.41  207.16
   2   4   1 1202.25  261.59
  -2  -4  -1  832.63  182.81
  -2  -4  -1 1519.72  341.50
  -2  -4  -1  969.49  215.46
  -2  -4  -1  915.44  203.98
  -2  -4  -1 1005.95  230.38
   2   4   2 5893.18 1328.98
   2   4   2 4866.66 1117.51
   2   4   2 3984.67  902.81
   2   4   2 3241.71  751.54
   2   4   2 5146.70 1165.86
  -2  -4  -2 4333.75  996.71
  -2  -4  -2 4018.63  922.43
  -2  -4  -2 4023.27  959.42
  -2  -4  -2 5043.23 1159.25
   2   4   3  433.00   96.04
   2   4   3  582.01  141.76
   2   4   3  356.69   83.18
   2   4   3  523.26  113.19
  -2  -4  -3  381.49   90.48
  -2  -4  -3  415.04   96.87
  -2  -4  -3  217.92   61.27
  -2  -4  -3  465.02  109.47
   2   4   4 4596.22 1074.86
   2   4   4 5294.79 1232.62
  -2  -4  -4 4422.48 1051.81
  -2  -4  -4 5074.07 1209.17
  -2  -4  -4 4384.07 1032.68
  -2  -4  -4 4781.91 1141.77
   2   4   5  786.73  181.72
   2   4   5 1159.28  253.65
  -2  -4  -5  966.28  237.75
  -2  -4  -5  507.69  140.29
  -2  -4  -5 1187.45  262.21
   2   4   6 3070.35  699.66
   2   4   6 3354.20  752.17
  -2  -4  -6 1606.56  393.08
  -2  -4  -6 2674.98  610.72
   2   4   7  318.19   76.86
   2   4   7  310.91   73.41
   2   4   7  419.36  109.68
  -2  -4  -7  304.05   79.69
  -2  -4  -7  339.85   94.92
  -2  -4  -7  316.08   72.65
   2   4   8  405.41  100.95
   2   4   8  491.32  116.40
  -2  -4  -8  456.56  114.44
  -2  -4  -8  489.57  116.76
   2   4   9   69.80   21.55
   2   4   9   85.61   32.82
  -2  -4  -9   77.63   22.84
  -2  -4  -9   71.71   24.03
   2   5  -6  530.42  116.55
  -2  -5   6  480.47  107.70
  -2  -5   5 2630.54  613.78
  -2  -5   4  210.74   56.75
  -2  -5   4  276.65   66.62
   2   5  -3 3607.50  843.40
  -2  -5   3 4617.50 1073.95
  -2  -5   3 4080.86  953.72
  -2  -5   2  611.67  139.27
  -2  -5   2  638.64  143.49
  -2  -5   2  876.80  216.57
  -2  -5   1 4226.27  981.89
  -2  -5   1 5017.51 1157.03
  -2  -5   1 4376.39 1043.08
  -2  -5   0   87.53   23.78
  -2  -5   0   71.60   22.61
  -2  -5   0   58.82   24.40
  -2  -5   0   77.71   24.33
  -2  -5  -1 1429.58  322.31
  -2  -5  -1 1748.93  399.49
  -2  -5  -1 1318.65  300.07
  -2  -5  -2 1255.58  281.26
  -2  -5  -2 1013.24  245.02
  -2  -5  -2 1088.61  240.34
  -2  -5  -2 1314.51  296.94
  -2  -5  -3  522.79  125.76
  -2  -5  -3  224.22   62.79
  -2  -5  -3  470.12  105.11
  -2  -5  -3  567.59  131.50
   2   5   4 2011.94  464.73
  -2  -5  -4 2036.43  471.88
  -2  -5  -4 1991.11  461.67
  -2  -5  -4 2047.18  473.89
  -2  -5  -4 1926.26  455.24
   2   5   5  184.56   46.21
  -2  -5  -5  156.73   47.76
  -2  -5  -5  194.00   53.11
  -2  -5  -5  133.25   44.05
   2   5   6 2530.10  575.31
  -2  -5  -6 2688.87  613.02
  -2  -5  -6 1882.82  438.22
   2   5   7   46.38   22.62
   2   5   7   51.94   18.14
  -2  -5  -7   43.74   19.03
  -2  -5  -7   40.83   19.84
  -2  -5  -7   47.27   16.81
   2   5   8 1518.94  356.53
   2   5   8 2114.48  480.56
  -2  -5  -8 2096.16  471.14
  -2  -5  -8 2021.57  459.34
  -2  -5  -8 1760.04  390.18
   2   5   9  116.03   36.25
  -2  -5  -9  120.07   31.28
   2   6  -5   21.49   12.44
  -2  -6   5   10.94   10.25
  -2  -6   4  882.89  204.48
  -2  -6   4 1107.19  257.01
  -2  -6   3  296.62   73.41
  -2  -6   3  311.02   74.24
   2   6  -2 3474.01  807.39
  -2  -6   2 2471.10  570.96
  -2  -6   2 2272.11  521.46
  -2  -6   1 1027.19  232.33
  -2  -6   1 1095.15  243.47
  -2  -6   1 1088.99  249.73
  -2  -6   0 2463.18  560.85
  -2  -6   0 2249.83  520.84
  -2  -6  -1 4731.57 1103.33
  -2  -6  -1 4963.38 1183.95
  -2  -6  -1 4572.72 1076.79
  -2  -6  -2 4616.15 1079.05
  -2  -6  -2 3329.66  803.65
  -2  -6  -2 4124.42  973.11
  -2  -6  -3 1278.71  300.27
  -2  -6  -3 1311.80  302.09
  -2  -6  -4 1185.03  274.01
  -2  -6  -4 1066.55  249.78
  -2  -6  -4 1059.69  254.90
   2   6   5  634.23  142.89
  -2  -6  -5  720.08  165.33
  -2  -6  -5  501.32  127.65
  -2  -6  -5  445.95  112.15
   2   6   6   51.77   15.59
  -2  -6  -6   15.02   10.52
  -2  -6  -6   62.37   23.60
  -2  -6  -6   14.99   11.82
  -2  -6  -6   64.92   21.88
   2   6   7  491.67  111.23
   2   6   7  548.86  127.23
  -2  -6  -7  405.07   92.58
  -2  -6  -7  388.17   91.38
  -2  -6  -7  464.17  105.09
   2   6   8  158.79   37.99
  -2  -6  -8  190.55   49.96
  -2  -6  -8  187.11   44.75
   2   7  -4    2.70    6.95
  -2  -7   4    1.90    8.07
  -2  -7   3  813.65  183.49
  -2  -7   3  842.86  187.94
  -2  -7   2   38.50   16.25
  -2  -7   2   34.43   14.13
  -2  -7   1  235.50   54.76
  -2  -7   1  137.52   40.15
  -2  -7   0  851.53  192.98
  -2  -7   0  908.51  201.06
  -2  -7  -1   71.96   24.55
  -2  -7  -1    4.64   10.96
  -2  -7  -2  794.74  178.37
  -2  -7  -2  629.13  152.15
  -2  -7  -2  802.89  186.05
  -2  -7  -3 1158.90  263.13
  -2  -7  -3 1310.28  305.42
  -2  -7  -4  876.45  200.02
  -2  -7  -4  926.41  214.97
  -2  -7  -4 1062.53  259.29
  -2  -7  -5  196.63   52.11
  -2  -7  -5  855.11  176.40
  -2  -7  -5  168.75   57.55
   2   7   6 1722.40  385.57
  -2  -7  -6 1254.28  292.14
   2   7   7  415.22   92.79
  -2  -7  -7  418.23   92.77
  -2  -8   1 1498.97  330.67
  -2  -8   0  127.68   31.34
  -2  -8  -1 1959.23  441.56
  -2  -8  -2   20.30   19.22
   2   8   3  384.35   95.00
  -2  -8  -3  413.43   98.37
   2   8   4  449.70  105.39
  -2  -8  -4  284.02   71.84
   2   8   5   79.61   24.95
  -2  -8  -5   22.93   13.76
   3  -6  -1  486.05  112.05
  -3   6   1  600.34  141.30
   3  -6   0 2182.18  500.16
  -3   6   0 2828.55  639.06
   3  -6   1  163.76   56.64
  -3   6  -1  160.35   49.10
   3  -5  -4  535.70  122.26
  -3   5   4  231.83   58.74
  -3   5   4  213.98   56.49
   3  -5  -3 1062.84  255.52
   3  -5  -3  877.45  197.26
  -3   5   3  965.12  226.58
   3  -5  -2   22.75   25.65
   3  -5  -2   34.28   14.86
  -3   5   2   30.36   16.87
   3  -5  -1  653.25  152.99
   3  -5  -1 1549.47  366.61
  -3   5   1  575.74  133.63
   3  -5   0  658.19  156.84
   3  -5   0  575.19  136.21
   3  -5   1 1580.19  347.73
   3  -5   1 1397.12  307.17
   3  -5   1  539.53  136.39
   3  -5   2  966.02  225.61
   3  -5   2  763.39  188.48
   3  -5   3  646.95  175.06
   3  -5   3  741.08  185.85
   3  -5   4  578.04  144.16
   3  -5   4  790.18  193.63
   3  -4  -6 1209.36  262.75
  -3   4   6 1560.61  339.26
  -3   4   6 2009.77  434.67
   3  -4  -5   33.55   18.27
   3  -4  -5   22.59   17.08
  -3   4   5   32.90   13.27
  -3   4   5   62.08   19.54
  -3   4   5   24.77   17.89
   3  -4  -4 4871.15 1169.74
  -3   4   4 4578.76 1083.09
   3  -4  -3  254.94  114.21
   3  -4  -3  232.47   59.76
   3  -4  -3  271.43   64.47
  -3   4   3  288.06   72.98
   3  -4  -2 5562.71 1366.84
   3  -4  -2 5459.49 1281.85
   3  -4  -2 5206.78 1232.19
  -3   4   2 4444.61 1046.02
   3  -4  -1   22.89   19.19
   3  -4  -1   36.25   36.81
   3  -4  -1   25.74   12.23
   3  -4  -1   39.00   18.57
   3  -4   0  756.44  175.37
   3  -4   0  604.96  169.94
   3  -4   0  703.64  157.81
   3  -4   0  635.32  154.05
   3  -4   1  301.27   84.16
   3  -4   1  350.86   88.76
   3  -4   1  140.72   58.42
   3  -4   2   89.45   36.48
   3  -4   2   81.19   35.15
   3  -4   2   65.68   26.70
  -3   4  -2   91.09   29.08
   3  -4   3 1323.07  318.02
   3  -4   3 1096.39  270.22
  -3   4  -3 1378.03  335.35
   3  -4   4  291.78   81.10
   3  -4   4  174.35   59.21
  -3   4  -4   82.52   37.98
   3  -4   5  456.34  112.08
   3  -4   5  431.49  108.41
  -3   4  -5  602.30  140.56
   3  -4   6  759.96  170.00
   3  -4   6  756.08  169.43
  -3   4  -6  780.03  172.09
   3  -3  -6   22.11    9.48
   3  -3  -6   19.37   11.19
  -3   3   6   25.36   11.53
  -3   3   6   22.00   14.00
   3  -3  -5  433.52   99.00
   3  -3  -5  657.64  154.26
   3  -3  -5  600.20  138.15
  -3   3   5  524.17  122.59
  -3   3   5  628.42  143.74
  -3   3   5  585.42  141.85
   3  -3  -4  464.38  138.44
   3  -3  -4  434.69  105.84
   3  -3  -4  501.51  113.10
   3  -3  -4  421.85  102.93
  -3   3   4  538.11  141.86
   3  -3  -3 1272.97  308.07
   3  -3  -3 1140.92  263.68
   3  -3  -3  908.67  203.37
  -3   3   3 1073.48  244.29
   3  -3  -2 2929.52  690.24
   3  -3  -2 1986.33  448.91
   3  -3  -2 1900.27  430.39
  -3   3   2 1670.86  378.95
   3  -3  -1   55.57   25.71
   3  -3  -1   65.59   53.66
   3  -3  -1   35.02   14.51
   3  -3  -1   34.30   15.22
   3  -3   0 4995.02 1190.75
   3  -3   0 7437.28 1810.50
   3  -3   0 5955.85 1417.38
   3  -3   0 6696.09 1582.42
   3  -3   1  396.51  100.27
   3  -3   1  236.39   77.32
   3  -3   1  355.15   90.46
   3  -3   1  372.16   90.58
  -3   3  -1  405.09   94.28
   3  -3   2 2778.52  693.45
   3  -3   2 3657.79  859.09
   3  -3   2 4191.67  984.63
   3  -3   2 3917.92  945.21
  -3   3  -2 4862.47 1139.58
   3  -3   3  112.91   43.72
   3  -3   3  109.22   43.86
   3  -3   3  121.65   49.91
  -3   3  -3  130.08   48.17
   3  -3   4 1984.39  480.20
   3  -3   4 1160.85  288.20
   3  -3   4 1820.82  443.75
   3  -3   5   62.01   43.88
   3  -3   5  133.49   60.60
  -3   3  -5  150.07   43.83
   3  -3   6  239.21   68.64
   3  -3   6  279.94   76.46
  -3   3  -6  292.06   80.19
   3  -3   7  205.76   49.07
   3  -3   7  246.24   61.92
  -3   3  -7  241.07   56.53
   3  -2  -7 1224.25  265.02
   3  -2  -7 1151.67  250.16
  -3   2   7  836.89  185.56
  -3   2   7  961.95  210.40
   3  -2  -6 1459.75  323.21
   3  -2  -6 1498.31  340.47
  -3   2   6 1748.79  391.44
  -3   2   6 1871.54  419.98
   3  -2  -5  705.22  168.26
   3  -2  -5  809.69  179.23
   3  -2  -5  699.01  158.39
  -3   2   5  746.17  178.08
   3  -2  -4 1592.37  378.27
   3  -2  -4 1631.14  373.01
   3  -2  -4 2045.31  459.76
   3  -2  -4 1450.42  330.56
  -3   2   4 1381.26  324.32
   3  -2  -3 1730.73  411.20
   3  -2  -3 1352.22  302.79
   3  -2  -3 1538.76  345.90
   3  -2  -3 1104.44  243.10
   3  -2  -3  903.69  212.66
  -3   2   3 1352.01  302.80
   3  -2  -2   26.44   21.39
   3  -2  -2   15.90    8.77
   3  -2  -2   14.61   10.74
   3  -2  -2   12.91    8.69
   3  -2  -2   21.47   11.23
  -3   2   2   15.33   10.43
   3  -2  -1 2113.74  482.25
   3  -2  -1 2852.16  663.92
   3  -2  -1 2230.43  511.77
   3  -2  -1 2309.97  527.43
   3  -2   0  544.09  129.94
   3  -2   0  788.05  201.09
   3  -2   0  549.82  126.49
   3  -2   0  587.58  135.16
  -3   2   0  602.50  132.74
   3  -2   1  532.70  126.11
   3  -2   1  541.06  135.51
   3  -2   1  554.33  138.14
   3  -2   1  581.92  162.18
  -3   2  -1  581.80  133.20
   3  -2   2 2637.82  593.26
   3  -2   2 2677.36  604.10
   3  -2   2 2544.25  579.39
   3  -2   2 1064.82  284.92
  -3   2  -2 3322.57  744.53
   3  -2   3  760.02  183.27
   3  -2   3  790.48  195.05
   3  -2   3  638.64  164.04
   3  -2   3  838.54  210.77
  -3   2  -3  897.71  222.35
   3  -2   4 5312.65 1301.60
   3  -2   4 6276.84 1522.44
   3  -2   4 5425.99 1355.74
   3  -2   5  453.35  136.35
   3  -2   5  508.68  175.59
   3  -2   5  818.12  199.90
  -3   2  -5  760.77  177.48
   3  -2   6 1139.73  272.53
   3  -2   6 1541.32  384.61
   3  -2   6 1479.70  345.79
  -3   2  -6 1789.87  403.80
   3  -2   7   64.79   19.20
   3  -2   7   83.95   31.58
   3  -2   7   78.66   24.63
  -3   2  -7   79.75   33.24
   3  -2   8  651.03  147.96
  -3   2  -8  682.11  146.49
   3  -1  -7   11.79   12.69
   3  -1  -7   13.07   13.78
  -3   1   7    7.58   13.52
  -3   1   7   11.67   13.92
   3  -1  -6 1546.49  346.48
   3  -1  -6 1642.57  365.74
  -3   1   6 1556.50  352.29
  -3   1   6 1521.68  344.03
   3  -1  -5  469.71  115.74
   3  -1  -5  293.20   76.97
   3  -1  -5  404.77   93.98
  -3   1   5  387.81   94.95
   3  -1  -4 7002.02 1668.32
   3  -1  -4 6872.49 1604.02
   3  -1  -4 5949.21 1393.77
   3  -1  -4 5150.21 1203.39
  -3   1   4 3989.25  962.02
   3  -1  -3  410.63   97.33
   3  -1  -3  243.37   65.09
   3  -1  -3  317.38   72.97
   3  -1  -3  333.70   78.21
  -3   1   3  328.90   78.21
   3  -1  -210902.03 2616.86
   3  -1  -2 7593.21 1811.56
   3  -1  -2 9628.47 2290.84
   3  -1  -2 8547.92 2023.81
   3  -1  -2 7805.08 1876.96
  -3   1   2 8521.54 2026.75
  -3   1   2 9778.72 2340.28
   3  -1  -1 1654.95  365.92
   3  -1  -1 1619.46  358.57
   3  -1  -1 1564.32  350.06
   3  -1  -1 1554.80  344.44
   3  -1  -1  946.87  222.15
   3  -1  -1 2051.63  463.22
   3  -1  -1 1454.92  318.59
   3  -1  -1 1521.57  335.38
  -3   1   1 1402.77  306.01
  -3   1   1 1859.19  415.91
   3  -1   0 5399.34 1261.86
   3  -1   0 5367.03 1255.72
   3  -1   0 5739.41 1353.36
   3  -1   0 7178.53 1667.48
   3  -1   0 5525.52 1288.81
   3  -1   0 8257.66 1953.43
  -3   1   0 6700.11 1564.59
  -3   1   0 6361.74 1481.86
  -3   1   0 6231.51 1457.01
   3  -1   1  652.87  146.88
   3  -1   1  644.53  149.72
   3  -1   1  638.32  137.85
   3  -1   1  625.90  136.71
   3  -1   1  620.73  141.43
   3  -1   1  797.79  192.20
  -3   1  -1  795.72  183.25
  -3   1  -1  719.73  161.86
  -3   1  -1  677.39  157.19
   3  -1   2 1684.64  383.93
   3  -1   2 1725.25  401.42
   3  -1   2 1721.51  398.76
   3  -1   2 1316.92  323.22
  -3   1  -2 2044.90  470.81
  -3   1  -2 1734.88  383.88
   3  -1   3 1231.73  282.35
   3  -1   3 1305.76  293.39
   3  -1   3 1259.15  290.99
   3  -1   3  542.93  141.95
  -3   1  -3 1261.60  292.71
   3  -1   4  316.47   88.90
   3  -1   4  336.85   96.57
   3  -1   4  257.13   65.59
   3  -1   4  336.28   87.93
   3  -1   5  862.69  220.96
   3  -1   5  988.83  235.85
   3  -1   5  667.03  187.07
  -3   1  -5  596.30  144.15
   3  -1   6  382.54  103.16
   3  -1   6  491.73  130.90
   3  -1   6  463.55  112.99
  -3   1  -6  559.20  129.20
   3  -1   7  668.59  158.99
   3  -1   7  719.83  175.54
   3  -1   7  604.91  140.68
  -3   1  -7  676.74  157.93
   3  -1   8  659.08  149.59
   3  -1   8  708.18  164.65
   3  -1   8  564.72  130.18
  -3   1  -8  652.98  141.10
   3   0  -7 1355.62  299.48
   3   0  -7 1493.57  329.83
  -3   0   7 1947.77  435.14
  -3   0   7 1527.23  342.83
   3   0  -6   41.01   20.78
   3   0  -6   68.34   27.91
  -3   0   6   22.41   10.97
  -3   0   6   10.52    9.87
   3   0  -5 1179.85  263.39
   3   0  -5 1552.32  350.12
  -3   0   5 1313.83  297.85
   3   0  -4    2.68    8.71
   3   0  -4    2.73    9.77
   3   0  -4    3.39    8.87
  -3   0   4    1.44   10.87
   3   0  -3  466.80  106.57
   3   0  -3  450.73  100.98
   3   0  -3  454.09  102.85
   3   0  -3  485.13  115.88
  -3   0   3  374.79   90.57
   3   0  -2 1823.19  411.87
   3   0  -2 2121.00  472.60
   3   0  -2 3461.17  780.61
   3   0  -2 2724.15  613.91
  -3   0   2 2141.04  476.10
  -3   0   2 2481.33  552.15
  -3   0   2 2283.31  521.76
   3   0  -1  420.84   94.78
   3   0  -1  449.30   99.40
   3   0  -1  306.56   65.79
   3   0  -1  423.47   96.73
   3   0  -1  478.95  113.52
   3   0  -1  503.15  115.75
   3   0  -1  413.40   92.07
  -3   0   1  426.58   98.96
  -3   0   1  392.07   84.45
  -3   0   1  322.33   82.44
  -3   0   1  410.36   88.96
  -3   0   1  382.17   82.32
  -3   0   1  414.81   93.01
   3   0   0 3612.20  812.36
   3   0   0 3009.31  679.51
   3   0   0 3765.37  858.57
   3   0   0 3793.46  859.74
   3   0   0 2672.85  635.35
   3   0   0 3436.50  776.43
   3   0   0 4852.12 1115.95
   3   0   0 3372.16  760.88
  -3   0   0 4068.05  932.68
  -3   0   0 4080.95  918.89
  -3   0   0 4230.80  974.52
  -3   0   0 3494.59  794.05
  -3   0   0 3636.94  825.57
   3   0   1  490.23  107.79
   3   0   1  472.31  109.57
   3   0   1  482.12  106.11
   3   0   1  539.28  124.77
   3   0   1  684.53  163.94
   3   0   1  438.44   98.06
  -3   0  -1  486.21  110.84
  -3   0  -1  535.08  120.30
  -3   0  -1  538.88  121.51
  -3   0  -1  494.92  108.23
  -3   0  -1  498.31  108.23
   3   0   2 5249.71 1223.63
   3   0   2 5901.61 1391.92
   3   0   2 5632.15 1304.23
   3   0   2 6766.80 1586.17
   3   0   2 5782.53 1358.62
   3   0   2 6702.30 1617.31
  -3   0  -2 5002.15 1173.91
  -3   0  -2 6030.00 1413.22
  -3   0  -2 6451.72 1518.82
  -3   0  -2 6485.06 1517.74
  -3   0  -2 7090.88 1650.55
  -3   0  -2 5733.43 1326.50
   3   0   3   15.77   18.63
   3   0   3   14.87   21.31
   3   0   3   10.13    7.88
   3   0   3   15.59   15.99
   3   0   3    3.90   21.70
   3   0   3   17.81   10.26
  -3   0  -3   15.78   22.47
  -3   0  -3   15.72   11.20
  -3   0  -3   11.73   27.94
  -3   0  -3   19.21    7.58
   3   0   4 5164.36 1246.34
   3   0   4 5037.16 1222.32
   3   0   4 3417.19  826.69
   3   0   4 4822.04 1135.27
  -3   0  -4 5225.55 1233.64
  -3   0  -4 4762.09 1121.87
   3   0   5    7.79   44.06
   3   0   5    4.10   43.63
   3   0   5    4.77   18.08
  -3   0  -5    5.53   13.16
  -3   0  -5    6.67   11.43
   3   0   6  315.10  100.63
   3   0   6  423.31  126.60
  -3   0  -6  261.47   69.20
  -3   0  -6  434.27  104.33
   3   0   7  432.28  119.52
   3   0   7  465.14  130.20
  -3   0  -7  480.61  117.62
  -3   0  -7  423.21   96.86
   3   0   8   10.46   13.17
   3   0   8   16.12   16.53
  -3   0  -8   11.68    9.65
   3   0   9  176.53   43.33
   3   0   9  183.02   47.15
   3   1  -7 1377.86  300.23
   3   1  -7 1607.42  356.43
  -3  -1   7 1310.10  294.50
   3   1  -6 2565.60  573.58
   3   1  -6 1829.02  406.06
  -3  -1   6 1563.31  355.29
  -3  -1   6 1995.54  455.39
   3   1  -5 3276.52  749.99
   3   1  -5 3183.68  720.09
  -3  -1   5 2908.02  668.80
  -3  -1   5 2610.13  597.42
   3   1  -4 2040.42  467.29
   3   1  -4 2133.55  489.67
   3   1  -4 3832.04  872.58
  -3  -1   4 2228.85  512.89
  -3  -1   4 2763.11  621.88
   3   1  -3 2142.06  478.71
   3   1  -3 2328.58  520.17
   3   1  -3 1999.89  459.88
  -3  -1   3 1892.08  423.48
  -3  -1   3 2517.52  568.66
   3   1  -2 1338.16  292.36
   3   1  -2 1533.16  349.08
   3   1  -2 1835.31  410.13
   3   1  -2 1508.05  341.10
   3   1  -2 1738.42  383.88
   3   1  -2 1599.31  367.46
  -3  -1   2 1569.94  351.14
  -3  -1   2 1686.66  368.25
  -3  -1   2 1167.38  269.83
  -3  -1   2 1503.48  334.89
   3   1  -1 2484.27  545.37
   3   1  -1 2394.74  537.03
   3   1  -1 2597.71  589.12
   3   1  -1 2980.97  672.26
   3   1  -1 3014.63  680.86
   3   1  -1 3013.56  681.79
   3   1  -1 2550.06  574.43
   3   1  -1 2433.11  544.55
  -3  -1   1 2564.75  578.37
  -3  -1   1 2465.34  554.61
  -3  -1   1 2673.99  595.60
  -3  -1   1 2416.21  540.92
   3   1   0  311.21   65.43
   3   1   0  318.81   73.30
   3   1   0  336.54   84.81
   3   1   0  397.43   89.93
   3   1   0  429.73  102.23
   3   1   0  316.43   69.76
  -3  -1   0  297.37   72.66
  -3  -1   0  341.67   80.41
  -3  -1   0  324.15   73.34
  -3  -1   0  314.30   65.55
  -3  -1   0  308.83   67.68
   3   1   1 2303.03  495.62
   3   1   1 1703.18  387.64
   3   1   1 2497.37  558.96
   3   1   1 2174.67  484.00
   3   1   1 1844.39  410.54
   3   1   1 2351.18  546.36
   3   1   1 1737.30  380.91
  -3  -1  -1 1924.07  427.55
  -3  -1  -1 1662.85  363.35
  -3  -1  -1 1894.10  425.47
  -3  -1  -1 2139.31  484.18
  -3  -1  -1 2301.59  506.42
  -3  -1  -1 2143.25  474.84
  -3  -1  -1 1476.83  319.79
   3   1   2 2297.82  500.01
   3   1   2 2074.86  469.87
   3   1   2 2242.55  509.39
   3   1   2 1991.40  441.60
   3   1   2 2028.19  452.46
   3   1   2 2595.58  603.84
   3   1   2 1811.28  391.54
  -3  -1  -2 1943.34  432.78
  -3  -1  -2 2584.92  580.01
  -3  -1  -2 2176.46  491.71
  -3  -1  -2 2210.53  500.18
  -3  -1  -2 1915.28  422.77
  -3  -1  -2 2007.70  452.42
   3   1   3  740.72  168.84
   3   1   3  847.94  188.27
   3   1   3  696.39  156.36
   3   1   3  330.78   99.22
   3   1   3  708.72  173.51
  -3  -1  -3  791.18  181.79
  -3  -1  -3  686.31  151.35
  -3  -1  -3  738.75  168.73
  -3  -1  -3  630.15  147.52
  -3  -1  -3  713.16  156.01
  -3  -1  -3  408.32  100.33
   3   1   4 4333.93 1026.65
   3   1   4 4201.00  990.26
   3   1   4 2441.87  588.68
  -3  -1  -4 3980.99  925.80
  -3  -1  -4 4275.82 1007.30
   3   1   5   33.63   30.66
   3   1   5   11.57   21.73
   3   1   5   14.87   10.86
  -3  -1  -5   12.62   22.87
  -3  -1  -5    8.18    9.41
  -3  -1  -5   16.10   27.37
   3   1   6 5160.48 1236.07
   3   1   6 6873.47 1623.09
  -3  -1  -6 3555.76  861.98
  -3  -1  -6 3591.33  864.84
  -3  -1  -6 5694.78 1320.02
   3   1   7  319.16   85.75
   3   1   7  366.67   96.06
  -3  -1  -7  333.41   82.82
  -3  -1  -7  302.74   76.54
   3   1   8 2081.37  496.15
   3   1   8 1929.43  458.59
  -3  -1  -8 2054.93  472.98
   3   1   9    5.10   11.57
   3   1   9    5.76   11.33
  -3  -1  -9    6.38    9.10
   3   2  -7  156.40   36.82
   3   2  -7  210.40   48.29
  -3  -2   7  195.56   47.09
   3   2  -6 1038.33  230.54
   3   2  -6  831.81  182.26
  -3  -2   6  710.14  162.79
   3   2  -5    0.39    5.33
   3   2  -5    1.24    7.85
   3   2  -5    1.44   13.74
  -3  -2   5    2.95    6.69
  -3  -2   5    0.79    5.56
   3   2  -4  645.42  149.73
   3   2  -4  624.43  146.27
  -3  -2   4  615.66  139.57
  -3  -2   4  653.99  150.69
  -3  -2   4  481.71  111.63
   3   2  -3 1904.31  422.33
   3   2  -3 1834.90  424.37
   3   2  -3 1976.53  436.46
  -3  -2   3 1975.01  443.69
  -3  -2   3 2052.08  457.96
  -3  -2   3 1571.43  357.39
   3   2  -2 5694.11 1313.74
   3   2  -2 6649.40 1549.32
   3   2  -2 6450.62 1509.94
   3   2  -2 6376.01 1484.58
   3   2  -2 5707.33 1328.56
  -3  -2   2 5457.96 1275.98
  -3  -2   2 5714.97 1319.76
  -3  -2   2 5896.11 1376.23
   3   2  -1 1913.37  424.90
   3   2  -1 1524.86  339.02
   3   2  -1 1807.40  406.73
   3   2  -1 1933.34  429.63
   3   2  -1 1888.18  425.44
   3   2  -1 1721.17  376.97
   3   2  -1 1974.42  440.18
   3   2  -1 1752.77  392.73
  -3  -2   1 1700.12  379.01
  -3  -2   1 1702.23  371.69
  -3  -2   1 1803.71  399.31
   3   2   0 7714.47 1818.21
   3   2   0 8213.33 1926.78
   3   2   0 7535.71 1792.23
   3   2   0 8583.57 2031.58
   3   2   0 8526.06 2029.45
   3   2   0 7459.44 1768.47
  -3  -2   0 8575.40 2035.91
  -3  -2   0 6789.79 1603.20
  -3  -2   0 8175.79 1922.60
  -3  -2   0 7920.54 1879.86
  -3  -2   0 7977.03 1886.30
   3   2   1 2335.79  519.44
   3   2   1 2214.31  500.57
   3   2   1 2744.84  616.60
   3   2   1 3391.48  773.42
   3   2   1 2693.42  597.52
  -3  -2  -1 3076.24  690.77
  -3  -2  -1 2234.13  499.69
  -3  -2  -1 2298.45  516.56
  -3  -2  -1 2560.84  588.34
  -3  -2  -1 2735.02  612.56
   3   2   2 2962.59  658.22
   3   2   2 2520.72  572.18
   3   2   2 2569.78  575.53
   3   2   2 2715.82  610.40
   3   2   2 3327.80  756.74
   3   2   2 3789.45  896.53
   3   2   2 2497.28  554.15
  -3  -2  -2 3227.89  732.79
  -3  -2  -2 3031.04  677.80
  -3  -2  -2 2377.44  537.04
  -3  -2  -2 2752.93  630.07
  -3  -2  -2 2574.84  585.37
  -3  -2  -2 2711.65  609.47
   3   2   3 1326.45  288.00
   3   2   3 1361.05  315.10
   3   2   3 1628.55  363.37
   3   2   3 1738.32  389.02
   3   2   3 1677.21  387.44
   3   2   3  809.12  219.96
   3   2   3 1200.37  255.44
  -3  -2  -3 1244.63  273.15
  -3  -2  -3 1343.59  306.69
  -3  -2  -3 1277.68  303.32
  -3  -2  -3 1519.18  355.64
  -3  -2  -3 1177.74  258.59
  -3  -2  -3 1494.24  336.33
   3   2   4  995.74  235.35
   3   2   4 1054.74  261.84
   3   2   4  555.66  149.22
  -3  -2  -4  868.87  202.53
  -3  -2  -4  968.46  230.57
   3   2   5 1941.76  452.63
   3   2   5 1053.27  264.24
   3   2   5 1482.23  334.37
  -3  -2  -5 1325.01  312.24
  -3  -2  -5  740.89  172.68
  -3  -2  -5 1571.54  370.68
   3   2   6   77.99   33.04
   3   2   6  104.38   47.11
   3   2   6   93.42   26.63
  -3  -2  -6   40.61   22.33
  -3  -2  -6   27.14   19.71
   3   2   7  235.72   66.00
   3   2   7  275.13   74.24
  -3  -2  -7  223.86   60.86
  -3  -2  -7  217.39   58.26
   3   2   8  751.30  178.39
   3   2   8  833.57  197.26
  -3  -2  -8  770.96  180.36
  -3  -2  -8  716.94  169.05
   3   2   9  144.93   48.82
   3   2   9  147.84   49.15
  -3  -2  -9  156.16   47.55
  -3  -2  -9  137.55   33.24
   3   3  -7 2706.89  591.11
  -3  -3   7 1985.84  463.97
   3   3  -6   64.57   17.98
   3   3  -6   58.27   14.82
   3   3  -6   59.33   16.73
  -3  -3   6   44.84   14.94
   3   3  -5 1958.36  439.44
   3   3  -5 1967.47  445.41
   3   3  -5 2165.66  500.12
  -3  -3   5 1415.65  335.43
   3   3  -4  464.12  106.95
   3   3  -4  490.93  116.34
  -3  -3   4  504.14  116.39
  -3  -3   4  533.73  127.92
   3   3  -3 1552.21  345.31
   3   3  -3 1746.85  399.25
  -3  -3   3 1685.33  381.09
  -3  -3   3 2106.33  487.47
   3   3  -2  451.37  100.67
   3   3  -2  471.93  108.54
  -3  -3   2  412.80   90.98
  -3  -3   2  469.90  106.62
   3   3  -1  323.29   74.35
   3   3  -1  249.41   57.25
   3   3  -1  264.88   63.77
  -3  -3   1  284.27   63.97
  -3  -3   1  280.58   70.20
   3   3   0 3710.33  847.89
   3   3   0 3840.85  885.03
   3   3   0 4373.12 1009.60
   3   3   0 4191.98  960.36
  -3  -3   0 3994.43  922.57
  -3  -3   0 3846.72  883.84
  -3  -3   0 3645.59  840.78
  -3  -3   0 4183.43  957.89
   3   3   1  526.83  113.44
   3   3   1  673.52  149.45
   3   3   1  638.51  143.37
   3   3   1 1057.65  235.78
   3   3   1  726.17  165.92
  -3  -3  -1  719.66  170.25
  -3  -3  -1  924.08  196.91
  -3  -3  -1  598.15  134.50
  -3  -3  -1  625.27  150.38
  -3  -3  -1  697.46  155.47
   3   3   2 8038.08 1900.62
   3   3   2 6722.28 1597.21
   3   3   2 9989.08 2364.13
   3   3   211402.85 2754.89
   3   3   2 9054.87 2136.92
  -3  -3  -2 8881.16 2096.50
  -3  -3  -2 6698.96 1605.33
  -3  -3  -2 8166.04 1957.97
  -3  -3  -2 8604.01 2060.49
  -3  -3  -2 7821.50 1853.83
  -3  -3  -210053.39 2398.66
   3   3   3  278.51   70.00
   3   3   3  205.69   65.05
   3   3   3  287.42   62.45
  -3  -3  -3  309.61   71.74
  -3  -3  -3  283.85   70.55
  -3  -3  -3  324.08   92.91
  -3  -3  -3  231.11   57.33
  -3  -3  -3  289.47   68.66
  -3  -3  -3  354.04   85.11
   3   3   4 5148.56 1203.97
   3   3   4 3036.51  727.50
   3   3   4 4367.73 1044.20
  -3  -3  -4 4645.44 1098.43
  -3  -3  -4 5199.18 1226.40
  -3  -3  -4 3936.22  926.43
   3   3   5  442.30  113.44
   3   3   5  309.76   76.96
   3   3   5  253.53   65.85
  -3  -3  -5  336.01   90.23
  -3  -3  -5  357.40  100.52
   3   3   6 2021.25  480.22
   3   3   6 2134.45  494.52
   3   3   6 2300.22  531.16
   3   3   7  323.33   82.74
   3   3   7  376.24  101.09
   3   3   7  271.71   65.92
  -3  -3  -7  267.16   72.73
  -3  -3  -7  293.91   77.16
   3   3   8  221.84   59.17
   3   3   8  243.07   64.45
  -3  -3  -8  226.40   68.41
  -3  -3  -8  216.40   57.12
   3   3   9  291.53   76.33
   3   3   9  314.19   75.64
  -3  -3  -9  298.77   71.12
  -3  -3  -9  309.19   72.07
   3   4  -6 1506.95  328.96
  -3  -4   6 1378.80  316.51
   3   4  -5 3415.04  801.07
  -3  -4   5 2918.82  681.25
   3   4  -4 1395.22  322.06
  -3  -4   4 1579.13  361.74
  -3  -4   4 2354.25  557.05
   3   4  -3 3168.06  730.58
   3   4  -3 3609.36  834.03
  -3  -4   3 3642.73  835.27
  -3  -4   3 3550.52  839.18
   3   4  -2 1641.90  365.15
   3   4  -2 2150.03  486.36
  -3  -4   2 2888.42  664.04
  -3  -4   2 1917.66  429.08
   3   4  -1 2462.85  555.40
  -3  -4   1 2946.36  677.08
  -3  -4   1 2821.57  638.95
  -3  -4   1 3205.22  730.35
   3   4   0  752.12  172.77
  -3  -4   0  819.03  186.76
  -3  -4   0  667.17  154.98
  -3  -4   0  742.92  166.17
  -3  -4   0  806.30  180.23
   3   4   1 4479.66 1042.32
  -3  -4  -1 3328.90  768.11
  -3  -4  -1 3141.22  731.43
  -3  -4  -1 4051.98  939.42
  -3  -4  -1 3911.31  905.80
   3   4   2    3.32   20.85
  -3  -4  -2    0.77   17.44
  -3  -4  -2    1.98   10.01
  -3  -4  -2    4.36    8.20
  -3  -4  -2    3.10   12.59
   3   4   3   88.19   38.85
  -3  -4  -3  105.68   33.80
  -3  -4  -3  106.88   35.61
  -3  -4  -3  134.56   42.10
   3   4   4  949.10  229.06
  -3  -4  -4 1241.38  289.53
  -3  -4  -4 1382.09  323.67
  -3  -4  -4 1396.64  334.98
   3   4   5  149.49   42.82
   3   4   5  118.11   37.24
   3   4   5  102.41   29.83
  -3  -4  -5  122.12   44.04
  -3  -4  -5  123.92   47.62
   3   4   6 1251.09  295.73
   3   4   6 1656.83  377.01
   3   4   6 1575.53  361.08
   3   4   7   12.09   11.16
   3   4   7   12.68   13.57
   3   4   7   13.74   10.95
  -3  -4  -7   12.12   17.05
  -3  -4  -7    9.65   13.65
   3   4   8 2809.73  653.95
   3   4   8 3414.79  791.41
  -3  -4  -8 2901.85  676.81
  -3  -4  -8 2891.19  674.99
   3   4   9    3.10    7.99
  -3  -4  -9    3.24    8.66
  -3  -4  -9    3.40    9.09
   3   5  -6   60.96   16.77
  -3  -5   6   54.84   17.06
   3   5  -5   14.73   13.41
  -3  -5   5    8.23    8.24
   3   5  -4  485.97  115.27
  -3  -5   4  566.19  133.07
  -3  -5   4  764.61  174.34
   3   5  -3  409.57   96.70
  -3  -5   3  423.57  106.77
  -3  -5   3  509.62  139.22
   3   5  -2  883.91  202.68
  -3  -5   2  617.15  140.19
  -3  -5   2  572.67  143.68
  -3  -5   1 2025.64  469.44
  -3  -5   1 2199.15  507.14
  -3  -5   1 2464.17  579.26
   3   5   0 3324.73  749.60
  -3  -5   0 2624.36  607.69
  -3  -5   0 2426.93  555.66
  -3  -5   0 2607.07  613.81
   3   5   1 4537.21 1056.90
  -3  -5  -1 3757.63  877.41
  -3  -5  -1 3117.83  718.13
  -3  -5  -1 2730.54  647.47
  -3  -5  -1 3771.05  875.57
   3   5   2 3370.88  792.42
  -3  -5  -2 2230.86  517.13
  -3  -5  -2 1915.44  442.26
  -3  -5  -2 2446.15  568.07
   3   5   3 2263.16  548.78
  -3  -5  -3 2513.46  592.45
  -3  -5  -3 2510.20  582.04
  -3  -5  -3 2932.00  684.02
   3   5   4  246.35   70.23
  -3  -5  -4  387.90   97.68
  -3  -5  -4  336.00   95.15
  -3  -5  -4  299.30   91.59
   3   5   5  906.63  214.03
  -3  -5  -5  860.67  210.72
  -3  -5  -5  855.88  221.71
   3   5   6   11.14   13.55
  -3  -5  -6    2.28   15.13
  -3  -5  -6    1.41   25.19
  -3  -5  -6    8.69   12.91
   3   5   7  562.15  128.60
   3   5   7  552.93  126.09
  -3  -5  -7  459.21  113.10
  -3  -5  -7  480.18  124.52
  -3  -5  -7  543.03  118.64
   3   5   8   99.56   26.44
  -3  -5  -8  115.98   33.59
  -3  -5  -8  115.36   43.06
   3   6  -5 2985.79  669.80
  -3  -6   5 2670.95  607.52
  -3  -6   4   13.54   13.39
  -3  -6   4    5.53   10.66
   3   6  -3 1197.32  279.09
  -3  -6   3 1302.79  298.10
  -3  -6   3 1518.33  343.67
   3   6  -2  541.49  128.19
  -3  -6   2  378.03   89.49
  -3  -6   2  365.25   90.53
  -3  -6   1  607.75  142.75
  -3  -6   1  545.16  124.79
  -3  -6   1  624.28  170.22
  -3  -6   0 1050.97  239.41
  -3  -6   0 1117.10  248.61
  -3  -6   0  622.11  156.73
   3   6   1  110.70   34.39
  -3  -6  -1   83.22   28.44
  -3  -6  -1   93.07   44.44
   3   6   2 2971.59  706.05
  -3  -6  -2 2370.27  562.74
  -3  -6  -2 2337.85  551.75
   3   6   3 1142.32  278.11
  -3  -6  -3 1583.19  367.01
  -3  -6  -3 1242.86  294.13
  -3  -6  -3 1555.87  364.94
   3   6   4 3687.10  886.17
  -3  -6  -4 4929.33 1166.14
  -3  -6  -4 4299.04 1017.37
  -3  -6  -4 4095.64  985.19
   3   6   5  359.08   91.20
  -3  -6  -5  302.50   84.78
  -3  -6  -5  313.49   82.68
   3   6   6 2176.78  497.18
  -3  -6  -6 1686.14  386.14
   3   6   7  245.20   59.15
  -3  -6  -7  239.26   58.35
  -3  -6  -7  207.20   53.04
  -3  -6  -7  249.45   56.51
  -3  -6  -8 1065.48  232.75
  -3  -6  -8 1020.14  226.16
  -3  -7   3 2454.44  564.96
  -3  -7   3 3048.83  700.52
   3   7  -2  398.94   92.65
  -3  -7   2  371.70   95.02
  -3  -7   2  309.08   72.05
   3   7  -1 3665.61  831.12
  -3  -7   1 2574.97  582.25
  -3  -7   1 1824.88  428.18
  -3  -7   0  449.45  107.52
  -3  -7   0  428.75   99.96
  -3  -7  -1 1822.98  423.63
  -3  -7  -1 1948.58  444.63
   3   7   2    4.98   10.72
  -3  -7  -2    0.72   12.70
  -3  -7  -2    1.28   24.08
   3   7   3 1518.10  362.25
  -3  -7  -3 1634.23  374.11
  -3  -7  -3 1745.85  408.56
   3   7   4    1.00   11.86
  -3  -7  -4    0.54   15.26
  -3  -7  -4    2.43   13.89
   3   7   5   15.19   14.54
  -3  -7  -5    7.98   22.25
  -3  -7  -5    3.77   10.76
   3   7   6  308.99   74.52
  -3  -7  -6  214.57   59.90
  -3  -7  -6  265.81   62.72
  -3  -8   1  809.83  179.02
   3   8   0 1109.92  253.72
  -3  -8   0  784.81  175.24
  -3  -8  -1 1362.12  309.06
  -3  -8  -1 1323.33  294.12
  -3  -8  -2 1048.69  240.27
  -3  -8  -2  919.29  204.51
   3   8   3 1716.77  400.21
  -3  -8  -3 1802.07  415.72
  -3  -8  -3 1692.85  387.04
   3   8   4  216.70   52.42
  -3  -8  -4  130.23   47.15
  -3  -8  -4  105.63   28.65
   3   8   5 1110.48  239.45
  -3  -8  -5  575.74  137.24
   4  -4  -3  163.85   50.11
  -4   4   3  119.52   37.30
   4  -4  -2 1717.36  389.76
   4  -4  -2 1605.20  400.91
   4  -4  -2 2568.06  563.07
  -4   4   2 2472.54  558.20
   4  -4  -1  119.84   53.78
   4  -4  -1  139.73   37.07
   4  -4  -1  119.03   36.62
  -4   4   1  130.43   39.67
   4  -4   0 2141.66  554.49
   4  -4   0 4162.93  964.27
   4  -4   0 4366.49  990.21
  -4   4   0 3441.47  783.32
   4  -4   1   69.30   35.91
   4  -4   1  154.63   43.54
   4  -4   1  125.24   33.20
   4  -4   2 2183.40  482.77
   4  -4   2  827.56  219.33
   4  -4   2 1660.88  370.78
   4  -4   3   85.23   30.78
   4  -4   3  100.73   54.73
   4  -3  -4 1347.69  321.25
  -4   3   4 1641.14  370.72
   4  -3  -3  741.60  186.31
   4  -3  -3  755.85  173.60
  -4   3   3  747.67  175.26
   4  -3  -2  854.45  215.09
   4  -3  -2  768.06  180.32
   4  -3  -2  622.84  137.04
  -4   3   2  624.34  142.76
   4  -3  -1 2273.12  550.27
   4  -3  -1 1667.96  377.27
   4  -3  -1 1709.99  383.29
  -4   3   1 1357.79  307.65
   4  -3   0    5.34   34.18
   4  -3   0    5.64   10.19
   4  -3   0    6.76    9.57
  -4   3   0   -0.03    8.16
   4  -3   1  128.36   40.97
   4  -3   1   58.77   60.74
   4  -3   1  132.48   50.84
   4  -3   1  133.65   51.12
   4  -3   2 2210.52  506.04
   4  -3   2 2234.32  513.23
   4  -3   2 2142.42  496.23
   4  -3   2 1150.27  290.69
  -4   3  -2 2417.09  552.68
   4  -3   3  832.49  197.29
   4  -3   3  869.89  211.14
   4  -3   3  707.13  179.51
   4  -3   3  691.51  168.07
  -4   3  -3 1023.46  240.55
   4  -3   4 1116.15  252.59
   4  -3   4 1552.36  354.78
  -4   3  -4  546.91  134.21
   4  -3   5  436.54   99.24
   4  -3   5  357.94   91.54
  -4   3  -5  506.59  115.45
   4  -2  -5  141.70   32.77
   4  -2  -5  177.97   43.08
  -4   2   5  197.39   49.35
  -4   2   5  191.15   45.96
   4  -2  -4 1592.91  386.35
   4  -2  -4 1503.40  350.06
   4  -2  -4 2003.61  449.86
   4  -2  -4 1944.13  455.46
  -4   2   4 2149.75  490.52
   4  -2  -3  114.38   40.48
   4  -2  -3   98.92   40.01
  -4   2   3   77.74   28.14
   4  -2  -2 4948.57 1193.93
   4  -2  -2 3772.70  881.95
  -4   2   2 4037.33  940.96
   4  -2  -1  222.54   69.54
   4  -2  -1  133.47   38.17
   4  -2  -1  149.42   36.92
  -4   2   1  122.66   31.78
   4  -2   0 1913.62  437.54
   4  -2   0 2283.55  546.26
   4  -2   0 1861.68  429.30
   4  -2   0 1281.65  294.67
   4  -2   1 1529.06  350.91
   4  -2   1 1460.51  367.15
   4  -2   1 1351.11  312.36
   4  -2   1 1454.31  339.01
  -4   2  -1 1339.17  310.76
   4  -2   2 1010.62  235.67
   4  -2   2  935.05  221.76
   4  -2   2  966.61  230.68
  -4   2  -2 1318.53  305.01
   4  -2   3  211.48   69.11
   4  -2   3  132.86   43.39
   4  -2   3  206.67   76.24
   4  -2   3  198.34   74.91
  -4   2  -3  214.77   66.25
   4  -2   4    4.31   13.03
   4  -2   4    8.79   18.54
   4  -2   4    1.40   20.68
  -4   2  -4    0.79   14.45
   4  -2   5  235.21   56.88
   4  -2   5  124.27   43.58
   4  -2   5  207.47   70.86
  -4   2  -5  233.54   60.73
   4  -2   6  404.36   89.71
   4  -2   6  449.56  108.89
   4  -2   6  414.73  105.26
  -4   2  -6  460.33  106.62
   4  -1  -6   57.44   16.26
   4  -1  -6   57.63   24.19
  -4   1   6   48.87   14.10
  -4   1   6   40.00   15.99
   4  -1  -5 1282.19  280.99
   4  -1  -5 1041.02  233.17
  -4   1   5 1067.61  242.10
  -4   1   5 1099.02  245.33
   4  -1  -4   93.75   31.31
   4  -1  -4  153.66   41.06
   4  -1  -4  106.87   29.74
  -4   1   4  106.96   32.22
   4  -1  -3  176.36   62.12
   4  -1  -3  128.77   44.58
   4  -1  -3   96.95   29.14
   4  -1  -3  120.37   33.29
  -4   1   3   78.41   27.76
   4  -1  -2 2630.78  599.91
   4  -1  -2 1878.21  422.04
   4  -1  -2 1535.52  351.91
   4  -1  -2 1222.30  304.58
  -4   1   2 2136.41  477.60
   4  -1  -1  193.84   58.01
   4  -1  -1  214.27   68.92
   4  -1  -1  163.15   41.55
  -4   1   1  115.42   28.80
   4  -1   0 6101.76 1457.98
   4  -1   0 8189.53 1993.81
  -4   1   0 5646.78 1346.43
   4  -1   1    8.74   12.00
   4  -1   1    0.98    7.72
   4  -1   1   15.89   17.22
   4  -1   1    2.49   24.95
  -4   1  -1    3.17   16.17
   4  -1   2 6018.87 1418.42
   4  -1   2 6131.11 1471.66
   4  -1   2 5935.80 1418.76
   4  -1   2 4252.35 1080.23
  -4   1  -2 7348.08 1747.22
   4  -1   3   16.07   13.44
   4  -1   3   18.75   25.30
   4  -1   3   16.22   18.75
   4  -1   3    8.55   21.08
  -4   1  -3   30.58   26.97
   4  -1   4 4215.61  975.39
   4  -1   4 4081.58  943.43
   4  -1   4 3110.74  726.24
  -4   1  -4 1395.31  347.16
   4  -1   5   35.28   31.51
   4  -1   5   33.78   32.01
  -4   1  -5   22.30   17.97
   4  -1   6 1330.31  313.96
   4  -1   6 1265.19  303.24
  -4   1  -6 1809.93  407.77
   4  -1   7   38.66   16.73
   4  -1   7   37.55   19.95
  -4   1  -7   41.79   16.12
   4   0  -6 2040.89  448.39
   4   0  -6 1901.86  420.29
  -4   0   6 1539.28  341.18
  -4   0   6 1817.42  412.57
   4   0  -5 2438.48  551.34
   4   0  -5 2026.75  454.45
  -4   0   5 1883.42  426.32
  -4   0   5 1478.79  338.71
   4   0  -4 1306.30  298.75
   4   0  -4 1309.53  299.13
   4   0  -4 1355.85  300.79
  -4   0   4 1491.85  343.44
   4   0  -3 2625.27  613.75
   4   0  -3 2688.25  614.39
   4   0  -3 1954.57  454.55
   4   0  -3 2366.69  535.30
  -4   0   3 2282.06  538.73
   4   0  -2 2661.06  611.04
   4   0  -2 2152.75  487.15
   4   0  -2 2440.50  550.46
   4   0  -2 2381.47  543.86
  -4   0   2 2127.37  490.20
  -4   0   2 1822.51  430.29
   4   0  -1 1484.84  336.19
   4   0  -1 1201.87  268.79
   4   0  -1 1204.30  281.74
   4   0  -1 1642.17  379.00
  -4   0   1 1209.53  271.64
  -4   0   1 1311.76  296.00
   4   0   0  190.23   51.89
   4   0   0  218.21   54.23
   4   0   0  239.83   70.65
  -4   0   0  202.19   50.59
   4   0   1 1805.74  428.20
   4   0   1 1691.00  383.91
   4   0   1 2161.00  513.96
  -4   0  -1 1742.43  401.13
   4   0   2  130.55   43.12
   4   0   2   97.21   26.02
   4   0   2  123.04   33.67
   4   0   2  151.87   78.63
  -4   0  -2  153.68   57.04
   4   0   3  109.56   42.28
   4   0   3   40.32   61.96
   4   0   3  104.71   34.00
  -4   0  -3  119.87   43.52
   4   0   4 2212.56  523.10
   4   0   4 2085.64  484.79
   4   0   4 1384.95  329.10
  -4   0  -4  682.03  174.01
   4   0   5  358.05  107.04
   4   0   5  353.15  100.07
   4   0   5  262.76   65.70
  -4   0  -5  142.87   44.35
   4   0   6 1036.18  257.82
   4   0   6 1129.75  276.43
  -4   0  -6 1509.41  339.80
   4   0   7  207.84   67.21
   4   0   7  208.30   67.88
  -4   0  -7  208.54   55.62
   4   0   8 1000.28  224.34
   4   0   8  982.26  222.37
   4   1  -6  655.82  142.74
   4   1  -6  643.07  139.71
  -4  -1   6  436.09   99.38
   4   1  -5   59.32   24.20
   4   1  -5   41.20   16.58
  -4  -1   5   71.25   18.63
  -4  -1   5   42.09   17.67
   4   1  -4 1508.85  344.88
   4   1  -4 1529.33  349.34
   4   1  -4 2510.92  550.51
   4   1  -3  910.39  203.88
   4   1  -3  836.19  193.93
   4   1  -3  825.96  187.33
  -4  -1   3  603.46  137.97
   4   1  -2 3137.96  718.09
   4   1  -2 3146.83  724.67
   4   1  -2 4288.64  999.75
   4   1  -2 3749.29  877.52
  -4  -1   2 3580.31  824.51
   4   1  -1 1117.99  256.94
   4   1  -1 1120.83  253.59
   4   1  -1  985.59  233.85
   4   1  -1 1160.18  266.82
  -4  -1   1 1003.90  225.06
   4   1   0 4569.99 1059.02
   4   1   0 4806.90 1111.28
   4   1   0 3201.93  780.54
   4   1   0 5966.02 1413.82
  -4  -1   0 5193.58 1205.46
   4   1   1 1258.37  290.21
   4   1   1 1623.09  387.21
  -4  -1  -1 1263.66  289.11
   4   1   2 1517.08  352.71
   4   1   2 1946.91  473.71
  -4  -1  -2 1652.86  383.43
  -4  -1  -2 1444.41  336.04
   4   1   3 2108.10  500.53
   4   1   3 1249.60  331.06
  -4  -1  -3 2176.00  502.47
  -4  -1  -3 2020.31  484.38
   4   1   4  252.16   74.81
   4   1   4  234.05   63.13
   4   1   4  158.56   53.80
  -4  -1  -4  259.82   77.88
  -4  -1  -4   83.35   33.46
   4   1   5  645.46  168.41
   4   1   5  596.74  150.84
   4   1   5  468.55  113.23
  -4  -1  -5  328.87   94.05
  -4  -1  -5  216.11   59.59
   4   1   6    8.91   21.69
   4   1   6    9.16   16.57
  -4  -1  -6   14.19   16.65
   4   1   7  110.63   38.72
   4   1   7  108.24   35.41
  -4  -1  -7   80.65   22.64
  -4  -1  -7   95.60   24.55
   4   1   8 1502.51  345.70
   4   1   8 1524.95  349.55
   4   2  -6  497.15  106.33
   4   2  -6  378.97   85.77
   4   2  -5 2962.85  672.25
   4   2  -5 2338.58  529.14
   4   2  -4    3.33    9.52
   4   2  -4    1.06   15.69
  -4  -2   4    0.58    6.14
   4   2  -3 1745.75  392.78
   4   2  -3 1695.67  393.24
  -4  -2   3 1502.28  341.87
   4   2  -2    9.20    5.88
   4   2  -2    9.35   16.13
   4   2  -2    8.17   15.25
  -4  -2   2    8.30    8.68
   4   2  -1    0.15    5.89
   4   2  -1    0.76    9.30
   4   2  -1   11.02   20.28
   4   2  -1    2.44   14.16
  -4  -2   1    0.41    8.55
   4   2   0 2373.55  538.30
   4   2   0 2340.62  536.10
   4   2   0 2988.23  688.53
   4   2   0 3079.14  715.56
  -4  -2   0 2647.58  604.41
   4   2   1   15.52   11.21
   4   2   1    2.81    9.14
   4   2   1   15.12   22.82
  -4  -2  -1   15.47   17.79
  -4  -2  -1    5.19   13.77
   4   2   2 5312.46 1269.00
   4   2   2 7552.62 1848.36
  -4  -2  -2 6550.33 1567.25
  -4  -2  -2 6258.49 1491.87
   4   2   3  264.16   78.79
   4   2   3  211.15   75.97
  -4  -2  -3  243.11   62.81
  -4  -2  -3  279.95   89.98
  -4  -2  -3  221.05   61.81
   4   2   4 5602.01 1323.78
   4   2   4 2713.56  680.42
  -4  -2  -4 4862.01 1141.39
  -4  -2  -4 5635.00 1335.99
   4   2   5  257.46   82.91
   4   2   5  209.81   71.42
   4   2   5  160.91   57.30
  -4  -2  -5  188.08   54.84
  -4  -2  -5  183.96   61.76
   4   2   6 1538.72  366.72
   4   2   6 1484.60  352.85
   4   2   6 2085.85  465.04
  -4  -2  -6  805.11  199.66
  -4  -2  -6 1553.77  346.23
   4   2   7  321.72   83.99
   4   2   7  333.26   82.49
  -4  -2  -7  251.39   62.71
  -4  -2  -7  321.30   77.72
   4   2   8 1668.23  383.23
   4   2   8 1646.47  377.24
  -4  -2  -8 1577.35  356.96
  -4  -2  -8 1594.72  355.89
   4   3  -6  428.66   95.53
   4   3  -5 2855.99  636.70
   4   3  -5 2210.50  488.91
  -4  -3   5 1448.77  334.20
   4   3  -4  876.39  197.34
   4   3  -4 1671.57  371.25
  -4  -3   4  863.66  207.30
   4   3  -3 2514.15  566.54
   4   3  -3 1837.52  432.87
  -4  -3   3 3023.91  707.30
   4   3  -2   65.05   25.72
   4   3  -2  101.70   47.66
  -4  -3   2   77.96   20.76
  -4  -3   2   71.81   24.39
   4   3  -1 4176.02  968.20
   4   3  -1 4726.06 1102.65
   4   3  -1 4282.71 1016.54
  -4  -3   1 3704.63  852.12
  -4  -3   1 4102.11  959.34
   4   3   0  762.18  174.84
   4   3   0  975.43  223.06
   4   3   0  998.72  232.47
  -4  -3   0  819.62  181.12
  -4  -3   0  952.78  217.18
   4   3   1 2438.70  571.91
  -4  -3  -1 2094.64  477.90
  -4  -3  -1 2107.95  491.25
  -4  -3  -1 2184.09  501.06
   4   3   2   17.40    9.52
   4   3   2   25.19   29.11
  -4  -3  -2   22.92   16.40
  -4  -3  -2   19.61   11.82
  -4  -3  -2   44.45   24.14
  -4  -3  -2   18.13   24.37
   4   3   3  331.54   84.96
   4   3   3  349.22  108.81
  -4  -3  -3  342.75   88.84
  -4  -3  -3  387.66  102.55
  -4  -3  -3  286.42   86.99
   4   3   4 2046.18  472.72
   4   3   4 1124.85  283.57
  -4  -3  -4 1993.72  457.72
  -4  -3  -4 2388.22  562.18
   4   3   5   88.39   36.05
   4   3   5   56.10   26.11
  -4  -3  -5   65.42   28.78
  -4  -3  -5   84.71   43.96
  -4  -3  -5   35.27   13.89
   4   3   6 1079.87  261.36
   4   3   6 1231.43  284.69
   4   3   7   29.34   17.57
   4   3   7   31.31   19.85
   4   3   7   31.01   13.35
  -4  -3  -7   24.89   14.77
  -4  -3  -7   29.68   18.13
   4   3   8 1229.48  280.27
  -4  -3  -8 1191.88  269.52
  -4  -3  -8 1235.10  278.08
   4   4  -5  187.00   40.47
   4   4  -5  152.50   37.05
  -4  -4   5  134.62   33.06
   4   4  -4 1005.30  228.50
   4   4  -4 1301.17  304.30
  -4  -4   4 1554.50  349.86
  -4  -4   4 1374.37  331.52
   4   4  -3  446.46   99.89
   4   4  -3  380.93   95.38
  -4  -4   3  413.25   95.95
  -4  -4   3  432.63  110.02
   4   4  -2 2803.86  640.80
   4   4  -2 3567.97  829.20
  -4  -4   2 3371.35  770.07
  -4  -4   2 3429.89  808.95
   4   4  -1 1165.60  262.48
   4   4  -1 1352.13  308.99
  -4  -4   1 1051.79  237.68
  -4  -4   1 1270.36  290.13
   4   4   0 3016.57  683.53
   4   4   0 1883.08  439.57
   4   4   0 3404.07  791.80
  -4  -4   0 3339.56  752.10
  -4  -4   0 3528.11  803.33
   4   4   1 2089.59  488.70
  -4  -4  -1 1719.83  399.81
  -4  -4  -1 1465.77  340.12
  -4  -4  -1 1929.97  451.52
  -4  -4  -1 2036.32  473.62
   4   4   2 5152.23 1229.63
  -4  -4  -2 3148.92  741.56
  -4  -4  -2 3601.42  852.15
  -4  -4  -2 3536.04  834.40
  -4  -4  -2 4540.88 1069.68
   4   4   3 4035.34  966.23
  -4  -4  -3 3285.13  753.85
  -4  -4  -3 3700.05  867.71
  -4  -4  -3 1639.99  394.64
  -4  -4  -3 3823.32  887.49
   4   4   4 1374.58  340.88
  -4  -4  -4 2222.77  523.14
  -4  -4  -4 2423.41  571.53
   4   4   5  473.44  120.97
  -4  -4  -5  554.64  139.74
  -4  -4  -5  567.08  153.59
   4   4   6   29.20   14.70
   4   4   6   34.30   18.36
  -4  -4  -6    6.89   15.27
  -4  -4  -6    3.55   18.11
   4   4   7  260.16   63.65
   4   4   7  292.50   70.39
  -4  -4  -7  214.34   57.57
  -4  -4  -7  263.57   69.40
  -4  -4  -8   25.91   14.61
  -4  -4  -8   26.79   15.63
   4   5  -5 2913.01  638.12
  -4  -5   5 2201.09  502.36
   4   5  -4  181.25   49.85
  -4  -5   4  176.68   45.03
   4   5  -3 1566.87  363.22
  -4  -5   3 1722.20  390.76
  -4  -5   3 1888.26  447.75
   4   5  -2   58.61   24.54
  -4  -5   2   38.69   15.87
  -4  -5   2   38.50   24.82
   4   5  -1  506.81  117.06
   4   5  -1  550.35  132.59
  -4  -5   1  455.23  104.20
  -4  -5   1  619.99  162.55
   4   5   0   66.05   21.68
   4   5   0    0.04   14.68
  -4  -5   0   55.17   19.41
  -4  -5   0   54.43   22.73
   4   5   1   12.30   14.17
  -4  -5  -1    9.07   10.79
  -4  -5  -1   11.87   12.36
  -4  -5  -1   12.29   12.48
  -4  -5  -1   10.12   18.73
   4   5   2 2103.55  491.34
  -4  -5  -2 1597.78  362.38
  -4  -5  -2 1444.97  330.97
  -4  -5  -2  779.58  187.61
  -4  -5  -2 1895.27  435.46
   4   5   3  356.82  129.63
  -4  -5  -3  298.03   80.39
  -4  -5  -3  315.63   93.08
  -4  -5  -3  341.18  103.60
   4   5   4 1338.69  332.88
  -4  -5  -4 2334.64  530.40
  -4  -5  -4 2408.72  551.31
  -4  -5  -4 1027.58  254.79
   4   5   5  840.54  210.60
  -4  -5  -5  823.33  209.10
  -4  -5  -5  842.56  207.33
  -4  -5  -5  472.87  114.54
   4   5   6 1319.83  265.67
  -4  -5  -6  153.69   48.61
   4   5   7  285.99   69.08
  -4  -5  -7  237.45   63.10
  -4  -5  -8  593.92  132.82
  -4  -5  -8  613.39  138.65
   4   6  -4  370.08   80.48
  -4  -6   4  283.56   64.20
   4   6  -3 2058.46  479.14
  -4  -6   3 2275.51  520.39
  -4  -6   3 3161.80  721.60
   4   6  -2  540.84  129.50
  -4  -6   2  438.51  109.53
  -4  -6   2  534.02  143.68
   4   6  -1 3534.53  814.03
  -4  -6   1 2858.81  651.23
  -4  -6   1 2296.39  561.46
   4   6   0   -0.08   14.35
  -4  -6   0   29.88   28.21
  -4  -6   0   24.27   17.42
   4   6   1 2555.93  593.34
  -4  -6  -1 2565.79  575.51
  -4  -6  -1 1210.69  303.31
  -4  -6  -1 2817.24  643.06
   4   6   2   14.96   16.78
  -4  -6  -2   11.65   15.07
  -4  -6  -2   11.60    9.79
  -4  -6  -2    0.45    4.18
  -4  -6  -2   16.75   18.96
   4   6   3 2172.87  541.66
  -4  -6  -3 1956.12  467.98
  -4  -6  -3 1678.10  393.09
  -4  -6  -3 1866.72  445.14
   4   6   4  108.18   49.68
  -4  -6  -4  188.01   54.97
  -4  -6  -4  176.15   50.27
  -4  -6  -4   77.81   39.09
   4   6   5   12.07   27.55
  -4  -6  -5   12.28   18.29
  -4  -6  -5    4.64   26.03
  -4  -6  -5    4.10   14.00
   4   6   6 1585.74  363.40
  -4  -6  -6 1252.97  279.36
   4   6   7    0.35    7.93
  -4  -6  -7    2.96    9.07
  -4  -6  -7    0.57   15.05
   4   7  -2  448.71  110.38
  -4  -7   2  452.69  104.52
  -4  -7   2  498.69  110.99
   4   7  -1 1113.99  251.22
  -4  -7   1  897.05  200.28
  -4  -7   1  692.62  160.65
   4   7   0 1289.79  283.72
  -4  -7   0 1004.81  218.84
  -4  -7   0  476.30  112.48
  -4  -7  -1 1611.24  376.29
  -4  -7  -1 1350.98  318.54
   4   7   2 1616.39  385.58
  -4  -7  -2 1648.76  378.74
  -4  -7  -2 1614.42  380.05
   4   7   3 1493.17  355.77
  -4  -7  -3 1322.23  305.50
  -4  -7  -3 1232.08  293.65
   4   7   4  522.51  130.64
  -4  -7  -4  614.84  137.75
  -4  -7  -4  204.46   56.78
   4   7   5 2063.25  446.56
  -4  -7  -5  625.10  154.58
  -4  -7  -5  699.85  174.80
  -4  -7  -5 1218.49  264.45
   4   7   6  759.16  169.06
  -4  -7  -6  396.98   96.01
  -4  -7  -6  660.75  138.04
   4   8   0  142.13   39.54
  -4  -8   0  112.10   37.61
   4   8   1   34.99   19.18
  -4  -8  -1   59.88   19.31
   4   8   2   -0.15   13.27
  -4  -8  -2  252.35   48.07
  -4  -8  -3   44.87   21.77
  -4  -8  -3   42.43   19.98
   5  -3   0 1764.04  437.00
   5  -3   0 3166.27  708.11
   5  -3   1  119.34   42.17
   5  -3   1  482.35  101.57
   5  -2  -3   78.15   25.80
   5  -2  -2  595.55  158.54
   5  -2  -2  449.10  104.21
  -5   2   2  416.30   95.58
   5  -2  -1  239.88   81.62
   5  -2  -1  153.99   43.41
   5  -2   0 2196.83  533.88
   5  -2   0 1744.55  386.17
  -5   2   0  989.29  220.66
   5  -2   1  204.76   93.41
   5  -2   1  200.80   53.14
   5  -2   2  718.33  205.36
   5  -2   2 2106.88  482.90
   5  -2   2 1584.88  345.06
  -5   2  -2 1856.21  421.39
   5  -2   3  210.97   60.36
   5  -2   3  218.03   72.33
   5  -2   3  177.48   50.57
  -5   2  -3  223.03   59.14
   5  -2   4 1831.30  405.79
   5  -2   4  870.13  202.67
  -5   1   4 1373.59  303.59
   5  -1  -3 1386.68  333.43
   5  -1  -3 1534.31  347.17
   5  -1  -3 1747.37  401.86
   5  -1  -2 1218.53  297.12
   5  -1  -2  777.55  185.51
   5  -1  -2  787.58  190.92
   5  -1  -1  711.21  177.97
   5  -1  -1  563.91  131.02
   5  -1   0   28.51   29.66
   5  -1   0   19.09   14.86
  -5   1   0   19.89    9.66
   5  -1   1  649.87  174.60
   5  -1   1  662.09  161.52
  -5   1  -1  607.31  149.28
   5  -1   2  549.65  159.27
   5  -1   2 1119.27  260.52
  -5   1  -2 1146.95  261.62
   5  -1   3  367.38  100.92
   5  -1   3  580.60  135.82
   5  -1   3  612.83  153.22
  -5   1  -3  626.64  154.19
   5  -1   4 1343.25  328.98
   5  -1   4 1761.74  411.16
   5  -1   4 1652.69  396.34
   5  -1   5   40.75   17.08
   5  -1   5   35.66   19.34
  -5   1  -5   43.72   17.44
   5   0  -4 2201.77  486.53
   5   0  -4 1538.30  355.00
  -5   0   4 1534.17  343.51
   5   0  -3  252.03   61.79
   5   0  -3  260.40   62.86
   5   0  -3  215.81   53.77
   5   0  -2 2796.33  653.74
   5   0  -2 2693.90  609.04
   5   0  -2 1571.77  360.96
   5   0  -1 1316.08  309.21
   5   0  -1 1092.02  247.58
   5   0  -1 1127.82  255.49
  -5   0   1  989.22  232.38
   5   0   0 5524.37 1340.86
   5   0   0 5494.08 1307.96
   5   0   0 4321.78 1038.08
  -5   0   0 4551.18 1088.48
   5   0   1  573.95  142.65
   5   0   1  432.48  104.16
   5   0   1  664.30  175.90
  -5   0  -1  581.40  145.81
   5   0   2 3103.15  736.70
   5   0   2 3080.30  769.43
  -5   0  -2 3402.75  801.71
   5   0   3 1081.81  264.06
   5   0   3  442.09  128.51
  -5   0  -3 1109.83  258.29
   5   0   4 1271.63  311.12
   5   0   4  892.43  216.66
   5   0   5  117.57   37.51
   5   0   5  115.92   45.49
   5   0   5  125.24   44.62
  -5   0  -5   79.06   26.34
   5   0   6    0.59   12.39
   5   0   6    4.28   10.08
  -5   0  -6    0.52    7.42
   5   1  -4   62.06   22.26
   5   1  -4   69.83   25.83
  -5  -1   4   43.52   12.56
   5   1  -3  638.34  141.99
   5   1  -3  493.52  115.78
   5   1  -3  679.00  149.23
   5   1  -2  446.86  107.64
   5   1  -2  482.57  111.99
   5   1  -2  458.25  106.81
   5   1  -2  372.35   86.17
  -5  -1   2  328.15   79.66
   5   1  -1  126.08   33.24
   5   1  -1  130.12   36.12
   5   1  -1  160.84   56.66
  -5  -1   1  121.61   47.06
   5   1   0  962.33  228.00
   5   1   0  736.30  173.69
   5   1   0 1022.39  246.33
  -5  -1   0  867.77  199.71
   5   1   1    8.39   15.31
   5   1   1    7.97   13.41
   5   1   1    5.00   25.05
  -5  -1  -1   61.66   33.03
   5   1   2 2895.85  690.57
   5   1   2 2628.63  610.79
   5   1   2 3569.67  871.22
  -5  -1  -2 3288.53  773.56
   5   1   3   16.89   22.71
   5   1   3    9.57   10.53
   5   1   3    6.43   47.90
  -5  -1  -3   13.06   19.75
   5   1   4 2789.68  638.73
   5   1   4  989.24  239.12
   5   1   4 1519.40  359.08
   5   1   5  444.79  119.41
   5   1   5  356.16   86.62
  -5  -1  -5  194.59   52.00
   5   1   6  801.32  189.40
   5   1   6  565.17  135.27
   5   1   6  873.89  211.35
  -5  -1  -6  920.33  202.52
   5   1   7   36.73   17.94
   5   2  -4 1814.66  406.53
   5   2  -4 1546.36  342.11
   5   2  -3 2165.59  496.13
   5   2  -3 2709.67  605.41
  -5  -2   3 1791.25  424.06
   5   2  -2 1298.93  292.91
   5   2  -2 1178.59  273.11
  -5  -2   2 1081.45  245.84
   5   2  -1 2843.35  643.12
   5   2  -1 2732.84  629.04
   5   2  -1 3673.53  869.48
   5   2  -1 3255.54  772.17
  -5  -2   1 2742.69  638.01
   5   2   0  807.35  183.56
   5   2   0 1179.79  270.37
   5   2   0 1185.07  279.37
  -5  -2   0 1105.80  253.80
   5   2   1  760.70  175.44
   5   2   1  789.48  185.53
   5   2   1  990.53  261.58
  -5  -2  -1  785.95  185.71
   5   2   2    0.81   18.63
   5   2   2   23.36   16.59
   5   2   2    0.46   31.24
  -5  -2  -2  235.04   65.50
   5   2   3  638.88  155.35
   5   2   3  507.76  151.81
  -5  -2  -3  502.09  127.58
   5   2   4 1576.36  371.01
   5   2   4  796.87  207.94
  -5  -2  -4 1440.95  345.48
   5   2   5  166.34   56.28
   5   2   5  134.62   41.42
  -5  -2  -5   35.22   20.40
  -5  -2  -5   72.29   24.10
   5   2   6 1007.46  239.26
   5   2   6 1332.15  308.85
  -5  -2  -6 1180.46  267.05
  -5  -2  -6 1254.29  285.25
   5   2   7    9.99   11.65
   5   3  -4  253.03   57.04
   5   3  -4  236.87   52.62
  -5  -3   4   68.14   33.30
   5   3  -3   94.76   33.80
   5   3  -3  121.59   40.74
  -5  -3   3   98.42   33.19
   5   3  -2 1834.18  413.94
   5   3  -2 1904.20  442.00
  -5  -3   2 1593.73  367.98
   5   3  -1  472.90  114.72
   5   3  -1  426.27  107.74
  -5  -3   1  513.73  119.62
   5   3   0  664.57  156.16
   5   3   0  494.73  126.40
   5   3   0  665.05  166.08
  -5  -3   0  722.49  178.38
   5   3   1 2509.04  578.13
   5   3   1 1670.12  411.21
   5   3   1 3391.89  797.16
  -5  -3  -1 2902.94  667.84
   5   3   2 4175.34 1017.40
  -5  -3  -2 3055.66  728.08
   5   3   3 1415.82  329.45
   5   3   3 1545.87  394.86
  -5  -3  -3 1744.53  414.84
  -5  -3  -3  977.07  245.30
   5   3   4 1766.92  406.36
   5   3   4  945.01  244.04
  -5  -3  -4 1986.24  472.10
   5   3   5  564.34  133.08
   5   3   5  604.88  147.43
  -5  -3  -5  368.89  102.17
  -5  -3  -5  380.19   90.24
   5   3   6   18.31   12.37
   5   3   6   36.98   18.19
  -5  -3  -6   16.84   14.46
  -5  -3  -6   21.28    8.64
   5   3   7  144.69   36.13
   5   3   7   92.86   27.68
  -5  -3  -7  163.06   39.81
   5   4  -4   26.86   11.61
  -5  -4   4   24.13    9.57
   5   4  -3 1354.03  300.27
   5   4  -3 2877.27  652.54
  -5  -4   3 1283.94  307.24
   5   4  -2   86.18   25.52
   5   4  -2   73.78   32.41
  -5  -4   2  121.29   43.85
   5   4  -1  298.18   70.19
   5   4  -1  312.54   84.10
  -5  -4   1  334.46   83.43
   5   4   0 1724.33  394.73
   5   4   0 1787.92  418.95
   5   4   0 1651.46  398.45
  -5  -4   0 1624.22  377.34
   5   4   1   75.64   29.25
   5   4   1   46.97   17.12
   5   4   1   88.11   34.93
  -5  -4  -1   65.91   38.37
   5   4   2 1965.23  475.68
  -5  -4  -2 1347.33  305.03
  -5  -4  -2 1326.89  328.62
   5   4   3   87.69   75.68
  -5  -4  -3   72.34   30.69
  -5  -4  -3   91.50   40.52
  -5  -4  -3   28.72   18.92
   5   4   4 1663.48  430.70
  -5  -4  -4 3085.45  709.36
  -5  -4  -4 3184.64  755.26
   5   4   5  678.26  175.71
  -5  -4  -5  477.79  113.01
  -5  -4  -5  509.99  136.08
  -5  -4  -5  476.83  110.24
   5   4   6 2525.61  561.15
  -5  -4  -6 1099.37  261.62
   5   4   7  167.92   43.55
  -5  -4  -7  136.46   32.91
  -5  -4  -7  170.83   44.22
   5   5  -3 2739.01  616.92
  -5  -5   3 1666.57  392.94
   5   5  -2 1100.24  247.01
   5   5  -2 1006.55  237.50
  -5  -5   2  808.80  189.03
  -5  -5   2  932.15  226.11
   5   5  -1 2939.48  667.68
   5   5  -1 3064.31  727.75
  -5  -5   1 3075.61  719.80
  -5  -5   1 3536.01  847.36
   5   5   0  683.32  160.15
   5   5   0  538.29  127.42
  -5  -5   0  588.66  131.81
  -5  -5   0  569.88  146.67
   5   5   1 2511.73  572.23
   5   5   1 1552.63  359.46
   5   5   1 2226.56  528.97
  -5  -5  -1 2159.87  493.06
  -5  -5  -1 1733.69  408.56
   5   5   2  590.81  139.09
   5   5   2  296.38   71.70
   5   5   2  678.59  179.21
  -5  -5  -2  490.48  111.98
  -5  -5  -2  267.77   69.83
   5   5   3  733.86  211.01
  -5  -5  -3  581.08  135.83
  -5  -5  -3  677.15  166.91
   5   5   4    3.02   28.83
  -5  -5  -4   10.81   21.94
  -5  -5  -4   15.54   20.50
  -5  -5  -4    2.07    4.22
   5   5   5  218.61   71.25
  -5  -5  -5  202.95   55.01
  -5  -5  -5  163.94   53.39
   5   5   6  283.56   74.88
  -5  -5  -6   66.35   21.74
  -5  -5  -6  103.11   32.64
   5   6  -2  227.31   60.84
  -5  -6   2  214.50   50.65
  -5  -6   2  230.45   55.83
   5   6  -1  511.71  128.65
  -5  -6   1  579.08  132.35
  -5  -6   1  426.12  110.06
   5   6   0  911.47  204.78
  -5  -6   0  917.78  198.42
  -5  -6   0  474.44  117.50
   5   6   1 2087.17  463.23
   5   6   1 1239.65  285.10
  -5  -6  -1 1258.66  286.82
   5   6   2  486.14  114.63
   5   6   2  256.52   64.55
   5   6   2  414.35  105.35
  -5  -6  -2  378.08   90.26
   5   6   3 2492.65  556.05
   5   6   3  955.83  224.69
   5   6   3 2166.13  516.34
  -5  -6  -3 1886.87  422.12
   5   6   4  464.29  109.24
   5   6   4  465.29  118.06
  -5  -6  -4  642.04  148.16
  -5  -6  -4  691.46  162.90
   5   6   5 1179.74  266.80
  -5  -6  -5  472.99  116.01
  -5  -6  -5  500.74  121.98
   5   7   0  134.67   48.05
  -5  -7   0  133.98   39.13
  -5  -7   0   48.90   21.90
   5   7   1   99.20   30.49
  -5  -7  -1   82.68   24.85
   5   7   2  506.34  117.41
  -5  -7  -2  558.42  123.95
   5   7   3   10.32    9.74
  -5  -7  -3   14.23   22.31
   5   7   4  632.94  135.71
   5   7   4  696.07  168.02
  -5  -7  -4  604.50  137.22
   6   0   0  900.67  236.75
   6   0   0  899.81  207.77
   6   0   1   68.23   35.35
   6   0   1   61.53   24.43
   6   0   2 1513.96  375.64
   6   0   2 2424.27  543.45
  -6   0  -2 2749.14  628.10
   6   1  -1 1643.55  352.16
   6   1  -1  960.95  218.67
   6   1   0  270.78   74.16
   6   1   0  252.21   59.29
   6   1   0  160.02   45.21
   6   1   1 1120.74  272.78
   6   1   1 1041.46  230.95
   6   1   1  711.65  172.32
  -6  -1  -1 1090.43  268.16
   6   1   2  166.51   75.79
   6   1   2  159.66   50.57
  -6  -1  -2  180.72   51.26
   6   1   3   82.99   46.95
   6   1   3  281.26   72.41
  -6  -1  -3  164.84   49.98
   6   1   4  138.77   47.95
   6   1   4  183.73   50.85
   6   2  -1  682.24  162.92
   6   2   0 2312.01  559.07
   6   2   0 2248.10  509.36
   6   2   0 2242.67  510.54
  -6  -2   0 2023.24  466.94
   6   2   1 1328.28  294.69
   6   2   1 1365.08  309.94
   6   2   1 1763.77  426.99
  -6  -2  -1 1295.45  304.80
   6   2   2 1765.51  401.18
   6   2   2 1439.31  332.98
   6   2   2 2411.79  573.51
  -6  -2  -2 2130.85  491.62
   6   2   3  726.19  162.59
   6   2   3  407.29  103.96
   6   2   3  316.01   90.55
  -6  -2  -3  383.93   96.57
   6   2   4 1162.63  259.71
   6   2   4  643.26  157.72
   6   2   4  779.70  183.92
   6   3  -1  693.23  154.98
  -6  -3   1  512.51  127.09
   6   3   0  360.87   85.56
  -6  -3   0  327.86   82.69
   6   3   1  144.53   48.23
   6   3   1  170.42   52.54
  -6  -3  -1  128.44   39.17
   6   3   2  179.96   50.15
   6   3   2  194.36   65.09
  -6  -3  -2  126.86   49.42
   6   3   3  390.94   92.41
   6   3   3  309.73   88.72
  -6  -3  -3  177.47   50.02
   6   3   4 1148.20  253.01
   6   3   4 1111.01  250.60
  -6  -3  -4  501.69  123.60
   6   4  -1 2661.89  597.67
   6   4  -1 2129.47  473.84
  -6  -4   1 2600.78  631.19
   6   4   0  442.09   98.19
   6   4   0  187.17   58.20
  -6  -4   0  364.70   95.45
   6   4   1 1248.22  285.96
  -6  -4  -1 1110.23  256.29
   6   4   2  110.10   41.00
   6   4   2  112.90   37.30
  -6  -4  -2   63.45   25.40
   6   4   3 1102.54  286.39
   6   4   3 1289.61  296.55
   6   4   4    0.80   19.75
   6   4   4    0.56   11.00
  -6  -4  -4    0.44    4.91
   6   5   0 1502.93  326.36
  -6  -5   0 1051.29  257.20
   6   5   1 1386.89  303.93
  -6  -5  -1  871.26  217.33
   6   5   2 2288.29  485.95
  -6  -5  -2  439.50  111.13
   6   5   3 1428.68  327.88
   6   5   3 1315.13  328.48
;
_shelx_hkl_checksum              82059
loop_
_space_group_symop_id
_space_group_symop_operation_xyz
1 +X,+Y,+Z
2 -X,-Y,-Z
loop_
_atom_site_label
_atom_site_type_symbol
_atom_site_fract_x
_atom_site_fract_y
_atom_site_fract_z
_atom_site_U_iso_or_equiv
_atom_site_adp_type
_atom_site_occupancy
_atom_site_site_symmetry_order
_atom_site_calc_flag
_atom_site_refinement_flags_posn
_atom_site_refinement_flags_adp
Se1 Se 0.18376(8) 0.17066(7) 0.72142(5) 0.0174(3) Uani 1 1 d . .
S1 S -0.2118(2) 0.7904(2) 0.80483(14) 0.0166(4) Uani 1 1 d . .
C1 C -0.3771(9) 0.2992(8) 0.9749(5) 0.0180(11) Uani 1 1 d . .
H1 H -0.2973 0.1664 0.9582 0.022 Uiso 1 1 calc R U
C2 C -0.3905(9) 0.6415(7) 0.9181(5) 0.0153(11) Uani 1 1 d . .
C3 C -0.2662(9) 0.4438(7) 0.8929(5) 0.0129(10) Uani 1 1 d . .
C4 C -0.0259(10) 0.4211(7) 0.7779(6) 0.0149(10) Uani 1 1 d . .
C5 C 0.0233(9) 0.5924(8) 0.7230(6) 0.0164(11) Uani 1 1 d . .
H5 H 0.1725 0.6034 0.6469 0.020 Uiso 1 1 calc R U
C6 C 0.4614(9) 0.2519(8) 0.5734(6) 0.0205(12) Uani 1 1 d . .
H6A H 0.5933 0.1378 0.5302 0.025 Uiso 1 1 calc R U
H6B H 0.3817 0.3430 0.4826 0.025 Uiso 1 1 calc R U
H6C H 0.5489 0.3159 0.6331 0.025 Uiso 1 1 calc R U
loop_
_atom_site_aniso_label
_atom_site_aniso_U_11
_atom_site_aniso_U_22
_atom_site_aniso_U_33
_atom_site_aniso_U_23
_atom_site_aniso_U_13
_atom_site_aniso_U_12
Se1 0.0112(5) 0.0172(5) 0.0216(5) -0.0045(3) 0.0055(3) -0.0038(3)
S1 0.0112(7) 0.0165(8) 0.0207(7) -0.0032(5) 0.0039(5) -0.0045(6)
C1 0.010(2) 0.024(3) 0.019(2) -0.0067(19) 0.0007(18) -0.002(2)
C2 0.011(2) 0.021(3) 0.015(2) 0.0010(19) -0.0010(17) -0.008(2)
C3 0.009(2) 0.012(3) 0.014(2) -0.0004(17) -0.0019(16) 0.0020(19)
C4 0.013(2) 0.011(3) 0.020(2) -0.0032(17) -0.0020(18) -0.0009(19)
C5 0.007(2) 0.021(3) 0.018(2) -0.0044(18) 0.0041(18) -0.0010(19)
C6 0.010(2) 0.025(3) 0.022(2) -0.009(2) 0.0042(19) -0.001(2)
loop_
_atom_type_symbol
_atom_type_description
_atom_type_scat_dispersion_real
_atom_type_scat_dispersion_imag
_atom_type_scat_source
C C 0.0181 0.0091
;
International Tables for Crystallography
(Vol. C, Tables 4.2.6.8 and 6.1.1.4)
;
H H 0.0000 0.0000
;
International Tables for Crystallography
(Vol. C, Table 6.1.1.4)
;
S S 0.3331 0.5567
;
International Tables for Crystallography
(Vol. C, Tables 4.2.6.8 and 6.1.1.4)
;
Se Se -0.7943 1.1372
;
International Tables for Crystallography
(Vol. C, Tables 4.2.6.8 and 6.1.1.4)
;
loop_
_geom_angle_atom_site_label_1
_geom_angle_atom_site_label_2
_geom_angle_atom_site_label_3
_geom_angle
_geom_angle_site_symmetry_1
C4 Se1 C6 97.5(2) .
C5 S1 C2 91.3(2) .
C2 C1 C3 117.3(5) 2_467
C2 C1 H1 121.4 2_467
C3 C1 H1 121.4 .
C1 C2 C3 122.3(5) 2_467
C1 C2 S1 126.3(4) 2_467
C3 C2 S1 111.3(4) .
C1 C3 C2 120.4(4) .
C1 C3 C4 128.3(4) .
C2 C3 C4 111.3(4) .
C5 C4 C3 112.4(5) .
C5 C4 Se1 127.0(4) .
C3 C4 Se1 120.6(4) .
C4 C5 S1 113.6(4) .
C4 C5 H5 123.2 .
S1 C5 H5 123.2 .
Se1 C6 H6A 109.5 .
Se1 C6 H6B 109.5 .
H6A C6 H6B 109.5 .
Se1 C6 H6C 109.5 .
H6A C6 H6C 109.5 .
H6B C6 H6C 109.5 .
loop_
_geom_bond_atom_site_label_1
_geom_bond_atom_site_label_2
_geom_bond_distance
_geom_bond_site_symmetry_2
Se1 C4 1.903(5) .
Se1 C6 1.949(5) .
S1 C5 1.736(5) .
S1 C2 1.737(5) .
C1 C2 1.394(6) 2_467
C1 C3 1.401(7) .
C1 H1 0.9500 .
C2 C1 1.394(6) 2_467
C2 C3 1.418(7) .
C3 C4 1.452(6) .
C4 C5 1.351(8) .
C5 H5 0.9500 .
C6 H6A 0.9800 .
C6 H6B 0.9800 .
C6 H6C 0.9800 .
loop_
_geom_torsion_atom_site_label_1
_geom_torsion_atom_site_label_2
_geom_torsion_atom_site_label_3
_geom_torsion_atom_site_label_4
_geom_torsion
_geom_torsion_site_symmetry_1
_geom_torsion_site_symmetry_4
C5 S1 C2 C1 179.0(4) . 2_467
C5 S1 C2 C3 0.7(3) . .
C2 C1 C3 C2 -0.8(7) 2_467 .
C2 C1 C3 C4 179.1(4) 2_467 .
C1 C2 C3 C1 0.8(7) 2_467 .
S1 C2 C3 C1 179.2(3) . .
C1 C2 C3 C4 -179.1(4) 2_467 .
S1 C2 C3 C4 -0.7(5) . .
C1 C3 C4 C5 -179.5(5) . .
C2 C3 C4 C5 0.4(6) . .
C1 C3 C4 Se1 -0.2(6) . .
C2 C3 C4 Se1 179.7(3) . .
C3 C4 C5 S1 0.1(6) . .
Se1 C4 C5 S1 -179.1(2) . .
C2 S1 C5 C4 -0.5(4) . .
