#------------------------------------------------------------------------------
#$Date: 2019-10-29 23:20:54 +0200 (Tue, 29 Oct 2019) $
#$Revision: 220417 $
#$URL: file:///home/coder/svn-repositories/cod/cif/4/00/29/4002993.cif $
#------------------------------------------------------------------------------
#
# This file is available in the Crystallography Open Database (COD),
# http://www.crystallography.net/
#
# All data on this site have been placed in the public domain by the
# contributors.
#
data_4002993
loop_
_publ_author_name
'Zhou, Laidong'
'Assoud, Abdeljalil'
'Shyamsunder, Abhinandan'
'Huq, Ashfia'
'Zhang, Qiang'
'Hartmann, Pascal'
'Kulisch, Joern'
'Nazar, Linda F.'
_publ_section_title
;
 An Entropically Stabilized Fast-Ion Conductor: Li3.25[Si0.25P0.75]S4
;
_journal_issue                   19
_journal_name_full               'Chemistry of Materials'
_journal_page_first              7801
_journal_paper_doi               10.1021/acs.chemmater.9b00657
_journal_volume                  31
_journal_year                    2019
_chemical_formula_moiety         'Li3.33 P0.67 S4 Si0.33'
_chemical_formula_sum            'Li3.33 P0.67 S4 Si0.33'
_chemical_formula_weight         181.35
_space_group_crystal_system      orthorhombic
_space_group_IT_number           62
_space_group_name_Hall           '-P 2ac 2n'
_space_group_name_H-M_alt        'P n m a'
_symmetry_space_group_name_Hall  '-P 2ac 2n'
_symmetry_space_group_name_H-M   'P n m a'
_audit_creation_method           SHELXL-2016
_cell_angle_alpha                90
_cell_angle_beta                 90
_cell_angle_gamma                90
_cell_formula_units_Z            4
_cell_length_a                   13.2489(4)
_cell_length_b                   8.0094(2)
_cell_length_c                   6.1311(2)
_cell_measurement_reflns_used    721
_cell_measurement_temperature    280(2)
_cell_measurement_theta_max      30
_cell_measurement_theta_min      1.5
_cell_volume                     650.61(3)
_computing_cell_refinement       'SMART, 'Bruker APEX II'
_computing_data_collection       'Bruker kappa APEX II'
_computing_data_reduction        'SAINT, 'Bruker APEX II'
_computing_molecular_graphics    Diamond
_computing_structure_refinement  'SHELXL-2016 (Sheldrick, 2016)'
_computing_structure_solution    'SHELXL-2016 (Sheldrick, 2016)'
_diffrn_ambient_temperature      280(2)
_diffrn_measured_fraction_theta_full 1.000
_diffrn_measured_fraction_theta_max 1.000
_diffrn_measurement_device_type  'BRUKER kappa APEX II'
_diffrn_measurement_method       'Omega and phi scan'
_diffrn_radiation_monochromator  graphite
_diffrn_radiation_source         'fine-focus sealed tube'
_diffrn_radiation_type           MoK\a
_diffrn_radiation_wavelength     0.71073
_diffrn_reflns_av_R_equivalents  0.0114
_diffrn_reflns_av_unetI/netI     0.0084
_diffrn_reflns_Laue_measured_fraction_full 1.000
_diffrn_reflns_Laue_measured_fraction_max 1.000
_diffrn_reflns_limit_h_max       18
_diffrn_reflns_limit_h_min       -18
_diffrn_reflns_limit_k_max       7
_diffrn_reflns_limit_k_min       -11
_diffrn_reflns_limit_l_max       8
_diffrn_reflns_limit_l_min       -8
_diffrn_reflns_number            6573
_diffrn_reflns_point_group_measured_fraction_full 1.000
_diffrn_reflns_point_group_measured_fraction_max 1.000
_diffrn_reflns_theta_full        25.242
_diffrn_reflns_theta_max         29.994
_diffrn_reflns_theta_min         3.075
_diffrn_standards_decay_%        0
_diffrn_standards_interval_time  3
_diffrn_standards_number         3
_exptl_absorpt_coefficient_mu    1.545
_exptl_absorpt_correction_T_max  0.7460
_exptl_absorpt_correction_T_min  0.6310
_exptl_absorpt_correction_type   multi-scan
_exptl_absorpt_process_details   SADABS
_exptl_crystal_colour            colourless
_exptl_crystal_density_diffrn    1.851
_exptl_crystal_description       Plate
_exptl_crystal_F_000             355
_exptl_crystal_size_max          0.200
_exptl_crystal_size_mid          0.080
_exptl_crystal_size_min          0.020
_refine_diff_density_max         0.290
_refine_diff_density_min         -0.179
_refine_diff_density_rms         0.046
_refine_ls_extinction_method     none
_refine_ls_goodness_of_fit_ref   0.838
_refine_ls_hydrogen_treatment    undef
_refine_ls_matrix_type           full
_refine_ls_number_parameters     71
_refine_ls_number_reflns         1015
_refine_ls_number_restraints     6
_refine_ls_restrained_S_all      0.836
_refine_ls_R_factor_all          0.0142
_refine_ls_R_factor_gt           0.0130
_refine_ls_shift/su_max          0.000
_refine_ls_shift/su_mean         0.000
_refine_ls_structure_factor_coef Fsqd
_refine_ls_weighting_details
'w=1/[\s^2^(Fo^2^)+(0.0269P)^2^+0.2303P] where P=(Fo^2^+2Fc^2^)/3'
_refine_ls_weighting_scheme      calc
_refine_ls_wR_factor_gt          0.0358
_refine_ls_wR_factor_ref         0.0368
_reflns_Friedel_coverage         0.000
_reflns_number_gt                961
_reflns_number_total             1015
_reflns_threshold_expression     'I > 2\s(I)'
_cod_data_source_file            Li3.33Si0.33P0.67S4.cif
_cod_data_source_block           Li3.33Si0.33P0.67S4
_cod_database_code               4002993
_shelx_space_group_comment
;
The symmetry employed for this shelxl refinement is uniquely defined
by the following loop, which should always be used as a source of
symmetry information in preference to the above space-group names.
They are only intended as comments.
;
_shelx_estimated_absorpt_t_min   0.748
_shelx_estimated_absorpt_t_max   0.970
_shelx_res_file
;
TITL LN8_0ma in Pnma
    LN8.res
    created by SHELXL-2016/6 at 10:37:41 on 15-May-2018
CELL 0.71073 13.24890 8.00940 6.13110 90.0000 90.0000 90.0000
ZERR 4.00 0.00040 0.00020 0.00020 0.0000 0.0000 0.0000
LATT  1
SYMM 1/2-X, -Y, 1/2+Z
SYMM -X, 1/2+Y, -Z
SYMM 1/2+X, 1/2-Y, 1/2-Z
SFAC LI P S SI
UNIT 13.3123 2.66664 16 1.33336
TEMP 6.850
SIZE 0.02 0.08 0.20
EXYZ P1 SI1
EADP P1 SI1
ACTA
L.S. 30
OMIT -3 60
SIMU LI1A LI1B
BOND
LIST 4
FMAP 2
PLAN 10

WGHT    0.026900    0.230300
FVAR       0.17526   0.86278
P1    2    0.087272    0.250000    0.155734    10.33333    0.01696    0.01652 =
         0.01480    0.00000    0.00148    0.00000
SI1   4    0.087272    0.250000    0.155734    10.16667    0.01696    0.01652 =
         0.01480    0.00000    0.00148    0.00000
S1    3    0.153283    0.034329    0.275434    11.00000    0.02191    0.02404 =
         0.02730    0.00523    0.00030    0.00407
S2    3   -0.061589    0.250000    0.268351    10.50000    0.01844    0.02023 =
         0.02299    0.00000    0.00172    0.00000
S3    3    0.099474    0.250000   -0.179745    10.50000    0.03357    0.02254 =
         0.01614    0.00000    0.00356    0.00000
LI1A  1    0.329488    0.029643    0.381488    21.00000    0.03250    0.03775 =
         0.05105    0.01480   -0.00297    0.00038
LI1B  1    0.333786    0.007146    0.208116   -21.00000    0.01710    0.01755 =
         0.08343    0.00626   -0.00392   -0.00025
LI2   1    0.006503    0.043026    0.555144     0.43659    0.03867    0.05470 =
         0.04614    0.02408    0.00334   -0.00992
LI3A  1   -0.083340    0.250000   -0.160468     0.12070    0.04877    0.04381 =
         0.08788    0.00000   -0.02745    0.00000
LI3B  1   -0.069271    0.250000   -0.308610     0.10675    0.04781    0.03589 =
         0.04754    0.00000   -0.00723    0.00000
HKLF 4




REM  LN8_0ma in Pnma
REM R1 =  0.0130 for     961 Fo > 4sig(Fo)  and  0.0142 for all    1015 data
REM     71 parameters refined using      6 restraints

END

WGHT      0.0188      0.0914

REM Highest difference peak  0.290,  deepest hole -0.179,  1-sigma level  0.046
Q1    1   0.0175  0.2500  0.2065  10.50000  0.05    0.29
Q2    1   0.0921  0.2500 -0.0111  10.50000  0.05    0.26
Q3    1   0.0511  0.2500 -0.1370  10.50000  0.05    0.26
Q4    1   0.1204  0.1522  0.2079  11.00000  0.05    0.21
Q5    1  -0.0718  0.2500  0.1670  10.50000  0.05    0.21
Q6    1   0.1799  0.0957  0.3117  11.00000  0.05    0.20
Q7    1  -0.0708  0.1519  0.2879  11.00000  0.05    0.17
Q8    1   0.1982  0.0096  0.2298  11.00000  0.05    0.15
Q9    1   0.1637  0.0353  0.1614  11.00000  0.05    0.15
Q10   1   0.1218  0.1667 -0.1727  11.00000  0.05    0.15
;
_shelx_res_checksum              1602
_shelx_hkl_file
;
   0   0   2  903.73    9.00
   0   0  -2  952.05    9.03
   0   0  -2 1000.00    8.94
   0   0   3    0.09    0.03
   0   0  -3    0.01    0.02
   0   0  -3   -0.03    0.02
   0   0   4   46.73    0.54
   0   0  -4   47.00    0.50
   0   0  -4   46.74    0.53
   0   0  -5   -0.01    0.03
   0   0   5    0.07    0.04
   0   0  -5    0.03    0.03
   0   0  -6    0.19    0.04
   0   0  -6    0.19    0.05
   0   0   6    0.25    0.06
   0   0  -7   -0.01    0.03
   0   0   7    0.03    0.06
   0   0  -7    0.01    0.05
   0   0   8    0.03    0.06
   0  -1   0    0.03    0.01
   0  -1  -1  147.86    1.47
   0   1  -1  146.97    1.45
   0   1  -2    0.01    0.02
   0  -1   2    0.03    0.02
   0  -1  -2    0.02    0.02
   0   1   2    0.00    0.02
   0  -1  -2    0.00    0.02
   0   1  -3   29.93    0.32
   0  -1  -3   30.17    0.34
   0  -1  -3   30.49    0.32
   0   1   3   30.87    0.36
   0   1  -3   30.04    0.35
   0  -1  -3   29.72    0.35
   0  -1   3   30.16    0.35
   0   1  -4    0.01    0.02
   0   1  -4    0.02    0.03
   0  -1  -4    0.00    0.02
   0  -1  -4    0.01    0.02
   0  -1  -4   -0.05    0.02
   0  -1   4    0.11    0.04
   0   1   4    0.05    0.04
   0  -1  -5    7.98    0.16
   0  -1   5    7.57    0.18
   0   1  -5    7.74    0.17
   0   1  -5    8.00    0.14
   0  -1  -5    8.01    0.17
   0   1   5    7.84    0.18
   0  -1  -6   -0.09    0.03
   0  -1  -6    0.02    0.04
   0   1  -6    0.04    0.03
   0   1   6    0.01    0.05
   0  -1   6   -0.02    0.05
   0   1  -6   -0.02    0.04
   0  -1  -7   13.45    0.25
   0  -1   7   13.19    0.28
   0   1  -7   13.22    0.27
   0  -1  -7   13.54    0.28
   0   1   7   12.58    0.28
   0   1   8    0.04    0.07
   0  -1   8    0.11    0.07
   0  -1  -8    0.05    0.05
   0  -2   0   51.04    0.49
   0  -2   1    0.10    0.02
   0  -2  -1    0.05    0.02
   0  -2  -1    0.12    0.02
   0  -2  -1    0.12    0.02
   0   2   1    0.14    0.02
   0  -2   2    6.57    0.11
   0   2   2    6.61    0.12
   0  -2  -2    6.65    0.11
   0  -2  -2    6.75    0.11
   0  -2  -2    6.65    0.10
   0   2  -2    6.75    0.11
   0   2  -3    0.00    0.01
   0   2  -3    0.00    0.02
   0  -2  -3    0.01    0.03
   0  -2   3   -0.01    0.03
   0  -2  -3    0.02    0.02
   0  -2  -3    0.00    0.02
   0   2   3    0.02    0.03
   0  -2   4   37.17    0.45
   0  -2  -4   37.61    0.45
   0  -2  -4   37.82    0.44
   0   2  -4   37.19    0.44
   0   2   4   37.28    0.46
   0  -2  -4   37.59    0.41
   0   2  -4   37.73    0.40
   0   2   5    0.00    0.04
   0  -2   5   -0.05    0.04
   0  -2  -5   -0.03    0.03
   0   2  -5    0.03    0.03
   0  -2  -5    0.00    0.03
   0   2  -6   52.65    0.64
   0   2   6   50.54    0.65
   0  -2   6   52.22    0.65
   0  -2  -6   52.18    0.62
   0  -2  -6   51.74    0.64
   0  -2  -7   -0.01    0.04
   0  -2   7    0.05    0.06
   0   2   7    0.00    0.05
   0  -2  -7   -0.06    0.04
   0   2  -7    0.06    0.04
   0   2   8    3.73    0.17
   0  -2  -8    3.68    0.15
   0  -2   8    3.47    0.18
   0  -3   0    0.03    0.02
   0  -3   0    0.02    0.02
   0  -3  -1   11.02    0.14
   0  -3  -1   10.95    0.15
   0  -3   1   11.16    0.14
   0  -3  -1   11.26    0.15
   0   3  -2   -0.01    0.02
   0  -3  -2    0.01    0.02
   0  -3   2    0.00    0.01
   0  -3  -2    0.00    0.02
   0   3   2    0.00    0.02
   0  -3   2    0.00    0.02
   0  -3  -2    0.01    0.02
   0  -3  -3    7.30    0.13
   0  -3  -3    7.27    0.13
   0   3   3    7.40    0.15
   0  -3   3    7.36    0.10
   0  -3  -3    7.44    0.14
   0   3  -3    7.46    0.13
   0  -3   3    7.31    0.14
   0  -3  -4    0.01    0.02
   0  -3  -4    0.00    0.03
   0   3  -4    0.00    0.03
   0  -3  -4   -0.01    0.03
   0   3   4    0.00    0.04
   0  -3   4    0.02    0.04
   0   3  -5    0.37    0.05
   0  -3  -5    0.45    0.06
   0   3   5    0.47    0.06
   0  -3   5    0.46    0.06
   0  -3  -5    0.31    0.05
   0  -3  -5    0.44    0.04
   0   3   6    0.06    0.05
   0  -3   6   -0.02    0.05
   0  -3  -6    0.04    0.04
   0  -3  -6   -0.05    0.04
   0  -3  -7    3.78    0.15
   0  -3  -7    3.96    0.15
   0   3   7    4.16    0.17
   0  -3   7    3.94    0.17
   0  -3  -8    0.00    0.05
   0  -3   8   -0.08    0.07
   0   3   8    0.03    0.07
   0  -4   0  858.30    8.19
   0  -4   0  854.16    8.00
   0  -4   1    0.00    0.02
   0  -4  -1    0.09    0.03
   0  -4   1    0.01    0.02
   0  -4  -1   -0.01    0.02
   0  -4  -1    0.01    0.02
   0  -4   2  313.50    2.98
   0  -4  -2  310.85    3.02
   0  -4   2  315.27    2.96
   0  -4  -2  322.45    2.98
   0   4   2  309.12    3.11
   0  -4  -2  312.84    3.07
   0   4   3   -0.05    0.03
   0  -4  -3    0.00    0.03
   0  -4   3    0.04    0.03
   0  -4  -3    0.00    0.03
   0  -4  -3   -0.04    0.03
   0   4  -3   -0.01    0.02
   0  -4   4   13.22    0.24
   0  -4  -4   13.13    0.21
   0   4   4   13.18    0.24
   0  -4  -4   13.46    0.23
   0  -4  -4   13.01    0.22
   0  -4  -5    0.04    0.03
   0  -4   5    0.00    0.04
   0   4   5   -0.07    0.04
   0  -4  -5    0.06    0.04
   0  -4  -5    0.06    0.04
   0   4   6    1.55    0.11
   0  -4  -6    1.69    0.10
   0  -4   6    1.61    0.12
   0  -4  -6    1.79    0.11
   0   4   7    0.03    0.06
   0  -4   7    0.05    0.07
   0  -4  -7   -0.01    0.05
   0  -4  -8    0.07    0.06
   0   4   8    0.02    0.07
   0  -4   8    0.11    0.08
   0  -5   0    0.05    0.03
   0  -5   0    0.01    0.03
   0  -5   0    0.00    0.02
   0  -5   1  192.69    1.85
   0  -5  -1  188.90    1.81
   0  -5  -1  189.60    1.83
   0  -5   1  190.13    1.82
   0  -5  -1  191.40    1.80
   0  -5  -2    0.05    0.03
   0  -5   2    0.08    0.04
   0  -5  -2    0.06    0.03
   0  -5   2    0.03    0.02
   0  -5  -2    0.03    0.03
   0  -5   3   66.31    0.74
   0   5   3   66.47    0.74
   0  -5  -3   65.68    0.71
   0  -5  -3   66.09    0.71
   0  -5  -3   66.40    0.72
   0  -5  -4    0.02    0.03
   0  -5  -4    0.00    0.04
   0   5   4    0.00    0.04
   0  -5   4    0.05    0.04
   0  -5  -4    0.00    0.03
   0  -5  -5   19.41    0.31
   0  -5  -5   19.17    0.31
   0  -5   5   18.84    0.33
   0   5   5   19.44    0.33
   0  -5  -5   19.07    0.29
   0  -5  -6    0.02    0.05
   0  -5   6    0.09    0.06
   0  -5  -6   -0.05    0.04
   0   5   6    0.00    0.05
   0  -5  -7   15.01    0.30
   0   5   7   14.77    0.32
   0  -5   7   14.35    0.33
   0  -6   0  115.48    1.19
   0  -6   0  116.54    1.17
   0  -6  -1    0.07    0.03
   0  -6  -1   -0.02    0.03
   0  -6   1    0.01    0.03
   0  -6   1    0.00    0.03
   0  -6  -1   -0.02    0.03
   0  -6  -2   35.94    0.44
   0  -6   2   35.98    0.42
   0  -6  -2   35.77    0.42
   0  -6  -2   35.55    0.42
   0  -6   2   36.09    0.46
   0  -6   3   -0.04    0.04
   0  -6  -3   -0.02    0.03
   0  -6  -3   -0.01    0.04
   0  -6  -3   -0.04    0.03
   0  -6   4    2.85    0.13
   0  -6  -4    3.16    0.11
   0  -6  -4    2.94    0.11
   0  -6  -4    3.01    0.11
   0  -6   5    0.03    0.06
   0  -6  -5   -0.02    0.04
   0  -6  -5    0.00    0.04
   0   6   5   -0.01    0.05
   0  -6  -5   -0.04    0.04
   0   6   6   13.61    0.30
   0  -6  -6   13.74    0.28
   0  -6  -6   13.62    0.27
   0  -6   6   13.42    0.30
   0  -6  -6   14.38    0.28
   0   6   7   -0.04    0.06
   0  -6  -7    0.01    0.06
   0  -6   7   -0.04    0.07
   0  -7   0   -0.02    0.03
   0  -7   0    0.05    0.04
   0  -7  -1   16.35    0.23
   0  -7   1   17.63    0.29
   0  -7  -1   16.87    0.27
   0  -7   1   16.70    0.25
   0  -7  -2    0.08    0.04
   0  -7  -2    0.01    0.03
   0  -7   2    0.01    0.04
   0  -7  -2    0.03    0.04
   0  -7   2    0.01    0.03
   0  -7  -3   13.13    0.23
   0  -7  -3   13.01    0.23
   0  -7  -3   13.00    0.24
   0  -7   3   13.14    0.26
   0  -7  -4    0.00    0.04
   0  -7  -4   -0.01    0.04
   0  -7  -4   -0.06    0.04
   0  -7   4   -0.01    0.05
   0  -7  -5    2.99    0.13
   0  -7   5    2.99    0.15
   0  -7  -5    3.02    0.13
   0  -7  -5    2.96    0.13
   0  -7  -6   -0.03    0.04
   0  -7   6    0.10    0.07
   0  -7  -6   -0.06    0.05
   0  -8   0   86.42    0.96
   0  -8   0   84.52    0.93
   0  -8  -1    0.07    0.05
   0  -8   1    0.03    0.05
   0  -8  -1    0.02    0.04
   0  -8   1   -0.02    0.04
   0  -8  -2   32.28    0.45
   0  -8   2   31.84    0.42
   0  -8   2   32.61    0.47
   0  -8  -3   -0.05    0.04
   0  -8   3    0.06    0.06
   0  -8  -3   -0.06    0.05
   0  -8  -3    0.14    0.06
   0  -8  -4    0.13    0.05
   0  -8   4    0.02    0.06
   0  -8  -4   -0.02    0.05
   0  -8  -4   -0.01    0.05
   0  -8   5   -0.07    0.06
   0  -8  -5    0.04    0.05
   0  -8  -5    0.04    0.05
   0  -8  -5    0.03    0.06
   0  -8  -6    3.83    0.16
   0  -8  -6    4.18    0.17
   0  -8   6    4.14    0.20
   0  -9   0    0.03    0.05
   0  -9   0   -0.01    0.05
   0  -9   1   56.73    0.68
   0  -9  -1   57.22    0.70
   0  -9  -1   57.68    0.72
   0  -9   1   57.53    0.73
   0  -9  -2    0.04    0.05
   0  -9   2   -0.10    0.05
   0  -9   3   21.77    0.39
   0  -9  -3   20.94    0.36
   0  -9  -4    0.05    0.06
   0  -9  -4   -0.03    0.05
   0  -9   4    0.03    0.07
   0  -9   5    7.83    0.25
   0  -9  -5    8.00    0.22
   0  -9  -5    7.92    0.23
   0 -10   0   88.49    1.04
   0 -10   0   86.26    0.99
   0 -10  -1    0.04    0.06
   0 -10   1   -0.02    0.06
   0 -10   1    0.06    0.06
   0 -10  -1   -0.05    0.05
   0 -10   2   36.59    0.56
   0 -10  -2   37.79    0.56
   0 -10  -2   37.12    0.54
   0 -10  -3    0.12    0.06
   0 -10   3   -0.04    0.06
   0 -11   0    0.11    0.07
   0 -11   0    0.04    0.06
   0 -11   1    0.37    0.09
   0 -11  -1    0.45    0.08
   0 -11   1    0.41    0.08
   0 -11  -1    0.39    0.09
   1   0   0    0.00    0.00
   1   0  -1   21.94    0.22
  -1   0  -1   21.59    0.23
   1   0   2   28.72    0.32
  -1   0  -2   28.99    0.30
   1   0  -2   28.96    0.30
   1   0  -2   28.53    0.31
  -1   0   2   28.82    0.31
  -1   0  -2   29.00    0.32
  -1   0  -3   35.76    0.40
  -1   0   3   35.17    0.40
   1   0  -3   35.20    0.40
   1   0   3   34.58    0.40
   1   0  -3   35.71    0.38
  -1   0  -3   35.34    0.38
  -1   0  -4   23.71    0.31
  -1   0   4   24.03    0.31
   1   0  -4   23.56    0.31
   1   0  -4   23.89    0.29
   1   0   4   23.83    0.32
  -1   0  -4   23.62    0.29
  -1   0  -5    3.70    0.12
  -1   0  -5    3.57    0.10
   1   0   5    3.34    0.12
   1   0  -5    3.70    0.10
  -1   0   5    3.58    0.12
   1   0  -5    3.43    0.11
  -1   0  -6   21.04    0.30
  -1   0   6   21.00    0.34
  -1   0  -6   20.30    0.33
   1   0  -6   21.12    0.30
   1   0   6   20.64    0.34
   1   0  -6   21.46    0.34
   1   0   7   38.92    0.56
   1   0  -7   39.57    0.55
   1   0  -7   38.88    0.50
  -1   0  -7   38.55    0.49
  -1   0  -7   39.51    0.55
  -1   0   7   39.10    0.55
  -1   0   8    7.65    0.23
   1   0   8    7.76    0.24
   1  -1  -1   19.92    0.22
  -1  -1  -1   20.02    0.21
   1   1  -1   19.98    0.20
   1   1   2    1.96    0.06
   1  -1  -2    2.08    0.06
  -1  -1   2    2.12    0.06
  -1   1  -2    2.10    0.06
   1   1  -2    2.12    0.06
  -1  -1  -2    1.99    0.05
  -1   1   2    2.13    0.06
   1   1  -2    2.11    0.05
  -1  -1  -2    2.04    0.06
   1  -1  -3   39.72    0.40
   1  -1  -3   38.96    0.44
  -1   1  -3   39.46    0.41
   1  -1  -3   39.84    0.43
   1   1   3   39.85    0.45
  -1   1  -3   39.82    0.44
  -1  -1   3   39.31    0.44
   1  -1   3   39.16    0.45
  -1  -1  -3   39.81    0.43
   1   1  -3   39.98    0.41
  -1   1   3   39.32    0.44
   1   1  -3   39.73    0.44
  -1  -1  -3   40.02    0.44
  -1  -1   4   16.69    0.25
  -1   1  -4   16.64    0.25
   1  -1  -4   16.68    0.20
   1  -1  -4   16.63    0.23
   1  -1  -4   16.87    0.25
   1   1   4   16.48    0.25
  -1   1  -4   16.39    0.21
  -1   1   4   16.93    0.25
  -1  -1  -4   16.78    0.23
  -1  -1  -4   16.79    0.25
   1  -1   4   16.90    0.25
   1   1  -4   16.47    0.22
   1   1  -4   16.85    0.24
   1  -1  -5    6.03    0.14
   1  -1  -5    6.03    0.15
  -1   1  -5    5.70    0.15
  -1   1  -5    5.87    0.12
   1   1   5    5.92    0.16
  -1  -1   5    5.90    0.15
  -1  -1  -5    6.11    0.15
   1  -1   5    5.87    0.16
   1   1  -5    6.05    0.15
  -1  -1  -5    5.89    0.13
   1   1  -5    5.96    0.12
  -1   1   5    6.04    0.15
   1  -1  -6   25.71    0.39
  -1  -1   6   25.31    0.39
  -1   1  -6   25.81    0.39
   1  -1  -6   26.29    0.36
  -1   1  -6   25.23    0.36
   1   1   6   26.04    0.40
   1   1  -6   26.24    0.34
  -1   1   6   26.02    0.39
  -1  -1  -6   25.58    0.39
   1  -1   6   25.97    0.40
  -1  -1  -6   26.57    0.36
   1   1  -6   26.26    0.38
   1  -1  -7    1.56    0.11
  -1  -1   7    1.34    0.11
  -1   1  -7    1.46    0.11
   1  -1  -7    1.41    0.09
   1   1   7    1.68    0.12
   1  -1   7    1.55    0.12
  -1  -1  -7    1.66    0.11
  -1   1   7    1.58    0.12
  -1  -1  -7    1.50    0.09
   1   1  -7    1.72    0.11
   1  -1  -8    9.35    0.22
  -1  -1   8    9.14    0.25
   1   1   8    8.72    0.25
  -1  -1  -8    9.17    0.21
  -1   1   8    8.79    0.25
   1  -1   8    9.24    0.26
   1  -2   0    0.01    0.02
   1  -2   0    0.02    0.02
   1  -2  -1   57.79    0.56
  -1  -2   1   57.00    0.57
   1  -2  -1   57.64    0.57
   1  -2  -1   57.20    0.57
   1   2   1   56.45    0.58
  -1  -2  -1   57.11    0.56
  -1  -2  -1   59.07    0.56
  -1   2   1   56.86    0.57
  -1  -2  -1   58.07    0.57
   1  -2   1   58.06    0.57
   1   2   2   24.65    0.30
  -1  -2   2   24.96    0.29
   1  -2  -2   25.03    0.29
   1  -2  -2   24.91    0.27
  -1   2  -2   25.04    0.28
   1  -2  -2   25.08    0.28
   1  -2   2   24.57    0.29
  -1  -2  -2   25.54    0.28
  -1  -2  -2   24.79    0.28
   1   2  -2   24.99    0.27
  -1   2   2   24.84    0.29
   1  -2  -3   94.05    0.92
   1   2   3   94.04    0.96
   1  -2  -3   93.99    0.94
   1  -2  -3   94.55    0.95
  -1   2  -3   94.20    0.90
  -1  -2   3   93.80    0.95
  -1   2  -3   94.57    0.94
  -1  -2  -3   94.83    0.95
  -1  -2  -3   96.02    0.94
   1  -2   3   94.47    0.96
  -1   2   3   94.90    0.95
   1   2  -3   93.91    0.94
   1  -2   3   92.94    0.90
   1   2  -3   95.08    0.91
  -1   2  -4   11.92    0.20
  -1  -2   4   11.81    0.20
   1  -2  -4   11.82    0.20
   1  -2  -4   11.88    0.19
   1   2   4   11.69    0.21
   1  -2  -4   11.98    0.17
  -1   2  -4   11.68    0.16
  -1  -2  -4   12.00    0.17
   1  -2   4   12.01    0.21
  -1  -2  -4   11.72    0.20
  -1  -2  -4   11.81    0.19
   1   2  -4   12.12    0.19
   1   2  -4   11.91    0.17
  -1   2   4   11.64    0.20
  -1  -2   5   18.80    0.30
   1   2   5   19.63    0.31
   1  -2  -5   18.96    0.30
   1  -2  -5   19.27    0.28
  -1   2  -5   19.49    0.30
  -1  -2  -5   19.30    0.30
   1   2  -5   19.12    0.29
   1   2  -5   18.92    0.25
  -1  -2  -5   19.37    0.25
  -1  -2  -5   19.15    0.28
   1  -2   5   19.23    0.31
  -1   2   5   19.15    0.30
   1  -2  -6    4.31    0.15
  -1  -2   6    4.73    0.16
  -1   2  -6    4.62    0.15
   1  -2  -6    4.51    0.14
   1   2   6    4.70    0.16
   1   2  -6    4.67    0.14
   1  -2   6    4.57    0.16
  -1   2   6    4.78    0.16
  -1  -2  -6    4.36    0.15
  -1  -2  -6    4.71    0.14
   1  -2  -7    1.91    0.12
  -1  -2   7    1.85    0.13
  -1   2  -7    1.78    0.11
   1   2   7    1.91    0.13
   1  -2  -7    1.84    0.11
  -1  -2  -7    1.88    0.10
  -1  -2  -7    1.85    0.12
   1  -2   7    1.71    0.13
  -1   2   7    1.84    0.12
  -1  -2   8    5.27    0.20
   1  -2  -8    5.44    0.18
   1   2   8    5.81    0.21
  -1  -2  -8    5.65    0.18
   1  -2   8    5.76    0.22
  -1   2   8    5.31    0.20
   1  -3   0    0.02    0.02
   1  -3   0    0.03    0.02
   1  -3   0    0.01    0.02
  -1  -3   0    0.02    0.02
  -1  -3   0    0.01    0.02
  -1  -3   1   37.01    0.38
   1  -3  -1   37.29    0.39
   1  -3  -1   36.73    0.38
   1  -3  -1   36.92    0.39
  -1  -3  -1   37.11    0.38
   1  -3   1   37.02    0.38
  -1  -3  -1   35.99    0.39
  -1  -3  -1   36.59    0.38
  -1  -3   2    0.05    0.03
   1   3   2    0.05    0.03
   1  -3  -2    0.00    0.02
   1  -3  -2    0.06    0.02
   1  -3  -2    0.00    0.02
  -1   3   2    0.02    0.02
  -1  -3  -2    0.02    0.02
   1   3  -2    0.02    0.02
  -1  -3  -2    0.02    0.02
  -1  -3  -2    0.04    0.02
   1  -3   2   -0.01    0.02
   1  -3   2    0.01    0.02
   1  -3  -3   86.33    0.87
   1  -3  -3   86.34    0.89
   1   3   3   87.99    0.91
  -1   3  -3   86.64    0.89
   1  -3  -3   87.92    0.89
  -1  -3   3   87.49    0.90
  -1  -3  -3   88.68    0.89
  -1   3   3   87.82    0.90
  -1  -3  -3   86.71    0.89
   1  -3   3   87.32    0.90
   1  -3   3   88.32    0.85
  -1  -3  -3   87.33    0.88
   1   3  -3   88.32    0.88
   1   3  -3   88.05    0.84
   1  -3  -4    0.21    0.04
  -1   3  -4    0.23    0.04
   1  -3  -4    0.24    0.03
   1  -3  -4    0.12    0.04
   1   3   4    0.23    0.05
  -1  -3   4    0.22    0.04
   1   3  -4    0.20    0.04
  -1   3   4    0.39    0.05
  -1  -3  -4    0.15    0.04
  -1  -3  -4    0.19    0.04
  -1  -3  -4    0.20    0.03
   1  -3   4    0.21    0.05
   1   3   5   29.02    0.42
   1  -3  -5   28.60    0.40
  -1  -3   5   29.22    0.41
  -1   3  -5   29.62    0.40
   1  -3  -5   29.24    0.39
   1  -3  -5   29.10    0.37
   1   3  -5   28.64    0.42
   1  -3   5   29.20    0.41
  -1  -3  -5   29.13    0.39
  -1   3   5   28.72    0.40
  -1  -3  -5   28.71    0.36
  -1  -3  -5   29.30    0.40
   1  -3  -6    6.22    0.17
   1   3   6    6.34    0.19
  -1   3  -6    6.15    0.17
   1  -3  -6    6.37    0.18
  -1  -3   6    6.36    0.18
  -1  -3  -6    6.25    0.17
   1  -3   6    6.33    0.19
  -1  -3  -6    6.24    0.16
  -1   3   6    6.44    0.18
   1  -3  -7    2.18    0.12
   1   3   7    2.59    0.14
  -1  -3   7    2.42    0.14
   1  -3  -7    2.23    0.13
   1  -3   7    2.11    0.14
  -1  -3  -7    2.30    0.12
  -1  -3  -7    2.38    0.13
  -1   3   7    2.48    0.14
  -1  -3   8    1.99    0.15
   1   3   8    2.05    0.15
   1  -3  -8    2.20    0.13
   1  -3   8    2.07    0.15
  -1  -3  -8    2.10    0.13
  -1   3   8    2.01    0.14
   1  -4   0   -0.01    0.02
   1  -4   0   -0.01    0.02
   1  -4   0    0.05    0.02
  -1  -4   0    0.04    0.02
   1  -4   0    0.00    0.02
  -1  -4   0    0.03    0.02
   1  -4  -1   13.81    0.19
   1  -4  -1   13.68    0.18
  -1  -4   1   13.34    0.20
  -1  -4   1   13.79    0.18
  -1  -4  -1   13.83    0.17
   1  -4   1   13.48    0.20
   1  -4   1   13.86    0.18
  -1  -4  -1   13.80    0.18
  -1  -4  -1   13.54    0.19
   1  -4  -2    3.04    0.08
  -1  -4   2    3.08    0.09
  -1  -4   2    3.03    0.07
   1  -4  -2    2.99    0.08
   1  -4  -2    2.94    0.08
   1   4   2    2.96    0.09
  -1  -4  -2    3.20    0.09
   1  -4   2    3.07    0.07
  -1  -4  -2    2.97    0.08
  -1  -4  -2    2.96    0.08
  -1  -4   3   28.77    0.37
   1  -4  -3   28.72    0.35
   1   4   3   28.17    0.38
   1  -4  -3   28.83    0.35
   1  -4  -3   28.48    0.36
  -1   4  -3   28.97    0.35
   1  -4   3   28.59    0.32
   1   4  -3   28.50    0.34
  -1  -4  -3   28.69    0.35
  -1  -4  -3   28.43    0.35
   1  -4   3   28.67    0.37
  -1   4   3   28.79    0.37
  -1  -4  -3   28.48    0.35
  -1  -4   4    5.63    0.15
   1  -4  -4    5.68    0.14
   1  -4  -4    5.72    0.14
   1  -4  -4    5.43    0.13
  -1   4  -4    5.69    0.13
   1   4   4    5.69    0.15
  -1  -4  -4    5.88    0.14
   1  -4   4    5.66    0.15
  -1  -4  -4    5.59    0.14
  -1   4   4    5.70    0.15
  -1  -4  -4    5.62    0.13
  -1  -4   5    0.33    0.06
   1  -4  -5    0.42    0.06
   1  -4  -5    0.40    0.05
   1  -4  -5    0.36    0.06
   1   4   5    0.49    0.07
  -1  -4  -5    0.32    0.05
  -1   4   5    0.32    0.06
   1  -4   5    0.33    0.06
  -1  -4  -5    0.31    0.05
  -1  -4  -5    0.32    0.05
   1   4   6    6.51    0.20
   1  -4  -6    6.39    0.18
  -1  -4   6    6.66    0.19
   1  -4  -6    6.53    0.17
  -1  -4  -6    6.73    0.17
   1  -4   6    6.51    0.20
  -1  -4  -6    6.42    0.18
  -1   4   6    6.53    0.19
   1   4   7   19.56    0.37
   1  -4  -7   19.89    0.34
  -1  -4   7   19.33    0.37
  -1  -4  -7   19.10    0.34
  -1   4   7   19.21    0.36
   1  -4   7   19.02    0.37
  -1  -4   8    2.08    0.16
   1   4   8    2.28    0.16
   1  -4  -8    2.17    0.14
  -1   4   8    1.98    0.15
   1  -4   8    2.24    0.17
  -1  -4  -8    2.07    0.13
  -1  -5   0    0.01    0.02
   1  -5   0   -0.03    0.03
  -1  -5   0    0.02    0.03
   1  -5   0    0.02    0.02
   1  -5   0    0.06    0.03
  -1  -5   1    0.94    0.04
   1  -5  -1    0.96    0.06
   1  -5  -1    0.91    0.05
  -1  -5   1    0.90    0.05
   1  -5  -1    0.88    0.06
  -1  -5   1    0.93    0.06
  -1  -5  -1    1.11    0.06
  -1  -5  -1    1.06    0.05
   1  -5   1    0.94    0.07
   1  -5   1    0.95    0.06
  -1  -5  -1    1.05    0.05
   1  -5  -2    1.09    0.06
  -1  -5   2    1.09    0.07
  -1  -5   2    0.96    0.05
   1  -5  -2    1.07    0.07
   1  -5  -2    1.15    0.06
  -1  -5  -2    0.97    0.06
   1  -5   2    1.06    0.06
  -1  -5  -2    1.11    0.06
  -1  -5  -2    1.15    0.06
   1  -5   2    1.04    0.07
  -1  -5   3    3.50    0.12
   1  -5  -3    3.64    0.11
   1   5   3    3.73    0.12
   1  -5  -3    3.62    0.10
   1  -5  -3    3.48    0.11
  -1  -5  -3    3.61    0.11
  -1  -5  -3    3.89    0.11
   1  -5   3    3.67    0.11
   1  -5   3    3.55    0.12
  -1  -5  -3    3.58    0.10
   1   5   4   23.70    0.36
   1  -5  -4   23.51    0.33
   1  -5  -4   23.67    0.34
   1  -5  -4   23.56    0.33
  -1  -5   4   23.40    0.35
  -1  -5  -4   23.90    0.33
  -1   5   4   23.43    0.35
  -1  -5  -4   23.60    0.33
   1  -5   4   23.88    0.36
  -1  -5  -4   23.70    0.33
   1  -5  -5    0.15    0.05
   1  -5  -5    0.03    0.04
   1   5   5    0.08    0.05
   1  -5  -5    0.04    0.04
  -1  -5   5    0.16    0.05
   1  -5   5    0.07    0.05
  -1   5   5    0.06    0.05
  -1  -5  -5    0.03    0.04
  -1  -5  -5    0.13    0.04
  -1  -5  -5    0.13    0.05
   1   5   6   29.90    0.47
   1  -5  -6   29.39    0.44
   1  -5  -6   29.71    0.43
  -1  -5   6   30.26    0.46
  -1   5   6   29.81    0.46
  -1  -5  -6   29.52    0.44
   1  -5   6   29.42    0.46
  -1  -5  -6   28.79    0.43
   1  -5  -7    7.83    0.21
  -1  -5   7    7.57    0.24
   1   5   7    7.32    0.23
  -1  -5  -7    7.22    0.21
   1  -5   7    7.65    0.24
  -1   5   7    7.61    0.23
   1  -6   0    0.02    0.03
  -1  -6   0    0.04    0.03
   1  -6   0   -0.02    0.03
  -1  -6   0    0.05    0.03
  -1  -6   0   -0.01    0.03
   1  -6  -1   10.26    0.16
  -1  -6   1   10.28    0.17
   1  -6  -1   10.02    0.18
  -1  -6   1   10.43    0.20
   1  -6  -1   10.03    0.17
   1  -6   1   10.29    0.18
  -1  -6  -1   10.28    0.16
  -1  -6  -1   10.24    0.15
  -1  -6  -1   10.31    0.19
   1  -6   1   10.16    0.19
   1  -6  -2    1.12    0.07
   1  -6  -2    1.17    0.07
   1  -6  -2    1.02    0.06
  -1  -6   2    1.04    0.08
  -1  -6   2    1.05    0.06
  -1  -6  -2    0.97    0.06
  -1  -6  -2    0.98    0.07
   1  -6   2    1.08    0.06
  -1  -6  -2    1.06    0.07
   1  -6   2    1.00    0.08
  -1  -6   3   26.11    0.38
   1  -6  -3   26.29    0.35
   1  -6  -3   25.96    0.35
   1  -6  -3   26.38    0.36
  -1  -6  -3   26.41    0.35
  -1  -6  -3   26.24    0.34
   1  -6   3   26.40    0.38
  -1  -6  -3   26.19    0.36
   1  -6  -4    0.06    0.04
   1  -6  -4    0.05    0.04
   1  -6  -4    0.03    0.04
  -1  -6   4    0.01    0.05
   1   6   4    0.11    0.05
  -1  -6  -4    0.07    0.04
  -1  -6  -4    0.05    0.04
  -1  -6  -4    0.01    0.04
   1  -6   4    0.01    0.05
  -1  -6   5    2.14    0.13
   1  -6  -5    2.09    0.11
   1   6   5    2.52    0.13
   1  -6  -5    2.21    0.10
   1  -6  -5    2.10    0.11
  -1  -6  -5    2.23    0.11
  -1  -6  -5    2.07    0.11
  -1  -6  -5    2.10    0.11
  -1   6   5    2.24    0.12
   1  -6   5    1.97    0.13
   1  -6  -6    0.14    0.07
   1  -6  -6    0.18    0.06
   1   6   6    0.13    0.06
  -1  -6   6    0.04    0.06
  -1  -6  -6    0.16    0.06
  -1  -6  -6    0.07    0.05
  -1   6   6    0.17    0.06
   1  -6   6    0.18    0.07
  -1  -6  -6    0.16    0.06
   1  -6  -7    5.01    0.18
  -1  -6   7    5.36    0.21
   1   6   7    5.08    0.20
   1  -6   7    4.85    0.21
  -1  -6  -7    5.00    0.18
  -1   6   7    5.04    0.20
  -1  -7   0    0.03    0.04
   1  -7   0    0.01    0.04
  -1  -7   0   -0.02    0.03
   1  -7   0    0.02    0.04
  -1  -7   1   13.34    0.25
   1  -7  -1   13.25    0.21
   1  -7  -1   13.01    0.23
  -1  -7   1   13.16    0.22
  -1  -7  -1   13.14    0.23
  -1  -7  -1   13.33    0.20
   1  -7   1   13.20    0.22
   1  -7   1   13.57    0.25
   1  -7  -2    0.40    0.06
   1  -7  -2    0.44    0.05
  -1  -7   2    0.43    0.06
   1  -7  -2    0.46    0.05
  -1  -7   2    0.41    0.05
   1  -7   2    0.39    0.05
  -1  -7  -2    0.44    0.06
  -1  -7  -2    0.50    0.05
   1  -7   2    0.49    0.07
  -1  -7  -2    0.44    0.05
  -1  -7   3   42.72    0.56
   1  -7  -3   42.91    0.54
   1  -7  -3   42.83    0.52
   1  -7  -3   42.63    0.51
  -1  -7  -3   42.19    0.54
   1  -7   3   42.67    0.56
  -1  -7  -3   42.68    0.50
  -1  -7  -3   43.32    0.52
   1  -7  -4    0.13    0.05
   1  -7  -4    0.07    0.05
  -1  -7   4    0.09    0.06
   1  -7  -4    0.13    0.05
   1  -7   4    0.11    0.06
  -1  -7  -4    0.15    0.05
  -1  -7  -4   -0.01    0.05
  -1  -7  -4    0.10    0.04
   1  -7  -5   18.05    0.32
  -1  -7   5   18.44    0.35
   1  -7  -5   18.15    0.32
   1  -7  -5   18.01    0.31
  -1  -7  -5   17.71    0.31
  -1  -7  -5   18.22    0.32
  -1  -7  -5   18.02    0.31
   1  -7   5   18.33    0.35
  -1  -7   6    1.14    0.12
   1  -7  -6    1.25    0.11
   1   7   6    1.18    0.12
   1  -7  -6    1.33    0.10
   1  -7   6    1.18    0.12
  -1  -7  -6    1.11    0.10
  -1  -7  -6    1.20    0.11
   1  -8   0    0.01    0.04
  -1  -8   0    0.12    0.05
  -1  -8   0   -0.08    0.04
   1  -8   0   -0.03    0.04
  -1  -8   1    6.76    0.16
   1  -8  -1    6.59    0.18
  -1  -8   1    6.54    0.18
   1  -8  -1    6.71    0.17
  -1  -8  -1    6.74    0.17
   1  -8   1    6.59    0.18
   1  -8   1    6.62    0.16
   1  -8  -2    0.92    0.08
  -1  -8   2    0.98    0.09
   1  -8  -2    0.87    0.07
  -1  -8  -2    0.90    0.08
   1  -8   2    0.93    0.07
   1  -8   2    0.94    0.09
   1  -8  -3   17.35    0.28
  -1  -8   3   17.30    0.33
   1  -8  -3   17.34    0.28
   1  -8  -3   17.09    0.30
  -1  -8  -3   17.32    0.31
  -1  -8  -3   17.93    0.29
   1  -8   3   17.92    0.33
   1  -8  -4    0.29    0.06
   1  -8  -4    0.34    0.06
  -1  -8   4    0.34    0.08
   1  -8  -4    0.42    0.07
  -1  -8  -4    0.37    0.07
  -1  -8  -4    0.44    0.07
   1  -8   4    0.10    0.06
   1  -8  -5    1.12    0.10
  -1  -8   5    1.14    0.11
   1  -8  -5    1.27    0.10
  -1  -8  -5    1.02    0.10
   1  -8   5    0.98    0.11
  -1  -8  -5    1.08    0.10
   1  -8  -6    0.02    0.06
  -1  -8   6   -0.04    0.07
   1  -8  -6    0.03    0.06
  -1  -8  -6    0.05    0.06
  -1  -8  -6    0.03    0.06
   1  -8   6    0.08    0.08
  -1  -9   0    0.07    0.05
   1  -9   0   -0.01    0.05
   1  -9   0   -0.02    0.05
  -1  -9   0   -0.03    0.05
   1  -9  -1    0.68    0.08
  -1  -9   1    0.64    0.07
   1  -9  -1    0.52    0.08
  -1  -9   1    0.39    0.07
  -1  -9  -1    0.56    0.08
   1  -9   1    0.60    0.07
   1  -9   1    0.62    0.08
  -1  -9  -1    0.61    0.08
   1  -9  -2    0.39    0.07
  -1  -9   2    0.17    0.06
   1  -9   2    0.20    0.07
  -1  -9  -2    0.27    0.06
  -1  -9   3    1.95    0.14
   1  -9  -3    1.86    0.12
   1  -9   3    1.89    0.13
  -1  -9  -3    1.86    0.12
  -1  -9   4    5.85    0.21
   1  -9  -4    5.59    0.17
   1  -9  -4    5.70    0.19
   1  -9   4    5.77    0.21
  -1  -9  -4    5.52    0.19
  -1  -9  -4    5.81    0.18
   1  -9  -5    0.00    0.06
   1  -9  -5    0.02    0.06
  -1  -9   5    0.02    0.07
   1  -9   5   -0.11    0.06
  -1  -9  -5   -0.05    0.06
  -1  -9  -5   -0.01    0.06
  -1 -10   0   -0.02    0.06
   1 -10   0    0.11    0.06
   1 -10   0   -0.03    0.05
  -1 -10   0   -0.02    0.05
   1 -10  -1    1.80    0.12
  -1 -10   1    1.84    0.14
   1 -10  -1    1.64    0.13
  -1 -10   1    1.93    0.12
  -1 -10  -1    1.60    0.12
   1 -10   1    1.64    0.13
   1 -10   1    1.53    0.11
  -1 -10  -1    1.68    0.13
   1 -10  -2    0.13    0.06
  -1 -10   2    0.24    0.08
   1 -10  -2    0.21    0.07
  -1 -10  -2    0.28    0.08
   1 -10   2    0.32    0.08
  -1 -10  -2    0.36    0.08
   1 -10  -3    3.94    0.17
  -1 -10   3    3.86    0.18
  -1 -10  -3    4.13    0.17
   1 -10   3    3.46    0.18
   1 -11   0   -0.02    0.06
   1 -11   0    0.03    0.06
  -1 -11   0   -0.04    0.06
  -1 -11   0   -0.07    0.06
   1 -11  -1    2.00    0.13
   1 -11  -1    1.89    0.15
  -1 -11   1    1.92    0.15
  -1 -11  -1    2.01    0.13
   1 -11   1    1.95    0.13
  -1 -11  -1    2.13    0.15
   1 -11   1    2.06    0.16
   2   0   0   64.68    0.62
  -2   0  -1   63.04    0.61
   2   0  -1   63.65    0.61
   2   0  -2    7.08    0.11
  -2   0   2    7.17    0.12
   2   0  -2    6.89    0.10
   2   0   2    6.94    0.10
  -2   0  -2    6.91    0.10
  -2   0  -2    6.75    0.11
   2   0  -3   20.61    0.25
   2   0   3   20.31    0.27
   2   0  -3   20.31    0.26
   2   0   3   20.30    0.24
  -2   0  -3   20.64    0.24
  -2   0  -3   20.63    0.26
  -2   0   3   20.52    0.25
   2   0   4    0.56    0.06
   2   0  -4    0.55    0.05
  -2   0  -4    0.59    0.05
   2   0  -4    0.60    0.05
  -2   0   4    0.61    0.05
  -2   0  -4    0.51    0.04
  -2   0  -5    2.48    0.10
  -2   0  -5    2.65    0.09
   2   0  -5    2.64    0.09
   2   0   5    2.70    0.11
  -2   0   5    2.52    0.10
   2   0  -5    2.36    0.10
   2   0  -6    3.40    0.13
   2   0  -6    3.33    0.11
  -2   0   6    3.45    0.13
  -2   0  -6    3.44    0.13
   2   0   6    3.42    0.14
  -2   0  -6    3.40    0.11
   2   0   7    3.37    0.16
  -2   0  -7    3.61    0.15
   2   0  -7    3.52    0.12
  -2   0   7    3.42    0.15
  -2   0  -7    3.31    0.16
   2   0  -7    3.24    0.14
   2   0   8    0.06    0.07
  -2   0   8    0.11    0.07
   2   1   0  153.62    1.45
   2  -1  -1   25.74    0.28
   2   1  -1   26.12    0.26
  -2  -1  -1   26.10    0.27
   2   1   2   20.10    0.25
   2  -1  -2   20.44    0.24
  -2   1  -2   20.32    0.24
   2  -1  -2   20.46    0.23
  -2  -1   2   20.14    0.23
  -2   1   2   20.57    0.23
   2  -1   2   20.21    0.23
   2   1  -2   20.15    0.22
  -2  -1  -2   20.25    0.24
  -2  -1  -2   20.06    0.23
   2  -1   2   19.93    0.24
   2   1  -2   20.11    0.23
   2  -1  -3    6.29    0.11
  -2   1  -3    6.33    0.12
   2  -1  -3    6.25    0.12
  -2  -1   3    6.37    0.12
   2  -1  -3    6.41    0.09
   2   1   3    6.35    0.13
  -2   1  -3    6.26    0.10
  -2   1   3    6.40    0.12
   2   1  -3    6.25    0.11
  -2  -1  -3    6.31    0.12
  -2  -1  -3    6.17    0.11
   2   1  -3    6.25    0.12
   2  -1   3    6.47    0.13
   2  -1   3    6.42    0.10
  -2   1  -4   29.92    0.38
   2  -1  -4   30.30    0.38
   2  -1  -4   30.49    0.36
   2  -1  -4   30.08    0.32
   2   1   4   30.33    0.39
  -2   1  -4   30.35    0.34
  -2  -1   4   30.17    0.37
   2   1  -4   30.56    0.37
  -2   1   4   30.59    0.37
   2  -1   4   30.37    0.39
  -2  -1  -4   29.70    0.38
   2  -1   4   30.30    0.33
  -2  -1  -4   30.65    0.36
   2   1  -4   29.69    0.35
  -2   1  -5    0.78    0.07
   2   1   5    0.64    0.07
  -2  -1   5    0.62    0.06
  -2   1  -5    0.74    0.05
   2  -1  -5    0.71    0.07
   2  -1  -5    0.71    0.06
  -2   1   5    0.74    0.07
   2  -1   5    0.64    0.07
  -2  -1  -5    0.74    0.07
   2   1  -5    0.72    0.06
  -2  -1  -5    0.72    0.06
   2   1  -5    0.72    0.05
  -2  -1   6   50.39    0.61
  -2   1  -6   48.39    0.61
   2  -1  -6   48.07    0.61
   2  -1  -6   49.48    0.58
   2   1   6   48.84    0.63
  -2  -1  -6   50.28    0.58
   2   1  -6   49.80    0.61
   2   1  -6   48.11    0.56
  -2   1   6   49.33    0.61
  -2  -1  -6   47.94    0.61
   2  -1   6   50.23    0.63
  -2  -1   7    1.77    0.12
   2  -1  -7    2.02    0.10
   2   1   7    2.06    0.13
  -2   1  -7    2.05    0.12
   2  -1  -7    1.90    0.12
  -2  -1  -7    1.86    0.12
  -2  -1  -7    1.91    0.10
   2   1  -7    1.95    0.11
   2  -1   7    2.04    0.13
  -2   1   7    2.04    0.12
  -2  -1   8    7.44    0.23
   2  -1  -8    7.36    0.19
   2   1   8    7.35    0.24
  -2  -1  -8    7.52    0.25
  -2   1   8    7.78    0.23
   2  -1   8    7.08    0.24
   2  -2   0  370.81    3.62
   2  -2   0  372.21    3.50
   2  -2   0  343.83    3.58
   2  -2  -1  384.23    3.66
   2  -2  -1  384.60    3.65
  -2  -2   1  378.34    3.69
   2  -2  -1  375.66    3.73
   2   2   1  375.22    3.74
   2  -2   1  375.89    3.65
  -2  -2  -1  378.75    3.65
  -2  -2  -1  379.70    3.62
   2  -2   1  383.39    3.70
   2  -2  -2  154.90    1.47
   2   2   2  155.85    1.50
   2  -2  -2  153.45    1.53
  -2  -2   2  157.93    1.48
   2  -2  -2  158.60    1.48
   2   2  -2  154.96    1.48
   2  -2   2  156.82    1.47
  -2  -2  -2  154.60    1.50
   2   2  -2  155.35    1.47
   2  -2   2  155.04    1.49
  -2  -2  -2  158.53    1.48
  -2   2   2  156.03    1.48
  -2   2  -3  226.13    2.24
   2  -2  -3  234.94    2.20
  -2   2  -3  231.28    2.14
   2  -2  -3  230.84    2.22
  -2  -2   3  231.21    2.19
   2   2   3  232.89    2.21
   2  -2  -3  231.39    2.16
  -2   2   3  231.36    2.26
   2  -2   3  233.07    2.18
   2   2  -3  232.82    2.21
  -2  -2  -3  228.15    2.22
  -2  -2  -3  233.36    2.23
   2   2  -3  229.89    2.18
   2  -2   3  230.32    2.21
   2  -2  -4    8.04    0.16
  -2  -2   4    8.58    0.16
   2  -2  -4    8.40    0.16
  -2   2  -4    8.20    0.16
   2   2   4    8.72    0.18
  -2   2  -4    8.27    0.12
   2  -2  -4    8.45    0.13
  -2  -2  -4    8.20    0.16
  -2   2   4    8.39    0.16
  -2  -2  -4    8.37    0.15
   2   2  -4    8.53    0.14
   2   2  -4    8.36    0.16
   2  -2   4    8.44    0.17
   2   2   5   67.54    0.78
   2  -2  -5   66.98    0.74
   2  -2  -5   68.00    0.76
  -2  -2   5   67.73    0.76
  -2   2  -5   67.38    0.76
   2   2  -5   67.89    0.71
  -2  -2  -5   67.44    0.71
   2   2  -5   67.41    0.75
   2  -2   5   67.62    0.77
  -2  -2  -5   66.48    0.76
  -2  -2  -5   67.99    0.74
  -2   2   5   68.08    0.76
   2  -2  -6    0.19    0.05
  -2  -2   6    0.14    0.06
   2  -2  -6    0.10    0.04
  -2   2  -6    0.11    0.04
   2   2   6    0.11    0.05
  -2  -2  -6    0.06    0.04
   2  -2   6    0.03    0.06
  -2   2   6    0.14    0.05
   2   2  -6    0.08    0.05
  -2  -2  -6    0.10    0.04
   2   2   7    1.76    0.13
  -2   2  -7    1.70    0.11
   2  -2  -7    1.72    0.12
   2  -2  -7    1.67    0.10
  -2  -2   7    1.69    0.12
   2  -2   7    1.66    0.13
  -2  -2  -7    1.73    0.10
  -2   2   7    1.57    0.11
  -2  -2  -7    1.84    0.12
   2  -2  -8    0.42    0.07
  -2  -2   8    0.38    0.09
   2   2   8    0.27    0.08
  -2  -2  -8    0.18    0.06
  -2   2   8    0.29    0.08
   2  -2   8    0.53    0.10
  -2  -3   0    0.06    0.02
  -2  -3   0    0.09    0.02
   2  -3   0    0.06    0.02
   2  -3   0    0.07    0.02
   2  -3  -1   82.38    0.81
  -2  -3   1   81.41    0.78
   2   3   1   80.03    0.81
   2  -3  -1   80.32    0.79
  -2  -3   1   81.78    0.80
   2  -3  -1   82.57    0.80
  -2  -3  -1   81.15    0.77
   2  -3   1   79.58    0.81
  -2  -3  -1   81.07    0.80
   2  -3   1   81.37    0.79
  -2  -3  -1   79.46    0.79
   2  -3  -2   28.37    0.34
   2  -3  -2   28.60    0.33
   2   3   2   28.30    0.35
  -2  -3   2   29.55    0.34
   2  -3  -2   28.95    0.33
   2   3  -2   28.50    0.31
   2   3  -2   28.54    0.30
   2  -3   2   28.09    0.32
  -2  -3  -2   28.55    0.32
  -2   3   2   28.77    0.34
   2  -3   2   28.84    0.34
   2  -3  -3   13.76    0.20
  -2  -3   3   13.68    0.21
   2   3   3   13.56    0.22
   2  -3  -3   13.49    0.21
  -2   3  -3   13.64    0.21
   2  -3  -3   14.20    0.19
  -2  -3  -3   13.99    0.20
  -2   3   3   14.11    0.21
   2  -3   3   13.79    0.18
   2   3  -3   13.90    0.17
   2  -3   3   13.50    0.22
  -2  -3  -3   13.57    0.20
   2   3  -3   13.71    0.19
  -2  -3  -3   13.93    0.20
   2  -3  -4  107.82    1.08
   2  -3  -4  108.09    1.11
  -2   3  -4  109.67    1.12
  -2  -3   4  108.15    1.12
   2   3   4  109.15    1.14
   2  -3  -4  109.34    1.12
  -2   3   4  108.24    1.12
   2   3  -4  107.72    1.06
   2   3  -4  109.21    1.10
   2  -3   4  109.11    1.13
  -2  -3  -4  109.71    1.11
  -2  -3  -4  109.33    1.09
  -2  -3  -4  110.14    1.10
   2  -3  -5    5.36    0.14
  -2  -3   5    5.46    0.15
   2   3   5    5.32    0.16
   2  -3  -5    5.10    0.15
  -2   3  -5    5.40    0.14
  -2   3   5    5.18    0.15
  -2  -3  -5    5.52    0.14
  -2  -3  -5    5.25    0.12
  -2  -3  -5    5.11    0.14
   2  -3   5    5.67    0.16
  -2   3  -6   69.19    0.81
   2  -3  -6   68.76    0.79
   2   3   6   68.28    0.83
   2  -3  -6   69.22    0.81
  -2  -3   6   68.20    0.81
  -2  -3  -6   69.11    0.81
   2  -3   6   69.48    0.83
  -2   3   6   68.30    0.81
  -2  -3  -6   68.76    0.78
   2  -3  -7    2.71    0.14
   2   3   7    2.62    0.15
  -2  -3   7    3.07    0.15
   2  -3  -7    2.86    0.13
  -2  -3  -7    2.73    0.13
  -2  -3  -7    2.98    0.14
  -2   3   7    2.84    0.14
   2  -3   7    2.53    0.15
   2  -3  -8    7.51    0.21
   2   3   8    7.96    0.25
  -2  -3   8    7.85    0.24
  -2   3   8    7.81    0.24
   2  -3   8    7.13    0.24
  -2  -3  -8    7.56    0.21
   2  -4   0   39.23    0.43
  -2  -4   0   38.80    0.40
  -2  -4   0   38.92    0.42
   2  -4   0   38.92    0.43
   2  -4   0   38.70    0.39
   2  -4   0   39.32    0.43
   2  -4  -1    2.22    0.07
   2  -4  -1    2.12    0.07
   2  -4  -1    2.21    0.06
  -2  -4   1    2.23    0.06
  -2  -4   1    2.17    0.05
  -2  -4  -1    2.35    0.06
  -2  -4  -1    2.24    0.07
   2  -4   1    2.23    0.07
  -2  -4  -1    2.23    0.05
   2   4   2   10.96    0.19
   2  -4  -2   10.89    0.16
  -2  -4   2   10.99    0.15
   2  -4  -2   11.03    0.18
   2  -4  -2   10.95    0.17
  -2  -4   2   10.99    0.18
  -2  -4  -2   10.86    0.16
  -2  -4  -2   11.02    0.17
   2  -4   2   10.88    0.16
   2   4  -2   10.73    0.14
  -2  -4  -2   11.07    0.17
   2  -4   2   11.06    0.18
   2  -4  -3    0.16    0.04
   2   4   3    0.23    0.05
  -2   4  -3    0.25    0.04
   2  -4  -3    0.17    0.03
   2  -4  -3    0.15    0.04
  -2  -4   3    0.27    0.04
  -2   4   3    0.17    0.04
   2  -4   3    0.19    0.03
  -2  -4  -3    0.19    0.04
   2  -4   3    0.16    0.04
  -2  -4  -3    0.19    0.04
  -2  -4  -3    0.17    0.03
   2  -4  -4   -0.02    0.03
   2  -4  -4    0.04    0.03
  -2  -4   4    0.00    0.04
   2  -4  -4    0.01    0.04
  -2   4  -4    0.05    0.03
   2   4   4   -0.05    0.04
  -2   4   4    0.11    0.04
  -2  -4  -4   -0.03    0.03
   2  -4   4    0.05    0.04
  -2  -4  -4   -0.04    0.03
  -2  -4  -4   -0.01    0.03
   2  -4  -5    0.04    0.04
   2  -4  -5    0.01    0.04
  -2   4  -5    0.01    0.03
   2  -4  -5    0.04    0.03
  -2  -4   5   -0.03    0.04
   2   4   5   -0.05    0.04
  -2  -4  -5    0.05    0.04
   2  -4   5   -0.03    0.05
  -2  -4  -5    0.04    0.03
  -2   4   5    0.01    0.04
  -2  -4  -5    0.01    0.04
  -2  -4   6    1.78    0.12
   2  -4  -6    1.74    0.10
   2   4   6    1.78    0.12
   2  -4  -6    1.86    0.11
  -2   4   6    1.69    0.11
  -2  -4  -6    1.87    0.10
  -2  -4  -6    1.80    0.11
   2  -4   6    1.93    0.12
   2  -4  -7    1.96    0.12
   2   4   7    2.02    0.14
  -2  -4   7    1.58    0.12
  -2  -4  -7    1.79    0.12
   2  -4   7    1.98    0.15
  -2   4   7    1.78    0.13
   2  -4  -8    0.03    0.06
  -2  -4   8    0.08    0.07
   2   4   8   -0.05    0.07
  -2  -4  -8   -0.01    0.06
  -2   4   8   -0.02    0.07
   2  -4   8    0.13    0.08
   2  -5   0  167.70    1.58
   2  -5   0  169.35    1.63
  -2  -5   0  168.68    1.60
   2  -5   0  168.68    1.63
  -2  -5   0  169.35    1.63
   2  -5   0  169.53    1.64
  -2  -5   1    0.10    0.03
   2  -5  -1    0.07    0.03
   2  -5  -1    0.11    0.03
  -2  -5   1    0.09    0.03
   2  -5  -1    0.15    0.04
  -2  -5   1    0.06    0.02
   2  -5   1    0.06    0.03
   2  -5   1    0.14    0.04
  -2  -5  -1    0.09    0.02
  -2  -5  -1    0.12    0.03
  -2  -5  -1    0.07    0.03
  -2  -5   2   65.14    0.67
   2  -5  -2   66.41    0.68
   2  -5  -2   65.32    0.70
  -2  -5   2   67.08    0.72
   2  -5  -2   65.16    0.70
  -2  -5  -2   64.28    0.70
   2  -5   2   65.05    0.68
  -2  -5  -2   65.55    0.67
   2  -5   2   65.46    0.72
  -2  -5  -2   65.85    0.69
   2  -5  -3    0.33    0.05
   2   5   3    0.29    0.05
  -2  -5   3    0.19    0.04
   2  -5  -3    0.28    0.04
   2  -5  -3    0.23    0.04
   2  -5   3    0.29    0.04
  -2  -5  -3    0.28    0.04
  -2  -5  -3    0.26    0.04
  -2  -5  -3    0.24    0.05
   2  -5   3    0.16    0.05
   2  -5  -4    0.28    0.05
   2  -5  -4    0.33    0.05
  -2  -5   4    0.30    0.06
   2   5   4    0.38    0.06
   2  -5  -4    0.30    0.05
  -2  -5  -4    0.38    0.06
  -2   5   4    0.48    0.06
  -2  -5  -4    0.35    0.05
   2  -5   4    0.25    0.06
  -2  -5  -4    0.25    0.04
   2  -5  -5    0.14    0.05
   2   5   5    0.10    0.05
  -2  -5   5    0.16    0.05
   2  -5  -5    0.10    0.05
   2  -5  -5    0.14    0.04
  -2  -5  -5    0.02    0.04
  -2  -5  -5    0.14    0.05
  -2   5   5    0.09    0.05
  -2  -5  -5    0.14    0.05
   2  -5   5    0.12    0.06
   2  -5  -6   15.95    0.30
  -2  -5   6   16.05    0.31
   2   5   6   16.37    0.33
   2  -5  -6   16.46    0.31
   2  -5   6   16.27    0.33
  -2   5   6   16.06    0.31
  -2  -5  -6   16.38    0.30
  -2  -5  -6   16.04    0.28
  -2  -5  -6   15.79    0.29
   2   5   7    0.60    0.09
   2  -5  -7    0.60    0.08
  -2  -5   7    0.58    0.09
  -2  -5  -7    0.49    0.08
   2  -5   7    0.46    0.09
  -2   5   7    0.46    0.08
   2  -6   0   61.73    0.68
   2  -6   0   63.10    0.70
  -2  -6   0   62.02    0.67
  -2  -6   0   61.92    0.64
  -2  -6   0   63.41    0.70
   2  -6  -1   25.99    0.34
   2  -6  -1   26.08    0.31
  -2  -6   1   25.87    0.33
   2  -6  -1   27.05    0.35
  -2  -6   1   26.91    0.36
   2  -6   1   25.74    0.34
  -2  -6  -1   26.03    0.32
  -2  -6  -1   25.95    0.34
   2  -6   1   26.09    0.36
   2  -6  -2   28.36    0.37
   2  -6  -2   27.01    0.36
   2  -6  -2   27.93    0.34
  -2  -6   2   26.94    0.33
  -2  -6   2   28.28    0.38
   2  -6   2   27.43    0.35
  -2  -6  -2   27.60    0.35
  -2  -6  -2   27.75    0.37
  -2  -6  -2   27.74    0.33
   2  -6   2   27.74    0.38
  -2  -6   3   34.58    0.46
   2  -6  -3   35.60    0.45
   2  -6  -3   34.74    0.44
   2  -6  -3   33.98    0.43
  -2  -6  -3   34.89    0.41
  -2  -6  -3   35.17    0.43
   2  -6   3   33.77    0.51
  -2  -6  -3   33.90    0.44
   2  -6   3   34.48    0.46
   2  -6  -4    1.21    0.08
   2   6   4    1.22    0.10
   2  -6  -4    1.24    0.09
  -2  -6   4    1.20    0.09
   2  -6  -4    1.23    0.09
   2  -6   4    1.10    0.09
  -2  -6  -4    1.25    0.09
  -2  -6  -4    1.06    0.08
  -2  -6  -4    1.10    0.08
   2  -6  -5   16.04    0.28
   2  -6  -5   16.49    0.29
   2   6   5   15.70    0.32
   2  -6  -5   16.26    0.29
  -2  -6   5   16.00    0.31
  -2  -6  -5   16.30    0.29
  -2  -6  -5   16.27    0.28
  -2  -6  -5   16.47    0.28
   2  -6   5   16.00    0.31
   2  -6  -6    0.01    0.05
   2   6   6   -0.04    0.05
  -2  -6   6    0.01    0.06
   2  -6   6    0.00    0.06
  -2  -6  -6    0.02    0.05
  -2  -6  -6   -0.01    0.05
  -2  -6  -6   -0.04    0.04
  -2   6   6   -0.03    0.05
  -2  -6   7    0.52    0.10
   2   6   7    0.42    0.09
   2  -6  -7    0.41    0.08
  -2   6   7    0.41    0.08
   2  -6   7    0.55    0.10
  -2  -6  -7    0.46    0.08
   2  -7   0    4.41    0.13
  -2  -7   0    4.88    0.14
  -2  -7   0    4.54    0.13
   2  -7   0    4.32    0.13
   2  -7  -1   34.09    0.42
   2  -7  -1   34.45    0.44
  -2  -7   1   34.50    0.42
  -2  -7   1   33.89    0.46
   2  -7  -1   34.67    0.45
   2  -7   1   33.86    0.43
  -2  -7  -1   34.49    0.40
  -2  -7  -1   33.96    0.44
   2  -7   1   34.18    0.46
  -2  -7   2   26.93    0.42
   2  -7  -2   27.75    0.38
   2  -7  -2   27.58    0.37
  -2  -7   2   27.41    0.40
   2  -7  -2   26.79    0.35
   2  -7   2   27.84    0.40
  -2  -7  -2   27.64    0.36
   2  -7   2   27.20    0.36
  -2  -7  -2   27.33    0.38
   2  -7  -3    9.00    0.20
   2  -7  -3    8.73    0.19
  -2  -7   3    9.28    0.22
   2  -7  -3    9.27    0.19
  -2  -7  -3    9.21    0.20
   2  -7   3    9.20    0.21
  -2  -7  -3    9.06    0.19
  -2  -7  -3    8.90    0.17
   2  -7  -4   71.50    0.81
   2  -7  -4   70.53    0.80
   2  -7  -4   71.37    0.82
  -2  -7   4   71.18    0.85
  -2  -7  -4   70.47    0.78
   2  -7   4   71.51    0.85
  -2  -7  -4   71.51    0.82
  -2  -7  -4   71.15    0.81
   2  -7  -5    3.55    0.15
  -2  -7   5    3.29    0.16
   2  -7  -5    3.38    0.14
   2  -7  -5    3.47    0.14
   2  -7   5    3.58    0.16
  -2  -7  -5    3.44    0.14
  -2  -7  -5    3.56    0.13
  -2  -7  -5    3.59    0.14
   2  -7  -6   42.24    0.58
  -2  -7   6   40.36    0.61
   2   7   6   41.14    0.62
  -2  -7  -6   41.74    0.57
  -2  -7  -6   41.10    0.57
   2  -7   6   40.84    0.62
   2  -8   0   26.68    0.39
   2  -8   0   27.70    0.41
  -2  -8   0   27.46    0.38
  -2  -8   0   27.03    0.41
   2  -8  -1   11.19    0.22
   2  -8  -1   10.84    0.23
  -2  -8   1   11.15    0.24
  -2  -8   1   11.40    0.21
   2  -8   1   11.40    0.22
   2  -8   1   11.04    0.24
  -2  -8  -1   10.89    0.22
   2  -8  -2   13.30    0.26
  -2  -8   2   13.67    0.28
   2  -8  -2   13.17    0.24
   2  -8   2   13.22    0.24
  -2  -8  -2   13.12    0.25
   2  -8   2   13.64    0.27
  -2  -8  -2   13.24    0.23
   2  -8  -3   11.62    0.22
   2  -8  -3   12.06    0.25
   2  -8  -3   11.82    0.23
  -2  -8   3   11.63    0.26
  -2  -8  -3   11.60    0.24
   2  -8   3   11.85    0.26
  -2  -8  -3   12.04    0.23
   2  -8  -4    0.71    0.08
   2  -8  -4    0.76    0.08
   2  -8  -4    0.80    0.08
  -2  -8   4    0.54    0.09
  -2  -8  -4    0.76    0.08
   2  -8   4    0.71    0.09
  -2  -8  -4    0.85    0.08
   2  -8  -5    3.18    0.14
  -2  -8   5    3.39    0.17
   2  -8  -5    3.40    0.15
  -2  -8  -5    3.37    0.15
  -2  -8  -5    3.57    0.15
   2  -8   5    3.45    0.17
   2  -8  -6    0.25    0.07
   2  -8  -6    0.19    0.06
  -2  -8   6    0.13    0.08
   2  -8   6    0.28    0.09
  -2  -8  -6    0.24    0.08
  -2  -8  -6    0.27    0.07
   2  -9   0   48.76    0.62
  -2  -9   0   49.96    0.65
  -2  -9   0   48.58    0.61
   2  -9   0   49.81    0.64
  -2  -9   1    0.26    0.07
   2  -9  -1    0.20    0.06
  -2  -9   1    0.21    0.05
   2  -9  -1    0.23    0.06
  -2  -9  -1    0.15    0.06
   2  -9   1    0.22    0.06
  -2  -9  -1    0.18    0.06
   2  -9   1    0.13    0.06
   2  -9  -2   19.75    0.34
   2  -9  -2   19.60    0.35
  -2  -9   2   19.65    0.36
  -2  -9  -2   19.30    0.34
   2  -9   2   19.79    0.32
   2  -9   2   19.29    0.35
  -2  -9   3   -0.07    0.06
   2  -9  -3   -0.02    0.05
  -2  -9  -3   -0.04    0.05
   2  -9   3   -0.06    0.05
   2  -9  -4    0.04    0.06
  -2  -9   4    0.01    0.07
  -2  -9  -4    0.05    0.06
   2  -9   4    0.02    0.06
  -2  -9  -4    0.00    0.06
   2  -9  -5    0.06    0.06
   2  -9  -5    0.10    0.06
  -2  -9   5    0.20    0.08
  -2  -9  -5    0.08    0.06
  -2  -9  -5   -0.05    0.06
   2  -9   5    0.00    0.07
   2 -10   0    7.50    0.21
   2 -10   0    7.26    0.22
  -2 -10   0    7.27    0.22
  -2 -10   0    7.09    0.20
   2 -10  -1    0.05    0.06
  -2 -10   1    0.17    0.07
  -2 -10   1    0.13    0.06
   2 -10  -1    0.04    0.06
  -2 -10  -1    0.12    0.06
   2 -10   1    0.13    0.06
   2 -10   1   -0.02    0.05
  -2 -10  -1    0.11    0.06
   2 -10  -2    2.46    0.15
   2 -10  -2    2.60    0.14
  -2 -10   2    2.55    0.15
  -2 -10  -2    2.43    0.15
  -2 -10  -2    2.65    0.14
   2 -10   2    2.49    0.15
  -2 -10   3    0.26    0.08
   2 -10  -3    0.48    0.08
  -2 -10  -3    0.39    0.08
   2 -10   3    0.26    0.08
   2 -11   0   -0.05    0.06
  -2 -11   0   -0.03    0.05
   2 -11   0    0.08    0.06
  -2 -11   0    0.03    0.07
   2 -11  -1    5.50    0.21
  -2 -11   1    5.16    0.21
   2 -11  -1    5.47    0.20
  -2 -11  -1    5.23    0.21
   2 -11   1    5.30    0.19
   2 -11   1    5.09    0.20
  -2 -11  -1    4.94    0.18
   3   0   0    0.01    0.02
   3   0   1    3.97    0.07
   3   0  -1    4.05    0.07
   3   0  -1    3.90    0.07
  -3   0  -2    2.02    0.06
  -3   0  -2    2.20    0.05
   3   0  -2    2.11    0.06
   3   0   2    2.17    0.06
   3   0  -2    2.17    0.06
   3   0  -3    2.73    0.07
  -3   0  -3    2.83    0.07
   3   0   3    2.77    0.09
  -3   0   3    2.86    0.07
   3   0   3    2.85    0.07
  -3   0  -3    2.89    0.08
   3   0  -3    3.03    0.08
  -3   0   4    0.71    0.06
  -3   0  -4    0.68    0.05
   3   0   4    0.65    0.06
   3   0  -4    0.67    0.05
   3   0  -4    0.64    0.05
  -3   0  -4    0.71    0.05
  -3   0   5   15.63    0.25
   3   0   5   15.46    0.27
  -3   0  -5   15.48    0.26
  -3   0  -5   15.52    0.23
   3   0  -5   15.65    0.24
   3   0  -5   15.69    0.26
   3   0   6    5.96    0.18
   3   0  -6    5.70    0.16
  -3   0  -6    5.92    0.17
  -3   0   6    5.89    0.16
   3   0  -6    5.85    0.15
  -3   0  -6    5.82    0.14
  -3   0  -7   11.36    0.25
   3   0  -7   11.36    0.22
   3   0   7   10.60    0.26
  -3   0   7   11.13    0.24
   3   0  -7   11.05    0.25
   3   0   8    0.39    0.09
   3  -1   0    0.16    0.02
   3  -1  -1   74.15    0.73
   3  -1  -1   74.87    0.72
   3   1   1   75.61    0.73
   3   1   1   73.32    0.73
   3   1  -1   74.11    0.71
   3  -1   1   74.36    0.72
   3  -1   1   75.87    0.73
  -3  -1  -1   75.00    0.72
  -3  -1  -1   74.76    0.72
   3   1  -1   75.08    0.72
   3  -1  -2    2.46    0.06
   3   1   2    2.54    0.07
  -3   1  -2    2.48    0.06
  -3   1  -2    2.50    0.07
   3   1   2    2.55    0.06
  -3  -1   2    2.48    0.06
   3  -1  -2    2.51    0.05
   3  -1   2    2.49    0.06
   3   1  -2    2.39    0.06
   3   1  -2    2.60    0.06
  -3   1   2    2.47    0.06
  -3  -1  -2    2.46    0.06
  -3  -1  -2    2.52    0.06
  -3   1  -3  157.85    1.51
   3  -1  -3  159.32    1.54
   3  -1  -3  161.63    1.55
  -3   1  -3  162.82    1.56
  -3  -1   3  158.41    1.53
   3  -1  -3  162.07    1.50
   3   1   3  161.04    1.56
  -3  -1  -3  159.09    1.53
   3  -1   3  160.20    1.56
   3   1  -3  161.90    1.54
   3  -1   3  160.41    1.53
   3   1  -3  160.01    1.53
  -3  -1  -3  158.49    1.55
  -3   1   3  161.99    1.53
   3   1   4    2.50    0.10
  -3   1  -4    2.36    0.09
   3  -1  -4    2.16    0.09
  -3   1  -4    2.26    0.07
  -3  -1   4    2.27    0.09
   3  -1  -4    2.27    0.08
   3  -1   4    2.15    0.07
   3   1  -4    2.36    0.08
  -3  -1  -4    2.22    0.08
   3   1  -4    2.43    0.08
  -3  -1  -4    2.46    0.09
  -3   1   4    2.39    0.09
   3  -1   4    2.20    0.10
   3  -1  -5   33.88    0.44
  -3   1  -5   32.64    0.39
   3   1   5   32.79    0.45
   3  -1  -5   33.42    0.42
  -3  -1   5   34.23    0.43
  -3   1  -5   33.78    0.44
   3  -1   5   32.27    0.45
  -3  -1  -5   33.41    0.41
   3   1  -5   33.77    0.43
  -3   1   5   33.20    0.42
   3   1  -5   34.23    0.41
  -3  -1  -5   34.09    0.44
   3  -1  -6    0.71    0.07
  -3   1  -6    0.56    0.07
  -3  -1   6    0.62    0.07
   3   1   6    0.62    0.08
   3  -1  -6    0.58    0.06
   3   1  -6    0.94    0.08
  -3  -1  -6    0.74    0.06
   3  -1   6    0.64    0.08
   3   1  -6    0.74    0.06
  -3  -1  -6    0.59    0.07
  -3   1   6    0.90    0.08
  -3  -1   7    0.46    0.07
  -3   1  -7    0.55    0.08
   3  -1  -7    0.62    0.07
   3   1   7    0.45    0.08
   3  -1  -7    0.60    0.08
  -3  -1  -7    0.52    0.07
  -3  -1  -7    0.46    0.06
   3  -1   7    0.48    0.09
  -3   1   7    0.55    0.08
   3   1   8   -0.09    0.06
   3  -1  -8    0.10    0.05
   3  -1   8    0.02    0.07
   3  -2   0    0.07    0.02
   3  -2   0    0.04    0.03
   3  -2   0    0.01    0.02
   3  -2  -1    3.09    0.07
   3  -2  -1    3.14    0.07
   3  -2  -1    3.08    0.07
   3   2   1    3.24    0.08
  -3  -2   1    3.19    0.06
   3   2  -1    3.22    0.07
  -3  -2  -1    3.10    0.05
   3  -2   1    3.20    0.07
   3  -2   1    3.07    0.07
   3  -2  -2    9.10    0.14
   3   2   2    9.08    0.15
  -3  -2   2    9.29    0.13
   3  -2  -2    9.36    0.15
   3  -2  -2    9.18    0.13
  -3  -2  -2    9.16    0.13
  -3  -2  -2    8.98    0.14
   3   2  -2    9.18    0.13
  -3   2   2    9.51    0.14
   3   2  -2    9.20    0.13
   3  -2   2    9.28    0.15
   3  -2   2    9.28    0.14
   3  -2  -3   46.28    0.50
  -3  -2   3   45.60    0.50
  -3   2  -3   45.46    0.46
  -3   2  -3   46.74    0.52
   3   2   3   46.20    0.53
   3  -2  -3   46.07    0.48
   3  -2  -3   46.49    0.52
   3  -2   3   46.08    0.49
   3   2  -3   47.01    0.49
  -3  -2  -3   46.21    0.51
   3   2  -3   46.40    0.49
  -3   2   3   47.22    0.50
  -3  -2  -3   46.18    0.50
   3  -2   3   46.38    0.52
   3  -2  -4    3.55    0.11
   3  -2  -4    3.61    0.08
  -3   2  -4    3.54    0.08
  -3   2  -4    3.62    0.11
   3  -2  -4    3.33    0.10
   3   2   4    3.67    0.12
  -3  -2   4    3.57    0.11
   3   2  -4    3.53    0.09
  -3  -2  -4    3.55    0.10
  -3  -2  -4    3.38    0.10
   3  -2   4    3.51    0.12
  -3   2   4    3.74    0.11
   3   2  -4    3.62    0.10
   3  -2   4    3.51    0.09
  -3  -2   5   47.19    0.56
  -3   2  -5   47.33    0.58
   3   2   5   47.51    0.59
   3  -2  -5   47.77    0.56
   3  -2  -5   47.22    0.58
  -3   2   5   47.01    0.56
  -3  -2  -5   47.62    0.55
   3   2  -5   46.68    0.56
   3  -2   5   47.55    0.59
   3   2  -5   48.22    0.53
  -3  -2  -5   47.38    0.57
  -3   2  -6    0.01    0.04
   3   2   6    0.09    0.05
   3  -2  -6    0.10    0.05
   3  -2  -6   -0.01    0.04
  -3  -2   6    0.01    0.05
  -3  -2  -6    0.02    0.04
   3  -2   6    0.08    0.06
  -3  -2  -6    0.04    0.05
  -3   2   6    0.05    0.05
   3   2   7   14.81    0.32
   3  -2  -7   15.08    0.28
   3  -2  -7   15.07    0.30
  -3  -2   7   15.30    0.30
  -3   2  -7   14.99    0.30
  -3  -2  -7   14.99    0.27
  -3   2   7   14.34    0.29
  -3  -2  -7   14.84    0.30
   3  -2   7   14.92    0.32
   3  -2  -8    0.66    0.08
   3   2   8    0.66    0.10
   3  -2   8    0.50    0.09
  -3  -2  -8    0.60    0.08
  -3  -3   0    0.07    0.02
   3  -3   0    0.03    0.02
   3  -3   0    0.03    0.02
   3  -3   0    0.03    0.02
   3  -3  -1   52.01    0.55
  -3  -3   1   52.53    0.54
   3  -3  -1   51.82    0.53
   3  -3  -1   52.55    0.54
   3   3   1   51.82    0.55
  -3  -3   1   52.56    0.52
  -3  -3  -1   51.76    0.53
   3  -3   1   51.89    0.54
  -3  -3  -1   52.33    0.50
   3  -3   1   51.23    0.54
  -3  -3   2    2.38    0.07
   3   3   2    2.20    0.08
   3  -3  -2    2.20    0.07
   3  -3  -2    2.27    0.07
   3  -3  -2    2.24    0.07
   3   3  -2    2.28    0.06
   3  -3   2    2.15    0.07
  -3  -3  -2    2.23    0.07
  -3  -3  -2    2.21    0.06
   3   3  -2    2.24    0.05
   3  -3  -3  140.37    1.39
  -3   3  -3  142.51    1.39
   3  -3  -3  141.24    1.36
   3  -3  -3  140.42    1.37
  -3  -3   3  138.45    1.38
   3   3   3  138.68    1.40
   3  -3   3  139.31    1.39
  -3  -3  -3  141.77    1.37
  -3   3   3  141.91    1.38
  -3  -3  -3  139.34    1.37
   3   3  -3  140.44    1.35
   3   3  -3  142.17    1.35
   3  -3   3  140.45    1.36
  -3   3  -4    7.30    0.16
  -3  -3   4    7.35    0.16
   3  -3  -4    7.16    0.15
   3  -3  -4    7.37    0.16
   3   3   4    7.16    0.17
   3  -3  -4    7.22    0.13
  -3  -3  -4    7.20    0.15
  -3   3   4    7.15    0.15
   3   3  -4    7.33    0.13
   3  -3   4    7.18    0.17
  -3  -3  -4    7.47    0.15
  -3   3  -5   38.55    0.50
  -3  -3   5   38.61    0.49
   3  -3  -5   37.72    0.48
   3   3   5   39.18    0.52
   3  -3  -5   38.49    0.50
  -3  -3  -5   38.58    0.46
  -3  -3  -5   38.94    0.48
  -3  -3  -5   38.22    0.49
   3  -3   5   38.20    0.51
  -3   3   5   38.71    0.49
   3   3   6   11.35    0.26
  -3   3  -6   11.45    0.24
   3  -3  -6   11.32    0.23
   3  -3  -6   11.74    0.25
  -3  -3   6   11.04    0.24
  -3   3   6   10.97    0.23
   3  -3   6   11.30    0.26
  -3  -3  -6   11.29    0.23
  -3  -3  -6   10.86    0.23
   3  -3  -7    0.06    0.06
   3   3   7   -0.01    0.06
   3  -3  -7    0.08    0.05
  -3  -3   7    0.03    0.06
  -3   3  -7    0.05    0.05
  -3  -3  -7    0.00    0.06
   3  -3   7   -0.03    0.06
  -3  -3  -7    0.05    0.05
  -3   3   7    0.00    0.05
   3   3   8    5.94    0.22
   3  -3  -8    5.86    0.19
  -3  -3  -8    5.87    0.19
   3  -3   8    5.36    0.22
   3  -4   0    0.03    0.02
   3  -4   0    0.00    0.02
  -3  -4   0    0.05    0.02
   3  -4   0    0.05    0.03
  -3  -4   0    0.00    0.02
   3  -4   0    0.02    0.03
   3  -4  -1    1.53    0.07
   3  -4  -1    1.54    0.05
   3  -4  -1    1.53    0.06
  -3  -4   1    1.55    0.05
  -3  -4   1    1.64    0.07
  -3  -4  -1    1.56    0.06
   3  -4   1    1.56    0.06
  -3  -4  -1    1.63    0.06
   3  -4   1    1.50    0.07
   3  -4  -2    2.63    0.09
   3  -4  -2    2.72    0.08
  -3  -4   2    2.53    0.08
  -3  -4   2    2.66    0.06
   3   4   2    2.67    0.09
   3  -4  -2    2.71    0.08
  -3  -4  -2    2.58    0.08
  -3  -4  -2    2.57    0.07
  -3  -4  -2    2.56    0.08
   3  -4   2    2.50    0.08
   3  -4   2    2.74    0.09
   3  -4  -3    0.17    0.04
  -3  -4   3    0.06    0.04
   3  -4  -3    0.15    0.04
   3   4   3    0.10    0.04
   3  -4  -3    0.15    0.03
  -3  -4  -3    0.11    0.04
  -3  -4  -3    0.06    0.03
  -3  -4  -3    0.09    0.03
  -3   4   3    0.09    0.03
   3  -4   3    0.11    0.04
   3  -4   3    0.20    0.03
   3   4  -3    0.13    0.03
  -3   4  -4    0.09    0.03
   3  -4  -4    0.08    0.04
   3   4   4    0.10    0.05
   3  -4  -4    0.00    0.03
   3  -4  -4    0.09    0.04
  -3  -4   4    0.08    0.04
  -3  -4  -4    0.02    0.04
  -3   4   4    0.07    0.04
  -3  -4  -4    0.06    0.03
   3  -4   4    0.00    0.04
  -3  -4  -4    0.08    0.03
  -3   4  -5    1.31    0.08
   3  -4  -5    1.57    0.09
  -3  -4   5    1.49    0.10
   3  -4  -5    1.35    0.09
   3   4   5    1.24    0.10
   3  -4   5    1.36    0.11
  -3   4   5    1.31    0.09
  -3  -4  -5    1.32    0.09
  -3  -4  -5    1.25    0.08
  -3  -4  -5    1.36    0.08
  -3  -4   6    2.73    0.13
   3  -4  -6    3.06    0.13
   3   4   6    2.75    0.14
   3  -4  -6    2.83    0.12
  -3   4   6    2.87    0.13
  -3  -4  -6    2.81    0.12
   3  -4   6    2.88    0.15
  -3  -4  -6    2.78    0.11
  -3  -4  -6    2.65    0.12
   3  -4  -7    2.54    0.13
  -3  -4   7    2.76    0.15
   3   4   7    2.83    0.16
  -3   4   7    2.88    0.15
  -3  -4  -7    2.56    0.13
   3  -4   7    2.63    0.16
   3  -5   0   -0.01    0.03
   3  -5   0   -0.03    0.02
   3  -5   0    0.04    0.03
   3  -5   0   -0.01    0.03
  -3  -5   0   -0.03    0.02
  -3  -5   0    0.00    0.02
  -3  -5   1   23.20    0.27
   3  -5  -1   23.50    0.31
   3  -5  -1   23.94    0.32
   3  -5  -1   23.40    0.28
  -3  -5   1   23.85    0.32
  -3  -5   1   23.37    0.29
   3  -5   1   23.63    0.32
  -3  -5  -1   23.81    0.31
  -3  -5  -1   23.64    0.29
   3  -5   1   23.34    0.30
   3  -5  -2    5.90    0.14
   3  -5  -2    5.97    0.12
   3  -5  -2    6.28    0.14
  -3  -5   2    6.05    0.11
  -3  -5   2    6.26    0.14
  -3  -5  -2    6.14    0.14
   3  -5   2    5.96    0.13
  -3  -5  -2    6.18    0.11
  -3  -5  -2    6.07    0.13
   3  -5   2    6.39    0.15
  -3  -5   3   69.00    0.77
   3  -5  -3   69.52    0.75
   3   5   3   69.73    0.79
   3  -5  -3   69.04    0.76
   3  -5  -3   69.72    0.75
   3  -5   3   70.65    0.78
  -3  -5  -3   70.03    0.76
  -3  -5  -3   70.52    0.75
  -3  -5  -3   69.16    0.73
   3  -5   3   69.41    0.73
   3   5   4   14.02    0.27
   3  -5  -4   13.55    0.25
  -3  -5   4   13.84    0.25
   3  -5  -4   14.07    0.24
   3  -5  -4   13.72    0.23
  -3  -5  -4   13.73    0.24
  -3   5   4   13.94    0.25
  -3  -5  -4   13.92    0.23
   3  -5   4   13.91    0.26
  -3  -5  -4   13.93    0.24
  -3  -5   5   13.80    0.26
   3  -5  -5   13.50    0.25
   3  -5  -5   13.25    0.26
   3  -5  -5   13.46    0.23
   3   5   5   13.77    0.28
  -3  -5  -5   13.58    0.25
  -3  -5  -5   13.22    0.24
  -3  -5  -5   13.88    0.24
   3  -5   5   13.77    0.28
  -3   5   5   13.61    0.26
   3  -5  -6   11.08    0.25
   3   5   6   10.71    0.27
  -3  -5   6   10.91    0.25
   3  -5  -6   11.08    0.24
  -3  -5  -6   10.89    0.24
  -3  -5  -6   11.25    0.24
   3  -5   6   10.79    0.27
  -3   5   6   10.63    0.25
  -3  -5  -6   10.89    0.22
   3  -5  -7    1.25    0.11
  -3  -5   7    1.12    0.11
   3   5   7    0.98    0.11
   3  -5   7    1.21    0.12
  -3  -5  -7    1.33    0.11
  -3   5   7    1.10    0.16
   3  -6   0    0.02    0.03
  -3  -6   0    0.04    0.03
  -3  -6   0   -0.02    0.03
   3  -6   0    0.03    0.04
   3  -6  -1    0.65    0.06
   3  -6  -1    0.69    0.05
  -3  -6   1    0.80    0.06
   3  -6  -1    0.63    0.06
   3  -6  -1    0.70    0.06
  -3  -6   1    0.66    0.06
   3  -6   1    0.67    0.06
  -3  -6  -1    0.61    0.06
  -3  -6  -1    0.81    0.06
   3  -6   1    0.78    0.07
  -3  -6   2    3.50    0.09
   3  -6  -2    3.32    0.11
   3  -6  -2    3.16    0.10
   3  -6  -2    3.28    0.11
  -3  -6   2    3.25    0.12
   3  -6   2    3.18    0.12
   3  -6   2    3.21    0.10
  -3  -6  -2    3.27    0.10
  -3  -6  -2    3.31    0.08
  -3  -6  -2    3.38    0.11
   3  -6  -3    4.31    0.13
  -3  -6   3    4.30    0.14
   3  -6  -3    4.37    0.12
   3  -6  -3    4.22    0.13
  -3  -6  -3    4.53    0.13
  -3  -6  -3    4.43    0.13
   3  -6   3    4.20    0.14
  -3  -6  -3    4.29    0.11
   3  -6   3    4.57    0.12
  -3  -6   4    0.52    0.07
   3  -6  -4    0.61    0.07
   3   6   4    0.59    0.07
   3  -6  -4    0.64    0.07
   3  -6  -4    0.59    0.06
  -3  -6  -4    0.53    0.06
  -3  -6  -4    0.61    0.07
   3  -6   4    0.58    0.07
  -3  -6  -4    0.56    0.06
   3   6   5    3.34    0.15
   3  -6  -5    3.36    0.12
  -3  -6   5    3.53    0.15
   3  -6  -5    3.28    0.14
   3  -6  -5    3.42    0.13
  -3  -6  -5    3.45    0.13
  -3  -6  -5    3.44    0.12
   3  -6   5    3.35    0.15
  -3  -6  -5    3.44    0.14
   3  -6  -6    0.33    0.07
   3   6   6    0.34    0.08
  -3  -6   6    0.33    0.08
  -3  -6  -6    0.32    0.06
  -3   6   6    0.34    0.07
   3  -6   6    0.41    0.09
  -3  -6  -6    0.36    0.07
  -3  -6  -6    0.29    0.06
   3  -6  -7    1.13    0.11
  -3  -6   7    1.03    0.13
   3   6   7    1.00    0.12
   3  -6   7    0.96    0.12
  -3  -6  -7    1.13    0.11
   3  -7   0    0.06    0.04
  -3  -7   0    0.02    0.04
   3  -7   0    0.03    0.04
  -3  -7   0   -0.01    0.04
   3  -7  -1   17.90    0.27
   3  -7  -1   17.08    0.28
  -3  -7   1   17.69    0.30
  -3  -7   1   17.21    0.26
   3  -7  -1   17.63    0.28
   3  -7   1   17.71    0.28
   3  -7   1   17.58    0.29
  -3  -7  -1   17.52    0.28
  -3  -7  -1   17.43    0.25
  -3  -7   2    1.74    0.10
   3  -7  -2    1.58    0.09
   3  -7  -2    1.57    0.09
   3  -7  -2    1.60    0.08
  -3  -7  -2    1.89    0.09
  -3  -7  -2    1.58    0.09
   3  -7   2    1.55    0.09
   3  -7   2    1.63    0.10
   3  -7  -3   58.02    0.69
   3  -7  -3   58.51    0.69
   3  -7  -3   58.09    0.66
  -3  -7   3   57.83    0.71
  -3  -7  -3   59.45    0.69
  -3  -7  -3   59.74    0.68
   3  -7   3   58.64    0.71
  -3  -7   4    7.23    0.20
   3  -7  -4    7.86    0.20
   3  -7  -4    7.47    0.18
   3  -7  -4    7.35    0.19
  -3  -7  -4    7.54    0.19
   3  -7   4    7.65    0.21
  -3  -7  -4    7.14    0.18
   3  -7  -5   18.88    0.34
   3  -7  -5   18.52    0.32
  -3  -7   5   18.53    0.35
   3  -7  -5   18.51    0.32
  -3  -7  -5   18.71    0.33
  -3  -7  -5   18.79    0.33
  -3  -7  -5   18.78    0.30
   3  -7   5   18.78    0.36
   3   7   6   10.57    0.28
   3  -7  -6   10.32    0.25
  -3  -7   6    9.90    0.27
  -3  -7  -6   10.66    0.25
   3  -7   6   10.47    0.28
  -3  -7  -6   10.70    0.25
  -3  -8   0   -0.02    0.04
  -3  -8   0    0.01    0.04
   3  -8   0   -0.01    0.04
   3  -8   0    0.04    0.04
  -3  -8   1    0.83    0.07
   3  -8  -1    0.78    0.08
   3  -8  -1    0.77    0.08
  -3  -8   1    0.93    0.09
   3  -8   1    0.78    0.08
   3  -8   1    0.83    0.08
  -3  -8  -1    0.74    0.07
   3  -8  -2    1.98    0.10
   3  -8  -2    2.11    0.11
  -3  -8   2    1.99    0.12
   3  -8   2    2.24    0.12
   3  -8   2    2.00    0.10
  -3  -8  -2    2.11    0.10
  -3  -8  -2    2.10    0.11
   3  -8  -3    4.81    0.16
   3  -8  -3    4.66    0.16
   3  -8  -3    4.88    0.16
  -3  -8   3    4.92    0.17
   3  -8   3    4.99    0.17
  -3  -8  -3    4.80    0.16
  -3  -8  -3    4.74    0.15
   3  -8  -4    0.28    0.06
  -3  -8   4    0.31    0.07
   3  -8  -4    0.34    0.06
   3  -8  -4    0.32    0.07
  -3  -8  -4    0.32    0.07
  -3  -8  -4    0.38    0.07
   3  -8   4    0.24    0.07
  -3  -8   5    3.36    0.17
   3  -8  -5    3.73    0.15
   3  -8  -5    3.65    0.15
  -3  -8  -5    3.23    0.15
  -3  -8  -5    3.25    0.15
   3  -8   5    3.60    0.17
   3  -9   0    0.00    0.05
  -3  -9   0    0.00    0.05
  -3  -9   0   -0.05    0.04
   3  -9   0   -0.02    0.05
  -3  -9   1    6.94    0.17
   3  -9  -1    6.98    0.20
   3  -9  -1    6.85    0.19
  -3  -9   1    6.98    0.21
  -3  -9  -1    6.91    0.21
   3  -9   1    7.10    0.20
  -3  -9  -1    6.92    0.19
   3  -9   1    7.08    0.19
   3  -9  -2    1.05    0.10
  -3  -9   2    1.05    0.10
   3  -9  -2    1.02    0.09
   3  -9  -2    0.97    0.08
   3  -9   2    0.98    0.10
  -3  -9  -2    1.06    0.09
   3  -9   2    0.95    0.09
   3  -9  -3   21.45    0.35
   3  -9  -3   21.10    0.37
  -3  -9   3   21.31    0.39
  -3  -9  -3   21.16    0.34
  -3  -9  -3   21.38    0.37
   3  -9   3   21.56    0.39
   3  -9  -4    3.28    0.15
  -3  -9   4    3.52    0.18
  -3  -9  -4    3.39    0.15
  -3  -9  -4    3.19    0.15
   3  -9   4    3.22    0.17
   3  -9  -5    4.19    0.17
  -3  -9   5    4.21    0.19
   3  -9  -5    4.19    0.17
  -3  -9  -5    4.24    0.17
  -3  -9  -5    4.07    0.18
   3  -9   5    4.13    0.20
  -3 -10   0    0.00    0.05
   3 -10   0    0.00    0.06
  -3 -10   0    0.03    0.06
   3 -10   0   -0.04    0.05
   3 -10  -1    0.11    0.06
   3 -10  -1   -0.08    0.05
  -3 -10   1    0.08    0.06
  -3 -10  -1   -0.08    0.05
   3 -10   1   -0.03    0.05
  -3 -10  -1    0.06    0.06
   3 -10   1    0.02    0.06
   3 -10  -2    0.75    0.09
  -3 -10   2    0.54    0.09
   3 -10  -2    0.55    0.09
   3 -10   2    0.60    0.09
  -3 -10  -2    0.78    0.09
  -3 -10   3    0.05    0.07
   3 -10  -3    0.06    0.06
   3 -10  -3    0.03    0.06
  -3 -10  -3    0.01    0.06
   3 -10   3    0.07    0.07
  -3 -11   0    0.01    0.06
  -3 -11   0   -0.03    0.07
   3 -11   0   -0.06    0.06
   3 -11   0    0.08    0.07
  -3 -11   1    3.81    0.19
   3 -11  -1    3.74    0.18
   3 -11  -1    3.96    0.17
   3 -11   1    3.62    0.16
  -3 -11  -1    3.94    0.19
  -3 -11  -1    3.72    0.17
   3 -11   1    3.57    0.18
   4   0   0  564.82    5.64
   4   0   0  600.54    5.63
   4   0   0  599.22    5.63
   4   0   1  266.91    2.62
   4   0   1  267.99    2.63
   4   0  -1  266.86    2.59
   4   0  -1  261.31    2.61
  -4   0  -2  235.99    2.29
   4   0  -2  242.11    2.34
   4   0  -2  238.65    2.36
   4   0   2  239.17    2.28
  -4   0  -2  241.10    2.41
   4   0   2  241.90    2.32
   4   0   3  209.11    2.01
   4   0  -3  208.94    1.99
   4   0   3  209.75    1.99
  -4   0  -3  212.94    2.01
   4   0  -3  205.83    2.00
  -4   0  -3  209.72    1.97
  -4   0   3  210.65    1.97
   4   0   4    4.55    0.10
  -4   0   4    4.55    0.11
  -4   0  -4    4.68    0.10
   4   0  -4    4.58    0.12
  -4   0  -4    4.60    0.12
   4   0  -4    4.67    0.11
   4   0   4    4.56    0.13
  -4   0   5   77.97    0.83
  -4   0  -5   77.07    0.85
   4   0  -5   78.00    0.83
   4   0  -5   78.06    0.85
  -4   0  -5   78.07    0.81
   4   0   5   77.10    0.87
   4   0  -6    3.75    0.12
   4   0   6    3.58    0.15
  -4   0  -6    3.60    0.11
  -4   0   6    3.78    0.13
  -4   0  -6    4.01    0.14
   4   0  -6    3.49    0.13
  -4   0  -7    4.57    0.16
   4   0   7    4.51    0.18
   4   0  -7    4.27    0.14
   4   0  -7    4.73    0.16
   4   0  -8    0.77    0.08
   4   0   8    0.70    0.11
   4   1   0    0.04    0.02
   4   1   0    0.06    0.02
   4  -1   0    0.05    0.02
   4  -1   0    0.04    0.02
   4   1   1    0.08    0.02
   4  -1  -1    0.10    0.02
   4   1   1    0.10    0.02
   4  -1  -1    0.07    0.02
   4  -1  -1    0.11    0.02
   4  -1   1    0.12    0.02
  -4  -1  -1    0.04    0.02
  -4  -1  -1    0.10    0.02
   4  -1   1    0.04    0.02
   4   1  -1    0.13    0.02
   4   1  -1    0.05    0.02
  -4   1  -2   18.76    0.21
   4  -1  -2   18.69    0.23
   4   1   2   18.67    0.23
   4  -1  -2   18.61    0.24
   4   1   2   18.45    0.24
   4  -1  -2   18.42    0.21
  -4   1  -2   18.93    0.24
   4  -1   2   18.35    0.24
   4   1  -2   18.85    0.23
   4   1  -2   18.72    0.22
   4  -1   2   18.45    0.23
  -4  -1  -2   18.10    0.23
  -4  -1  -2   18.45    0.22
  -4  -1   3    0.23    0.03
   4  -1  -3    0.49    0.04
   4   1   3    0.20    0.04
   4   1   3    0.26    0.03
  -4   1  -3    0.15    0.03
   4  -1  -3    0.20    0.03
  -4   1  -3    0.25    0.03
   4  -1  -3    0.24    0.02
   4  -1   3    0.19    0.04
   4   1  -3    0.25    0.03
   4   1  -3    0.27    0.03
   4  -1   3    0.35    0.04
  -4  -1  -3    0.22    0.03
  -4   1   3    0.32    0.03
  -4  -1  -3    0.22    0.03
  -4  -1   4   72.50    0.74
   4  -1  -4   69.90    0.77
   4   1   4   71.75    0.78
   4  -1  -4   69.76    0.75
  -4   1  -4   72.19    0.77
  -4   1  -4   70.45    0.72
   4   1  -4   72.11    0.74
  -4  -1  -4   70.74    0.74
  -4   1   4   71.21    0.74
   4  -1   4   70.98    0.73
   4   1  -4   70.47    0.75
   4  -1   4   71.29    0.78
  -4  -1  -4   69.84    0.76
   4   1   5    0.17    0.06
  -4   1  -5    0.26    0.05
  -4   1  -5    0.23    0.04
   4  -1  -5    0.30    0.05
   4  -1  -5    0.32    0.05
  -4  -1   5    0.37    0.05
   4   1  -5    0.24    0.04
   4  -1   5    0.26    0.06
  -4  -1  -5    0.24    0.05
  -4   1   5    0.20    0.05
  -4  -1  -5    0.33    0.05
   4   1  -5    0.26    0.05
  -4  -1   6   47.14    0.58
   4  -1  -6   45.91    0.59
   4   1   6   46.27    0.61
   4  -1  -6   46.15    0.57
  -4   1  -6   46.10    0.59
   4   1  -6   45.87    0.55
  -4  -1  -6   46.94    0.59
   4   1  -6   46.28    0.58
  -4  -1  -6   45.92    0.55
   4  -1   6   46.50    0.61
  -4   1   6   46.07    0.58
   4  -1  -7    2.31    0.11
  -4   1  -7    2.20    0.13
   4  -1  -7    2.57    0.13
   4   1   7    2.43    0.14
  -4  -1  -7    2.43    0.13
   4   1  -7    2.43    0.11
  -4  -1  -7    2.63    0.11
   4  -1   7    2.55    0.15
   4  -1  -8    5.13    0.17
   4   1   8    5.21    0.21
   4  -1   8    5.07    0.21
   4  -2   0    0.44    0.03
   4   2   0    0.50    0.02
   4  -2   0    0.49    0.03
   4  -2   0    0.61    0.05
   4  -2   0    0.48    0.03
   4  -2  -1    0.70    0.04
   4  -2  -1    0.70    0.05
   4   2   1    0.79    0.05
  -4  -2   1    0.75    0.04
   4  -2  -1    0.77    0.04
   4  -2   1    0.71    0.04
   4  -2   1    0.73    0.04
  -4  -2  -1    0.70    0.03
   4  -2  -2   19.68    0.25
   4  -2  -2   19.48    0.24
  -4  -2   2   19.80    0.23
   4   2   2   19.32    0.26
   4  -2  -2   19.47    0.23
   4  -2   2   19.61    0.24
  -4  -2  -2   19.62    0.23
   4  -2   2   19.29    0.25
  -4  -2  -2   19.20    0.24
   4   2  -2   19.63    0.24
   4   2  -2   19.92    0.22
  -4   2   2   19.44    0.23
  -4   2  -3    0.43    0.03
   4  -2  -3    0.40    0.04
   4  -2  -3    0.37    0.04
  -4  -2   3    0.49    0.04
   4   2   3    0.42    0.05
   4  -2  -3    0.40    0.03
  -4   2  -3    0.44    0.05
  -4  -2  -3    0.47    0.04
   4   2  -3    0.43    0.04
   4   2  -3    0.39    0.04
  -4   2   3    0.41    0.04
   4  -2   3    0.41    0.05
   4  -2   3    0.44    0.04
  -4  -2  -3    0.45    0.04
   4  -2  -4   49.48    0.56
   4  -2  -4   49.37    0.52
  -4  -2   4   49.56    0.55
   4  -2  -4   49.61    0.58
  -4   2  -4   48.89    0.57
   4   2   4   49.14    0.59
   4  -2   4   49.58    0.58
   4   2  -4   48.80    0.55
  -4  -2  -4   49.68    0.55
  -4   2   4   49.65    0.55
   4   2  -4   49.56    0.54
   4  -2   4   49.99    0.54
  -4  -2  -4   48.37    0.56
   4  -2  -5    3.04    0.12
  -4  -2   5    3.16    0.11
   4  -2  -5    3.03    0.11
   4   2   5    2.61    0.12
  -4   2  -5    3.05    0.12
  -4   2   5    3.01    0.11
   4  -2   5    3.09    0.13
  -4  -2  -5    3.07    0.11
   4   2  -5    3.00    0.09
  -4  -2  -5    3.08    0.11
  -4   2  -6   38.36    0.53
   4  -2  -6   39.38    0.53
   4  -2  -6   39.13    0.51
  -4  -2   6   39.05    0.51
   4   2   6   38.25    0.54
  -4  -2  -6   38.91    0.49
  -4  -2  -6   39.46    0.52
  -4   2   6   39.26    0.52
   4  -2   6   39.39    0.55
   4   2  -6   39.93    0.53
  -4   2  -7    0.11    0.05
   4  -2  -7    0.11    0.05
   4   2   7    0.09    0.06
   4  -2  -7    0.03    0.05
  -4  -2  -7    0.13    0.05
  -4  -2  -7   -0.05    0.05
   4  -2   7    0.03    0.06
   4   2   8    4.89    0.21
   4  -2  -8    5.12    0.18
  -4  -2  -8    5.22    0.17
   4  -2   8    5.07    0.21
   4  -3   0   39.73    0.42
   4  -3   0   40.23    0.40
   4  -3   0   39.31    0.45
   4  -3   0   39.97    0.43
   4  -3  -1   60.31    0.63
   4   3   1   60.24    0.64
  -4  -3   1   60.08    0.62
   4  -3  -1   62.41    0.65
   4  -3  -1   61.57    0.61
   4  -3   1   60.68    0.63
  -4  -3  -1   60.66    0.62
   4  -3   1   62.46    0.63
  -4  -3  -1   60.08    0.58
   4  -3  -2    6.03    0.13
  -4  -3   2    6.10    0.09
   4   3   2    6.03    0.13
  -4  -3   2    6.21    0.11
   4  -3  -2    5.89    0.11
   4  -3  -2    6.17    0.11
   4   3  -2    6.06    0.09
  -4  -3  -2    6.07    0.12
  -4  -3  -2    6.21    0.10
   4  -3   2    6.15    0.12
   4   3  -2    6.14    0.11
   4  -3   2    6.05    0.12
  -4   3  -3   21.32    0.29
   4  -3  -3   20.61    0.27
  -4  -3   3   21.18    0.28
   4  -3  -3   21.24    0.28
   4  -3  -3   21.31    0.30
   4   3   3   21.10    0.30
  -4  -3  -3   21.59    0.27
   4  -3   3   21.08    0.27
  -4  -3  -3   21.08    0.28
   4  -3   3   21.17    0.30
  -4   3   3   21.40    0.28
   4   3  -3   21.59    0.26
   4  -3  -4   14.47    0.21
   4  -3  -4   14.12    0.24
  -4   3  -4   14.24    0.24
   4   3   4   14.54    0.26
  -4  -3   4   14.17    0.23
   4  -3  -4   14.25    0.23
   4  -3   4   14.42    0.21
  -4   3   4   14.41    0.23
  -4  -3  -4   14.17    0.23
  -4  -3  -4   14.43    0.23
   4  -3   4   14.09    0.25
   4   3  -4   14.48    0.21
  -4   3  -5    5.40    0.15
   4  -3  -5    5.52    0.15
   4   3   5    5.43    0.17
   4  -3  -5    5.37    0.16
  -4  -3   5    5.57    0.15
  -4  -3  -5    5.19    0.14
  -4   3   5    5.51    0.15
  -4  -3  -5    5.36    0.15
   4  -3   5    5.24    0.16
  -4  -3   6   26.16    0.39
   4  -3  -6   25.83    0.39
   4  -3  -6   25.52    0.40
   4   3   6   25.63    0.42
  -4   3  -6   26.31    0.40
  -4  -3  -6   25.59    0.38
  -4   3   6   25.56    0.40
  -4  -3  -6   25.98    0.48
  -4  -3  -6   26.27    0.40
   4  -3   6   25.73    0.42
   4  -3  -7    0.51    0.09
   4  -3  -7    0.51    0.07
   4   3   7    0.42    0.08
  -4   3  -7    0.43    0.07
   4  -3   7    0.29    0.08
  -4  -3  -7    0.34    0.06
   4  -3  -8    3.90    0.16
   4   3   8    3.82    0.19
  -4  -3  -8    3.70    0.16
   4  -3   8    3.69    0.19
   4  -4   0  176.26    1.63
   4  -4   0  175.88    1.67
  -4  -4   0  174.56    1.65
   4  -4   0  174.17    1.67
  -4  -4   0  173.91    1.66
   4  -4   0  168.29    1.68
   4  -4  -1   65.18    0.69
   4  -4  -1   64.04    0.65
   4  -4  -1   63.65    0.67
  -4  -4   1   64.21    0.65
  -4  -4   1   65.04    0.68
   4  -4   1   64.31    0.68
  -4  -4  -1   62.89    0.66
   4  -4   1   65.13    0.67
   4  -4  -2   71.15    0.73
  -4  -4   2   71.08    0.70
   4   4   2   71.98    0.77
  -4  -4   2   69.77    0.74
   4  -4  -2   71.16    0.74
   4  -4  -2   72.62    0.76
  -4  -4  -2   71.33    0.70
  -4  -4  -2   70.19    0.73
   4  -4   2   70.67    0.74
   4  -4   2   70.34    0.75
   4  -4  -3   84.34    0.87
   4  -4  -3   84.66    0.88
   4  -4  -3   84.16    0.90
  -4  -4   3   84.68    0.88
   4   4   3   84.57    0.91
   4  -4   3   84.91    0.90
  -4  -4  -3   84.58    0.88
   4   4  -3   84.62    0.85
  -4  -4  -3   84.81    0.86
   4  -4   3   83.94    0.87
   4  -4  -4    0.19    0.04
  -4  -4   4    0.19    0.05
   4   4   4    0.16    0.05
  -4   4  -4    0.21    0.04
   4  -4  -4    0.17    0.05
   4  -4  -4    0.17    0.04
  -4  -4  -4    0.20    0.04
   4  -4   4    0.17    0.05
  -4   4   4    0.14    0.04
  -4  -4  -4    0.07    0.04
   4  -4  -5   42.46    0.53
  -4  -4   5   42.77    0.54
  -4   4  -5   42.98    0.55
   4  -4  -5   42.90    0.55
   4   4   5   42.60    0.57
   4  -4   5   42.17    0.56
  -4  -4  -5   42.30    0.53
  -4  -4  -5   42.55    0.52
  -4   4   5   42.86    0.54
  -4  -4  -5   43.37    0.53
  -4  -4   6    3.92    0.15
   4  -4  -6    3.96    0.15
  -4   4  -6    3.98    0.15
   4  -4  -6    4.11    0.15
   4   4   6    4.14    0.17
  -4  -4  -6    4.19    0.15
   4  -4   6    3.98    0.17
  -4  -4  -6    4.07    0.14
  -4   4   6    4.17    0.19
  -4  -4  -6    4.18    0.13
   4   4   7    2.85    0.16
   4  -4  -7    3.16    0.15
   4  -4   7    3.12    0.17
  -4  -4  -7    2.76    0.14
   4  -5   0    9.38    0.17
   4  -5   0    9.59    0.18
   4  -5   0    9.45    0.18
  -4  -5   0    9.45    0.16
   4  -5   0    9.31    0.17
  -4  -5   0    9.54    0.15
   4  -5  -1   26.20    0.35
   4  -5  -1   25.65    0.33
   4  -5  -1   26.55    0.34
  -4  -5   1   26.25    0.30
   4  -5  -1   26.47    0.31
  -4  -5   1   25.94    0.31
  -4  -5   1   26.11    0.34
  -4  -5  -1   26.13    0.32
  -4  -5  -1   26.28    0.33
   4  -5   1   26.09    0.33
   4  -5   1   25.85    0.34
  -4  -5   2   41.09    0.44
   4  -5  -2   41.41    0.48
   4  -5  -2   40.30    0.46
   4  -5  -2   42.45    0.50
  -4  -5   2   40.70    0.49
  -4  -5  -2   41.09    0.48
  -4  -5  -2   40.90    0.43
   4  -5   2   40.85    0.47
   4  -5   2   40.65    0.49
  -4  -5  -2   40.77    0.47
  -4  -5   3    6.24    0.15
   4  -5  -3    6.25    0.14
   4  -5  -3    6.40    0.15
   4  -5  -3    6.23    0.14
   4   5   3    6.49    0.17
  -4  -5  -3    6.28    0.15
   4  -5   3    6.39    0.14
  -4  -5  -3    6.45    0.15
   4  -5   3    6.28    0.16
  -4  -5  -3    6.40    0.13
   4  -5  -4   81.09    0.87
   4   5   4   79.76    0.92
   4  -5  -4   81.10    0.90
  -4   5  -4   80.20    0.89
  -4  -5   4   79.86    0.89
   4  -5  -4   80.74    0.86
   4  -5   4   81.09    0.91
  -4  -5  -4   80.67    0.85
  -4  -5  -4   80.58    0.87
  -4  -5  -4   80.77    0.88
   4   5   5    4.92    0.17
   4  -5  -5    4.83    0.13
   4  -5  -5    5.16    0.16
  -4  -5   5    5.09    0.16
   4  -5  -5    5.01    0.15
  -4  -5  -5    5.05    0.14
  -4  -5  -5    4.80    0.15
  -4   5   5    4.95    0.15
   4  -5   5    5.03    0.17
  -4  -5  -5    4.97    0.15
   4  -5  -6   39.40    0.55
   4   5   6   39.17    0.58
   4  -5  -6   38.58    0.53
  -4  -5   6   38.28    0.54
  -4  -5  -6   38.56    0.52
   4  -5   6   37.98    0.56
  -4  -5  -6   38.52    0.51
  -4  -5  -6   37.64    0.52
   4  -5  -7    3.56    0.16
   4   5   7    3.16    0.18
  -4  -5  -7    3.31    0.15
   4  -5   7    3.38    0.18
   4  -6   0   11.89    0.21
   4  -6   0   12.12    0.21
  -4  -6   0   11.77    0.18
  -4  -6   0   12.00    0.20
   4  -6  -1    6.59    0.15
   4  -6  -1    6.58    0.13
  -4  -6   1    6.45    0.13
  -4  -6   1    6.39    0.15
   4  -6  -1    6.45    0.15
   4  -6  -1    6.45    0.15
  -4  -6  -1    6.57    0.15
  -4  -6  -1    6.41    0.13
   4  -6   1    6.51    0.15
   4  -6   1    6.71    0.15
  -4  -6   2    0.73    0.07
   4  -6  -2    0.78    0.06
   4  -6  -2    0.73    0.07
   4  -6  -2    0.55    0.06
  -4  -6  -2    0.59    0.06
   4  -6   2    0.64    0.06
   4  -6   2    0.69    0.07
  -4  -6  -2    0.64    0.06
   4  -6  -3   11.70    0.21
   4  -6  -3   11.54    0.23
  -4  -6   3   11.68    0.23
   4  -6  -3   11.83    0.22
  -4  -6  -3   11.40    0.21
  -4  -6  -3   11.67    0.22
   4  -6   3   11.31    0.23
   4  -6   3   11.40    0.20
  -4  -6  -3   11.70    0.18
  -4  -6   4    9.26    0.21
   4   6   4    9.41    0.23
   4  -6  -4    9.23    0.21
   4  -6  -4    9.31    0.20
   4  -6  -4    9.54    0.20
   4  -6   4    9.37    0.22
  -4  -6  -4    9.24    0.18
  -4  -6  -4    9.07    0.20
  -4  -6  -4    9.44    0.20
   4   6   5    6.52    0.20
   4  -6  -5    6.65    0.19
   4  -6  -5    6.82    0.18
  -4  -6   5    6.61    0.19
   4  -6  -5    6.90    0.17
  -4  -6  -5    6.93    0.17
   4  -6   5    6.40    0.20
  -4  -6  -5    6.78    0.18
  -4  -6  -5    6.76    0.18
  -4  -6   6   14.65    0.36
   4  -6  -6   14.88    0.29
   4   6   6   14.10    0.32
  -4  -6  -6   14.44    0.28
  -4  -6  -6   14.42    0.29
   4  -6   6   14.18    0.32
  -4  -6  -6   14.30    0.28
   4  -6  -7    0.17    0.07
   4   6   7    0.12    0.07
   4  -6   7    0.01    0.07
  -4  -6  -7    0.07    0.06
  -4  -7   0   25.41    0.38
  -4  -7   0   25.67    0.35
   4  -7   0   24.87    0.36
   4  -7   0   25.83    0.36
   4  -7  -1   38.46    0.49
  -4  -7   1   38.36    0.46
   4  -7  -1   38.24    0.49
   4  -7  -1   39.12    0.49
  -4  -7   1   38.22    0.51
   4  -7   1   38.71    0.49
  -4  -7  -1   38.70    0.48
  -4  -7  -1   39.21    0.46
   4  -7   1   38.76    0.50
   4  -7  -2    8.50    0.19
  -4  -7   2    8.41    0.20
   4  -7  -2    8.28    0.19
   4  -7  -2    7.90    0.22
  -4  -7  -2    8.51    0.17
  -4  -7  -2    8.11    0.19
   4  -7   2    8.58    0.18
   4  -7   2    8.15    0.20
  -4  -7   3   19.93    0.34
   4  -7  -3   19.63    0.33
   4  -7  -3   19.79    0.30
   4  -7  -3   20.22    0.32
  -4  -7  -3   19.60    0.31
  -4  -7  -3   20.35    0.32
   4  -7   3   19.62    0.30
   4  -7   3   20.45    0.34
   4  -7  -4    1.78    0.11
   4  -7  -4    1.83    0.11
   4  -7  -4    1.96    0.11
  -4  -7   4    1.96    0.12
  -4  -7  -4    2.08    0.11
   4  -7   4    2.09    0.13
  -4  -7  -4    2.06    0.11
   4  -7  -5    6.57    0.18
   4   7   5    6.12    0.21
  -4  -7   5    6.05    0.20
   4  -7  -5    5.73    0.22
   4  -7  -5    6.03    0.18
  -4  -7  -5    6.12    0.18
   4  -7   5    6.10    0.21
  -4  -7  -5    6.40    0.19
   4   7   6    7.85    0.25
   4  -7  -6    8.15    0.22
  -4  -7  -6    7.95    0.22
  -4  -7  -6    8.37    0.22
   4  -7   6    7.92    0.25
   4  -8   0   13.90    0.27
  -4  -8   0   14.47    0.28
  -4  -8   0   14.49    0.25
   4  -8   0   14.42    0.26
   4  -8  -1    2.53    0.12
  -4  -8   1    2.30    0.12
   4  -8  -1    2.47    0.12
  -4  -8   1    2.52    0.10
   4  -8  -1    2.65    0.11
  -4  -8  -1    2.44    0.11
   4  -8   1    2.34    0.12
   4  -8   1    2.64    0.12
  -4  -8   2    2.75    0.14
   4  -8  -2    2.86    0.13
   4  -8  -2    3.01    0.13
   4  -8  -2    2.71    0.12
   4  -8   2    2.66    0.13
  -4  -8  -2    2.64    0.11
   4  -8   2    2.81    0.12
  -4  -8  -2    2.73    0.12
  -4  -8   3    8.24    0.22
   4  -8  -3    8.12    0.20
   4  -8  -3    8.19    0.20
   4  -8   3    8.48    0.22
  -4  -8  -3    7.90    0.20
  -4  -8  -3    8.29    0.19
  -4  -8   4    2.00    0.13
   4  -8  -4    2.67    0.13
   4  -8  -4    2.70    0.12
   4  -8  -4    2.11    0.12
  -4  -8  -4    2.25    0.12
  -4  -8  -4    2.26    0.13
   4  -8   4    2.37    0.14
   4  -8  -5    7.23    0.21
  -4  -8   5    7.39    0.23
   4  -8  -5    7.59    0.21
  -4  -8  -5    7.47    0.21
  -4  -8  -5    7.96    0.21
   4  -8   5    7.76    0.24
  -4  -9   0    2.43    0.12
  -4  -9   0    2.52    0.14
   4  -9   0    2.69    0.13
   4  -9   0    2.34    0.13
   4  -9  -1    8.99    0.22
   4  -9  -1    8.24    0.21
  -4  -9   1    8.55    0.23
  -4  -9   1    8.47    0.20
  -4  -9  -1    8.62    0.23
   4  -9   1    8.38    0.21
   4  -9   1    8.94    0.23
  -4  -9  -1    8.71    0.21
   4  -9  -2   11.21    0.23
   4  -9  -2   10.91    0.25
  -4  -9   2   11.24    0.27
   4  -9  -2   11.31    0.25
   4  -9   2   11.04    0.24
   4  -9   2   11.49    0.27
  -4  -9  -2   11.27    0.25
  -4  -9   3    2.94    0.16
   4  -9  -3    3.46    0.15
   4  -9  -3    3.48    0.15
   4  -9   3    3.87    0.17
  -4  -9  -3    3.39    0.15
  -4  -9  -3    3.26    0.14
   4  -9  -4   26.16    0.43
  -4  -9   4   24.98    0.45
  -4  -9  -4   26.17    0.41
  -4  -9  -4   26.71    0.44
   4  -9   4   26.49    0.46
  -4 -10   0   18.57    0.37
   4 -10   0   18.71    0.36
   4 -10   0   18.70    0.35
  -4 -10   0   18.82    0.33
   4 -10  -1   10.40    0.26
  -4 -10   1   10.55    0.27
   4 -10  -1   10.62    0.25
   4 -10   1   10.90    0.27
   4 -10   1   10.28    0.24
  -4 -10  -1   10.44    0.25
  -4 -10  -1   10.68    0.27
   4 -10  -2    6.74    0.21
  -4 -10   2    6.84    0.23
   4 -10  -2    6.89    0.22
   4 -10   2    7.47    0.23
  -4 -10  -2    7.45    0.21
   4 -10   2    7.00    0.20
   4 -10  -3   12.44    0.29
  -4 -10   3   11.90    0.30
   4 -10  -3   11.78    0.28
  -4 -10  -3   12.30    0.28
   4 -10   3   12.05    0.30
   4 -11   0    3.11    0.16
   4 -11   0    3.00    0.17
  -4 -11   0    2.69    0.17
  -4 -11   0    2.95    0.15
   5   0   0    0.08    0.02
   5   0   0   -0.02    0.02
   5   0   0    0.08    0.02
   5   0  -1   45.47    0.46
   5   0  -1   44.83    0.47
   5   0  -1   45.53    0.47
   5   0   1   45.64    0.48
   5   0   1   45.82    0.46
   5   0  -2   75.72    0.76
  -5   0  -2   75.41    0.77
   5   0   2   75.91    0.77
  -5   0  -2   75.13    0.74
   5   0  -2   75.63    0.73
   5   0  -2   75.25    0.76
   5   0   2   75.99    0.77
   5   0  -3   86.03    0.88
   5   0  -3   86.37    0.87
  -5   0   3   86.07    0.84
   5   0   3   86.58    0.87
  -5   0  -3   85.50    0.85
  -5   0  -3   86.13    0.88
   5   0   3   85.19    0.89
   5   0  -4   59.94    0.66
   5   0   4   59.21    0.64
  -5   0  -4   59.59    0.67
  -5   0  -4   59.80    0.63
  -5   0   4   59.91    0.63
   5   0   4   58.87    0.67
   5   0  -4   59.37    0.65
  -5   0  -5   15.99    0.27
   5   0  -5   16.62    0.27
   5   0  -5   16.27    0.26
  -5   0  -5   15.64    0.24
   5   0  -6   27.46    0.41
  -5   0  -6   26.89    0.36
   5   0  -6   27.05    0.38
   5   0   6   27.07    0.42
  -5   0  -6   27.21    0.41
   5   0   7    3.86    0.17
   5   0  -7    3.81    0.14
  -5   0  -7    4.02    0.16
   5   0  -8   12.04    0.26
   5   0   8   11.43    0.30
   5  -1   0    0.01    0.02
   5  -1   0    0.01    0.02
   5  -1   0    0.05    0.03
   5   1   0    0.05    0.02
   5   1   0    0.04    0.02
   5   1   1    8.94    0.13
   5  -1  -1    8.79    0.13
   5   1   1    8.65    0.14
   5  -1  -1    8.96    0.13
   5  -1  -1    8.68    0.14
   5   1  -1    9.01    0.12
   5   1  -1    8.65    0.12
   5  -1   1    9.06    0.13
   5   1  -1    9.03    0.14
   5  -1   1    9.03    0.14
  -5  -1  -1    8.89    0.12
   5  -1  -2    0.18    0.02
   5   1   2    0.12    0.03
   5  -1  -2    0.17    0.03
  -5   1  -2    0.16    0.02
   5  -1  -2    0.16    0.03
   5   1   2    0.15    0.03
  -5  -1  -2    0.15    0.03
   5   1  -2    0.17    0.03
   5  -1   2    0.18    0.03
   5   1  -2    0.22    0.03
   5  -1   2    0.15    0.03
  -5  -1  -2    0.18    0.03
  -5  -1   3   24.91    0.28
   5   1   3   24.71    0.33
   5  -1  -3   24.56    0.27
   5  -1  -3   24.90    0.32
  -5   1  -3   25.21    0.28
   5   1   3   24.25    0.31
   5  -1  -3   24.89    0.31
  -5  -1  -3   24.66    0.30
   5  -1   3   24.50    0.31
   5   1  -3   24.99    0.30
  -5   1   3   24.84    0.28
   5   1  -3   24.54    0.30
  -5  -1  -3   24.55    0.31
   5  -1   3   24.70    0.32
  -5   1  -4    3.00    0.11
   5  -1  -4    3.12    0.10
  -5  -1   4    3.08    0.09
   5   1   4    2.99    0.11
  -5   1  -4    2.89    0.08
   5  -1  -4    3.21    0.10
  -5  -1  -4    2.94    0.09
   5  -1   4    2.94    0.11
  -5   1   4    2.92    0.09
   5  -1   4    2.99    0.09
  -5  -1  -4    2.95    0.10
   5   1  -4    3.00    0.09
   5   1  -4    3.09    0.10
  -5   1  -5   11.30    0.19
   5  -1  -5   11.00    0.21
  -5   1  -5   11.33    0.22
   5  -1  -5   11.23    0.22
   5   1   5   11.47    0.23
  -5  -1  -5   11.30    0.20
   5   1  -5   11.44    0.21
   5  -1   5   11.32    0.23
  -5  -1  -5   11.23    0.22
   5   1  -5   11.42    0.20
  -5   1  -6    9.32    0.22
   5  -1  -6   10.05    0.21
   5  -1  -6    9.98    0.22
   5   1   6    9.81    0.24
   5   1  -6    9.63    0.19
  -5  -1  -6    9.96    0.22
  -5  -1  -6    9.81    0.19
   5  -1   6    9.58    0.23
   5   1   7    2.90    0.15
   5  -1  -7    3.07    0.14
   5  -1  -7    3.11    0.13
  -5   1  -7    2.98    0.14
   5   1  -7    3.05    0.12
  -5  -1  -7    3.00    0.14
  -5  -1  -7    2.85    0.12
   5  -1   7    2.94    0.16
   5  -1  -8    2.28    0.13
   5   1   8    2.56    0.17
   5  -1   8    2.14    0.16
   5  -2   0   -0.04    0.02
   5  -2   0    0.03    0.03
   5   2   0    0.02    0.01
   5  -2   0    0.06    0.02
   5   2   0    0.00    0.02
   5  -2   0   -0.01    0.02
   5  -2  -1   30.97    0.34
   5   2   1   30.50    0.35
   5  -2  -1   31.98    0.37
   5   2   1   30.43    0.35
   5  -2  -1   31.29    0.35
  -5  -2   1   31.50    0.35
  -5  -2  -1   31.41    0.32
   5  -2   1   31.00    0.34
   5   2  -1   30.70    0.32
   5  -2   1   30.82    0.35
  -5  -2  -1   31.34    0.35
   5  -2  -2    0.78    0.05
  -5  -2   2    0.76    0.04
   5  -2  -2    0.75    0.05
   5  -2  -2    0.78    0.04
   5   2   2    0.74    0.05
  -5   2  -2    0.81    0.03
  -5  -2  -2    0.84    0.05
   5   2  -2    0.80    0.04
   5  -2   2    0.84    0.05
   5  -2   2    0.86    0.05
  -5  -2  -2    0.75    0.04
   5   2  -2    0.82    0.05
   5  -2  -3   81.58    0.84
  -5  -2   3   82.22    0.82
  -5   2  -3   82.61    0.79
   5  -2  -3   83.13    0.82
   5   2   3   82.08    0.86
  -5   2  -3   82.89    0.86
   5  -2  -3   81.51    0.86
   5  -2   3   81.21    0.84
   5   2  -3   82.29    0.82
   5   2  -3   81.44    0.83
  -5  -2  -3   81.77    0.84
  -5   2   3   82.00    0.82
   5  -2   3   80.89    0.86
  -5  -2  -3   81.65    0.84
   5  -2  -4    1.49    0.08
   5  -2  -4    1.47    0.08
  -5  -2   4    1.50    0.07
   5   2   4    1.40    0.09
  -5   2  -4    1.47    0.08
   5  -2   4    1.48    0.07
  -5  -2  -4    1.44    0.08
  -5   2   4    1.56    0.07
  -5  -2  -4    1.43    0.08
   5  -2   4    1.56    0.09
   5   2  -4    1.49    0.07
   5   2   5    5.22    0.16
  -5   2  -5    4.97    0.15
   5  -2  -5    5.26    0.14
   5  -2  -5    5.23    0.15
   5   2  -5    5.05    0.12
  -5  -2  -5    4.84    0.14
  -5  -2  -5    5.02    0.13
   5  -2   5    5.08    0.16
   5  -2  -6    6.55    0.17
   5   2   6    6.37    0.20
   5  -2  -6    6.44    0.18
  -5   2  -6    6.58    0.18
  -5  -2  -6    6.33    0.16
   5   2  -6    6.29    0.15
  -5  -2  -6    6.47    0.18
   5  -2   6    6.36    0.19
   5  -2  -7    7.70    0.22
   5  -2  -7    7.93    0.20
   5   2   7    7.99    0.23
  -5   2  -7    7.88    0.22
  -5  -2  -7    7.94    0.19
   5  -2   7    7.75    0.23
   5  -2  -8    4.91    0.17
   5   2   8    4.86    0.21
  -5  -2  -8    4.63    0.16
   5  -2   8    4.65    0.21
   5  -3   0    0.00    0.02
   5  -3   0    0.18    0.03
   5  -3   0    0.00    0.02
   5  -3   0   -0.02    0.03
  -5  -3   1    0.09    0.03
   5  -3  -1    0.11    0.03
   5   3   1    0.12    0.03
   5  -3  -1    0.25    0.04
   5  -3  -1    0.12    0.02
   5  -3  -1    0.16    0.03
   5  -3   1    0.09    0.03
   5  -3   1    0.17    0.03
  -5  -3  -1    0.12    0.02
  -5  -3  -1    0.11    0.03
  -5  -3   2    0.14    0.03
   5  -3  -2    0.22    0.03
   5  -3  -2    0.14    0.03
   5  -3  -2    0.17    0.04
   5   3   2    0.14    0.04
   5   3  -2    0.18    0.03
   5  -3   2    0.17    0.03
  -5  -3  -2    0.16    0.02
   5  -3   2    0.19    0.03
  -5  -3  -2    0.14    0.03
   5  -3  -3    0.27    0.04
   5  -3  -3    0.31    0.05
   5   3   3    0.17    0.04
   5  -3  -3    0.34    0.04
  -5  -3   3    0.49    0.05
  -5  -3  -3    0.17    0.04
  -5  -3  -3    0.21    0.03
   5  -3   3    0.24    0.04
  -5   3   3    0.27    0.04
   5  -3   3    0.28    0.05
   5   3  -3    0.22    0.03
   5  -3  -4    7.43    0.16
  -5   3  -4    7.57    0.17
  -5  -3   4    7.28    0.15
   5   3   4    7.67    0.18
   5  -3  -4    7.54    0.17
   5  -3  -4    7.51    0.14
  -5  -3  -4    7.43    0.16
   5   3  -4    7.38    0.14
  -5  -3  -4    7.56    0.16
  -5   3   4    7.29    0.15
   5  -3   4    7.41    0.15
   5  -3   4    7.48    0.18
  -5   3  -5    0.33    0.06
   5  -3  -5    0.25    0.05
   5   3   5    0.44    0.07
   5  -3  -5    0.38    0.06
   5  -3   5    0.23    0.06
  -5  -3  -5    0.42    0.06
   5   3  -5    0.42    0.06
  -5  -3  -5    0.38    0.06
  -5   3  -6   11.04    0.24
   5   3   6   11.47    0.26
   5  -3  -6   11.61    0.24
   5  -3  -6   11.01    0.25
  -5  -3  -6   10.84    0.24
   5  -3   6   10.96    0.26
  -5  -3  -6   11.20    0.23
   5   3   7    1.78    0.14
   5  -3  -7    1.82    0.12
  -5   3  -7    1.80    0.12
   5  -3   7    1.57    0.13
  -5  -3  -7    1.67    0.11
   5  -4   0   -0.03    0.03
   5  -4   0    0.02    0.03
  -5  -4   0   -0.02    0.02
   5  -4   0    0.04    0.02
   5  -4   0    0.02    0.03
   5  -4  -1   21.14    0.29
   5  -4  -1   20.98    0.25
   5  -4  -1   20.37    0.26
  -5  -4   1   20.45    0.27
  -5  -4   1   20.34    0.25
   5  -4  -1   20.61    0.28
   5  -4   1   20.43    0.27
  -5  -4  -1   20.67    0.26
   5  -4   1   20.44    0.28
   5  -4  -2   25.07    0.31
  -5  -4   2   24.83    0.28
   5  -4  -2   25.21    0.32
   5   4   2   25.15    0.34
  -5  -4   2   25.24    0.32
   5  -4  -2   25.42    0.34
  -5  -4  -2   24.83    0.28
   5  -4   2   25.29    0.32
   5  -4   2   25.61    0.33
  -5  -4  -2   24.68    0.32
   5  -4  -3   51.86    0.58
   5  -4  -3   52.86    0.61
   5  -4  -3   51.98    0.58
  -5  -4   3   52.21    0.58
   5   4   3   50.71    0.61
  -5  -4  -3   52.08    0.59
   5  -4   3   52.19    0.58
   5  -4   3   53.36    0.61
  -5  -4  -3   51.67    0.56
   5   4  -3   52.61    0.56
   5  -4  -4   22.10    0.32
   5   4   4   22.49    0.35
   5  -4  -4   22.31    0.34
  -5  -4   4   22.41    0.32
  -5   4  -4   22.87    0.34
   5  -4  -4   22.18    0.30
   5  -4   4   22.68    0.35
   5  -4   4   22.97    0.31
  -5  -4  -4   22.84    0.31
  -5   4   4   23.18    0.32
  -5  -4  -4   22.14    0.32
  -5   4  -5    8.98    0.21
   5  -4  -5    8.84    0.20
   5  -4  -5    8.73    0.21
   5   4   5    8.72    0.22
  -5  -4  -5    8.83    0.19
   5  -4   5    8.71    0.21
  -5  -4  -5    8.85    0.19
   5  -4  -6    8.46    0.21
  -5   4  -6    8.65    0.22
   5   4   6    8.41    0.24
   5  -4  -6    8.78    0.22
  -5  -4  -6    8.53    0.20
   5  -4   6    8.83    0.24
  -5  -4  -6    8.57    0.21
  -5  -4  -6    8.53    0.19
   5  -4  -7    4.10    0.16
   5   4   7    3.79    0.18
   5  -4   7    3.90    0.18
  -5  -4  -7    3.96    0.16
  -5  -5   0    0.04    0.03
   5  -5   0   -0.01    0.03
  -5  -5   0   -0.01    0.03
   5  -5   0   -0.01    0.04
   5  -5   0    0.00    0.03
   5  -5  -1   10.99    0.20
   5  -5  -1   10.76    0.18
  -5  -5   1   11.08    0.17
   5  -5  -1   11.05    0.19
  -5  -5   1   10.84    0.17
  -5  -5   1   10.56    0.19
   5  -5  -1   10.97    0.17
   5  -5   1   11.08    0.19
   5  -5   1   10.79    0.19
  -5  -5  -1   10.69    0.19
  -5  -5  -1   10.71    0.18
   5  -5  -2    0.03    0.03
   5  -5  -2    0.07    0.04
   5  -5  -2    0.08    0.04
  -5  -5   2    0.06    0.04
   5  -5   2    0.16    0.04
  -5  -5  -2    0.14    0.04
  -5  -5  -2    0.09    0.04
  -5  -5  -2    0.11    0.03
   5  -5   2    0.13    0.04
  -5  -5   3   39.20    0.48
   5  -5  -3   38.28    0.50
   5  -5  -3   38.87    0.47
   5   5   3   39.98    0.51
   5  -5  -3   38.90    0.47
  -5  -5  -3   38.55    0.47
  -5  -5  -3   39.36    0.48
   5  -5   3   40.13    0.50
   5  -5   3   38.83    0.47
  -5  -5  -3   38.42    0.43
   5  -5  -4    0.64    0.06
   5  -5  -4    0.59    0.06
  -5  -5   4    0.78    0.07
   5  -5  -4    0.55    0.07
  -5   5  -4    0.67    0.07
   5   5   4    0.62    0.08
  -5  -5  -4    0.67    0.06
  -5  -5  -4    0.48    0.06
  -5  -5  -4    0.50    0.06
   5  -5   4    0.56    0.07
  -5   5  -5   25.23    0.47
   5  -5  -5   24.88    0.39
   5   5   5   24.88    0.41
   5  -5  -5   24.87    0.38
  -5  -5  -5   24.45    0.36
  -5  -5  -5   24.64    0.37
   5  -5   5   25.01    0.40
  -5  -5  -5   24.67    0.37
   5   5   6    4.75    0.19
   5  -5  -6    4.67    0.18
   5  -5  -6    4.80    0.17
  -5  -5  -6    4.50    0.16
  -5  -5  -6    4.72    0.16
   5  -5   6    4.46    0.18
  -5  -5  -6    4.49    0.15
   5   5   7   10.47    0.29
   5  -5  -7   10.75    0.26
   5  -5   7   10.75    0.29
  -5  -5  -7   10.89    0.26
   5  -6   0    0.04    0.04
  -5  -6   0   -0.07    0.03
   5  -6   0    0.05    0.04
  -5  -6   0    0.02    0.03
  -5  -6   1   14.02    0.20
  -5  -6   1   13.99    0.21
   5  -6  -1   13.83    0.23
   5  -6  -1   14.51    0.25
  -5  -6   1   13.46    0.24
   5  -6  -1   13.84    0.24
  -5  -6  -1   14.18    0.23
   5  -6   1   14.34    0.24
   5  -6   1   13.63    0.24
  -5  -6  -1   13.94    0.22
   5  -6  -2    2.93    0.09
   5  -6  -2    3.07    0.11
  -5  -6   2    2.90    0.11
   5  -6  -2    2.84    0.12
   5  -6   2    2.62    0.10
  -5  -6  -2    2.77    0.11
   5  -6   2    2.82    0.11
  -5  -6  -2    3.01    0.10
   5  -6  -3   39.01    0.51
   5  -6  -3   39.32    0.48
  -5  -6   3   38.57    0.50
   5  -6  -3   39.55    0.49
  -5  -6  -3   39.84    0.50
  -5  -6  -3   39.42    0.49
   5  -6   3   39.45    0.52
   5  -6   3   39.79    0.49
   5  -6  -4    2.25    0.10
   5  -6  -4    2.34    0.12
   5  -6  -4    2.32    0.11
   5   6   4    2.23    0.12
  -5  -6   4    2.51    0.12
   5  -6   4    2.29    0.12
  -5  -6  -4    2.36    0.11
  -5  -6  -4    2.33    0.11
  -5  -6  -4    2.29    0.10
   5  -6  -5    4.20    0.16
   5  -6  -5    4.09    0.14
   5   6   5    3.98    0.17
   5  -6  -5    4.02    0.15
  -5  -6  -5    4.23    0.15
  -5  -6  -5    4.15    0.13
  -5  -6  -5    3.96    0.14
   5  -6   5    4.14    0.17
   5  -6  -6   -0.01    0.05
   5   6   6    0.15    0.07
  -5  -6  -6    0.08    0.06
   5  -6   6    0.04    0.07
  -5  -6  -6    0.09    0.05
  -5  -6  -6    0.03    0.06
  -5  -7   0    0.05    0.04
  -5  -7   0    0.03    0.03
   5  -7   0    0.00    0.04
   5  -7   0    0.03    0.04
  -5  -7   0    0.06    0.05
   5  -7  -1    0.02    0.04
  -5  -7   1    0.01    0.03
   5  -7  -1   -0.02    0.04
  -5  -7   1    0.00    0.04
   5  -7  -1    0.06    0.04
   5  -7   1    0.03    0.04
   5  -7   1    0.01    0.04
  -5  -7  -1    0.03    0.04
  -5  -7  -1    0.05    0.04
   5  -7  -2    0.19    0.05
   5  -7  -2    0.14    0.05
  -5  -7   2    0.21    0.06
   5  -7  -2    0.17    0.05
   5  -7   2    0.22    0.05
  -5  -7  -2    0.11    0.05
  -5  -7  -2    0.19    0.05
   5  -7   2    0.29    0.06
  -5  -7   3    0.43    0.07
   5  -7  -3    0.30    0.06
   5  -7  -3    0.29    0.06
   5  -7  -3    0.30    0.05
   5  -7   3    0.36    0.06
  -5  -7  -3    0.43    0.06
  -5  -7  -3    0.41    0.06
   5  -7   3    0.37    0.07
  -5  -7   4    2.44    0.13
   5  -7  -4    2.69    0.12
   5  -7  -4    2.58    0.13
   5  -7  -4    2.77    0.12
  -5  -7  -4    2.50    0.12
  -5  -7  -4    2.62    0.12
   5  -7   4    2.44    0.14
   5  -7  -5    1.47    0.11
   5   7   5    1.51    0.13
   5  -7  -5    1.78    0.11
  -5  -7  -5    1.62    0.11
  -5  -7  -5    1.56    0.11
   5  -7   5    1.60    0.13
   5   7   6    5.43    0.21
   5  -7  -6    5.14    0.18
  -5  -7  -6    5.38    0.18
   5  -7   6    5.22    0.21
  -5  -7  -6    5.27    0.19
  -5  -8   0   -0.04    0.04
   5  -8   0    0.01    0.04
  -5  -8   0   -0.03    0.05
   5  -8   0    0.01    0.05
   5  -8  -1    5.96    0.17
  -5  -8   1    5.94    0.15
  -5  -8   1    5.82    0.18
   5  -8  -1    5.86    0.17
   5  -8  -1    6.08    0.17
   5  -8   1    6.14    0.17
  -5  -8  -1    6.17    0.17
   5  -8   1    6.19    0.18
   5  -8  -2    1.19    0.09
   5  -8  -2    1.14    0.09
   5  -8  -2    1.25    0.10
  -5  -8   2    1.10    0.10
  -5  -8  -2    1.25    0.09
   5  -8   2    1.11    0.10
   5  -8   2    1.27    0.09
  -5  -8  -2    1.05    0.09
  -5  -8   3   16.94    0.33
   5  -8  -3   17.99    0.32
   5  -8  -3   18.61    0.33
   5  -8   3   18.34    0.34
   5  -8   3   17.10    0.40
  -5  -8  -3   17.50    0.32
  -5  -8  -3   18.35    0.30
   5  -8  -4    0.63    0.08
  -5  -8   4    0.52    0.08
   5  -8  -4    0.74    0.08
   5  -8   4    0.65    0.09
  -5  -8  -4    0.62    0.08
  -5  -8  -4    0.63    0.08
   5  -8  -5    1.92    0.13
   5  -8  -5    1.81    0.12
  -5  -8  -5    2.04    0.13
   5  -8   5    2.10    0.15
  -5  -8  -5    1.98    0.13
  -5  -9   0    0.04    0.06
  -5  -9   0    0.02    0.05
   5  -9   0    0.00    0.05
   5  -9   0    0.02    0.05
   5  -9  -1    2.57    0.13
  -5  -9   1    2.41    0.14
   5  -9  -1    2.58    0.13
  -5  -9  -1    2.59    0.13
  -5  -9  -1    2.47    0.14
   5  -9   1    2.59    0.13
   5  -9   1    2.62    0.14
   5  -9  -2    0.01    0.05
  -5  -9   2    0.03    0.06
   5  -9  -2    0.01    0.05
   5  -9  -2    0.05    0.06
   5  -9   2    0.00    0.06
  -5  -9  -2    0.03    0.05
   5  -9   2    0.02    0.05
  -5  -9   3   10.23    0.27
   5  -9  -3   10.59    0.25
   5  -9  -3   10.78    0.25
   5  -9   3   10.43    0.27
  -5  -9  -3   10.43    0.25
  -5  -9  -3   10.70    0.23
  -5  -9   4    0.44    0.09
   5  -9  -4    0.52    0.08
  -5  -9  -4    0.40    0.08
  -5  -9  -4    0.47    0.08
   5  -9   4    0.56    0.09
   5 -10   0    0.00    0.06
  -5 -10   0    0.00    0.05
  -5 -10   0    0.02    0.06
   5 -10   0    0.02    0.06
   5 -10  -1    3.90    0.17
   5 -10  -1    3.55    0.16
  -5 -10   1    3.55    0.18
   5 -10   1    3.74    0.17
   5 -10   1    3.72    0.16
  -5 -10  -1    3.82    0.16
  -5 -10  -1    3.67    0.18
   5 -10  -2    4.07    0.17
  -5 -10   2    3.85    0.18
   5 -10  -2    4.23    0.17
  -5 -10  -2    4.20    0.17
   5 -10   2    3.90    0.18
   5 -10   2    3.90    0.16
   5 -10  -3   10.53    0.26
   5 -10  -3   10.56    0.27
  -5 -10   3   10.62    0.29
   5 -10   3   11.07    0.29
  -5 -10  -3   10.83    0.27
   6   0   0    3.92    0.09
   6   0   0    4.11    0.09
   6   0   1   78.07    0.79
   6   0  -1   77.60    0.78
   6   0   1   78.48    0.77
   6   0  -1   78.15    0.77
   6   0  -1   78.83    0.79
   6   0   2    0.05    0.03
   6   0  -2    0.00    0.02
  -6   0  -2    0.00    0.02
   6   0  -2   -0.01    0.02
  -6   0  -2    0.04    0.03
   6   0   2    0.02    0.03
   6   0  -2    0.02    0.02
   6   0   3   44.56    0.50
  -6   0  -3   43.96    0.48
   6   0   3   44.00    0.51
   6   0  -3   45.29    0.50
   6   0  -3   44.25    0.50
  -6   0  -3   44.50    0.51
   6   0  -4   36.74    0.44
  -6   0  -4   37.19    0.46
   6   0   4   35.74    0.44
  -6   0  -4   36.61    0.42
   6   0   4   36.14    0.46
   6   0  -4   36.01    0.45
  -6   0  -5   27.91    0.36
   6   0   5   28.03    0.41
   6   0  -5   27.56    0.39
   6   0   5   28.17    0.37
  -6   0  -5   28.02    0.40
   6   0  -5   27.95    0.38
   6   0  -6   38.68    0.52
  -6   0  -6   39.52    0.54
   6   0   6   39.51    0.55
   6   0  -6   39.37    0.51
  -6   0  -6   38.97    0.48
   6   0   7   10.18    0.27
  -6   0  -7   10.18    0.30
   6   0  -7   10.27    0.23
   6   0  -8    2.42    0.13
   6   0   8    2.41    0.16
   6   1   0  119.73    1.16
   6   1   0  120.97    1.15
   6  -1   0  121.01    1.16
   6  -1   0  121.30    1.17
   6  -1   0  118.31    1.18
   6   1   1    3.84    0.09
   6  -1  -1    3.76    0.09
   6   1   1    3.77    0.08
   6  -1  -1    3.89    0.09
   6  -1  -1    3.90    0.08
   6   1  -1    3.84    0.08
   6  -1   1    3.78    0.08
   6   1  -1    3.89    0.08
   6  -1   1    3.84    0.09
   6   1  -1    3.90    0.09
  -6  -1  -1    3.81    0.08
   6   1   2   56.35    0.60
   6  -1  -2   55.71    0.59
   6  -1  -2   55.21    0.60
   6   1   2   56.36    0.59
  -6   1  -2   55.90    0.57
   6  -1  -2   56.23    0.57
   6  -1   2   55.98    0.60
   6   1  -2   55.69    0.59
   6  -1   2   55.72    0.59
   6   1  -2   56.10    0.58
  -6  -1  -2   56.58    0.59
  -6  -1  -2   55.58    0.58
   6   1  -2   55.83    0.56
   6  -1  -3    0.38    0.05
   6  -1  -3    0.20    0.03
   6   1   3    0.21    0.04
  -6   1  -3    0.22    0.03
   6  -1  -3    0.21    0.04
   6   1   3    0.21    0.04
  -6   1  -3    0.22    0.04
  -6  -1  -3    0.17    0.03
   6  -1   3    0.23    0.04
   6  -1   3    0.16    0.03
   6   1  -3    0.16    0.03
  -6  -1  -3    0.30    0.04
   6   1  -3    0.22    0.03
   6  -1  -4    5.42    0.14
  -6   1  -4    5.29    0.14
  -6   1  -4    5.37    0.11
   6   1   4    5.57    0.13
   6   1   4    5.33    0.15
   6  -1  -4    5.32    0.13
   6   1  -4    5.39    0.13
   6  -1   4    5.35    0.15
  -6  -1  -4    5.63    0.13
   6  -1   4    5.29    0.13
   6   1  -4    5.36    0.13
  -6  -1  -4    5.52    0.14
   6   1   5    0.25    0.06
   6  -1  -5    0.30    0.05
  -6   1  -5    0.26    0.05
   6  -1  -5    0.23    0.05
  -6  -1  -5    0.28    0.05
   6   1  -5    0.20    0.04
  -6  -1  -5    0.30    0.05
   6  -1   5    0.31    0.05
   6  -1   5    0.25    0.06
   6  -1  -6    0.08    0.04
  -6   1  -6    0.08    0.05
   6  -1  -6    0.08    0.04
   6   1   6    0.08    0.06
  -6  -1  -6    0.06    0.04
   6   1  -6    0.03    0.04
   6  -1   6    0.14    0.06
  -6  -1  -6    0.14    0.05
   6  -1  -7    2.36    0.12
   6  -1  -7    2.23    0.13
  -6   1  -7    2.61    0.14
   6   1   7    2.71    0.15
   6   1  -7    2.62    0.11
  -6  -1  -7    2.55    0.11
   6  -1   7    2.41    0.15
   6  -1  -8    0.17    0.06
   6   1   8    0.17    0.08
   6  -1   8    0.23    0.09
  -6  -2   0  753.06    6.92
   6  -2   0  747.71    7.11
   6   2   0  754.32    7.13
   6   2   0  743.60    7.02
   6  -2   0  742.21    7.01
   6  -2   0  731.77    7.31
   6  -2   0  744.44    7.18
   6  -2  -1   10.21    0.16
   6   2   1   10.43    0.17
  -6  -2   1   10.19    0.12
   6   2   1   10.47    0.16
   6  -2  -1   10.56    0.16
   6  -2  -1   10.73    0.18
   6  -2   1   10.61    0.17
   6  -2   1   10.35    0.15
   6   2  -1   10.66    0.15
   6   2  -1   10.49    0.13
  -6  -2  -1   10.54    0.14
   6  -2  -2  263.64    2.46
   6   2   2  259.27    2.47
   6   2   2  257.04    2.47
   6  -2  -2  256.98    2.45
   6  -2  -2  258.65    2.48
  -6  -2   2  260.74    2.43
  -6   2  -2  261.54    2.43
  -6  -2  -2  256.77    2.49
   6  -2   2  265.73    2.47
   6  -2   2  259.76    2.49
   6   2  -2  261.72    2.45
  -6  -2  -2  263.31    2.49
   6   2  -2  260.02    2.46
  -6   2  -3    0.60    0.04
  -6  -2   3    0.58    0.05
   6  -2  -3    0.55    0.04
  -6   2  -3    0.61    0.06
   6   2   3    0.62    0.06
   6  -2  -3    0.63    0.05
   6  -2  -3    0.56    0.05
   6  -2   3    0.62    0.05
   6   2  -3    0.62    0.05
  -6  -2  -3    0.63    0.05
   6  -2   3    0.61    0.06
  -6  -2  -3    0.59    0.05
   6  -2  -4   11.22    0.21
   6   2   4   11.67    0.22
  -6   2  -4   11.53    0.22
   6  -2  -4   11.28    0.20
   6  -2   4   11.21    0.22
   6   2  -4   10.97    0.19
  -6  -2  -4   11.24    0.20
   6  -2   4   11.60    0.20
  -6  -2  -4   11.14    0.20
   6  -2  -5    0.61    0.07
   6   2   5    0.75    0.08
   6  -2  -5    0.81    0.08
  -6   2  -5    0.54    0.06
   6   2  -5    0.66    0.06
  -6  -2  -5    0.54    0.06
  -6  -2  -5    0.58    0.06
   6  -2   5    0.73    0.08
   6  -2  -6    0.85    0.08
  -6   2  -6    0.86    0.09
   6   2   6    0.86    0.09
   6  -2  -6    0.88    0.09
   6   2  -6    0.76    0.07
   6  -2   6    0.81    0.09
  -6  -2  -6    0.94    0.08
  -6  -2  -6    0.97    0.08
   6   2   7    1.83    0.14
   6  -2  -7    2.13    0.13
   6  -2  -7    1.99    0.12
  -6   2  -7    2.25    0.15
   6  -2   7    1.62    0.13
  -6  -2  -7    1.85    0.11
   6  -2  -8    0.16    0.06
   6   2   8   -0.04    0.07
   6  -2   8   -0.12    0.07
  -6  -2  -8   -0.01    0.05
   6  -3   0   24.78    0.31
   6  -3   0   25.49    0.33
   6  -3   0   24.72    0.28
   6  -3   0   24.83    0.29
   6   3   1   97.43    0.99
   6  -3  -1   99.83    0.98
   6  -3  -1   98.53    0.99
   6  -3  -1   99.77    0.96
  -6  -3   1   98.38    0.97
   6  -3  -1   99.38    1.01
   6  -3   1   98.23    0.99
  -6  -3  -1   99.10    0.93
  -6  -3  -1   98.94    0.98
   6  -3   1   98.40    0.98
   6   3   2    9.53    0.17
   6  -3  -2    9.47    0.16
  -6  -3   2    9.47    0.15
   6  -3  -2    9.37    0.16
   6  -3   2    9.63    0.17
  -6  -3  -2    9.60    0.16
   6  -3   2    9.44    0.17
   6   3  -2    9.70    0.16
  -6  -3  -2    9.49    0.14
   6   3   3   23.75    0.34
   6  -3  -3   23.74    0.30
  -6  -3   3   23.41    0.29
   6  -3  -3   23.63    0.33
   6  -3  -3   23.34    0.31
   6  -3   3   23.86    0.32
   6   3  -3   24.21    0.31
  -6  -3  -3   23.89    0.30
   6  -3   3   23.63    0.33
  -6  -3  -3   23.68    0.31
  -6   3  -4    0.05    0.04
   6  -3  -4    0.04    0.04
   6  -3  -4    0.04    0.03
   6   3   4    0.02    0.04
   6  -3  -4   -0.03    0.03
   6  -3   4    0.01    0.04
  -6  -3  -4    0.06    0.03
   6   3  -4    0.09    0.03
  -6  -3  -4   -0.06    0.04
   6  -3   4    0.00    0.03
   6  -3  -5    3.67    0.13
  -6   3  -5    3.82    0.14
   6  -3  -5    3.70    0.14
   6   3   5    3.56    0.14
  -6  -3  -5    3.63    0.12
  -6  -3  -5    3.80    0.13
   6   3  -5    3.72    0.11
   6  -3   5    3.69    0.15
   6  -3  -6    1.24    0.10
   6  -3  -6    1.33    0.10
   6   3   6    1.33    0.11
  -6   3  -6    1.09    0.09
  -6  -3  -6    1.28    0.09
  -6  -3  -6    1.30    0.10
   6  -3   6    1.21    0.11
   6  -3  -7    5.87    0.19
   6   3   7    6.27    0.22
  -6  -3  -7    6.48    0.19
   6  -3   7    6.41    0.22
   6  -4   0   31.97    0.39
   6  -4   0   32.09    0.37
   6  -4   0   31.76    0.40
  -6  -4   0   32.06    0.37
   6  -4   0   31.22    0.35
   6  -4  -1   24.98    0.30
   6  -4  -1   24.71    0.32
   6  -4  -1   25.44    0.30
  -6  -4   1   24.86    0.31
   6  -4  -1   25.70    0.35
   6  -4   1   24.37    0.32
   6  -4   1   24.82    0.32
  -6  -4  -1   25.21    0.31
   6  -4  -2    5.73    0.12
   6   4   2    5.91    0.14
  -6  -4   2    6.01    0.12
   6  -4  -2    5.80    0.15
   6  -4  -2    5.85    0.13
   6  -4   2    5.90    0.14
  -6  -4  -2    5.89    0.10
  -6  -4  -2    5.77    0.13
   6  -4   2    5.95    0.13
   6  -4  -3   20.25    0.29
  -6  -4   3   20.07    0.28
   6  -4  -3   19.60    0.30
   6   4   3   19.79    0.31
   6  -4  -3   19.80    0.28
   6  -4   3   20.28    0.30
  -6  -4  -3   19.52    0.28
  -6  -4  -3   19.95    0.26
   6  -4   3   19.95    0.29
   6   4   4   13.69    0.26
   6  -4  -4   13.23    0.22
   6  -4  -4   13.75    0.26
   6  -4  -4   13.41    0.24
  -6   4  -4   14.12    0.25
   6  -4   4   13.83    0.26
   6   4  -4   14.00    0.24
  -6  -4  -4   14.06    0.24
   6  -4   4   13.60    0.23
  -6  -4  -4   14.30    0.23
   6   4   5   15.25    0.30
  -6   4  -5   15.75    0.29
   6  -4  -5   15.32    0.29
   6  -4  -5   15.02    0.27
   6  -4   5   15.25    0.30
  -6  -4  -5   15.71    0.27
  -6  -4  -5   15.33    0.26
   6  -4  -6   20.98    0.35
  -6   4  -6   20.48    0.36
   6   4   6   20.49    0.38
   6  -4  -6   20.51    0.37
  -6  -4  -6   20.44    0.33
  -6  -4  -6   20.03    0.34
   6  -4   6   20.83    0.38
  -6  -4  -6   20.70    0.34
   6  -4  -7    6.34    0.20
   6   4   7    6.95    0.23
   6  -4   7    6.87    0.23
  -6  -4  -7    6.65    0.20
   6  -5   0   94.41    0.98
  -6  -5   0   95.62    0.95
   6  -5   0   94.90    0.97
   6  -5   0   91.89    0.99
  -6  -5   1   13.18    0.20
   6  -5  -1   13.18    0.22
   6  -5  -1   13.32    0.21
   6  -5  -1   13.40    0.19
  -6  -5   1   13.06    0.22
   6  -5   1   13.23    0.22
  -6  -5  -1   13.12    0.21
   6  -5   1   13.20    0.22
   6  -5  -2   57.36    0.64
   6  -5  -2   55.83    0.66
   6  -5  -2   55.97    0.62
  -6  -5   2   56.45    0.63
  -6  -5  -2   56.80    0.63
   6  -5   2   56.93    0.65
   6  -5   2   56.06    0.64
   6  -5  -3   14.40    0.24
  -6  -5   3   14.51    0.24
   6  -5  -3   14.30    0.24
   6   5   3   14.29    0.26
   6  -5  -3   13.85    0.25
   6  -5   3   14.42    0.26
   6  -5   3   14.16    0.24
  -6  -5  -3   13.95    0.24
  -6  -5  -3   14.29    0.20
   6  -5  -4    9.94    0.20
   6  -5  -4   10.50    0.23
  -6   5  -4   10.79    0.22
   6   5   4   10.42    0.24
   6  -5  -4   10.67    0.20
   6  -5   4   10.44    0.21
  -6  -5  -4   10.59    0.19
   6  -5   4   10.82    0.23
  -6  -5  -4    9.95    0.21
   6  -5  -5    4.66    0.15
   6  -5  -5    4.55    0.16
  -6   5  -5    4.65    0.16
   6   5   5    4.84    0.17
  -6  -5  -5    4.55    0.15
  -6  -5  -5    4.80    0.14
   6  -5   5    4.33    0.17
  -6  -5  -5    4.48    0.15
   6  -5  -6    0.20    0.06
   6   5   6    0.23    0.07
   6  -5   6    0.25    0.07
  -6  -5  -6    0.21    0.06
  -6  -5  -6    0.19    0.06
  -6  -5  -6    0.28    0.06
   6  -5  -7    0.18    0.07
   6   5   7    0.21    0.08
  -6  -5  -7    0.09    0.06
   6  -5   7    0.03    0.08
  -6  -6   0  140.74    1.38
   6  -6   0  139.10    1.41
   6  -6   0  141.50    1.42
  -6  -6   0  139.78    1.40
   6  -6  -1   -0.01    0.04
   6  -6  -1    0.05    0.03
   6  -6  -1   -0.04    0.04
  -6  -6   1   -0.02    0.03
  -6  -6   1    0.02    0.03
  -6  -6   1   -0.02    0.04
   6  -6   1    0.00    0.04
  -6  -6  -1    0.01    0.04
   6  -6   1    0.03    0.04
   6  -6  -2   51.79    0.63
  -6  -6   2   51.89    0.61
   6  -6  -2   52.02    0.61
   6  -6  -2   51.81    0.58
   6  -6  -2   52.75    0.60
   6  -6   2   52.52    0.62
  -6  -6  -2   51.43    0.60
   6  -6   2   51.57    0.61
  -6  -6  -2   52.24    0.62
  -6  -6   3    0.61    0.07
   6  -6  -3    0.65    0.06
   6  -6  -3    0.63    0.07
   6  -6  -3    0.63    0.07
   6  -6   3    0.60    0.06
   6  -6   3    0.56    0.07
  -6  -6  -3    0.57    0.07
  -6  -6  -3    0.55    0.06
   6  -6  -4    0.09    0.05
   6  -6  -4    0.15    0.05
   6   6   4    0.14    0.06
   6  -6  -4    0.14    0.05
  -6  -6  -4    0.12    0.05
   6  -6   4    0.29    0.06
  -6  -6  -4    0.18    0.06
   6  -6  -5    1.84    0.11
   6  -6  -5    1.55    0.12
   6   6   5    1.79    0.13
   6  -6   5    1.91    0.13
  -6  -6  -5    1.84    0.11
  -6  -6  -5    1.84    0.11
   6   6   6    3.15    0.17
   6  -6  -6    2.81    0.14
  -6  -6  -6    3.07    0.14
   6  -6   6    2.91    0.17
  -6  -6  -6    3.13    0.15
  -6  -7   0    2.85    0.12
  -6  -7   0    2.95    0.10
   6  -7   0    2.92    0.12
  -6  -7   0    2.92    0.11
   6  -7   0    2.91    0.11
  -6  -7   1   68.24    0.81
   6  -7  -1   71.32    0.80
   6  -7  -1   71.47    0.79
   6  -7  -1   69.78    0.80
  -6  -7   1   70.22    0.76
  -6  -7  -1   69.85    0.76
  -6  -7  -1   70.84    0.79
   6  -7   1   70.91    0.80
   6  -7   1   70.03    0.80
  -6  -7   2    0.53    0.07
   6  -7  -2    0.54    0.06
   6  -7  -2    0.71    0.08
   6  -7  -2    0.48    0.06
   6  -7   2    0.55    0.07
  -6  -7  -2    0.62    0.07
  -6  -7  -2    0.60    0.07
   6  -7   2    0.79    0.08
   6  -7  -3   21.34    0.32
  -6  -7   3   20.70    0.34
   6  -7  -3   20.62    0.33
   6  -7  -3   20.93    0.35
  -6  -7  -3   20.84    0.34
  -6  -7  -3   20.91    0.33
   6  -7   3   21.62    0.36
   6  -7   3   20.71    0.33
   6  -7  -4    0.51    0.07
   6  -7  -4    0.54    0.08
   6  -7  -4    0.39    0.06
  -6  -7  -4    0.48    0.07
   6  -7   4    0.47    0.08
  -6  -7  -4    0.39    0.07
   6  -7  -5    5.00    0.17
   6   7   5    4.78    0.19
   6  -7  -5    4.88    0.16
   6  -7   5    4.67    0.19
  -6  -7  -5    4.64    0.17
  -6  -7  -5    4.98    0.17
   6   7   6    1.11    0.12
   6  -7  -6    1.39    0.12
  -6  -7  -6    1.19    0.11
   6  -7   6    1.15    0.12
  -6  -7  -6    1.36    0.11
   6  -8   0   65.88    0.77
   6  -8   0   64.57    0.76
  -6  -8   0   63.18    0.74
  -6  -8   0   62.98    0.78
   6  -8  -1    1.20    0.10
   6  -8  -1    1.21    0.09
  -6  -8   1    1.21    0.10
  -6  -8   1    1.13    0.13
   6  -8  -1    1.15    0.09
   6  -8   1    1.02    0.09
   6  -8   1    1.12    0.09
  -6  -8  -1    1.12    0.09
  -6  -8  -1    1.26    0.09
   6  -8  -2   22.47    0.35
  -6  -8   2   22.00    0.37
   6  -8  -2   22.98    0.37
   6  -8  -2   22.27    0.36
   6  -8   2   22.42    0.35
   6  -8   2   22.83    0.37
  -6  -8  -2   21.90    0.34
  -6  -8  -2   22.27    0.36
   6  -8  -3    2.12    0.13
   6  -8  -3    2.10    0.11
   6  -8  -3    2.19    0.12
  -6  -8   3    2.03    0.13
   6  -8   3    2.08    0.12
   6  -8   3    2.01    0.13
  -6  -8  -3    2.28    0.12
  -6  -8  -3    2.29    0.12
   6  -8  -4    0.17    0.06
   6  -8  -4    0.12    0.06
  -6  -8  -4    0.23    0.07
  -6  -8  -4    0.05    0.06
   6  -8   4    0.14    0.07
   6  -8  -5    2.58    0.14
   6  -8  -5    2.66    0.14
  -6  -8  -5    2.61    0.15
  -6  -8  -5    3.13    0.15
   6  -8   5    2.86    0.17
   6  -9   0   31.53    0.47
  -6  -9   0   31.85    0.49
  -6  -9   0   32.04    0.45
   6  -9   0   31.75    0.47
   6  -9  -1    3.07    0.15
  -6  -9   1    3.13    0.15
   6  -9  -1    2.98    0.14
  -6  -9  -1    3.25    0.14
   6  -9   1    3.38    0.15
   6  -9   1    3.13    0.15
  -6  -9  -1    3.11    0.16
  -6  -9   2   19.34    0.37
   6  -9  -2   19.96    0.35
   6  -9  -2   19.68    0.36
   6  -9  -2   20.54    0.35
   6  -9   2   19.42    0.34
  -6  -9  -2   20.25    0.35
   6  -9   2   20.18    0.37
   6  -9  -3    4.77    0.18
  -6  -9   3    4.12    0.18
   6  -9  -3    4.76    0.17
  -6  -9  -3    4.35    0.17
  -6  -9  -3    4.39    0.16
   6  -9   3    4.83    0.19
   6  -9  -4    4.06    0.17
  -6  -9  -4    4.11    0.16
   6  -9   4    4.59    0.19
  -6  -9  -4    4.17    0.17
   6 -10   0    9.15    0.24
  -6 -10   0    9.06    0.23
   6 -10   0    8.99    0.24
  -6 -10   0    9.14    0.26
   6 -10  -1    2.51    0.14
  -6 -10   1    2.23    0.15
   6 -10  -1    2.43    0.15
  -6 -10  -1    2.46    0.14
   6 -10   1    2.31    0.15
   6 -10   1    2.42    0.14
  -6 -10  -1    2.47    0.16
  -6 -10   2    2.27    0.16
   6 -10  -2    2.22    0.14
   6 -10  -2    2.10    0.14
   6 -10   2    2.39    0.14
   6 -10   2    2.33    0.15
  -6 -10  -2    2.28    0.14
   7   0   0    0.00    0.02
   7   0   0    0.05    0.02
   7   0  -1   20.74    0.26
   7   0   1   20.59    0.24
   7   0  -1   20.41    0.25
   7   0  -1   20.50    0.26
  -7   0  -2    1.96    0.07
   7   0  -2    1.89    0.07
   7   0   2    1.95    0.07
   7   0  -2    1.95    0.07
   7   0  -2    1.91    0.06
  -7   0  -2    1.84    0.07
   7   0   2    2.02    0.08
   7   0  -3   45.17    0.52
   7   0   3   46.30    0.53
   7   0   3   45.88    0.53
  -7   0  -3   45.50    0.50
  -7   0  -3   45.00    0.52
   7   0  -3   45.33    0.52
   7   0  -4    0.33    0.05
   7   0   4    0.34    0.06
   7   0   4    0.26    0.05
   7   0  -4    0.31    0.05
  -7   0  -4    0.44    0.05
  -7   0  -4    0.36    0.05
   7   0  -5   14.96    0.26
   7   0   5   15.35    0.26
  -7   0  -5   15.44    0.24
  -7   0  -5   15.25    0.27
   7   0   5   15.62    0.29
   7   0  -5   15.55    0.26
   7   0  -6    1.75    0.10
   7   0   6    1.78    0.12
  -7   0  -6    1.88    0.11
   7   0  -7    0.29    0.06
   7   0   7    0.11    0.07
   7   1   0    0.00    0.02
   7  -1   0   -0.03    0.02
   7  -1   0    0.01    0.02
   7  -1   0    0.06    0.03
   7   1   0    0.00    0.02
   7  -1  -1   18.13    0.25
   7  -1  -1   17.94    0.24
   7   1   1   18.30    0.22
   7   1   1   18.14    0.25
   7  -1  -1   18.32    0.24
  -7  -1  -1   18.32    0.23
   7   1  -1   18.09    0.24
   7  -1   1   18.01    0.22
   7   1  -1   18.27    0.23
   7   1  -1   18.53    0.23
   7  -1   1   17.66    0.25
   7   1   2    3.43    0.10
   7  -1  -2    3.31    0.09
  -7   1  -2    3.51    0.08
   7  -1  -2    3.40    0.10
   7  -1  -2    3.25    0.08
   7   1   2    3.46    0.09
   7  -1   2    3.35    0.09
   7   1  -2    3.42    0.08
  -7  -1  -2    3.36    0.09
   7   1  -2    3.24    0.07
   7   1  -2    3.39    0.09
  -7  -1  -2    3.36    0.09
   7  -1   2    3.35    0.10
   7   1   3   45.41    0.53
  -7   1  -3   45.79    0.49
   7  -1  -3   44.87    0.52
   7   1   3   44.44    0.52
  -7   1  -3   44.45    0.53
   7  -1  -3   44.29    0.48
   7  -1  -3   45.78    0.53
  -7  -1  -3   45.44    0.50
   7  -1   3   44.69    0.52
   7   1  -3   45.26    0.51
   7   1  -3   45.73    0.51
  -7  -1  -3   45.54    0.52
   7  -1   3   45.70    0.52
  -7   1  -4    0.22    0.05
   7  -1  -4    0.20    0.04
   7  -1  -4    0.10    0.04
   7   1   4    0.11    0.04
   7   1   4    0.14    0.05
  -7   1  -4    0.21    0.04
  -7  -1  -4    0.10    0.04
   7  -1   4    0.19    0.04
  -7  -1  -4    0.12    0.04
   7   1  -4    0.14    0.04
   7   1   5    6.47    0.18
  -7   1  -5    6.40    0.17
   7  -1  -5    6.44    0.16
   7  -1  -5    6.37    0.17
  -7  -1  -5    6.47    0.17
   7  -1   5    6.61    0.16
   7   1  -5    6.58    0.16
  -7  -1  -5    6.63    0.15
   7  -1   5    6.89    0.19
   7  -1  -6    5.18    0.16
   7   1   6    4.96    0.18
  -7   1  -6    5.32    0.17
   7  -1  -6    4.97    0.15
   7   1  -6    5.30    0.15
  -7  -1  -6    5.20    0.15
  -7  -1  -6    5.21    0.17
   7  -1   6    5.12    0.18
   7  -1  -7    2.34    0.13
   7   1   7    2.37    0.15
   7  -1   7    2.24    0.15
   7   1  -7    2.10    0.11
   7  -2   0    0.00    0.02
  -7  -2   0   -0.01    0.02
   7   2   0    0.00    0.02
  -7  -2   0    0.02    0.02
   7  -2   0    0.00    0.03
   7  -2   0    0.03    0.02
   7  -2   0    0.00    0.03
   7   2   0    0.02    0.02
   7  -2  -1    0.73    0.05
   7  -2  -1    0.66    0.05
   7   2   1    0.74    0.06
   7  -2  -1    0.67    0.05
   7   2   1    0.68    0.05
   7   2  -1    0.68    0.04
  -7  -2  -1    0.63    0.04
   7  -2   1    0.64    0.05
   7  -2   1    0.72    0.05
   7   2  -1    0.67    0.05
   7   2   2    9.13    0.17
   7  -2  -2    9.30    0.15
   7   2   2    9.20    0.16
   7  -2  -2    9.14    0.16
   7  -2  -2    9.22    0.17
  -7   2  -2    9.36    0.14
   7   2  -2    9.23    0.16
   7  -2   2    9.27    0.17
   7   2  -2    9.44    0.14
  -7  -2  -2    9.53    0.16
  -7  -2  -2    9.30    0.15
   7  -2   2    9.51    0.16
   7  -2  -3    0.35    0.05
  -7   2  -3    0.29    0.05
  -7   2  -3    0.33    0.03
   7   2   3    0.32    0.05
   7  -2  -3    0.32    0.04
   7  -2  -3    0.32    0.05
   7  -2   3    0.38    0.05
   7  -2   3    0.37    0.05
  -7  -2  -3    0.34    0.04
   7   2  -3    0.38    0.05
  -7  -2  -3    0.34    0.04
   7   2   4   16.52    0.28
   7  -2  -4   16.36    0.26
  -7   2  -4   15.95    0.27
   7  -2  -4   16.74    0.28
  -7  -2  -4   16.53    0.26
  -7  -2  -4   15.88    0.25
   7  -2   4   16.47    0.28
   7  -2   4   16.76    0.26
   7   2  -4   15.99    0.25
  -7   2  -5   14.90    0.28
   7   2   5   14.57    0.28
   7  -2  -5   14.54    0.26
   7  -2  -5   14.80    0.27
  -7  -2  -5   14.32    0.25
   7  -2   5   14.83    0.25
   7   2  -5   14.48    0.24
   7  -2   5   14.67    0.28
  -7  -2  -5   14.56    0.26
   7  -2  -6   14.82    0.29
  -7   2  -6   14.86    0.29
   7  -2  -6   15.05    0.28
   7   2   6   14.38    0.30
   7  -2   6   14.69    0.30
  -7  -2  -6   14.78    0.28
   7   2  -6   14.47    0.26
  -7  -2  -6   14.67    0.26
   7  -2  -7   29.79    0.48
   7  -2  -7   29.34    0.46
   7   2   7   29.60    0.50
  -7  -2  -7   29.39    0.43
   7  -2   7   30.29    0.50
   7  -3   0    0.00    0.03
   7  -3   0    0.01    0.03
   7  -3   0    0.02    0.02
   7  -3   0    0.00    0.02
   7  -3  -1    5.09    0.12
   7  -3  -1    5.02    0.09
   7   3   1    5.06    0.11
   7  -3  -1    4.91    0.13
  -7  -3   1    5.03    0.10
   7  -3  -1    4.88    0.11
  -7  -3  -1    4.94    0.11
   7  -3   1    5.04    0.11
   7  -3   1    5.17    0.12
   7   3   2   -0.03    0.03
   7  -3  -2    0.05    0.03
   7  -3  -2   -0.04    0.03
   7  -3  -2    0.00    0.03
  -7  -3  -2   -0.05    0.03
   7  -3   2    0.02    0.03
  -7  -3  -2    0.01    0.02
   7  -3   2    0.01    0.03
   7   3   3   17.51    0.28
   7  -3  -3   17.51    0.25
   7  -3  -3   17.45    0.28
   7  -3  -3   17.45    0.26
  -7  -3  -3   17.22    0.26
   7   3  -3   17.56    0.25
   7  -3   3   17.20    0.26
   7  -3   3   17.42    0.27
  -7  -3  -3   17.38    0.24
   7  -3  -4   10.55    0.22
   7   3   4   10.36    0.22
  -7   3  -4   10.80    0.22
   7  -3  -4   10.25    0.20
  -7  -3  -4   10.21    0.20
   7  -3   4   10.26    0.21
   7   3  -4   10.42    0.19
   7  -3   4   10.70    0.20
  -7  -3  -4   10.65    0.19
   7  -3  -5    0.85    0.08
  -7   3  -5    0.81    0.08
   7   3   5    0.96    0.09
   7  -3  -5    0.83    0.08
   7   3  -5    0.90    0.07
   7  -3   5    0.87    0.09
  -7  -3  -5    0.89    0.08
  -7  -3  -5    0.93    0.08
   7   3   6   23.70    0.41
   7  -3  -6   24.15    0.38
   7  -3  -6   23.80    0.40
  -7   3  -6   24.24    0.40
   7  -3   6   24.41    0.41
  -7  -3  -6   23.92    0.38
  -7  -3  -6   23.38    0.37
   7   3   7    7.32    0.24
   7  -3  -7    7.62    0.21
   7  -3   7    7.44    0.24
  -7  -3  -7    7.33    0.20
   7  -4   0    0.01    0.03
   7  -4   0    0.05    0.03
   7  -4   0   -0.02    0.03
   7  -4   0   -0.04    0.04
   7  -4  -1    8.27    0.18
   7  -4  -1    8.56    0.17
   7  -4  -1    8.56    0.14
   7  -4  -1    8.39    0.15
  -7  -4   1    8.32    0.15
  -7  -4  -1    8.48    0.16
   7  -4   1    8.62    0.17
   7  -4   1    8.30    0.15
   7   4   2    0.08    0.04
   7  -4  -2    0.08    0.03
   7  -4  -2    0.08    0.04
   7  -4  -2    0.05    0.04
  -7  -4   2    0.08    0.04
   7  -4   2    0.06    0.04
  -7  -4  -2    0.09    0.02
   7  -4   2    0.12    0.04
  -7  -4  -2    0.09    0.04
   7  -4  -3   20.20    0.29
   7  -4  -3   19.46    0.31
   7   4   3   19.29    0.31
   7  -4  -3   19.87    0.29
   7  -4   3   20.20    0.30
  -7  -4  -3   19.85    0.29
  -7  -4  -3   19.83    0.26
   7  -4   3   19.90    0.30
   7  -4  -4    1.62    0.10
   7  -4  -4    1.49    0.09
   7  -4  -4    1.79    0.08
   7   4   4    1.72    0.10
  -7   4  -4    1.65    0.10
  -7  -4  -4    1.69    0.09
   7  -4   4    1.61    0.11
   7  -4   4    1.60    0.09
  -7  -4  -4    1.60    0.08
   7   4  -4    1.73    0.08
   7   4   5    3.84    0.16
  -7   4  -5    4.04    0.15
   7  -4  -5    3.92    0.14
   7  -4  -5    4.41    0.16
  -7  -4  -5    3.85    0.14
   7  -4   5    4.02    0.16
  -7  -4  -5    3.97    0.13
  -7   4  -6    3.19    0.14
   7  -4  -6    3.41    0.15
   7  -4  -6    3.13    0.14
   7   4   6    3.19    0.16
  -7  -4  -6    3.21    0.13
  -7  -4  -6    3.06    0.14
   7  -4   6    2.83    0.16
   7   4   7    0.43    0.09
   7  -4  -7    0.22    0.07
   7  -4   7    0.49    0.10
  -7  -4  -7    0.44    0.08
   7  -5   0    0.04    0.04
   7  -5   0   -0.02    0.03
  -7  -5   0    0.01    0.03
   7  -5   0    0.00    0.04
  -7  -5   1   14.52    0.24
  -7  -5   1   14.96    0.22
   7  -5  -1   15.28    0.26
   7  -5  -1   15.01    0.22
   7  -5  -1   15.06    0.22
   7  -5  -1   15.14    0.25
   7  -5   1   15.04    0.24
  -7  -5  -1   15.14    0.23
   7  -5   1   15.24    0.25
   7  -5  -2    6.73    0.17
   7  -5  -2    6.75    0.16
  -7  -5   2    6.85    0.15
   7  -5  -2    6.74    0.14
   7  -5  -2    7.00    0.15
   7  -5   2    6.77    0.16
  -7  -5  -2    6.54    0.15
   7  -5   2    6.75    0.16
   7   5   3   37.89    0.51
   7  -5  -3   37.99    0.48
   7  -5  -3   38.96    0.51
   7  -5  -3   37.96    0.47
   7  -5   3   38.55    0.50
   7  -5   3   38.62    0.48
  -7  -5  -3   38.33    0.48
   7  -5  -4    6.57    0.16
   7  -5  -4    6.68    0.19
   7   5   4    6.66    0.19
   7  -5  -4    6.55    0.17
  -7   5  -4    6.55    0.18
  -7  -5  -4    6.58    0.14
   7  -5   4    6.85    0.17
  -7  -5  -4    6.44    0.17
   7  -5   4    6.59    0.18
  -7   5  -5    7.70    0.21
   7  -5  -5    8.09    0.22
   7   5   5    8.37    0.22
   7  -5  -5    7.88    0.20
  -7  -5  -5    7.72    0.20
  -7  -5  -5    7.64    0.18
   7  -5   5    8.34    0.22
   7  -5  -6    0.07    0.06
   7   5   6    0.06    0.06
  -7   5  -6    0.01    0.05
  -7  -5  -6    0.05    0.06
  -7  -5  -6    0.08    0.05
   7  -5   6    0.00    0.07
  -7  -5  -6    0.04    0.05
   7  -5  -7    0.19    0.07
   7   5   7    0.20    0.08
  -7  -5  -7    0.13    0.07
   7  -5   7    0.16    0.08
   7  -6   0    0.04    0.04
  -7  -6   0   -0.01    0.03
  -7  -6   0    0.01    0.03
   7  -6   0   -0.05    0.04
   7  -6  -1    2.61    0.11
  -7  -6   1    2.46    0.10
   7  -6  -1    2.39    0.09
  -7  -6   1    2.45    0.09
   7  -6  -1    2.55    0.12
  -7  -6   1    2.76    0.09
   7  -6   1    2.38    0.11
  -7  -6  -1    2.58    0.10
  -7  -6  -1    2.39    0.10
   7  -6   1    2.56    0.11
   7  -6  -2    0.62    0.07
   7  -6  -2    0.64    0.06
   7  -6  -2    0.65    0.07
   7  -6  -2    0.66    0.06
  -7  -6   2    0.56    0.06
   7  -6   2    0.53    0.06
  -7  -6  -2    0.71    0.07
   7  -6   2    0.56    0.06
  -7  -6  -2    0.75    0.07
   7  -6  -3    3.91    0.13
   7  -6  -3    4.54    0.15
   7  -6  -3    4.09    0.13
  -7  -6  -3    4.38    0.14
   7  -6   3    4.17    0.15
   7  -6   3    4.39    0.14
  -7  -6  -3    4.29    0.14
   7  -6  -4    3.14    0.14
   7  -6  -4    3.16    0.12
   7   6   4    2.94    0.14
   7  -6  -4    3.09    0.12
  -7  -6  -4    3.09    0.13
  -7  -6  -4    3.04    0.13
   7  -6   4    3.07    0.14
   7  -6  -5    0.53    0.07
   7   6   5    0.59    0.09
   7  -6  -5    0.65    0.11
   7  -6   5    0.54    0.09
  -7  -6  -5    0.54    0.07
  -7  -6  -5    0.52    0.07
   7  -6  -6    3.59    0.16
   7   6   6    3.42    0.18
  -7  -6  -6    3.22    0.15
  -7  -6  -6    3.13    0.15
   7  -6   6    3.56    0.18
  -7  -7   0   -0.01    0.04
  -7  -7   0    0.01    0.04
   7  -7   0   -0.04    0.04
  -7  -7   0    0.00    0.04
   7  -7   0   -0.02    0.04
   7  -7  -1    1.66    0.09
  -7  -7   1    1.50    0.10
   7  -7  -1    1.75    0.11
   7  -7  -1    1.51    0.11
  -7  -7   1    1.41    0.08
   7  -7   1    1.57    0.10
  -7  -7  -1    1.47    0.10
   7  -7   1    1.61    0.10
  -7  -7  -1    1.75    0.09
   7  -7  -2    0.14    0.05
  -7  -7   2    0.16    0.05
   7  -7  -2    0.21    0.06
   7  -7  -2    0.18    0.05
   7  -7   2    0.16    0.05
  -7  -7  -2    0.18    0.05
   7  -7   2    0.18    0.05
  -7  -7  -2    0.18    0.05
   7  -7  -3    5.80    0.17
   7  -7  -3    5.79    0.16
   7  -7  -3    5.88    0.18
   7  -7   3    6.01    0.18
  -7  -7  -3    5.85    0.17
   7  -7   3    5.78    0.17
  -7  -7  -3    6.03    0.17
   7  -7  -4    8.31    0.21
   7  -7  -4    8.71    0.20
   7  -7  -4    8.17    0.23
   7  -7   4    8.86    0.23
  -7  -7  -4    8.08    0.21
  -7  -7  -4    8.32    0.21
   7   7   5    0.20    0.07
   7  -7  -5    0.18    0.06
  -7  -7  -5    0.11    0.06
  -7  -7  -5    0.15    0.06
   7  -7   5    0.09    0.07
  -7  -8   0    0.06    0.05
   7  -8   0    0.10    0.05
   7  -8   0    0.04    0.05
  -7  -8   0   -0.03    0.04
   7  -8  -1    0.95    0.09
   7  -8  -1    0.89    0.08
   7  -8  -1    0.85    0.09
  -7  -8   1    0.91    0.09
  -7  -8  -1    0.89    0.08
   7  -8   1    0.96    0.09
   7  -8   1    0.88    0.09
  -7  -8  -1    0.90    0.08
   7  -8  -2    0.60    0.08
   7  -8  -2    0.55    0.07
  -7  -8   2    0.70    0.08
   7  -8  -2    0.57    0.08
   7  -8   2    0.53    0.08
  -7  -8  -2    0.50    0.07
  -7  -8  -2    0.61    0.07
   7  -8   2    0.52    0.07
   7  -8  -3    1.56    0.13
   7  -8  -3    1.58    0.12
   7  -8   3    1.55    0.11
  -7  -8  -3    1.72    0.11
   7  -8   3    1.61    0.13
  -7  -8  -3    1.71    0.12
   7  -8  -4    2.93    0.14
  -7  -8  -4    2.82    0.14
   7  -8   4    2.51    0.15
  -7  -8  -4    2.74    0.14
   7  -8  -5    0.59    0.08
   7  -8  -5    0.37    0.07
  -7  -8  -5    0.44    0.08
   7  -8   5    0.36    0.09
  -7  -8  -5    0.34    0.08
  -7  -9   0    0.00    0.05
  -7  -9   0   -0.03    0.05
   7  -9   0    0.01    0.06
   7  -9   0    0.08    0.05
   7  -9  -1    4.02    0.17
   7  -9  -1    4.07    0.15
  -7  -9   1    3.94    0.17
  -7  -9  -1    3.94    0.17
   7  -9   1    3.94    0.16
  -7  -9  -1    3.61    0.15
   7  -9   1    3.97    0.16
  -7  -9   2    2.01    0.14
   7  -9  -2    2.15    0.13
   7  -9  -2    2.27    0.13
   7  -9   2    2.40    0.13
   7  -9   2    2.11    0.14
  -7  -9  -2    2.25    0.13
  -7  -9  -2    2.27    0.15
   7  -9  -3   10.72    0.26
  -7  -9  -3   11.04    0.26
   7  -9   3   10.69    0.27
  -7  -9  -3   10.52    0.24
   7  -9  -4    1.48    0.12
  -7  -9  -4    1.60    0.13
  -7  -9  -4    1.62    0.12
   7  -9   4    1.36    0.13
  -7 -10   0    0.05    0.06
   7 -10   0    0.02    0.06
  -7 -10   0   -0.01    0.05
   7 -10   0    0.01    0.06
   7 -10  -1    1.53    0.12
   7 -10  -1    1.58    0.12
  -7 -10   1    1.52    0.13
   7 -10   1    1.57    0.12
  -7 -10  -1    1.39    0.13
  -7 -10  -1    1.53    0.12
   7 -10   1    1.67    0.13
   7 -10  -2   -0.05    0.06
   7 -10   2    0.05    0.07
  -7 -10  -2   -0.13    0.05
   7 -10   2   -0.01    0.06
   8   0   0   23.24    0.29
   8   0   0   23.48    0.30
   8   0  -1   81.94    0.83
   8   0  -1   80.21    0.84
   8   0   1   82.64    0.81
   8   0  -1   82.15    0.84
   8   0   1   83.29    0.85
   8   0   2   15.91    0.22
   8   0  -2   14.80    0.22
   8   0  -2   15.25    0.23
   8   0   2   14.63    0.23
   8   0  -2   15.11    0.21
  -8   0  -2   15.13    0.21
  -8   0  -2   15.34    0.23
   8   0   3   94.74    1.00
  -8   0  -3   96.94    1.00
   8   0   3   96.38    1.00
   8   0  -3   96.48    0.99
   8   0  -3   95.70    0.99
  -8   0  -3   95.29    0.97
  -8   0  -4    2.15    0.10
   8   0   4    2.31    0.10
   8   0  -4    2.07    0.10
  -8   0  -4    2.22    0.09
   8   0   4    2.19    0.11
   8   0  -4    2.08    0.09
   8   0   5   30.93    0.45
   8   0   5   30.74    0.42
  -8   0  -5   31.29    0.40
   8   0  -5   30.76    0.42
  -8   0  -5   30.32    0.44
   8   0   6    2.26    0.13
  -8   0  -6    2.45    0.13
   8   0  -6    2.25    0.11
   8   0  -7    0.35    0.07
   8   0   7    0.20    0.08
   8  -1   0   56.35    0.62
   8  -1   0   58.23    0.61
   8   1   0   56.55    0.61
   8   1   0   58.88    0.60
   8  -1   0   57.57    0.62
   8   1   1   56.68    0.62
   8   1   1   56.09    0.58
   8  -1  -1   56.00    0.61
   8  -1  -1   56.15    0.60
   8  -1  -1   57.00    0.62
   8  -1   1   56.19    0.58
  -8  -1  -1   57.87    0.59
   8   1  -1   57.14    0.61
   8   1  -1   56.22    0.59
   8   1  -1   56.08    0.59
   8  -1   1   56.41    0.62
   8  -1  -2    6.95    0.14
   8  -1  -2    6.84    0.14
   8   1   2    6.82    0.13
  -8   1  -2    6.83    0.12
   8   1   2    6.86    0.15
   8  -1  -2    6.69    0.13
   8  -1   2    6.75    0.13
   8  -1   2    6.77    0.15
  -8  -1  -2    7.04    0.14
   8   1  -2    6.69    0.14
   8   1  -2    6.49    0.13
   8   1  -2    6.97    0.12
  -8  -1  -2    6.89    0.13
   8  -1  -3   11.94    0.21
  -8   1  -3   11.50    0.21
  -8   1  -3   12.44    0.18
   8  -1  -3   11.66    0.21
   8   1   3   11.79    0.21
   8   1   3   11.50    0.21
   8  -1  -3   11.84    0.18
   8  -1   3   12.25    0.21
  -8  -1  -3   11.81    0.20
  -8  -1  -3   12.13    0.20
   8   1  -3   11.70    0.20
   8  -1   3   11.80    0.21
   8  -1  -4   18.71    0.29
   8  -1  -4   18.72    0.29
   8   1   4   18.37    0.29
   8   1   4   18.95    0.30
  -8   1  -4   18.59    0.30
  -8   1  -4   18.72    0.25
   8   1  -4   18.51    0.28
   8  -1   4   18.38    0.29
   8  -1   4   18.52    0.30
  -8  -1  -4   18.50    0.29
  -8  -1  -4   18.85    0.27
   8  -1  -5    0.98    0.08
   8   1   5    0.82    0.08
   8  -1  -5    0.74    0.07
  -8   1  -5    0.77    0.08
   8  -1   5    0.96    0.09
  -8  -1  -5    0.85    0.07
   8  -1   5    0.89    0.08
   8   1  -5    0.80    0.07
  -8  -1  -5    0.83    0.08
   8   1   6   25.15    0.42
   8  -1  -6   25.02    0.39
  -8   1  -6   24.67    0.41
   8  -1  -6   24.72    0.48
  -8  -1  -6   24.66    0.40
   8   1  -6   25.33    0.38
   8  -1   6   25.38    0.42
  -8  -1  -6   25.50    0.37
   8   1   7    0.22    0.08
   8  -1  -7    0.13    0.06
   8  -1   7    0.22    0.08
   8   1  -7    0.13    0.05
   8   2   0   45.13    0.51
   8  -2   0   45.16    0.46
   8  -2   0   45.55    0.50
  -8  -2   0   45.85    0.46
   8  -2   0   46.06    0.53
   8  -2   0   46.43    0.52
   8   2   1   65.95    0.68
   8   2   1   65.73    0.70
   8  -2  -1   65.29    0.71
   8  -2  -1   65.09    0.69
   8  -2  -1   65.92    0.69
   8  -2   1   64.62    0.70
   8  -2   1   65.19    0.67
  -8  -2  -1   65.94    0.66
   8   2  -1   66.00    0.68
   8   2   2   28.67    0.36
   8   2   2   28.78    0.38
   8  -2  -2   29.11    0.36
   8  -2  -2   29.18    0.38
   8  -2  -2   29.83    0.37
  -8  -2  -2   29.11    0.34
   8   2  -2   29.46    0.37
   8   2  -2   29.83    0.34
   8  -2   2   29.33    0.36
  -8  -2  -2   29.30    0.36
   8  -2   2   29.27    0.38
   8   2   3   28.05    0.37
  -8   2  -3   28.12    0.34
   8  -2  -3   27.75    0.38
   8   2   3   28.21    0.38
   8  -2  -3   28.30    0.34
   8  -2  -3   27.78    0.37
  -8   2  -3   27.46    0.38
  -8  -2  -3   28.19    0.36
   8  -2   3   28.22    0.38
   8   2  -3   28.40    0.37
  -8  -2  -3   27.77    0.35
   8  -2   3   27.81    0.37
   8   2   4   16.27    0.28
   8  -2  -4   16.59    0.28
   8  -2  -4   16.26    0.27
  -8   2  -4   15.78    0.28
   8  -2   4   16.24    0.28
  -8  -2  -4   16.24    0.26
   8   2  -4   16.13    0.26
  -8  -2  -4   16.11    0.26
   8  -2   4   15.85    0.26
  -8   2  -5    5.99    0.17
   8  -2  -5    5.98    0.17
   8   2   5    5.91    0.18
   8  -2  -5    5.76    0.16
  -8  -2  -5    5.99    0.16
   8  -2   5    5.63    0.18
   8  -2   5    5.71    0.16
   8   2  -5    6.08    0.15
  -8  -2  -5    5.93    0.15
   8  -2  -6    4.83    0.16
   8  -2  -6    5.00    0.17
  -8   2  -6    5.08    0.18
   8   2   6    5.17    0.19
  -8  -2  -6    5.16    0.15
  -8  -2  -6    5.09    0.17
   8   2  -6    5.25    0.15
   8  -2   6    5.12    0.19
   8  -2  -7    4.79    0.17
   8   2   7    4.89    0.20
   8  -2   7    4.74    0.20
  -8  -2  -7    4.76    0.16
   8  -3   0  194.15    1.84
   8  -3   0  198.56    1.91
   8  -3   0  191.15    1.89
   8  -3   0  194.98    1.86
   8  -3  -1   48.55    0.53
   8  -3  -1   47.08    0.57
   8  -3  -1   48.18    0.54
   8   3   1   48.44    0.53
   8  -3   1   48.13    0.55
   8  -3   1   47.62    0.52
  -8  -3  -1   47.92    0.47
  -8  -3  -1   47.02    0.54
   8  -3  -2   79.88    0.83
   8   3   2   79.86    0.84
   8  -3  -2   79.94    0.83
   8  -3  -2   77.41    0.86
   8  -3   2   78.05    0.85
  -8  -3  -2   77.85    0.83
  -8  -3  -2   79.99    0.79
   8  -3   2   79.20    0.83
   8  -3  -3   19.53    0.27
   8   3   3   19.08    0.30
   8  -3  -3   18.70    0.30
   8  -3  -3   18.90    0.28
   8  -3   3   19.15    0.29
   8   3  -3   19.35    0.28
  -8  -3  -3   19.57    0.28
  -8  -3  -3   19.17    0.26
   8  -3   3   18.85    0.29
   8   3   4    0.20    0.05
   8  -3  -4    0.24    0.05
  -8   3  -4    0.16    0.05
   8  -3  -4    0.18    0.05
   8  -3   4    0.13    0.04
   8   3  -4    0.16    0.04
   8  -3   4    0.19    0.05
  -8  -3  -4    0.18    0.05
  -8  -3  -4    0.14    0.04
   8   3   5    1.07    0.10
  -8   3  -5    0.93    0.09
   8  -3  -5    0.88    0.09
   8  -3  -5    0.97    0.09
   8   3  -5    0.93    0.08
   8  -3   5    1.11    0.10
  -8  -3  -5    1.08    0.08
  -8  -3  -5    0.95    0.08
   8   3   6    8.80    0.24
  -8   3  -6    8.91    0.23
   8  -3  -6    8.68    0.22
   8  -3  -6    8.73    0.23
   8  -3   6    8.92    0.24
  -8  -3  -6    8.85    0.21
  -8  -3  -6    8.96    0.21
   8  -3  -7    0.21    0.07
   8   3   7    0.21    0.08
   8  -3   7    0.30    0.09
  -8  -3  -7    0.31    0.07
   8  -4   0   17.82    0.24
   8  -4   0   17.89    0.27
   8  -4   0   17.53    0.24
   8  -4   0   18.11    0.29
   8  -4  -1   19.22    0.28
   8  -4  -1   19.60    0.26
   8  -4  -1   20.12    0.31
   8  -4   1   18.87    0.27
  -8  -4  -1   19.43    0.28
   8  -4   1   18.99    0.29
   8  -4  -2   10.38    0.19
   8   4   2   10.00    0.20
   8  -4  -2   10.86    0.22
   8  -4  -2   10.69    0.19
   8  -4   2   10.13    0.20
  -8  -4  -2   10.59    0.19
   8  -4   2   10.39    0.19
   8  -4  -3   33.10    0.45
   8  -4  -3   33.04    0.42
   8   4   3   32.60    0.44
   8  -4  -3   32.42    0.42
  -8  -4  -3   32.62    0.38
   8  -4   3   32.47    0.43
  -8  -4  -3   33.29    0.43
   8  -4   3   33.20    0.44
   8  -4  -4    2.20    0.12
   8   4   4    2.17    0.11
  -8   4  -4    2.00    0.11
   8  -4  -4    1.96    0.09
   8  -4  -4    2.12    0.10
  -8  -4  -4    1.96    0.10
   8   4  -4    2.05    0.09
  -8  -4  -4    2.01    0.09
   8  -4   4    2.22    0.11
   8  -4   4    2.03    0.10
   8   4   5   13.63    0.29
   8  -4  -5   13.05    0.26
  -8   4  -5   13.57    0.28
   8  -4  -5   13.76    0.28
  -8  -4  -5   13.60    0.25
   8  -4   5   13.71    0.28
  -8  -4  -5   13.43    0.26
   8   4   6    1.81    0.14
   8  -4  -6    1.91    0.12
  -8   4  -6    1.87    0.13
   8  -4  -6    1.80    0.17
  -8  -4  -6    1.77    0.11
  -8  -4  -6    2.01    0.12
   8  -4   6    1.82    0.13
   8   4   7    0.03    0.07
   8  -4  -7    0.12    0.06
   8  -4   7    0.06    0.08
  -8  -4  -7    0.03    0.06
   8  -5   0    0.86    0.06
   8  -5   0    0.79    0.07
   8  -5   0    0.83    0.08
  -8  -5   0    0.91    0.07
   8  -5  -1   29.02    0.36
   8  -5  -1   28.14    0.39
   8  -5  -1   29.42    0.41
   8  -5   1   29.03    0.39
  -8  -5  -1   28.91    0.38
   8  -5   1   28.60    0.37
   8  -5  -2    5.37    0.13
   8  -5  -2    5.50    0.15
   8  -5  -2    5.49    0.16
   8  -5   2    5.43    0.14
   8  -5   2    5.34    0.15
  -8  -5  -2    5.34    0.14
   8  -5  -3    3.81    0.14
   8   5   3    3.95    0.14
   8  -5  -3    3.80    0.12
   8  -5  -3    3.56    0.12
   8  -5   3    3.64    0.13
   8  -5   3    3.75    0.14
  -8  -5  -3    3.81    0.13
   8  -5  -4   39.19    0.50
   8  -5  -4   40.63    0.55
   8  -5  -4   39.34    0.52
   8   5   4   40.59    0.55
  -8   5  -4   40.22    0.55
  -8  -5  -4   39.40    0.52
   8  -5   4   39.88    0.54
   8  -5   4   39.72    0.52
  -8   5  -5    0.26    0.06
   8  -5  -5    0.43    0.08
   8   5   5    0.30    0.07
   8  -5  -5    0.29    0.06
  -8  -5  -5    0.27    0.07
   8  -5   5    0.23    0.07
  -8  -5  -5    0.33    0.07
   8  -5  -6   26.25    0.43
   8   5   6   26.82    0.47
   8  -5   6   26.90    0.46
  -8  -5  -6   27.96    0.43
  -8  -5  -6   27.24    0.43
  -8  -6   0   19.73    0.29
   8  -6   0   19.48    0.29
  -8  -6   0   19.42    0.29
   8  -6   0   19.51    0.31
  -8  -6   1    2.89    0.11
   8  -6  -1    2.84    0.12
  -8  -6   1    2.92    0.10
   8  -6  -1    2.74    0.12
   8  -6  -1    2.85    0.12
  -8  -6   1    2.88    0.10
   8  -6   1    2.84    0.11
  -8  -6  -1    2.63    0.11
   8  -6   1    2.93    0.12
   8  -6  -2   14.06    0.27
   8  -6  -2   13.97    0.25
   8  -6  -2   14.00    0.23
   8  -6   2   13.86    0.25
   8  -6   2   13.80    0.25
  -8  -6  -2   13.83    0.24
   8  -6  -3    0.01    0.04
   8  -6  -3    0.14    0.06
   8  -6  -3    0.14    0.05
  -8  -6  -3    0.22    0.06
   8  -6   3    0.09    0.05
   8  -6   3    0.12    0.05
   8  -6  -4    6.70    0.18
   8   6   4    6.56    0.20
   8  -6  -4    6.42    0.17
   8  -6  -4    6.57    0.20
   8  -6   4    6.71    0.20
  -8  -6  -4    6.81    0.19
  -8  -6  -4    6.91    0.19
   8  -6   4    6.72    0.18
   8  -6  -5    0.03    0.05
   8   6   5    0.08    0.06
  -8  -6  -5    0.08    0.06
   8  -6   5   -0.01    0.06
  -8  -6  -5    0.16    0.06
   8   6   6    2.33    0.16
   8  -6  -6    2.45    0.14
  -8  -6  -6    2.36    0.14
  -8  -6  -6    2.39    0.14
   8  -6   6    2.49    0.17
   8  -7   0  116.51    1.22
  -8  -7   0  113.95    1.24
   8  -7   0  118.74    1.25
  -8  -7   0  118.83    1.22
  -8  -7   0  115.85    1.20
   8  -7  -1   24.37    0.38
  -8  -7   1   23.16    0.37
   8  -7  -1   24.91    0.38
   8  -7  -1   24.23    0.39
  -8  -7  -1   24.28    0.35
   8  -7   1   24.81    0.37
  -8  -7  -1   24.29    0.36
   8  -7   1   24.37    0.38
   8  -7  -2   59.35    0.73
   8  -7  -2   59.50    0.71
   8  -7   2   57.73    0.71
  -8  -7  -2   57.71    0.71
  -8  -7  -2   58.64    0.69
   8  -7   2   58.30    0.71
   8  -7  -3   10.63    0.24
   8  -7  -3   10.12    0.23
   8  -7  -3   10.18    0.25
  -8  -7  -3   10.56    0.24
   8  -7   3   10.41    0.24
   8  -7   3   10.16    0.23
  -8  -7  -3   10.39    0.23
   8  -7  -4    2.75    0.13
   8  -7  -4    2.63    0.13
  -8  -7  -4    2.56    0.13
   8  -7   4    2.64    0.15
  -8  -7  -4    2.49    0.13
   8   7   5    0.93    0.11
   8  -7  -5    0.82    0.09
   8  -7   5    0.97    0.11
  -8  -7  -5    0.78    0.09
  -8  -7  -5    0.86    0.10
  -8  -8   0    7.48    0.18
  -8  -8   0    7.11    0.20
   8  -8   0    7.73    0.19
   8  -8   0    7.39    0.20
  -8  -8   1    1.12    0.10
   8  -8  -1    1.09    0.10
   8  -8  -1    1.21    0.10
   8  -8   1    1.37    0.11
  -8  -8  -1    1.15    0.09
   8  -8   1    1.20    0.10
  -8  -8  -1    1.07    0.09
   8  -8  -2    4.26    0.17
   8  -8  -2    4.57    0.16
   8  -8   2    4.81    0.17
   8  -8   2    4.50    0.16
  -8  -8  -2    4.82    0.15
  -8  -8  -2    4.73    0.16
   8  -8  -3    0.15    0.06
   8  -8   3    0.09    0.06
   8  -8   3    0.15    0.07
  -8  -8  -3    0.18    0.06
  -8  -8  -3    0.25    0.07
   8  -8  -4    1.48    0.11
  -8  -8  -4    1.47    0.12
   8  -8   4    1.39    0.12
  -8  -8  -4    1.43    0.12
   8  -9   0    0.29    0.07
  -8  -9   0    0.20    0.07
   8  -9   0    0.34    0.07
  -8  -9   0    0.21    0.06
   8  -9  -1    6.56    0.21
  -8  -9  -1    6.95    0.20
   8  -9   1    6.82    0.21
   8  -9   1    6.67    0.20
  -8  -9  -1    6.79    0.22
   8  -9  -2    1.57    0.12
   8  -9   2    1.67    0.13
  -8  -9  -2    1.69    0.12
  -8  -9  -2    1.74    0.12
   8  -9   2    1.66    0.12
   8  -9  -3    1.02    0.11
  -8  -9  -3    1.06    0.10
  -8  -9  -3    0.90    0.10
   8  -9   3    1.02    0.11
   8  -9   3    0.97    0.10
   8 -10   0    4.32    0.18
  -8 -10   0    4.14    0.19
   8 -10   0    4.10    0.17
   8 -10  -1    2.36    0.15
   8 -10   1    2.51    0.15
   8 -10   1    2.28    0.15
  -8 -10  -1    2.81    0.17
  -8 -10  -1    2.40    0.14
   9   0   0   -0.02    0.03
   9   0   0    0.00    0.03
   9   0  -1    6.30    0.13
   9   0   1    6.35    0.14
   9   0  -1    6.17    0.14
   9   0   1    6.25    0.11
   9   0  -1    6.11    0.13
   9   0  -2   16.59    0.23
   9   0   2   17.06    0.26
  -9   0  -2   16.30    0.23
  -9   0  -2   16.70    0.25
   9   0   2   16.79    0.24
   9   0  -2   16.59    0.25
   9   0  -2   16.46    0.25
   9   0  -3   59.88    0.67
  -9   0  -3   59.40    0.67
   9   0  -3   58.25    0.67
   9   0   3   60.07    0.68
  -9   0  -3   59.86    0.65
   9   0   3   59.57    0.67
   9   0   4   14.00    0.25
   9   0   4   14.22    0.25
   9   0  -4   14.60    0.25
  -9   0  -4   13.92    0.25
  -9   0  -4   13.85    0.22
   9   0  -5   49.17    0.60
  -9   0  -5   48.46    0.57
   9   0   5   47.96    0.62
   9   0   5   48.49    0.60
  -9   0  -5   48.80    0.62
   9   0  -6    1.03    0.09
  -9   0  -6    1.11    0.10
   9   0   6    0.95    0.10
   9   0  -7   10.36    0.25
   9   0   7   10.21    0.28
   9  -1   0    0.00    0.03
   9  -1   0    0.04    0.03
   9  -1   0   -0.02    0.03
   9   1   0    0.01    0.03
   9   1   0   -0.01    0.03
   9   1   1   15.64    0.21
   9  -1  -1   15.84    0.24
   9  -1  -1   15.73    0.23
   9   1   1   15.93    0.24
   9  -1  -1   15.72    0.24
   9   1  -1   15.47    0.23
   9   1  -1   15.76    0.24
   9  -1   1   16.00    0.24
   9   1  -1   15.38    0.22
   9  -1   1   15.97    0.21
   9  -1  -2    0.01    0.03
   9  -1  -2    0.09    0.04
   9   1   2    0.07    0.04
   9  -1  -2    0.00    0.03
   9   1   2    0.01    0.03
   9   1  -2    0.04    0.04
   9   1  -2    0.09    0.03
   9  -1   2    0.05    0.03
  -9  -1  -2    0.02    0.03
   9  -1   2    0.07    0.04
  -9  -1  -2    0.06    0.03
   9   1   3   46.82    0.55
   9   1   3   46.49    0.56
   9  -1  -3   47.25    0.56
  -9   1  -3   46.34    0.56
   9  -1  -3   47.03    0.56
  -9   1  -3   47.40    0.52
  -9  -1  -3   47.32    0.55
   9  -1   3   47.42    0.56
  -9  -1  -3   46.09    0.54
   9   1  -3   46.40    0.55
   9  -1   3   47.56    0.55
  -9   1  -4    0.12    0.03
   9  -1  -4    0.06    0.04
   9   1   4    0.09    0.04
   9  -1  -4    0.02    0.04
  -9   1  -4    0.07    0.04
   9   1   4    0.08    0.05
   9  -1   4    0.05    0.04
   9   1  -4    0.12    0.04
   9  -1   4    0.17    0.05
  -9  -1  -4    0.06    0.04
  -9  -1  -4    0.07    0.04
   9  -1  -5    9.76    0.21
   9  -1  -5    9.64    0.22
  -9   1  -5    9.74    0.23
   9   1   5    9.12    0.22
   9  -1   5    9.34    0.21
  -9  -1  -5    9.51    0.21
   9  -1   5    9.32    0.22
  -9  -1  -5    9.86    0.20
   9   1  -5    9.42    0.21
  -9   1  -6    1.72    0.12
   9  -1  -6    1.73    0.11
   9   1   6    1.61    0.13
   9   1  -6    1.63    0.11
   9  -1   6    1.68    0.13
  -9  -1  -6    1.63    0.10
  -9  -1  -6    1.60    0.11
   9   1   7    0.30    0.08
   9  -1  -7    0.46    0.08
   9  -1   7    0.35    0.09
   9   1  -7    0.50    0.07
   9   2   0    0.01    0.03
   9  -2   0    0.02    0.04
  -9  -2   0   -0.03    0.02
   9  -2   0    0.05    0.03
   9  -2   0    0.05    0.03
   9   2   1    7.44    0.13
   9  -2  -1    7.29    0.16
   9  -2  -1    7.35    0.15
   9   2   1    7.53    0.16
   9  -2  -1    7.43    0.15
   9  -2   1    7.41    0.13
  -9  -2  -1    7.48    0.12
   9   2  -1    7.66    0.14
   9  -2   1    7.45    0.16
   9   2   2    1.41    0.07
   9  -2  -2    1.39    0.07
   9  -2  -2    1.36    0.08
   9  -2  -2    1.30    0.08
   9   2   2    1.45    0.08
   9   2  -2    1.40    0.08
   9   2  -2    1.45    0.06
  -9  -2  -2    1.36    0.06
   9  -2   2    1.32    0.07
  -9  -2  -2    1.42    0.08
   9  -2   2    1.37    0.08
  -9   2  -3    8.53    0.19
   9   2   3    8.71    0.19
   9  -2  -3    9.05    0.19
   9  -2  -3    8.85    0.16
   9   2   3    8.70    0.18
   9  -2  -3    8.70    0.18
   9   2  -3    8.56    0.18
   9  -2   3    8.93    0.19
  -9  -2  -3    8.64    0.17
  -9  -2  -3    8.78    0.17
   9  -2   3    8.72    0.18
   9   2   4    2.74    0.12
  -9   2  -4    2.79    0.12
   9  -2  -4    3.01    0.11
   9  -2  -4    2.83    0.12
  -9  -2  -4    2.79    0.10
   9  -2   4    2.73    0.12
   9   2  -4    2.76    0.11
  -9  -2  -4    2.78    0.11
   9  -2   4    2.87    0.12
   9   2   5    0.46    0.07
   9  -2  -5    0.40    0.06
   9  -2  -5    0.51    0.07
  -9   2  -5    0.44    0.07
  -9  -2  -5    0.50    0.06
   9   2  -5    0.53    0.06
  -9  -2  -5    0.37    0.06
   9  -2   5    0.35    0.06
   9  -2   5    0.59    0.08
   9  -2  -6   13.05    0.27
   9   2   6   12.92    0.29
  -9   2  -6   13.13    0.29
   9  -2  -6   13.01    0.28
   9  -2   6   13.11    0.29
  -9  -2  -6   12.71    0.25
   9   2  -6   12.87    0.26
  -9  -2  -6   13.38    0.27
   9  -2  -7    1.01    0.10
   9   2   7    1.08    0.12
   9  -2   7    0.99    0.11
  -9  -2  -7    0.95    0.09
   9  -3   0    0.01    0.04
   9  -3   0    0.03    0.03
   9  -3   0   -0.05    0.03
   9  -3  -1    7.92    0.18
   9  -3  -1    8.08    0.17
   9   3   1    8.12    0.15
   9  -3  -1    8.40    0.16
  -9  -3  -1    8.13    0.16
  -9  -3  -1    8.10    0.11
   9  -3   1    8.12    0.15
   9  -3   1    8.08    0.17
   9   3   2    2.69    0.10
   9  -3  -2    2.40    0.09
   9  -3  -2    2.45    0.10
   9  -3  -2    2.75    0.11
  -9  -3  -2    2.63    0.10
   9  -3   2    2.53    0.11
   9  -3   2    2.59    0.09
  -9  -3  -2    2.61    0.07
   9  -3  -3   19.96    0.32
   9  -3  -3   19.80    0.30
   9   3   3   20.49    0.31
   9  -3  -3   20.93    0.29
   9  -3   3   20.13    0.31
   9  -3   3   20.02    0.30
  -9  -3  -3   20.25    0.28
   9   3  -3   19.93    0.30
  -9  -3  -3   20.29    0.30
   9  -3  -4    4.41    0.14
   9  -3  -4    4.95    0.16
  -9   3  -4    4.65    0.15
   9   3   4    4.39    0.15
   9   3  -4    4.73    0.14
   9  -3   4    4.50    0.15
   9  -3   4    4.49    0.14
  -9  -3  -4    4.46    0.13
  -9  -3  -4    4.25    0.14
   9   3   5    0.61    0.08
   9  -3  -5    0.74    0.08
  -9   3  -5    0.66    0.08
   9  -3  -5    0.60    0.08
  -9  -3  -5    0.53    0.07
  -9  -3  -5    0.60    0.07
   9  -3   5    0.60    0.08
   9  -3   5    0.78    0.08
   9   3  -5    0.82    0.08
   9  -3  -6    1.59    0.12
  -9   3  -6    1.57    0.18
   9   3   6    1.75    0.13
   9  -3  -6    1.60    0.11
   9  -3   6    1.95    0.14
  -9  -3  -6    1.41    0.10
  -9  -3  -6    1.85    0.12
   9  -3  -7    4.56    0.18
   9   3   7    4.68    0.20
   9  -3   7    5.01    0.21
  -9  -3  -7    4.83    0.17
   9  -4   0    0.05    0.04
   9  -4   0   -0.03    0.04
   9  -4   0    0.02    0.03
   9  -4  -1    4.52    0.14
   9  -4  -1    4.40    0.13
   9  -4  -1    4.64    0.12
  -9  -4  -1    4.29    0.12
   9  -4   1    4.34    0.13
   9  -4   1    4.33    0.11
   9  -4  -2    8.44    0.18
   9  -4  -2    8.38    0.20
   9   4   2    8.54    0.18
   9  -4  -2    8.61    0.17
   9  -4   2    8.36    0.19
  -9  -4  -2    8.38    0.18
   9  -4   2    8.70    0.17
   9  -4  -3   28.62    0.38
   9   4   3   27.83    0.40
   9  -4  -3   28.00    0.42
   9  -4  -3   27.77    0.38
   9  -4   3   27.55    0.39
   9  -4   3   28.36    0.39
  -9  -4  -3   28.02    0.39
  -9   4  -4    4.81    0.16
   9  -4  -4    5.26    0.15
   9   4   4    5.33    0.17
   9  -4  -4    5.37    0.17
   9  -4   4    5.19    0.16
  -9  -4  -4    5.35    0.16
   9  -4   4    5.26    0.16
   9   4  -4    5.36    0.14
  -9  -4  -4    5.10    0.13
  -9   4  -5   20.90    0.37
   9  -4  -5   20.87    0.35
   9   4   5   20.51    0.37
   9  -4  -5   19.84    0.36
  -9  -4  -5   20.66    0.32
  -9  -4  -5   20.39    0.34
   9  -4   5   20.97    0.37
   9  -4  -6    0.00    0.05
   9   4   6    0.04    0.06
   9  -4   6   -0.06    0.07
  -9  -4  -6    0.07    0.06
   9  -5   0    0.03    0.04
  -9  -5   0   -0.03    0.03
   9  -5   0   -0.02    0.04
   9  -5  -1   12.56    0.21
   9  -5  -1   12.22    0.23
   9  -5  -1   12.50    0.25
  -9  -5  -1   12.34    0.22
   9  -5   1   12.51    0.22
   9  -5   1   12.68    0.24
   9  -5  -2    0.40    0.06
   9  -5  -2    0.47    0.06
   9  -5  -2    0.52    0.07
   9  -5   2    0.42    0.06
  -9  -5  -2    0.44    0.06
   9  -5   2    0.29    0.06
   9  -5  -3   41.92    0.56
   9  -5  -3   42.23    0.53
   9  -5  -3   42.26    0.53
   9   5   3   42.30    0.55
   9  -5   3   41.51    0.54
  -9  -5  -3   42.06    0.53
   9  -5   3   41.82    0.54
   9  -5  -4    3.16    0.14
   9   5   4    2.75    0.13
   9  -5  -4    2.81    0.13
   9  -5  -4    3.03    0.12
  -9   5  -4    2.70    0.13
   9  -5   4    3.07    0.14
  -9  -5  -4    2.88    0.13
   9  -5   4    3.38    0.13
   9  -5  -5   14.22    0.31
  -9   5  -5   14.98    0.31
   9  -5  -5   14.82    0.29
   9   5   5   14.36    0.31
   9  -5   5   14.91    0.31
  -9  -5  -5   15.09    0.29
   9  -5  -6    6.23    0.20
   9   5   6    6.64    0.23
   9  -5   6    6.50    0.23
  -9  -5  -6    6.72    0.20
  -9  -6   0    0.03    0.04
   9  -6   0   -0.06    0.04
   9  -6  -1    3.44    0.13
  -9  -6   1    3.32    0.11
  -9  -6   1    3.18    0.14
   9  -6  -1    3.41    0.14
   9  -6   1    3.32    0.13
   9  -6   1    3.14    0.12
  -9  -6  -1    3.24    0.12
   9  -6  -2    2.38    0.11
   9  -6  -2    2.40    0.12
   9  -6  -2    2.47    0.13
   9  -6   2    2.50    0.11
  -9  -6  -2    2.61    0.12
   9  -6   2    2.50    0.12
   9  -6  -3   12.06    0.27
   9  -6  -3   11.98    0.24
   9  -6  -3   12.05    0.23
   9  -6   3   11.77    0.25
   9  -6   3   11.82    0.25
  -9  -6  -3   12.35    0.24
   9  -6  -4    0.01    0.06
   9   6   4    0.06    0.06
   9  -6  -4    0.05    0.05
   9  -6  -4    0.03    0.04
   9  -6   4    0.08    0.06
   9  -6   4    0.13    0.06
  -9  -6  -4    0.07    0.06
   9   6   5    5.43    0.20
  -9   6  -5    4.92    0.20
   9  -6  -5    5.32    0.18
  -9  -6  -5    5.23    0.18
  -9  -6  -5    5.48    0.18
   9  -6   5    5.28    0.20
   9   6   6    2.51    0.16
   9  -6  -6    2.22    0.14
   9  -6   6    2.20    0.16
   9  -7   0    0.05    0.05
  -9  -7   0    0.01    0.04
  -9  -7   0   -0.03    0.04
   9  -7  -1    2.42    0.13
  -9  -7   1    2.78    0.13
   9  -7  -1    2.63    0.13
   9  -7   1    2.80    0.13
  -9  -7  -1    2.77    0.12
  -9  -7  -1    2.82    0.12
   9  -7   1    2.62    0.12
   9  -7  -2    1.18    0.10
   9  -7  -2    1.45    0.11
  -9  -7  -2    1.32    0.10
   9  -7   2    1.34    0.10
  -9  -7  -2    1.44    0.10
   9  -7   2    1.40    0.10
   9  -7  -3    6.35    0.19
   9  -7  -3    6.38    0.20
   9  -7   3    6.41    0.19
  -9  -7  -3    6.08    0.18
   9  -7   3    6.08    0.19
  -9  -7  -3    6.00    0.19
   9  -7  -4    3.42    0.15
   9  -7  -4    3.10    0.14
  -9  -7  -4    3.45    0.15
   9  -7   4    3.36    0.16
  -9  -7  -4    3.42    0.15
   9  -7  -5    0.00    0.06
   9  -7   5    0.15    0.07
  -9  -7  -5    0.08    0.06
  -9  -7  -5   -0.03    0.06
   9  -8   0    0.03    0.05
  -9  -8   0   -0.01    0.04
   9  -8  -1    1.25    0.11
   9  -8  -1    1.23    0.10
  -9  -8  -1    1.25    0.09
   9  -8   1    1.10    0.10
  -9  -8  -1    1.26    0.10
   9  -8   1    1.28    0.10
   9  -8  -2    1.25    0.11
  -9  -8  -2    1.15    0.10
  -9  -8  -2    1.37    0.11
   9  -8   2    1.57    0.12
   9  -8   2    1.43    0.11
   9  -8  -3    3.85    0.16
  -9  -8  -3    4.06    0.17
   9  -8   3    4.04    0.17
  -9  -8  -3    3.88    0.16
   9  -8   3    4.05    0.17
   9  -8  -4    0.10    0.06
  -9  -8  -4    0.04    0.06
  -9  -8  -4    0.06    0.06
   9  -8   4   -0.07    0.06
   9  -9   0   -0.05    0.06
  -9  -9   0    0.05    0.05
   9  -9  -1    4.05    0.17
  -9  -9  -1    3.96    0.17
   9  -9   1    3.75    0.16
   9  -9   1    3.91    0.17
  -9  -9  -1    4.12    0.16
   9  -9  -2    0.06    0.06
   9  -9   2   -0.04    0.06
   9  -9   2    0.04    0.06
  -9  -9  -2    0.04    0.06
  -9  -9  -2    0.11    0.06
   9  -9  -3   13.87    0.31
  -9  -9  -3   13.86    0.31
   9  -9   3   14.06    0.31
  -9  -9  -3   13.67    0.29
   9  -9   3   13.99    0.30
  10   0   0   25.19    0.33
  10   0   0   25.30    0.34
  10   0   1    0.32    0.05
  10   0  -1    0.34    0.04
  10   0  -1    0.28    0.04
  10   0  -1    0.36    0.05
 -10   0  -2   57.65    0.63
  10   0   2   57.09    0.66
  10   0  -2   57.45    0.65
  10   0   2   58.12    0.62
  10   0  -2   57.70    0.62
  10   0  -2   57.92    0.65
 -10   0  -2   57.28    0.65
 -10   0  -3    2.65    0.11
 -10   0  -3    2.56    0.09
  10   0  -3    2.47    0.11
  10   0   3    2.35    0.11
  10   0   3    2.30    0.10
 -10   0  -4   84.12    0.88
 -10   0  -4   82.29    0.92
  10   0  -4   82.64    0.92
  10   0   4   81.89    0.92
  10   0   4   84.51    0.92
 -10   0  -5    8.21    0.21
  10   0   5    8.32    0.21
 -10   0  -5    8.38    0.18
  10   0   5    8.09    0.20
  10   0  -5    8.24    0.20
  10   0  -6   48.04    0.63
  10   0   6   49.94    0.67
  10   0   7    2.41    0.16
  10   0  -7    2.35    0.14
  10  -1   0    0.04    0.04
  10  -1   0    0.07    0.04
  10   1   0    0.04    0.03
  10  -1  -1   35.74    0.43
  10  -1  -1   35.53    0.44
  10   1   1   36.29    0.45
  10  -1  -1   36.11    0.45
  10   1  -1   35.68    0.43
  10  -1   1   36.06    0.45
  10   1   2    1.51    0.07
  10  -1  -2    1.41    0.08
  10  -1  -2    1.58    0.08
  10   1   2    1.34    0.09
  10  -1  -2    1.50    0.07
  10   1  -2    1.38    0.08
  10  -1   2    1.46    0.07
 -10  -1  -2    1.50    0.07
  10   1  -2    1.44    0.07
 -10  -1  -2    1.46    0.08
  10  -1   2    1.51    0.09
  10   1   3   24.55    0.36
 -10   1  -3   25.49    0.33
 -10   1  -3   24.55    0.36
  10   1   3   24.96    0.35
  10  -1  -3   25.23    0.36
  10  -1  -3   25.24    0.36
  10  -1   3   25.45    0.37
 -10  -1  -3   25.31    0.35
  10  -1   3   25.24    0.35
 -10  -1  -3   25.96    0.35
  10   1  -3   25.59    0.36
  10   1   4   10.15    0.22
  10  -1  -4   10.54    0.22
  10   1   4   10.04    0.22
 -10   1  -4   10.26    0.22
  10  -1  -4   10.34    0.21
  10  -1   4   10.18    0.22
  10  -1   4   10.14    0.21
 -10  -1  -4   10.31    0.20
  10   1  -4   10.32    0.21
 -10  -1  -4   10.09    0.21
  10   1   5    8.13    0.21
 -10   1  -5    7.81    0.21
  10  -1  -5    8.06    0.20
  10  -1   5    7.81    0.21
 -10  -1  -5    8.20    0.18
  10   1  -5    8.08    0.20
 -10  -1  -5    8.06    0.20
  10  -1   5    8.34    0.20
  10   1   6    7.03    0.22
  10  -1  -6    6.87    0.20
 -10  -1  -6    6.87    0.18
  10   1  -6    7.10    0.19
  10  -1   6    6.78    0.21
  10   1   7    0.02    0.06
  10  -1  -7    0.06    0.06
  10   1  -7    0.03    0.05
  10  -1   7    0.02    0.07
  10  -2   0  119.82    1.23
  10  -2   0  119.07    1.20
  10   2   0  118.63    1.21
 -10  -2   0  119.14    1.15
  10  -2   0  119.51    1.22
  10  -2  -1    1.28    0.08
  10   2   1    1.30    0.08
  10  -2  -1    1.33    0.08
  10  -2  -1    1.27    0.08
  10   2  -1    1.43    0.07
 -10  -2  -1    1.24    0.06
  10  -2   1    1.42    0.08
  10   2   2   51.99    0.61
  10  -2  -2   50.48    0.61
  10  -2  -2   51.23    0.60
  10   2   2   51.75    0.58
  10  -2  -2   51.87    0.59
  10  -2   2   52.30    0.58
 -10  -2  -2   51.06    0.56
  10  -2   2   52.19    0.61
  10   2  -2   51.86    0.60
 -10  -2  -2   51.41    0.59
  10  -2  -3   20.08    0.32
  10   2   3   20.56    0.30
  10   2   3   20.10    0.32
  10  -2  -3   20.04    0.28
  10  -2  -3   20.06    0.31
 -10   2  -3   19.62    0.32
 -10  -2  -3   20.32    0.30
  10  -2   3   19.78    0.30
  10   2  -3   20.22    0.31
 -10  -2  -3   20.20    0.29
  10  -2   3   19.97    0.32
  10  -2  -4   -0.01    0.04
  10  -2  -4    0.04    0.04
 -10   2  -4    0.11    0.05
  10   2   4    0.08    0.05
 -10  -2  -4   -0.01    0.04
  10   2  -4    0.07    0.04
  10  -2   4    0.11    0.05
  10  -2   4    0.11    0.05
 -10  -2  -4    0.06    0.04
  10  -2  -5   21.43    0.36
  10  -2  -5   20.44    0.34
 -10   2  -5   20.28    0.36
  10   2   5   20.74    0.36
 -10  -2  -5   20.71    0.33
  10  -2   5   21.14    0.36
  10  -2   5   20.93    0.34
 -10  -2  -5   21.15    0.34
  10   2  -5   20.89    0.34
  10  -2  -6    6.72    0.20
  10   2   6    6.44    0.21
  10   2  -6    7.21    0.19
  10  -2   6    6.76    0.22
 -10  -2  -6    7.27    0.19
  10  -2  -7    2.33    0.14
  10   2   7    2.72    0.16
  10   2  -7    2.39    0.13
  10  -2   7    2.52    0.16
 -10  -2  -7    2.48    0.13
  10  -3   0    0.39    0.05
  10  -3   0    0.57    0.07
  10  -3   0    0.60    0.05
  10  -3  -1    0.75    0.06
  10  -3  -1    0.73    0.07
  10  -3  -1    0.64    0.07
 -10  -3  -1    0.75    0.07
  10  -3   1    0.69    0.07
  10  -3  -2    7.14    0.18
  10  -3  -2    7.51    0.16
  10   3   2    7.41    0.16
  10  -3  -2    7.19    0.16
  10  -3   2    7.27    0.17
  10  -3   2    7.40    0.16
 -10  -3  -2    7.39    0.17
 -10  -3  -2    7.45    0.13
  10  -3  -3    0.36    0.05
  10   3   3    0.34    0.05
  10  -3  -3    0.30    0.05
  10  -3  -3    0.35    0.06
  10  -3   3    0.22    0.05
  10  -3   3    0.27    0.05
 -10  -3  -3    0.34    0.06
  10   3  -3    0.32    0.05
 -10  -3  -3    0.39    0.05
  10  -3  -4   18.02    0.32
 -10   3  -4   17.94    0.32
  10  -3  -4   17.89    0.30
  10   3   4   17.80    0.31
 -10  -3  -4   18.13    0.30
  10  -3   4   17.19    0.30
 -10  -3  -4   17.91    0.28
  10   3  -4   17.52    0.29
  10  -3   4   17.64    0.31
  10   3   5    0.02    0.05
 -10   3  -5    0.08    0.05
  10  -3  -5    0.11    0.05
  10  -3  -5    0.12    0.05
  10  -3   5    0.07    0.05
 -10  -3  -5    0.02    0.05
  10   3  -5    0.05    0.04
 -10  -3  -5    0.10    0.05
  10  -3   5    0.14    0.06
  10  -3  -6    6.99    0.20
  10  -3  -6    6.91    0.26
  10   3   6    6.89    0.22
  10   3  -6    6.96    0.21
 -10  -3  -6    7.04    0.20
  10  -3   6    7.03    0.22
  10  -4   0    3.23    0.10
  10  -4   0    3.37    0.13
  10  -4   0    3.48    0.12
  10  -4  -1   -0.05    0.04
  10  -4  -1    0.07    0.05
  10  -4  -1    0.03    0.04
 -10  -4  -1    0.07    0.04
  10  -4   1   -0.06    0.04
  10  -4  -2   16.11    0.29
  10   4   2   16.71    0.27
  10  -4  -2   16.61    0.27
  10  -4  -2   16.43    0.26
  10  -4   2   16.77    0.26
  10  -4   2   16.48    0.29
 -10  -4  -2   16.34    0.27
  10  -4  -3    4.28    0.13
  10   4   3    4.18    0.14
  10  -4  -3    4.27    0.15
  10  -4  -3    4.31    0.14
  10  -4   3    4.31    0.15
 -10  -4  -3    4.06    0.14
  10  -4   3    4.16    0.14
  10  -4  -4   42.01    0.58
 -10   4  -4   42.26    0.58
  10  -4  -4   41.75    0.55
  10   4   4   41.48    0.56
 -10  -4  -4   41.92    0.54
  10  -4   4   42.41    0.56
  10  -4   4   41.81    0.55
 -10   4  -5    7.65    0.22
  10   4   5    7.81    0.22
  10  -4  -5    7.67    0.21
  10  -4  -5    8.09    0.23
  10  -4   5    7.90    0.22
 -10  -4  -5    7.45    0.20
  10  -4   5    7.87    0.22
 -10  -4  -5    7.87    0.19
  10   4   6   31.25    0.51
  10  -4  -6   31.05    0.48
 -10  -4  -6   31.36    0.48
  10  -4   6   32.02    0.52
 -10  -5   0    0.82    0.07
  10  -5   0    0.87    0.08
  10  -5   0    0.82    0.08
  10  -5  -1   76.68    0.88
  10  -5  -1   78.36    0.87
  10  -5  -1   76.87    0.89
 -10  -5  -1   77.82    0.85
  10  -5   1   77.00    0.87
  10  -5  -2    0.00    0.05
  10  -5  -2    0.06    0.04
  10  -5  -2    0.02    0.04
  10  -5   2   -0.05    0.04
  10  -5   2    0.02    0.04
 -10  -5  -2   -0.02    0.05
  10  -5  -3   47.27    0.58
  10   5   3   46.30    0.60
  10  -5  -3   46.34    0.58
  10  -5  -3   46.44    0.62
  10  -5   3   47.34    0.59
 -10  -5  -3   45.50    0.58
  10  -5   3   45.82    0.59
  10   5   4    3.21    0.14
  10  -5  -4    3.31    0.14
  10  -5  -4    3.09    0.15
 -10   5  -4    3.11    0.14
 -10  -5  -4    3.10    0.13
  10  -5   4    3.18    0.14
  10  -5   4    3.05    0.14
  10  -5  -5   15.35    0.30
 -10   5  -5   15.47    0.47
  10   5   5   15.80    0.33
  10  -5   5   16.17    0.33
 -10  -5  -5   15.63    0.31
  10   5   6    3.46    0.18
  10  -5  -6    3.87    0.17
  10  -5   6    3.47    0.18
 -10  -5  -6    3.90    0.17
 -10  -6   0   16.32    0.28
  10  -6   0   17.15    0.30
  10  -6  -1    0.00    0.05
 -10  -6   1    0.10    0.04
  10  -6  -1    0.07    0.05
  10  -6   1    0.09    0.05
 -10  -6  -1   -0.05    0.04
  10  -6  -2    3.17    0.15
  10  -6  -2    3.18    0.13
 -10  -6  -2    3.30    0.13
  10  -6   2    3.48    0.13
  10  -6   2    3.08    0.14
  10  -6  -3    4.60    0.16
  10  -6  -3    4.75    0.18
  10  -6  -3    4.58    0.15
  10  -6   3    4.69    0.17
  10  -6   3    4.57    0.16
 -10  -6  -3    4.91    0.16
  10  -6  -4    4.04    0.15
  10  -6  -4    3.97    0.15
  10   6   4    4.05    0.16
 -10  -6  -4    3.90    0.16
  10  -6   4    4.08    0.16
  10  -6   4    4.10    0.16
  10  -6  -5    8.02    0.22
  10   6   5    7.91    0.24
 -10  -6  -5    7.86    0.22
  10  -6   5    7.80    0.23
 -10  -7   0    0.12    0.05
  10  -7   0    0.22    0.06
 -10  -7   0    0.22    0.06
  10  -7  -1    5.66    0.18
  10  -7  -1    6.03    0.19
 -10  -7   1    5.77    0.16
 -10  -7  -1    5.74    0.17
  10  -7   1    5.68    0.18
 -10  -7  -1    6.12    0.17
  10  -7  -2    3.75    0.16
  10  -7  -2    3.94    0.15
 -10  -7  -2    3.54    0.14
  10  -7   2    3.76    0.16
 -10  -7  -2    3.46    0.14
  10  -7   2    3.66    0.14
  10  -7  -3    1.24    0.10
  10  -7   3    1.18    0.11
 -10  -7  -3    1.25    0.10
 -10  -7  -3    1.16    0.10
  10  -7   3    1.09    0.10
  10  -7  -4    9.26    0.23
  10  -7  -4    9.35    0.23
  10  -7   4    9.26    0.25
  10  -7   4    8.99    0.24
 -10  -7  -4    9.55    0.24
 -10  -7  -4    9.29    0.24
  10  -8   0    4.95    0.18
 -10  -8   0    4.69    0.16
  10  -8  -1    0.86    0.09
  10  -8   1    0.82    0.10
 -10  -8  -1    1.01    0.09
 -10  -8  -1    0.89    0.09
  10  -8  -2    0.33    0.07
 -10  -8  -2    0.23    0.07
  10  -8   2    0.25    0.07
  10  -8   2    0.26    0.07
 -10  -8  -2    0.23    0.07
  10  -8  -3    4.47    0.17
 -10  -8  -3    4.11    0.17
  10  -8   3    4.69    0.18
 -10  -8  -3    4.19    0.17
  10  -8   3    4.26    0.17
  10  -9   0    0.07    0.06
  10  -9  -1   26.49    0.44
  10  -9   1   25.99    0.44
 -10  -9  -1   25.07    0.42
  10  -9  -2    0.04    0.06
 -10  -9  -2    0.01    0.06
  10  -9   2    0.01    0.06
 -10  -9  -2   -0.05    0.06
  11   0   0    0.00    0.03
  11   0   0   -0.03    0.04
  11   0  -1   18.51    0.27
  11   0  -1   18.20    0.28
  11   0   1   17.39    0.28
  11   0  -2    0.18    0.05
  11   0  -2    0.11    0.04
 -11   0  -2    0.09    0.04
  11   0   2    0.07    0.04
 -11   0  -2    0.10    0.04
 -11   0  -3   63.31    0.69
 -11   0  -3   63.14    0.72
  11   0   3   61.86    0.73
  11   0   3   61.96    0.70
  11   0  -3   63.00    0.73
 -11   0  -4    0.08    0.04
 -11   0  -4    0.01    0.04
  11   0   4    0.03    0.05
  11   0  -4   -0.02    0.04
  11   0   4    0.06    0.05
  11   0   5   15.30    0.30
  11   0  -5   15.52    0.29
  11   0   5   15.75    0.30
 -11   0  -5   15.45    0.30
  11   0  -6    2.19    0.13
  11   0   6    2.21    0.14
  11  -1   0    0.01    0.04
  11   1   0   -0.01    0.03
  11  -1   0   -0.01    0.04
  11  -1  -1    0.04    0.03
  11   1   1    0.04    0.04
  11  -1  -1    0.01    0.04
  11  -1  -1    0.05    0.04
  11   1  -1    0.02    0.03
 -11  -1  -1    0.07    0.03
  11  -1   1    0.09    0.04
  11  -1  -2    4.55    0.13
  11   1   2    4.67    0.14
  11  -1  -2    4.44    0.12
  11  -1  -2    4.45    0.13
  11  -1   2    4.67    0.14
  11   1  -2    4.71    0.14
  11   1  -2    4.49    0.12
 -11  -1  -2    4.34    0.13
 -11  -1  -2    4.62    0.12
  11   1   3    0.24    0.05
  11  -1  -3    0.27    0.05
  11   1   3    0.24    0.05
 -11   1  -3    0.34    0.05
 -11   1  -3    0.24    0.05
 -11  -1  -3    0.23    0.05
  11  -1   3    0.22    0.05
  11  -1   3    0.34    0.06
  11   1  -3    0.34    0.06
 -11  -1  -3    0.25    0.05
  11   1   4    0.53    0.07
  11   1   4    0.55    0.07
 -11   1  -4    0.60    0.07
  11  -1  -4    0.69    0.07
 -11  -1  -4    0.63    0.07
  11  -1   4    0.64    0.07
  11   1  -4    0.51    0.07
 -11  -1  -4    0.59    0.07
  11  -1   4    0.48    0.07
  11  -1  -5    0.17    0.06
  11   1   5    0.22    0.06
  11   1   5    0.11    0.05
 -11   1  -5    0.12    0.05
  11  -1   5    0.22    0.06
 -11  -1  -5    0.22    0.06
 -11  -1  -5    0.19    0.05
  11   1  -5    0.18    0.06
  11  -1   5    0.17    0.06
  11   1   6    0.65    0.09
  11  -1  -6    0.77    0.09
  11   1  -6    0.74    0.09
  11  -1   6    0.75    0.10
  11  -1   6    0.62    0.13
  11   2   0   -0.04    0.03
  11  -2   0    0.00    0.04
  11  -2   0   -0.03    0.04
 -11  -2   0    0.04    0.03
  11  -2  -1    8.81    0.18
  11  -2  -1    8.60    0.18
  11   2   1    8.79    0.19
  11  -2  -1    8.70    0.19
 -11  -2  -1    8.65    0.15
  11   2  -1    8.78    0.17
  11  -2   1    8.80    0.19
  11  -2  -2   27.65    0.37
  11  -2  -2   27.42    0.40
  11  -2  -2   26.80    0.38
  11   2   2   27.13    0.39
  11  -2   2   27.20    0.39
 -11  -2  -2   28.23    0.35
 -11  -2  -2   27.29    0.37
 -11   2  -3   22.33    0.35
  11   2   3   21.85    0.33
  11  -2  -3   21.60    0.34
  11  -2  -3   22.28    0.35
  11   2   3   22.24    0.35
 -11  -2  -3   22.37    0.33
 -11  -2  -3   22.21    0.31
  11  -2   3   22.59    0.33
  11  -2   3   22.17    0.35
  11   2  -3   21.83    0.34
  11  -2  -4   29.60    0.44
  11  -2  -4   29.65    0.43
  11   2   4   30.69    0.43
 -11   2  -4   29.68    0.44
  11   2  -4   30.02    0.43
  11  -2   4   29.66    0.43
 -11  -2  -4   29.55    0.41
  11  -2   4   30.15    0.44
 -11  -2  -4   29.65    0.41
  11   2   5    3.21    0.14
 -11   2  -5    3.07    0.14
  11  -2  -5    3.06    0.14
  11   2  -5    3.20    0.14
 -11  -2  -5    3.23    0.13
 -11  -2  -5    3.29    0.13
  11  -2   5    3.01    0.14
  11  -2   5    3.18    0.14
  11   2   6   13.00    0.29
  11  -2  -6   12.82    0.28
 -11  -2  -6   12.78    0.27
  11  -2   6   12.11    0.29
  11   2  -6   12.29    0.27
  11  -3   0    0.05    0.04
  11  -3   0    0.06    0.04
  11   3   0   -0.02    0.03
  11  -3   0    0.02    0.04
  11   3   1    1.08    0.08
  11  -3  -1    1.04    0.08
  11  -3  -1    0.98    0.08
  11  -3  -1    0.97    0.08
  11  -3   1    1.19    0.09
 -11  -3  -1    0.93    0.07
  11  -3  -2    0.70    0.08
  11  -3  -2    0.73    0.07
  11  -3  -2    0.63    0.07
  11  -3   2    0.74    0.07
 -11  -3  -2    0.70    0.07
  11  -3  -3    4.22    0.15
  11   3   3    4.46    0.14
  11  -3  -3    4.49    0.14
  11  -3  -3    4.20    0.13
 -11  -3  -3    4.37    0.14
  11  -3   3    4.23    0.15
  11  -3   3    4.34    0.14
 -11  -3  -3    4.26    0.11
 -11   3  -4   -0.02    0.04
  11  -3  -4   -0.02    0.05
  11   3   4   -0.03    0.04
  11  -3  -4    0.02    0.05
 -11  -3  -4    0.03    0.05
  11  -3   4    0.04    0.05
  11   3  -4   -0.06    0.04
  11  -3   4    0.07    0.05
 -11  -3  -4   -0.02    0.04
  11   3   5    4.71    0.17
  11  -3  -5    4.40    0.17
 -11   3  -5    4.25    0.17
  11  -3  -5    4.50    0.16
 -11  -3  -5    4.38    0.16
 -11  -3  -5    4.30    0.15
  11   3  -5    4.37    0.15
  11  -3   5    4.40    0.16
  11  -3   5    4.47    0.17
  11   3   6    2.55    0.15
  11  -3  -6    2.50    0.14
  11   3  -6    2.10    0.12
  11  -3   6    2.52    0.16
 -11  -3  -6    2.49    0.14
  11  -4   0    0.03    0.04
  11  -4   0   -0.05    0.04
  11  -4  -1   11.94    0.23
  11  -4  -1   12.31    0.22
  11  -4  -1   12.27    0.25
 -11  -4  -1   11.26    0.22
  11  -4   1   11.87    0.24
  11  -4  -2    1.87    0.10
  11  -4  -2    1.60    0.10
  11  -4  -2    1.56    0.11
 -11  -4  -2    1.86    0.10
  11  -4   2    1.66    0.11
  11  -4  -3   39.59    0.52
  11   4   3   40.17    0.52
  11  -4  -3   40.19    0.51
  11  -4  -3   40.18    0.55
 -11  -4  -3   39.76    0.52
  11  -4   3   39.54    0.51
  11  -4   3   38.76    0.53
 -11   4  -4    1.60    0.11
  11  -4  -4    1.64    0.11
  11   4   4    1.32    0.10
  11  -4  -4    1.73    0.12
  11  -4   4    1.64    0.11
 -11  -4  -4    1.62    0.11
  11  -4   4    1.40    0.11
  11   4   5    9.58    0.24
  11  -4  -5    9.37    0.23
  11  -4  -5    9.19    0.25
 -11  -4  -5    9.12    0.23
  11  -4   5    9.69    0.24
  11  -4   5    9.29    0.23
  11   4  -5    9.01    0.22
  11  -4  -6    0.22    0.07
  11   4   6    0.17    0.07
 -11  -4  -6    0.10    0.06
  11  -4   6    0.10    0.07
 -11  -5   0    0.08    0.05
  11  -5   0    0.03    0.05
  11  -5  -1    0.64    0.08
  11  -5  -1    0.75    0.08
 -11  -5  -1    0.70    0.07
  11  -5   1    0.78    0.08
  11  -5  -2    5.77    0.17
  11  -5  -2    5.97    0.19
  11  -5  -2    5.63    0.16
  11  -5   2    5.71    0.17
 -11  -5  -2    5.77    0.17
  11  -5  -3    3.75    0.14
  11  -5  -3    4.20    0.17
  11   5   3    3.93    0.14
  11  -5  -3    3.69    0.14
  11  -5   3    4.03    0.16
  11  -5   3    3.95    0.14
 -11  -5  -3    3.90    0.15
 -11   5  -4    1.33    0.11
  11  -5  -4    1.39    0.12
  11  -5  -4    1.33    0.10
  11   5   4    1.38    0.11
  11  -5   4    1.47    0.11
 -11  -5  -4    1.37    0.10
  11  -5   4    1.20    0.10
  11  -5  -5    3.47    0.16
  11   5   5    3.45    0.16
 -11  -5  -5    3.83    0.16
  11  -5   5    3.72    0.17
 -11  -6   0    0.03    0.05
  11  -6   0    0.01    0.05
  11  -6  -1    5.15    0.17
 -11  -6   1    4.73    0.15
  11  -6  -1    5.10    0.17
 -11  -6  -1    5.17    0.16
  11  -6   1    5.22    0.17
  11  -6  -2    5.51    0.18
  11  -6  -2    5.28    0.18
  11  -6   2    5.23    0.18
 -11  -6  -2    5.61    0.17
  11  -6  -3   15.67    0.29
  11  -6  -3   16.04    0.30
  11  -6  -3   15.65    0.33
 -11  -6  -3   15.76    0.30
  11  -6   3   15.37    0.31
  11  -6   3   16.26    0.32
  11  -6  -4    5.47    0.18
  11   6   4    5.59    0.19
 -11  -6  -4    5.45    0.18
  11  -6   4    5.38    0.19
  11  -6   4    5.44    0.19
  11   6   5    2.90    0.16
  11  -6  -5    3.06    0.15
 -11  -6  -5    2.76    0.15
  11  -6   5    2.87    0.16
 -11  -7   0    0.04    0.05
 -11  -7   0    0.00    0.05
  11  -7   0    0.00    0.05
 -11  -7   1    0.89    0.08
  11  -7  -1    0.79    0.09
  11  -7  -1    0.92    0.10
 -11  -7  -1    0.89    0.09
 -11  -7  -1    0.96    0.09
  11  -7   1    0.82    0.09
  11  -7  -2    0.10    0.06
 -11  -7  -2    0.12    0.06
  11  -7   2    0.08    0.06
  11  -7  -3    3.92    0.16
 -11  -7  -3    4.02    0.16
  11  -7   3    3.77    0.17
 -11  -7  -3    3.81    0.16
  11  -7  -4    0.13    0.06
  11  -7  -4    0.12    0.07
 -11  -7  -4    0.16    0.07
  11  -7   4    0.01    0.06
  11  -7   4    0.06    0.06
 -11  -7  -4    0.02    0.06
  11  -8   0    0.08    0.06
 -11  -8   0    0.05    0.06
  11  -8  -1    3.59    0.16
 -11  -8  -1    3.75    0.16
  11  -8   1    3.71    0.17
 -11  -8  -1    4.02    0.16
  11  -8  -2    4.09    0.17
 -11  -8  -2    4.14    0.17
 -11  -8  -2    4.01    0.17
  11  -8   2    3.84    0.17
  11  -8  -3   11.57    0.28
 -11  -8  -3   11.18    0.27
 -11  -8  -3   11.43    0.28
  11  -8   3   11.27    0.28
  11  -9   0    0.02    0.07
  11  -9  -1    0.10    0.07
 -11  -9  -1    0.14    0.07
  11  -9   1    0.21    0.08
  12   0   0   94.32    1.00
  12   0   1   16.93    0.28
  12   0  -1   16.15    0.26
 -12   0  -2   24.88    0.36
  12   0   2   25.14    0.38
  12   0  -2   25.35    0.37
 -12   0  -2   25.44    0.35
  12   0  -2   25.59    0.34
  12   0   3    3.72    0.14
  12   0  -3    3.67    0.14
 -12   0  -3    3.93    0.12
 -12   0  -3    3.58    0.13
  12   0   4    0.04    0.05
  12   0  -4    0.04    0.05
  12   0   4    0.12    0.06
 -12   0  -4    0.04    0.04
 -12   0  -4    0.07    0.05
  12   0  -5    0.01    0.05
  12   0   5   -0.02    0.05
 -12   0  -5    0.02    0.05
  12   0   5    0.00    0.05
  12   0  -6    1.44    0.12
  12   0   6    1.45    0.12
  12   0   6    1.37    0.12
  12  -1   0   44.43    0.55
  12   1   0   44.85    0.54
  12  -1   0   44.08    0.55
  12  -1  -1    6.73    0.16
  12  -1  -1    6.90    0.17
  12   1   1    6.96    0.17
  12  -1  -1    6.77    0.17
 -12  -1  -1    6.86    0.15
  12  -1   1    6.60    0.17
  12   1  -1    6.77    0.16
  12  -1  -2   20.75    0.32
  12   1   2   20.52    0.33
  12  -1  -2   20.77    0.30
 -12  -1  -2   21.28    0.30
  12   1  -2   20.96    0.33
 -12  -1  -2   20.41    0.31
  12  -1   2   20.41    0.33
 -12   1  -3    0.30    0.05
 -12   1  -3    0.26    0.06
  12  -1  -3    0.40    0.06
  12   1   3    0.33    0.06
  12  -1   3    0.40    0.06
 -12  -1  -3    0.35    0.05
  12   1  -3    0.30    0.06
 -12  -1  -3    0.31    0.05
  12  -1  -4    0.79    0.08
  12   1   4    0.88    0.09
 -12   1  -4    0.82    0.08
  12   1   4    0.94    0.09
  12  -1   4    1.00    0.11
  12   1  -4    0.78    0.08
 -12  -1  -4    0.82    0.08
 -12  -1  -4    0.75    0.07
  12  -1   4    0.83    0.09
  12   1   5    3.31    0.15
  12  -1  -5    3.61    0.15
 -12   1  -5    3.50    0.20
  12   1   5    3.34    0.14
  12  -1   5    3.42    0.15
  12  -1   5    3.42    0.15
 -12  -1  -5    3.36    0.13
 -12  -1  -5    3.23    0.14
  12   1  -5    3.24    0.14
  12   1   6    0.88    0.10
  12  -1  -6    0.69    0.09
  12  -1   6    0.72    0.10
  12  -1   6    0.81    0.10
  12   1  -6    0.67    0.09
  12  -2   0    0.03    0.04
  12   2   0    0.02    0.04
  12  -2   0   -0.02    0.04
  12   2   1   55.68    0.66
  12  -2  -1   54.97    0.65
  12  -2  -1   55.79    0.66
  12  -2  -1   55.41    0.64
  12  -2   1   55.50    0.66
  12   2  -1   54.78    0.63
 -12  -2  -1   55.47    0.60
  12  -2  -2    1.24    0.09
  12  -2  -2    1.13    0.09
  12  -2  -2    1.10    0.08
  12   2   2    1.12    0.09
 -12  -2  -2    1.11    0.07
  12  -2   2    1.20    0.09
 -12  -2  -2    1.13    0.08
 -12   2  -3   37.26    0.50
  12   2   3   36.70    0.50
  12  -2  -3   35.94    0.49
  12  -2  -3   35.77    0.50
  12   2  -3   35.88    0.49
 -12  -2  -3   35.61    0.48
 -12  -2  -3   36.68    0.46
  12  -2   3   36.60    0.50
  12   2   4   12.79    0.29
  12  -2  -4   13.09    0.27
 -12   2  -4   13.23    0.28
 -12  -2  -4   13.20    0.25
  12   2  -4   13.86    0.27
 -12  -2  -4   13.06    0.25
  12  -2   4   13.37    0.27
  12  -2  -5   22.51    0.38
  12   2   5   22.55    0.38
  12  -2   5   23.15    0.39
  12   2  -5   22.23    0.38
  12  -2   5   22.61    0.38
 -12  -2  -5   22.53    0.36
 -12  -2  -5   23.00    0.37
  12  -2  -6   10.09    0.26
  12   2   6   10.04    0.26
  12  -2   6   10.01    0.26
 -12  -2  -6   10.11    0.24
  12   2  -6   10.09    0.25
  12  -3   0  112.12    1.18
  12  -3   0  108.78    1.17
  12   3   0  108.81    1.15
  12  -3  -1    1.04    0.08
  12  -3  -1    0.87    0.07
  12   3   1    0.92    0.08
  12  -3  -1    0.85    0.08
  12  -3   1    0.96    0.08
 -12  -3  -1    0.93    0.08
  12  -3  -2   61.75    0.73
  12  -3  -2   63.04    0.72
  12  -3  -2   61.97    0.75
 -12  -3  -2   63.54    0.73
  12  -3   2   62.75    0.75
  12  -3  -3    7.47    0.20
  12  -3  -3    7.38    0.18
  12  -3  -3    7.63    0.19
  12  -3   3    7.49    0.20
 -12  -3  -3    7.41    0.19
  12   3   4   10.17    0.26
 -12   3  -4   10.16    0.24
  12  -3  -4   10.06    0.23
  12  -3  -4    9.81    0.24
  12   3  -4   10.02    0.23
  12  -3   4   10.08    0.24
 -12  -3  -4    9.92    0.20
 -12  -3  -4   10.16    0.23
  12  -3  -5    7.66    0.22
  12   3   5    7.65    0.22
  12  -3  -5    7.34    0.22
 -12  -3  -5    7.34    0.20
  12  -3   5    7.01    0.21
 -12  -3  -5    7.28    0.19
  12   3  -5    7.46    0.20
  12  -3   5    7.26    0.21
  12   3   6    0.08    0.06
  12  -3  -6   -0.02    0.06
  12   3  -6    0.03    0.05
 -12  -3  -6    0.06    0.06
  12  -3   6   -0.02    0.06
  12  -4   0   38.62    0.53
  12  -4   0   39.22    0.52
  12  -4  -1    3.22    0.13
  12  -4  -1    3.00    0.12
  12  -4  -1    2.93    0.13
 -12  -4  -1    3.05    0.12
  12  -4   1    3.16    0.13
  12  -4  -2    9.93    0.24
  12  -4  -2    9.59    0.21
  12  -4  -2   10.13    0.22
 -12  -4  -2    9.81    0.22
  12  -4   2    9.80    0.23
  12  -4  -3    0.35    0.06
  12  -4  -3    0.28    0.07
  12  -4  -3    0.28    0.06
  12  -4   3    0.39    0.07
 -12  -4  -3    0.34    0.07
 -12   4  -4    0.58    0.08
  12  -4  -4    0.66    0.09
  12   4   4    0.64    0.13
  12  -4  -4    0.65    0.08
  12  -4   4    0.54    0.08
 -12  -4  -4    0.77    0.08
  12   4   5    0.31    0.07
  12  -4  -5    0.30    0.07
  12  -4   5    0.08    0.07
  12  -4   5    0.24    0.07
 -12  -4  -5    0.50    0.08
  12  -5   0    3.91    0.15
 -12  -5   0    4.03    0.14
  12  -5  -1   17.28    0.32
  12  -5  -1   17.59    0.31
  12  -5   1   17.59    0.32
 -12  -5  -1   17.33    0.30
  12  -5  -2    0.80    0.08
  12  -5  -2    0.79    0.08
  12  -5  -2    0.83    0.09
 -12  -5  -2    0.67    0.08
  12  -5   2    0.93    0.09
  12  -5  -3    1.03    0.09
  12  -5  -3    0.97    0.09
  12  -5  -3    0.94    0.10
  12  -5   3    0.84    0.09
 -12  -5  -3    0.97    0.09
  12  -5  -4    0.84    0.09
 -12  -5  -4    1.00    0.10
  12  -5   4    0.85    0.09
  12  -5  -5    0.43    0.08
  12   5   5    0.41    0.08
  12  -5   5    0.83    0.15
  12  -5   5    0.43    0.08
 -12  -5  -5    0.70    0.09
  12  -6   0    6.68    0.20
 -12  -6   0    7.08    0.19
  12  -6  -1    8.73    0.23
 -12  -6   1    8.49    0.21
  12  -6  -1    8.72    0.22
  12  -6   1    8.28    0.23
 -12  -6  -1    8.60    0.21
  12  -6  -2    0.69    0.09
  12  -6  -2    0.75    0.09
  12  -6   2    0.72    0.09
 -12  -6  -2    0.70    0.08
  12  -6  -3    7.62    0.20
  12  -6  -3    7.37    0.21
 -12  -6  -3    7.50    0.21
  12  -6   3    7.71    0.22
  12  -6  -4    2.86    0.14
 -12  -6  -4    3.04    0.15
  12  -6   4    3.04    0.16
 -12  -7   0   69.27    0.82
 -12  -7   0   69.89    0.82
  12  -7   0   71.31    0.86
  12  -7  -1    1.85    0.13
 -12  -7   1    1.71    0.12
 -12  -7  -1    1.89    0.13
  12  -7   1    2.00    0.14
  12  -7  -2   44.12    0.61
 -12  -7  -2   44.29    0.60
  12  -7   2   44.09    0.62
  12  -7  -3    5.42    0.19
 -12  -7  -3    5.56    0.19
  12  -7   3    5.32    0.20
  12  -8   0    2.90    0.16
 -12  -8   0    2.75    0.14
  12  -8  -1    1.95    0.14
  12  -8   1    1.81    0.14
 -12  -8  -1    1.93    0.13
 -12  -8  -1    1.71    0.13
  12  -8  -2    0.28    0.08
 -12  -8  -2    0.12    0.07
 -12  -8  -2    0.24    0.07
  12  -8   2    0.20    0.08
  13   0   0    0.07    0.04
  13   0   1    0.20    0.05
  13   0  -1    0.18    0.05
 -13   0  -2    0.57    0.06
  13   0   2    0.48    0.07
 -13   0  -2    0.40    0.06
  13   0  -2    0.42    0.06
  13   0  -2    0.60    0.07
 -13   0  -3    1.79    0.10
  13   0  -3    1.73    0.11
  13   0   3    2.02    0.12
 -13   0  -3    1.94    0.10
  13   0  -4    2.45    0.13
 -13   0  -4    2.42    0.12
 -13   0  -4    2.34    0.11
  13   0   4    2.49    0.13
  13   0   5   10.84    0.26
  13   0  -5   11.11    0.26
  13   0   6    4.31    0.18
  13   0   6    4.58    0.18
  13   0  -6    4.67    0.18
  13   1   0    0.00    0.04
  13  -1   0   -0.02    0.04
  13   1   1    3.62    0.13
  13  -1  -1    3.69    0.13
  13  -1  -1    3.60    0.13
 -13  -1  -1    3.51    0.11
  13   1  -1    3.59    0.12
  13  -1   1    3.51    0.14
  13  -1  -2    3.83    0.14
  13  -1  -2    3.94    0.12
  13   1   2    3.87    0.14
  13  -1   2    3.87    0.15
 -13  -1  -2    3.90    0.12
 -13  -1  -2    3.90    0.13
  13   1   3   10.25    0.23
 -13   1  -3    9.96    0.22
 -13   1  -3    9.97    0.20
  13  -1  -3    9.74    0.23
 -13  -1  -3   10.07    0.21
  13  -1   3   10.00    0.23
  13   1  -3   10.14    0.23
 -13  -1  -3   10.14    0.21
 -13   1  -4    0.43    0.07
  13   1   4    0.44    0.07
  13  -1  -4    0.44    0.07
 -13  -1  -4    0.59    0.07
  13   1  -4    0.56    0.08
  13  -1   4    0.48    0.08
 -13  -1  -4    0.61    0.07
  13  -1  -5    0.48    0.08
  13   1   5    0.51    0.08
 -13  -1  -5    0.45    0.07
  13  -1   5    0.39    0.08
  13   1  -5    0.51    0.08
  13  -1  -6    2.11    0.14
  13   1   6    2.09    0.14
  13  -1   6    1.92    0.14
  13  -1   6    1.95    0.14
  13   1  -6    2.01    0.13
  13  -2   0   -0.04    0.04
  13  -2   0    0.02    0.05
  13   2   0    0.04    0.04
  13  -2  -1    3.36    0.13
  13  -2  -1    3.33    0.12
  13   2   1    3.05    0.13
  13  -2  -1    2.97    0.12
  13  -2   1    3.25    0.13
  13   2  -1    3.07    0.11
  13  -2  -2   -0.05    0.04
  13  -2  -2    0.00    0.04
  13   2   2   -0.04    0.05
  13  -2  -2    0.04    0.05
 -13  -2  -2    0.02    0.04
  13  -2   2    0.03    0.05
 -13  -2  -2   -0.01    0.04
 -13   2  -3    8.79    0.22
  13   2   3    9.05    0.22
  13  -2  -3    9.08    0.22
  13   2  -3    8.61    0.21
  13  -2   3    9.19    0.22
 -13  -2  -3    8.81    0.21
 -13  -2  -3    8.65    0.18
  13  -2  -4    3.04    0.14
 -13   2  -4    2.89    0.14
 -13  -2  -4    3.17    0.14
  13   2  -4    3.03    0.14
  13  -2   4    3.44    0.15
 -13  -2  -4    2.94    0.12
  13  -2  -5    4.39    0.17
 -13  -2  -5    4.38    0.16
  13   2  -5    4.40    0.17
  13  -2   5    4.74    0.18
  13  -3   0   -0.11    0.04
  13   3   0    0.00    0.04
  13  -3  -1    4.78    0.15
  13  -3  -1    4.53    0.15
  13   3   1    4.42    0.15
  13  -3  -1    4.45    0.14
 -13  -3  -1    4.53    0.15
  13  -3   1    4.24    0.15
  13   3  -1    4.41    0.13
  13  -3  -2   10.14    0.22
  13  -3  -2    9.68    0.23
  13  -3  -2    9.91    0.22
 -13  -3  -2    9.91    0.22
  13  -3   2   10.19    0.23
  13  -3  -3    9.77    0.23
  13  -3  -3    9.78    0.24
 -13  -3  -3    9.72    0.22
  13  -3   3    9.56    0.23
  13  -3  -4    9.45    0.28
  13  -3  -4    9.55    0.23
 -13  -3  -4    9.86    0.23
  13  -3   4    9.49    0.24
  13  -3  -5    0.43    0.08
  13  -3   5    0.25    0.07
  13   3  -5    0.21    0.06
 -13  -3  -5    0.30    0.07
  13  -4   0    0.00    0.05
  13  -4  -1    0.09    0.05
  13  -4  -1    0.03    0.05
  13  -4  -1    0.07    0.05
 -13  -4  -1    0.12    0.05
  13  -4   1   -0.04    0.05
  13  -4  -2    0.22    0.06
  13  -4  -2    0.07    0.06
  13  -4  -2    0.06    0.05
 -13  -4  -2    0.11    0.06
  13  -4   2    0.12    0.06
  13  -4  -3    0.20    0.07
  13  -4  -3    0.06    0.05
  13  -4  -3    0.16    0.06
  13  -4   3    0.11    0.06
 -13  -4  -3    0.12    0.06
  13  -4  -4    1.56    0.13
  13  -4  -4    1.47    0.11
 -13  -4  -4    1.60    0.12
  13  -4   4    1.52    0.12
  13  -4  -5    3.11    0.16
  13  -4   5    3.22    0.16
 -13  -4  -5    3.18    0.16
  13  -5   0    0.03    0.05
 -13  -5   0   -0.06    0.05
  13  -5  -1    1.60    0.12
  13  -5  -1    1.60    0.12
 -13  -5  -1    1.62    0.11
  13  -5   1    1.73    0.12
  13  -5  -2    0.43    0.08
  13  -5  -2    0.42    0.07
  13  -5  -2    0.44    0.07
  13  -5   2    0.42    0.08
 -13  -5  -2    0.31    0.07
  13  -5  -3    5.95    0.27
  13  -5  -3    5.87    0.18
  13  -5  -3    6.00    0.18
  13  -5   3    6.02    0.20
 -13  -5  -3    6.16    0.19
  13  -5  -4    1.01    0.10
 -13  -5  -4    1.11    0.11
  13  -5   4    0.96    0.11
  13  -6   0   -0.04    0.06
 -13  -6   0    0.01    0.06
 -13  -6   1    0.42    0.08
  13  -6  -1    0.46    0.08
 -13  -6  -1    0.34    0.07
  13  -6   1    0.60    0.09
  13  -6  -2    0.08    0.06
  13  -6   2    0.06    0.06
 -13  -6  -2    0.01    0.06
  13  -6  -3    1.15    0.10
 -13  -6  -3    0.96    0.10
  13  -6   3    0.86    0.10
  13  -6  -4    2.05    0.14
  13  -6   4    1.95    0.14
 -13  -6  -4    1.91    0.14
  13  -7   0    0.00    0.06
 -13  -7   0   -0.04    0.06
 -13  -7   1    2.03    0.13
  13  -7  -1    1.94    0.14
 -13  -7  -1    2.27    0.14
  13  -7   1    2.14    0.15
  13  -7  -2    6.43    0.21
 -13  -7  -2    6.34    0.20
  13  -7   2    6.32    0.22
  13  -7  -3    4.23    0.18
  13  -7   3    4.40    0.19
 -13  -7  -3    4.07    0.18
  13  -8   0   -0.04    0.06
 -13  -8   0    0.02    0.06
  14   0   0   17.47    0.30
  14   0  -1   61.71    0.72
  14   0   1   62.27    0.75
  14   0   2   16.83    0.31
 -14   0  -2   16.53    0.28
 -14   0  -2   16.55    0.28
  14   0  -2   16.22    0.30
  14   0   3   22.36    0.38
  14   0  -3   21.95    0.37
 -14   0  -3   21.77    0.34
 -14   0  -3   22.18    0.35
  14   0  -4   13.79    0.29
  14   0   4   13.89    0.29
 -14   0  -4   14.07    0.26
 -14   0  -4   13.86    0.30
  14   0  -5    3.00    0.16
  14   0   5    2.87    0.16
  14  -1   0   61.46    0.73
  14   1   0   61.54    0.73
  14   1   1   20.90    0.34
  14  -1  -1   20.94    0.33
  14  -1   1   20.70    0.34
 -14  -1  -1   20.65    0.30
  14   1  -1   20.42    0.32
  14  -1  -2   25.60    0.37
  14  -1  -2   25.55    0.39
  14   1   2   25.60    0.40
 -14  -1  -2   25.99    0.38
 -14  -1  -2   25.34    0.36
  14  -1   2   25.52    0.40
 -14   1  -3    5.24    0.23
 -14   1  -3    5.65    0.17
  14  -1  -3    5.67    0.18
  14   1   3    5.60    0.18
  14  -1   3    5.64    0.18
 -14  -1  -3    5.20    0.16
 -14  -1  -3    5.63    0.16
  14   1  -3    5.30    0.17
  14  -1  -4    0.19    0.07
  14   1   4    0.24    0.07
  14  -1   4    0.19    0.07
 -14  -1  -4    0.18    0.06
 -14  -1  -4    0.25    0.06
  14   1  -4    0.20    0.07
  14   1   5    0.07    0.06
  14  -1  -5    0.05    0.06
 -14  -1  -5   -0.02    0.05
  14   1  -5    0.00    0.06
  14  -1   5    0.13    0.06
  14  -2   0    4.20    0.15
  14   2   0    4.25    0.14
  14  -2  -1   -0.02    0.04
  14  -2  -1    0.09    0.05
  14   2   1   -0.01    0.05
  14   2  -1    0.07    0.04
  14  -2   1    0.04    0.05
  14  -2  -2    2.66    0.13
  14   2   2    2.54    0.13
  14  -2  -2    2.88    0.12
  14  -2   2    2.90    0.14
 -14  -2  -2    3.02    0.13
  14  -2  -3    5.29    0.18
  14   2   3    5.19    0.18
 -14   2  -3    5.19    0.17
  14  -2   3    5.35    0.18
 -14  -2  -3    5.39    0.20
 -14  -2  -3    5.36    0.17
  14  -2  -4    0.61    0.09
  14   2  -4    0.47    0.08
 -14  -2  -4    0.49    0.07
 -14  -2  -4    0.64    0.08
  14  -2   4    0.70    0.09
  14  -2  -5    3.92    0.17
  14   2  -5    4.06    0.17
  14  -2   5    4.15    0.18
 -14  -2  -5    4.19    0.16
  14  -3   0   13.31    0.27
  14   3   0   12.85    0.25
  14   3   1    4.78    0.16
  14  -3  -1    4.60    0.15
  14  -3  -1    4.59    0.16
  14  -3  -1    4.56    0.16
 -14  -3  -1    4.46    0.15
  14  -3   1    4.60    0.17
  14  -3  -2    2.23    0.13
  14  -3  -2    2.39    0.12
  14  -3  -2    2.07    0.11
  14  -3   2    2.23    0.13
 -14  -3  -2    2.19    0.12
  14  -3  -3    0.04    0.06
  14  -3   3   -0.03    0.05
 -14  -3  -3   -0.01    0.05
  14  -3  -4    2.86    0.15
 -14  -3  -4    2.88    0.14
  14  -3   4    2.72    0.15
  14  -3  -5    0.50    0.09
  14  -3   5    0.49    0.09
  14   3  -5    0.29    0.08
 -14  -3  -5    0.46    0.08
  14  -4   0    7.72    0.21
  14  -4  -1   26.88    0.42
  14  -4  -1   26.42    0.43
  14  -4  -1   26.25    0.39
  14  -4   1   25.93    0.42
 -14  -4  -1   26.87    0.41
  14  -4  -2    7.78    0.20
  14  -4  -2    7.91    0.22
  14  -4  -2    8.03    0.21
 -14  -4  -2    7.76    0.21
  14  -4   2    7.81    0.22
  14  -4  -3    7.58    0.21
  14  -4  -3    7.67    0.23
 -14  -4  -3    7.90    0.21
  14  -4   3    7.43    0.22
  14  -4  -4    7.66    0.22
 -14  -4  -4    7.62    0.22
  14  -4   4    7.19    0.22
 -14  -5   0   72.27    0.85
  14  -5   0   72.63    0.88
  14  -5  -1   25.45    0.42
  14  -5  -1   25.83    0.43
 -14  -5  -1   25.37    0.41
  14  -5   1   25.57    0.43
  14  -5  -2   38.18    0.54
 -14  -5  -2   37.25    0.53
  14  -5   2   37.51    0.55
  14  -5  -3   10.57    0.25
  14  -5  -3   10.56    0.25
  14  -5   3   10.69    0.27
 -14  -5  -3   10.46    0.26
  14  -5  -4    3.53    0.16
  14  -5   4    3.66    0.17
 -14  -5  -4    3.38    0.16
  14  -6   0    0.08    0.07
 -14  -6   0    0.11    0.06
 -14  -6   1    4.67    0.17
  14  -6  -1    4.55    0.18
  14  -6   1    4.21    0.18
 -14  -6  -1    4.51    0.17
  14  -6  -2    0.00    0.06
 -14  -6  -2   -0.06    0.06
  14  -6   2    0.07    0.07
  14  -6  -3    0.11    0.06
 -14  -6  -3    0.07    0.07
  14  -6   3    0.00    0.06
 -14  -7   0    2.30    0.14
  14  -7   0    2.41    0.16
  14  -7  -1    0.24    0.08
 -14  -7   1    0.33    0.08
  14  -7   1    0.16    0.08
 -14  -7  -1    0.30    0.08
  15   0   0    0.06    0.05
  15   0  -1    3.43    0.13
  15   0   1    3.49    0.15
  15   0   2    0.46    0.07
 -15   0  -2    0.44    0.07
 -15   0  -2    0.55    0.07
 -15   0  -3    7.29    0.19
  15   0   3    7.22    0.22
  15   0  -3    7.50    0.21
 -15   0  -3    7.36    0.20
  15   0   4    2.41    0.14
  15   0  -4    2.06    0.14
  15   0  -5    1.69    0.13
  15   0   5    1.70    0.13
  15   1   0    0.01    0.04
  15  -1   0    0.10    0.05
  15  -1  -1    1.09    0.09
  15   1   1    1.20    0.10
 -15  -1  -1    1.18    0.08
  15   1  -1    0.95    0.08
  15  -1   1    1.10    0.10
 -15   1  -2    0.05    0.04
  15  -1  -2    0.03    0.05
  15   1   2    0.05    0.05
 -15  -1  -2    0.03    0.05
 -15  -1  -2    0.11    0.05
  15  -1   2   -0.02    0.05
 -15   1  -3    1.79    0.14
  15   1   3    1.63    0.12
  15  -1  -3    1.75    0.12
 -15  -1  -3    1.49    0.10
 -15  -1  -3    1.55    0.11
  15  -1   3    1.64    0.12
  15  -1  -4    0.02    0.06
  15   1   4    0.27    0.08
 -15  -1  -4    0.12    0.06
  15  -1   4    0.24    0.07
  15   1  -4    0.07    0.06
  15  -1  -5    0.40    0.09
  15   1   5    0.23    0.08
  15   1  -5    0.39    0.08
  15  -1   5    0.53    0.09
  15   2   0   -0.07    0.04
  15  -2   0    0.02    0.05
  15  -2  -1    2.20    0.12
  15   2   1    2.08    0.13
  15  -2   1    1.95    0.12
  15   2  -1    2.28    0.11
  15  -2  -2    8.33    0.22
  15  -2  -2    8.69    0.21
  15   2   2    8.97    0.23
  15  -2   2    8.23    0.22
 -15  -2  -2    8.44    0.21
  15   2   3   12.91    0.29
  15  -2  -3   12.76    0.28
 -15  -2  -3   12.65    0.27
  15  -2   3   12.44    0.28
  15  -2  -4    7.24    0.22
 -15  -2  -4    7.61    0.21
  15  -2   4    7.32    0.23
  15  -3   0    0.02    0.06
  15   3   0    0.01    0.04
  15  -3  -1    2.47    0.13
  15  -3   1    2.18    0.13
 -15  -3  -1    2.24    0.13
  15  -3  -2    0.07    0.05
  15  -3  -2   -0.03    0.05
  15  -3   2    0.08    0.06
 -15  -3  -2   -0.03    0.06
  15  -3  -3    7.20    0.21
 -15  -3  -3    6.58    0.20
  15  -3   3    7.28    0.22
  15  -3  -4    0.27    0.08
 -15  -3  -4    0.16    0.07
  15  -3   4    0.14    0.07
  15  -4   0    0.00    0.06
  15  -4  -1    2.15    0.13
  15  -4  -1    2.11    0.14
  15  -4   1    2.65    0.15
 -15  -4  -1    2.05    0.13
  15  -4  -2    1.16    0.10
  15  -4  -2    1.05    0.10
  15  -4  -2    1.22    0.11
 -15  -4  -2    0.97    0.10
  15  -4   2    1.10    0.11
  15  -4  -3    7.18    0.21
  15  -4   3    6.87    0.22
 -15  -4  -3    6.83    0.21
  15  -4  -4    0.25    0.07
 -15  -4  -4    0.22    0.08
  15  -4   4    0.30    0.08
  15  -5   0    0.03    0.06
 -15  -5   0   -0.06    0.06
  15  -5  -1    0.20    0.07
  15  -5   1    0.23    0.07
 -15  -5  -1    0.16    0.07
  15  -5  -2    0.08    0.06
 -15  -5  -2    0.08    0.07
  15  -5   2    0.08    0.07
  15  -5  -3    0.06    0.07
  15  -5   3    0.11    0.07
 -15  -5  -3    0.08    0.07
 -15  -6   0   -0.01    0.06
  15  -6   0    0.03    0.07
  15  -6  -1    1.15    0.11
 -15  -6   1    1.13    0.11
 -15  -6  -1    1.05    0.11
  15  -6   1    1.08    0.11
  15  -6  -2    2.41    0.15
  15  -6   2    2.50    0.16
 -15  -6  -2    2.11    0.15
  16   0   0   28.36    0.43
  16   0  -1   15.57    0.29
  16   0   1   15.30    0.31
  16   0   2   10.78    0.26
 -16   0  -2   11.04    0.24
 -16   0  -2   11.60    0.24
  16   0  -3    0.73    0.09
  16   0   3    0.86    0.10
 -16   0  -3    0.82    0.09
  16   0   4    0.05    0.07
  16   0  -4    0.05    0.06
  16   1   0    1.00    0.09
  16  -1   0    0.98    0.09
  16   1   1    1.38    0.11
  16  -1  -1    1.63    0.11
  16   1  -1    1.37    0.10
  16  -1   1    1.40    0.11
 -16   1  -2    0.05    0.05
  16   1   2    0.11    0.06
  16  -1   2    0.03    0.06
 -16  -1  -2    0.03    0.06
  16  -1  -3    3.99    0.17
  16   1   3    4.57    0.18
 -16  -1  -3    3.96    0.16
  16  -1   3    4.18    0.18
  16  -1  -4    0.16    0.07
  16   1   4    0.22    0.08
  16  -1   4    0.02    0.07
 -16  -1  -4    0.05    0.06
  16   1  -4    0.08    0.07
  16   2   0    9.88    0.23
  16  -2   0   10.51    0.25
  16  -2  -1    0.64    0.08
  16   2   1    0.47    0.08
  16  -2   1    0.40    0.08
  16  -2  -2   18.30    0.34
  16   2   2   18.19    0.35
  16  -2   2   18.54    0.36
 -16  -2  -2   18.15    0.33
  16   2   3    0.91    0.10
  16  -2  -3    0.85    0.10
 -16  -2  -3    0.69    0.09
  16  -2   3    0.74    0.10
  16  -2  -4   25.81    0.45
  16  -2   4   25.97    0.45
 -16  -2  -4   25.35    0.42
  16  -3   0    0.00    0.06
  16  -3  -1   20.49    0.37
 -16  -3  -1   20.97    0.36
  16  -3   1   20.24    0.38
  16  -3  -2    0.09    0.06
  16  -3  -2    0.07    0.05
  16  -3   2   -0.02    0.06
 -16  -3  -2    0.09    0.07
  16  -3  -3   18.69    0.36
  16  -3   3   18.71    0.37
 -16  -3  -3   18.49    0.35
  16  -4   0    9.56    0.25
  16  -4  -1    9.98    0.25
  16  -4   1    9.94    0.26
 -16  -4  -1   10.14    0.25
  16  -4  -2    2.13    0.14
  16  -4  -2    2.63    0.14
  16  -4   2    2.27    0.15
 -16  -4  -2    2.69    0.15
  16  -4  -3    0.60    0.09
 -16  -4  -3    0.50    0.09
  16  -4   3    0.42    0.09
  16  -5   0    2.67    0.16
 -16  -5   0    2.51    0.15
  16  -5  -1    2.16    0.15
 -16  -5  -1    2.00    0.14
  16  -5   1    2.19    0.15
  16  -5  -2    0.50    0.09
 -16  -5  -2    0.67    0.10
  16  -5   2    0.74    0.10
  17   0   0    0.00    0.05
  17   0   1    1.18    0.11
  17   0  -1    1.03    0.10
 -17   0  -1    1.17    0.09
 -17   0  -2    5.13    0.17
  17   0   2    5.01    0.19
 -17   0  -3    2.18    0.13
  17   0   3    2.38    0.15
  17   1   0   -0.03    0.05
  17  -1   0    0.00    0.06
  17   1   1    0.08    0.06
  17  -1  -1    0.10    0.05
  17  -1   1    0.02    0.06
  17   1   2    3.61    0.17
 -17   1  -2    3.15    0.14
 -17  -1  -2    3.03    0.15
  17  -1   2    2.95    0.16
  17   1   3    0.30    0.08
  17  -1  -3    0.31    0.08
  17  -1   3    0.44    0.09
 -17  -1  -3    0.38    0.08
  17  -2   0    0.09    0.06
  17   2   0   -0.09    0.05
  17   2   1    4.42    0.17
  17  -2  -1    4.43    0.17
 -17  -2  -1    4.41    0.17
  17  -2   1    4.35    0.18
  17   2   2    0.07    0.07
 -17  -2  -2    0.27    0.07
  17  -2   2    0.21    0.07
  17   2   3   15.81    0.34
  17  -2  -3   15.81    0.33
  17  -2   3   16.29    0.34
 -17  -2  -3   16.15    0.32
  17  -3   0   -0.09    0.06
  17  -3  -1    0.68    0.09
 -17  -3  -1    0.33    0.08
  17  -3   1    0.43    0.09
  17  -3   2    6.14    0.22
 -17  -3  -2    6.58    0.21
  17  -4   0    0.07    0.07
 -17  -4   0    0.00    0.07
  17  -4  -1    1.21    0.11
  17  -4   1    1.00    0.11
 -17  -4  -1    1.08    0.11
  18   0   0    0.63    0.09
  18   0   1   20.72    0.39
  18   0   2    1.49    0.13
 -18   0  -2    1.41    0.11
  18   1   0   16.22    0.32
  18  -1   0   15.89    0.33
  18  -1  -1    0.09    0.06
  18   1   1    0.01    0.06
  18  -1   1    0.01    0.06
  18   1   2    8.50    0.25
 -18  -1  -2    8.76    0.23
  18  -1   2    8.97    0.26
  18  -2   0    0.01    0.06
  18   2   0    0.07    0.06
  18  -2  -1    5.34    0.19
  18   2   1    5.80    0.20
 -18  -2  -1    6.02    0.20
  18  -2   1    5.22    0.20
   0   0   0    0.00    0.00
;
_shelx_hkl_checksum              25561
loop_
_space_group_symop_operation_xyz
'x, y, z'
'-x+1/2, -y, z+1/2'
'-x, y+1/2, -z'
'x+1/2, -y+1/2, -z+1/2'
'-x, -y, -z'
'x-1/2, y, -z-1/2'
'x, -y-1/2, z'
'-x-1/2, y-1/2, z-1/2'
loop_
_atom_site_label
_atom_site_type_symbol
_atom_site_fract_x
_atom_site_fract_y
_atom_site_fract_z
_atom_site_U_iso_or_equiv
_atom_site_adp_type
_atom_site_occupancy
_atom_site_site_symmetry_order
_atom_site_calc_flag
_atom_site_refinement_flags_posn
_atom_site_refinement_flags_adp
_atom_site_refinement_flags_occupancy
P1 P 0.08727(2) 0.250000 0.15573(5) 0.01609(7) Uani 0.67 2 d S T P
Si1 Si 0.08727(2) 0.250000 0.15573(5) 0.01609(7) Uani 0.33 2 d S T P
S1 S 0.15328(2) 0.03433(3) 0.27543(4) 0.02442(7) Uani 1 1 d . . .
S2 S -0.06159(2) 0.250000 0.26835(5) 0.02055(7) Uani 1 2 d S T P
S3 S 0.09947(2) 0.250000 -0.17975(5) 0.02408(8) Uani 1 2 d S T P
Li1A Li 0.32949(17) 0.0296(3) 0.3815(5) 0.0404(7) Uani 0.863(8) 1 d . U P
Li1B Li 0.3338(9) 0.0071(16) 0.208(3) 0.039(5) Uani 0.137(8) 1 d . U P
Li2 Li 0.0065(4) 0.0430(7) 0.5551(7) 0.0465(16) Uani 0.437(8) 1 d . . .
Li3A Li -0.0833(13) 0.250000 -0.160(5) 0.060(9) Uani 0.24(2) 2 d S T .
Li3B Li -0.0693(12) 0.250000 -0.309(4) 0.044(6) Uani 0.21(2) 2 d S T .
loop_
_atom_site_aniso_label
_atom_site_aniso_U_11
_atom_site_aniso_U_22
_atom_site_aniso_U_33
_atom_site_aniso_U_23
_atom_site_aniso_U_13
_atom_site_aniso_U_12
P1 0.01696(13) 0.01652(13) 0.01480(13) 0.000 0.00148(9) 0.000
Si1 0.01696(13) 0.01652(13) 0.01480(13) 0.000 0.00148(9) 0.000
S1 0.02191(11) 0.02404(11) 0.02730(11) 0.00523(7) 0.00030(7) 0.00407(7)
S2 0.01844(14) 0.02023(13) 0.02299(13) 0.000 0.00172(9) 0.000
S3 0.03357(16) 0.02254(14) 0.01614(13) 0.000 0.00356(10) 0.000
Li1A 0.0325(10) 0.0378(12) 0.0511(17) 0.0148(10) -0.0030(10) 0.0004(8)
Li1B 0.017(5) 0.018(5) 0.083(14) 0.006(6) -0.004(6) 0.000(4)
Li2 0.039(2) 0.055(3) 0.046(3) 0.024(2) 0.003(2) -0.010(2)
Li3A 0.049(9) 0.044(8) 0.09(2) 0.000 -0.027(10) 0.000
Li3B 0.048(9) 0.036(7) 0.048(13) 0.000 -0.007(7) 0.000
loop_
_atom_type_symbol
_atom_type_description
_atom_type_scat_dispersion_real
_atom_type_scat_dispersion_imag
_atom_type_scat_source
Li Li -0.0003 0.0001 'International Tables Vol C Tables 4.2.6.8 and 6.1.1.4'
P P 0.1023 0.0942 'International Tables Vol C Tables 4.2.6.8 and 6.1.1.4'
S S 0.1246 0.1234 'International Tables Vol C Tables 4.2.6.8 and 6.1.1.4'
Si Si 0.0817 0.0704 'International Tables Vol C Tables 4.2.6.8 and 6.1.1.4'
loop_
_geom_angle_atom_site_label_1
_geom_angle_atom_site_label_2
_geom_angle_atom_site_label_3
_geom_angle
_geom_angle_site_symmetry_1
_geom_angle_site_symmetry_3
S3 P1 S1 108.679(11) . 7_565
S3 P1 S1 108.678(11) . .
S1 P1 S1 113.075(18) 7_565 .
S3 P1 S2 113.789(18) . .
S1 P1 S2 106.352(11) 7_565 .
S1 P1 S2 106.352(11) . .
S3 P1 Li3A 53.9(6) . .
S1 P1 Li3A 123.460(10) 7_565 .
S1 P1 Li3A 123.460(11) . .
S2 P1 Li3A 59.9(6) . .
S3 P1 Li1A 54.15(6) . 2_554
S1 P1 Li1A 131.61(4) 7_565 2_554
S1 P1 Li1A 54.72(6) . 2_554
S2 P1 Li1A 122.03(4) . 2_554
Li3A P1 Li1A 85.1(4) . 2_554
S3 P1 Li1A 54.15(6) . 8_665
S1 P1 Li1A 54.72(6) 7_565 8_665
S1 P1 Li1A 131.61(4) . 8_665
S2 P1 Li1A 122.03(4) . 8_665
Li3A P1 Li1A 85.1(4) . 8_665
Li1A P1 Li1A 96.17(11) 2_554 8_665
P1 S1 Li1A 120.99(5) . .
P1 S1 Li1B 115.4(3) . .
Li1A S1 Li1B 25.7(5) . .
P1 S1 Li2 89.79(12) . 5_556
Li1A S1 Li2 135.90(12) . 5_556
Li1B S1 Li2 154.4(4) . 5_556
P1 S1 Li1A 82.30(6) . 2_554
Li1A S1 Li1A 99.76(7) . 2_554
Li1B S1 Li1A 74.1(5) . 2_554
Li2 S1 Li1A 116.26(13) 5_556 2_554
P1 S1 Li3B 126.2(4) . 5
Li1A S1 Li3B 112.7(3) . 5
Li1B S1 Li3B 111.3(4) . 5
Li2 S1 Li3B 50.1(4) 5_556 5
Li1A S1 Li3B 86.2(6) 2_554 5
P1 S1 Li3A 119.5(4) . 5
Li1A S1 Li3A 114.1(3) . 5
Li1B S1 Li3A 103.3(6) . 5
Li2 S1 Li3A 64.9(6) 5_556 5
Li1A S1 Li3A 65.2(7) 2_554 5
Li3B S1 Li3A 20.9(5) 5 5
P1 S1 Li2 83.99(11) . .
Li1A S1 Li2 123.04(12) . .
Li1B S1 Li2 148.2(5) . .
Li2 S1 Li2 22.2(2) 5_556 .
Li1A S1 Li2 135.94(11) 2_554 .
Li3B S1 Li2 69.1(5) 5 .
Li3A S1 Li2 86.2(7) 5 .
P1 S1 Li1B 118.8(3) . 2
Li1A S1 Li1B 70.8(3) . 2
Li1B S1 Li1B 95.4(5) . 2
Li2 S1 Li1B 66.6(3) 5_556 2
Li1A S1 Li1B 158.9(3) 2_554 2
Li3B S1 Li1B 80.7(6) 5 2
Li3A S1 Li1B 100.7(7) 5 2
Li2 S1 Li1B 52.9(3) . 2
P1 S2 Li1B 124.5(3) . 6_556
P1 S2 Li1B 124.5(3) . 4_455
Li1B S2 Li1B 108.8(6) 6_556 4_455
P1 S2 Li1A 115.51(5) . 6_556
Li1B S2 Li1A 25.7(5) 6_556 6_556
Li1B S2 Li1A 105.4(3) 4_455 6_556
P1 S2 Li1A 115.51(5) . 4_455
Li1B S2 Li1A 105.4(3) 6_556 4_455
Li1B S2 Li1A 25.7(5) 4_455 4_455
Li1A S2 Li1A 91.79(12) 6_556 4_455
P1 S2 Li2 83.98(11) . 7_565
Li1B S2 Li2 133.1(5) 6_556 7_565
Li1B S2 Li2 68.8(4) 4_455 7_565
Li1A S2 Li2 157.16(13) 6_556 7_565
Li1A S2 Li2 89.92(13) 4_455 7_565
P1 S2 Li2 83.98(11) . .
Li1B S2 Li2 68.8(4) 6_556 .
Li1B S2 Li2 133.1(5) 4_455 .
Li1A S2 Li2 89.92(13) 6_556 .
Li1A S2 Li2 157.16(13) 4_455 .
Li2 S2 Li2 80.0(2) 7_565 .
P1 S2 Li3B 111.5(4) . 1_556
Li1B S2 Li3B 85.2(5) 6_556 1_556
Li1B S2 Li3B 85.2(5) 4_455 1_556
Li1A S2 Li3B 110.5(2) 6_556 1_556
Li1A S2 Li3B 110.5(2) 4_455 1_556
Li2 S2 Li3B 48.1(2) 7_565 1_556
Li2 S2 Li3B 48.1(2) . 1_556
P1 S2 Li3A 77.0(4) . .
Li1B S2 Li3A 89.8(5) 6_556 .
Li1B S2 Li3A 89.8(5) 4_455 .
Li1A S2 Li3A 64.2(3) 6_556 .
Li1A S2 Li3A 64.2(3) 4_455 .
Li2 S2 Li3A 135.7(2) 7_565 .
Li2 S2 Li3A 135.7(2) . .
Li3B S2 Li3A 171.5(5) 1_556 .
P1 S2 Li2 82.91(10) . 3_556
Li1B S2 Li2 147.5(4) 6_556 3_556
Li1B S2 Li2 54.7(4) 4_455 3_556
Li1A S2 Li2 159.67(11) 6_556 3_556
Li1A S2 Li2 71.50(12) 4_455 3_556
Li2 S2 Li2 21.4(2) 7_565 3_556
Li2 S2 Li2 101.06(4) . 3_556
Li3B S2 Li2 66.92(16) 1_556 3_556
Li3A S2 Li2 115.48(15) . 3_556
P1 S2 Li2 82.91(10) . 5_556
Li1B S2 Li2 54.7(4) 6_556 5_556
Li1B S2 Li2 147.5(4) 4_455 5_556
Li1A S2 Li2 71.50(12) 6_556 5_556
Li1A S2 Li2 159.67(11) 4_455 5_556
Li2 S2 Li2 101.06(4) 7_565 5_556
Li2 S2 Li2 21.3(2) . 5_556
Li3B S2 Li2 66.92(16) 1_556 5_556
Li3A S2 Li2 115.48(15) . 5_556
Li2 S2 Li2 121.8(2) 3_556 5_556
P1 S3 Li1B 108.8(5) . 8_665
P1 S3 Li1B 108.8(5) . 2_554
Li1B S3 Li1B 122.9(7) 8_665 2_554
P1 S3 Li3B 105.0(6) . .
Li1B S3 Li3B 104.9(4) 8_665 .
Li1B S3 Li3B 104.9(4) 2_554 .
P1 S3 Li3A 82.7(7) . .
Li1B S3 Li3A 113.0(4) 8_665 .
Li1B S3 Li3A 113.0(4) 2_554 .
Li3B S3 Li3A 22.3(5) . .
P1 S3 Li1A 82.98(6) . 8_665
Li1B S3 Li1A 25.8(5) 8_665 8_665
Li1B S3 Li1A 134.5(3) 2_554 8_665
Li3B S3 Li1A 114.32(5) . 8_665
Li3A S3 Li1A 112.02(14) . 8_665
P1 S3 Li1A 82.98(6) . 2_554
Li1B S3 Li1A 134.5(3) 8_665 2_554
Li1B S3 Li1A 25.8(5) 2_554 2_554
Li3B S3 Li1A 114.32(5) . 2_554
Li3A S3 Li1A 112.02(14) . 2_554
Li1A S3 Li1A 131.32(11) 8_665 2_554
P1 S3 Li2 125.44(10) . 1_554
Li1B S3 Li2 123.3(5) 8_665 1_554
Li1B S3 Li2 56.0(4) 2_554 1_554
Li3B S3 Li2 49.6(4) . 1_554
Li3A S3 Li2 64.0(5) . 1_554
Li1A S3 Li2 148.05(12) 8_665 1_554
Li1A S3 Li2 72.49(13) 2_554 1_554
P1 S3 Li2 125.44(10) . 7_564
Li1B S3 Li2 56.0(4) 8_665 7_564
Li1B S3 Li2 123.3(5) 2_554 7_564
Li3B S3 Li2 49.6(4) . 7_564
Li3A S3 Li2 64.0(5) . 7_564
Li1A S3 Li2 72.49(13) 8_665 7_564
Li1A S3 Li2 148.05(12) 2_554 7_564
Li2 S3 Li2 78.2(2) 1_554 7_564
Li1B Li1A S1 77.8(6) . .
Li1B Li1A S2 73.8(7) . 6_656
S1 Li1A S2 117.01(9) . 6_656
Li1B Li1A S3 71.2(7) . 2
S1 Li1A S3 109.99(10) . 2
S2 Li1A S3 111.86(10) 6_656 2
Li1B Li1A S1 156.9(7) . 2
S1 Li1A S1 110.68(10) . 2
S2 Li1A S1 117.28(10) 6_656 2
S3 Li1A S1 85.71(7) 2 2
Li1B Li1A Li3A 134.9(8) . 6_656
S1 Li1A Li3A 124.6(3) . 6_656
S2 Li1A Li3A 61.3(5) 6_656 6_656
S3 Li1A Li3A 121.7(4) 2 6_656
S1 Li1A Li3A 58.8(5) 2 6_656
Li1B Li1A Li1B 133.4(6) . 2
S1 Li1A Li1B 58.6(3) . 2
S2 Li1A Li1B 138.8(3) 6_656 2
S3 Li1A Li1B 107.0(3) 2 2
S1 Li1A Li1B 52.3(3) 2 2
Li3A Li1A Li1B 87.1(5) 6_656 2
Li1B Li1A P1 114.0(7) . 2
S1 Li1A P1 120.95(8) . 2
S2 Li1A P1 121.87(8) 6_656 2
S3 Li1A P1 42.87(4) 2 2
S1 Li1A P1 42.98(4) 2 2
Li3A Li1A P1 88.6(4) 6_656 2
Li1B Li1A P1 79.4(3) 2 2
Li1B Li1A Li2 43.6(7) . 2_554
S1 Li1A Li2 121.33(14) . 2_554
S2 Li1A Li2 57.77(11) 6_656 2_554
S3 Li1A Li2 56.36(12) 2 2_554
S1 Li1A Li2 122.75(13) 2 2_554
Li3A Li1A Li2 103.7(4) 6_656 2_554
Li1B Li1A Li2 163.1(3) 2 2_554
P1 Li1A Li2 87.88(12) 2 2_554
Li1B Li1A Li3B 144.8(7) . 6_656
S1 Li1A Li3B 125.0(3) . 6_656
S2 Li1A Li3B 71.7(3) 6_656 6_656
S3 Li1A Li3B 115.8(2) 2 6_656
S1 Li1A Li3B 47.7(3) 2 6_656
Li3A Li1A Li3B 11.1(4) 6_656 6_656
Li1B Li1A Li3B 79.7(4) 2 6_656
P1 Li1A Li3B 79.2(2) 2 6_656
Li2 Li1A Li3B 108.9(3) 2_554 6_656
Li1B Li1A Li1A 99.6(7) . 7_565
S1 Li1A Li1A 89.11(5) . 7_565
S2 Li1A Li1A 44.10(6) 6_656 7_565
S3 Li1A Li1A 155.66(5) 2 7_565
S1 Li1A Li1A 101.93(6) 2 7_565
Li3A Li1A Li1A 49.5(4) 6_656 7_565
Li1B Li1A Li1A 95.7(2) 2 7_565
P1 Li1A Li1A 138.08(5) 2 7_565
Li2 Li1A Li1A 101.15(11) 2_554 7_565
Li3B Li1A Li1A 59.0(2) 6_656 7_565
Li1A Li1B S3 83.0(8) . 2
Li1A Li1B Li2 118.0(9) . 2_554
S3 Li1B Li2 68.1(4) 2 2_554
Li1A Li1B S2 80.5(8) . 6_656
S3 Li1B S2 118.6(5) 2 6_656
Li2 Li1B S2 69.0(4) 2_554 6_656
Li1A Li1B S1 76.5(7) . .
S3 Li1B S1 113.5(5) 2 .
Li2 Li1B S1 165.2(9) 2_554 .
S2 Li1B S1 119.1(5) 6_656 .
Li1A Li1B S1 177.4(9) . 2_554
S3 Li1B S1 99.1(6) 2 2_554
Li2 Li1B S1 61.7(5) 2_554 2_554
S2 Li1B S1 97.1(6) 6_656 2_554
S1 Li1B S1 104.0(6) . 2_554
Li1A Li1B Li2 126.2(9) . 6_656
S3 Li1B Li2 87.2(4) 2 6_656
Li2 Li1B Li2 19.3(3) 2_554 6_656
S2 Li1B Li2 58.7(3) 6_656 6_656
S1 Li1B Li2 152.4(8) . 6_656
S1 Li1B Li2 52.6(4) 2_554 6_656
Li1A Li1B Li1A 130.1(8) . 2_554
S3 Li1B Li1A 112.7(5) 2 2_554
Li2 Li1B Li1A 111.8(7) 2_554 2_554
S2 Li1B Li1A 123.0(6) 6_656 2_554
S1 Li1B Li1A 53.6(3) . 2_554
S1 Li1B Li1A 50.6(3) 2_554 2_554
Li2 Li1B Li1A 102.5(6) 6_656 2_554
Li1A Li1B Li3B 129.6(9) . 6_655
S3 Li1B Li3B 125.1(6) 2 6_655
Li2 Li1B Li3B 57.8(4) 2_554 6_655
S2 Li1B Li3B 49.9(4) 6_656 6_655
S1 Li1B Li3B 116.4(6) . 6_655
S1 Li1B Li3B 47.9(4) 2_554 6_655
Li2 Li1B Li3B 38.5(3) 6_656 6_655
Li1A Li1B Li3B 81.1(6) 2_554 6_655
Li2 Li2 Li3B 137.8(9) 5_556 1_556
Li2 Li2 Li1B 108.3(8) 5_556 2
Li3B Li2 Li1B 113.9(7) 1_556 2
Li2 Li2 S1 87.9(5) 5_556 5_556
Li3B Li2 S1 67.5(4) 1_556 5_556
Li1B Li2 S1 124.6(5) 2 5_556
Li2 Li2 S2 85.4(6) 5_556 .
Li3B Li2 S2 66.3(7) 1_556 .
Li1B Li2 S2 134.2(4) 2 .
S1 Li2 S2 98.63(18) 5_556 .
Li2 Li2 S1 69.9(5) 5_556 .
Li3B Li2 S1 129.8(5) 1_556 .
Li1B Li2 S1 65.4(5) 2 .
S1 Li2 S1 157.8(2) 5_556 .
S2 Li2 S1 80.14(13) . .
Li2 Li2 S3 162.2(7) 5_556 1_556
Li3B Li2 S3 58.8(5) 1_556 1_556
Li1B Li2 S3 55.9(4) 2 1_556
S1 Li2 S3 107.68(18) 5_556 1_556
S2 Li2 S3 100.38(17) . 1_556
S1 Li2 S3 94.27(15) . 1_556
Li2 Li2 Li3A 143.5(7) 5_556 1_556
Li3B Li2 Li3A 17.6(5) 1_556 1_556
Li1B Li2 Li3A 104.2(6) 2 1_556
S1 Li2 Li3A 59.7(3) 5_556 1_556
S2 Li2 Li3A 83.7(5) . 1_556
S1 Li2 Li3A 141.1(4) . 1_556
S3 Li2 Li3A 54.3(3) 1_556 1_556
Li2 Li2 S2 73.2(6) 5_556 5_556
Li3B Li2 S2 131.0(7) 1_556 5_556
Li1B Li2 S2 56.3(3) 2 5_556
S1 Li2 S2 80.92(13) 5_556 5_556
S2 Li2 S2 158.7(2) . 5_556
S1 Li2 S2 92.25(17) . 5_556
S3 Li2 S2 100.06(15) 1_556 5_556
Li3A Li2 S2 113.5(5) 1_556 5_556
Li2 Li2 Li1B 52.4(6) 5_556 6_556
Li3B Li2 Li1B 85.4(6) 1_556 6_556
Li1B Li2 Li1B 160.7(3) 2 6_556
S1 Li2 Li1B 60.8(4) 5_556 6_556
S2 Li2 Li1B 52.4(3) . 6_556
S1 Li2 Li1B 103.2(4) . 6_556
S3 Li2 Li1B 143.1(3) 1_556 6_556
Li3A Li2 Li1B 94.3(5) 1_556 6_556
S2 Li2 Li1B 111.3(3) 5_556 6_556
Li2 Li2 Li3B 29.1(6) 5_556 5
Li3B Li2 Li3B 166.9(3) 1_556 5
Li1B Li2 Li3B 79.2(5) 2 5
S1 Li2 Li3B 105.3(4) 5_556 5
S2 Li2 Li3B 105.3(5) . 5
S1 Li2 Li3B 54.6(4) . 5
S3 Li2 Li3B 134.1(4) 1_556 5
Li3A Li2 Li3B 164.0(4) 1_556 5
S2 Li2 Li3B 55.1(4) 5_556 5
Li1B Li2 Li3B 81.5(5) 6_556 5
Li2 Li2 Li1A 116.7(7) 5_556 2
Li3B Li2 Li1A 103.4(6) 1_556 2
Li1B Li2 Li1A 18.5(5) 2 2
S1 Li2 Li1A 107.12(16) 5_556 2
S2 Li2 Li1A 146.07(19) . 2
S1 Li2 Li1A 83.86(15) . 2
S3 Li2 Li1A 51.14(9) 1_556 2
Li3A Li2 Li1A 90.4(4) 1_556 2
S2 Li2 Li1A 50.73(10) 5_556 2
Li1B Li2 Li1A 161.5(3) 6_556 2
Li3B Li2 Li1A 89.0(4) 5 2
Li3B Li3A S3 75.6(17) . .
Li3B Li3A S1 78.6(8) . 5
S3 Li3A S1 110.4(6) . 5
Li3B Li3A S1 78.6(8) . 3
S3 Li3A S1 110.4(6) . 3
S1 Li3A S1 125.8(7) 5 3
Li3B Li3A S2 162.1(17) . .
S3 Li3A S2 86.5(6) . .
S1 Li3A S2 108.3(8) 5 .
S1 Li3A S2 108.3(8) 3 .
Li3B Li3A Li2 43.5(8) . 1_554
S3 Li3A Li2 61.7(6) . 1_554
S1 Li3A Li2 55.4(4) 5 1_554
S1 Li3A Li2 122.1(12) 3 1_554
S2 Li3A Li2 126.7(5) . 1_554
Li3B Li3A Li2 43.5(8) . 7_564
S3 Li3A Li2 61.7(6) . 7_564
S1 Li3A Li2 122.1(12) 5 7_564
S1 Li3A Li2 55.4(4) 3 7_564
S2 Li3A Li2 126.7(5) . 7_564
Li2 Li3A Li2 76.3(9) 1_554 7_564
Li3B Li3A Li1A 134.6(7) . 4_455
S3 Li3A Li1A 117.1(6) . 4_455
S1 Li3A Li1A 126.7(9) 5 4_455
S1 Li3A Li1A 56.0(3) 3 4_455
S2 Li3A Li1A 54.6(6) . 4_455
Li2 Li3A Li1A 177.6(9) 1_554 4_455
Li2 Li3A Li1A 101.32(11) 7_564 4_455
Li3B Li3A Li1A 134.6(7) . 6_556
S3 Li3A Li1A 117.1(6) . 6_556
S1 Li3A Li1A 56.0(3) 5 6_556
S1 Li3A Li1A 126.7(9) 3 6_556
S2 Li3A Li1A 54.6(6) . 6_556
Li2 Li3A Li1A 101.32(11) 1_554 6_556
Li2 Li3A Li1A 177.6(9) 7_564 6_556
Li1A Li3A Li1A 81.1(9) 4_455 6_556
Li3B Li3A P1 119.0(17) . .
S3 Li3A P1 43.4(3) . .
S1 Li3A P1 117.0(4) 5 .
S1 Li3A P1 117.0(4) 3 .
S2 Li3A P1 43.1(3) . .
Li2 Li3A P1 95.0(4) 1_554 .
Li2 Li3A P1 95.0(4) 7_564 .
Li1A Li3A P1 85.0(7) 4_455 .
Li1A Li3A P1 85.0(7) 6_556 .
Li3B Li3A Li2 43.0(5) . 5
S3 Li3A Li2 71.2(6) . 5
S1 Li3A Li2 47.3(4) 5 5
S1 Li3A Li2 120.6(10) 3 5
S2 Li3A Li2 130.7(3) . 5
Li2 Li3A Li2 9.5(2) 1_554 5
Li2 Li3A Li2 80.6(8) 7_564 5
Li1A Li3A Li2 171.5(5) 4_455 5
Li1A Li3A Li2 97.04(15) 6_556 5
P1 Li3A Li2 103.2(4) . 5
Li3A Li3B Li2 118.9(10) . 7_564
Li3A Li3B Li2 118.9(10) . 1_554
Li2 Li3B Li2 103.5(10) 7_564 1_554
Li3A Li3B S3 82.1(16) . .
Li2 Li3B S3 71.5(5) 7_564 .
Li2 Li3B S3 71.5(5) 1_554 .
Li3A Li3B S1 80.4(7) . 5
Li2 Li3B S1 160.6(12) 7_564 5
Li2 Li3B S1 62.38(15) 1_554 5
S3 Li3B S1 112.7(4) . 5
Li3A Li3B S1 80.4(7) . 3
Li2 Li3B S1 62.38(15) 7_564 3
Li2 Li3B S1 160.6(12) 1_554 3
S3 Li3B S1 112.7(4) . 3
S1 Li3B S1 127.2(7) 5 3
Li3A Li3B S2 170.6(16) . 1_554
Li2 Li3B S2 65.5(7) 7_564 1_554
Li2 Li3B S2 65.5(7) 1_554 1_554
S3 Li3B S2 107.2(8) . 1_554
S1 Li3B S2 95.6(6) 5 1_554
S1 Li3B S2 95.6(6) 3 1_554
Li3A Li3B Li2 124.5(6) . 5
Li2 Li3B Li2 107.0(9) 7_564 5
Li2 Li3B Li2 13.1(3) 1_554 5
S3 Li3B Li2 84.5(4) . 5
S1 Li3B Li2 56.28(19) 5 5
S1 Li3B Li2 152.6(10) 3 5
S2 Li3B Li2 58.0(5) 1_554 5
Li3A Li3B Li2 124.5(6) . 3
Li2 Li3B Li2 13.1(3) 7_564 3
Li2 Li3B Li2 107.0(9) 1_554 3
S3 Li3B Li2 84.5(4) . 3
S1 Li3B Li2 152.6(10) 5 3
S1 Li3B Li2 56.28(19) 3 3
S2 Li3B Li2 58.0(5) 1_554 3
Li2 Li3B Li2 107.4(8) 5 3
Li3A Li3B Li1B 129.3(11) . 6
Li2 Li3B Li1B 110.2(10) 7_564 6
Li2 Li3B Li1B 56.1(5) 1_554 6
S3 Li3B Li1B 126.8(6) . 6
S1 Li3B Li1B 51.4(4) 5 6
S1 Li3B Li1B 114.0(7) 3 6
S2 Li3B Li1B 44.8(4) 1_554 6
Li2 Li3B Li1B 43.0(3) 5 6
Li2 Li3B Li1B 101.3(8) 3 6
Li3A Li3B Li1B 129.3(11) . 4_454
Li2 Li3B Li1B 56.1(5) 7_564 4_454
Li2 Li3B Li1B 110.2(10) 1_554 4_454
S3 Li3B Li1B 126.8(6) . 4_454
S1 Li3B Li1B 114.0(7) 5 4_454
S1 Li3B Li1B 51.4(4) 3 4_454
S2 Li3B Li1B 44.8(4) 1_554 4_454
Li2 Li3B Li1B 101.3(8) 5 4_454
Li2 Li3B Li1B 43.0(3) 3 4_454
Li1B Li3B Li1B 70.2(7) 6 4_454
Li3A Li3B Li1A 34.3(5) . 4_455
Li2 Li3B Li1A 94.8(4) 7_564 4_455
Li2 Li3B Li1A 153.1(9) 1_554 4_455
S3 Li3B Li1A 96.6(7) . 4_455
S1 Li3B Li1A 103.2(7) 5 4_455
S1 Li3B Li1A 46.1(3) 3 4_455
S2 Li3B Li1A 141.1(4) 1_554 4_455
Li2 Li3B Li1A 157.2(6) 5 4_455
Li2 Li3B Li1A 95.3(2) 3 4_455
Li1B Li3B Li1A 134.5(6) 6 4_455
Li1B Li3B Li1A 96.2(4) 4_454 4_455
loop_
_geom_bond_atom_site_label_1
_geom_bond_atom_site_label_2
_geom_bond_distance
_geom_bond_site_symmetry_2
P1 S3 2.0632(4) .
P1 S1 2.0706(3) 7_565
P1 S1 2.0706(3) .
P1 S2 2.0896(4) .
P1 Li3A 2.978(18) .
P1 Li1A 3.010(2) 2_554
P1 Li1A 3.010(2) 8_665
S1 Li1A 2.424(2) .
S1 Li1B 2.437(12) .
S1 Li2 2.438(5) 5_556
S1 Li1A 2.480(3) 2_554
S1 Li3B 2.543(8) 5
S1 Li3A 2.558(8) 5
S1 Li2 2.594(5) .
S1 Li1B 2.68(2) 2
S2 Li1B 2.393(12) 6_556
S2 Li1B 2.393(12) 4_455
S2 Li1A 2.458(2) 6_556
S2 Li1A 2.458(2) 4_455
S2 Li2 2.579(5) 7_565
S2 Li2 2.579(5) .
S2 Li3B 2.60(3) 1_556
S2 Li3A 2.64(3) .
S2 Li2 2.686(5) 3_556
S2 Li2 2.686(5) 5_556
S3 Li1B 2.344(13) 8_665
S3 Li1B 2.344(13) 2_554
S3 Li3B 2.371(17) .
S3 Li3A 2.425(18) .
S3 Li1A 2.458(2) 8_665
S3 Li1A 2.458(2) 2_554
S3 Li2 2.628(5) 1_554
S3 Li2 2.628(5) 7_564
Li1A Li1B 1.08(2) .
Li1A Li3A 2.72(2) 6_656
Li1A Li1B 2.963(16) 2
Li1A Li2 3.011(6) 2_554
Li1A Li3B 3.43(2) 6_656
Li1A Li1A 3.530(5) 7_565
Li1B Li2 2.349(15) 2_554
Li1B Li2 2.815(16) 6_656
Li1B Li3B 3.38(3) 6_655
Li2 Li2 0.981(10) 5_556
Li2 Li3B 2.110(15) 1_556
Li2 Li3A 2.68(3) 1_556
Li2 Li3B 2.913(16) 5
Li3A Li3B 0.93(2) .
