#------------------------------------------------------------------------------
#$Date: 2018-01-06 03:42:11 +0200 (Sat, 06 Jan 2018) $
#$Revision: 204785 $
#$URL: file:///home/coder/svn-repositories/cod/cif/4/00/28/4002875.cif $
#------------------------------------------------------------------------------
#
# This file is available in the Crystallography Open Database (COD),
# http://www.crystallography.net/
#
# All data on this site have been placed in the public domain by the
# contributors.
#
data_4002875
loop_
_publ_author_name
'Wong, Man Kwong'
'Liu, Fangzhou'
'Kam, Chun Sing'
'Leung, Tik Lun'
'Tam, Ho Won'
'Djuri\<si\'c, Aleksandra B.'
'Popovi\'c, Jasminka'
'Li, Hangkong'
'Shih, Kaimin'
'Low, Kam-Hung'
'Chan, Wai Kin'
'Chen, Wei'
'He, Zhubing'
'Ng, Annie'
'Surya, Charles'
_publ_section_title
;
 Synthesis of Lead-Free Perovskite Films by Combinatorial Evaporation:
 Fast Processes for Screening Different Precursor Combinations
;
_journal_issue                   23
_journal_name_full               'Chemistry of Materials'
_journal_page_first              9946
_journal_paper_doi               10.1021/acs.chemmater.7b03293
_journal_volume                  29
_journal_year                    2017
_chemical_formula_moiety         'Br4 Pd, 2(C3 H10 N)'
_chemical_formula_sum            'C6 H20 Br4 N2 Pd'
_chemical_formula_weight         546.28
_space_group_crystal_system      monoclinic
_space_group_IT_number           14
_space_group_name_Hall           '-P 2ybc'
_space_group_name_H-M_alt        'P 1 21/c 1'
_symmetry_space_group_name_Hall  '-P 2ybc'
_symmetry_space_group_name_H-M   'P 1 21/c 1'
_atom_sites_solution_hydrogens   geom
_audit_creation_method           SHELXL-2014/7
_cell_angle_alpha                90
_cell_angle_beta                 102.089(4)
_cell_angle_gamma                90
_cell_formula_units_Z            2
_cell_length_a                   11.7344(15)
_cell_length_b                   8.5264(11)
_cell_length_c                   7.5155(9)
_cell_measurement_reflns_used    174
_cell_measurement_temperature    150(2)
_cell_measurement_theta_max      22.5
_cell_measurement_theta_min      2.8
_cell_volume                     735.27(16)
_computing_cell_refinement       'SAINT v8.34A (Bruker-AXS, 2013)'
_computing_data_collection       'APEX3 v2015.5-2 (Bruker-AXS, 2015)'
_computing_data_reduction        'SAINT v8.34A (Bruker-AXS, 2013)'
_computing_molecular_graphics    'Bruker SHELXTL'
_computing_publication_material  'Bruker SHELXTL'
_computing_structure_refinement  'SHELXL-2014/7 (Sheldrick, 2014)'
_computing_structure_solution    'SHELXT-2014/5 (Sheldrick, 2015)'
_diffrn_ambient_temperature      150(2)
_diffrn_detector_area_resol_mean 10.24
_diffrn_measured_fraction_theta_full 0.998
_diffrn_measured_fraction_theta_max 0.989
_diffrn_measurement_device_type  'Bruker D8 VENTURE FIXED-CHI PHOTON 100 CMOS'
_diffrn_measurement_method       '\f and \w scans'
_diffrn_radiation_type           MoK\a
_diffrn_radiation_wavelength     0.71073
_diffrn_reflns_av_R_equivalents  0.0564
_diffrn_reflns_av_unetI/netI     0.0642
_diffrn_reflns_Laue_measured_fraction_full 0.998
_diffrn_reflns_Laue_measured_fraction_max 0.989
_diffrn_reflns_limit_h_max       15
_diffrn_reflns_limit_h_min       -16
_diffrn_reflns_limit_k_max       12
_diffrn_reflns_limit_k_min       -11
_diffrn_reflns_limit_l_max       10
_diffrn_reflns_limit_l_min       -10
_diffrn_reflns_number            7780
_diffrn_reflns_point_group_measured_fraction_full 0.998
_diffrn_reflns_point_group_measured_fraction_max 0.989
_diffrn_reflns_theta_full        25.242
_diffrn_reflns_theta_max         30.592
_diffrn_reflns_theta_min         2.976
_diffrn_source                   'I\mS HB micro-focus sealed tube'
_exptl_absorpt_coefficient_mu    12.099
_exptl_absorpt_correction_T_max  0.7461
_exptl_absorpt_correction_T_min  0.2506
_exptl_absorpt_correction_type   multi-scan
_exptl_absorpt_process_details   'SADABS 2014/5 (Sheldrick, 2014)'
_exptl_crystal_colour            red
_exptl_crystal_density_diffrn    2.467
_exptl_crystal_description       plate
_exptl_crystal_F_000             512
_exptl_crystal_size_max          0.355
_exptl_crystal_size_mid          0.287
_exptl_crystal_size_min          0.034
_refine_diff_density_max         1.414
_refine_diff_density_min         -1.997
_refine_diff_density_rms         0.274
_refine_ls_extinction_method     none
_refine_ls_goodness_of_fit_ref   1.107
_refine_ls_hydrogen_treatment    constr
_refine_ls_matrix_type           full
_refine_ls_number_parameters     63
_refine_ls_number_reflns         2238
_refine_ls_number_restraints     0
_refine_ls_restrained_S_all      1.107
_refine_ls_R_factor_all          0.0582
_refine_ls_R_factor_gt           0.0407
_refine_ls_shift/su_max          0.001
_refine_ls_shift/su_mean         0.000
_refine_ls_structure_factor_coef Fsqd
_refine_ls_weighting_details
'w=1/[\s^2^(Fo^2^)+(0.0360P)^2^+1.0642P] where P=(Fo^2^+2Fc^2^)/3'
_refine_ls_weighting_scheme      calc
_refine_ls_wR_factor_gt          0.0873
_refine_ls_wR_factor_ref         0.0921
_reflns_Friedel_coverage         0.000
_reflns_number_gt                1823
_reflns_number_total             2238
_reflns_threshold_expression     'I > 2\s(I)'
_cod_data_source_file            cm7b03293_si_001.cif
_cod_data_source_block           mo_CHEM0433
_cod_depositor_comments
'Adding full bibliography for 4002873--4002875.cif.'
_cod_database_code               4002875
_shelx_shelxl_version_number     2014/7
_shelx_space_group_comment
;
The symmetry employed for this shelxl refinement is uniquely defined
by the following loop, which should always be used as a source of
symmetry information in preference to the above space-group names.
They are only intended as comments.
;
_shelx_estimated_absorpt_t_min   0.099
_shelx_estimated_absorpt_t_max   0.684
_shelx_res_file
;

    mo_CHEM0433.res created by SHELXL-2014/7


TITL mo_CHEM0433a_a.res in P2(1)/c
CELL 0.71073 11.7344 8.5264 7.5155 90.000 102.089 90.000
ZERR 2.00 0.0015 0.0011 0.0009 0.000 0.004 0.000
LATT 1
SYMM -x, y+1/2, -z+1/2
SFAC C H N BR PD
UNIT 12 40 4 8 2
LIST 6 ! automatically inserted. Change 6 to 4 for CHECKCIF!!
TEMP -122.670
ACTA
L.S. 4
FMAP 2
SIZE 0.034 0.287 0.355
PLAN -1 0 0.00
HTAB
BOND $H
CONF
WGHT    0.036000    1.064200
FVAR       0.12056
PD1   5    0.500000    0.500000    0.500000    10.50000    0.01033    0.00912 =
         0.00834    0.00064    0.00267   -0.00016
BR1   4    0.291098    0.553077    0.396995    11.00000    0.01156    0.01537 =
         0.01906    0.00110    0.00266    0.00072
BR2   4    0.542767    0.705361    0.297225    11.00000    0.01666    0.01238 =
         0.01131    0.00220    0.00471   -0.00170
N1    3    0.329316   -0.050536    0.450667    11.00000    0.01262    0.01665 =
         0.01871    0.00009    0.00408    0.00088
AFIX 137
H1A   2    0.371696    0.021428    0.402808    11.00000   -1.50000
H1B   2    0.353471   -0.148786    0.428956    11.00000   -1.50000
H1C   2    0.339602   -0.035122    0.572811    11.00000   -1.50000
AFIX   0
C1    1    0.203656   -0.032751    0.364668    11.00000    0.01673    0.02175 =
         0.02397   -0.00339    0.00205   -0.00317
AFIX  23
H1D   2    0.157677   -0.111347    0.416519    11.00000   -1.20000
H1E   2    0.192237   -0.052645    0.232331    11.00000   -1.20000
AFIX   0
C2    1    0.160747    0.128278    0.395192    11.00000    0.01353    0.02444 =
         0.03019    0.00111    0.00122    0.00397
AFIX  23
H2A   2    0.209783    0.207076    0.349945    11.00000   -1.20000
H2B   2    0.167889    0.145790    0.527291    11.00000   -1.20000
AFIX   0
C3    1    0.035064    0.149843    0.298755    11.00000    0.02380    0.04710 =
         0.04497    0.01159    0.00147    0.01331
AFIX 137
H3A   2    0.027761    0.131982    0.168037    11.00000   -1.50000
H3B   2    0.010000    0.256846    0.318881    11.00000   -1.50000
H3C   2   -0.014026    0.074677    0.346845    11.00000   -1.50000

REM <hkl>
REM D:\frames\guest\CHEM0433\work\mo_CHEM0433a-auto.hkl
REM </hkl>
AFIX   0
HKLF 4 1 1 0 0 0 1 0 0 0 1

REM  mo_CHEM0433a_a.res in P2(1)/c
REM R1 =  0.0407 for    1823 Fo > 4sig(Fo)  and  0.0582 for all    2238 data
REM     63 parameters refined using      0 restraints

END

WGHT      0.0360      1.0607

REM Instructions for potential hydrogen bonds
EQIV $1 -x+1, y-1/2, -z+1/2
HTAB N1 Br2_$1
EQIV $2 x, y-1, z
HTAB N1 Br1_$2
HTAB N1 Br2_$2
EQIV $3 x, -y+1/2, z+1/2
HTAB N1 Br1_$3
HTAB N1 Br2_$3
EQIV $4 x, -y+1/2, z-1/2
HTAB C1 Br1_$4
HTAB C2 Br1

REM Highest difference peak  1.414,  deepest hole -1.997,  1-sigma level  0.274
Q1    1   0.5134  0.5034  0.3734  11.00000  0.05    1.41
;
_shelx_res_checksum              24852
_shelx_hkl_file
;
   0   0  -1    0.02    0.10
   0   0   1    0.21    0.11
   0   0  -1    0.11    0.08
   0   0  -1    0.04    0.03
   0   0   1    0.11    0.09
   0   0  -2    4.20    0.41
   0   0   2    5.02    0.36
   0   0   2    4.50    0.47
   0   0  -2    4.38    0.44
   0   0   2    4.36    0.41
   0   0  -3    0.11    0.09
   0   0   3    0.31    0.27
   0   0   3    0.13    0.17
   0   0  -3   -0.01    0.29
   0   0   3    0.19    0.39
   0   0  -3    0.34    0.27
   0   0  -4    0.87    0.36
   0   0   4    1.68    0.60
   0   0   4    1.68    0.43
   0   0   4    1.35    0.28
   0   0  -4    0.51    0.47
   0   0  -5   -0.85    0.95
   0   0   5   -0.37    0.32
   0   0   5   -0.39    0.60
   0   0  -5   -0.73    0.42
   0   0   6    1.66    0.48
   0   0   6    2.07    0.98
   0   0   7    0.05    1.10
   0   0   8    6.53    1.76
   0   0   9    3.40    1.83
   0   0  10  131.22    9.27
   0   1   0   -0.05    0.05
   0  -1   0    0.08    0.10
   0   1   1  230.91   12.92
   0   1   1  234.80   12.92
   0  -1  -1  208.12   12.94
   0  -1   1  190.96   12.96
   0  -1  -1  229.98   12.92
   0   1   2  110.85    6.65
   0   1  -2  113.07    6.68
   0   1  -2  104.24    6.56
   0   1   2  118.43    6.64
   0  -1  -2  109.60    6.63
   0  -1  -2  115.85    6.65
   0  -1   2  106.11    6.71
   0   1   3    8.89    0.80
   0   1   3    8.60    0.72
   0   1  -3    8.76    0.64
   0   1   3    9.05    0.83
   0   1  -3    9.82    0.84
   0  -1  -3    8.84    0.78
   0  -1  -3    7.04    0.87
   0   1   4   48.65    3.04
   0   1   4   49.55    2.95
   0   1  -4   42.10    3.04
   0   1  -4   47.95    2.89
   0   1   4   47.76    3.08
   0  -1  -4   44.54    3.00
   0  -1  -4   45.00    3.06
   0  -1   4   48.96    3.35
   0  -1   4   50.13    2.80
   0   1   5    2.49    0.49
   0   1  -5    2.67    0.45
   0   1  -5    1.09    0.64
   0   1   5    2.40    0.72
   0  -1   5    1.87    0.82
   0   1   6   40.66    2.70
   0   1   6   41.60    3.07
   0  -1   6   41.09    3.11
   0   1   7    4.56    1.33
   0   1   7    3.35    0.80
   0  -1   7    6.79    1.53
   0   1   8   31.32    3.89
   0  -1   8   41.06    3.67
   0   1   9   66.35    5.21
   0  -1   9   68.71    5.39
   0   1  10    1.96    2.35
   0  -1  10   -0.71    2.65
   0   2   0  157.11    9.26
   0  -2   0  155.52    9.26
   0   2  -1  223.85   12.90
   0   2   1  223.22   12.89
   0   2   1  214.01   12.87
   0  -2   1  210.12   12.91
   0  -2  -1  216.99   12.88
   0   2   2  502.23   27.82
   0   2  -2  407.63   27.87
   0   2   2  483.29   27.82
   0  -2  -2  492.86   27.82
   0   2   3    4.38    0.70
   0   2   3    4.75    0.64
   0   2  -3    6.75    0.82
   0  -2  -3    4.16    0.61
   0  -2   3    6.89    1.02
   0   2  -4   14.82    0.90
   0   2  -4   11.42    1.29
   0   2   4   13.00    1.11
   0   2   4   13.99    1.22
   0   2   4   13.36    1.22
   0  -2   4   12.82    1.56
   0  -2  -4   11.31    1.15
   0  -2   4   13.40    0.86
   0   2   5    0.91    0.53
   0   2  -5    0.23    0.68
   0   2  -5    0.56    0.30
   0   2   5    0.50    0.67
   0  -2   5    0.89    0.17
   0  -2   5   -0.18    0.90
   0   2   6    1.28    0.67
   0   2   6    2.22    0.95
   0  -2   6    2.96    1.25
   0   2   7    6.61    1.33
   0   2   7    6.45    1.04
   0  -2   7    5.42    1.77
   0   2   8   94.28    6.97
   0  -2   8  105.74    7.13
   0   2   9   22.91    3.22
   0  -2   9   17.91    2.91
   0   2  10    2.32    2.35
   0  -2  10    0.64    2.79
   0   3   0    0.21    0.27
   0   3   0    0.18    0.28
   0  -3   0    0.13    0.25
   0   3   1  123.79    7.41
   0   3  -1  124.81    7.41
   0   3   1  125.34    7.40
   0  -3   1  120.89    7.44
   0  -3  -1  122.04    7.40
   0   3   2   36.08    2.31
   0   3  -2   30.73    2.44
   0   3  -2   36.02    2.35
   0   3   2   32.70    2.37
   0  -3   2   36.80    2.06
   0  -3  -2   35.62    2.28
   0   3   3  118.66    6.98
   0   3  -3  108.51    7.11
   0   3   3  118.91    6.99
   0   3  -3   97.68    7.11
   0   3  -3  123.45    6.77
   0  -3  -3  118.25    6.99
   0   3   4  124.71    7.47
   0   3   4  126.37    7.53
   0   3   4  123.06    7.53
   0   3  -4  119.16    7.64
   0  -3   4  120.63    7.79
   0   3  -5   21.13    2.19
   0   3   5   21.84    1.86
   0  -3   5   22.05    2.28
   0   3   6   78.41    5.16
   0   3   6   72.78    5.00
   0  -3   6   81.81    5.59
   0  -3   6   81.95    4.66
   0   3   7   63.61    4.55
   0  -3   7   67.75    5.14
   0   3   8    0.74    1.32
   0  -3   8    0.71    1.87
   0   3   9   17.93    2.66
   0  -3   9   18.02    3.05
   0   3  10    3.98    2.25
   0  -3  10    2.63    3.25
   0   4   0  219.89   12.94
   0   4   0  222.96   12.95
   0  -4   0  209.34   12.95
   0   4   1   27.28    2.12
   0   4  -1   32.84    1.80
   0   4   1   31.26    2.10
   0   4  -1   31.61    2.05
   0  -4  -1   29.67    2.05
   0  -4   1   29.08    2.12
   0   4   2   20.29    1.50
   0   4   2   20.14    1.59
   0   4  -2   23.03    1.59
   0  -4   2   15.58    1.63
   0  -4  -2   20.44    1.53
   0   4  -3  193.43   11.52
   0   4   3  185.48   11.42
   0   4   3  190.37   11.46
   0   4  -3  190.41   11.23
   0   4  -4   26.61    2.68
   0   4   4   31.75    2.38
   0   4  -4   32.43    1.95
   0   4  -4   29.46    2.69
   0   4   4   31.69    2.28
   0   4   4   31.30    2.29
   0  -4   4   31.45    1.86
   0   4  -5    3.36    1.54
   0   4   5    2.63    0.78
   0   4   5    4.36    0.96
   0   4   6   27.40    2.31
   0   4  -6   20.69    3.40
   0   4   7   69.70    4.98
   0  -4   7   74.17    4.29
   0   4   8    7.61    1.69
   0   4  -8    6.50    3.25
   0   4   9    7.97    2.07
   0   4  -9    8.10    3.89
   0   5   0    0.13    0.48
   0   5   0    0.06    0.48
   0  -5   0    0.99    0.56
   0   5   1   86.30    5.32
   0   5  -1   84.70    5.27
   0   5  -1   91.17    5.33
   0   5  -1   92.26    5.05
   0  -5   1   78.66    5.35
   0  -5  -1   80.68    5.32
   0   5  -2  165.25    9.44
   0   5   2  161.28    9.43
   0   5   2  158.27    9.47
   0  -5   2  136.49    9.52
   0   5  -3    2.42    1.17
   0   5  -3    1.17    0.76
   0   5  -3    0.88    0.38
   0   5   3    0.85    0.79
   0   5   3    0.52    0.62
   0   5   3   -0.13    0.72
   0   5  -4    9.44    1.46
   0   5   4   10.44    1.53
   0   5   4   10.37    1.32
   0   5  -4   10.44    0.90
   0   5  -5  173.54   10.07
   0   5  -5  181.26   10.80
   0   5  -5  150.97   10.20
   0   5   5  172.86   10.47
   0   5   5  167.20   10.43
   0  -5   5  178.07   10.04
   0   5   6    8.51    1.43
   0   5   6    7.72    1.46
   0   5  -6    7.92    2.25
   0  -5   6    9.60    0.61
   0  -5   6    7.34    0.76
   0   5  -7    0.26    2.43
   0   5   7    3.13    1.37
   0  -5   7    1.49    0.30
   0  -5   7    1.68    0.28
   0   5   8   15.60    2.47
   0   5  -8   14.09    3.80
   0  -5   8   16.50    1.08
   0   5   9   31.28    3.34
   0   5  -9   16.51    4.87
   0  -5   9   25.89    1.68
   0   6   0   15.74    1.54
   0   6   0   16.11    1.46
   0   6  -1  155.44    9.22
   0   6   1  152.02    9.24
   0   6   1  146.89    9.28
   0   6  -1  152.85    9.25
   0   6  -2   13.70    1.40
   0   6   2   12.95    1.44
   0   6  -2   11.29    1.26
   0   6   2   10.87    1.40
   0   6   2   10.92    1.31
   0   6  -2   11.74    1.17
   0   6   3    0.92    0.91
   0   6  -3    0.46    0.56
   0   6   3    0.82    0.72
   0   6   3    1.95    1.03
   0   6  -3    1.40    0.85
   0   6  -3    1.95    0.52
   0   6  -4   67.46    4.13
   0   6  -4   66.40    4.12
   0   6   4   65.93    4.53
   0   6   4   65.96    4.42
   0   6  -4   65.37    4.53
   0   6   5   -0.20    1.10
   0   6   5    0.35    0.92
   0   6  -5    0.11    0.42
   0   6  -5    1.67    1.34
   0   6  -5    0.65    0.63
   0   6   6   36.70    3.66
   0   6  -6   34.96    3.79
   0  -6   6   38.16    2.37
   0   6  -7    3.22    2.47
   0   6   7    4.04    1.53
   0  -6   7    2.33    0.34
   0   6   8    7.12    1.90
   0   6  -8    5.91    3.36
   0  -6   8    8.60    0.65
   0   6   9   32.21    3.81
   0   7   0    0.58    0.71
   0   7   0   -0.20    0.74
   0   7   0    0.51    0.86
   0   7  -1    2.43    0.84
   0   7  -1    1.83    0.71
   0   7   1    1.01    1.12
   0   7   1    3.12    0.85
   0   7  -1    3.37    0.92
   0   7   1    2.18    0.83
   0   7   2   65.80    4.45
   0   7  -2   67.70    4.38
   0   7  -2   63.54    4.24
   0   7  -2   70.02    4.32
   0   7   2   62.89    4.59
   0   7   2   64.69    4.36
   0   7  -3  179.47   10.44
   0   7   3  177.29   10.65
   0   7  -3  169.49   10.58
   0   7  -3  174.76   10.42
   0   7   3  164.29   10.76
   0   7   3  169.25   10.59
   0   7  -4    1.22    0.67
   0   7   4   -0.12    1.01
   0   7   4    0.69    1.06
   0   7  -4    1.11    1.09
   0   7  -4    0.20    0.58
   0   7   5    6.59    1.56
   0   7  -5    6.81    0.98
   0   7  -5    4.47    1.58
   0   7  -5    7.00    0.85
   0   7   5    4.55    2.04
   0   7  -6    0.77    0.99
   0   7   6    1.66    1.28
   0   7  -6    0.45    0.48
   0   7  -6    1.65    1.84
   0  -7   6    0.39    0.48
   0   7  -7   71.37    5.96
   0   7   7   70.60    5.14
   0   7  -8   11.72    5.00
   0   7   8   13.13    2.29
   0  -7   8   12.67    0.90
   0   8   0   38.37    2.84
   0   8   0   38.18    2.92
   0   8   0   33.74    3.09
   0   8  -1   13.35    1.74
   0   8   1   13.42    1.90
   0   8   1   15.71    1.83
   0   8  -1   15.40    1.75
   0   8  -1   13.97    1.67
   0   8   1   12.32    1.77
   0   8  -2   40.87    3.15
   0   8   2   37.55    3.70
   0   8  -2   36.95    2.94
   0   8   2   44.09    3.30
   0   8   2   43.67    3.12
   0   8  -2   41.49    3.13
   0   8  -3   25.66    2.37
   0   8   3   26.07    2.41
   0   8  -3   27.76    2.16
   0   8  -3   28.17    2.53
   0   8   3   26.07    2.68
   0   8  -4   45.93    3.08
   0   8  -4   39.67    2.99
   0   8  -4   41.97    3.41
   0   8   4   43.39    3.67
   0   8   5    1.15    1.63
   0   8   5    1.32    1.22
   0   8  -5   -0.12    0.88
   0   8  -5    0.73    1.50
   0   8  -5   -0.66    0.73
   0   8  -6   36.30    2.55
   0   8  -6   32.90    3.18
   0   8  -6   36.99    3.89
   0   8   6   42.73    3.39
   0  -8   6   37.68    2.47
   0   8   7   15.42    2.33
   0  -8   7   16.48    1.45
   0   9   0   -0.26    1.02
   0   9   0    0.74    1.07
   0   9  -1    1.02    1.15
   0   9   1    1.93    1.14
   0   9   1    0.10    1.19
   0   9  -1    0.24    1.35
   0   9   2    3.60    1.38
   0   9   2    4.86    1.34
   0   9  -2    4.59    1.30
   0   9  -2    2.01    0.94
   0   9  -3   12.96    1.82
   0   9  -3   11.47    1.73
   0   9   3   12.13    1.98
   0   9   3   13.20    1.99
   0   9  -4   13.37    1.86
   0   9   4   20.38    2.52
   0   9   4   23.89    3.11
   0   9  -4   18.56    2.57
   0   9   5  129.90    8.17
   0   9  -5  116.50    7.81
   0   9  -5  127.48    8.25
   0   9  -6   14.44    3.19
   0   9  -6   17.71    2.67
   0   9   6   20.86    2.72
   0   9  -6   17.46    2.73
   0  -9   6   22.21    1.60
   0   9   7    4.54    1.88
   0  -9   7    3.66    0.89
   0  10   0    9.60    1.61
   0  10   1    0.47    1.43
   0  10  -1    2.19    1.10
   0  10  -1    3.07    1.60
   0  10   1    1.63    1.49
   0  10   2    6.25    1.59
   0  10  -2    4.20    1.18
   0  10  -2    4.44    1.57
   0  10   3    2.12    1.59
   0  10  -3    2.36    1.77
   0  10  -3    0.61    1.01
   0  10   3    3.13    1.96
   0  10  -4   73.92    5.72
   0  10  -4   68.53    5.18
   0  10   4   84.10    5.61
   0  10   4   85.09    6.20
   0  10  -5   -2.48    1.25
   0  10   5    1.81    1.73
   0  10  -5   -0.45    2.02
   0  10  -6   30.93    3.83
   0 -10   6   44.51    2.74
   0  11   0   -0.45    1.35
   0  11   0    1.62    1.59
   0  11  -1    1.00    1.37
   0  11  -1    1.16    1.70
   0  11   1    0.62    1.74
   0  11   1    3.19    1.68
   0  11   2   -1.94    1.59
   0  11  -2    0.34    1.74
   0  11  -2   -0.28    1.19
   0  11   2    0.24    1.94
   0  11  -3   15.77    2.38
   0  11   3   19.66    3.20
   0  11  -3   20.04    2.73
   0  11   3   18.92    2.85
   0  11  -4   17.56    2.63
   0  11  -4   27.02    3.82
   0  11   4   30.37    3.26
   0  12   0   16.61    2.64
   0  12   0   16.57    2.62
   0  12  -1   -0.66    1.71
   0  12   1    0.23    1.93
   0  12   1    1.25    2.19
   0  12  -1    2.15    2.22
  -1   0  10   95.49    7.34
  -1   0   8   14.95    2.34
   1   0  -7    0.37    0.67
  -1   0   7    1.23    1.18
   1   0  -6    5.45    0.80
  -1   0   6    5.85    1.09
  -1   0   6    4.65    0.72
   1   0  -5    0.30    0.47
   1   0  -5   -0.95    0.47
  -1   0   5    0.95    0.65
  -1   0   5    0.09    0.32
  -1   0   4  366.88   21.41
   1   0  -4  362.85   21.34
  -1   0   4  351.80   21.36
   1   0  -4  362.31   21.36
   1   0  -3    0.35    0.31
  -1   0   3    0.05    0.33
  -1   0   3    0.38    0.33
  -1   0   3    0.09    0.08
   1   0  -3   -0.25    0.26
  -1   0   2  324.57   19.65
  -1   0   2  333.00   19.63
   1   0  -2  336.32   19.62
   1   0  -2  338.52   19.64
  -1   0   1    0.17    0.08
   1   0  -1    0.22    0.18
   1   0  -1    0.10    0.07
  -1   0   1    0.19    0.20
  -1   0  -1    0.11    0.11
   1   0   1    0.09    0.17
   1   0   1    0.16    0.11
  -1   0  -1   -0.02    0.18
  -1   0  -2  214.51   12.36
   1   0   2  201.18   12.35
  -1   0  -2  207.93   12.45
   1   0   2  215.42   12.36
   1   0   2  208.45   12.45
   1   0   3   -0.04    0.43
   1   0   3    0.87    0.27
  -1   0  -3    0.14    0.39
   1   0   4    0.24    0.27
   1   0   4    0.70    0.36
   1   0   4    0.01    0.51
  -1   0  -4   -0.04    0.51
   1   0   5    0.24    0.37
   1   0   5    0.13    0.69
   1   0   6  166.71    9.47
   1   0   6  138.85    9.04
   1   0   8   12.34    2.01
   1   0   9    2.73    1.89
   1   0  10   58.85    5.70
  -1   1  10   -0.85    2.41
  -1  -1  10   -3.44    2.65
  -1   1   9   19.80    3.24
  -1  -1   9   21.10    3.47
  -1   1   8   46.67    3.92
  -1  -1   8   48.71    4.10
  -1   1   7   12.00    1.64
   1   1  -7    9.35    1.19
  -1   1   7    8.87    1.28
  -1  -1   7   11.40    1.71
  -1   1   6   98.82    6.04
  -1   1   6   98.47    6.28
   1   1  -6   98.44    6.05
  -1  -1   6  106.40    6.42
   1  -1  -6   94.05    6.16
  -1   1   5   30.51    2.19
   1   1  -5   34.45    2.16
   1   1  -5   29.42    2.23
  -1   1   5   34.66    2.34
  -1  -1   5   35.21    1.95
  -1  -1   5   34.48    2.47
   1  -1  -5   29.45    2.34
   1  -1  -5   31.87    2.26
  -1   1   4   36.83    2.43
   1   1  -4   35.06    2.36
  -1   1   4   34.98    2.44
   1   1  -4   35.98    2.32
  -1  -1   4   34.41    2.22
   1  -1  -4   36.89    2.42
   1  -1  -4   35.83    2.39
  -1  -1   4   38.71    2.18
  -1  -1   4   38.57    2.54
  -1   1   3  122.31    7.46
  -1   1   3  127.59    7.47
   1   1  -3  120.66    7.42
   1   1  -3  123.99    7.43
  -1  -1   3  119.85    7.35
   1  -1  -3  127.67    7.45
  -1  -1   3  128.92    7.51
   1  -1  -3  123.41    7.46
  -1   1   2   32.97    2.10
   1   1  -2   33.88    2.05
  -1   1   2   32.83    2.07
  -1  -1   2   32.70    2.00
   1  -1  -2   33.19    2.07
   1  -1  -2   32.05    2.10
  -1  -1   2   31.55    2.11
   1  -1  -2   35.76    1.96
  -1   1   1  285.71   17.11
  -1   1   1  307.65   17.13
   1   1  -1  273.73   17.09
   1   1  -1  261.75   17.10
   1  -1  -1  295.70   17.13
   1  -1  -1  273.92   17.11
  -1  -1   1  308.99   17.14
  -1  -1   1  316.99   17.09
  -1   1   0    0.39    0.14
   1   1   0    0.28    0.03
   1   1   0    0.33    0.09
   1   1   0    0.06    0.11
  -1   1   0    0.15    0.15
   1  -1   0    0.13    0.15
  -1  -1   0    0.27    0.12
  -1  -1   0    0.18    0.09
   1   1   1  118.20    7.12
  -1   1  -1  115.42    7.07
  -1  -1  -1  131.07    7.13
  -1  -1  -1  117.85    7.13
   1  -1   1  117.49    7.05
  -1   1  -2  212.37   12.72
   1   1   2  221.21   12.59
   1   1   2  209.88   12.61
  -1   1  -2  203.25   12.52
  -1  -1  -2  209.01   12.62
   1  -1   2  231.58   12.48
  -1  -1  -2  210.00   12.58
   1  -1   2  202.71   12.70
   1   1   3   28.36    1.83
   1   1   3   27.93    1.79
   1   1   3   27.21    2.01
  -1   1  -3   29.51    1.71
  -1   1  -3   26.30    1.96
   1  -1   3   27.88    2.01
  -1  -1  -3   25.47    1.87
   1   1   4  159.32    9.26
   1   1   4  165.82    9.21
   1   1   4  157.56    9.35
  -1   1  -4  142.26    9.36
  -1  -1  -4  140.50    9.32
   1  -1   4  159.60    9.43
   1   1   5   57.20    3.77
   1   1   5   57.71    3.56
   1  -1   5   55.66    3.87
   1   1   6   25.55    1.95
   1   1   6   25.26    2.30
   1  -1   6   31.65    2.57
   1   1   7   65.76    4.64
   1   1   7   77.13    5.04
   1  -1   7   80.18    5.21
   1   1   8    6.18    1.98
   1  -1   8   12.49    2.16
   1   1   9   53.50    4.63
   1  -1   9   51.97    4.66
   1   1  10    4.46    2.24
   1  -1  10   -2.09    2.45
  -1   2  10    2.45    2.27
  -1  -2  10    0.41    2.77
  -1   2   9   24.81    3.12
  -1  -2   9   23.08    3.23
  -1   2   8   18.46    3.74
  -1  -2   8   13.01    2.34
  -1   2   7   -0.08    0.81
  -1   2   7    0.63    1.06
   1   2  -7    0.04    0.52
  -1  -2   7   -0.80    1.42
   1   2  -6    2.59    0.56
  -1   2   6    3.88    0.98
   1  -2  -6    2.82    0.91
  -1  -2   6    2.91    0.28
   1   2  -5   51.93    2.99
  -1   2   5   48.00    3.21
  -1   2   5   48.18    3.09
   1   2  -5   44.36    3.13
  -1  -2   5   45.71    3.44
   1  -2  -5   46.47    3.20
   1   2  -4   25.28    1.77
  -1   2   4   26.71    1.85
  -1   2   4   24.58    1.81
   1   2  -4   25.12    1.70
   1  -2  -4   24.05    1.77
  -1  -2   4   21.46    2.05
   1  -2  -4   25.81    1.84
   1   2  -3    0.34    0.36
  -1   2   3    0.42    0.47
  -1   2   3    0.39    0.42
   1   2  -3   -1.24    0.51
   1  -2  -3    0.58    0.44
  -1  -2   3    0.02    0.54
   1  -2  -3    0.31    0.35
  -1  -2   3    0.64    0.14
  -1   2   2  992.26   54.72
  -1   2   2  929.19   54.89
   1   2  -2  899.79   54.81
   1   2  -2  813.20   54.69
   1  -2  -2 1000.00   54.87
   1  -2  -2  946.73   54.71
   1   2  -1    0.50    0.18
  -1   2   1    0.07    0.24
   1   2  -1    0.25    0.17
  -1   2   1    0.16    0.24
   1  -2  -1    0.51    0.23
  -1  -2   1    0.13    0.20
   1  -2  -1    0.09    0.28
  -1   2   0    5.63    0.48
   1   2   0    5.55    0.48
   1   2   0    5.70    0.44
  -1   2   0    5.62    0.54
   1  -2   0    4.98    0.52
  -1   2  -1  125.01    7.52
   1   2   1  126.54    7.58
   1   2   1  130.47    7.58
  -1   2  -1  125.26    7.66
  -1   2  -1  137.39    7.48
   1  -2   1  112.75    7.65
  -1  -2  -1  132.68    7.59
  -1   2  -2   29.14    1.75
   1   2   2   30.52    1.92
   1   2   2   30.41    1.90
   1   2   2   30.35    1.93
  -1  -2  -2   28.78    1.92
   1  -2   2   23.72    2.12
   1  -2   2   29.87    1.73
  -1   2  -3   21.66    1.79
   1   2   3   19.05    1.49
   1   2   3   19.81    1.50
  -1  -2  -3   19.35    1.52
   1  -2   3   24.89    1.86
   1   2   4    0.72    0.49
   1   2   4   -0.04    0.40
  -1   2  -4    0.57    0.76
   1   2   4    0.84    0.56
   1  -2   4   -0.05    0.72
   1  -2   4    0.32    0.12
   1   2   5   41.29    2.67
   1   2   5   37.70    2.80
   1  -2   5   41.04    3.11
   1   2   6   24.06    1.89
   1   2   6   20.90    2.17
   1  -2   6   24.50    2.46
   1   2   7    0.44    1.16
   1   2   7    0.40    1.00
   1  -2   7   -1.22    1.33
   1   2   8  132.04    8.68
   1  -2   8  137.41    8.94
   1   2   9    0.06    1.77
   1  -2   9   -1.71    2.15
   1   2  10    0.06    2.15
   1  -2  10   -0.71    2.71
  -1   3  10   15.66    2.85
  -1  -3  10   12.32    3.36
  -1   3   9    1.88    1.78
  -1  -3   9   -0.05    2.28
  -1  -3   8    1.64    1.95
   1   3  -7   44.98    2.81
  -1   3   7   45.90    3.43
  -1  -3   7   44.50    2.67
  -1  -3   7   41.80    3.95
  -1   3   6    3.59    1.00
  -1   3   6    3.89    0.85
   1   3  -6    4.33    0.56
  -1  -3   6    2.95    1.42
  -1   3   5    5.52    0.96
   1   3  -5    5.53    0.82
   1   3  -5    5.21    0.93
   1  -3  -5    6.84    1.00
  -1  -3   5    6.44    1.37
   1   3  -4  180.73   10.51
  -1   3   4  180.06   10.49
   1   3  -4  151.45   10.62
  -1   3   4  175.88   10.51
   1  -3  -4  180.05   10.52
  -1  -3   4  174.81   10.66
  -1  -3   4  172.00   10.25
   1   3  -3  267.93   16.45
  -1   3   3  274.95   16.37
   1   3  -3  268.59   16.42
  -1   3   3  281.68   16.40
   1   3  -3  270.21   16.23
   1  -3  -3  277.87   16.43
   1  -3  -3  285.00   16.38
   1   3  -2    8.15    1.04
  -1   3   2    9.48    1.02
   1   3  -2   11.06    0.82
  -1   3   2    9.92    0.95
   1   3  -2   10.15    0.85
   1  -3  -2    9.82    1.00
   1  -3  -2    9.28    0.88
   1   3  -1  154.33    8.99
  -1   3   1  153.96    9.06
  -1   3   1  149.89    9.05
   1   3  -1  152.16    9.00
   1  -3  -1  151.78    9.06
   1  -3  -1  150.10    9.05
  -1  -3   1  147.44    9.03
   1   3   0  226.42   13.71
  -1   3   0  238.60   13.76
   1   3   0  230.06   13.70
  -1   3   0  231.07   13.71
  -1  -3   0  236.02   13.71
   1  -3   0  227.21   13.75
  -1   3  -1    0.53    0.39
  -1   3  -1    0.50    0.25
   1   3   1    0.59    0.31
   1   3   1    0.63    0.32
   1  -3   1    0.81    0.45
  -1  -3  -1    0.72    0.31
   1   3   2    0.28    0.38
   1   3   2    0.13    0.41
  -1   3  -2    1.41    0.69
  -1   3  -2    0.15    0.54
  -1   3  -2    0.32    0.22
  -1  -3  -2    0.12    0.37
   1   3   3   92.99    5.66
   1   3   3   94.32    5.61
  -1   3  -3   90.37    5.41
   1   3   3   92.10    5.63
  -1   3  -3   85.14    5.90
  -1  -3  -3   88.92    5.66
   1  -3   3   95.80    5.40
   1   3   4    2.55    0.76
   1   3   4    2.99    0.65
   1   3   4    2.65    0.69
  -1   3  -4    2.57    1.07
   1  -3   4    1.11    1.13
   1   3   5    3.35    0.88
   1   3   5    2.07    0.71
   1  -3   5    2.35    1.25
   1  -3   5    3.32    0.28
   1  -3   5    2.58    0.36
   1   3   6   82.27    5.39
   1   3   6   80.12    5.52
   1  -3   6   94.07    5.98
   1   3   7  136.39    8.91
   1  -3   7  146.92    9.30
   1   3   8    7.82    1.68
   1  -3   8    5.43    2.18
   1   3   9   24.31    3.06
   1  -3   9   22.49    3.40
   1   3  10    6.53    2.50
   1  -3  10    8.17    3.47
  -1   4  10   33.23    4.13
   1   4  -9    5.17    3.70
  -1   4   9    1.18    1.91
   1   4  -8    2.53    2.87
  -1   4   8    3.07    1.50
   1   4  -7    2.39    2.32
  -1   4   7    4.44    1.36
  -1  -4   7    3.68    0.37
  -1   4   6   12.95    1.78
   1   4  -6   10.95    2.23
   1   4  -6   12.99    1.01
  -1   4   6   12.43    1.70
  -1   4   5   10.96    1.46
  -1   4   5   13.41    1.47
   1   4  -5   11.63    1.78
   1   4  -5   10.84    1.65
  -1  -4   5   11.36    0.89
   1   4  -4   79.59    5.08
  -1   4   4   75.46    4.92
   1   4  -4   77.41    5.05
   1   4  -4   81.09    4.75
  -1   4   4   73.86    4.97
   1   4  -3  160.96    9.91
  -1   4   3  162.03    9.93
   1   4  -3  167.82    9.78
  -1   4   3  163.88    9.96
  -1  -4   3  167.28    9.67
   1   4  -2   26.23    1.77
  -1   4   2   28.15    1.91
  -1   4   2   25.77    1.84
   1   4  -2   26.98    1.70
   1  -4  -2   25.29    1.83
  -1  -4   2   21.53    1.92
  -1   4   1  211.40   12.35
  -1   4   1  207.33   12.34
   1   4  -1  210.75   12.29
   1   4  -1  205.05   12.27
  -1  -4   1  196.83   12.31
   1  -4  -1  207.70   12.34
  -1   4   0  236.23   13.80
   1   4   0  236.98   13.78
   1  -4   0  221.98   13.83
  -1  -4   0  232.91   13.80
  -1   4  -1   -0.10    0.32
   1   4   1    0.51    0.42
  -1  -4  -1    0.30    0.40
   1  -4   1    0.13    0.53
   1   4   2    4.62    0.71
   1   4   2    4.43    0.73
  -1   4  -2    3.61    0.56
  -1   4  -2    5.66    1.00
   1   4   2    3.53    0.61
  -1   4  -2    4.18    0.78
  -1  -4  -2    4.06    0.67
   1  -4   2    2.65    0.87
   1   4   3    5.06    0.77
   1   4   3    3.96    0.81
  -1   4  -3    3.92    0.55
  -1   4  -3    4.75    1.10
   1   4   3    4.40    0.74
  -1   4  -3    5.42    1.25
   1   4   4   25.46    1.99
  -1   4  -4   26.67    1.59
  -1   4  -4   24.34    2.52
   1   4   4   24.01    2.00
   1  -4   4   25.54    1.54
  -1   4  -5   35.69    3.59
   1   4   5   38.21    2.83
   1   4   5   41.08    2.88
   1  -4   5   40.72    2.37
  -1   4  -6   37.51    4.58
   1   4   6   48.41    3.49
   1  -4   6   49.98    2.84
   1  -4   6   50.83    2.83
   1  -4   6   44.44    2.91
  -1   4  -7   28.08    4.81
   1  -4   7   40.22    2.30
  -1   4  -8    5.84    3.34
   1   4   8    5.67    1.60
   1  -4   8    4.70    0.47
  -1   4  -9   43.17    6.59
   1   4   9   48.60    4.17
   1  -4   9   46.27    2.84
  -1   5   9   45.47    4.22
  -1  -5   9   40.70    2.59
  -1   5   8   11.67    1.99
   1   5  -8    7.63    3.20
  -1  -5   8   11.29    0.81
  -1   5   7    2.74    1.33
   1   5  -7    2.05    2.27
  -1   5   6   26.89    2.30
  -1   5   6   24.75    2.45
   1   5  -6   20.51    2.92
   1   5  -6   21.17    1.67
   1   5  -5  149.33   10.07
  -1   5   5  167.56   10.21
   1   5  -5  172.61   10.34
  -1   5   5  172.92   10.21
  -1  -5   5  157.82    9.84
  -1  -5   5  176.29    9.78
  -1   5   4   55.90    3.83
   1   5  -4   59.53    3.87
   1   5  -4   56.77    3.59
   1   5  -3    0.37    1.02
   1   5  -3    0.17    0.38
  -1   5   3    1.32    0.69
   1   5  -3    0.04    0.59
  -1   5   3    0.16    0.79
  -1   5   2    1.05    0.66
   1   5  -2    0.78    0.40
  -1   5   2    0.89    0.59
  -1  -5   2    2.03    0.80
  -1   5   1   35.57    2.42
   1   5  -1   35.09    2.29
   1   5  -1   34.77    2.45
  -1   5   1   37.37    2.41
  -1  -5   1   32.73    2.41
   1  -5  -1   31.22    2.37
   1   5   0  160.20    9.68
   1   5   0  169.32    9.69
  -1   5   0  166.48    9.75
  -1   5   0  166.46    9.70
   1  -5   0  145.46    9.72
  -1  -5   0  158.04    9.70
  -1   5  -1  160.41    9.19
  -1   5  -1  157.15    9.28
   1   5   1  150.73    9.21
   1   5   1  157.83    9.28
   1   5   1  158.56    9.24
  -1  -5  -1  144.79    9.23
   1  -5   1  139.44    9.31
   1   5   2   38.01    2.64
   1   5   2   36.84    2.75
  -1   5  -2   39.32    2.54
  -1   5  -2   42.05    2.77
   1   5   3    3.92    0.79
   1   5   3    3.93    1.03
  -1   5  -3    3.37    0.56
  -1   5  -3    4.66    1.01
   1   5   3    3.75    0.80
  -1   5  -4   49.80    3.01
   1   5   4   46.99    3.38
  -1   5  -4   48.09    3.00
   1   5   4   46.13    3.34
  -1   5  -4   53.99    3.84
   1   5   5  152.00    9.59
   1   5   5  153.03    9.56
  -1   5  -5  162.02   10.14
   1   5   6   17.74    2.29
  -1   5  -6   16.77    3.04
   1   5   6   20.03    2.08
   1  -5   6   18.22    1.31
   1  -5   6   19.72    1.18
  -1   5  -7   -0.46    2.70
   1   5   7    1.19    1.24
   1  -5   7    0.79    0.26
  -1   5  -8   -0.81    5.25
   1   5   8    1.38    1.42
   1  -5   8    1.95    0.35
  -1   5  -9   14.31    4.71
   1   5   9   20.67    3.00
  -1   6   9   43.43    4.16
  -1   6   8   25.08    3.02
   1   6  -8   22.09    3.51
  -1  -6   8   23.23    1.54
  -1  -6   8   25.30    1.55
  -1   6   7    1.98    1.43
   1   6  -7   -0.82    2.08
  -1   6   6   30.82    3.01
  -1   6   6   32.78    2.99
   1   6  -6   29.05    1.96
   1   6  -6   30.53    2.47
   1   6  -6   33.14    3.11
  -1  -6   6   28.04    1.96
   1   6  -5   53.16    3.69
   1   6  -5   48.75    3.37
  -1   6   5   48.14    3.58
  -1   6   5   51.48    3.78
  -1  -6   5   46.98    3.04
  -1   6   4   20.08    1.96
   1   6  -4   19.75    1.98
   1   6  -4   22.06    1.62
  -1   6   3    9.86    1.42
  -1   6   3    7.93    1.32
   1   6  -3   10.61    1.29
   1   6  -3    9.12    1.04
   1   6  -2    4.02    0.68
  -1   6   2    4.72    1.01
   1   6  -2    3.73    0.78
  -1   6   2    3.96    0.86
  -1  -6   2    3.66    1.06
   1   6  -1   47.93    2.95
   1   6  -1   44.44    2.92
  -1   6   1   46.51    3.04
  -1  -6   1   36.37    3.06
   1   6   0   32.50    2.31
   1   6   0   33.28    2.30
  -1   6   0   32.47    2.36
  -1   6   0   30.34    2.35
   1   6   0   31.76    2.39
  -1   6  -1  202.64   12.27
   1   6   1  204.85   12.30
  -1   6  -1  203.57   12.19
   1   6   1  205.91   12.24
   1   6   1  198.10   12.22
   1   6   2   69.29    4.36
  -1   6  -2   67.59    4.21
   1   6   2   64.44    4.47
  -1   6  -2   65.78    4.38
   1   6   2   65.58    4.29
   1   6   3   17.41    1.80
  -1   6  -3   16.92    1.85
   1   6   3   17.09    2.18
  -1   6  -3   18.68    1.98
   1   6   3   19.15    1.71
  -1   6  -4   63.39    3.99
  -1   6  -4   63.52    3.98
   1   6   4   63.06    4.29
  -1   6  -4   68.37    4.65
  -1   6  -5   49.54    3.02
  -1   6  -5   46.24    3.04
   1   6   5   47.61    3.66
   1   6   5   48.99    3.53
  -1   6  -5   49.60    4.16
   1   6   6   11.60    1.89
  -1   6  -6   13.64    2.55
   1  -6   6   11.65    1.01
   1   6   7    4.01    1.46
  -1   6  -7    2.71    2.69
   1  -6   7    3.83    0.37
  -1   6  -8    1.58    3.21
   1   6   8    3.93    1.72
  -1   7   8   17.90    2.74
  -1  -7   8   12.28    0.95
  -1   7   7  133.75    8.73
   1   7  -7  134.47    8.96
   1   7  -6   21.75    1.65
  -1   7   6   24.14    2.46
   1   7  -6   18.67    2.79
  -1  -7   6   21.83    1.55
  -1   7   5    0.43    1.13
   1   7  -5    0.96    1.16
   1   7  -5    0.20    0.64
   1   7  -5    1.09    0.89
  -1   7   5    1.56    1.31
   1   7  -4   10.87    1.65
  -1   7   4    9.58    1.45
   1   7  -4    9.98    1.24
   1   7  -4   10.56    1.36
  -1   7   4   10.68    1.60
  -1   7   3   23.58    2.68
   1   7  -3   23.94    1.91
   1   7  -3   25.23    2.08
  -1   7   3   24.36    2.21
   1   7  -3   25.18    2.07
   1   7  -2    0.37    0.75
   1   7  -2    0.10    0.58
  -1   7   2    1.19    1.08
  -1   7   2    0.50    0.86
   1   7  -2    0.52    0.73
  -1   7   1    3.40    1.13
  -1   7   1    1.99    0.89
   1   7  -1    1.76    0.86
   1   7  -1    1.86    0.68
   1   7  -1    2.33    0.84
   1   7   0   40.09    2.88
   1   7   0   42.09    2.96
  -1   7   0   43.61    3.07
  -1   7   0   41.97    3.05
   1   7   0   39.75    3.10
  -1   7  -1   15.95    1.78
  -1   7  -1   17.72    1.79
   1   7   1   17.50    2.08
   1   7   1   19.93    1.70
   1   7   1   18.92    1.84
  -1   7  -2   27.58    2.23
   1   7   2   30.16    2.28
  -1   7  -2   27.26    2.36
   1   7   2   27.31    2.69
   1   7   2   29.73    2.43
   1   7   3  271.85   15.71
  -1   7  -3  265.89   15.50
   1   7   3  236.58   15.80
  -1   7  -3  261.47   15.76
   1   7   3  260.33   15.66
  -1   7  -4   43.36    2.80
   1   7   4   39.22    3.19
  -1   7  -4   43.56    3.47
   1   7   4   41.23    3.33
  -1   7  -4   40.27    2.79
  -1   7  -5    1.85    0.69
   1   7   5    3.04    1.52
   1   7   5    1.42    1.67
  -1   7  -5    1.47    0.65
  -1   7  -5    1.21    1.65
   1   7   6    0.57    1.28
  -1   7  -6    2.77    2.16
   1   7   7   16.57    2.54
   1  -7   7   10.32    1.20
   1  -7   7   12.61    0.86
  -1   7  -8    0.63    3.50
   1   7   8    0.48    1.66
  -1   8   8   40.90    3.85
  -1  -8   8   37.04    2.36
  -1   8   7    6.30    1.88
  -1   8   6   53.30    4.09
   1   8  -6   51.36    4.31
   1   8  -6   43.33    4.10
   1   8  -6   51.53    3.40
  -1  -8   6   54.91    3.27
   1   8  -5   -0.35    0.96
   1   8  -5    0.70    0.86
  -1   8   5    1.79    1.32
  -1   8   5   -0.07    1.46
   1   8  -5    0.68    1.35
   1   8  -4    0.01    1.11
  -1   8   4    1.85    1.43
   1   8  -4   -0.79    0.71
   1   8  -4    0.37    0.89
  -1   8   3   36.11    2.89
   1   8  -3   33.31    2.75
   1   8  -3   35.70    2.85
   1   8  -3   32.87    2.59
  -1   8   3   38.99    3.15
  -1   8   2    8.80    1.43
   1   8  -2    8.95    1.40
  -1   8   2    8.51    1.68
   1   8  -2    9.99    1.48
   1   8  -2    8.84    1.32
   1   8  -1   54.81    3.82
  -1   8   1   59.83    4.20
   1   8  -1   52.16    3.99
   1   8  -1   55.53    3.82
  -1   8   1   57.07    3.91
   1   8   0    4.22    1.10
   1   8   0    3.30    1.27
   1   8   0    3.16    0.97
  -1   8   0    3.66    1.15
  -1   8   0    3.76    1.09
  -1   8  -1    7.77    1.31
   1   8   1    7.92    1.64
   1   8   1    9.67    1.46
  -1   8  -1    7.98    1.34
   1   8   1    9.72    1.42
   1   8   2  148.72   10.06
  -1   8  -2  164.49    9.63
  -1   8  -2  157.83    9.75
   1   8   2  153.76    9.69
  -1   8  -2  158.51    9.65
   1   8   2  155.53    9.76
  -1   8  -3    2.73    1.58
  -1   8  -3    2.75    1.25
   1   8   3    5.82    1.50
  -1   8  -3    4.69    0.99
   1   8   3    3.45    1.16
   1   8   4   46.73    4.22
  -1   8  -4   57.25    3.70
  -1   8  -4   57.42    4.32
  -1   8  -4   56.51    3.71
   1   8   4   57.11    4.30
  -1   8  -5    2.16    0.85
   1   8   5    3.94    1.71
  -1   8  -5    3.73    1.81
   1   8   5    3.11    1.38
  -1   8  -5    0.93    0.84
   1   8   6    4.05    1.53
  -1   8  -6    3.71    1.18
  -1   8  -6    3.07    2.64
   1   8   7   19.49    2.58
  -1   8  -7   13.40    3.31
   1  -8   7   11.88    0.95
   1  -8   7   14.99    1.34
  -1   9   7   21.79    3.05
  -1   9   6   18.37    2.63
   1   9  -6   12.23    2.16
  -1  -9   6   16.31    1.35
   1   9  -5   69.11    4.93
  -1   9   5   69.87    4.94
   1   9  -5   60.45    4.62
  -1   9   4   20.74    2.39
  -1   9   4   15.37    2.29
   1   9  -4   13.75    1.88
   1   9  -4   18.56    2.37
  -1   9   3    4.78    1.38
   1   9  -3    2.82    0.98
  -1   9   3    4.44    1.73
   1   9  -3    5.42    1.42
  -1   9   2    0.85    1.27
   1   9  -2    1.71    1.01
   1   9  -2    1.57    1.22
  -1   9   2    1.66    1.42
   1   9  -1    1.58    1.06
  -1   9   1    0.45    1.16
  -1   9   1    1.10    1.37
   1   9  -1    0.74    1.06
  -1   9   0    7.89    1.60
   1   9   0    6.99    1.36
   1   9   0    8.35    1.48
  -1   9   0    6.46    1.45
   1   9   1   80.18    5.17
   1   9   1   74.89    5.25
  -1   9  -1   74.51    5.23
   1   9   2   10.64    1.61
   1   9   2   11.71    1.72
  -1   9  -2    9.84    1.43
  -1   9  -2   10.53    1.69
  -1   9  -3   38.40    3.41
   1   9   3   38.85    3.28
   1   9   3   39.09    3.53
  -1   9  -3   35.97    2.91
   1   9   4   12.68    1.90
  -1   9  -4   10.80    1.73
  -1   9  -4   14.98    2.21
   1   9   4   12.54    2.05
   1   9   5   49.10    3.61
  -1   9  -5   35.81    3.07
  -1   9  -5   36.43    4.62
  -1   9  -6    9.95    1.32
   1   9   6   17.40    2.59
  -1   9  -6   12.08    1.73
  -1   9  -6    5.64    2.64
   1  10  -6   22.50    3.71
  -1  10   6   31.20    3.51
  -1 -10   6   34.34    2.25
   1  10  -5   -1.26    1.38
  -1  10   5    1.97    1.69
  -1  10   4   20.01    2.76
   1  10  -4   22.81    3.06
  -1  10   4   24.25    3.13
   1  10  -4   18.67    2.31
  -1  10   3    5.36    1.62
   1  10  -3    3.95    1.59
   1  10  -3    2.44    1.16
  -1  10   3    2.86    2.11
   1  10  -2   47.72    3.59
   1  10  -2   43.87    3.52
  -1  10   2   41.76    4.44
  -1  10   2   46.60    3.89
  -1  10   1    6.37    1.83
   1  10  -1    6.43    1.57
  -1  10   1    6.71    1.59
   1  10  -1    7.26    1.52
   1  10   0   66.88    4.65
  -1  10   0   60.37    4.73
  -1  10   0   63.69    4.62
   1  10   0   59.65    4.58
   1  10   1    1.46    1.30
  -1  10  -1    1.72    1.52
   1  10   1    0.64    1.40
   1  10   2   24.50    2.60
   1  10   2   24.70    3.49
  -1  10  -2   22.72    2.44
  -1  10  -2   21.85    2.88
  -1  10  -3    1.40    1.70
  -1  10  -3   -1.04    0.99
   1  10   3   -0.72    1.72
   1  10   3    0.77    1.48
   1  10   4   55.18    4.94
  -1  10  -4   51.79    4.62
  -1  10  -4   42.42    3.76
   1  10   4   61.78    4.42
  -1  10  -5   -2.13    1.12
  -1  10  -5   -1.68    2.35
   1  10   5    0.95    1.66
  -1  11   4   21.91    3.03
   1  11  -4   16.17    2.43
  -1  11   3    3.96    1.82
   1  11  -3    2.76    1.87
   1  11  -3    1.21    1.26
  -1  11   3    5.21    2.59
  -1  11   2    4.10    1.81
  -1  11   2    3.60    2.02
   1  11  -2    3.76    1.79
   1  11  -2    1.35    1.22
   1  11  -1    3.87    1.80
  -1  11   1    0.43    1.77
  -1  11   1    0.74    1.72
   1  11  -1   -0.02    1.30
  -1  11   0   14.85    2.28
  -1  11   0   14.93    2.27
   1  11   0   12.86    2.15
   1  11   0    8.34    1.86
   1  11   1   21.40    2.86
  -1  11  -1   18.61    3.08
  -1  11  -1   18.64    2.72
   1  11   1   23.85    3.36
   1  11   2    6.53    1.87
   1  11   2    6.17    2.31
  -1  11  -2    2.44    2.05
  -1  11  -2    5.36    1.44
   1  11   3   49.36    4.02
   1  11   3   46.81    5.01
  -1  11  -3   38.61    3.61
  -1  11  -3   43.47    4.41
  -1  11  -4    9.38    2.71
   1  11   4    9.46    2.16
   1  12  -1    7.26    2.13
  -1  12   1    8.28    2.37
  -1  12   1    6.18    2.24
   1  12  -1    3.35    1.65
  -1  12   0    2.78    1.90
   1  12   0    3.61    2.18
   1  12   0   -0.06    1.86
  -1  12   0    2.65    2.23
   1  12   1    0.90    2.04
  -1  12  -1    0.15    2.09
   1  12   1    3.87    2.23
  -1  12  -1    1.24    1.63
  -2   0  10   30.99    4.43
  -2   0   9   -0.50    1.91
  -2   0   8    4.46    1.64
   2   0  -7    0.58    0.71
  -2   0   7    0.45    0.66
  -2   0   7    0.67    1.09
  -2   0   6   52.90    3.53
  -2   0   6   48.86    3.16
   2   0  -6   49.73    3.38
   2   0  -5   -0.56    0.51
   2   0  -5   -0.12    0.46
  -2   0   5    0.70    0.67
  -2   0   5   -0.10    0.15
  -2   0   4  787.05   47.00
   2   0  -4  809.71   46.97
   2   0  -4  809.85   47.02
  -2   0   4  760.40   47.04
  -2   0   4  823.02   46.83
  -2   0   3    0.50    0.30
  -2   0   3    0.73    0.45
   2   0  -3   -0.52    0.41
   2   0  -3    0.22    0.23
  -2   0   2   40.71    2.80
   2   0  -2   46.19    2.66
   2   0  -2   43.18    2.83
  -2   0   2   45.36    2.67
  -2   0   1    0.15    0.10
  -2   0   1    0.07    0.33
   2   0  -1   -0.09    0.38
   2   0  -1    0.17    0.10
   2   0   0   52.33    2.99
  -2   0   0   44.70    2.98
  -2   0  -1   -0.01    0.28
   2   0   1    0.15    0.04
  -2   0  -1   -0.10    0.27
   2   0   1    0.13    0.25
   2   0   1   -0.04    0.26
  -2   0  -2   55.14    3.39
   2   0   2   56.62    3.48
  -2   0  -2   54.11    3.52
   2   0   2   55.77    3.38
  -2   0  -3    0.58    0.52
  -2   0  -3    0.14    0.31
   2   0   3    0.11    0.27
   2   0   3   -0.14    0.43
  -2   0  -4  100.93    5.92
   2   0   4   97.48    5.88
   2   0   4   97.73    5.88
  -2   0  -4   90.64    6.11
   2   0   4  101.01    6.11
   2   0   5    0.51    0.48
   2   0   5   -0.04    0.70
   2   0   6  207.57   12.51
   2   0   7    4.00    1.41
   2   0   8    6.00    2.03
   2   0   9    3.44    2.06
   2   0  10   19.74    3.41
  -2   1  10    5.12    2.53
  -2  -1  10    2.36    2.64
  -2  -1   9    3.98    2.19
  -2   1   8   25.63    2.80
   2   1  -8   26.30    2.26
  -2  -1   8   29.24    3.12
   2  -1  -8   31.22    2.54
   2   1  -7    0.78    0.70
  -2   1   7   -0.29    1.08
  -2   1   7    0.19    0.73
  -2  -1   7   -0.81    1.11
   2  -1  -7    0.09    0.81
  -2   1   6  102.23    6.42
   2   1  -6   96.51    6.37
   2   1  -6  101.28    6.25
  -2  -1   6  107.51    6.50
   2  -1  -6  100.42    6.36
  -2  -1   6  101.63    6.00
   2   1  -5  167.59   10.46
  -2   1   5  173.26   10.55
   2   1  -5  176.44   10.49
   2  -1  -5  164.87   10.50
  -2  -1   5  188.20   10.62
   2  -1  -5  178.33   10.56
   2   1  -4   31.97    2.23
   2   1  -4   34.83    2.10
  -2   1   4   32.06    2.26
   2  -1  -4   32.19    2.25
  -2  -1   4   27.02    2.18
   2  -1  -4   33.21    2.14
  -2  -1   4   35.11    2.26
  -2   1   3  248.94   14.68
   2   1  -3  239.87   14.57
  -2   1   3  239.62   14.63
   2  -1  -3  245.91   14.68
  -2  -1   3  255.85   14.64
   2  -1  -3  250.73   14.62
   2   1  -2   26.99    1.57
  -2   1   2   25.34    1.64
  -2   1   2   26.95    1.53
  -2   1   2   24.98    1.72
  -2  -1   2   25.33    1.62
  -2  -1   2   24.06    1.73
   2  -1  -2   27.12    1.64
   2  -1  -2   24.68    1.75
  -2   1   1   67.68    3.99
  -2   1   1   67.50    4.04
   2   1  -1   68.95    4.05
   2  -1  -1   63.70    4.05
  -2  -1   1   59.24    4.07
   2  -1  -1   70.24    3.99
   2   1   0    2.87    0.30
  -2   1   0    4.56    0.46
  -2   1   0    3.55    0.46
   2   1   0    3.40    0.41
   2  -1   0    4.45    0.47
  -2  -1   0    3.21    0.31
  -2  -1   0    3.13    0.43
   2   1   1    0.71    0.22
  -2   1  -1    0.55    0.09
  -2   1  -1    0.81    0.07
   2   1   1    0.69    0.24
  -2   1  -1    0.34    0.31
  -2  -1  -1    0.21    0.23
  -2  -1  -1    0.61    0.25
   2  -1   1    0.46    0.27
  -2   1  -2   55.43    4.12
   2   1   2   67.68    3.97
  -2   1  -2   60.90    3.98
   2  -1   2   66.30    4.11
   2  -1   2   66.15    3.88
  -2  -1  -2   64.32    3.99
  -2  -1  -2   68.83    3.95
   2   1   3   11.88    0.96
  -2   1  -3   10.09    1.24
   2   1   3   10.35    0.89
  -2   1  -3   11.63    0.87
   2   1   3   12.38    1.04
  -2  -1  -3    8.47    1.05
  -2  -1  -3   11.63    0.98
   2  -1   3   11.76    1.19
  -2   1  -4  133.75    8.99
   2   1   4  159.21    8.76
  -2   1  -4  154.71    8.71
   2   1   4  153.46    8.90
   2   1   4  140.86    8.78
   2  -1   4  153.09    9.00
   2  -1   4  127.79    8.60
   2   1   5  245.04   15.03
   2   1   5  246.59   14.84
   2  -1   5  257.66   15.14
   2   1   6   28.36    2.41
   2   1   6   25.83    2.10
   2  -1   6   32.29    2.62
   2   1   7   67.49    4.83
   2  -1   7   72.24    5.02
   2   1   8    1.37    1.50
   2   1   9    4.19    1.94
   2  -1   9    1.02    2.04
   2   1  10    6.21    2.53
   2  -1  10    1.27    2.47
  -2   2  10    4.86    2.40
  -2  -2  10    0.69    2.62
  -2   2   9    4.27    2.03
  -2  -2   9    2.53    2.25
   2   2  -8    5.12    0.84
  -2   2   8    4.86    1.50
  -2  -2   8    4.55    1.99
  -2   2   7   11.94    1.77
  -2   2   7   13.97    1.59
   2   2  -7   10.22    1.33
  -2  -2   7   11.65    1.90
   2  -2  -7   11.78    1.50
   2   2  -6  111.01    6.46
   2   2  -6   92.28    6.48
  -2   2   6  107.49    6.65
  -2  -2   6  113.29    6.88
   2  -2  -6  104.33    6.64
  -2   2   5   36.65    2.53
   2   2  -5   34.25    2.39
   2   2  -5   35.23    2.46
   2  -2  -5   37.02    2.62
  -2   2   4   80.07    4.95
  -2   2   4   80.02    4.90
   2   2  -4   78.25    4.99
   2   2  -4   82.84    4.81
   2  -2  -4   81.36    4.97
  -2  -2   4   70.41    4.99
   2  -2  -4   78.58    4.87
  -2   2   3  115.19    7.06
   2   2  -3  119.15    6.98
  -2   2   3  118.76    7.11
   2  -2  -3  119.72    7.05
  -2  -2   3  121.92    6.93
  -2  -2   3  103.24    7.08
   2  -2  -3  120.40    7.13
   2   2  -2  468.11   27.97
  -2   2   2  502.55   28.03
  -2   2   2  472.18   27.99
   2   2  -2  444.02   27.93
   2   2  -2  437.13   27.91
   2  -2  -2  473.17   27.98
  -2  -2   2  489.85   27.92
   2  -2  -2  497.30   27.85
   2  -2  -2  475.79   28.03
  -2  -2   2  486.65   27.88
   2   2  -1   20.34    1.35
  -2   2   1   20.43    1.41
  -2   2   1   20.37    1.39
   2   2  -1   20.68    1.26
  -2  -2   1   20.99    1.28
  -2  -2   1   21.11    1.34
  -2  -2   1   20.99    1.25
   2  -2  -1   20.46    1.37
   2  -2  -1   19.49    1.42
   2   2   0  192.45   11.89
   2   2   0  210.43   11.95
  -2   2   0  205.96   12.00
  -2   2   0  204.81   11.94
   2  -2   0  196.97   11.99
  -2  -2   0  220.57   11.96
  -2  -2   0  179.76   11.94
  -2   2  -1   11.34    1.16
   2   2   1   12.47    0.92
  -2   2  -1   11.11    1.11
   2   2   1   11.08    0.86
  -2   2  -1   11.48    0.86
  -2  -2  -1   11.95    0.89
  -2  -2  -1   13.06    0.96
   2  -2   1   12.31    0.82
  -2   2  -2   23.82    2.20
   2   2   2   30.74    1.92
  -2   2  -2   28.53    1.86
   2   2   2   29.19    1.93
   2  -2   2   33.29    1.72
   2  -2   2   23.34    2.20
  -2  -2  -2   31.00    1.97
  -2  -2  -2   28.77    1.95
  -2   2  -3   54.38    3.87
   2   2   3   65.96    3.93
  -2   2  -3   54.84    4.19
   2   2   3   68.24    3.96
  -2  -2  -3   58.33    3.96
   2  -2   3   70.17    4.24
   2  -2   3   65.63    3.70
  -2   2  -4  112.30    7.86
   2   2   4  127.54    7.64
   2   2   4  130.87    7.54
   2  -2   4  126.49    7.86
   2   2   5   13.32    1.45
   2   2   5   13.08    1.27
   2  -2   5   11.51    0.83
   2  -2   5   11.76    1.76
   2   2   6   26.74    2.33
   2   2   6   23.95    2.09
   2  -2   6   30.03    2.69
   2   2   7   44.96    3.53
   2  -2   7   46.59    3.84
   2   2   8   76.70    5.45
   2   2   9    0.51    1.77
   2  -2   9    1.19    2.31
   2   2  10    5.85    2.52
   2  -2  10    7.79    2.90
  -2   3  10   12.76    2.83
  -2   3   9    3.98    1.91
  -2  -3   9    4.39    2.45
   2   3  -8   39.29    2.71
  -2   3   8   42.29    3.61
  -2  -3   8   39.59    2.46
  -2  -3   8   44.00    4.14
  -2   3   7   75.26    5.19
   2   3  -7   78.37    4.72
  -2   3   7   73.49    4.99
  -2  -3   7   74.70    4.50
  -2  -3   7   78.54    5.48
   2  -3  -7   74.41    5.15
   2   3  -6    0.41    0.60
  -2   3   6    0.50    0.93
   2   3  -6   -0.28    0.81
  -2  -3   6    0.86    1.24
   2  -3  -6    0.42    0.97
  -2   3   5   15.51    1.52
   2   3  -5   15.29    1.34
   2   3  -5   14.95    1.63
   2  -3  -5   16.24    1.69
  -2   3   4   10.91    1.29
   2   3  -4   11.46    1.04
  -2   3   4   12.00    1.18
   2   3  -4    8.94    1.36
   2   3  -4    8.69    1.26
   2  -3  -4   13.57    1.37
  -2   3   3  174.44   10.45
   2   3  -3  165.96   10.37
  -2   3   3  175.68   10.48
   2   3  -3  179.42   10.38
   2   3  -3  173.70   10.40
  -2  -3   3  170.00   10.25
   2  -3  -3  181.38   10.43
   2  -3  -3  169.89   10.48
  -2   3   2  169.45    9.87
   2   3  -2  163.02    9.77
   2   3  -2  165.06    9.74
   2  -3  -2  159.45    9.82
   2  -3  -2  164.14    9.88
   2   3  -1   67.36    4.00
   2   3  -1   66.13    3.94
  -2   3   1   66.30    4.05
  -2   3   1   65.00    4.06
  -2  -3   1   64.69    3.96
  -2  -3   1   68.08    3.99
   2  -3  -1   62.01    4.03
   2  -3  -1   64.08    4.06
  -2   3   0  141.77    8.45
   2   3   0  140.00    8.38
   2   3   0  133.33    8.34
  -2   3   0  141.66    8.38
  -2  -3   0  148.15    8.40
   2  -3   0  136.42    8.45
  -2  -3   0  140.50    8.36
  -2   3  -1   12.24    1.13
  -2   3  -1   11.90    0.88
   2   3   1   11.26    0.97
   2   3   1   11.65    0.90
   2  -3   1    8.81    1.11
   2  -3   1   11.51    0.87
  -2  -3  -1   11.63    0.93
  -2   3  -2  184.23   10.45
  -2   3  -2  165.66   10.92
  -2   3  -2  156.94   10.81
   2   3   2  193.17   10.57
   2   3   2  177.49   10.55
  -2  -3  -2  178.55   10.58
  -2   3  -3  162.04   11.21
  -2   3  -3  190.92   10.80
   2   3   3  185.96   10.97
   2   3   3  193.39   10.93
   2   3   3  191.32   10.97
  -2  -3  -3  167.69   10.96
   2   3   4    1.00    0.65
  -2   3  -4   -0.09    0.42
   2   3   4    0.49    0.52
   2  -3   4   -0.22    1.01
   2  -3   4    0.54    0.15
   2   3   5   21.90    1.83
   2   3   5   21.24    1.87
   2  -3   5   20.92    1.34
   2  -3   5   22.36    2.63
   2   3   6    9.80    1.59
   2   3   6    7.91    1.17
   2  -3   6   13.69    2.11
   2   3   7   80.48    5.78
   2  -3   7   89.72    6.27
   2   3   8   15.27    2.39
   2  -3   8   20.08    3.23
   2   3   9    5.40    1.91
   2  -3   9    4.40    2.61
   2  -3   9    4.17    0.49
  -2   4  10   27.16    4.34
  -2   4   9    6.34    1.96
   2   4  -9    9.94    3.57
   2   4  -8    4.93    2.77
  -2   4   8    3.38    1.59
   2   4  -8    3.90    0.61
  -2  -4   8    3.32    0.41
   2   4  -7   23.69    3.51
   2   4  -7   25.43    1.82
  -2   4   7   24.65    2.46
  -2   4   6   21.08    1.96
   2   4  -6   17.85    1.69
   2   4  -6   17.03    1.86
   2   4  -6   17.87    2.68
   2  -4  -6   18.03    2.21
   2   4  -5   -0.29    0.70
  -2   4   5    0.86    0.81
   2   4  -5   -0.02    1.02
   2   4  -5   -0.47    0.95
   2  -4  -5    0.42    0.95
  -2   4   4  131.00    8.50
   2   4  -4  134.11    8.40
  -2   4   4  139.29    8.47
   2   4  -4  140.62    8.40
   2   4  -4  147.22    8.44
   2  -4  -4  139.41    8.53
  -2  -4   4  135.50    8.19
  -2   4   3   25.49    1.93
   2   4  -3   25.94    1.81
   2   4  -3   30.16    2.11
  -2   4   3   25.56    2.01
   2   4  -3   25.35    1.78
   2  -4  -3   26.25    2.11
   2   4  -2   24.94    1.59
  -2   4   2   23.43    1.76
  -2   4   2   22.05    1.70
   2   4  -2   25.01    1.56
   2  -4  -2   22.72    1.83
  -2  -4   2   21.61    1.73
   2  -4  -2   20.48    1.68
   2   4  -1  344.63   20.59
  -2   4   1  351.76   20.68
  -2   4   1  348.84   20.64
   2   4  -1  346.48   20.55
   2  -4  -1  354.44   20.66
   2  -4  -1  349.04   20.66
  -2  -4   1  341.82   20.59
   2   4   0   69.46    4.34
  -2   4   0   75.84    4.49
  -2   4   0   70.99    4.39
   2  -4   0   66.58    4.46
   2  -4   0   72.13    4.42
  -2  -4   0   71.90    4.38
  -2   4  -1   63.74    3.94
  -2   4  -1   68.28    4.14
   2   4   1   62.16    4.00
   2  -4   1   59.81    4.17
  -2  -4  -1   65.92    4.02
  -2   4  -2   10.66    1.45
   2   4   2   10.66    1.10
  -2   4  -2   10.62    1.52
   2   4   2   10.66    1.03
  -2   4  -2   11.00    0.90
  -2  -4  -2    9.81    1.08
   2   4   3   58.30    3.88
  -2   4  -3   62.44    4.20
  -2   4  -3   50.53    4.58
   2   4   3   60.59    3.80
   2   4   3   60.70    3.81
  -2   4  -4   31.83    3.06
   2   4   4   32.44    2.39
   2   4   4   31.72    2.37
  -2   4  -4   32.31    2.11
   2   4   5    0.28    0.87
  -2   4  -5   -0.22    1.61
   2   4   5    0.43    0.80
   2  -4   5    0.01    0.17
   2  -4   5   -0.06    0.15
   2   4   6   57.68    3.97
  -2   4  -6   42.62    5.03
   2  -4   6   60.79    3.34
   2  -4   6   55.36    3.40
   2   4   7    1.32    1.26
  -2   4  -7    2.39    2.74
   2  -4   7    0.30    0.25
   2   4   8    3.84    1.56
  -2   4  -8    3.58    3.44
   2  -4   8    3.93    0.45
  -2   4  -9   55.39    7.21
   2   4   9   54.20    4.57
   2  -4   9   54.97    3.32
  -2   5   9   64.90    5.06
  -2  -5   9   61.88    3.79
   2   5  -8    0.99    2.58
  -2   5   8    2.64    1.62
  -2  -5   8    3.33    0.40
   2   5  -7    2.67    0.65
   2   5  -7    0.60    1.90
   2   5  -6   54.72    4.11
   2   5  -6   52.00    3.83
  -2   5   6   56.85    3.92
   2   5  -5  111.65    6.93
  -2   5   5  113.72    6.93
   2   5  -5  111.87    6.89
   2   5  -5   98.32    6.91
  -2  -5   5  110.72    6.53
  -2   5   4    7.04    1.25
   2   5  -4    9.50    1.20
   2   5  -4   11.72    1.15
   2   5  -4    8.85    1.40
  -2   5   4    9.14    1.31
  -2  -5   4   10.36    0.74
  -2  -5   4    9.21    0.62
   2  -5  -4   10.89    1.43
  -2   5   3    2.78    0.79
   2   5  -3    2.75    1.02
  -2   5   3    4.61    0.95
   2   5  -3    3.51    0.57
   2   5  -3    4.30    0.67
   2  -5  -3    4.15    1.03
  -2   5   2  121.53    7.58
   2   5  -2  129.65    7.46
   2   5  -2  128.51    7.44
  -2   5   2  124.25    7.58
   2  -5  -2  120.00    7.61
  -2  -5   2  115.09    7.56
   2   5  -1   22.80    1.65
  -2   5   1   22.41    1.79
  -2   5   1   22.10    1.76
   2   5  -1   22.86    1.59
  -2  -5   1   20.64    1.69
   2   5   0   13.21    1.19
   2   5   0   13.10    1.10
  -2   5   0   11.57    1.20
  -2   5   0   15.20    1.32
   2  -5   0    9.43    1.28
  -2  -5   0   12.56    1.16
  -2   5  -1  229.19   13.07
   2   5   1  226.72   13.09
   2   5   1  215.36   13.11
  -2   5  -1  232.18   13.23
   2  -5   1  191.04   13.22
  -2  -5  -1  219.33   13.13
  -2   5  -2   27.43    2.19
  -2   5  -2   26.77    1.86
   2   5   2   25.80    2.14
   2   5   2   27.02    1.96
   2   5   3    8.57    1.26
  -2   5  -3    8.80    1.38
   2   5   3    6.44    1.15
   2   5   3    8.42    1.12
  -2   5  -4   66.83    4.07
   2   5   4   67.78    4.41
   2   5   4   63.50    4.34
  -2   5  -4   66.90    4.91
   2   5   5  115.09    7.53
  -2   5  -5  122.32    8.37
   2   5   5  120.75    7.55
   2  -5   5  121.52    7.06
  -2   5  -6    3.79    2.48
   2   5   6    5.38    1.28
   2   5   7    1.70    1.24
  -2   5  -7   -0.63    2.71
   2   5   8   11.79    2.03
  -2   5  -8   10.56    4.18
   2   5   9   10.25    2.12
  -2   5  -9    6.21    4.72
  -2   6   9   11.30    2.42
  -2  -6   9    8.92    0.85
  -2  -6   9    9.54    0.92
  -2   6   8   27.53    2.99
  -2  -6   8   23.39    1.56
  -2   6   7   16.47    2.28
   2   6  -7   12.25    2.14
   2   6  -7   13.10    1.39
  -2  -6   7   12.73    0.91
   2   6  -6    9.05    1.56
  -2   6   6    8.89    1.52
   2   6  -6    6.73    1.56
  -2   6   6    6.54    1.62
  -2  -6   6    7.91    0.61
   2   6  -5   63.86    4.24
   2   6  -5   61.79    4.27
  -2   6   5   63.40    4.35
  -2  -6   5   61.97    3.82
   2   6  -4    9.83    1.36
  -2   6   4   10.91    1.48
   2   6  -4    9.08    1.74
   2   6  -4   10.57    1.24
  -2   6   3  110.25    7.04
  -2   6   3  113.84    7.13
   2   6  -3  106.33    6.85
   2   6  -3  118.09    6.88
   2   6  -2   13.91    1.26
  -2   6   2   12.77    1.45
   2   6  -2   12.62    1.24
  -2   6   2   12.30    1.70
  -2  -6   2   10.99    1.72
  -2   6   1    4.55    0.95
   2   6  -1    4.39    0.74
  -2   6   1    3.03    0.87
   2   6  -1    3.80    0.71
  -2  -6   1    2.82    0.91
  -2   6   0  112.91    6.71
   2   6   0  113.26    6.64
  -2   6   0  109.71    6.78
   2   6   0  106.43    6.68
  -2  -6   0   98.65    6.70
   2   6   1   28.31    2.19
  -2   6  -1   30.21    2.31
   2   6   1   30.20    2.15
  -2   6  -1   27.51    2.14
   2   6   2   56.92    4.23
  -2   6  -2   63.74    4.24
   2   6   2   60.66    4.05
   2   6   2   66.40    4.15
  -2   6  -2   64.79    3.98
  -2   6  -3   73.77    4.79
   2   6   3   66.16    4.42
  -2   6  -3   68.42    4.46
   2   6   3   60.57    4.65
   2   6   3   70.01    4.48
  -2   6  -4   16.83    1.43
  -2   6  -4   17.04    2.40
   2   6   4   17.15    1.79
  -2   6  -5   34.29    2.35
   2   6   5   34.90    3.01
   2   6   5   35.82    2.82
  -2   6  -5   34.99    2.24
  -2   6  -5   33.52    3.55
  -2   6  -6    6.33    2.44
   2   6   6    6.94    1.42
   2  -6   6    5.75    0.47
   2   6   7   62.13    4.60
  -2   6  -7   57.64    6.73
   2  -6   7   63.62    3.88
   2   6   8    6.97    1.74
  -2   6  -8    2.47    3.99
  -2   7   8    0.39    1.79
   2   7  -7   79.60    5.60
   2   7  -7   94.07    7.53
  -2   7   7   96.50    6.22
   2   7  -7   89.65    5.51
  -2   7   6   32.65    2.88
   2   7  -6   22.89    3.13
   2   7  -6   33.22    2.88
   2   7  -5   17.26    2.01
  -2   7   5   17.42    2.10
  -2  -7   5   17.41    1.24
   2   7  -4    5.82    0.95
   2   7  -4    5.26    1.07
  -2   7   4    5.64    1.29
  -2   7   3   19.25    2.52
   2   7  -3   19.25    1.74
  -2   7   3   19.60    2.00
   2   7  -3   22.04    1.79
  -2   7   2   47.32    3.37
   2   7  -2   46.75    3.16
   2   7  -2   45.37    3.17
  -2   7   2   47.41    3.56
  -2   7   1   95.71    6.32
   2   7  -1   97.80    6.16
   2   7  -1  103.61    6.22
  -2   7   0    2.28    0.94
   2   7   0    0.93    0.74
   2   7   0    1.22    0.74
  -2   7   0    1.72    0.94
   2   7   1   21.23    1.73
  -2   7  -1   19.58    1.94
  -2   7  -1   20.65    1.88
   2   7   1   19.52    1.91
   2   7   1   14.46    2.21
  -2   7  -2    3.20    0.81
   2   7   2    2.90    1.31
   2   7   2    3.50    1.03
   2   7   2    3.53    0.93
  -2   7  -2    3.23    1.17
  -2   7  -3  142.20    8.56
   2   7   3  138.64    8.70
   2   7   3  136.77    8.77
  -2   7  -3  144.09    8.96
  -2   7  -4   39.66    3.45
   2   7   4   37.16    3.06
  -2   7  -4   38.84    2.70
   2   7   4   39.97    3.29
   2   7   5   22.26    2.83
  -2   7  -5   29.77    3.51
   2   7   5   26.60    2.48
  -2   7  -5   24.44    1.97
   2   7   6    7.96    1.69
  -2   7  -6    8.54    2.69
   2  -7   6    6.24    0.52
  -2   7  -7   16.97    3.60
   2   7   7   18.21    2.51
   2  -7   7   16.65    1.44
  -2   7  -8    1.24    3.86
   2   7   8    0.80    1.68
  -2   8   8   38.08    4.21
  -2   8   7    3.98    1.65
   2   8  -7    2.89    1.36
   2   8  -6   13.14    1.93
   2   8  -6   12.05    2.13
   2   8  -6   10.72    1.67
  -2   8   6   14.78    2.34
  -2  -8   6   12.97    1.16
  -2   8   5    1.40    1.60
   2   8  -5    1.27    1.24
  -2   8   5    0.75    1.27
   2   8  -5    1.65    0.99
   2   8  -5    1.45    1.10
  -2  -8   5    0.95    0.46
   2   8  -4   22.16    1.99
   2   8  -4   19.26    2.12
  -2   8   3   12.41    1.88
   2   8  -3   14.89    1.79
   2   8  -3   14.32    1.61
  -2   8   2   50.80    4.52
   2   8  -2   53.16    3.60
  -2   8   2   54.51    3.77
   2   8  -2   48.51    3.57
   2   8  -1   56.37    3.83
   2   8  -1   56.32    4.15
   2   8  -1   60.39    3.94
  -2   8   1   57.60    4.28
  -2   8   1   55.98    4.07
   2   8   0   42.65    3.28
  -2   8   0   46.14    3.47
  -2   8   0   46.28    3.41
   2   8   0   45.06    3.24
   2   8   1   16.79    1.80
  -2   8  -1   15.52    2.02
   2   8   1   16.06    1.98
  -2   8  -1   14.23    2.08
   2   8   1   13.83    2.03
   2   8   2  145.16    8.54
   2   8   2  130.73    8.42
  -2   8  -2  132.40    8.37
  -2   8  -2  131.08    8.58
   2   8   3    4.11    1.31
  -2   8  -3    5.81    1.13
  -2   8  -3    5.39    1.58
   2   8   3    6.37    1.32
   2   8   4    7.57    1.69
  -2   8  -4    9.19    1.21
  -2   8  -4    8.17    1.16
  -2   8  -4    9.99    2.02
   2   8   4   10.06    1.58
   2   8   5    2.75    1.38
  -2   8  -5    0.56    0.80
  -2   8  -5   -0.37    1.88
  -2   8  -5    1.25    0.92
  -2   8  -6    5.82    2.60
   2   8   6    6.14    1.65
   2  -8   6    5.07    0.44
   2   8   7    1.92    1.66
  -2   8  -7    1.26    3.31
   2  -8   7    2.13    0.79
  -2   9   7    6.11    2.15
   2   9  -7    4.96    1.74
   2   9  -6    9.75    2.14
  -2   9   6    7.43    1.84
  -2  -9   6    7.50    0.89
  -2   9   5    7.98    2.43
  -2   9   5   12.04    1.97
   2   9  -5    8.87    1.66
   2   9  -5   10.02    1.77
  -2  -9   5   10.52    1.01
   2   9  -4    9.05    1.39
  -2   9   4    5.75    1.94
   2   9  -4    8.21    1.55
  -2   9   4    8.46    1.73
   2   9  -3    1.47    0.94
  -2   9   3    2.24    1.32
   2   9  -3    1.50    1.22
   2   9  -2    1.81    1.05
   2   9  -2    2.18    1.08
   2   9  -1   35.71    2.80
  -2   9   1   31.44    3.06
   2   9  -1   34.88    2.90
   2   9   0   13.26    1.91
  -2   9   0   13.30    2.20
   2   9   1  164.65   10.13
  -2   9  -1  164.11   10.21
   2   9   1  155.11   10.00
   2   9   2   26.94    2.57
   2   9   2   32.23    3.01
  -2   9  -2   25.38    2.81
   2   9   3    1.85    1.36
   2   9   3    0.80    1.48
  -2   9  -3   -0.43    0.97
  -2   9  -3    0.24    1.62
   2   9   4   18.82    2.29
  -2   9  -4   13.55    1.82
   2   9   4   11.24    2.19
  -2   9  -4   15.09    2.48
  -2   9  -5    0.91    2.29
  -2   9  -5    1.93    1.01
   2   9   5    7.19    1.70
  -2   9  -6    4.38    2.97
  -2   9  -6    6.76    1.27
   2   9   6    8.21    1.88
  -2   9  -6    6.47    1.37
   2  10  -6    2.38    2.12
  -2  10   6    1.53    1.80
  -2 -10   6    0.68    0.67
   2  10  -5   -3.10    1.40
  -2  10   5   -0.04    1.65
  -2 -10   5    0.03    0.57
  -2  10   4    3.96    1.67
  -2  10   4    3.70    2.27
   2  10  -4    4.55    1.81
   2  10  -4    5.10    1.41
  -2  10   3    0.94    3.60
  -2  10   3    1.43    1.60
   2  10  -3    0.36    1.48
   2  10  -3   -0.84    1.01
  -2  10   2    5.54    1.85
   2  10  -2    4.38    1.31
   2  10  -2    6.57    1.54
  -2  10   2    3.33    1.52
   2  10  -1    9.52    1.67
  -2  10   1    8.49    1.89
   2  10  -1   12.51    1.74
  -2  10   1   10.11    1.93
   2  10   0  186.33   11.24
  -2  10   0  182.93   11.43
  -2  10   0  179.72   11.41
   2  10   0  175.57   11.33
  -2  10  -1    1.59    1.62
   2  10   1    2.35    1.47
   2  10   1    1.19    1.48
   2  10   2   33.21    4.03
  -2  10  -2   24.97    2.87
   2  10   2   30.43    3.01
  -2  10  -2   29.42    3.11
   2  10   3   -0.73    1.80
   2  10   3    1.67    1.50
  -2  10  -3   -0.24    1.08
  -2  10  -3    0.45    1.72
  -2  10  -4    2.52    2.19
   2  10   4    3.23    1.69
  -2  10  -4    0.67    1.14
  -2  10  -5   -5.01    2.45
   2  10   5    1.97    1.76
  -2  10  -5   -1.76    1.20
  -2  11   4    0.98    3.67
  -2  11   4    5.02    1.90
   2  11  -4    2.81    1.55
  -2  11   3    0.01    2.27
   2  11  -3   -2.09    1.13
  -2  11   3    0.65    1.74
  -2  11   2    3.34    1.79
   2  11  -2    6.68    1.85
   2  11  -2    2.12    1.29
  -2  11   2    5.44    2.47
   2  11  -1   20.59    2.75
  -2  11   1   16.98    2.55
  -2  11   1   18.10    2.64
  -2  11   0   16.19    2.54
  -2  11   0   11.53    2.21
   2  11   0   11.19    1.95
   2  11   1   44.52    3.94
   2  11   1   44.32    4.15
  -2  11  -1   45.40    3.96
  -2  11  -1   42.13    4.05
   2  11   2   31.74    3.41
   2  11   2   25.86    3.79
  -2  11  -2   30.53    3.83
  -2  11  -2   28.64    3.06
  -2  11  -3   16.80    2.93
   2  11   3   17.08    2.98
   2  11   3   19.26    3.09
   2  11   4    9.71    2.26
  -2  11  -4    0.21    2.66
  -2  11  -4   -0.07    1.69
   2  12  -1    8.74    2.07
   2  12  -1   10.71    2.31
  -2  12   1    6.81    2.54
  -2  12   1    7.22    2.50
   2  12   0    0.80    2.16
  -2  12   0    5.92    2.18
  -2  12   0    6.00    2.37
   2  12   0    5.70    2.25
  -2  12  -1    1.61    1.74
   2  12   1    1.90    2.17
  -3   0  10   11.95    2.87
   3   0  -9    3.44    1.10
  -3   0   9   -0.42    1.85
   3   0  -8   67.21    4.37
  -3   0   8   57.79    4.67
   3   0  -7    1.89    0.91
  -3   0   6   86.81    5.36
  -3   0   6   81.67    4.94
   3   0  -6   81.89    5.34
   3   0  -5   -0.36    0.45
  -3   0   5   -0.37    0.56
  -3   0   5   -0.10    0.17
   3   0  -5    0.27    0.63
   3   0  -4  293.90   17.43
  -3   0   4  294.07   17.30
  -3   0   4  282.06   17.43
   3   0  -4  296.79   17.26
  -3   0   3    0.06    0.27
   3   0  -3   -0.12    0.20
  -3   0   3    0.32    0.48
  -3   0   2  272.32   16.59
  -3   0   2  272.78   16.79
   3   0  -2  294.69   16.88
   3   0  -2  287.22   16.59
   3   0  -1    0.18    0.20
  -3   0   1    0.02    0.17
   3   0  -1   -0.62    0.55
  -3   0   1    0.09    0.49
   3   0   0   85.51    5.21
  -3   0  -1   -0.15    0.40
  -3   0  -1   -0.16    0.46
   3   0   1   -0.02    0.32
  -3   0  -2  158.26    9.37
   3   0   2  154.92    9.17
  -3   0  -2  152.86    9.49
   3   0   2  153.38    9.35
   3   0   2  160.81    9.41
  -3   0  -3   -0.64    0.64
  -3   0  -3    0.50    0.43
   3   0   3   -0.45    0.48
  -3   0  -4  102.84    6.22
   3   0   4  104.86    6.38
   3   0   4   97.61    6.18
   3   0   5   -0.03    0.62
   3   0   5   -0.70    0.79
   3   0   6  120.94    7.71
   3   0   7    0.77    1.25
   3   0   8   27.79    3.07
   3   0   9    1.18    1.86
  -3   1  10   23.85    3.34
  -3  -1  10   22.48    3.59
  -3   1   9   17.60    2.78
   3   1  -9   13.22    1.89
   3  -1  -9   12.58    1.77
  -3  -1   9   15.58    2.52
  -3   1   8   28.26    3.29
   3   1  -8   38.74    2.84
   3  -1  -8   41.36    3.10
  -3   1   7   49.64    3.67
   3   1  -7   50.62    3.48
  -3  -1   7   47.35    2.98
  -3  -1   7   50.03    3.79
   3  -1  -7   52.02    3.61
  -3   1   6   51.24    3.41
   3   1  -6   51.46    3.44
   3   1  -6   46.60    3.25
   3  -1  -6   47.06    3.48
  -3  -1   6   53.33    3.52
  -3  -1   6   49.51    2.97
   3   1  -5  227.00   13.72
  -3   1   5  228.19   13.67
   3   1  -5  224.90   13.56
  -3  -1   5  240.73   13.70
   3  -1  -5  223.62   13.73
   3  -1  -5  224.40   13.61
  -3   1   4   71.58    4.55
  -3   1   4   76.96    4.36
  -3   1   4   67.77    4.65
   3   1  -4   68.73    4.75
   3   1  -4   73.72    4.46
   3  -1  -4   75.69    4.52
  -3  -1   4   79.06    4.57
   3  -1  -4   74.73    4.70
  -3   1   3   33.83    1.92
   3   1  -3   30.88    2.50
   3   1  -3   32.29    2.00
  -3   1   3   33.28    2.10
  -3   1   3   31.19    2.23
   3  -1  -3   31.90    2.06
   3  -1  -3   31.00    2.29
  -3  -1   3   32.94    2.04
  -3   1   2   36.91    2.50
  -3   1   2   39.21    2.38
   3   1  -2   41.02    2.26
  -3  -1   2   39.62    2.27
   3  -1  -2   36.32    2.58
   3  -1  -2   39.20    2.35
  -3  -1   2   31.10    2.57
  -3   1   1   24.79    1.80
   3   1  -1   25.65    1.87
  -3   1   1   28.17    1.71
   3  -1  -1   26.96    1.70
  -3  -1   1   26.44    1.59
   3  -1  -1   25.97    1.91
  -3  -1   1   25.69    1.89
  -3   1   0  260.59   15.46
  -3   1   0  260.22   15.49
   3   1   0  254.43   15.43
   3  -1   0  260.89   15.46
  -3  -1   0  264.72   15.47
  -3   1  -1  118.63    7.44
   3   1   1  118.59    7.17
   3   1   1  123.35    7.31
  -3   1  -1  106.86    7.50
   3   1   1  115.89    7.31
  -3  -1  -1  124.24    7.36
   3  -1   1  121.69    7.49
  -3  -1  -1  130.55    7.37
   3  -1   1  138.83    7.45
  -3   1  -2   52.23    4.06
   3   1   2   68.26    3.85
  -3   1  -2   55.81    3.97
  -3   1  -2   60.31    3.62
   3  -1   2   63.94    4.01
  -3  -1  -2   65.13    3.85
  -3  -1  -2   62.63    3.89
  -3   1  -3  212.95   12.28
  -3   1  -3  188.56   12.54
   3   1   3  213.94   12.35
   3   1   3  215.94   12.25
  -3  -1  -3  206.97   12.30
   3  -1   3  202.79   12.25
  -3  -1  -3  194.64   12.40
   3  -1   3  214.59   12.47
   3  -1   3  200.37   12.09
   3   1   4   76.81    4.94
  -3   1  -4   81.24    4.86
   3   1   4   78.98    5.00
   3  -1   4   78.11    4.69
   3  -1   4   82.85    5.15
  -3  -1  -4   76.32    4.93
   3  -1   4   77.68    4.75
   3   1   5  187.50   11.37
   3   1   5  179.60   11.16
  -3   1  -5  183.00   11.16
   3  -1   5  196.27   11.50
   3   1   6   34.70    2.71
   3   1   6   40.55    3.09
   3  -1   6   40.45    3.15
   3   1   7   -0.84    1.12
   3  -1   7   -1.33    1.26
   3   1   8    1.19    1.44
   3  -1   8    0.83    1.63
   3   1   9    7.03    2.12
   3  -1   9    1.67    2.19
  -3   2  10    1.48    2.42
  -3   2   9    3.94    1.87
   3   2  -9    2.84    0.98
  -3  -2   9    1.46    2.21
  -3   2   8   39.54    3.27
   3   2  -8   37.41    2.83
   3  -2  -8   40.84    3.32
  -3  -2   8   31.07    3.74
  -3  -2   8   38.30    2.30
  -3   2   7    0.69    1.03
   3   2  -7    1.26    0.79
  -3  -2   7    1.01    0.24
   3  -2  -7    1.46    1.12
  -3  -2   7   -1.27    1.32
   3   2  -6  238.54   14.90
  -3   2   6  247.61   15.07
   3   2  -6  264.59   15.04
   3  -2  -6  261.08   15.14
  -3  -2   6  239.34   15.17
   3   2  -5    0.37    0.45
   3   2  -5    0.24    0.81
  -3   2   5    2.28    0.74
   3  -2  -5    0.02    0.77
  -3  -2   5    0.77    0.86
   3   2  -4    0.26    0.86
   3   2  -4    0.06    0.28
  -3   2   4    0.40    0.60
  -3  -2   4    0.05    0.30
   3  -2  -4    0.31    0.43
   3  -2  -4   -1.50    0.63
  -3  -2   4   -0.42    0.56
   3   2  -3   98.47    5.63
  -3   2   3   94.14    5.85
  -3   2   3   96.19    5.79
   3  -2  -3   94.83    5.75
   3  -2  -3   96.47    5.90
  -3  -2   3   88.99    5.71
  -3   2   2   49.05    3.13
   3   2  -2   48.14    2.95
  -3   2   2   51.43    3.21
   3   2  -2   50.71    2.96
   3   2  -2   50.69    3.23
   3  -2  -2   50.00    3.24
  -3  -2   2   49.30    3.12
   3  -2  -2   51.73    3.12
  -3   2   1   37.73    2.33
  -3   2   1   36.57    2.36
   3   2  -1   36.05    2.16
   3   2  -1   35.02    2.32
  -3  -2   1   36.16    2.17
   3  -2  -1   34.41    2.40
   3  -2  -1   36.02    2.31
  -3  -2   1   36.65    2.32
  -3   2   0   48.19    3.09
   3   2   0   49.81    3.00
   3   2   0   50.76    3.09
  -3   2   0   50.00    3.17
  -3  -2   0   49.56    3.01
  -3  -2   0   52.84    3.12
   3  -2   0   44.28    3.14
  -3   2  -1   22.85    1.91
  -3   2  -1   22.56    1.67
  -3   2  -1   22.41    1.88
   3   2   1   24.02    1.60
   3   2   1   25.17    1.67
   3  -2   1   27.04    1.65
  -3  -2  -1   25.76    1.73
  -3  -2  -1   24.19    1.65
   3   2   2  166.79    9.86
  -3   2  -2  171.56    9.91
  -3   2  -2  148.64   10.18
   3  -2   2  156.65   10.16
  -3  -2  -2  161.06    9.91
  -3  -2  -2  171.81    9.91
   3  -2   2  175.08    9.76
  -3   2  -3    0.32    0.77
  -3   2  -3    0.47    0.88
   3   2   3    0.62    0.51
   3  -2   3    0.93    0.77
  -3  -2  -3    0.78    0.57
   3  -2   3    0.79    0.13
  -3  -2  -3   -0.12    0.57
   3   2   4  238.73   14.38
   3   2   4  241.62   14.29
   3  -2   4  234.30   14.08
   3  -2   4  243.55   14.60
  -3   2  -5    3.49    0.60
   3   2   5    2.26    0.79
   3   2   5    3.34    0.90
   3  -2   5    2.34    0.33
   3  -2   5    1.82    1.15
   3   2   6    3.11    0.93
   3   2   6    3.46    1.11
   3   2   7   34.37    3.10
   3  -2   7   38.16    3.40
   3   2   8   31.51    3.06
   3  -2   8   28.09    3.39
   3   2   9   12.37    2.27
   3  -2   9    8.19    0.75
   3  -2   9   10.60    2.52
  -3   3  10    3.36    2.58
   3   3  -9    0.51    0.79
  -3   3   9    1.15    1.80
  -3  -3   9    2.33    2.30
   3   3  -8   68.04    4.46
  -3   3   8   67.34    5.04
   3  -3  -8   67.42    5.02
  -3  -3   8   68.20    4.13
  -3  -3   8   75.40    5.29
   3   3  -7  147.46    9.00
  -3   3   7  142.61    9.22
  -3  -3   7  156.61    9.42
   3  -3  -7  143.10    9.29
   3   3  -6   26.16    2.12
   3   3  -6   27.08    2.42
  -3   3   6   31.85    2.40
   3  -3  -6   30.84    2.63
  -3  -3   6   32.61    2.67
   3   3  -5   16.90    2.16
   3   3  -5   17.95    1.38
  -3   3   5   18.45    1.65
   3  -3  -5   18.94    1.92
  -3   3   4   45.86    2.91
   3   3  -4   41.53    2.83
  -3   3   4   41.72    3.02
   3   3  -4   45.27    2.70
  -3  -3   4   43.44    2.63
   3  -3  -4   41.56    2.92
   3  -3  -4   42.54    3.08
   3   3  -3   45.58    2.99
  -3   3   3   44.23    3.00
   3   3  -3   45.63    2.75
  -3   3   3   45.55    2.94
   3  -3  -3   43.44    2.89
  -3  -3   3   45.18    2.78
   3  -3  -3   44.64    3.07
  -3   3   2   16.34    1.35
   3   3  -2   16.88    1.27
   3   3  -2   17.27    1.06
  -3   3   2   17.20    1.32
  -3  -3   2   17.73    1.05
   3  -3  -2   16.74    1.48
  -3  -3   2   16.83    1.20
   3  -3  -2   16.71    0.99
  -3  -3   2   13.86    1.15
   3  -3  -2   15.35    1.24
  -3   3   1   84.23    5.25
  -3   3   1   86.65    5.21
   3   3  -1   88.38    5.18
   3   3  -1   86.02    5.06
  -3  -3   1   82.36    5.08
   3  -3  -1   84.90    5.24
   3  -3  -1   81.39    5.20
  -3  -3   1   81.73    5.16
  -3  -3   1   87.75    5.02
  -3   3   0    8.47    0.96
   3   3   0    7.60    0.81
  -3   3   0    8.64    0.83
   3   3   0    7.50    0.66
   3  -3   0    7.90    0.95
  -3  -3   0    7.60    0.83
  -3  -3   0    7.67    0.70
  -3   3  -1    2.14    0.70
   3   3   1    0.64    0.37
   3   3   1    1.55    0.47
  -3   3  -1    0.65    0.38
  -3   3  -1    0.83    0.61
  -3  -3  -1    0.54    0.48
   3  -3   1    0.92    0.64
  -3  -3  -1    1.76    0.45
   3  -3   1    0.94    0.37
  -3   3  -2  214.14   14.62
   3   3   2  242.93   14.32
  -3   3  -2  237.83   14.26
   3   3   2  256.73   14.33
  -3   3  -2  235.84   14.59
  -3  -3  -2  247.67   14.37
   3  -3   2  250.67   14.10
  -3  -3  -2  234.97   14.36
   3   3   3  379.97   22.54
   3   3   3  409.49   22.53
  -3   3  -3  326.76   22.81
  -3   3  -3  400.46   22.49
   3   3   4   36.57    2.59
   3   3   4   40.87    2.57
  -3   3  -4   29.88    3.16
  -3   3  -4   32.69    2.60
   3  -3   4   40.28    3.15
   3   3   5    9.33    1.47
  -3   3  -5    9.27    0.93
   3   3   5   10.38    1.21
   3  -3   5    7.70    0.60
   3  -3   5   10.93    1.85
   3   3   6    7.44    1.35
   3   3   6    3.74    1.63
   3  -3   6    7.24    0.51
   3  -3   6    5.35    0.68
   3  -3   6    9.22    1.86
   3   3   7   12.18    2.03
   3  -3   7   12.86    2.28
   3  -3   7   11.69    0.83
   3   3   8    1.71    1.47
   3  -3   8    2.98    2.24
   3  -3   8    1.27    0.32
   3   3   9    5.84    2.02
   3  -3   9    4.83    0.55
   3  -3   9   11.69    2.88
  -3   4  10   12.83    2.81
  -3   4   9   21.94    3.09
   3   4  -9   20.07    1.71
  -3  -4   9   20.68    1.35
   3   4  -8   15.19    2.87
   3   4  -8   15.33    1.59
  -3   4   8   20.46    2.51
  -3  -4   8   13.95    1.04
   3   4  -7   31.90    3.45
  -3   4   7   31.07    2.89
   3   4  -7   29.71    2.41
   3  -4  -7   28.08    3.01
   3   4  -6   28.41    2.20
  -3   4   6   30.50    2.47
   3   4  -6   29.73    2.67
   3   4  -6   26.30    2.75
   3  -4  -6   30.10    2.76
   3   4  -5   91.42    5.49
  -3   4   5   89.87    5.71
   3   4  -5   84.74    5.59
   3  -4  -5   91.46    5.84
  -3   4   4  111.38    7.12
   3   4  -4  121.39    6.89
   3   4  -4  112.89    6.87
   3   4  -4  112.02    7.08
  -3   4   4  111.92    7.04
   3  -4  -4  111.89    7.14
   3   4  -3    2.72    0.62
   3   4  -3    1.14    0.36
  -3   4   3    1.18    0.62
   3   4  -3    1.41    0.54
  -3   4   3    0.89    0.66
  -3  -4   3    0.85    0.22
   3  -4  -3    0.77    0.76
  -3   4   2    3.66    0.70
   3   4  -2    3.86    0.50
   3   4  -2    5.16    0.73
  -3   4   2    4.16    0.73
  -3  -4   2    4.44    0.64
   3  -4  -2    2.90    0.65
  -3  -4   2    3.41    0.51
   3  -4  -2    3.75    0.88
  -3   4   1   62.88    3.82
   3   4  -1   59.62    3.64
   3   4  -1   57.02    3.73
  -3   4   1   63.55    3.86
  -3  -4   1   60.81    3.74
   3  -4  -1   59.51    3.85
   3  -4  -1   55.07    3.80
  -3  -4   1   59.78    3.68
  -3   4   0   67.97    4.32
   3   4   0   71.17    4.41
   3   4   0   68.66    4.24
  -3   4   0   73.49    4.45
  -3  -4   0   70.53    4.35
   3  -4   0   63.11    4.41
   3  -4   0   70.53    4.34
  -3  -4   0   70.41    4.28
  -3   4  -1  204.04   11.93
   3   4   1  200.61   11.73
  -3   4  -1  199.72   11.73
   3   4   1  208.89   11.79
   3  -4   1  164.69   11.89
  -3  -4  -1  200.64   11.77
   3   4   2   46.18    2.97
  -3   4  -2   41.29    3.48
   3   4   2   44.82    2.89
  -3   4  -2   45.03    2.84
  -3   4  -2   47.38    3.28
  -3  -4  -2   40.75    2.98
  -3   4  -3   18.44    2.27
   3   4   3   20.50    1.70
  -3   4  -3   18.51    1.74
   3   4   3   17.87    1.85
   3   4   3   20.73    1.65
   3  -4   3   21.45    1.20
   3   4   4   34.23    2.43
   3   4   4   34.07    2.45
  -3   4  -4   28.61    3.21
  -3   4  -4   30.07    2.38
   3   4   5   96.96    6.32
  -3   4  -5  106.86    6.04
  -3   4  -5   90.96    7.10
   3   4   5  102.52    6.39
  -3   4  -6   49.78    5.18
   3   4   6   54.13    3.69
   3  -4   6   47.75    3.08
  -3   4  -7    5.19    2.85
  -3   4  -8    7.83    3.42
   3   4   9    8.63    2.12
  -3   4  -9   18.91    4.68
  -3   5   9   66.82    5.28
  -3  -5   9   65.25    3.96
  -3   5   8    8.28    1.88
   3   5  -8    8.37    1.22
  -3   5   7    6.52    2.21
   3   5  -7    5.58    1.16
   3   5  -7    5.78    1.65
   3   5  -6    0.84    1.04
   3   5  -6   -0.62    1.36
  -3   5   6    1.83    1.11
   3  -5  -6    0.10    1.33
  -3   5   5   78.78    5.17
   3   5  -5   83.34    5.00
   3   5  -5   69.64    5.29
   3  -5  -5   81.61    5.38
   3   5  -4   96.21    5.61
   3   5  -4   92.25    5.45
   3   5  -4   89.28    5.60
  -3   5   4   86.20    5.67
  -3   5   4   81.82    5.77
  -3  -5   4   85.72    5.31
   3  -5  -4   88.96    5.80
  -3   5   3   39.43    2.69
  -3   5   3   36.33    2.75
   3   5  -3   35.06    2.51
   3   5  -3   37.54    2.40
   3  -5  -3   36.44    2.88
  -3   5   2   16.44    1.49
   3   5  -2   16.09    1.18
   3   5  -2   14.65    1.29
  -3   5   2   12.89    1.53
  -3  -5   2   16.39    1.46
   3  -5  -2   14.42    1.68
  -3   5   1   11.96    1.28
   3   5  -1   11.51    0.99
  -3   5   1   10.58    1.25
   3   5  -1   10.52    1.12
  -3  -5   1   10.58    1.11
   3  -5  -1   12.48    1.43
  -3   5   0   69.26    4.45
   3   5   0   71.59    4.37
   3   5   0   74.33    4.47
  -3   5   0   70.57    4.57
  -3  -5   0   68.54    4.43
   3  -5   0   69.27    4.49
  -3   5  -1  237.08   13.73
   3   5   1  224.80   13.71
   3   5   1  238.18   13.78
  -3   5  -1  231.39   13.92
  -3  -5  -1  218.04   13.77
  -3   5  -2   41.76    3.11
   3   5   2   36.93    2.66
  -3   5  -2   40.70    2.64
  -3   5  -3   11.59    1.61
   3   5   3   14.22    1.35
   3   5   3   10.67    1.42
  -3   5  -3   12.10    1.96
   3   5   3   12.28    1.51
   3   5   4    1.06    0.81
   3   5   4    0.70    0.88
  -3   5  -4    0.56    0.67
  -3   5  -4   -1.06    1.56
   3  -5   4    0.89    0.16
   3   5   5   84.29    5.32
  -3   5  -5   66.83    4.99
  -3   5  -5   83.92    6.23
   3   5   5   85.87    5.27
   3   5   6   16.55    2.37
  -3   5  -6   19.97    3.52
  -3   5  -7    1.13    2.89
   3   5   7    7.02    1.62
   3  -5   7    7.11    0.77
   3   5   8    2.81    1.60
  -3   5  -8    2.14    4.02
  -3   6   9    6.46    2.42
  -3  -6   9    1.66    0.74
  -3  -6   9    2.96    0.50
  -3   6   8   11.91    2.29
   3   6  -8    9.98    1.25
   3   6  -7    3.20    1.45
   3   6  -7    2.15    1.25
  -3   6   7    3.02    1.54
   3   6  -6    2.34    1.09
  -3   6   6    2.54    1.26
  -3  -6   6    3.60    0.36
   3   6  -5    8.06    1.49
   3   6  -5    8.18    1.11
  -3   6   5    9.01    1.44
   3   6  -5    9.91    1.49
  -3  -6   5    9.40    0.63
  -3   6   4   26.93    2.30
   3   6  -4   26.26    2.12
   3   6  -4   26.19    2.53
   3   6  -4   25.73    1.96
  -3  -6   4   26.04    1.68
   3  -6  -4   25.70    2.68
  -3   6   3  229.37   13.75
   3   6  -3  226.35   13.59
  -3   6   3  219.96   13.75
   3  -6  -3  230.43   13.83
  -3   6   2   74.79    4.81
   3   6  -2   74.40    4.54
   3   6  -2   75.97    4.64
  -3   6   2   69.60    4.80
   3  -6  -2   73.03    4.89
  -3  -6   2   70.30    4.76
  -3   6   1   69.14    4.52
   3   6  -1   69.60    4.39
   3   6  -1   69.85    4.29
  -3   6   1   70.93    4.55
  -3  -6   1   64.08    4.42
   3   6   0   90.87    5.60
  -3   6   0   91.93    5.82
   3   6   0   97.22    5.71
  -3   6   0   91.16    5.71
  -3  -6   0   82.43    5.69
   3   6   1   12.83    1.54
   3   6   1   16.06    1.42
  -3   6  -1   16.03    1.70
  -3   6  -1   13.97    1.47
   3   6   2   17.63    1.62
  -3   6  -2   17.13    1.95
  -3   6  -2   17.20    1.55
   3   6   2   16.29    1.78
   3   6   3    4.73    1.03
   3   6   3    6.02    1.06
  -3   6  -3    6.59    1.53
  -3   6  -3    5.50    0.86
   3   6   4    3.00    1.02
  -3   6  -4    2.62    0.75
   3   6   4    3.02    1.27
  -3   6  -4    4.74    1.72
  -3   6  -5    0.57    0.87
   3   6   5    0.90    1.32
   3   6   5    2.00    1.08
  -3   6  -5    1.82    1.94
   3  -6   5    0.83    0.20
   3   6   6   16.36    2.08
  -3   6  -6   13.07    3.22
   3   6   7   77.69    5.37
  -3   6  -7   64.54    7.31
   3  -6   7   80.08    4.71
   3   6   8   20.20    2.62
  -3   6  -8    7.81    4.41
  -3   7   8    0.38    1.95
  -3   7   7   34.66    3.32
   3   7  -7   33.16    3.35
   3   7  -6   -0.29    1.10
  -3   7   6    1.70    1.43
   3   7  -6    4.45    1.67
   3   7  -5    4.90    1.04
  -3   7   5    5.73    1.41
   3   7  -5    4.59    1.69
  -3  -7   5    5.99    0.66
   3   7  -4   30.40    4.40
   3   7  -4   35.68    2.74
  -3   7   4   39.33    3.00
   3   7  -4   38.67    2.62
  -3  -7   4   34.46    2.29
   3   7  -3   58.73    3.82
   3   7  -3   59.52    3.91
  -3   7   3   55.07    4.38
  -3   7   3   61.85    4.16
  -3   7   2   10.25    1.60
  -3   7   2   10.47    1.58
   3   7  -2   11.09    1.24
   3   7  -2   10.35    1.38
  -3  -7   2    9.41    1.60
   3   7  -1  173.35   10.10
  -3   7   1  165.32   10.40
   3   7  -1  159.84   10.16
  -3   7   1  169.16   10.33
   3   7   0   49.70    3.33
   3   7   0   46.38    3.18
  -3   7   0   47.22    3.37
  -3   7   0   45.82    3.45
  -3   7  -1    0.74    1.03
   3   7   1    1.33    0.78
   3   7   1    0.83    0.93
  -3   7  -1    1.50    0.85
  -3   7  -2    1.36    1.24
   3   7   2    0.51    1.36
  -3   7  -2    1.71    0.84
   3   7   2    1.27    1.08
   3   7   2    2.35    0.92
   3   7   3   41.64    3.13
  -3   7  -3   44.36    3.62
   3   7   3   43.90    3.33
  -3   7  -3   43.83    3.05
   3   7   4    3.28    1.11
   3   7   4    2.76    1.29
  -3   7  -4    1.63    0.83
  -3   7  -4    4.96    1.91
  -3   7  -5    4.39    1.06
   3   7   5    3.76    1.25
   3   7   5    3.25    2.44
  -3   7  -5    4.11    2.11
   3  -7   5    3.55    0.33
   3   7   6   15.68    2.28
  -3   7  -6   16.51    3.40
   3   7   7   33.51    3.21
  -3   7  -7   29.62    4.71
   3  -7   7   33.56    2.31
  -3   8   8    3.02    2.08
  -3   8   7    4.60    1.85
   3   8  -7    4.89    1.88
   3   8  -6    7.74    2.07
  -3   8   6    5.03    1.62
   3   8  -5   18.26    2.02
  -3   8   5   17.34    2.55
   3   8  -5   19.33    2.40
  -3  -8   5   17.39    1.33
   3   8  -4    0.63    0.91
  -3   8   4    1.00    1.24
   3   8  -4    0.87    0.96
  -3  -8   4    1.38    0.43
   3   8  -3   11.63    1.57
  -3   8   3   10.41    1.71
   3   8  -3    9.72    1.53
   3   8  -2  221.72   13.59
  -3   8   2  221.84   13.77
   3   8  -2  229.12   13.50
  -3   8   1   27.54    2.86
  -3   8   1   27.10    2.55
   3   8  -1   27.35    2.37
   3   8  -1   29.09    2.25
  -3   8   0   48.63    3.73
   3   8   0   51.86    3.41
  -3   8   0   49.25    3.68
   3   8   0   45.24    3.52
   3   8   1   28.01    2.61
   3   8   1   31.83    2.51
  -3   8  -1   29.43    2.73
  -3   8  -1   32.11    2.70
  -3   8  -2    8.84    1.74
   3   8   2    8.48    1.47
   3   8   2   11.71    1.57
  -3   8  -2   10.16    1.42
  -3   8  -3    3.33    1.61
  -3   8  -3    3.85    1.08
   3   8   3    4.52    1.17
   3   8   3    5.11    1.51
   3   8   4    1.92    1.16
  -3   8  -4    1.67    1.78
   3   8   4    0.41    1.48
  -3   8  -4    1.15    0.99
  -3   8  -5   25.84    3.44
  -3   8  -5   24.43    2.07
  -3   8  -5   26.11    2.35
   3   8   5   25.88    2.66
   3  -8   5   24.30    1.52
  -3   8  -6    1.85    2.72
   3   8   6    2.17    1.52
   3   8   7    0.90    1.53
  -3   8  -7    2.93    3.71
   3  -8   7    3.50    0.90
  -3   9   7    2.73    1.91
   3   9  -7    4.66    2.13
   3   9  -6   11.71    2.41
  -3   9   6   10.27    2.08
   3   9  -5    6.08    1.63
  -3   9   5    5.03    1.68
  -3   9   5    5.51    2.16
  -3  -9   5    5.84    0.72
  -3   9   4    0.34    1.36
   3   9  -4   -0.29    1.04
   3   9  -4   -1.27    1.14
  -3  -9   4    0.36    0.47
   3   9  -3   25.57    2.48
  -3   9   3   28.05    2.83
   3   9  -3   28.66    2.48
   3   9  -2    1.81    1.07
  -3   9   2   -0.15    1.21
   3   9  -2    0.11    0.87
   3   9  -1   63.89    4.92
   3   9  -1   61.97    4.27
  -3   9   1   63.11    5.67
   3   9   0   14.76    2.13
   3   9   0   12.08    1.86
   3   9   1   52.41    4.11
  -3   9  -1   54.49    4.27
   3   9   1   56.04    3.87
   3   9   2   22.54    2.87
   3   9   2   27.61    2.57
  -3   9  -2   24.82    4.16
   3   9   3   11.27    2.01
  -3   9  -3   13.77    2.24
   3   9   3   16.66    2.28
   3   9   4   17.95    2.29
  -3   9  -4   13.95    2.57
   3   9   4   11.05    2.30
  -3   9  -4   12.63    1.97
  -3   9  -5    5.95    2.56
  -3   9  -5    7.07    1.28
   3   9   5   10.10    1.87
   3   9   6    5.48    1.84
  -3   9  -6    0.73    3.26
   3  10  -6   11.48    2.66
  -3  10   6    7.00    2.15
  -3  10   5    2.41    1.96
   3  10  -5    2.95    1.66
  -3 -10   5    3.00    0.71
  -3  10   4   53.89    6.47
  -3  10   4   57.11    4.38
   3  10  -4   49.37    4.14
  -3 -10   4   52.79    3.38
   3  10  -3   -0.01    1.07
  -3  10   3    0.34    1.51
   3  10  -3   -0.41    1.34
   3  10  -2   13.29    2.10
   3  10  -2   10.95    1.62
  -3  10   2   11.56    2.00
   3  10  -1    3.37    1.37
   3  10  -1    2.59    1.25
  -3  10   1   -0.25    1.43
   3  10   0  132.47    8.40
   3  10   0  128.80    8.21
  -3  10   0  125.99    8.48
   3  10   1    5.66    1.60
  -3  10  -1    1.31    1.73
   3  10   1    4.93    2.37
   3  10   2    2.30    1.38
  -3  10  -2   -1.36    1.64
  -3  10  -3   -1.91    1.97
   3  10   3    2.58    1.51
   3  10   3   -0.42    1.86
  -3  10  -3   -0.81    1.22
  -3  10  -4   -0.37    2.25
   3  10   4    5.70    1.77
  -3  10  -4    3.07    1.26
  -3  10  -5   -0.46    1.28
   3  10   5    2.26    1.75
  -3  10  -5    1.50    2.72
  -3  11   4   -0.86    1.76
   3  11  -4   -0.67    1.53
  -3  11   4   -2.29    2.90
  -3 -11   4   -0.37    0.62
  -3  11   3   20.05    2.90
  -3  11   3   21.78    3.27
   3  11  -3   14.61    2.11
  -3  11   2    0.44    1.75
   3  11  -2   -1.03    1.21
  -3  11   2    0.23    1.95
   3  11  -1   41.06    3.99
  -3  11   1   46.20    4.38
  -3  11   1   52.05    4.59
   3  11  -1   52.11    4.03
  -3  11   0    4.97    1.75
   3  11   0    4.78    1.74
  -3  11   0    1.79    1.89
   3  11   0    6.13    1.85
   3  11   1    9.01    2.06
  -3  11  -1   12.75    2.15
  -3  11  -1   12.46    2.40
  -3  11  -2   36.42    4.34
   3  11   2   44.10    3.82
  -3  11  -2   32.07    3.66
   3  11   2   37.97    4.35
   3  11   3    2.60    1.95
   3  11   3   -2.82    2.78
  -3  11  -3   -0.22    2.25
  -3  11  -3   -1.64    1.32
   4   0 -10   44.67    3.74
  -4   0  10   44.47    5.08
  -4   0   9    0.80    1.90
  -4   0   8  145.54    9.71
   4   0  -8  161.39    9.65
  -4   0   6    0.73    0.21
  -4   0   6    1.12    0.80
   4   0  -6   -0.03    0.62
   4   0  -6   -0.05    0.91
   4   0  -5   -1.09    0.85
   4   0  -5   -0.34    0.42
  -4   0   5   -0.03    0.67
  -4   0   4   65.52    4.43
   4   0  -4   68.80    4.52
  -4   0   4   65.93    4.14
   4   0  -4   68.71    4.09
  -4   0   3    0.30    0.28
   4   0  -3    0.13    0.23
   4   0  -3   -0.82    1.03
  -4   0   3    0.23    0.69
   4   0  -2  174.00   10.47
  -4   0   2  163.70   10.02
  -4   0   2  171.13   10.33
   4   0  -1   -1.11    0.73
  -4   0   1    0.06    0.27
  -4   0   1    0.27    0.31
  -4   0   1    0.50    0.65
  -4   0   0  473.44   29.23
   4   0   0  513.87   29.20
  -4   0  -1    0.17    0.57
  -4   0  -1    0.00    0.72
   4   0   1    0.40    0.45
  -4   0  -2  283.38   16.13
   4   0   2  279.52   16.09
  -4   0  -2  255.44   16.21
   4   0   2  258.42   16.05
   4   0   3    0.54    0.71
   4   0   3   -0.06    0.10
   4   0   3    0.38    0.59
  -4   0  -3   -1.07    0.89
  -4   0  -3    1.11    0.61
   4   0   4    1.08    0.73
  -4   0  -4    1.44    0.71
   4   0   4    2.39    0.78
  -4   0  -5    0.65    0.75
   4   0   5    1.65    0.84
   4   0   5    0.21    0.86
   4   0   6   57.61    4.15
   4   0   7    2.26    1.61
   4   0   8   12.11    2.23
   4   0   9    0.44    1.91
   4   1 -10   27.77    2.78
  -4   1  10   29.35    4.35
   4  -1 -10   30.11    3.24
  -4  -1  10   27.50    4.61
  -4   1   9   73.65    5.62
   4   1  -9   71.75    5.03
   4  -1  -9   69.32    5.22
  -4  -1   9   80.01    5.76
  -4   1   8   47.63    3.88
   4   1  -8   56.39    3.67
  -4  -1   8   41.51    3.93
   4   1  -7   74.13    4.91
  -4   1   7   74.05    4.92
  -4  -1   7   76.50    5.01
   4  -1  -7   69.57    4.97
  -4  -1   7   69.49    4.32
   4   1  -6    2.00    1.04
  -4   1   6    4.32    1.00
   4   1  -6    4.23    0.74
   4  -1  -6    2.59    1.01
  -4  -1   6    5.57    1.05
   4   1  -5   19.62    2.20
  -4   1   5   22.64    1.36
  -4   1   5   24.27    1.79
   4   1  -5   22.01    1.55
   4  -1  -5   21.18    2.10
  -4  -1   5   22.52    1.80
   4  -1  -5   21.42    1.65
   4   1  -4    7.47    1.26
   4   1  -4    6.91    0.61
  -4   1   4    7.80    0.89
  -4   1   4    7.90    1.22
  -4   1   4    7.35    0.47
  -4  -1   4    7.39    0.81
  -4  -1   4    5.18    1.16
   4  -1  -4    5.48    0.70
   4  -1  -4    5.86    1.05
   4   1  -3    3.21    0.33
  -4   1   3    5.18    0.80
   4   1  -3    4.35    1.19
  -4   1   3    3.46    0.51
   4  -1  -3    2.97    0.44
  -4  -1   3    3.09    0.94
  -4  -1   3    3.12    0.42
  -4   1   2    1.55    0.56
  -4   1   2    1.17    0.32
   4   1  -2    1.56    0.80
  -4  -1   2    1.27    0.21
  -4  -1   2    1.14    0.14
   4  -1  -2    0.58    0.72
  -4  -1   2    1.04    0.75
   4  -1  -2    1.40    0.32
  -4   1   1   26.64    2.00
  -4   1   1   31.07    1.87
   4   1  -1   27.43    2.10
   4  -1  -1   28.80    2.26
  -4  -1   1   26.05    1.76
  -4  -1   1   24.45    2.16
   4  -1  -1   27.99    1.85
  -4   1   0  267.44   16.28
  -4   1   0  275.47   16.25
   4   1   0  241.28   16.11
   4   1   0  307.39   16.27
  -4  -1   0  256.84   16.16
  -4  -1   0  288.55   16.37
   4   1   1  554.37   37.29
   4   1   1  588.22   37.34
  -4   1  -1  693.94   37.63
  -4  -1  -1  670.05   37.43
   4  -1   1  706.82   37.53
  -4  -1  -1  588.38   37.37
  -4   1  -2   89.47    6.14
   4   1   2  106.31    5.92
   4   1   2   96.94    5.66
  -4   1  -2   81.64    6.17
   4  -1   2  102.79    6.06
   4  -1   2   96.98    6.03
  -4  -1  -2   98.70    6.03
  -4  -1  -2   94.06    5.96
  -4   1  -3  128.09    7.71
  -4   1  -3  106.38    7.98
   4   1   3  134.66    7.66
   4   1   3  123.11    7.56
  -4  -1  -3  125.83    7.65
   4  -1   3  123.27    7.64
   4  -1   3  137.45    7.80
   4  -1   3  129.20    7.35
  -4  -1  -3  112.07    7.74
  -4   1  -4   10.50    1.29
   4   1   4   12.26    1.39
   4   1   4   10.17    1.26
   4  -1   4    7.92    1.34
  -4  -1  -4    8.74    1.35
   4  -1   4    9.55    0.63
   4  -1   4    8.71    1.33
  -4   1  -5    0.71    0.71
   4   1   5    0.51    0.81
   4   1   5    1.12    0.70
   4  -1   5   -0.35    0.88
   4  -1   5    0.49    0.17
  -4  -1  -5    1.09    0.87
   4   1   6    6.61    1.34
   4   1   6    3.83    1.07
   4  -1   6    7.24    1.49
   4   1   7    1.76    2.26
   4  -1   7    1.66    1.52
   4   1   8    3.77    1.56
   4  -1   8   -0.75    1.57
   4  -1   8    1.41    0.31
   4   1   9   13.84    2.42
   4  -1   9    9.62    0.86
   4  -1   9   12.30    2.51
   4   2 -10    7.58    1.40
  -4   2  10    7.60    2.81
   4   2  -9    3.00    1.13
  -4   2   9    4.82    3.15
   4  -2  -9    3.09    1.52
  -4  -2   9    1.25    2.17
   4   2  -8   53.42    3.80
  -4   2   8   53.56    4.16
   4  -2  -8   57.09    4.15
  -4  -2   8   49.57    3.17
  -4  -2   8   51.53    4.40
   4   2  -7   16.31    1.97
  -4   2   7   18.24    2.06
   4   2  -7   13.05    1.59
  -4  -2   7   14.43    2.35
  -4   2   6  124.75    7.48
   4   2  -6  116.00    7.21
   4   2  -6  120.66    7.60
   4  -2  -6  116.28    7.60
   4   2  -5    0.95    1.12
  -4   2   5    1.63    0.68
   4   2  -5    0.67    0.39
  -4  -2   5    0.07    0.75
   4  -2  -5    0.33    0.88
   4  -2  -5    1.27    0.67
   4   2  -4   99.33    6.57
  -4   2   4  108.07    6.16
  -4   2   4   96.21    6.26
  -4  -2   4   99.04    6.07
  -4  -2   4   87.75    6.11
   4  -2  -4  104.74    6.10
   4  -2  -4  104.25    6.35
   4   2  -3   40.71    2.97
  -4   2   3   39.64    2.69
  -4   2   3   39.44    2.72
   4  -2  -3   41.67    2.88
   4  -2  -3   39.13    2.53
  -4  -2   3   36.80    2.65
  -4   2   2  113.34    6.78
  -4   2   2  110.59    6.86
   4  -2  -2  114.41    6.96
   4  -2  -2  114.94    6.76
  -4  -2   2  106.52    6.83
  -4   2   1  130.07    7.69
  -4   2   1  124.59    7.72
   4   2  -1  123.23    7.52
   4   2  -1  130.06    7.72
   4  -2  -1  123.74    7.67
  -4  -2   1  127.66    7.52
   4  -2  -1  128.21    7.80
  -4  -2   1  129.39    7.73
   4   2   0   58.94    3.43
  -4   2   0   53.13    3.57
   4   2   0   62.13    3.57
  -4   2   0   59.60    3.64
   4  -2   0   55.60    3.61
  -4  -2   0   55.66    3.60
  -4  -2   0   57.24    3.45
  -4  -2   0   47.57    3.31
   4   2   1    0.59    0.45
  -4   2  -1   -0.22    0.51
   4   2   1    0.55    0.35
  -4   2  -1    0.87    0.67
   4  -2   1   -0.26    0.54
  -4  -2  -1    0.23    0.44
  -4  -2  -1    0.83    0.70
  -4   2  -2  194.41   11.52
   4   2   2  188.66   11.36
  -4   2  -2  180.69   11.77
   4   2   2  196.17   11.38
   4  -2   2  208.57   11.70
  -4  -2  -2  173.37   11.42
   4  -2   2  195.15   11.34
  -4  -2  -2  182.05   11.43
  -4   2  -3   42.06    3.54
   4   2   3   48.45    3.21
   4  -2   3   49.71    2.99
  -4  -2  -3   48.65    3.32
   4  -2   3   53.25    3.54
   4   2   4  131.04    7.88
   4   2   4  122.29    7.76
  -4   2  -4  127.64    7.85
   4  -2   4  134.66    8.13
  -4  -2  -4  121.47    7.88
   4   2   5   -0.59    0.79
   4   2   5    0.25    1.09
  -4   2  -5   -0.35    0.66
   4  -2   5   -0.11    0.17
   4  -2   5   -1.33    0.98
   4   2   6   21.05    2.26
   4   2   6   27.49    2.40
   4  -2   6   25.80    1.55
   4   2   7    6.44    1.55
   4  -2   7    4.96    0.45
   4   2   8   35.22    3.41
   4  -2   8   37.17    2.27
   4  -2   8   38.28    3.82
   4   2   9   21.45    3.06
   4  -2   9   17.20    1.26
   4  -2   9   22.07    3.51
  -4   3  10    5.35    2.69
  -4   3   9    4.11    1.98
   4   3  -9    0.80    1.01
   4  -3  -9    2.14    1.68
  -4  -3   9    2.42    0.38
  -4   3   8   11.09    1.86
   4   3  -8    9.77    1.41
  -4  -3   8    8.68    0.75
  -4  -3   8   12.75    2.07
   4  -3  -8    9.91    1.77
   4   3  -7  126.75    7.96
  -4   3   7  121.91    7.97
  -4  -3   7  130.06    8.03
   4  -3  -7  124.39    8.13
   4   3  -6  110.28    7.22
   4   3  -6  105.80    6.70
  -4   3   6  111.72    6.99
  -4  -3   6  113.30    6.96
   4  -3  -6  113.70    7.19
   4   3  -5    7.50    1.01
   4   3  -5   10.47    1.72
   4   3  -5    7.86    0.81
  -4   3   5    9.02    1.32
   4  -3  -5   11.52    1.46
   4   3  -4    6.30    0.62
   4   3  -4    6.22    0.63
  -4   3   4    7.44    1.08
   4   3  -4    3.42    1.19
  -4   3   4    6.47    1.02
   4  -3  -4    5.85    1.09
   4   3  -3    3.25    0.27
   4   3  -3    5.31    0.85
   4   3  -3    3.23    0.28
  -4   3   3    4.76    0.80
  -4   3   3    3.64    0.67
  -4  -3   3    2.97    0.56
   4  -3  -3    3.18    0.60
   4  -3  -3    4.30    0.95
   4   3  -2  138.65    8.25
  -4   3   2  142.75    8.53
   4   3  -2  147.16    8.50
  -4   3   2  149.12    8.51
   4  -3  -2  139.06    8.45
  -4  -3   2  135.59    8.43
   4  -3  -2  141.07    8.59
  -4  -3   2  128.55    8.28
  -4   3   1  149.12    8.38
  -4   3   1  132.89    8.33
   4   3  -1  140.60    8.14
   4  -3  -1  139.07    8.39
  -4  -3   1  129.17    8.30
  -4  -3   1  133.22    8.16
   4  -3  -1  138.26    8.33
   4   3   0    7.05    0.89
  -4   3   0    7.15    0.91
  -4   3   0    8.36    1.04
   4   3   0    6.78    0.66
  -4  -3   0    8.36    0.94
  -4  -3   0    6.20    0.73
   4  -3   0    6.84    0.95
  -4   3  -1   32.69    2.50
  -4   3  -1   31.60    2.42
  -4   3  -1   31.02    2.18
   4   3   1   32.19    2.11
   4   3   1   33.99    2.21
  -4  -3  -1   31.64    2.31
   4  -3   1   31.45    2.16
  -4  -3  -1   29.37    2.13
  -4   3  -2   28.36    2.57
  -4   3  -2   33.36    2.74
   4   3   2   31.16    2.14
   4   3   2   32.88    2.22
  -4   3  -2   30.87    2.23
   4  -3   2   33.42    2.04
  -4  -3  -2   28.23    2.27
  -4  -3  -2   30.13    2.34
  -4   3  -3  228.01   13.11
  -4   3  -3  193.12   13.37
   4   3   3  223.29   13.03
   4   3   3  221.64   13.01
  -4   3  -4   99.20    7.10
  -4   3  -4  102.59    7.51
   4   3   4  115.83    6.97
   4   3   4  115.79    7.02
   4  -3   4  129.79    7.50
  -4   3  -5    0.75    0.68
   4   3   5    1.56    0.95
   4   3   5    1.00    0.85
   4  -3   5    0.48    1.33
   4   3   6   -0.02    1.01
  -4   3  -6    0.31    0.66
   4  -3   6   -0.31    0.36
   4  -3   6    0.18    1.53
   4   3   7    3.27    1.33
   4  -3   7    4.95    2.02
   4   3   8   16.25    2.50
   4  -3   8   19.05    2.82
   4   3   9   26.22    3.29
   4  -3   9   33.19    4.31
   4   4 -10   16.96    1.82
  -4   4  10   18.53    3.14
   4   4  -9    4.74    1.07
  -4   4   9    7.48    2.28
  -4  -4   9    6.96    0.60
   4   4  -8   33.22    2.76
  -4   4   8   32.60    3.66
   4   4  -8   31.28    4.89
   4  -4  -8   34.97    3.62
   4   4  -7   -0.23    1.43
   4   4  -7   -1.72    1.31
  -4   4   7    1.06    1.33
   4  -4  -7   -0.33    1.32
   4   4  -6   10.01    1.86
   4   4  -6    6.99    0.89
  -4   4   6    8.94    1.38
   4   4  -6    9.11    1.44
   4  -4  -6   10.11    1.75
  -4   4   5  188.03   11.28
   4   4  -5  181.03   11.01
   4   4  -5  183.70   10.96
   4  -4  -5  186.05   11.43
   4   4  -4   39.59    3.10
   4   4  -4   41.59    2.55
  -4   4   4   41.62    2.90
   4   4  -4   42.80    2.55
  -4   4   4   37.94    3.05
   4  -4  -4   41.75    3.18
  -4   4   3   91.56    5.62
   4   4  -3   82.95    5.47
  -4   4   3   89.33    5.69
   4   4  -3   91.07    5.32
   4   4  -3   92.59    5.62
   4  -4  -3   89.28    5.77
   4   4  -2    2.46    0.33
  -4   4   2    3.56    0.72
   4   4  -2    2.99    0.64
  -4   4   2    1.89    0.70
   4  -4  -2    1.84    0.60
   4  -4  -2    3.22    0.92
   4  -4  -2    2.75    0.22
  -4  -4   2    3.48    0.52
  -4  -4   2    2.13    0.54
  -4  -4   2    3.02    0.34
   4   4  -1    6.30    0.88
   4   4  -1    5.20    0.58
  -4   4   1    6.47    0.91
  -4   4   1    5.62    0.86
  -4  -4   1    5.37    0.44
   4  -4  -1    5.08    0.33
  -4  -4   1    3.97    0.68
   4  -4  -1    6.33    0.95
   4  -4  -1    3.86    0.80
  -4  -4   1    6.15    0.68
   4   4   0  120.74    7.23
  -4   4   0  113.96    7.34
   4   4   0  125.58    7.34
  -4   4   0  127.97    7.49
   4  -4   0  105.54    7.44
   4  -4   0  120.59    7.36
  -4  -4   0  119.69    7.28
  -4  -4   0  121.40    7.38
  -4  -4   0  127.64    7.12
  -4   4  -1   27.63    2.03
  -4   4  -1   30.63    2.31
   4   4   1   27.99    1.93
   4   4   1   29.17    1.68
   4   4   1   28.77    2.06
  -4  -4  -1   25.37    2.00
  -4  -4  -1   26.97    2.15
  -4  -4  -1   29.37    1.72
   4   4   2   86.74    5.42
   4   4   2   87.97    5.49
  -4   4  -2   87.55    5.82
  -4   4  -2   84.66    5.43
  -4  -4  -2   94.78    5.18
  -4  -4  -2   79.80    5.85
  -4  -4  -2   86.22    5.59
   4  -4   2   90.77    5.32
  -4   4  -3   21.21    1.78
  -4   4  -3   16.22    2.42
   4   4   3   20.11    1.77
   4   4   3   21.41    1.70
   4   4   4    7.77    1.19
   4   4   4    9.41    1.44
  -4   4  -4   10.78    1.46
  -4   4  -4   10.18    2.13
  -4   4  -5  126.88    8.87
  -4   4  -5  127.66    7.91
   4   4   5  130.72    8.07
   4   4   5  128.70    8.02
   4   4   6   25.60    2.77
  -4   4  -6   35.22    4.15
   4   4   7   50.81    4.05
  -4   4  -7   51.04    5.94
   4   4   8    4.51    1.62
  -4   4  -9   13.16    4.37
   4   5  -9   44.73    3.47
  -4   5   9   64.52    5.03
  -4  -5   9   53.69    3.16
  -4   5   8    4.97    1.81
   4   5  -8    4.30    1.17
  -4   5   7    2.37    1.48
   4   5  -7    3.73    1.21
   4   5  -7    2.12    1.41
   4  -5  -7    3.16    1.72
   4   5  -6   21.31    3.24
   4   5  -6   25.92    2.21
  -4   5   6   26.98    2.59
   4  -5  -6   26.34    2.96
   4   5  -5   76.51    4.55
   4   5  -5   60.26    5.10
  -4   5   5   76.45    4.92
   4   5  -5   77.57    4.55
   4  -5  -5   74.38    5.15
   4   5  -4   12.75    1.72
  -4   5   4   13.21    1.97
   4   5  -4   14.41    1.23
  -4   5   4   13.32    1.61
   4   5  -4   14.79    1.10
   4  -5  -4   13.63    2.02
  -4   5   3   76.93    4.96
   4   5  -3   77.40    4.55
   4   5  -3   77.06    4.80
   4   5  -3   68.97    4.75
  -4   5   3   75.24    4.89
  -4  -5   3   76.01    4.52
   4  -5  -3   75.37    5.03
   4   5  -2   39.88    2.75
   4   5  -2   39.54    2.54
  -4   5   2   42.89    2.95
  -4   5   2   39.74    2.89
   4  -5  -2   40.41    3.04
  -4  -5   2   39.74    2.47
  -4  -5   2   42.66    2.74
   4   5  -1    0.98    0.41
   4   5  -1    1.21    0.61
  -4   5   1    1.05    0.73
  -4   5   1    1.30    0.66
   4  -5  -1    1.40    0.87
  -4  -5   1    1.55    0.57
  -4   5   0   97.40    6.19
   4   5   0  107.93    6.06
  -4   5   0   97.14    6.04
   4   5   0   97.79    5.91
  -4  -5   0   91.72    5.98
   4  -5   0   98.97    6.07
  -4  -5   0   89.49    6.05
   4   5   1  187.46   11.67
  -4   5  -1  199.87   11.88
  -4   5  -1  194.58   11.65
   4   5   1  189.75   11.59
   4   5   1  205.12   11.37
   4  -5   1  206.69   11.63
  -4  -5  -1  171.18   11.64
  -4   5  -2   14.84    1.84
   4   5   2   11.05    1.22
  -4   5  -2   11.20    1.31
   4   5   3    8.64    1.17
   4   5   3    5.28    1.01
  -4   5  -3    7.39    1.67
   4   5   4   19.97    1.87
  -4   5  -4   20.51    1.99
   4   5   4   18.45    2.02
  -4   5  -4   18.96    2.71
   4   5   5   68.96    4.48
   4   5   5   68.87    4.57
  -4   5  -5   59.77    4.47
  -4   5  -5   62.16    5.64
   4   5   6    2.96    1.23
  -4   5  -6   -1.87    2.73
   4   5   7   17.72    2.31
  -4   5  -7   16.46    3.90
   4  -5   7   15.60    1.32
   4   5   8    5.64    1.80
  -4   5  -8    1.90    3.90
  -4   6   9    6.41    2.34
   4   6  -8    7.07    1.31
  -4   6   8    8.75    2.04
  -4   6   7   28.01    2.86
   4   6  -7   24.82    3.31
   4   6  -6    9.48    2.07
  -4   6   6    9.42    1.75
   4  -6  -6    9.00    1.95
  -4   6   5    0.82    1.15
   4   6  -5    1.27    0.65
   4   6  -5   -0.03    1.26
   4  -6  -5    2.45    1.59
   4   6  -4   83.29    5.44
   4   6  -4   83.44    5.12
   4   6  -4   84.81    5.35
  -4   6   4   83.32    5.52
   4  -6  -4   83.77    5.76
  -4   6   3   52.27    3.86
  -4   6   3   55.01    3.76
   4   6  -3   54.59    3.35
   4   6  -3   52.87    3.59
  -4  -6   3   51.61    3.24
   4  -6  -3   53.63    4.02
   4   6  -2   50.06    3.49
   4   6  -2   51.88    3.31
  -4   6   2   53.88    3.68
  -4   6   2   52.97    3.72
  -4  -6   2   52.01    3.18
   4  -6  -2   53.01    3.86
  -4  -6   2   54.34    3.58
   4   6  -1  177.23   10.90
  -4   6   1  182.99   11.08
  -4   6   1  185.77   10.98
   4   6  -1  180.47   10.77
   4  -6  -1  179.73   11.03
  -4  -6   1  174.27   10.87
  -4   6   0   22.24    2.03
   4   6   0   20.79    1.62
   4   6   0   19.33    1.78
  -4   6   0   21.37    1.88
  -4  -6   0   20.60    1.88
  -4   6  -1    2.01    1.11
   4   6   1    1.73    0.70
  -4   6  -1    1.54    0.72
   4   6   1    2.24    0.80
  -4   6  -2    3.38    0.87
  -4   6  -2    4.42    1.37
   4   6   2    4.10    0.84
   4   6   2    4.51    1.02
   4   6   3   89.78    5.70
  -4   6  -3   88.87    5.54
  -4   6  -3   93.93    6.16
   4   6   3   82.97    5.57
   4  -6   3   84.57    5.15
   4   6   4   14.20    1.65
   4   6   4    9.59    1.63
  -4   6  -4   11.98    1.74
  -4   6  -4   14.38    2.39
  -4   6  -5   -1.10    2.05
  -4   6  -5   -1.40    1.14
   4   6   5    0.52    1.43
  -4   6  -6   30.48    5.05
   4   6   6   39.90    3.19
   4   6   7    8.18    1.73
  -4   6  -7   -0.32    3.72
   4  -6   7    9.09    0.96
  -4   6  -8    4.54    4.35
   4   6   8   19.40    2.86
   4   7  -8    4.17    1.33
  -4   7   8    6.51    2.08
  -4   7   7   38.07    3.63
   4   7  -7   30.75    3.91
   4   7  -6    7.04    2.00
  -4   7   6    7.59    1.72
  -4   7   5   12.88    2.81
   4   7  -5    9.20    1.64
   4   7  -5    8.28    1.33
  -4   7   4    2.83    1.22
   4   7  -4    2.65    0.97
   4   7  -4    2.74    0.74
  -4  -7   4    2.61    0.41
   4   7  -3   57.48    3.86
  -4   7   3   55.95    4.04
  -4   7   3   55.26    4.31
   4   7  -3   59.43    3.63
  -4  -7   3   54.63    3.45
   4   7  -2    8.93    1.34
  -4   7   2    6.50    1.35
   4   7  -2    6.93    1.07
  -4   7   2    8.00    1.49
  -4  -7   2    6.44    1.42
  -4   7   1  116.67    7.39
   4   7  -1  114.38    7.05
  -4   7   1  117.30    7.36
   4   7  -1  113.28    7.20
  -4   7   0   47.20    3.64
   4   7   0   49.45    3.30
   4   7   0   50.60    3.50
  -4   7   0   50.21    3.56
  -4   7  -1   42.62    3.28
  -4   7  -1   38.68    3.01
   4   7   1   39.38    2.85
   4   7   1   41.92    3.08
   4   7   2   11.84    1.56
   4   7   2   12.27    1.58
  -4   7  -2   12.18    1.71
  -4   7  -2   10.37    1.80
   4   7   3   64.70    4.49
  -4   7  -3   72.81    5.26
   4   7   3   63.79    4.68
  -4   7  -3   68.91    4.48
  -4   7  -4    1.51    0.98
  -4   7  -4    0.69    1.97
   4   7   4    2.38    1.11
   4   7   4    0.00    1.41
   4   7   5    9.20    1.62
  -4   7  -5    8.68    1.45
  -4   7  -5    9.96    2.88
  -4   7  -6    2.78    2.93
   4   7   6    1.56    1.31
   4   7   7   32.81    3.32
  -4   7  -7   27.45    4.79
   4  -7   7   31.24    2.26
   4   8  -8    0.72    1.47
  -4   8   8    4.48    2.17
   4   8  -7    3.72    2.25
  -4   8   7    1.34    1.80
   4   8  -6   39.91    4.15
  -4   8   6   33.28    3.42
  -4   8   5   33.52    3.27
   4   8  -5   33.92    3.26
  -4   8   4   32.16    2.98
   4   8  -4   32.66    2.78
   4   8  -4   32.94    2.42
  -4  -8   4   30.39    2.07
  -4   8   3   20.19    2.27
   4   8  -3   20.56    1.80
  -4  -8   3   20.36    1.41
  -4   8   2  157.67    9.91
   4   8  -2  161.60    9.54
   4   8  -2  151.59    9.69
  -4   8   1    1.56    1.23
   4   8  -1    0.18    0.84
   4   8  -1    1.48    0.83
   4   8   0    0.66    0.88
  -4   8   0   -1.07    1.06
  -4   8   0    0.13    1.28
   4   8   0   -0.08    1.06
   4   8   1    3.72    1.05
   4   8   1    6.01    1.37
  -4   8  -1    6.00    1.37
  -4   8  -1    5.20    1.59
  -4   8  -2    1.81    1.48
  -4   8  -2    3.05    1.16
   4   8   2    4.75    1.11
   4   8   2    3.71    0.34
   4   8   2    5.44    1.46
  -4   8  -3    2.15    1.10
  -4   8  -3    1.36    1.80
   4   8   3    1.52    1.14
   4   8   3    1.18    1.42
  -4   8  -4   29.79    3.84
  -4   8  -4   30.67    2.79
   4   8   4   27.75    3.39
   4   8   4   33.57    2.83
   4   8   5   27.22    2.74
  -4   8  -5   23.93    2.69
  -4   8  -5   26.04    4.25
  -4   8  -6   17.47    3.94
   4   8   6   17.19    2.55
  -4   9   7    4.49    2.10
   4   9  -7    7.88    2.61
   4   9  -6   12.37    2.62
  -4   9   6   11.25    2.25
  -4   9   5   40.23    3.65
   4   9  -5   38.99    3.74
  -4   9   4   -1.00    1.34
   4   9  -4   -1.17    1.08
  -4  -9   4   -0.63    0.45
   4   9  -3   77.24    4.89
   4   9  -3   73.97    5.11
  -4   9   3   76.35    5.35
  -4  -9   3   71.73    4.56
   4   9  -2   14.99    1.73
  -4   9   2   11.38    1.93
   4   9  -2   13.87    1.97
   4   9  -1    5.32    1.16
  -4   9   1    3.84    1.48
   4   9   0   15.16    1.95
   4   9   0   22.74    2.38
  -4   9   0   14.87    2.22
   4   9   1    5.79    1.49
  -4   9  -1    6.16    1.72
   4   9   1    7.87    1.35
   4   9   2   21.29    2.15
   4   9   2   16.39    2.15
  -4   9  -2   15.34    2.37
   4   9   3    6.14    1.47
   4   9   3    3.25    1.74
  -4   9  -3    3.32    2.07
  -4   9  -4   12.37    2.75
   4   9   4   15.00    2.10
  -4   9  -5   48.84    5.34
  -4   9  -5   44.09    3.56
   4   9   5   58.31    4.27
  -4   9  -6   -6.15    3.65
   4   9   6    2.80    1.82
   4  10  -6    1.26    3.45
   4  10  -5    3.33    1.88
  -4  10   5    3.76    1.86
  -4  10   4  143.17    9.15
   4  10  -4  130.27    8.86
  -4 -10   4  138.81    8.27
   4  10  -3    4.53    1.42
  -4  10   3    3.64    1.81
  -4 -10   3    5.49    0.73
   4  10  -2    8.36    2.02
   4  10  -2    7.51    1.49
  -4  10   2    6.10    1.86
   4  10  -1    0.21    1.18
  -4  10   1   -1.73    1.60
   4  10  -1    0.61    1.27
  -4  10   0   12.59    2.27
   4  10   0   14.42    2.13
   4  10   0   14.58    2.20
  -4  10  -1   -0.29    1.63
   4  10   1    0.43    1.48
   4  10   1    1.60    1.66
   4  10   2   -1.01    2.86
   4  10   2    1.81    1.37
  -4  10  -2   -1.04    1.92
   4  10   3   -0.60    2.00
  -4  10  -3   -0.59    2.06
   4  10   3    1.74    1.53
  -4  10  -4   -5.13    2.46
  -4  10  -4   -2.09    1.23
   4  10   4    2.77    1.83
  -4  11   4    1.28    1.95
  -4  11   4    2.06    3.10
   4  11  -4   -3.20    1.53
  -4 -11   4    0.22    0.63
  -4  11   3   40.37    4.27
   4  11  -3   41.18    3.86
  -4 -11   3   45.75    2.85
  -4  11   2   11.15    2.32
   4  11  -2   11.77    2.02
  -4 -11   2   12.47    1.39
   4  11  -1   12.44    2.44
  -4  11   1   10.86    2.34
   4  11  -1   13.65    2.07
   4  11   0    4.98    1.80
  -4  11   0   -1.00    2.02
   4  11   0    2.77    1.96
  -4  11  -1   -3.36    2.06
   4  11   1    1.31    1.68
   4  11   1   -0.29    1.87
  -4  11  -2   18.32    3.01
   4  11   2   16.40    2.97
  -4  11  -2   17.14    2.40
   4  11   2   25.38    3.12
  -4  11  -3   -4.05    2.66
  -4  11  -3   -2.98    1.61
   5   0 -10   45.81    3.96
  -5   0  10   44.90    5.59
  -5   0   9    0.09    1.93
  -5   0   8   70.24    5.74
   5   0  -8   99.47    5.91
  -5   0   7    0.61    1.07
   5   0  -7   -0.52    1.16
  -5   0   7    0.56    0.24
  -5   0   6   82.98    4.94
  -5   0   6   87.23    5.32
   5   0  -6   79.20    5.15
   5   0  -6   84.62    5.67
  -5   0   5    0.17    0.59
   5   0  -5    0.93    1.09
   5   0  -5   -0.13    0.43
  -5   0   4   88.60    5.31
   5   0  -4   86.86    5.89
   5   0  -4   88.34    5.26
  -5   0   4   84.91    5.68
  -5   0   3    0.22    0.30
  -5   0   3    1.12    0.78
   5   0  -3    0.03    0.27
   5   0  -3   -0.93    1.07
  -5   0   2   32.30    2.54
  -5   0   2   32.25    1.99
   5   0  -2   32.98    2.93
   5   0  -2   29.03    2.01
  -5   0   1    0.37    0.42
   5   0  -1   -0.17    1.01
  -5   0   1    0.21    0.40
  -5   0   1   -0.04    0.91
   5   0   0  504.40   29.87
   5   0   1    0.13    0.51
  -5   0  -1    0.58    0.73
  -5   0  -1    0.03    1.04
   5   0   1    1.04    0.73
  -5   0  -2  160.01   11.11
   5   0   2  190.06   10.94
  -5   0  -2  193.94   11.13
   5   0   2  177.66   10.94
   5   0   3    0.13    0.77
   5   0   3   -0.53    0.61
  -5   0  -3   -0.09    0.75
   5   0   4   46.10    3.20
   5   0   4   43.62    2.66
   5   0   4   45.26    3.19
  -5   0  -4   43.33    3.27
  -5   0  -5    0.98    1.02
   5   0   5   -0.03    0.17
   5   0   5    0.19    1.10
   5   0   5    0.51    0.89
   5   0   6   57.27    4.06
   5   0   6   53.02    3.26
  -5   0  -6   53.99    4.03
   5   0   7    2.44    1.39
   5   0   8    3.58    0.42
   5   0   8    3.55    1.78
   5   0   9    1.07    0.35
   5   0   9    3.01    1.97
   5   1 -10   19.29    2.71
  -5   1  10   19.90    3.22
   5  -1 -10   16.84    2.39
  -5   1   9   79.28    6.02
   5   1  -9   76.96    5.60
  -5  -1   9   88.07    7.06
   5  -1  -9   80.94    5.84
   5   1  -8   57.73    4.27
  -5   1   8   59.27    4.32
  -5  -1   8   51.20    3.38
  -5  -1   8   59.38    4.42
   5   1  -7    2.45    0.88
  -5   1   7    2.54    1.19
   5   1  -7    4.52    1.42
   5  -1  -7    1.96    1.27
  -5  -1   7    3.31    0.34
  -5  -1   7    2.08    1.23
   5   1  -6    9.00    1.06
   5   1  -6    9.26    1.66
  -5   1   6   11.97    1.48
   5  -1  -6    9.25    1.67
   5  -1  -6    8.22    1.32
  -5   1   5    3.46    0.73
   5   1  -5    2.71    0.46
  -5   1   5    2.69    0.28
   5   1  -5    0.75    1.26
   5  -1  -5    2.15    0.59
   5  -1  -5    2.45    1.13
  -5  -1   5    2.04    0.69
  -5   1   4   19.19    1.91
  -5   1   4   21.27    1.57
   5   1  -4   20.49    1.35
   5   1  -4   21.32    2.60
  -5  -1   4   17.30    2.29
  -5  -1   4   22.55    1.45
   5  -1  -4   19.89    1.48
   5  -1  -4   20.80    2.26
  -5   1   3   60.91    3.84
   5   1  -3   61.16    3.71
   5   1  -3   65.06    4.53
  -5   1   3   61.13    4.10
  -5  -1   3   64.73    3.71
  -5  -1   3   55.80    4.33
   5  -1  -3   64.44    3.83
  -5   1   2   17.72    1.65
  -5   1   2   20.00    1.36
   5   1  -2   18.07    2.01
  -5  -1   2   17.51    1.26
   5  -1  -2   18.15    2.18
  -5  -1   2   16.20    2.11
   5  -1  -2   18.26    1.33
  -5  -1   2   18.74    1.16
  -5   1   1  295.04   15.22
  -5   1   1  266.80   15.39
   5   1  -1  257.99   15.36
  -5  -1   1  234.86   15.11
   5  -1  -1  247.61   15.19
  -5  -1   1  252.74   15.47
  -5  -1   1  231.29   15.13
  -5   1   0  135.16    8.62
   5   1   0  128.62    8.45
  -5   1   0  147.82    8.61
   5   1   0  156.42    8.64
  -5  -1   0  127.40    8.52
  -5  -1   0  151.55    8.81
  -5   1  -1  378.32   19.87
   5   1   1  305.76   19.56
   5   1   1  296.26   19.49
  -5  -1  -1  343.11   19.72
  -5  -1  -1  322.82   19.63
   5   1   2  199.31   11.80
  -5   1  -2  170.84   12.10
  -5   1  -2  220.42   12.18
  -5  -1  -2  194.24   11.93
   5  -1   2  192.77   11.94
  -5  -1  -2  183.60   11.93
   5  -1   2  212.21   11.96
  -5   1  -3   22.94    2.41
   5   1   3   19.56    1.35
   5   1   3   22.42    1.81
   5   1   3   22.45    1.84
   5  -1   3   26.17    2.24
   5  -1   3   26.08    2.01
  -5  -1  -3   20.67    2.11
   5   1   4   19.16    1.15
   5   1   4   19.22    1.76
   5   1   4   19.82    2.39
  -5   1  -4   20.52    2.02
   5  -1   4   17.80    1.87
  -5  -1  -4   19.09    2.07
   5  -1   4   14.75    2.00
   5   1   5    2.80    1.02
  -5   1  -5    2.71    1.07
   5   1   5    3.28    0.99
   5  -1   5    3.18    0.31
  -5  -1  -5    2.08    1.15
   5  -1   5    3.72    1.20
   5   1   6    2.50    1.60
   5   1   6    2.08    1.15
  -5   1  -6    2.99    1.17
   5  -1   6    2.19    1.30
   5  -1   6    3.21    0.32
   5   1   7   29.48    2.78
   5  -1   7   26.63    1.72
   5  -1   7   28.51    2.93
   5   1   8    5.88    1.76
   5   1   9   30.44    1.97
   5   1   9   35.72    3.64
   5  -1   9   30.13    3.79
   5  -1   9   31.22    1.98
  -5   2  10   31.13    4.61
   5   2 -10   33.45    3.10
   5  -2 -10   29.41    3.88
   5   2  -9   -0.24    1.19
  -5   2   9    1.98    1.96
  -5  -2   9    1.12    0.34
   5  -2  -9    1.30    1.53
  -5   2   8    1.53    1.52
   5   2  -8    3.61    1.33
  -5  -2   8    2.11    0.35
   5  -2  -8    5.03    1.59
  -5  -2   8    2.33    1.64
   5   2  -7   37.10    3.33
  -5   2   7   40.68    3.10
   5  -2  -7   33.46    3.41
  -5  -2   7   38.47    3.21
   5   2  -6   27.86    3.05
  -5   2   6   30.90    2.34
   5   2  -6   28.39    1.97
  -5  -2   6   31.38    2.44
   5  -2  -6   27.25    2.78
   5   2  -5   18.22    1.19
  -5   2   5   18.91    1.58
   5   2  -5   15.83    2.16
   5  -2  -5   15.43    1.47
   5  -2  -5   16.03    2.18
  -5  -2   5   18.06    1.52
   5   2  -4   31.39    3.37
   5   2  -4   43.10    2.29
  -5   2   4   33.92    2.82
  -5   2   4   39.67    2.62
   5  -2  -4   37.18    3.04
   5  -2  -4   37.81    2.54
   5   2  -3   -0.54    0.84
  -5   2   3   -0.03    0.62
  -5  -2   3   -0.91    0.65
   5  -2  -3    0.29    0.41
   5  -2  -3    0.71    1.13
  -5   2   2  357.07   20.57
  -5   2   2  351.71   20.67
   5   2  -2  336.71   20.71
   5  -2  -2  343.01   20.54
  -5  -2   2  339.29   20.70
   5  -2  -2  351.59   20.80
   5   2  -1   21.44    1.80
   5   2  -1   22.48    1.41
  -5   2   1   23.01    1.67
  -5   2   1   19.20    1.73
   5  -2  -1   19.34    2.08
  -5  -2   1   23.14    1.93
   5  -2  -1   19.27    1.62
  -5   2   0  203.66   12.36
   5   2   0  200.12   12.17
  -5   2   0  193.94   12.40
   5   2   0  204.89   12.32
  -5   2   0  209.44   12.41
  -5  -2   0  202.01   12.22
  -5  -2   0  221.96   12.44
  -5   2  -1   25.95    2.06
  -5   2  -1   23.77    1.93
   5   2   1   21.75    1.70
  -5   2  -1   19.80    1.88
   5   2   1   21.34    1.55
  -5   2  -1   18.35    1.23
  -5  -2  -1   17.05    1.65
   5  -2   1   25.36    2.00
  -5  -2  -1   20.54    1.91
  -5   2  -2   27.05    3.34
   5   2   2   24.92    1.79
  -5   2  -2   25.95    2.40
   5   2   2   23.72    1.85
  -5   2  -2   18.82    2.22
  -5  -2  -2   21.54    1.98
   5  -2   2   26.52    2.08
  -5  -2  -2   24.09    2.14
   5  -2   2   29.41    2.30
   5   2   3   60.04    3.79
  -5   2  -3   54.29    4.31
   5   2   3   57.48    3.42
   5  -2   3   63.86    4.11
   5  -2   3   56.77    3.75
  -5  -2  -3   52.83    3.99
  -5   2  -4   38.57    3.13
   5   2   4   36.78    2.74
   5   2   4   33.21    2.64
  -5  -2  -4   36.60    2.97
   5  -2   4   39.67    2.99
  -5   2  -5   21.66    2.16
   5   2   5   21.76    2.07
   5  -2   5   23.80    2.42
  -5  -2  -5   21.94    2.46
   5   2   6   11.31    1.81
  -5   2  -6   10.52    1.41
   5  -2   6   13.13    2.13
   5   2   7    0.26    1.27
   5  -2   7    2.41    1.58
   5   2   8   74.80    5.61
   5  -2   8   80.90    5.90
   5  -2   9    4.99    2.50
  -5   3  10   17.55    3.10
   5   3 -10   16.90    2.26
   5  -3 -10   11.19    2.59
   5   3  -9    2.26    1.30
  -5   3   9    3.06    1.99
  -5  -3   9    3.23    0.44
   5  -3  -9    2.32    1.96
  -5   3   8    1.94    1.55
   5   3  -8    0.31    1.28
   5  -3  -8    0.46    1.57
  -5  -3   8    3.02    1.48
   5   3  -7   60.60    4.61
  -5   3   7   58.74    4.25
   5  -3  -7   61.06    4.66
  -5   3   6   20.07    2.02
   5   3  -6   22.05    2.92
   5   3  -6   19.04    1.33
   5   3  -6   13.59    1.73
   5  -3  -6   16.90    2.46
   5   3  -5   -0.57    1.48
   5   3  -5    0.45    0.39
  -5   3   5    1.09    0.76
   5   3  -5    1.24    0.37
   5  -3  -5   -0.58    1.11
  -5   3   4   33.40    2.66
  -5   3   4   36.36    2.44
   5   3  -4   29.15    2.97
   5  -3  -4   34.80    2.90
  -5   3   3    7.32    1.05
  -5   3   3    7.09    1.07
  -5  -3   3    3.95    1.01
   5  -3  -3    4.97    0.76
   5  -3  -3    4.90    1.21
  -5   3   2  151.68    9.28
   5   3  -2  159.55    9.29
  -5   3   2  161.93    9.25
   5  -3  -2  153.40    9.40
   5  -3  -2  147.31    9.18
  -5  -3   2  138.46    9.21
   5   3  -1  370.42   22.26
  -5   3   1  398.86   22.51
   5   3  -1  397.05   22.47
  -5   3   1  388.69   22.49
   5  -3  -1  343.44   22.45
  -5  -3   1  371.87   22.28
  -5  -3   1  372.39   22.48
   5  -3  -1  381.72   22.56
   5   3   0   82.20    5.02
   5   3   0   81.91    4.85
  -5   3   0   76.50    5.03
  -5   3   0   81.90    5.12
  -5  -3   0   74.93    5.10
  -5  -3   0   80.52    4.89
  -5   3  -1    3.65    0.99
  -5   3  -1    1.99    0.92
  -5   3  -1    3.16    0.77
   5   3   1    4.90    0.78
   5   3   1    3.70    0.62
  -5  -3  -1    4.03    0.98
   5  -3   1    3.29    0.76
  -5  -3  -1    3.70    0.75
  -5   3  -2    3.34    1.23
   5   3   2    3.38    0.27
  -5   3  -2    3.08    0.92
   5   3   2    3.39    0.71
   5   3   2    4.03    0.84
  -5  -3  -2    2.00    0.85
   5  -3   2    4.17    0.74
  -5  -3  -2    3.71    1.05
  -5   3  -3   69.20    4.65
   5   3   3   65.74    4.23
   5   3   3   64.95    4.25
  -5   3  -3   64.86    4.80
   5  -3   3   65.06    3.98
  -5  -3  -3   62.87    4.48
   5   3   4   20.36    1.92
  -5   3  -4   19.62    2.78
  -5   3  -4   17.00    2.19
   5   3   4   22.48    1.87
   5  -3   4   19.86    2.47
  -5  -3  -4   17.85    2.35
  -5   3  -5    0.92    1.09
   5   3   5    1.27    0.95
   5   3   5    1.25    1.09
   5  -3   5    1.24    1.52
  -5   3  -6   14.08    1.81
   5   3   6   13.62    2.04
   5  -3   6   13.48    2.25
   5   3   7   10.57    1.81
   5  -3   7   13.00    2.33
   5   3   8   16.64    2.61
   5  -3   8   22.20    3.46
  -5   3  -9   67.73    6.95
   5   3   9   52.99    4.79
   5  -3   9   50.98    5.41
   5   4 -10   19.75    2.31
  -5   4  10   23.33    3.51
  -5  -4  10   19.15    1.36
   5   4  -9   11.17    1.66
  -5   4   9   12.58    2.43
  -5  -4   9   12.71    0.95
   5  -4  -9   13.68    2.66
   5   4  -8   21.29    2.68
   5  -4  -8   20.66    2.68
   5   4  -7   -0.65    1.57
   5   4  -7    0.85    0.93
  -5   4   7    1.30    1.38
   5  -4  -7    2.03    1.49
   5   4  -6    0.19    0.45
   5   4  -6    2.55    1.86
   5   4  -6    0.36    0.55
  -5   4   6    0.88    1.06
   5  -4  -6    1.72    1.49
  -5   4   5   43.34    3.08
   5   4  -5   33.96    3.68
   5   4  -5   42.62    2.53
   5   4  -5   41.90    2.52
   5  -4  -5   44.35    3.55
   5   4  -4   75.73    5.38
  -5   4   4   84.23    5.20
  -5   4   4   78.47    5.34
   5  -4  -4   83.32    5.47
   5   4  -3  224.10   13.53
  -5   4   3  228.23   13.50
  -5   4   3  217.27   13.52
   5  -4  -3  224.44   13.63
  -5   4   2   25.89    2.14
   5   4  -2   27.33    2.06
   5   4  -2   26.74    1.65
  -5   4   2   26.46    2.07
   5  -4  -2   25.34    2.37
  -5   4   1    1.11    0.72
   5   4  -1    1.56    0.36
   5   4  -1    1.71    0.62
  -5   4   1    1.04    0.68
   5  -4  -1    0.65    0.95
  -5  -4   1    1.60    0.44
  -5  -4   1    0.57    0.67
  -5   4   0   99.89    6.23
  -5   4   0  102.26    6.36
   5   4   0  107.29    6.22
   5   4   0  101.40    6.05
   5  -4   0   99.90    6.27
  -5  -4   0   99.76    6.11
  -5  -4   0   89.06    6.25
  -5   4  -1   94.45    5.62
   5   4   1   83.90    5.37
  -5   4  -1   81.44    5.37
   5   4   1   87.61    5.26
  -5  -4  -1   79.61    5.47
  -5  -4  -1   85.15    5.34
  -5   4  -2   44.37    3.62
  -5   4  -2   42.02    3.15
   5   4   2   46.74    2.70
   5   4   2   47.11    3.03
   5   4   2   47.06    3.14
  -5  -4  -2   44.88    3.43
   5  -4   2   45.29    2.98
   5   4   3    4.68    0.98
  -5   4  -3    6.37    1.20
  -5   4  -3    4.72    1.64
   5   4   3    6.43    0.97
  -5  -4  -3    6.29    1.35
  -5   4  -4    1.32    1.39
  -5   4  -4    1.17    1.82
   5   4   4    0.60    0.89
   5   4   4    0.24    0.83
  -5   4  -5    6.05    1.53
   5   4   5    6.85    1.25
  -5   4  -5    7.08    2.31
   5   4   5    6.50    1.45
   5   4   6   44.69    3.37
  -5   4  -6   39.57    3.03
  -5   4  -7   96.39    7.58
   5   4   7   82.67    5.96
  -5   4  -8   15.05    3.88
   5   5  -9   49.03    3.99
  -5   5   9   66.32    4.97
  -5   5   8   32.95    3.54
   5   5  -8   27.48    3.08
   5  -5  -8   28.88    4.06
  -5   5   7    2.08    1.51
   5   5  -7    2.08    1.79
   5  -5  -7    0.90    1.76
   5   5  -6    3.26    0.56
  -5   5   6    2.13    1.32
   5   5  -6    1.46    1.86
   5  -5  -6    1.03    1.54
   5   5  -5   40.46    2.51
  -5   5   5   42.67    3.15
   5   5  -5   39.42    3.55
   5  -5  -5   42.13    3.64
  -5   5   4   30.78    2.93
   5   5  -4   36.63    2.89
  -5   5   4   34.03    2.68
   5   5  -4   34.57    2.09
   5   5  -4   33.20    2.07
   5  -5  -4   36.24    3.10
  -5   5   3   75.36    4.82
  -5   5   3   70.64    4.91
   5   5  -3   72.11    4.37
   5   5  -3   73.99    4.78
   5  -5  -3   73.02    5.03
   5   5  -2   54.84    3.59
  -5   5   2   54.14    3.72
   5   5  -2   52.44    3.26
  -5   5   2   53.13    3.72
  -5  -5   2   55.25    3.41
   5  -5  -2   50.29    3.87
  -5   5   1    8.44    1.36
  -5   5   1    7.16    1.07
   5   5  -1    7.88    0.81
   5   5  -1    9.04    1.21
   5  -5  -1    6.71    1.20
  -5  -5   1    8.42    1.08
   5   5   0    0.51    0.48
  -5   5   0   -0.09    0.73
  -5   5   0    1.34    0.87
   5   5   0    0.62    0.65
  -5  -5   0    0.24    0.66
   5  -5   0   -0.08    0.81
  -5  -5   0   -1.09    0.84
  -5  -5   0    0.02    0.24
   5   5   1  213.80   12.44
  -5   5  -1  205.46   12.43
  -5   5  -1  208.48   12.68
   5   5   1  205.64   12.33
  -5  -5  -1  187.83   12.51
  -5  -5  -1  234.93   12.14
   5  -5   1  205.49   12.38
  -5  -5  -1  183.25   12.40
   5   5   2   61.47    3.47
  -5   5  -2   57.44    3.91
  -5   5  -2   63.32    4.38
   5   5   2   57.97    3.80
   5   5   2   56.89    3.94
  -5  -5  -2   53.85    4.17
  -5   5  -3    0.11    1.46
   5   5   3    1.13    0.91
   5   5   3    1.99    0.82
   5   5   4    2.64    1.11
  -5   5  -4    3.65    1.29
  -5   5  -4    2.58    2.00
   5   5   4    5.18    1.08
  -5   5  -5   43.15    3.60
   5   5   5   42.30    3.21
  -5   5  -5   37.87    4.69
  -5   5  -6   10.65    1.59
   5   5   6   14.31    2.02
  -5   5  -6   10.62    3.36
   5   5   7   25.91    2.76
  -5   5  -7   25.45    4.41
   5  -5   7   23.81    1.78
  -5   5  -8    6.76    4.19
   5   5   8    6.15    1.74
  -5   6   9    3.99    2.54
  -5   6   8   16.04    2.47
   5   6  -8   13.35    2.08
   5   6  -7   60.54    5.62
  -5   6   7   70.14    5.13
   5  -6  -7   68.71    5.55
  -5   6   6   33.59    3.37
   5   6  -6   33.41    4.02
   5  -6  -6   34.65    3.86
  -5   6   5   58.27    4.00
   5   6  -5   54.45    4.28
   5   6  -5   52.33    3.31
   5  -6  -5   50.89    4.34
   5   6  -4   53.36    4.06
  -5   6   4   57.50    4.05
   5   6  -4   60.52    3.57
   5   6  -4   54.00    3.46
   5  -6  -4   57.47    4.36
   5   6  -3    1.08    0.42
   5   6  -3    0.71    0.94
  -5   6   3    0.48    0.98
  -5   6   3   -0.22    1.13
   5   6  -3    1.60    0.78
   5  -6  -3   -0.06    1.40
   5   6  -2   10.99    1.47
  -5   6   2   11.11    1.61
  -5   6   2   12.45    1.65
   5   6  -2   10.14    1.02
  -5  -6   2   10.37    1.50
  -5  -6   2   11.50    0.83
   5  -6  -2   12.81    1.80
   5   6  -1   39.81    2.56
   5   6  -1   40.09    2.84
  -5   6   1   41.62    3.05
  -5   6   1   37.43    3.00
  -5  -6   1   42.49    2.83
   5  -6  -1   37.53    2.32
  -5  -6   1   37.38    2.49
   5  -6  -1   39.77    3.13
  -5   6   0    2.83    0.98
   5   6   0    3.11    0.67
  -5   6   0    1.69    1.11
   5   6   0    2.37    0.82
  -5  -6   0    3.81    0.41
  -5  -6   0    2.81    0.98
   5  -6   0    3.63    1.13
   5   6   1   44.67    3.08
   5   6   1   47.45    3.26
  -5   6  -1   47.45    3.58
  -5   6  -1   42.92    3.25
  -5  -6  -1   46.70    2.78
  -5   6  -2   23.36    2.20
   5   6   2   25.02    2.07
   5   6   2   24.97    1.49
  -5   6  -2   25.02    2.71
   5   6   2   25.38    2.25
  -5  -6  -2   24.57    1.56
   5   6   3   84.90    5.82
  -5   6  -3   98.11    6.41
  -5   6  -3   87.16    5.78
   5   6   3   90.07    5.74
   5   6   4   42.72    3.27
  -5   6  -4   45.94    3.40
   5   6   4   44.75    3.80
  -5   6  -4   37.05    4.40
  -5   6  -5   58.43    6.72
  -5   6  -5   81.48    5.19
   5   6   5   69.56    4.89
  -5   6  -6   19.25    3.79
  -5   6  -6   20.25    2.33
   5   6   6   27.29    2.57
   5   6   7    1.92    1.48
  -5   6  -7   -6.03    3.59
   5  -6   7    2.11    0.73
   5   7  -8   11.04    2.24
  -5   7   8   19.56    3.13
  -5   7   7   60.04    4.64
   5   7  -7   51.76    5.34
   5   7  -6    3.95    1.96
  -5   7   6    0.30    1.44
   5  -7  -6    3.42    2.40
   5   7  -5   46.24    3.76
  -5   7   5   36.23    3.77
   5  -7  -5   43.61    4.29
   5   7  -4   19.04    1.48
   5   7  -4   19.04    2.24
  -5   7   4   18.10    2.22
   5  -7  -4   19.93    2.52
  -5   7   3    5.71    1.61
  -5   7   3    7.12    1.48
   5   7  -3    7.02    1.18
  -5  -7   3    7.32    0.71
   5  -7  -3    8.90    2.05
   5   7  -2    4.97    1.13
  -5   7   2    4.17    1.30
   5   7  -2    4.54    0.75
  -5   7   2    5.89    1.55
  -5  -7   2    3.86    0.48
  -5  -7   2    5.07    1.33
   5  -7  -2    3.01    1.54
  -5   7   1   40.51    3.30
   5   7  -1   40.88    2.77
   5   7  -1   41.84    3.06
  -5   7   1   42.26    3.30
  -5  -7   1   40.76    2.54
   5   7   0    4.18    1.00
  -5   7   0    4.51    1.34
   5   7   0    4.61    0.83
  -5   7   0    4.52    1.13
  -5  -7   0    4.68    0.55
   5   7   1   17.33    1.58
   5   7   1   17.08    1.97
  -5   7  -1   17.79    2.30
  -5   7  -1   14.09    2.00
  -5   7  -2   42.53    3.17
   5   7   2   39.16    3.17
  -5   7  -2   41.24    3.60
   5   7   2   37.64    2.91
  -5  -7  -2   41.46    2.48
   5   7   3  119.14    7.88
  -5   7  -3  138.61    8.58
   5   7   3  120.95    7.78
  -5   7  -3  117.99    7.77
  -5  -7  -3  124.19    7.33
  -5   7  -4    1.65    2.58
   5   7   4    0.06    1.22
  -5   7  -4    0.08    1.23
   5   7   5   31.42    2.88
  -5   7  -5   30.54    4.49
  -5   7  -5   33.38    3.14
  -5   7  -6    1.41    3.39
   5   7   6    4.03    1.50
  -5   7  -7   -2.99    3.85
   5   7   7    6.56    1.79
  -5   8   7    1.32    2.07
   5   8  -7    4.77    2.51
   5   8  -6  109.23    7.81
  -5   8   6  107.83    7.41
  -5   8   5   22.76    2.71
   5   8  -5   22.34    3.02
  -5   8   4   14.45    2.29
   5   8  -4   14.52    2.17
   5   8  -3   51.20    3.73
   5   8  -3   51.98    3.27
  -5   8   3   40.43    5.14
  -5  -8   3   48.90    3.08
   5   8  -2   12.81    1.87
  -5   8   2   13.30    1.93
   5   8  -2   13.35    1.45
  -5  -8   2   13.72    1.03
   5   8  -1    5.33    1.28
   5   8  -1    3.31    0.90
  -5   8   1    3.68    1.39
  -5  -8   1    4.05    0.52
  -5   8   0    4.15    1.48
   5   8   0    5.56    1.03
   5   8   0    4.96    1.20
  -5   8  -1    7.33    1.81
   5   8   1   12.07    1.57
   5   8   1    7.38    1.37
   5   8   2    6.72    1.49
   5   8   2   11.20    1.63
  -5   8  -2    7.91    2.86
   5   8   3    0.34    1.37
  -5   8  -3   -1.86    1.83
   5   8   3    0.76    0.26
   5   8   3    2.41    1.28
  -5   8  -4  112.28    8.05
   5   8   4  107.12    7.10
  -5   8  -5    6.59    1.72
   5   8   5    6.01    1.65
  -5   8  -5    3.69    3.02
   5   8   6    5.37    1.72
  -5   8  -6    0.80    3.57
   5   9  -7   14.05    3.29
  -5   9   6    0.79    1.95
   5   9  -6    5.72    2.39
  -5   9   5   67.53    4.99
   5   9  -5   58.45    5.05
  -5   9   4   -0.64    1.48
   5   9  -4    0.33    1.35
   5   9  -3   28.37    2.86
  -5   9   3   31.63    3.11
  -5  -9   3   30.42    2.02
   5   9  -2   13.74    2.11
   5   9  -2   13.35    1.73
  -5   9   2   13.03    2.10
  -5  -9   2   13.43    1.08
   5   9  -1   13.77    1.88
  -5   9   1   13.12    2.09
   5   9  -1   11.77    1.74
  -5  -9   1   11.57    1.05
  -5   9   0   21.52    2.83
   5   9   0   23.95    2.63
   5   9   0   25.99    2.30
   5   9   1   17.39    2.56
  -5   9  -1   16.05    2.40
   5   9   1   18.78    2.06
  -5   9  -2   10.81    2.30
   5   9   2    7.61    1.71
   5   9   3   20.03    3.14
  -5   9  -3   17.89    2.97
   5   9   3   22.29    2.45
  -5  -9  -3   22.56    1.51
  -5   9  -4    5.25    2.69
   5   9   4    5.33    1.69
  -5   9  -5   58.67    6.09
   5   9   5   55.28    4.42
   5  10  -5   -3.00    1.83
  -5  10   5    1.54    1.80
   5  10  -4  111.45    7.56
  -5  10   4  111.17    7.68
  -5  10   3    4.98    1.95
   5  10  -3    7.09    1.78
  -5 -10   3    7.43    0.83
   5  10  -2    5.80    1.54
  -5  10   2    3.28    1.81
  -5 -10   2    6.57    0.76
   5  10  -1    1.44    1.37
   5  10  -1    1.93    1.30
  -5  10   1   -1.66    1.59
  -5 -10   1    1.44    0.54
  -5  10   0   -0.58    1.79
   5  10   0    0.65    1.28
   5  10   0    0.21    1.59
  -5 -10   0    0.61    0.51
   5  10   1    2.40    1.66
   5  10   1    1.89    1.64
  -5  10  -1   -2.26    1.71
   5  10   2   21.65    3.31
   5  10   2   24.55    2.87
  -5  10  -2   19.31    3.03
  -5  10  -3   -1.98    2.24
   5  10   3    0.87    1.63
   5  10   4    8.97    2.11
  -5  10  -4    3.87    3.01
  -5  11   3    9.08    2.36
   5  11  -3    7.48    1.79
  -5 -11   3   10.51    1.13
   5  11  -2   21.31    3.10
  -5  11   2   24.51    3.14
  -5  11   1   -2.83    1.89
   5  11  -1    3.01    1.97
  -5 -11   1    0.95    0.63
   5  11   0   22.89    2.85
  -5  11   0   16.44    2.88
   5  11   0   21.92    3.32
  -5 -11   0   18.61    1.56
  -5  11  -1    1.78    2.21
   5  11   1    4.10    1.80
   5  11   1    3.23    2.29
  -5 -11  -1    2.30    0.69
   5  11   2    5.28    1.92
  -5  11  -2    0.30    2.56
   5  11   2    2.75    2.32
  -5 -11  -2    3.72    0.79
   6   0 -10    5.04    1.83
  -6   0   9    0.54    1.99
   6   0  -9    0.92    1.58
  -6   0   8   17.24    2.68
   6   0  -8   25.08    3.11
   6   0  -7    0.14    1.14
   6   0  -7    1.92    1.54
  -6   0   7    1.33    1.07
  -6   0   7    0.45    0.26
  -6   0   6   67.90    4.19
   6   0  -6   58.43    4.00
   6   0  -6   66.81    4.94
   6   0  -5   -0.23    0.44
  -6   0   5   -0.33    0.57
   6   0  -5    0.15    1.42
   6   0  -4  412.38   25.39
   6   0  -4  466.36   26.11
  -6   0   4  416.38   25.42
  -6   0   3    0.26    0.35
   6   0  -3    0.02    1.40
  -6   0   3    2.26    1.07
   6   0  -3   -0.02    0.37
  -6   0   2  154.47    9.33
   6   0  -2  141.77    9.49
  -6   0   2  151.29    8.84
  -6   0   2  142.93    8.86
   6   0  -1   -0.18    1.10
  -6   0   1    0.50    0.58
  -6   0   1    0.29    0.54
  -6   0   1   -0.51    1.20
   6   0   0  182.47    9.67
  -6   0   0  134.20    9.56
  -6   0   0  157.64    9.73
  -6   0  -1   -0.31    0.88
   6   0   1    0.21    0.96
   6   0   1   -0.87    0.49
  -6   0  -1    0.01    1.40
  -6   0  -2   27.06    2.84
   6   0   2   25.52    2.34
   6   0   2   24.66    2.00
   6   0   3   -0.57    0.67
  -6   0  -3   -0.12    1.28
   6   0   3    1.18    1.01
  -6   0  -4   53.96    4.13
   6   0   4   53.88    3.81
   6   0   4   56.65    3.96
   6   0   5   -0.67    1.39
   6   0   5   -0.12    0.99
  -6   0  -5   -0.56    1.29
   6   0   5    0.06    0.17
   6   0   6  171.38   10.80
   6   0   6  173.01   10.07
  -6   0  -6  166.82   10.77
   6   0   7    4.04    1.54
   6   0   8   13.63    0.99
   6   0   8   15.77    2.36
   6   0   9   -0.19    0.33
   6   1 -10    8.68    1.95
   6  -1 -10    9.97    2.18
  -6   1   9   13.67    2.46
   6   1  -9   11.47    2.12
   6  -1  -9   20.12    2.70
  -6   1   8   21.75    2.68
  -6  -1   8   18.19    2.73
   6  -1  -8   26.02    3.14
  -6  -1   8   17.61    1.28
   6   1  -7    3.58    1.66
  -6   1   7    2.92    1.19
  -6  -1   7    2.36    1.19
   6  -1  -7    2.59    1.51
  -6   1   6   10.31    0.76
   6   1  -6   10.40    1.06
  -6   1   6   12.24    1.53
   6   1  -6   11.32    2.08
   6  -1  -6   10.86    1.32
  -6  -1   6    9.86    1.49
   6  -1  -6   18.04    2.60
  -6   1   5   22.25    1.69
   6   1  -5   17.60    2.40
   6   1  -5   20.01    1.38
   6  -1  -5   17.76    1.53
  -6  -1   5   21.88    1.60
   6  -1  -5   18.92    2.67
  -6   1   4   37.36    2.94
  -6   1   4   38.92    2.51
   6   1  -4   39.98    3.78
   6   1  -4   32.43    2.39
  -6  -1   4   40.42    2.36
   6  -1  -4   38.57    3.47
   6  -1  -4   36.48    2.45
  -6   1   3  291.69   17.52
  -6   1   3  295.13   17.78
   6   1  -3  295.13   18.07
  -6  -1   3  284.67   17.38
  -6  -1   3  286.24   17.41
   6  -1  -3  291.10   17.51
  -6  -1   3  291.74   17.98
   6  -1  -3  330.36   18.14
  -6   1   2   97.19    5.68
  -6   1   2   97.06    5.97
   6  -1  -2  100.71    6.42
  -6  -1   2   84.84    5.66
  -6  -1   2   96.44    5.53
   6  -1  -2   84.43    5.65
  -6  -1   2   86.97    6.21
  -6   1   1   86.88    5.45
   6   1  -1   96.85    5.74
  -6   1   1   96.96    5.48
  -6  -1   1   77.21    5.39
  -6  -1   1   79.93    5.35
  -6  -1   1   87.49    5.94
   6   1   0   44.08    2.86
  -6   1   0   39.66    2.77
   6   1   0   35.65    2.49
  -6  -1   0   31.67    2.67
  -6   1  -1    1.19    0.78
  -6   1  -1   -0.19    1.22
   6   1   1    0.39    0.72
  -6   1  -1    1.37    1.04
   6   1   1    1.39    0.58
  -6  -1  -1    0.83    1.27
  -6  -1  -1    0.44    0.93
   6  -1   1    0.49    0.83
   6  -1   1    1.67    2.02
   6   1   2   48.67    3.37
   6   1   2   54.09    3.53
   6  -1   2   55.55    3.58
  -6  -1  -2   45.26    3.76
  -6  -1  -2   52.89    3.95
  -6   1  -3   13.71    2.08
   6   1   3   10.94    1.61
   6   1   3   12.56    1.39
   6  -1   3   18.11    1.87
   6  -1   3   11.44    1.53
  -6  -1  -3   14.73    1.88
   6   1   4   16.27    1.01
  -6   1  -4   17.19    2.42
   6   1   4   19.23    1.75
   6  -1   4   14.81    1.83
  -6  -1  -4   13.43    1.85
   6  -1   4   14.62    1.81
  -6   1  -5   42.34    3.43
   6   1   5   39.09    2.38
   6   1   5   35.23    3.17
   6   1   5   42.75    3.09
   6  -1   5   42.22    3.22
  -6  -1  -5   35.39    3.48
  -6   1  -6    6.80    1.59
   6   1   6    6.01    0.51
   6  -1   6    5.21    1.63
   6   1   7   80.49    4.93
   6   1   7   85.77    5.81
   6  -1   7   82.69    5.88
   6   1   8   16.18    2.59
   6   1   8   13.06    1.00
   6  -1   8   19.42    2.86
  -6   2  10   14.45    3.14
   6   2 -10   14.66    2.17
   6  -2 -10   12.52    2.44
  -6   2   9    2.60    1.98
   6   2  -9    1.37    1.61
   6  -2  -9    3.65    2.02
  -6  -2   9    1.54    0.39
   6   2  -8   11.71    2.07
  -6   2   8   16.28    2.56
   6  -2  -8   14.33    2.37
  -6  -2   8   13.26    1.90
   6   2  -7   19.45    2.96
  -6   2   7   15.25    2.12
  -6  -2   7   14.63    1.99
   6  -2  -7   15.86    2.28
  -6   2   6   72.86    4.77
   6   2  -6   74.23    5.64
   6   2  -6   68.99    4.37
  -6  -2   6   74.23    4.60
   6  -2  -6   72.10    5.27
  -6   2   5   88.09    5.42
   6   2  -5   87.70    6.40
   6   2  -5   92.81    5.10
   6  -2  -5   80.15    5.34
   6  -2  -5   84.94    5.98
  -6  -2   5   81.50    5.14
  -6   2   4   10.27    1.38
  -6   2   4    9.65    1.13
   6   2  -4    6.88    1.72
  -6   2   4    8.85    0.59
   6  -2  -4    7.21    1.04
   6  -2  -4    8.28    1.69
  -6   2   3    6.13    0.91
  -6   2   3    4.17    0.95
   6   2  -3    5.88    1.25
  -6  -2   3    1.75    1.14
   6  -2  -3    3.29    0.70
   6   2  -2  345.15   22.10
  -6   2   2  401.84   21.97
  -6   2   2  352.67   22.04
  -6  -2   2  397.28   21.71
   6  -2  -2  356.93   21.92
  -6  -2   2  348.64   22.17
   6  -2  -2  396.35   22.34
  -6  -2   2  355.23   21.70
   6   2  -1   13.75    1.65
   6   2  -1   14.43    1.10
  -6   2   1   14.11    1.62
  -6   2   1   15.68    1.39
  -6  -2   1   14.56    2.02
   6  -2  -1   13.95    1.86
  -6  -2   1   12.96    1.11
   6   2   0   84.70    5.15
  -6   2   0   76.91    5.15
  -6   2   0   83.46    5.21
   6   2   0   76.40    4.90
  -6   2   0   74.20    5.15
   6  -2   0   86.77    5.49
  -6  -2   0   83.71    5.44
  -6  -2   0   77.24    4.99
   6   2   1   15.22    1.30
  -6   2  -1   14.64    1.75
  -6   2  -1   19.73    1.97
   6   2   1   18.00    1.65
  -6  -2  -1   12.40    1.99
  -6  -2  -1   14.31    1.53
  -6   2  -2   16.75    1.99
   6   2   2   17.81    1.38
  -6   2  -2   12.66    0.90
   6   2   3    2.26    0.86
  -6   2  -3    3.59    1.73
   6   2   3    2.77    0.82
   6  -2   3    2.96    1.11
   6  -2   3    4.55    1.19
  -6  -2  -3    4.28    1.48
   6   2   4   70.08    4.48
  -6   2  -4   64.22    5.02
   6   2   4   68.30    4.48
   6   2   4   65.79    3.96
   6  -2   4   75.14    4.76
  -6  -2  -4   64.10    4.83
   6  -2   4   59.78    4.26
   6   2   5   72.95    4.55
   6   2   5   79.50    5.25
  -6   2  -5   74.20    5.33
   6   2   5   76.88    5.17
   6  -2   5   81.88    5.38
  -6  -2  -5   75.99    5.54
  -6   2  -6    3.40    1.44
   6   2   6    3.17    1.27
   6   2   6    3.52    0.36
   6   2   7    4.18    1.48
   6   2   7    2.84    0.37
   6  -2   7    5.07    1.71
   6   2   8   74.59    5.25
   6   2   8   62.41    4.18
   6  -2   8   76.83    5.70
   6   3 -10   22.71    3.06
  -6   3  10   38.89    4.66
   6  -3 -10   26.53    3.50
  -6  -3  10   30.95    1.87
   6   3  -9    0.04    1.44
  -6   3   9    0.60    2.09
  -6  -3   9    0.57    0.39
   6  -3  -9   -1.65    2.04
  -6   3   8    4.79    1.79
   6   3  -8    3.25    1.70
   6  -3  -8    4.83    2.00
   6   3  -7    6.76    1.13
   6  -3  -7    8.92    1.94
   6   3  -6   13.68    1.02
  -6   3   6   17.33    1.80
   6   3  -6   17.44    2.62
   6   3  -6   14.50    0.99
   6  -3  -6   13.65    2.14
  -6   3   5   28.30    2.17
   6   3  -5   21.57    3.33
   6  -3  -5   24.81    2.96
   6   3  -4   14.21    1.93
  -6   3   4   14.32    1.50
   6  -3  -4   12.66    1.88
   6   3  -3   39.94    3.11
  -6   3   3   36.90    2.95
  -6   3   3   45.75    2.84
   6  -3  -3   37.42    3.73
   6  -3  -3   37.29    2.71
  -6   3   2   11.71    1.32
   6   3  -2    9.72    1.46
  -6   3   2   11.39    1.36
   6  -3  -2   10.17    1.67
   6  -3  -2    8.74    1.13
  -6  -3   2   10.08    0.66
   6   3  -1  274.26   16.20
  -6   3   1  290.61   16.49
   6   3  -1  297.39   16.47
  -6  -3   1  276.08   16.53
   6  -3  -1  225.48   16.40
  -6  -3   1  271.60   16.21
   6  -3  -1  284.59   16.63
  -6   3   0  202.13   12.88
   6   3   0  218.55   12.68
  -6   3   0  221.72   12.98
   6   3   0  216.17   12.86
  -6  -3   0  212.33   13.01
  -6  -3   0  207.25   12.73
  -6   3  -1   11.95    1.63
   6   3   1   12.95    1.10
   6   3   1   12.31    1.45
  -6   3  -1   11.05    1.59
  -6  -3  -1   10.85    1.53
   6  -3   1   11.75    1.75
  -6  -3  -1   10.66    1.32
   6   3   2    6.64    1.03
   6   3   2    7.82    1.11
  -6   3  -2    9.27    1.42
  -6   3  -2    6.05    1.49
   6  -3   2    9.15    1.16
  -6  -3  -2    8.80    1.66
   6   3   3   15.03    0.94
  -6   3  -3   16.15    2.40
   6   3   3   14.60    1.50
  -6   3  -3   21.19    2.28
   6   3   3   14.28    1.72
  -6  -3  -3   13.39    1.89
   6  -3   3   14.39    1.55
  -6   3  -4    6.87    1.95
   6   3   4    5.46    1.24
   6   3   4    7.07    1.17
   6   3   4    7.39    0.51
  -6  -3  -4    7.65    1.76
   6   3   5   22.44    1.44
   6   3   5   23.22    2.23
  -6   3  -5   30.84    3.80
   6   3   5   19.29    2.46
  -6   3  -5   24.55    3.03
   6  -3   5   27.18    3.06
  -6   3  -6    3.76    1.50
  -6   3  -6    7.84    2.57
   6   3   6    3.51    1.31
   6   3   6    4.03    0.40
   6  -3   6    5.75    1.84
   6   3   7   19.75    2.66
  -6   3  -7   19.83    3.59
   6   3   7   19.87    1.31
   6  -3   7   24.19    3.25
   6   3   8    1.79    1.60
  -6   3  -8   10.35    3.48
   6  -3   8    1.68    2.23
   6   4 -10    3.77    1.61
   6  -4 -10    7.33    2.81
   6   4  -9   27.05    3.26
   6  -4  -9   33.35    4.45
   6   4  -8   21.03    3.16
   6  -4  -8   19.50    2.84
  -6   4   7   34.42    3.16
   6   4  -7   28.86    3.95
   6  -4  -7   35.58    3.87
   6   4  -6    3.64    2.14
  -6   4   6    3.69    1.21
   6  -4  -6    3.09    1.71
   6   4  -5    2.67    1.64
  -6   4   5    1.36    1.02
   6  -4  -5   -3.28    1.29
   6   4  -4   90.91    6.33
  -6   4   4   91.38    6.25
  -6   4   4  103.88    6.13
   6  -4  -4   93.89    6.44
  -6   4   3   73.17    5.15
   6   4  -3   80.41    5.21
  -6   4   3   79.87    5.07
   6  -4  -3   79.08    5.44
  -6   4   2   25.79    2.38
   6   4  -2   30.09    2.36
   6   4  -2   27.90    1.75
  -6   4   2   28.56    2.32
  -6  -4   2   29.45    1.81
   6  -4  -2   26.02    2.65
   6   4  -1  103.50    6.14
  -6   4   1  113.68    6.54
  -6   4   1   96.74    6.44
   6   4  -1  105.61    6.41
   6  -4  -1  100.05    6.62
  -6  -4   1   88.36    6.47
  -6  -4   1  106.54    6.20
   6   4   0   25.66    1.98
  -6   4   0   27.11    2.26
   6   4   0   28.71    2.20
  -6   4   0   32.36    2.49
  -6  -4   0   24.54    2.54
   6  -4   0   25.95    2.43
  -6  -4   0   27.30    2.05
   6   4   1   93.05    5.34
  -6   4  -1   91.02    5.77
  -6   4  -1   84.68    5.52
  -6  -4  -1   77.98    5.45
  -6  -4  -1   82.49    5.74
  -6   4  -2   38.19    3.02
  -6   4  -2   36.53    3.30
   6   4   2   42.40    2.94
   6   4   2   39.44    2.70
  -6  -4  -2   34.77    3.35
   6  -4   2   41.14    2.81
   6   4   3   91.65    6.12
   6   4   3   98.76    5.76
  -6   4  -3  102.94    6.47
   6   4   3   99.42    6.24
  -6   4  -3   98.25    6.85
  -6  -4  -3   94.62    6.58
   6   4   4    3.68    0.33
  -6   4  -4    5.84    1.81
   6   4   4    3.52    1.01
   6   4   4    2.80    1.13
  -6   4  -4    3.55    1.99
  -6  -4  -4    3.63    1.70
   6   4   5    0.28    1.01
   6   4   5    0.89    0.23
  -6   4  -5   -0.13    1.69
  -6   4  -5    4.39    2.34
   6   4   6   43.78    3.38
  -6   4  -6   38.47    3.45
  -6   4  -7   32.66    4.97
   6   4   7   18.71    2.56
   6   4   8    9.47    1.91
   6   4   8    6.89    0.71
  -6   4  -8   18.75    4.20
   6   5  -9   49.13    4.47
  -6   5   9   65.01    5.37
   6  -5  -9   62.80    6.01
   6   5  -8    6.66    2.06
  -6   5   8    8.51    2.05
   6  -5  -8    6.41    2.43
   6   5  -7    3.19    2.30
  -6   5   7    2.45    1.70
   6  -5  -7    3.83    2.05
  -6   5   6   32.87    3.06
   6  -5  -6   32.90    3.80
   6   5  -5   11.96    2.10
  -6   5   5   12.22    1.80
   6  -5  -5   10.48    2.06
  -6   5   4   45.71    3.40
   6   5  -4   44.83    3.57
   6  -5  -4   43.81    3.89
  -6   5   3  103.44    6.60
  -6   5   3  100.73    6.68
   6   5  -3  103.42    6.60
   6  -5  -3  104.12    6.91
   6   5  -2   10.15    0.86
  -6   5   2   11.95    1.56
   6   5  -2   10.81    1.51
  -6   5   2   10.79    1.50
  -6  -5   2   11.84    1.12
   6  -5  -2   12.07    1.71
   6   5  -1    5.85    0.98
  -6   5   1    5.06    1.08
  -6   5   1    5.32    1.17
   6   5  -1    4.94    0.74
  -6  -5   1    5.50    0.83
   6  -5  -1    4.82    1.24
   6   5   0   37.66    2.73
   6   5   0   36.65    2.43
  -6   5   0   36.00    2.80
  -6   5   0   38.79    2.95
  -6  -5   0   34.57    2.65
   6  -5   0   34.36    2.92
   6   5   1  184.59   10.75
  -6   5  -1  184.51   11.04
   6   5   1  175.69   10.59
  -6   5  -1  168.95   10.74
  -6  -5  -1  162.69   10.92
   6  -5   1  178.01   10.72
   6   5   2   22.18    1.87
  -6   5  -2   22.07    2.22
  -6   5  -2   20.89    2.63
   6   5   2   20.79    2.02
   6  -5   2   21.25    1.97
  -6  -5  -2   24.13    2.61
   6   5   3    0.57    1.04
  -6   5  -3    1.39    1.47
   6   5   3    3.47    0.94
   6   5   3    2.78    0.27
  -6   5  -3    1.21    1.59
  -6  -5  -3    2.05    1.61
  -6   5  -4   24.90    2.95
   6   5   4   22.43    2.14
  -6   5  -4   20.98    3.42
   6   5   4   22.76    1.39
   6   5   4   22.08    2.53
   6   5   5   20.14    2.23
  -6   5  -5   21.83    3.23
  -6   5  -5   22.39    3.62
  -6   5  -6   14.36    3.63
   6   5   6   15.41    2.14
  -6   5  -6   12.14    1.80
  -6   5  -7   26.54    4.64
   6   5   7   27.31    2.84
   6  -5   7   24.25    1.86
  -6   5  -8    7.50    4.36
   6   5   8    4.52    0.51
   6   6  -9    3.69    1.64
  -6   6   9    2.89    2.50
   6   6  -8   24.92    3.92
   6  -6  -8   25.51    3.58
  -6   6   7   21.47    2.77
   6   6  -7   20.50    3.14
   6  -6  -7   17.52    2.93
   6   6  -6   30.14    3.91
   6  -6  -6   18.52    2.78
  -6   6   5  127.62    8.31
   6   6  -5  132.02    9.33
   6  -6  -5  127.50    8.68
  -6   6   4   13.95    1.96
   6   6  -4   12.48    1.74
   6  -6  -4   17.39    2.41
  -6   6   3   16.50    2.08
   6   6  -3   13.55    1.03
  -6   6   3   15.88    1.96
   6   6  -3   15.43    1.93
   6  -6  -3   11.35    2.05
   6   6  -2    1.05    0.47
  -6   6   2    0.40    1.23
   6   6  -2    2.89    1.02
  -6   6   2    1.87    1.07
   6  -6  -2    0.03    1.38
  -6  -6   2    1.70    0.87
   6   6  -1   21.87    1.63
  -6   6   1   23.12    2.28
   6   6  -1   21.91    2.07
  -6   6   1   21.83    2.34
   6  -6  -1   21.55    2.58
  -6  -6   1   22.60    2.03
   6   6   0   24.05    1.76
  -6   6   0   20.84    2.37
   6   6   0   24.42    2.10
  -6   6   0   20.59    2.21
  -6  -6   0   21.35    2.16
   6  -6   0   21.19    2.42
   6   6   1    5.25    0.89
   6   6   1    5.50    1.11
  -6   6  -1    3.92    1.49
  -6   6  -1    4.16    1.08
   6  -6   1    4.11    1.25
  -6   6  -2   67.10    4.73
  -6   6  -2   75.45    5.23
   6   6   2   67.62    4.51
   6   6   2   67.32    4.89
   6   6   3    3.02    1.30
   6   6   3    3.02    0.30
  -6   6  -3    2.83    1.82
  -6   6  -3    3.85    1.34
   6   6   3    2.51    0.97
   6   6   4   21.58    2.11
   6   6   4   19.76    1.27
  -6   6  -4   20.81    2.70
   6   6   4   19.92    2.72
   6   6   5  103.22    6.94
  -6   6  -5  103.57    8.19
  -6   6  -5  122.33    7.39
   6   6   5  100.74    6.31
   6   6   6   13.06    2.14
  -6   6  -6    7.94    3.62
  -6   6  -6   10.27    2.12
   6   6   7    9.53    0.81
   6   6   7   11.87    2.11
  -6   6  -7    5.51    3.90
   6   7  -8    5.62    2.37
  -6   7   8    3.41    2.18
  -6   7   7   75.42    5.65
   6   7  -7   75.11    6.67
   6  -7  -7   76.21    6.73
  -6   7   6    6.11    1.87
   6   7  -6    7.57    2.34
   6  -7  -6    8.17    2.72
  -6   7   5   23.89    2.88
   6   7  -5   26.09    3.20
   6  -7  -5   25.58    3.93
  -6   7   4   25.71    2.80
   6  -7  -4   24.34    3.62
   6   7  -3   10.67    1.05
   6   7  -3   13.31    1.91
  -6   7   3   12.07    1.79
   6  -7  -3   11.67    2.16
  -6   7   2   10.35    2.26
  -6   7   2   11.90    1.96
   6   7  -2   12.11    1.79
  -6  -7   2   11.13    1.61
   6  -7  -2   13.36    2.27
   6   7  -1   68.90    4.27
  -6   7   1   56.41    5.82
  -6   7   1   73.46    4.88
   6   7  -1   72.31    4.64
  -6  -7   1   61.94    4.63
   6   7   0    5.35    1.16
   6   7   0    5.11    0.91
  -6   7   0    4.94    1.44
  -6   7   0    5.13    1.48
   6  -7   0    6.20    2.16
  -6   7  -1    1.94    1.42
   6   7   1    2.10    1.11
   6   7   1    2.02    0.85
  -6   7  -1    0.72    1.09
   6   7   2   15.19    2.24
  -6   7  -2   12.87    2.32
  -6   7  -2   13.86    1.82
   6   7   2   15.40    1.68
   6   7   3  128.80    8.28
   6   7   3  128.44    8.07
  -6   7  -3  128.77    8.23
   6   7   4   13.18    2.06
   6   7   4   10.17    0.73
  -6   7  -4    9.29    1.83
  -6   7  -4   10.14    2.95
  -6   7  -5   13.22    2.17
  -6   7  -5   10.23    3.27
   6   7   5   14.14    2.27
   6   7   5   11.02    0.83
   6   7   6    6.27    0.54
   6   7   6    5.35    1.66
  -6   7  -6    1.97    1.70
  -6   7  -6    3.19    3.70
   6   8  -7   10.07    2.96
  -6   8   7    7.51    2.30
  -6   8   6   77.35    5.87
   6   8  -6   77.82    6.37
   6   8  -5    4.14    1.85
  -6   8   5    3.61    1.69
   6   8  -4    4.53    1.50
  -6   8   4    5.29    1.76
  -6   8   3   16.77    2.46
   6   8  -3   20.14    2.38
   6   8  -2    1.15    0.75
  -6   8   2    0.38    1.64
   6   8  -2   -0.57    0.99
   6   8  -1   15.27    2.12
   6   8  -1   15.22    1.58
  -6  -8   1   15.74    1.17
   6   8   0   22.88    2.46
   6   8   0   21.97    2.00
  -6  -8   0   22.58    1.53
   6   8   1   14.00    1.80
  -6   8  -1   13.43    2.24
   6   8   1   14.63    1.88
  -6  -8  -1   12.96    1.06
   6   8   2   38.46    2.97
   6   8   2   37.59    3.35
  -6   8  -2   35.26    3.76
   6   8   3   21.50    2.63
  -6   8  -3   23.35    3.30
   6   8   3   24.71    3.05
   6   8   4   60.01    4.44
  -6   8  -4   58.52    6.08
   6   8   5    1.65    0.36
   6   8   5    2.51    1.57
  -6   8  -5   -3.44    3.05
  -6   8  -6   -2.92    4.08
   6   8   6    1.53    1.69
   6   8   6    3.34    0.46
   6   9  -6    3.59    2.40
  -6   9   6   -1.13    1.98
   6   9  -5   15.40    2.51
  -6   9   5   16.12    2.50
   6   9  -4    5.00    1.66
  -6   9   4    3.02    1.86
   6   9  -3    3.33    1.54
  -6   9   3   -0.70    1.55
   6   9  -2   12.20    2.01
   6   9  -2   14.13    1.94
  -6   9   2   11.73    2.16
   6   9  -1    6.29    1.16
   6   9  -1    6.78    1.60
  -6   9   1    2.97    1.70
  -6  -9   1    4.98    0.67
   6   9   0   27.17    2.41
   6   9   0   25.15    3.52
  -6   9   0   21.75    3.21
  -6  -9   0   23.82    1.70
   6   9   1  104.28    6.90
  -6   9  -1  105.93    7.50
   6   9   1  113.66    7.28
  -6  -9  -1  108.45    6.48
   6   9   2   10.43    1.96
  -6   9  -2   10.78    2.49
   6   9   3   44.19    3.53
  -6   9  -3   36.46    4.78
   6   9   3   29.71    4.77
  -6   9  -4   -2.47    2.68
   6   9   4    4.06    1.73
   6   9   5   10.60    2.08
  -6  10   5    3.91    2.02
   6  10  -5    0.86    2.16
   6  10  -4   16.82    2.40
  -6  10   4   18.85    2.79
  -6  10   3   -1.10    1.72
   6  10  -3    0.20    1.61
   6  10  -2    9.10    1.94
  -6  10   2    7.22    2.09
  -6  10   1    1.71    1.75
   6  10  -1    1.90    1.58
  -6 -10   1    1.84    0.61
   6  10   0    5.97    1.87
  -6  10   0    5.54    2.13
   6  10   0    9.63    1.63
  -6 -10   0    9.08    0.90
   6  10   1    1.93    1.95
   6  10   1    0.78    1.44
  -6  10  -1   -3.47    1.81
  -6 -10  -1    1.52    0.62
   6  10   2   80.48    6.31
  -6  10  -2   91.68    6.61
   6  10   2   78.07    5.74
   6  10   3    5.02    1.87
  -6  10  -3   -3.04    2.59
  -6  11   3   -1.35    1.83
   6  11  -3   -1.12    1.81
   6  11  -2    5.92    1.78
  -6  11   2    4.66    2.24
  -6  11   1   -0.97    2.21
   6  11  -1    2.48    1.68
   6  11   0   33.55    4.06
  -6  11   0   33.38    4.28
  -6 -11   0   40.83    2.55
   6  11   1   31.84    3.50
   6  11   1   27.84    4.05
  -6  11  -1   24.57    4.09
   7   0 -10    4.67    2.29
   7   0  -9    0.42    1.97
  -7   0   8   41.58    3.56
   7   0  -8   39.39    4.23
  -7   0   8   39.08    2.45
   7   0  -7    4.31    2.09
  -7   0   7    2.69    1.15
   7   0  -6    5.87    0.85
   7   0  -6    7.47    2.07
   7   0  -5   -0.85    1.73
  -7   0   5   -0.56    0.61
   7   0  -5    0.09    0.50
   7   0  -4  531.21   28.83
  -7   0   4  455.41   27.92
   7   0  -4  438.57   27.91
  -7   0   3    0.03    0.43
   7   0  -3   -0.58    0.50
   7   0  -3   -0.34    1.69
  -7   0   3    1.67    1.26
   7   0  -2   38.12    3.74
  -7   0   2   39.65    2.66
  -7   0   2   39.23    2.62
  -7   0   2   40.27    3.54
  -7   0   1    1.42    0.78
  -7   0   1    0.31    1.52
  -7   0   1    1.00    0.69
   7   0  -1    1.16    1.41
  -7   0   0   46.95    2.99
  -7   0   0   35.42    3.04
  -7   0  -1    0.38    1.73
   7   0   1   -0.59    0.60
  -7   0  -1   -1.56    1.08
   7   0   1   -0.24    1.04
   7   0   2   41.73    3.40
   7   0   2   41.22    3.00
  -7   0  -2   47.93    4.17
   7   0   3   -1.39    0.69
   7   0   3   -0.05    1.24
  -7   0  -3   -0.05    1.70
   7   0   4    6.29    1.30
  -7   0  -4    5.64    1.65
   7   0   4    6.27    1.58
   7   0   5   -1.55    1.01
  -7   0  -5   -0.69    1.69
   7   0   5   -0.29    1.65
   7   0   6  171.74   10.84
   7   0   7   -0.14    1.32
   7   0   8    1.23    1.59
   7   1 -10    9.66    2.38
   7  -1 -10   15.43    2.81
   7   1  -9    3.85    1.99
  -7   1   9    3.77    2.06
  -7  -1   9    1.87    0.39
   7  -1  -9   -1.50    1.81
   7   1  -8    5.87    2.02
  -7   1   8    3.45    1.62
  -7  -1   8    3.56    0.46
  -7  -1   8    5.00    1.57
   7   1  -7   15.29    2.65
  -7   1   7   12.36    0.89
  -7   1   7   12.27    2.02
   7  -1  -7   13.35    2.60
  -7   1   6    2.12    0.94
   7   1  -6    1.30    0.57
  -7   1   6    1.11    0.28
   7   1  -6   -0.81    1.89
  -7  -1   6    1.36    0.82
   7  -1  -6    1.10    1.93
   7  -1  -6    1.83    0.81
  -7   1   5  125.71    7.55
   7   1  -5  130.66    8.65
   7   1  -5  118.34    7.35
   7  -1  -5  115.26    7.47
   7  -1  -5  129.69    8.46
  -7  -1   5  124.26    7.42
   7   1  -4   17.69    1.38
   7   1  -4   21.03    3.22
  -7  -1   4   22.19    1.36
   7  -1  -4   24.23    3.27
   7  -1  -4   19.00    1.56
  -7   1   3  167.46   10.13
  -7   1   3  161.27   10.46
   7   1  -3  184.50   10.89
  -7  -1   3  168.18   10.06
   7  -1  -3  181.86   10.98
   7  -1  -3  151.48   10.11
  -7  -1   3  176.58   10.79
  -7  -1   3  162.91    9.96
  -7   1   2  167.39   10.62
  -7   1   2  167.48   10.32
   7   1  -2  175.54   10.76
  -7  -1   2  164.01   10.27
   7  -1  -2  176.33   11.05
  -7  -1   2  168.53   10.20
  -7  -1   2  180.41   10.96
   7   1  -1   24.15    2.43
  -7   1   1   19.22    2.01
  -7   1   1   24.20    1.89
  -7  -1   1   20.63    1.73
  -7  -1   1   25.15    3.18
  -7  -1   1   20.16    1.87
  -7   1   0  119.46    7.12
  -7   1   0   99.53    7.13
   7   1   0  120.52    7.22
   7   1   1   -0.01    0.57
  -7   1  -1    2.21    1.70
   7   1   1    1.04    0.91
  -7   1  -1    1.46    0.92
  -7  -1  -1    2.64    1.72
  -7  -1  -1    0.27    1.18
   7   1   2   13.11    1.88
   7   1   2   13.29    1.43
  -7  -1  -2   16.36    2.49
   7  -1   2   16.83    1.71
   7   1   3   44.38    3.16
  -7   1  -3   41.92    4.27
   7   1   3   43.98    3.38
   7  -1   3   48.91    3.77
  -7  -1  -3   43.09    4.02
   7  -1   3   44.30    3.28
   7   1   4    4.51    1.09
  -7   1  -4    2.95    1.96
   7  -1   4    3.12    1.14
   7  -1   4    1.42    1.52
  -7  -1  -4    3.45    1.78
  -7   1  -5  103.01    7.20
   7   1   5  106.23    6.80
   7  -1   5  103.41    6.81
  -7  -1  -5  101.23    7.28
   7   1   6    4.43    1.40
   7  -1   6    4.44    1.49
   7   1   7   36.27    3.36
   7  -1   7   35.62    3.42
   7   1   8   20.05    2.71
   7  -1   8   22.36    3.31
   7   2 -10    1.94    1.95
   7  -2 -10    5.00    2.71
   7   2  -9    3.39    2.01
  -7   2   9    5.68    2.16
  -7  -2   9    4.35    0.54
   7  -2  -9    3.94    2.48
  -7   2   8    8.21    1.82
   7   2  -8    6.51    2.17
   7  -2  -8    4.99    2.07
   7   2  -7   -0.24    2.34
  -7   2   7    2.25    1.27
  -7  -2   7    0.51    0.81
   7  -2  -7   -0.55    1.80
  -7   2   6  207.86   12.51
   7   2  -6  215.98   13.46
   7   2  -6  201.12   12.13
   7  -2  -6  199.81   13.07
   7   2  -5   27.88    3.92
  -7   2   5   30.16    2.33
  -7   2   5   29.40    1.82
   7  -2  -5   30.26    3.59
  -7   2   4   45.11    2.59
   7   2  -4   46.83    4.10
  -7   2   4   44.46    2.97
   7  -2  -4   37.70    2.90
   7  -2  -4   45.32    4.10
  -7   2   3   55.25    3.46
  -7   2   3   49.22    3.75
   7   2  -3   54.33    4.12
   7  -2  -3   56.06    4.49
   7  -2  -3   47.26    3.40
  -7   2   2   94.07    5.34
   7   2  -2   79.42    5.54
  -7   2   2   83.82    5.52
   7  -2  -2   83.76    6.05
  -7  -2   2   86.01    5.01
   7  -2  -2   75.08    5.28
  -7  -2   2   67.50    5.87
  -7  -2   2   92.37    5.05
  -7   2   1   31.16    2.40
  -7   2   1   34.48    2.47
   7   2  -1   33.96    2.20
  -7   2   1   31.08    2.63
  -7  -2   1   31.95    2.23
  -7  -2   1   27.54    3.32
   7  -2  -1   32.28    3.38
  -7   2   0    5.53    1.16
  -7   2   0   11.19    1.51
   7   2   0    9.00    1.30
  -7   2   0    9.18    1.38
   7   2   0    8.38    0.95
  -7  -2   0    6.41    1.03
  -7  -2   0    7.30    1.87
   7  -2   0    7.91    1.81
   7   2   1   35.13    2.74
   7   2   1   37.77    2.48
  -7  -2  -1   35.58    3.43
  -7  -2  -1   32.48    2.74
   7   2   2   11.61    1.74
  -7   2  -2   17.02    2.09
   7   2   2   13.80    1.37
  -7  -2  -2   11.49    2.08
   7  -2   2   19.08    2.57
  -7   2  -3    5.50    1.68
  -7   2  -3    8.43    2.19
   7   2   3    5.94    1.06
   7   2   3    6.13    1.25
   7  -2   3    6.02    1.50
   7  -2   3    7.93    1.46
  -7  -2  -3    5.31    1.77
   7   2   4  176.41   10.96
  -7   2  -4  172.15   11.52
   7   2   4  176.36   10.99
   7  -2   4  162.12   10.90
   7  -2   4  205.84   11.27
  -7  -2  -4  178.37   11.43
  -7   2  -5   11.57    2.26
   7   2   5   13.07    1.85
   7  -2   5   14.22    2.16
   7   2   6   14.93    2.07
   7   2   6   11.82    0.88
  -7   2  -6   11.86    2.32
   7  -2   6   16.15    2.41
   7   2   7   22.02    2.57
   7   2   7   17.67    1.28
   7  -2   7   23.47    2.92
   7   2   8   11.89    0.90
  -7   3  10   10.57    3.09
   7   3 -10    6.26    2.07
  -7  -3  10    9.83    0.79
   7  -3 -10    7.50    2.80
   7   3  -9    3.35    1.94
  -7   3   9    5.49    2.45
   7  -3  -9    2.52    2.57
  -7   3   8   31.71    3.34
   7   3  -8   30.92    4.06
   7  -3  -8   31.92    4.35
  -7   3   7   22.79    2.57
   7   3  -7   17.31    3.02
   7  -3  -7   17.20    2.61
   7   3  -6   21.93    3.32
  -7   3   6   22.20    2.19
   7  -3  -6   22.50    3.30
   7   3  -5  137.36    9.19
  -7   3   5  132.96    8.34
   7  -3  -5  132.68    8.92
  -7   3   4   30.54    2.35
   7   3  -4   32.59    3.21
   7  -3  -4   27.79    3.42
  -7   3   3    9.40    1.50
   7   3  -3    9.96    1.55
  -7   3   3   10.77    1.32
   7   3  -2    4.46    1.13
  -7   3   2    3.67    0.93
  -7   3   2    2.60    1.03
  -7  -3   2    3.86    0.59
   7  -3  -2    3.86    1.71
  -7  -3   2    3.04    0.44
  -7   3   1   82.65    5.72
   7   3  -1   91.20    5.74
   7   3  -1   89.07    5.37
  -7   3   1   93.47    5.73
  -7  -3   1   81.75    6.01
   7  -3  -1   89.52    6.15
  -7  -3   1   89.58    5.40
  -7   3   0   67.12    4.64
  -7   3   0   70.49    4.65
  -7  -3   0   65.78    4.40
  -7  -3   0   71.22    5.01
  -7   3  -1   30.33    2.64
   7   3   1   29.53    2.06
   7   3   1   30.06    2.45
  -7   3  -1   26.47    2.65
  -7  -3  -1   30.38    3.25
  -7  -3  -1   23.49    2.43
   7  -3   1   29.43    2.82
   7   3   2   64.22    4.32
   7   3   2   60.54    4.08
  -7   3  -2   68.89    4.68
  -7   3  -2   64.21    4.68
  -7  -3  -2   62.49    4.93
   7  -3   2   59.31    4.44
   7   3   3   71.55    4.67
  -7   3  -3   74.86    5.38
   7   3   3   74.22    4.84
  -7  -3  -3   67.88    5.52
   7  -3   3   68.56    4.75
  -7   3  -4   14.60    2.55
   7   3   4   11.43    1.82
  -7   3  -4   11.48    2.30
   7   3   4    9.95    1.59
  -7  -3  -4    9.95    2.26
   7   3   5   78.06    5.20
   7   3   5   75.60    4.56
  -7   3  -5   84.10    6.79
  -7   3  -5   70.94    6.01
  -7   3  -6   11.37    2.25
  -7   3  -6   17.15    3.21
   7   3   6   12.63    0.92
   7   3   6   14.68    2.09
   7  -3   6   17.41    2.78
  -7   3  -7   12.23    3.24
   7   3   7    4.06    0.48
   7   3   7    5.23    1.62
   7  -3   7    5.95    2.17
   7   3   8    0.00    0.32
  -7   3  -8    9.82    3.71
   7  -3   8    1.81    2.18
  -7   4   9   11.65    2.69
   7   4  -9    5.41    2.05
   7  -4  -9    5.75    2.69
   7   4  -8   28.13    4.19
   7  -4  -8   35.32    4.51
   7   4  -7  110.24    8.03
  -7   4   7  105.94    6.95
   7  -4  -7   98.52    7.69
  -7   4   6    5.52    1.36
   7   4  -6    3.75    2.29
   7  -4  -6    2.41    1.96
   7   4  -5   14.88    2.31
  -7   4   5   12.36    1.94
   7  -4  -5   15.85    2.48
   7   4  -4   80.63    5.70
  -7   4   4   84.40    5.37
   7  -4  -4   77.03    5.93
  -7   4   3    4.49    1.25
   7   4  -3    8.97    1.48
  -7   4   3    9.07    1.43
   7  -4  -3    5.45    1.82
  -7   4   2   15.13    2.04
   7   4  -2   16.24    2.00
   7   4  -2   17.78    1.18
  -7   4   2   16.60    1.82
   7  -4  -2   16.72    2.28
  -7  -4   2   17.75    1.22
   7   4  -1   32.33    2.11
   7   4  -1   35.72    2.66
  -7   4   1   26.12    2.85
  -7   4   1   33.43    2.66
  -7  -4   1   32.87    2.23
   7  -4  -1   29.65    3.15
  -7   4   0   14.11    1.90
  -7   4   0   15.39    1.96
   7   4   0   19.09    1.81
   7   4   0   16.03    1.34
  -7  -4   0   20.14    2.28
   7  -4   0   13.31    1.88
  -7  -4   0   15.66    1.66
   7   4   1    0.27    0.81
  -7   4  -1    0.16    1.07
  -7   4  -1    0.66    0.93
   7   4   1    0.66    0.62
  -7  -4  -1    1.55    1.61
   7   4   2   52.05    3.76
   7   4   2   52.62    3.57
  -7   4  -2   58.22    4.30
  -7   4  -2   57.80    4.07
   7  -4   2   51.93    3.84
  -7  -4  -2   49.27    4.58
  -7   4  -3  188.62   11.29
   7   4   3  169.95   10.58
  -7   4  -3  200.25   11.05
   7   4   3  161.98   10.65
  -7  -4  -3  164.01   11.18
   7  -4   3  158.28   10.63
   7   4   4    4.44    1.12
  -7   4  -4    4.45    2.21
   7   4   4    3.19    1.32
  -7   4  -4    5.90    2.17
   7   4   5   14.49    2.24
  -7   4  -5   14.87    2.74
  -7   4  -5   22.74    3.31
   7   4   5   16.66    1.07
   7   4   6   38.19    3.14
  -7   4  -6   29.91    3.79
   7   4   6   36.00    2.18
  -7   4  -7   12.18    3.60
   7   4   7    1.91    1.62
  -7   5   9   45.77    5.00
   7   5  -9   38.43    4.42
   7  -5  -9   41.01    4.96
  -7   5   8   11.75    2.41
   7   5  -8    7.24    2.55
   7  -5  -8    6.50    2.66
   7   5  -7    6.62    2.65
   7  -5  -7    9.75    2.72
   7   5  -6   28.86    4.19
  -7   5   6   26.75    2.73
   7  -5  -6   29.15    4.00
   7   5  -5    3.37    1.67
  -7   5   5    2.89    1.27
   7  -5  -5    0.57    1.95
   7   5  -4    2.97    1.49
  -7   5   4    5.60    1.34
   7  -5  -4    1.91    1.75
   7   5  -3  136.86    8.56
  -7   5   3  127.43    8.56
  -7   5   3  141.01    8.52
   7  -5  -3  133.10    8.84
  -7   5   2   74.81    5.49
  -7   5   2   86.87    5.49
   7   5  -2   83.96    5.42
   7   5  -2   79.39    4.91
   7  -5  -2   80.81    5.86
  -7  -5   2   84.00    5.00
  -7   5   1    7.87    1.42
   7   5  -1    6.03    0.88
   7   5  -1    8.26    1.25
   7  -5  -1    7.69    1.71
  -7  -5   1    8.19    1.22
  -7   5   0    7.48    1.37
   7   5   0    9.62    1.31
  -7   5   0    6.69    1.49
   7   5   0    7.68    1.04
  -7  -5   0    7.33    1.20
   7  -5   0    5.76    1.43
   7   5   1  127.14    7.90
  -7   5  -1  115.68    7.93
   7   5   1  125.13    7.68
  -7   5  -1  136.59    8.27
   7  -5   1  124.13    7.96
  -7   5  -2   23.99    2.60
  -7   5  -2   21.90    2.85
   7   5   2   24.58    2.44
   7   5   2   26.28    2.05
   7  -5   2   17.50    2.36
  -7  -5  -2   23.58    3.64
  -7   5  -3   11.29    1.87
  -7   5  -3    7.72    2.15
   7   5   3   10.31    1.49
   7   5   3    8.07    1.60
  -7  -5  -3    6.98    2.57
   7   5   4   17.07    2.57
   7   5   4   16.93    1.93
   7   5   5    5.41    0.49
   7   5   5    6.14    1.44
  -7   5  -5    7.50    2.31
  -7   5  -5    5.05    2.78
   7   5   6    2.25    0.37
  -7   5  -6    0.15    1.89
   7   5   6    4.82    1.47
  -7   5  -6    2.29    3.15
  -7   5  -7   33.95    5.15
   7   5   7   29.56    3.33
   7   5   7   30.37    1.89
  -7   5  -7   27.23    3.38
   7   6  -8   30.53    4.58
  -7   6   8   28.88    3.90
   7  -6  -8   21.10    3.77
   7   6  -7    1.63    2.71
  -7   6   7    1.37    1.80
   7  -6  -7    2.63    2.52
   7   6  -6    8.16    2.46
  -7   6   6    5.45    1.75
   7  -6  -6    2.17    2.35
  -7   6   5   51.87    4.08
   7   6  -5   52.47    4.51
   7  -6  -5   56.32    5.11
  -7   6   4    2.29    1.33
   7   6  -4    3.65    1.52
   7  -6  -4    4.85    2.18
  -7   6   3   87.97    5.70
  -7   6   3   77.32    5.76
   7   6  -3   86.09    5.61
   7  -6  -3   75.90    6.11
  -7   6   2   26.57    2.86
  -7   6   2   24.69    2.55
   7   6  -2   28.22    2.49
   7   6  -2   24.21    1.73
  -7  -6   2   24.72    2.11
   7  -6  -2   26.50    2.99
   7   6  -1   18.39    1.99
   7   6  -1   15.79    1.33
  -7   6   1   15.95    2.14
   7  -6  -1   10.65    2.12
  -7  -6   1   17.05    1.85
   7   6   0   57.76    3.61
  -7   6   0   57.10    4.24
   7   6   0   56.16    3.99
  -7   6   0   52.88    4.08
   7  -6   0   51.16    4.26
   7   6   1   61.51    4.21
  -7   6  -1   58.27    4.27
  -7   6  -1   60.96    4.56
   7   6   1   57.98    3.85
   7  -6   1   53.75    4.29
  -7   6  -2   33.96    3.29
   7   6   2   38.60    2.73
   7   6   2   35.98    3.09
  -7   6  -2   37.73    3.71
   7  -6   2   36.87    3.21
  -7   6  -3   -1.03    2.10
   7   6   3    0.28    1.04
  -7   6  -3   -1.07    1.50
   7   6   3    0.15    1.26
  -7   6  -4    2.98    1.81
  -7   6  -4   -0.69    2.46
  -7   6  -5   27.78    4.56
   7   6   5   24.38    1.57
  -7   6  -5   28.28    3.94
   7   6   5   24.24    2.59
   7   6   6    6.19    0.55
  -7   6  -6    1.77    3.32
   7   6   6    6.05    1.70
   7   6   7   26.81    1.80
   7   6   7   32.28    3.17
  -7   6  -7   23.63    4.89
  -7   7   8    4.93    2.59
   7   7  -8    8.36    2.92
   7  -7  -8    3.56    3.63
   7   7  -7   23.40    3.63
  -7   7   7   21.69    3.21
   7  -7  -7   17.49    4.00
   7   7  -6    8.09    2.43
  -7   7   6    4.72    1.86
   7  -7  -6    3.64    3.05
   7   7  -5    6.17    1.96
  -7   7   5    5.63    1.78
   7  -7  -5    6.28    2.66
   7   7  -4    2.15    1.43
   7  -7  -4   -1.14    2.30
  -7   7   3    8.60    1.76
   7   7  -3    8.93    1.55
   7  -7  -3    3.75    2.22
  -7   7   2   57.12    4.11
   7   7  -2   56.16    3.90
   7   7  -2   46.27    3.57
   7  -7  -2   48.19    4.67
   7   7  -1  172.55   10.34
   7   7  -1  168.68   10.67
  -7   7   1  174.57   10.91
   7   7   0    0.38    0.80
   7   7   0    0.55    1.11
  -7   7   0   -0.38    1.40
   7   7   1   17.61    2.33
   7   7   1   17.33    1.80
  -7   7  -1   16.52    2.72
  -7   7  -2    2.15    2.11
   7   7   2    3.16    1.42
   7   7   2    3.21    1.06
   7   7   3   27.82    2.41
   7   7   3   24.96    2.99
  -7   7  -3   23.52    3.77
   7   7   4    9.12    1.64
  -7   7  -4    6.62    2.99
  -7   7  -5    1.31    2.99
   7   7   5    2.55    1.53
   7   7   6    0.16    0.37
  -7   7  -6    0.02    3.77
   7   7   6    0.99    1.68
  -7   8   7   25.16    3.67
   7   8  -6   20.98    3.14
  -7   8   6   19.29    3.11
  -7   8   5    9.88    2.21
   7   8  -5   10.44    2.34
   7   8  -4    8.91    1.89
  -7   8   4    8.86    1.92
  -7   8   3   -0.13    1.48
   7   8  -3    0.64    1.22
  -7   8   2   22.41    2.83
   7   8  -2   23.10    1.85
   7   8  -1    4.43    0.96
   7   8  -1    4.91    1.40
  -7   8   1    4.21    1.64
  -7   8   0   95.89    6.56
   7   8   0   90.57    6.24
   7   8   0   91.62    5.86
   7   8   1    2.26    1.09
   7   8   1    2.65    1.57
  -7   8  -1   -1.29    1.72
  -7   8  -2    8.20    2.42
   7   8   2   11.68    1.59
   7   8   2    9.23    1.80
  -7   8  -3   28.84    4.34
   7   8   3   38.84    3.17
  -7   8  -4   10.10    3.37
   7   8   4   15.65    2.51
  -7   8  -5    4.51    3.82
   7   8   5   10.17    2.04
  -7   9   6    1.59    2.05
   7   9  -6    8.40    2.69
  -7   9   5   -0.39    2.02
   7   9  -5    1.97    2.03
  -7   9   4    4.83    1.99
   7   9  -4    6.74    1.95
   7   9  -3    9.53    1.82
  -7   9   3   10.80    2.19
  -7   9   2   12.47    2.38
   7   9  -2   17.16    2.60
   7   9  -1   19.49    2.18
   7   9  -1   19.03    2.70
  -7   9   1   19.71    2.91
   7   9   0   11.44    2.04
  -7   9   0   13.79    2.50
   7   9   1  111.37    7.46
  -7   9  -1  107.45    7.79
   7   9   1  110.86    7.06
   7   9   2    3.33    1.82
  -7   9  -2    0.06    2.20
   7   9   2    6.05    1.50
   7   9   3    2.82    1.48
  -7   9  -3    0.32    2.62
   7   9   4    2.31    1.69
   7  10  -5    1.01    2.75
  -7  10   5    1.81    2.42
  -7  10   4    4.28    2.24
   7  10  -4    1.93    2.04
  -7  10   3   -1.48    1.86
   7  10  -3    0.54    1.55
   7  10  -2    3.30    1.76
  -7  10   2   -1.42    1.87
  -7  10   1   -2.79    1.99
   7  10  -1   -0.94    1.67
   7  10   0   30.87    3.53
  -7  10   0   28.01    3.67
   7  10   1    2.38    1.55
  -7  10  -1   -1.73    2.14
   7  10   1    4.00    2.11
  -7  10  -2   62.35    6.09
   7  10   2   67.55    4.83
   7  10   2   55.46    6.96
   7  10   3    3.74    1.94
  -7  10  -3   -3.64    2.80
   7  11  -2    0.24    2.06
   7  11  -1   28.34    3.70
  -7  11   1   22.18    3.41
  -7  11   0   11.84    2.93
   7  11   0   18.33    2.92
   8   0 -10   -2.20    2.42
   8   0  -9    5.19    2.41
   8   0  -8  174.10   11.51
  -8   0   8  172.47   10.62
  -8   0   8  164.17   10.05
   8   0  -6   26.70    3.42
   8   0  -6   17.29    1.65
   8   0  -5    0.33    0.63
  -8   0   5   -0.33    0.66
   8   0  -5   -0.42    2.11
   8   0  -4   99.94    6.96
   8   0  -4  129.85    8.44
  -8   0   4  120.29    6.95
  -8   0   3    2.29    1.73
   8   0  -3   -1.97    2.10
  -8   0   3   -0.24    0.53
  -8   0   3   -0.02    0.56
  -8   0   2   22.95    2.63
  -8   0   2   15.77    1.56
  -8   0   2   13.12    1.48
   8   0  -1   -1.11    1.63
  -8   0   1    0.57    1.76
  -8   0   1    0.50    0.96
   8   0   0   67.02    5.21
  -8   0   0   77.65    5.81
   8   0   1    2.10    1.35
   8   0   1    0.60    0.78
  -8   0  -1   -1.33    2.04
  -8   0  -2  408.48   22.38
   8   0   2  336.63   21.67
   8   0   2  346.21   21.90
  -8   0  -3   -0.24    2.22
   8   0   3    1.07    1.42
   8   0   3   -0.16    0.82
   8   0   4   17.00    2.23
   8   0   4   13.28    1.85
  -8   0  -4   15.68    2.84
   8   0   6   38.32    3.46
   8   0   7    0.48    1.47
   8   0   8    5.72    1.89
   8   1 -10   12.75    2.91
   8  -1 -10   12.38    3.07
   8   1  -9   15.32    2.74
  -8  -1   9    9.70    0.88
   8  -1  -9    7.78    2.77
   8   1  -8    1.66    2.26
  -8   1   8    2.74    1.61
  -8   1   7   86.87    5.47
  -8   1   7   93.01    6.03
   8   1  -7  102.25    8.03
   8  -1  -7   89.70    7.22
  -8  -1   7   92.85    5.85
  -8   1   6   10.55    0.69
  -8   1   6   10.35    1.61
   8   1  -6   11.26    2.72
   8   1  -6    8.02    1.07
  -8  -1   6    8.80    1.30
   8  -1  -6    7.19    1.15
   8  -1  -6   10.56    3.45
  -8   1   5   54.46    3.47
   8   1  -5   51.46    5.28
   8  -1  -5   56.02    5.16
   8  -1  -5   44.95    3.40
  -8  -1   5   52.86    3.22
  -8   1   4   15.06    1.50
   8   1  -4   11.47    2.52
   8  -1  -4   14.26    1.45
  -8  -1   4   14.50    1.10
   8  -1  -4   21.51    3.17
  -8   1   3    8.98    1.64
   8   1  -3    5.73    1.84
  -8  -1   3    6.25    0.82
   8  -1  -3    3.84    0.90
   8  -1  -3    6.45    2.43
  -8  -1   3    4.37    0.58
  -8   1   2   95.50    6.50
   8   1  -2  101.41    6.68
  -8   1   2   96.20    6.07
  -8   1   2   85.30    6.02
  -8  -1   2  117.55    7.18
  -8  -1   2   99.12    6.06
   8  -1  -2  100.81    7.26
  -8  -1   2   90.55    5.94
  -8   1   1   16.44    2.51
  -8   1   1   13.62    1.65
  -8   1   1   10.06    1.53
   8   1  -1   17.21    2.48
  -8  -1   1   10.63    1.54
  -8  -1   1   13.74    1.76
   8  -1  -1   14.87    2.39
  -8  -1   1   15.03    2.70
   8   1   0   79.32    5.01
  -8   1   0   77.85    5.54
   8   1   1   94.62    6.14
   8   1   1   82.75    5.79
  -8  -1  -1  104.99    6.99
  -8   1  -2    0.36    2.11
   8   1   2    0.70    0.77
   8   1   2    1.32    1.25
  -8  -1  -2   -1.18    2.18
   8  -1   2    0.86    1.06
   8  -1   2   -0.40    1.48
   8   1   3  141.15    9.53
  -8   1  -3  172.20   10.61
   8   1   3  145.54    9.68
   8  -1   3  153.86    9.67
   8  -1   3  171.66   10.00
  -8  -1  -3  148.54   10.37
  -8   1  -4    1.50    2.35
   8   1   4    3.90    1.17
   8   1   4    7.78    2.56
   8  -1   4    3.18    1.18
  -8  -1  -4    6.15    2.54
   8  -1   4    1.10    1.81
   8   1   6    3.69    1.46
   8  -1   6    5.55    1.56
   8   1   7    2.41    1.61
   8  -1   7    2.92    1.61
   8   1   8    9.96    2.12
   8  -1   8   11.61    2.19
   8   2 -10   12.34    2.85
  -8  -2  10   18.80    1.30
   8  -2 -10   25.25    3.79
   8   2  -9   22.40    3.30
  -8   2   9   25.05    3.85
  -8  -2   9   23.10    1.57
   8  -2  -9   27.12    3.86
  -8   2   8    3.76    1.76
   8   2  -8    7.67    2.76
   8  -2  -8    1.24    2.31
   8   2  -7    2.75    2.60
  -8   2   6  232.59   14.41
   8   2  -6  251.93   15.58
   8  -2  -6  231.30   15.22
  -8   2   5    1.07    0.88
   8   2  -5    0.76    2.28
   8  -2  -5    0.58    2.18
  -8   2   4    2.81    0.90
   8   2  -4    1.61    1.78
   8  -2  -4    2.39    0.89
   8  -2  -4    4.27    2.08
  -8   2   3   31.88    2.91
   8   2  -3   33.95    3.28
  -8   2   3   31.76    2.38
   8  -2  -3   33.67    4.00
   8  -2  -3   27.56    2.40
   8   2  -2    0.90    1.23
  -8   2   2    0.85    1.08
  -8   2   2    0.49    0.74
  -8  -2   2    0.03    0.51
   8  -2  -2    0.48    2.04
  -8  -2   2    0.30    0.52
  -8  -2   2    0.54    2.09
   8  -2  -2    0.64    0.84
  -8   2   1    8.80    1.55
   8   2  -1    9.26    1.42
  -8   2   1    7.62    1.28
   8   2  -1    7.20    1.13
  -8  -2   1    6.97    2.28
  -8  -2   1    6.49    1.07
   8  -2  -1    7.01    2.10
  -8   2   0   34.33    2.70
   8   2   0   31.69    2.30
   8   2   0   33.09    2.87
  -8  -2   0   26.78    2.65
  -8  -2   0   35.57    4.08
   8  -2   0   40.21    3.78
   8   2   1   94.88    6.30
   8   2   1   96.18    6.04
  -8  -2  -1  100.25    7.25
   8   2   2    7.46    1.19
  -8   2  -2    9.32    1.76
  -8   2  -2   11.27    2.19
   8   2   2    4.45    1.25
  -8  -2  -2    7.27    2.31
   8  -2   2    7.58    2.25
   8   2   3   16.22    1.68
  -8   2  -3   19.42    2.63
  -8   2  -3   16.00    2.67
   8   2   3   11.37    1.67
   8  -2   3    9.35    2.09
  -8  -2  -3   14.62    4.08
   8   2   4  190.90   12.21
  -8   2  -4  206.62   13.03
   8   2   4  210.09   12.15
  -8   2  -4  186.73   12.60
   8  -2   4  207.69   12.36
   8  -2   4  182.95   12.23
   8   2   5    1.72    1.90
   8  -2   5   -0.58    1.31
   8   2   6    3.13    1.40
   8  -2   6    4.36    1.74
   8   2   7   10.49    2.05
   8  -2   7   11.94    2.28
  -8   3   9    5.46    3.13
   8   3  -9    2.90    2.37
   8  -3  -9    2.13    2.84
  -8   3   8   21.08    2.97
   8   3  -8   15.34    3.05
   8  -3  -8   10.94    2.92
   8   3  -7   35.50    5.47
  -8   3   7   45.16    3.56
   8  -3  -7   36.03    4.69
   8   3  -6    2.11    2.51
  -8   3   6    0.71    1.15
   8  -3  -6    2.73    2.11
   8   3  -5  124.23    8.21
  -8   3   5  107.23    7.15
   8  -3  -5  109.94    8.14
   8   3  -4  120.05    7.98
  -8   3   4  116.60    7.40
   8  -3  -4  115.50    8.23
   8   3  -3   19.78    2.17
  -8   3   3   13.11    2.04
  -8   3   3   14.61    1.77
   8  -3  -3   13.66    2.54
  -8   3   2    8.63    1.32
  -8   3   2   10.09    1.63
   8   3  -2    8.38    1.45
   8  -3  -2    6.76    2.23
  -8  -3   2   11.22    1.00
   8   3  -1   41.65    2.60
  -8   3   1   40.18    3.05
   8   3  -1   38.90    3.11
  -8   3   1   40.01    3.25
  -8  -3   1   40.28    2.70
   8  -3  -1   37.24    3.98
  -8  -3   1   27.17    4.05
  -8   3   0    0.35    1.23
   8   3   0   -0.19    0.50
  -8   3   0   -0.39    1.12
   8   3   0    0.53    0.97
  -8  -3   0   -0.12    1.88
  -8  -3   0   -0.64    0.96
   8   3   1   16.29    2.23
  -8   3  -1   20.08    2.34
   8   3   1   17.52    1.59
  -8   3  -1   18.59    2.54
  -8  -3  -1   20.08    2.91
   8  -3   1   19.98    2.49
   8   3   2   43.04    3.04
  -8   3  -2   46.96    3.82
   8   3   2   41.53    3.43
   8  -3   2   41.84    3.84
  -8  -3  -2   47.16    4.75
  -8   3  -3   97.58    6.45
   8   3   3   82.59    5.87
   8   3   3   90.99    5.69
  -8  -3  -3   84.36    6.96
   8  -3   3   81.72    5.92
  -8   3  -4    4.67    2.00
   8   3   4   -0.64    1.94
  -8   3  -4    1.39    2.38
   8   3   4    1.53    1.04
  -8   3  -5   45.38    5.37
   8   3   5   43.09    3.57
  -8   3  -5   49.07    4.69
   8   3   6   36.78    3.24
  -8   3  -6   38.01    4.78
   8   3   7    7.05    1.74
  -8   3  -7    7.35    3.35
  -8   4   9    2.11    2.64
   8   4  -9    3.75    2.43
   8  -4  -9    2.73    3.02
   8   4  -8   34.49    5.24
   8  -4  -8   40.90    5.30
  -8   4   7   51.70    4.16
   8   4  -7   53.62    5.72
   8  -4  -7   40.11    5.30
  -8   4   6    8.24    1.58
   8   4  -6    9.78    3.87
   8  -4  -6    6.18    2.45
   8   4  -5  113.75    7.63
  -8   4   5  107.90    6.88
   8  -4  -5   93.24    7.61
   8   4  -4   44.00    4.09
  -8   4   4   50.00    3.66
   8  -4  -4   50.71    4.70
  -8   4   3   11.26    1.85
   8   4  -3   13.37    1.91
  -8   4   3   10.47    1.79
  -8   4   2   18.88    2.15
   8   4  -2   18.15    2.21
  -8   4   2   14.32    2.30
   8  -4  -2   16.48    2.49
   8   4  -1   47.12    2.95
  -8   4   1   42.28    3.55
  -8   4   1   45.87    3.51
   8   4  -1   48.79    3.55
   8  -4  -1   43.92    4.22
  -8  -4   1   45.35    3.08
  -8   4   0    5.31    1.44
  -8   4   0    5.34    1.30
   8   4   0    6.38    0.85
   8   4   0    6.49    1.37
  -8  -4   0    4.34    2.47
   8  -4   0    6.04    1.81
  -8  -4   0    6.16    1.22
   8   4   1    4.39    1.17
  -8   4  -1    3.43    1.35
  -8   4  -1    6.20    1.54
   8   4   1    5.64    0.93
  -8  -4  -1    6.87    2.52
  -8   4  -2   60.07    4.55
   8   4   2   57.53    4.25
  -8   4  -2   60.49    4.65
   8   4   2   58.46    3.86
  -8  -4  -2   53.81    5.45
   8  -4   2   54.80    4.38
  -8   4  -3   49.41    4.32
   8   4   3   38.30    3.04
  -8   4  -3   45.48    4.19
   8   4   3   39.06    3.54
  -8   4  -4   13.70    2.77
   8   4   4    8.11    1.44
   8   4   5   80.01    5.88
  -8   4  -5  102.38    7.48
   8   4   6   19.18    2.50
  -8   4  -6   29.56    4.78
   8   4   7   -1.51    1.42
   8   5  -9   32.84    4.40
  -8   5   9   31.16    4.79
   8  -5  -9   17.64    4.17
   8   5  -8    4.41    2.98
  -8   5   8    6.44    2.32
   8  -5  -8    6.18    3.17
   8   5  -7   17.06    3.49
  -8   5   7   13.24    2.75
   8  -5  -7   15.69    3.23
   8   5  -6    6.93    2.52
  -8   5   6    3.55    1.53
   8  -5  -6   -0.02    2.46
   8   5  -5    1.97    1.91
  -8   5   5    0.85    1.28
   8  -5  -5   -2.90    2.06
   8   5  -4   35.65    3.48
  -8   5   4   37.46    3.14
   8  -5  -4   38.17    4.38
  -8   5   3  131.45    8.07
   8   5  -3  130.68    8.16
  -8   5   3  112.19    8.16
   8  -5  -3  127.48    8.73
  -8   5   2   19.71    2.35
  -8   5   2   20.42    2.41
   8   5  -2   20.29    1.42
   8   5  -2   18.83    2.35
  -8  -5   2   20.46    1.56
   8  -5  -2   20.45    2.91
  -8   5   1   -0.25    1.22
  -8   5   1    1.83    1.35
   8   5  -1    2.93    0.62
   8   5  -1    4.66    1.37
   8  -5  -1    3.24    2.03
  -8  -5   1    3.91    0.94
  -8   5   0   57.90    4.35
   8   5   0   62.23    4.14
   8   5   0   59.91    3.68
  -8   5   0   53.05    4.22
   8  -5   0   53.14    4.59
  -8  -5   0   51.61    4.00
   8   5   1   98.03    6.10
   8   5   1   91.18    5.72
  -8   5  -1   88.11    6.16
  -8   5  -1   89.34    6.37
   8  -5   1   88.06    6.26
  -8   5  -2   18.87    2.64
  -8   5  -2   18.79    2.82
   8   5   2   18.46    1.85
   8   5   2   16.94    2.30
  -8  -5  -2   15.44    4.48
   8  -5   2   18.15    2.63
  -8   5  -3   15.03    2.75
   8   5   3   12.28    1.78
   8   5   3    7.83    1.66
  -8   5  -3   10.82    2.13
  -8   5  -4    4.52    2.62
  -8   5  -4   10.05    2.65
   8   5   5    1.96    1.29
  -8   5  -5    1.83    2.70
   8   5   6   11.80    1.99
  -8   5  -6   14.20    4.02
   8   5   7   36.48    3.58
  -8   5  -7   46.44    6.46
   8   6  -8   14.01    3.26
  -8   6   8    9.27    2.59
   8  -6  -8    9.00    3.64
  -8   6   7   11.97    2.40
   8   6  -7   15.64    3.37
   8  -6  -7   12.43    3.44
  -8   6   6    2.40    1.73
   8   6  -6    7.48    2.41
   8  -6  -6    3.42    2.99
  -8   6   5    1.58    1.48
   8   6  -5   -1.77    1.72
   8  -6  -5    3.45    2.55
  -8   6   4   25.43    2.67
   8   6  -4   22.12    2.96
   8  -6  -4   22.42    3.29
  -8   6   3   31.57    2.93
   8   6  -3   28.75    2.99
   8  -6  -3   27.71    4.15
   8   6  -2   59.21    3.66
   8   6  -2   59.31    4.40
  -8   6   2   59.83    4.43
  -8  -6   2   59.67    3.93
   8  -6  -2   57.05    5.19
   8   6  -1    3.10    1.21
  -8   6   1    1.56    1.69
  -8   6   1   -0.07    1.31
   8   6  -1    2.32    0.68
   8  -6  -1    0.66    2.48
  -8  -6   1    2.90    1.19
   8   6   0   28.59    2.10
  -8   6   0   22.31    2.91
   8   6   0   28.66    2.69
  -8   6   0   27.69    3.00
   8  -6   0   22.31    3.43
   8   6   1  112.38    7.22
  -8   6  -1  109.12    7.71
  -8   6  -1  109.48    7.58
   8   6   1  110.30    6.88
  -8   6  -2   14.55    3.39
   8   6   2   10.66    1.70
   8   6   2   14.41    1.76
  -8   6  -3   27.65    3.83
   8   6   3   29.84    3.10
   8   6   3   25.77    2.42
   8   6   4    2.02    1.34
  -8   6  -4    1.30    2.41
   8   6   5    1.58    1.36
  -8   6  -5    1.08    2.91
   8   6   6   15.60    2.32
  -8   6  -6   18.41    4.26
  -8   7   8    5.32    2.75
   8   7  -8    8.04    3.82
   8   7  -7   11.46    3.26
  -8   7   7   -0.30    2.23
   8   7  -6   10.61    2.69
  -8   7   6    5.66    2.09
   8  -7  -6    4.39    3.30
   8   7  -5   24.39    3.60
  -8   7   5   23.02    3.01
   8  -7  -5   27.39    3.98
  -8   7   4    5.11    1.73
   8   7  -4    5.41    1.89
   8  -7  -4    3.15    2.65
  -8   7   3    2.64    1.93
   8  -7  -3    3.99    3.08
   8   7  -2   15.59    2.33
   8   7  -2   12.42    1.26
  -8   7   2   13.55    2.35
   8   7  -1  193.32   11.82
  -8   7   1  208.03   12.81
   8   7  -1  191.77   12.22
   8   7   0   25.99    2.19
   8   7   0   27.06    2.78
   8   7   1    1.76    1.35
   8   7   1    0.90    0.99
  -8   7  -1   -1.07    1.65
   8   7   2    5.91    1.26
  -8   7  -2    2.10    2.12
   8   7   2    4.29    1.67
  -8   7  -3   -1.41    2.49
  -8   7  -4    2.34    2.95
   8   7   4    2.63    1.39
   8   7   5   12.31    2.11
  -8   7  -5    9.23    3.65
  -8   8   7   18.88    3.26
   8   8  -6   13.13    3.02
  -8   8   6    8.04    2.33
  -8   8   5   25.77    3.33
   8   8  -5   25.39    3.77
  -8   8   4    3.88    1.84
   8   8  -4    2.22    1.60
   8   8  -3   -1.33    1.58
  -8   8   3   -2.60    1.56
   8   8  -2   58.95    4.50
  -8   8   2   56.54    4.68
  -8   8   1    7.91    2.03
   8   8  -1   11.12    1.83
   8   8  -1    7.39    1.15
  -8   8   0   67.34    5.41
   8   8   0   69.19    5.10
   8   8   0   70.01    4.57
  -8   8  -1   -2.38    1.99
   8   8   1    0.87    1.12
   8   8   1    0.21    1.71
   8   8   2    3.78    1.34
  -8   8  -2    0.90    2.31
   8   8   2    3.09    1.81
  -8   8  -3    4.31    2.88
   8   8   3   11.25    1.78
  -8   8  -4    7.64    3.51
   8   8   4    9.40    1.91
  -8   8  -5   10.61    4.43
   8   8   5   15.92    2.40
   8   9  -6   -0.53    3.27
  -8   9   6    3.18    2.45
  -8   9   5   -4.11    1.93
   8   9  -5    0.55    2.10
   8   9  -4    7.59    2.09
  -8   9   4    7.65    2.34
  -8   9   3   82.07    6.16
   8   9  -3   79.66    5.96
  -8   9   2   10.63    2.39
   8   9  -2   12.66    1.97
   8   9  -1   26.46    3.12
  -8   9   1   21.83    3.20
   8   9   0   13.88    2.25
   8   9   0   10.65    2.07
  -8   9   0   10.78    2.42
  -8   9  -1   13.09    2.91
   8   9   1   18.19    2.38
  -8   9  -2    0.07    2.41
   8   9   2    4.09    2.66
   8   9   2    3.48    1.51
   8   9   3    5.28    1.81
  -8   9  -3   -2.57    3.03
   8  10  -4   27.76    3.46
  -8  10   4   23.21    3.39
   8  10  -3   -2.77    1.94
  -8  10   3   -0.88    1.95
   8  10  -2   47.15    4.31
  -8  10   2   42.89    4.46
   8  10  -1   -1.30    1.66
  -8  10   1   -0.87    2.17
   8  10   0   10.71    2.33
  -8  10   0    9.78    2.68
   8  10   1    0.81    2.13
  -8  10  -2    9.83    3.33
   8  10   2   14.79    2.29
   9   0 -10    0.44    3.04
   9   0  -8  185.42   12.43
  -9   0   8  173.03   10.53
  -9   0   7    1.18    1.17
  -9   0   6    1.50    1.01
   9   0  -6    3.20    3.08
   9   0  -5   -2.18    2.81
  -9   0   5    0.10    0.76
   9   0  -5    0.08    0.82
  -9   0   4    0.34    0.67
   9   0  -4   -3.94    2.27
  -9   0   4    0.48    0.65
  -9   0   3    1.49    0.75
   9   0  -3   -0.39    2.22
  -9   0   3   -0.42    0.67
  -9   0   2   13.61    2.53
  -9   0   2    9.78    1.64
   9   0  -2    9.14    2.26
  -9   0   1    0.24    0.88
  -9   0   1    1.24    1.15
  -9   0   1    1.24    2.42
   9   0  -1    0.67    1.91
  -9   0   0   79.87    6.59
   9   0   0   77.82    5.78
  -9   0  -1    1.54    1.11
   9   0   1   -0.49    1.67
   9   0   1   -0.43    0.85
  -9   0  -1   -0.83    2.57
   9   0   2  337.58   18.78
   9   0   2  279.64   19.86
  -9   0  -3   -2.21    2.84
   9   0   3    0.95    1.79
   9   0   4    7.14    1.40
   9   0   5   -1.27    1.11
   9   0   6    2.89    1.44
   9   0   7    2.47    1.65
   9   1 -10    5.90    3.37
   9  -1 -10    2.30    3.06
   9   1  -9   58.33    5.94
   9  -1  -9   46.85    6.01
  -9  -1   9   46.74    3.01
  -9   1   8    2.33    1.73
   9   1  -8    0.55    2.97
   9   1  -7   71.53    6.60
  -9   1   7   56.65    3.64
  -9   1   7   60.42    4.36
   9  -1  -7   62.64    6.32
   9   1  -6   36.31    5.50
  -9   1   6   36.84    2.90
   9  -1  -6   43.37    4.89
  -9  -1   6   36.31    2.49
   9   1  -5    1.34    2.39
  -9   1   5    3.01    0.92
  -9  -1   5    2.55    0.86
  -9  -1   5    1.75    0.51
   9  -1  -5    2.64    0.98
   9  -1  -5   -0.07    2.62
  -9   1   4   37.07    2.65
   9   1  -4   40.28    4.59
   9  -1  -4   29.43    2.71
  -9  -1   4   38.48    2.32
   9  -1  -4   40.85    4.83
   9   1  -3   10.55    2.42
  -9   1   3    3.38    0.91
  -9   1   3    6.21    1.61
  -9   1   3    3.84    0.93
  -9  -1   3    4.57    0.90
  -9  -1   3    3.43    0.67
   9  -1  -3    4.32    2.52
   9   1  -2   50.59    4.11
  -9   1   2   39.67    3.13
  -9   1   2   46.56    4.06
  -9   1   2   43.32    3.17
   9  -1  -2   37.89    5.65
  -9  -1   2   45.96    3.21
  -9  -1   2   59.25    5.06
  -9  -1   2   40.30    3.03
  -9   1   1   37.72    3.00
  -9   1   1   42.67    3.39
  -9  -1   1   44.06    4.74
  -9  -1   1   37.57    2.86
  -9  -1   1   36.11    3.17
   9   1   0   91.32    5.67
   9   1   0   77.27    5.09
  -9  -1   0   69.28    5.50
   9   1   1  218.70   13.95
   9   1   1  204.58   13.66
  -9  -1  -1  264.74   14.91
   9   1   2    4.53    1.59
  -9   1  -2    4.84    2.77
  -9   1  -2    5.65    1.61
   9   1   2    3.51    1.06
   9  -1   2    3.66    1.90
  -9  -1  -2    2.12    3.08
   9  -1   2    4.49    1.28
   9   1   3   50.20    4.04
   9   1   3   59.83    4.70
  -9   1  -3   70.59    6.31
   9  -1   3   61.99    5.11
  -9  -1  -3   55.10    6.13
   9  -1   3   63.52    4.27
   9   1   4   16.05    2.02
   9  -1   4   18.77    2.19
   9   1   5    0.02    1.18
   9  -1   5    1.27    1.25
   9   1   6   13.10    2.05
   9  -1   6   19.02    2.63
   9   1   7    3.59    1.59
   9  -1   7    3.86    1.77
   9   2  -9   10.10    3.31
   9  -2  -9    4.81    3.04
  -9   2   8    8.84    2.09
   9   2  -8    9.14    3.17
   9  -2  -8    6.62    2.98
  -9   2   7   37.21    3.40
   9   2  -7   29.81    4.35
   9  -2  -7   53.07    5.52
  -9   2   6   78.03    5.38
  -9   2   6   82.74    4.83
   9   2  -6   80.27    7.35
   9  -2  -6   83.69    7.21
   9   2  -5    0.70    2.54
  -9   2   5    0.45    0.27
  -9   2   5    1.16    0.99
   9  -2  -5   -0.20    2.72
  -9   2   4    8.31    1.31
   9   2  -4   10.43    2.53
   9  -2  -4    6.93    2.89
  -9   2   3   12.81    1.62
  -9   2   3   14.18    2.13
   9   2  -3   15.76    2.36
  -9  -2   3   11.90    0.85
   9  -2  -3   14.47    3.14
  -9   2   2    0.99    1.40
   9   2  -2    0.78    1.49
  -9   2   2    0.01    0.88
  -9  -2   2    0.00    0.70
  -9  -2   2   -0.68    0.69
   9  -2  -2    0.14    2.52
  -9   2   1   10.51    1.68
  -9   2   1   10.25    1.77
   9   2  -1   10.25    1.71
  -9  -2   1   10.27    1.54
   9  -2  -1   10.34    2.52
  -9  -2   1    6.98    1.35
  -9  -2   1   11.11    2.85
  -9   2   0  239.86   13.81
   9   2   0  210.03   13.12
  -9   2   0  235.58   13.45
   9   2   0  199.22   13.40
  -9  -2   0  206.56   14.21
  -9   2  -1   14.71    2.33
  -9   2  -1   11.59    1.88
   9   2   1    7.79    1.20
   9   2   1   11.64    1.81
  -9  -2  -1    7.20    3.27
   9  -2   1   11.21    2.36
   9   2   2   16.83    2.54
   9   2   2   16.70    1.73
   9  -2   2   23.82    3.91
  -9  -2  -2   20.66    3.53
  -9   2  -3   64.35    4.69
   9   2   3   51.98    3.85
   9   2   3   48.62    4.33
  -9  -2  -3   65.51    8.52
   9  -2   3   55.83    4.93
   9   2   4   47.04    3.65
  -9   2  -4   54.79    5.16
  -9   2  -5    1.14    2.21
   9   2   5   -0.06    1.23
   9  -2   5    1.05    1.46
   9   2   6    4.55    1.59
  -9   2  -6    4.51    2.76
   9  -2   6    6.51    1.86
  -9   2  -7    2.13    3.09
   9   2   7    1.95    1.70
   9  -2   7    3.33    1.93
   9   3  -9   27.58    3.99
  -9   3   9   19.56    4.42
   9  -3  -9   17.55    4.20
  -9   3   8    4.99    2.07
   9   3  -8   -2.12    2.95
   9  -3  -8    1.11    3.24
  -9   3   7   14.41    2.11
   9   3  -7   10.90    3.71
   9  -3  -7   13.51    3.40
  -9   3   6    7.82    1.60
   9   3  -6    5.39    3.42
   9  -3  -6    8.31    3.22
   9   3  -5   44.55    4.79
  -9   3   5   37.23    3.10
   9  -3  -5   37.23    5.01
   9   3  -4   46.77    4.37
  -9   3   4   45.64    3.37
   9  -3  -4   43.48    5.27
   9   3  -3   25.53    2.95
  -9   3   3   18.63    2.04
  -9   3   3   17.62    2.29
   9  -3  -3   19.82    3.20
  -9   3   2  103.87    6.64
  -9   3   2   94.46    6.86
   9   3  -2   95.12    6.82
   9  -3  -2  102.52    7.78
  -9  -3   2  117.46    6.29
  -9  -3   2   98.67    6.20
   9   3  -1  179.11   10.13
  -9   3   1  169.67   10.63
   9   3  -1  161.13   10.49
  -9   3   1  170.90   10.51
  -9  -3   1  156.98   10.17
   9  -3  -1  167.61   11.18
  -9   3   0    6.27    1.76
  -9   3   0    4.98    1.44
   9   3   0    5.07    1.38
   9   3   0    4.56    0.85
   9  -3   0    2.83    3.06
  -9  -3   0    3.63    1.44
  -9  -3   0    6.08    3.05
   9   3   1   48.93    3.48
  -9   3  -1   59.12    4.19
   9   3   1   45.82    4.03
  -9   3  -1   64.52    4.60
   9  -3   1   46.94    4.80
  -9  -3  -1   51.08    5.81
  -9   3  -2    4.66    1.83
   9   3   2    3.51    1.00
   9   3   2    2.22    1.45
  -9   3  -2    2.58    2.01
   9  -3   2    0.94    1.97
  -9  -3  -2    1.91    2.95
   9   3   3   18.61    2.85
  -9   3  -3   20.13    2.85
   9   3   3   20.50    2.10
  -9   3  -4    9.71    2.55
   9   3   4    8.22    1.43
   9   3   5   16.57    2.30
  -9   3  -5   26.00    3.90
   9   3   6    7.65    1.77
  -9   3  -6    8.88    3.05
   9   3   7    4.38    1.70
  -9   3  -7    1.07    3.07
   9   4  -9   11.00    3.33
  -9   4   9    8.37    3.00
   9  -4  -9    7.38    3.98
   9   4  -8   40.26    6.25
  -9   4   8   39.50    4.82
   9  -4  -8   42.30    5.18
   9   4  -7    4.25    2.84
  -9   4   7    1.91    1.70
   9  -4  -7   -0.51    2.82
  -9   4   6    5.00    1.62
   9   4  -6    9.33    2.90
   9  -4  -6    6.60    3.25
  -9   4   5   52.80    3.96
   9   4  -5   56.31    5.14
   9  -4  -5   49.37    5.72
  -9   4   4   25.84    2.55
   9   4  -4   26.12    3.39
   9  -4  -4   27.38    3.87
  -9   4   3   15.76    2.04
   9   4  -3   20.46    2.59
  -9   4   3   11.89    1.95
   9  -4  -3   12.28    3.40
  -9   4   2   13.51    1.97
   9   4  -2   17.55    2.11
  -9   4   2    9.86    1.79
   9  -4  -2   11.63    2.79
  -9  -4   2   14.21    1.33
   9   4  -1  106.44    7.13
  -9   4   1  101.27    7.21
   9   4  -1  113.12    6.65
  -9   4   1  116.17    7.23
   9  -4  -1  105.04    7.86
  -9  -4   1  107.87    6.76
  -9   4   0    8.25    1.72
   9   4   0    9.48    1.62
  -9   4   0    9.54    1.92
   9   4   0    7.92    1.12
   9  -4   0    3.55    2.09
  -9  -4   0    6.21    1.54
  -9   4  -1   34.03    3.17
   9   4   1   28.17    2.27
  -9   4  -1   30.09    3.33
   9   4   1   29.13    2.97
  -9  -4  -1   27.21    4.00
  -9   4  -2   94.04    6.12
   9   4   2   78.37    5.14
   9   4   2   75.58    5.59
  -9   4  -2   93.02    5.96
   9  -4   2   62.73    5.87
  -9  -4  -2   59.42    8.91
   9   4   3    1.31    1.07
  -9   4  -3   -0.16    3.36
   9   4   3    1.18    1.72
  -9   4  -4    2.83    2.41
  -9   4  -5   39.15    4.69
   9   4   5   34.91    3.15
   9   4   6   14.46    2.37
  -9   4  -6   14.77    3.63
  -9   5   8    4.40    2.39
   9   5  -8    3.35    3.27
   9  -5  -8    9.98    3.93
   9   5  -7   27.01    4.08
  -9   5   7   28.89    3.65
   9  -5  -7   25.12    4.33
   9   5  -6   35.43    4.73
  -9   5   6   32.18    3.18
   9  -5  -6   22.10    4.00
  -9   5   5    0.79    1.41
   9   5  -5    1.66    2.25
   9  -5  -5   -2.33    2.80
   9   5  -4    2.07    1.68
  -9   5   4   -0.20    1.46
   9  -5  -4    2.06    2.62
  -9   5   3  145.02    8.64
  -9   5   3  119.07    8.74
   9   5  -3  130.23    8.62
   9  -5  -3  134.37   10.32
   9   5  -2   29.17    1.81
   9   5  -2   24.00    2.84
  -9   5   2   26.08    2.68
  -9   5   2   21.89    2.99
  -9  -5   2   25.70    2.21
   9  -5  -2   19.52    3.33
   9   5  -1    0.53    1.38
  -9   5   1   -0.20    1.51
  -9   5   1    0.52    1.36
  -9  -5   1    2.04    1.07
   9  -5  -1   -0.70    2.18
   9   5   0   31.46    2.37
   9   5   0   31.67    3.04
  -9   5   0   30.57    3.30
  -9   5   0   28.24    3.30
   9  -5   0   29.46    4.05
   9   5   1   42.37    3.51
   9   5   1   36.10    2.84
  -9   5  -1   40.18    3.76
  -9   5  -1   41.83    4.44
   9   5   2    7.05    1.61
   9   5   2    9.12    1.35
  -9   5  -2   11.67    2.41
   9   5   3   16.60    2.00
  -9   5  -3   21.21    3.40
  -9   5  -4   30.67    4.57
   9   5   4   26.40    2.77
  -9   5  -5    0.36    2.89
   9   5   5    1.14    1.47
   9   5   6    0.72    1.51
  -9   5  -6    0.54    3.39
  -9   6   8    3.62    2.56
   9   6  -8   10.41    3.57
   9  -6  -8    3.22    4.24
   9   6  -7   68.07    6.65
  -9   6   7   52.87    5.14
   9  -6  -7   66.42    9.53
  -9   6   6   16.75    2.55
   9   6  -6   16.62    3.09
   9  -6  -6   11.53    3.68
  -9   6   5    0.85    1.99
   9   6  -5   -0.31    1.88
   9  -6  -5    1.93    3.12
  -9   6   4   37.73    3.64
   9   6  -4   38.69    4.40
   9  -6  -4   33.02    4.18
   9   6  -3    3.66    1.53
  -9   6   3    5.84    1.75
   9  -6  -3   10.67    3.25
   9   6  -2   37.95    2.85
   9   6  -2   37.30    3.57
  -9   6   2   39.98    3.52
   9  -6  -2   39.30    4.87
   9   6  -1    5.49    0.87
  -9   6   1    3.57    1.73
   9   6  -1    4.91    1.45
   9   6   0    4.84    0.97
   9   6   0    5.98    1.66
  -9   6   0    4.99    1.82
   9   6   1   30.41    3.19
  -9   6  -1   29.52    3.96
   9   6   1   30.79    2.47
   9   6   2    6.50    1.30
   9   6   2    7.17    1.76
  -9   6  -2    6.95    2.29
   9   6   3   83.00    5.90
  -9   6  -3   96.70    7.00
   9   6   4   13.88    1.98
  -9   6  -4   15.43    3.24
   9   6   5    1.35    1.45
  -9   6  -5   -3.02    2.90
  -9   7   7    1.75    2.55
   9   7  -7   13.36    3.46
  -9   7   6   23.08    3.78
   9   7  -6   27.40    3.87
  -9   7   5   92.37    6.66
   9   7  -5   87.30    6.79
   9   7  -4    2.95    1.86
  -9   7   4   -0.39    1.81
  -9   7   3    3.52    1.87
   9   7  -3    5.56    1.80
   9   7  -2    3.03    1.63
  -9   7   2   -0.50    1.57
  -9   7   1   45.34    4.28
   9   7  -1   46.76    3.16
   9   7  -1   46.46    3.99
  -9   7   0   16.26    2.72
   9   7   0   21.12    2.80
   9   7   0   18.89    1.91
  -9   7  -1    3.63    2.16
   9   7   1    5.61    1.25
   9   7   1    6.60    1.73
   9   7   2    2.87    1.29
  -9   7  -2    0.86    2.28
   9   7   2    4.12    1.75
   9   7   3    2.63    1.33
  -9   7  -3    0.04    2.35
  -9   7  -4   14.61    3.50
   9   7   4   14.18    2.33
   9   7   5   55.23    4.67
  -9   7  -5   63.00    6.65
   9   8  -6   17.00    3.24
  -9   8   6   26.15    3.82
   9   8  -5   14.83    2.68
  -9   8   5   16.01    2.73
  -9   8   4   38.92    4.06
   9   8  -4   44.23    4.29
   9   8  -3    2.89    1.64
  -9   8   3    3.33    1.96
   9   8  -2   25.79    3.31
  -9   8   2   26.08    3.35
  -9   8   1   15.02    2.62
   9   8  -1   19.17    3.09
   9   8   0   13.01    1.84
  -9   8   0    9.41    2.44
   9   8   0   11.28    1.96
   9   8   1   15.09    2.41
  -9   8  -1   12.72    2.75
   9   8   1   16.50    2.12
  -9   8  -2    7.01    2.62
   9   8   3    4.68    1.71
  -9   8  -3   -2.46    2.75
  -9   8  -4   24.61    4.49
   9   8   4   28.55    3.08
  -9   9   5   11.68    2.83
   9   9  -5   12.61    2.64
  -9   9   4   11.35    2.75
   9   9  -4   16.77    2.68
  -9   9   3   74.76    6.17
   9   9  -3   83.38    6.11
  -9   9   2    8.88    2.48
   9   9  -2    9.91    2.19
   9   9  -1    0.26    1.74
  -9   9   1   -3.08    2.13
   9   9   0    3.48    2.04
  -9   9   0    0.84    2.14
   9   9   1    0.75    2.01
  -9   9  -1   -4.85    2.13
   9   9   2    2.57    1.63
  -9   9  -3   -3.00    3.12
   9   9   3    4.81    1.90
  -9  10   3   -4.62    2.14
   9  10  -3   -2.14    1.98
   9  10  -2   30.36    4.11
  -9  10   2   30.63    4.03
   9  10  -1    2.62    2.30
  -9  10   1    1.43    2.33
   9  10   0    6.81    2.55
  -9  10   0   -2.60    2.30
  10   0  -9    8.89    3.80
  10   0  -8   77.30    7.69
 -10   0   8   61.87    3.92
  10   0  -7    7.01    3.92
  10   0  -6   48.91    6.25
 -10   0   6   33.88    2.74
  10   0  -5   -0.44    3.03
 -10   0   5   -0.02    0.83
 -10   0   5   -0.34    0.81
 -10   0   4    4.26    0.90
 -10   0   4    2.58    0.89
  10   0  -4   -1.63    2.68
  10   0  -3    2.42    2.47
 -10   0   3    1.28    1.02
 -10   0   2  217.81   14.10
  10   0  -2  252.25   14.96
 -10   0   1    1.60    2.64
 -10   0   1    1.33    1.56
  10   0  -1    1.56    2.27
 -10   0   1    0.49    1.06
 -10   0   0   38.72    3.48
 -10   0   0   60.32    5.77
 -10   0  -1   -1.26    3.19
  10   0   1    0.36    1.82
 -10   0  -1    0.63    1.29
  10   0   2   87.27    5.76
  10   0   3   -0.82    0.99
  10   0   4   33.27    2.92
  10   0   5    0.80    1.26
  10   0   6   19.46    2.60
  10   0   7    2.95    1.64
  10   1  -9   19.62    4.37
  10  -1  -9   28.57    4.86
  10   1  -8    3.88    3.58
 -10   1   7    3.78    1.50
  10   1  -7    3.25    3.36
 -10   1   7    3.95    0.49
  10  -1  -7    4.09    5.47
  10   1  -6   26.45    4.52
 -10   1   6   33.52    2.77
 -10   1   5    5.83    1.16
  10   1  -5    6.28    2.86
 -10  -1   5    3.66    0.88
  10  -1  -5    9.84    3.72
 -10   1   4   75.54    5.17
  10   1  -4   88.45    6.95
 -10  -1   4   70.81    4.88
 -10  -1   4   92.21    5.08
  10  -1  -4   78.11    7.31
 -10   1   3   75.42    5.64
 -10   1   3   85.14    5.69
  10   1  -3  107.54    7.00
  10  -1  -3   89.75    7.38
 -10  -1   3   84.02    5.47
 -10  -1   3   97.70    5.64
 -10   1   2   11.02    1.57
  10   1  -2   16.51    2.57
 -10   1   2   15.26    2.62
  10  -1  -2   11.49    3.06
 -10  -1   2   15.96    2.06
 -10  -1   2   14.98    2.46
 -10   1   1  164.30    9.97
 -10  -1   1  154.24   10.07
 -10  -1   1  161.71    9.91
  10   1   0    3.97    1.87
 -10   1   0    7.95    2.70
 -10   1   0    4.70    1.52
  10  -1   0    8.94    2.55
 -10  -1   0    4.60    3.60
 -10  -1   0    6.57    1.35
  10   1   1   53.84    4.71
  10   1   1   57.08    3.97
 -10  -1  -1   74.10    6.89
  10   1   2    0.64    0.94
  10   1   2    2.67    2.00
 -10   1  -2    2.73    1.56
 -10   1  -2   -0.72    2.97
  10  -1   2    0.96    2.22
 -10  -1  -2   -0.94    3.97
  10   1   3    1.21    1.09
 -10   1  -3    1.81    1.91
  10  -1   3    3.85    1.42
  10   1   4   11.61    1.80
  10  -1   4   11.34    1.84
  10   1   5    3.69    1.45
  10  -1   5    3.72    1.61
  10   1   6   22.33    3.05
  10  -1   6   30.75    3.11
  10   1   7   20.62    2.93
  10  -1   7   24.57    3.35
  10   2  -9   -1.08    3.39
  10  -2  -9   -0.57    3.70
  10   2  -8    5.71    3.42
  10  -2  -8    0.45    3.48
 -10   2   7   21.39    2.80
  10   2  -7   14.66    4.43
 -10   2   6    9.68    1.64
  10   2  -6    8.44    3.27
 -10   2   6   11.00    0.81
  10  -2  -6   12.57    4.00
 -10   2   5   14.22    2.04
 -10   2   5   13.32    0.94
  10   2  -5   14.33    3.11
  10  -2  -5   14.18    3.70
  10   2  -4    5.52    2.39
 -10   2   4    1.75    1.09
  10  -2  -4    4.24    3.18
 -10   2   3   24.79    2.39
  10   2  -3   29.85    3.54
 -10  -2   3   24.57    1.71
  10  -2  -3   24.36    3.72
 -10   2   2   36.78    3.67
 -10   2   2   30.40    2.84
  10   2  -2   34.91    3.58
 -10  -2   2   33.29    2.54
 -10  -2   2   28.12    2.55
  10  -2  -2   35.23    5.10
 -10   2   1   19.07    2.36
 -10   2   1   22.00    2.93
  10   2  -1   18.05    2.37
 -10  -2   1   16.46    4.61
 -10  -2   1   18.95    2.03
  10  -2  -1   15.20    3.14
  10   2   0  291.36   18.62
 -10   2   0  332.25   18.98
 -10  -2   0  311.57   19.97
  10   2   1   -1.67    0.77
  10   2   1    0.72    1.53
 -10   2  -1   -0.53    2.37
 -10   2  -1    0.82    1.50
 -10  -2  -1   -2.66    3.84
  10  -2   1    3.77    2.65
  10   2   2    4.95    1.15
 -10   2  -2   16.07    3.32
 -10   2  -2   10.83    2.18
  10   2   2    7.09    1.87
  10  -2   2    6.09    3.54
  10   2   3   24.51    2.33
  10   2   4    5.64    1.42
 -10   2  -4    9.42    2.41
 -10   2  -5    8.89    2.79
  10   2   5   10.63    1.79
 -10   2  -6    4.89    3.03
  10   2   6    4.52    1.67
  10   3  -9   29.48    4.84
 -10   3   8   26.68    3.58
  10   3  -8   19.90    4.33
  10  -3  -8   14.81    4.03
  10   3  -7    0.41    3.28
 -10   3   7    0.60    1.79
  10  -3  -7    2.12    4.32
 -10   3   6    3.39    1.51
  10   3  -6    6.17    3.25
  10  -3  -6    0.38    3.64
 -10   3   5   45.03    3.68
  10   3  -5   55.10    5.32
  10  -3  -5   41.48    6.14
 -10   3   4   -0.22    1.24
  10   3  -4   -1.01    2.08
  10  -3  -4   -0.13    3.13
  10   3  -3   12.09    2.05
 -10   3   3    5.22    1.38
 -10   3   3    4.12    1.87
 -10   3   3    5.58    0.51
  10  -3  -3    5.68    3.12
  10   3  -2   88.70    6.31
 -10   3   2   92.97    6.05
 -10   3   2   85.86    5.25
 -10   3   2   89.34    6.47
  10  -3  -2   88.37    7.68
 -10  -3   2   89.35    5.51
  10   3  -1  123.03    8.45
 -10   3   1  142.26    8.76
 -10   3   1  134.90    8.49
 -10  -3   1  121.97    8.15
  10  -3  -1  133.55    9.58
  10   3   0   20.87    1.89
  10   3   0   20.13    2.80
 -10   3   0   25.52    2.68
 -10   3   0   23.13    3.34
  10   3   1   21.48    3.74
 -10   3  -1   24.82    2.80
  10   3   1   18.10    1.91
 -10   3  -1   20.78    2.84
  10  -3   1   17.63    3.20
 -10  -3  -1   21.49    4.55
  10   3   2   30.58    2.54
  10   3   2   26.47    3.35
  10   3   3    0.83    1.11
 -10   3  -3   -0.87    2.53
 -10   3  -4    4.54    2.59
  10   3   4    5.92    1.51
  10   3   5   18.34    2.42
 -10   3  -5   20.79    3.61
 -10   3  -6    8.99    3.37
  10   4  -9   52.64    7.43
  10  -4  -9   33.84    5.58
 -10   4   8   33.73    4.25
  10   4  -8   27.24    4.77
  10  -4  -8   22.54    4.79
 -10   4   7    1.70    1.94
  10   4  -7    7.25    3.11
  10  -4  -7   -1.65    5.17
 -10   4   6    2.59    1.76
  10   4  -6   10.59    3.18
  10  -4  -6   -0.98    3.37
  10   4  -5    0.31    2.37
 -10   4   5    1.86    1.54
  10  -4  -5   -0.43    3.24
 -10   4   4   10.92    1.79
  10   4  -4   10.12    2.24
  10  -4  -4   10.79    3.66
 -10   4   3   13.04    2.33
 -10   4   3   20.59    2.39
  10   4  -3   21.21    3.04
  10  -4  -3   18.26    3.51
  10   4  -2   38.53    3.58
 -10   4   2   40.55    3.46
 -10   4   2   39.98    3.94
 -10  -4   2   41.96    2.71
  10  -4  -2   40.88    5.51
  10   4  -1   14.46    1.82
 -10   4   1   15.41    2.40
  10   4  -1   18.71    2.29
 -10   4   1   15.92    2.37
  10  -4  -1   17.84    3.40
 -10  -4   1   15.41    2.12
  10   4   0   22.35    2.69
  10   4   0   17.13    1.74
 -10   4   0   19.27    2.68
  10  -4   0   18.35    3.26
  10   4   1  144.02    9.23
 -10   4  -1  168.53    9.90
  10   4   1  140.74    9.62
  10   4   2   42.29    3.28
 -10   4  -2   46.76    4.28
 -10   4  -3    2.06    2.35
  10   4   3    4.90    1.21
  10   4   4    0.59    1.20
 -10   4  -4    1.06    2.45
 -10   4  -5   -1.62    3.02
 -10   4  -6    5.05    3.40
  10   5  -8    9.63    4.10
 -10   5   8   15.91    3.14
  10  -5  -8   20.64    5.02
 -10   5   7   38.75    4.35
  10   5  -6    6.72    3.05
 -10   5   6    3.57    3.05
  10  -5  -6   -2.49    3.40
  10   5  -5    0.35    2.16
 -10   5   5   -0.15    1.66
  10  -5  -5   -2.72    3.31
 -10   5   4   40.39    3.73
  10   5  -4   40.77    4.12
  10  -5  -4   32.34    4.60
 -10   5   3  109.06    7.12
  10   5  -3   98.55    7.13
 -10   5   2   11.53    1.96
  10   5  -2    8.83    1.80
 -10  -5   2    8.88    1.10
  10  -5  -2    9.14    3.25
  10   5  -1   -0.05    0.71
  10   5  -1    1.54    1.49
 -10   5   1   -0.07    1.51
  10  -5  -1    2.48    2.87
  10   5   0    3.62    0.93
 -10   5   0    1.51    1.84
  10   5   0    4.79    1.77
  10   5   1   21.15    2.59
  10   5   1   17.34    1.90
 -10   5  -2   35.66    4.04
  10   5   2   25.14    3.44
  10   5   2   26.80    2.53
 -10   5  -3   39.97    4.37
  10   5   3   35.98    3.34
  10   5   4   -0.41    1.34
 -10   5  -4    0.10    2.43
 -10   5  -5   -1.16    2.97
  10   5   5    1.98    1.60
  10   6  -8   20.56    5.61
 -10   6   7   41.70    4.64
  10   6  -7   47.99    6.42
  10  -6  -7   34.57    6.70
 -10   6   6   27.53    3.96
  10   6  -6   37.95    5.31
  10  -6  -6   33.47    5.54
  10   6  -5   22.68    3.21
 -10   6   5   12.93    2.38
  10  -6  -5   10.43    3.95
  10   6  -4   24.12    2.95
 -10   6   4   19.25    3.24
  10  -6  -4   15.72    5.36
  10   6  -3   35.38    3.71
 -10   6   2   13.13    3.22
  10   6  -2    9.06    1.93
 -10   6   1   12.67    4.06
  10   6  -1   16.79    1.64
  10   6  -1   16.62    2.26
 -10   6   0   -0.23    1.94
  10   6   0    1.03    0.89
  10   6   0    1.98    1.79
  10   6   1    0.38    1.81
  10   6   1   -0.46    1.01
 -10   6  -1   -4.29    1.83
  10   6   2   20.45    2.30
 -10   6  -2   25.00    3.77
 -10   6  -3   59.32    5.53
  10   6   3   44.80    3.80
  10   6   4   16.59    2.61
 -10   6  -4   21.58    3.57
 -10   6  -5   11.87    3.59
  10   6   5   11.27    2.15
 -10   7   7    8.35    3.01
  10   7  -6    3.02    2.89
 -10   7   6    4.48    2.58
  10   7  -5   91.27    7.45
 -10   7   5  104.78    7.31
 -10   7   4   19.31    2.92
  10   7  -4   21.53    2.88
 -10   7   3    6.47    2.10
  10   7  -3    6.60    2.06
 -10   7   2    1.17    1.79
  10   7  -2    4.32    3.04
  10   7  -1   14.20    2.25
 -10   7   1    9.51    2.39
  10   7   0   -0.18    1.69
  10   7   0   -0.08    1.01
 -10   7   0   -2.16    1.89
 -10   7  -1    0.34    2.17
  10   7   1    2.39    1.92
  10   7   1    2.58    1.22
  10   7   2    7.06    1.53
 -10   7  -2    2.75    2.53
 -10   7  -3   19.61    3.58
  10   7   3   18.13    2.63
 -10   7  -4    4.15    3.24
  10   7   4    1.32    1.66
  10   8  -6   62.23    6.34
 -10   8   6   52.19    5.46
  10   8  -5    3.19    2.31
 -10   8   5   -1.22    2.44
 -10   8   4   29.43    3.84
  10   8  -4   29.59    3.98
  10   8  -3    1.84    1.94
 -10   8   3   -1.00    2.10
  10   8  -2    1.41    1.74
 -10   8   2    0.55    2.16
 -10   8   1    2.13    2.22
  10   8  -1    1.93    1.85
 -10   8   0    0.24    2.21
 -10   8  -1   21.41    3.40
  10   8   1   19.89    2.79
  10   8   2    3.35    1.55
 -10   8  -2   -1.59    2.53
  10   8   3    4.36    1.76
 -10   8  -3   -3.15    2.93
 -10   9   4    6.20    2.77
  10   9  -4   11.27    2.62
 -10   9   3   15.52    3.02
  10   9  -3   21.51    3.06
 -10   9   2   12.00    2.82
  10   9  -2   12.71    2.45
  10   9  -1    5.56    2.53
 -10   9   1    2.13    2.42
  10   9   0    4.48    2.43
 -10   9   0   -2.09    2.23
 -10   9  -1   -0.41    2.67
 -11   0   9    1.00    0.67
  11   0  -9    3.47    4.86
 -11   0   8    9.56    0.88
  11   0  -8   15.63    4.89
  11   0  -7    6.36    4.06
  11   0  -6    6.54    4.04
 -11   0   5   -0.33    0.97
  11   0  -5   -1.23    3.39
  11   0  -4   70.35    7.09
 -11   0   3   -0.08    1.28
  11   0  -3    1.08    2.76
 -11   0   3   -0.68    0.97
  11   0  -2  371.17   22.98
 -11   0   1    0.27    1.25
 -11   0   1    2.87    3.46
  11   0  -1    2.62    2.97
 -11   0   0   27.44    4.28
 -11   0  -1    0.91    1.40
  11   0   1    0.76    2.19
 -11   0  -2   10.67    2.12
  11   0   2   11.51    1.89
  11   0   3   -0.27    1.35
  11   0   4    0.85    1.32
  11   0   5   -0.04    1.40
  11   0   6   44.38    3.95
  11   1  -9    3.33    4.29
  11  -1  -9    2.32    4.55
 -11  -1   9    0.09    0.45
  11   1  -8   14.80    4.96
 -11   1   8    6.48    0.69
  11  -1  -8    9.78    4.60
 -11   1   7    0.94    0.40
  11   1  -7    1.19    4.26
  11  -1  -7    3.00    4.26
 -11   1   6   13.15    2.20
  11   1  -6   15.49    4.39
  11  -1  -6   17.06    4.25
  11   1  -5   24.16    4.01
 -11   1   5   19.47    2.24
  11  -1  -5   18.69    4.38
 -11   1   4   72.34    5.05
  11   1  -4   93.60    6.98
 -11   1   4   85.32    5.66
 -11  -1   4   67.28    4.71
  11  -1  -4   75.96    7.58
  11   1  -3  213.43   13.19
 -11  -1   3  205.41   12.15
 -11  -1   3  176.24   12.01
  11  -1  -3  210.80   13.67
  11   1  -2   46.03    4.48
 -11   1   2   36.87    3.37
 -11   1   2   48.96    5.23
  11  -1  -2   57.69    5.64
 -11  -1   2   41.90    3.29
 -11   1   1   34.72    3.11
 -11  -1   1   32.09    3.00
  11   1   0   -0.57    2.10
 -11   1   0    1.58    1.40
 -11   1   0    5.21    3.12
 -11  -1   0    3.19    4.02
  11  -1   0    1.43    2.83
 -11  -1   0    4.66    1.46
 -11   1  -1    1.69    1.80
  11   1   1    1.17    1.08
  11   1   1    3.48    2.09
 -11  -1  -1    3.69    1.51
  11  -1   1   -0.24    2.51
 -11   1  -2    7.63    2.19
  11   1   2    4.73    1.32
  11   1   3   -0.54    1.13
 -11   1  -3    1.13    2.23
  11   1   4    3.55    1.39
 -11   1  -4    4.13    2.42
  11  -1   4    6.43    1.67
  11   1   5    8.27    1.80
 -11   1  -5    5.65    2.92
  11  -1   5    8.94    1.88
  11   1   6   16.79    2.52
 -11   1  -6   14.64    3.65
  11  -1   6   24.32    3.03
  11   2  -9    1.64    4.15
  11  -2  -9   -0.51    4.10
  11   2  -8   17.76    4.95
  11  -2  -8   11.68    4.85
  11   2  -7   -0.11    3.88
 -11   2   7   -0.02    1.73
  11  -2  -7    2.68    4.49
 -11   2   6   10.50    0.87
 -11   2   6   12.20    1.87
  11   2  -6   11.71    3.75
  11  -2  -6   10.39    4.26
  11   2  -5   10.39    3.55
 -11   2   5    8.13    1.60
  11  -2  -5   10.74    4.18
  11   2  -4   94.42    7.18
 -11   2   4   82.55    5.84
  11  -2  -4   93.16    8.24
 -11   2   3    2.18    1.26
  11   2  -3    7.53    2.41
  11  -2  -3    3.28    3.30
 -11  -2   3    1.69    0.70
 -11  -2   3    1.32    0.85
  11   2  -2   33.99    3.96
 -11   2   2   39.40    4.58
 -11   2   2   35.17    3.26
 -11  -2   2   42.17    3.27
 -11  -2   2   35.25    3.11
 -11   2   1   57.00    4.27
 -11   2   1   66.80    5.50
  11   2  -1   50.73    4.62
  11  -2  -1   55.55    5.90
 -11  -2   1   56.37    3.99
 -11  -2   1   42.83    4.32
  11   2   0   81.46    5.36
 -11   2   0   86.56    5.76
  11   2   0   82.83    6.10
 -11  -2   0   81.05    8.56
 -11  -2   0   77.88    5.56
 -11   2  -1    0.39    1.69
  11   2   1   -0.21    0.98
  11   2   1   -0.47    2.10
  11  -2   1    3.04    3.84
  11   2   2   21.26    2.14
  11   2   3   -0.34    1.18
 -11   2  -3    0.53    2.05
  11   2   4   22.63    2.51
  11   2   5    6.33    1.58
 -11   2  -5    7.16    2.86
  11   2   6   35.46    3.53
 -11   2  -6   39.33    5.11
  11   3  -9   25.82    5.40
  11  -3  -9    5.03    4.68
  11   3  -8    0.02    4.29
  11  -3  -8    2.75    4.12
 -11   3   7    1.53    2.04
  11   3  -7   -0.69    3.65
  11  -3  -7   -0.58    4.18
  11   3  -6   72.13    6.92
 -11   3   6   56.71    4.74
  11  -3  -6   64.08    8.14
 -11   3   5  100.90    7.03
  11   3  -5  113.64    8.36
  11  -3  -5  106.08    9.71
 -11   3   4   -0.37    1.44
  11   3  -4    0.17    2.17
  11  -3  -4    1.59    3.73
  11   3  -3   10.70    2.50
 -11   3   3    6.51    0.59
 -11   3   3    8.09    1.73
  11  -3  -3    8.12    3.80
 -11   3   2    0.81    0.24
 -11   3   2   -2.01    1.45
  11   3  -2    0.87    1.81
  11  -3  -2   -2.35    3.50
 -11  -3   2    0.68    1.04
 -11   3   1   54.66    4.41
  11   3  -1   47.45    4.50
 -11  -3   1   57.64    3.90
  11  -3  -1   44.86    6.29
  11   3   0   45.60    3.29
  11   3   0   37.89    4.08
 -11   3   0   53.77    4.19
  11   3   1    3.31    1.05
  11   3   1    3.52    1.94
 -11   3  -1    4.91    2.01
  11   3   2    0.92    1.09
 -11   3  -3   -1.68    2.27
  11   3   4   39.38    3.53
 -11   3  -4   54.28    5.47
  11   3   5   36.44    3.52
 -11   3  -5   51.31    5.70
  11   3   6    1.85    1.66
 -11   3  -6    1.67    3.35
  11   4  -8   14.95    4.48
 -11   4   8   17.04    3.54
  11  -4  -8    8.19    4.75
 -11   4   7   24.16    3.77
  11  -4  -7   19.10    5.36
 -11   4   6    1.51    1.93
  11   4  -6    6.94    3.15
  11  -4  -6    7.26    4.39
  11   4  -5   20.18    3.24
 -11   4   5   17.36    2.48
  11  -4  -5   23.95    5.04
 -11   4   4   22.03    2.83
  11   4  -4   28.56    3.99
  11  -4  -4   24.04    4.83
 -11   4   3   11.38    2.10
  11   4  -3   13.16    2.54
  11  -4  -3    9.81    3.81
  11   4  -2   61.93    5.02
 -11   4   2   65.06    4.95
  11  -4  -2   60.81    7.28
  11   4  -1    2.48    0.95
  11   4  -1    0.70    1.57
 -11   4   1    3.80    1.72
  11  -4  -1    2.02    3.55
  11   4   0    3.04    1.82
  11   4   0    0.78    0.92
 -11   4   0    2.12    1.76
  11   4   1   60.15    4.20
  11   4   1   57.08    4.96
 -11   4  -1   73.74    7.00
  11   4   2   15.77    2.07
 -11   4  -2   21.08    3.23
 -11   4  -3   41.26    4.68
  11   4   3   30.59    2.89
 -11   4  -4    2.52    2.72
  11   4   4    4.00    1.55
 -11   4  -5    7.08    3.23
  11   4   5    8.05    1.90
 -11   5   8    2.56    3.20
  11   5  -8   -1.29    3.94
  11  -5  -8    2.81    5.36
 -11   5   7   56.26    5.52
  11   5  -7   74.90    7.47
 -11   5   6   10.16    2.44
  11   5  -6   15.85    3.62
  11  -5  -6   11.98    4.62
  11   5  -5    3.77    2.55
 -11   5   5    1.18    2.13
  11  -5  -5   -6.69    4.09
  11   5  -4   24.99    3.22
 -11   5   4   19.52    2.98
  11  -5  -4   17.06    4.45
  11   5  -3   57.06    5.01
 -11   5   3   60.77    4.74
  11  -5  -3   61.15    9.56
  11   5  -2   12.02    2.24
 -11   5   2    7.19    2.36
 -11   5   1   -0.10    1.73
  11   5  -1    1.72    1.84
  11   5  -1    0.72    0.87
  11   5   0   22.18    2.09
  11   5   0   23.83    3.31
 -11   5   0   23.41    3.18
  11   5   1   14.58    2.46
  11   5   1   15.62    1.95
 -11   5  -1   16.92    2.77
  11   5   2    1.30    1.20
 -11   5  -2    4.12    2.33
 -11   5  -3   60.43    5.37
  11   5   3   53.65    4.24
 -11   5  -4   13.34    3.27
  11   5   4   15.53    2.20
 -11   5  -5   -0.53    3.03
  11   5   5    3.86    1.76
 -11   6   7    1.58    2.58
  11   6  -7    4.96    3.71
 -11   6   6   19.30    3.18
  11   6  -6   13.65    3.40
 -11   6   5   15.93    2.76
  11   6  -5   22.45    3.24
 -11   6   4    1.00    1.93
  11   6  -4    0.82    2.24
 -11   6   3    4.13    2.08
  11   6  -3    6.75    2.16
 -11   6   2    6.43    2.05
  11   6  -2    5.48    1.90
 -11   6   1   89.09    6.77
  11   6  -1   93.71    6.69
  11   6   0   12.07    1.79
  11   6   0   11.15    2.23
 -11   6   0   14.03    2.69
 -11   6  -1    2.99    2.31
  11   6   1    5.67    2.31
  11   6   1    4.20    1.26
  11   6   2   25.49    2.70
 -11   6  -2   33.54    4.15
 -11   6  -3    3.17    2.72
  11   6   3    2.45    1.51
  11   6   4   11.01    1.97
 -11   6  -4   19.86    3.55
  11   7  -6   -5.03    2.76
 -11   7   6   -1.10    2.43
 -11   7   5   38.42    4.32
  11   7  -5   36.54    5.06
  11   7  -4   17.79    2.91
 -11   7   4   18.05    3.01
 -11   7   3   11.04    2.48
  11   7  -3   10.13    2.37
 -11   7   2    7.23    2.30
  11   7  -2    7.05    2.31
 -11   7   1   19.23    2.95
  11   7  -1   16.04    2.64
  11   7   0   12.60    2.63
 -11   7   0    8.60    2.56
 -11   7  -1   38.82    4.50
  11   7   2    1.34    1.46
 -11   7  -2   -0.93    2.67
  11   7   3    6.71    1.80
 -11   7  -3   11.63    3.27
  11   8  -5   -2.40    2.57
 -11   8   5   -0.61    2.52
  11   8  -4    1.26    2.29
 -11   8   4   -3.20    2.47
 -11   8   3    0.96    2.36
  11   8  -3    3.82    2.38
 -11   8   2    0.73    2.27
  11   8  -2    5.87    2.43
  11   8  -1    3.45    2.24
 -11   8   1   -1.38    2.10
  11   8   0   36.47    4.57
 -11   8   0   31.95    4.37
 -11   8  -1   15.10    3.26
 -11   8  -2   15.30    3.67
  11   9  -3    1.86    2.39
 -11   9   3    0.98    2.60
  11   9  -2    2.42    2.44
 -11   9   2    1.88    2.51
  11   9  -1    0.16    2.28
 -11   9   0   -4.82    2.51
  12   0  -8   22.32    5.38
 -12   0   8   16.58    1.26
  12   0  -7   12.61    5.32
  12   0  -6   45.36    6.80
  12   0  -5   -3.58    3.53
  12   0  -4   54.06    6.72
 -12   0   4   51.43    3.72
 -12   0   3   -1.16    1.17
  12   0  -3   -1.24    2.76
 -12   0   2   84.15    5.70
  12   0  -1   -0.47    2.86
 -12   0   1   -0.35    1.37
 -12   0   0   99.84    6.73
 -12   0  -1    2.67    1.87
 -12   0  -2   72.90    5.59
  12   0   3    1.11    1.42
 -12   0  -3    0.12    2.19
 -12   0  -4   30.09    4.26
  12   0   4   29.80    3.09
  12   0   5    2.10    1.61
 -12   1   8   20.56    1.54
  12   1  -8   30.91    5.50
  12  -1  -8   33.05    6.26
  12   1  -7   53.71    8.06
 -12   1   7   34.60    2.24
  12  -1  -7   32.13    5.87
  12   1  -6    9.02    4.23
  12  -1  -6   18.50    4.95
 -12   1   5   57.96    4.34
  12   1  -5   64.64    7.14
  12  -1  -5   64.14    7.79
 -12   1   4   11.91    1.75
  12   1  -4   16.47    3.43
  12  -1  -4   13.27    4.18
 -12   1   3   39.30    3.54
  12   1  -3   47.38    5.37
  12  -1  -3   52.18    6.38
  12   1  -2   37.69    4.60
 -12   1   2   25.48    2.95
  12  -1  -2   31.39    4.36
 -12  -1   2   29.55    2.83
 -12   1   1    3.68    1.67
  12   1  -1    6.32    2.52
  12  -1  -1    7.23    3.41
 -12  -1   1    1.56    1.47
 -12   1   0    0.17    1.50
  12   1   0   -2.12    2.55
  12  -1   0   -0.90    2.93
 -12  -1   0    0.22    1.61
 -12   1  -1    5.94    2.11
 -12  -1  -1    6.19    2.00
  12   1   2   25.07    2.51
 -12   1  -3   51.25    4.58
  12   1   3   37.50    3.44
  12   1   4   10.22    1.86
 -12   1  -4   11.08    2.89
  12   1   5   35.44    3.59
 -12   1  -5   34.98    4.94
  12   2  -8    1.42    4.68
  12  -2  -8    0.39    5.34
  12   2  -7    2.09    4.17
  12  -2  -7    8.49    5.35
 -12   2   6   59.20    4.53
  12   2  -6   66.82    7.33
 -12   2   6   52.14    3.41
  12  -2  -6   55.98    8.73
  12   2  -5    3.86    3.09
 -12   2   5    1.37    1.55
  12  -2  -5    2.10    4.28
 -12   2   4  118.76    8.10
  12   2  -4  134.72    9.35
  12  -2  -4  125.08   10.49
  12   2  -3    5.27    2.61
 -12   2   3   -0.96    1.43
 -12  -2   3    1.54    0.96
  12  -2  -3    2.79    3.50
 -12   2   2    1.73    1.61
  12   2  -2    5.80    2.54
  12  -2  -2    0.71    3.62
 -12  -2   2    4.78    1.31
  12   2  -1   31.40    4.11
 -12   2   1   35.10    3.47
  12  -2  -1   42.99    5.93
 -12  -2   1   30.91    3.12
 -12   2   0   20.61    3.09
  12   2   0   25.69    3.31
 -12  -2   0   24.02    2.89
  12   2   1   23.54    2.50
  12   2   1   30.00    4.92
 -12   2  -2   -2.43    2.01
  12   2   2    0.68    1.16
 -12   2  -3    2.13    2.43
  12   2   3    1.39    1.34
 -12   2  -4   69.76    5.77
  12   2   4   52.79    4.38
  12   2   5   -1.46    1.47
 -12   2  -5    0.97    3.04
  12   3  -8    0.73    5.04
  12  -3  -8   -5.75    4.89
  12   3  -7    1.65    4.33
  12  -3  -7    2.40    5.66
  12   3  -6   54.53    6.55
 -12   3   6   44.12    4.29
  12  -3  -6   44.08    6.59
  12   3  -5  103.82    8.54
 -12   3   5   93.99    6.63
  12  -3  -5   88.29    9.72
 -12   3   4   34.52    3.61
  12   3  -4   43.37    4.81
  12  -3  -4   34.88    5.50
  12   3  -3    6.69    2.46
 -12   3   3    3.55    1.68
 -12   3   3    5.20    0.48
  12  -3  -3    7.79    4.34
  12   3  -2   13.31    2.54
 -12   3   2    9.98    2.21
  12  -3  -2   13.48    4.46
 -12  -3   2   13.45    1.69
 -12   3   1    3.51    1.85
  12   3  -1    5.53    2.27
 -12  -3   1    8.65    1.65
  12   3   0   -0.90    1.08
  12   3   0   -1.28    2.01
 -12   3   0    3.56    1.82
  12   3   1    8.63    1.42
  12   3   2    5.68    1.46
 -12   3  -2   10.02    2.54
 -12   3  -3    0.75    2.42
  12   3   3   -0.13    1.41
 -12   3  -4   13.27    3.35
  12   3   4   15.91    2.39
 -12   3  -5   30.62    5.27
  12   3   5   44.43    3.72
  12   4  -8   17.78    5.02
  12  -4  -8    6.80    5.99
  12   4  -7   29.28    4.70
  12  -4  -7   12.25    5.64
  12   4  -6   19.59    3.89
 -12   4   6   15.23    2.74
  12  -4  -6   20.02    5.70
 -12   4   5    0.94    1.90
  12   4  -5    4.67    2.90
  12  -4  -5    1.84    4.99
  12   4  -4   24.77    3.78
 -12   4   4   21.17    2.86
  12  -4  -4   22.92    5.24
 -12   4   3   77.61    5.82
  12   4  -3   81.46    6.38
  12  -4  -3   69.43    9.56
 -12   4   2   20.41    3.32
  12   4  -2   25.85    3.68
 -12   4   1    2.87    2.01
  12   4  -1    4.10    2.21
 -12  -4   1    4.85    1.50
  12   4   0    0.70    1.04
  12   4   0    0.07    1.85
 -12   4   0    0.56    2.43
 -12   4  -1    1.70    2.12
  12   4   1   -0.28    1.08
 -12   4  -2   28.55    3.67
  12   4   2   20.39    2.44
 -12   4  -3   58.78    5.50
  12   4   3   42.42    3.70
 -12   4  -4   13.84    3.35
  12   4   4   15.82    2.29
 -12   5   7   48.41    5.53
  12   5  -7   54.39    7.22
 -12   5   6    7.11    2.57
  12   5  -6    6.78    3.54
  12   5  -5    5.86    2.83
 -12   5   5    1.81    2.19
 -12   5   4    1.01    2.17
  12   5  -4    0.62    2.56
  12   5  -3   51.46    4.70
 -12   5   3   33.17    5.43
 -12   5   2   33.02    3.92
  12   5  -2   31.34    4.02
 -12   5   1   10.43    2.41
  12   5  -1   10.17    2.36
  12   5   0    0.70    2.18
  12   5   0   -1.54    1.03
 -12   5   0   -1.74    1.96
 -12   5  -1    9.43    2.70
  12   5   1    4.30    1.37
  12   5   2   18.28    2.51
 -12   5  -3   37.80    4.58
  12   5   3   32.48    3.27
  12   5   4    1.22    1.82
  12   6  -6    6.27    3.31
 -12   6   6    2.09    2.62
 -12   6   5    0.04    2.57
  12   6  -5    4.34    2.98
 -12   6   4    0.26    2.35
  12   6  -4    4.02    2.52
 -12   6   3   -1.05    2.12
  12   6  -3    4.65    2.31
  12   6  -2   22.79    4.50
 -12   6   2   20.43    3.03
 -12   6   1   39.90    4.57
  12   6  -1   41.86    4.33
  12   6   0   20.24    3.17
 -12   6   0   21.46    3.14
  12   6   1   37.24    4.16
 -12   6  -1   47.38    5.05
 -12   6  -2   28.36    4.21
  12   6   2   16.51    2.64
 -12   6  -3    8.47    3.04
  12   6   3    7.91    1.89
  12   7  -5   18.70    3.59
 -12   7   5   20.17    3.54
  12   7  -4   -3.24    2.39
 -12   7   4   -2.44    2.59
 -12   7   3    0.35    2.31
  12   7  -3   -0.28    2.05
 -12   7   2   12.83    2.71
  12   7  -2   10.20    2.58
  12   7  -1   44.62    4.75
 -12   7   1   39.66    4.55
  12   7   0   -1.38    2.84
 -12   7   0   -3.15    2.38
 -12   7  -1   49.53    5.54
 -12   7  -2    7.20    3.10
  12   8  -4    0.06    2.74
 -12   8   4    0.99    2.79
 -12   8   3   10.81    3.00
  12   8  -3   13.51    2.93
  12   8  -2    0.66    2.51
 -12   8   2    1.29    2.44
 -12   8   1    2.01    2.43
  12   8  -1    4.12    2.45
 -12   8   0   61.37    5.84
  13   0  -8   82.85   10.37
 -13   0   8   49.12    3.21
  13   0  -7   18.61    5.84
  13   0  -6  108.96   10.79
  13   0  -5    0.30    4.04
  13   0  -4   -0.30    3.66
 -13   0   4    0.19    1.91
 -13   0   3   -1.07    1.42
  13   0  -3    0.01    3.27
 -13   0   2    9.33    1.93
  13   0  -2   17.85    3.75
  13   0  -1    1.18    2.95
 -13   0   1    1.09    1.71
 -13   0   0    3.47    2.02
 -13   0  -1    0.50    2.13
 -13   0  -2  156.14   10.38
 -13   0  -3    2.33    2.54
 -13   0  -4   27.21    4.47
  13   1  -8   25.08    6.07
 -13   1   8   20.33    1.47
 -13   1   7   55.77    3.66
  13   1  -7   82.65    9.48
  13  -1  -7   69.42    8.56
  13   1  -6   35.64    5.56
  13   1  -5   10.28    3.99
  13  -1  -5    9.54    4.64
 -13   1   4    4.98    1.65
  13   1  -4    8.79    3.59
  13  -1  -4    3.27    3.93
  13   1  -3    2.68    3.26
 -13   1   3   -0.42    1.58
 -13  -1   3   -0.96    1.24
  13  -1  -3    1.02    3.39
 -13   1   2    1.30    1.65
  13   1  -2    6.61    3.10
  13  -1  -2    2.25    3.74
 -13  -1   2    3.54    1.62
 -13   1   1    2.03    1.88
  13   1  -1    2.23    2.61
 -13  -1   1    0.95    1.64
 -13   1   0   -0.78    1.90
 -13  -1   0   -1.22    1.82
 -13   1  -1   35.11    4.06
 -13  -1  -1   35.57    4.00
 -13   1  -2   23.50    3.67
 -13  -1  -2   16.51    2.89
 -13  -1  -3   76.42    6.32
 -13   1  -4   37.87    5.26
  13   1   4   24.71    3.10
  13   2  -8   17.69    5.76
  13  -2  -8   17.03    7.31
  13   2  -7    4.67    5.11
  13   2  -6   39.93    5.48
 -13   2   6   43.25    2.65
  13  -2  -6   43.62    7.17
  13   2  -5   16.97    5.26
 -13   2   5   14.71    2.32
  13  -2  -5   17.54    5.25
  13   2  -4   35.92    5.39
 -13   2   4   29.22    3.31
  13  -2  -4   29.55    5.20
  13   2  -3    3.92    2.68
  13  -2  -3    7.69    4.14
 -13   2   2   28.84    3.38
  13   2  -2   34.37    4.59
  13  -2  -2   29.05    4.98
 -13  -2   2   29.16    3.01
  13   2  -1    1.40    2.77
 -13   2   1    0.47    1.79
 -13  -2   1   -0.86    1.59
 -13   2   0   71.18    5.46
 -13  -2   0   64.00    5.29
 -13   2  -1   37.04    4.10
 -13  -2  -1   26.10    3.72
  13   2   2   21.98    2.70
  13   2   3    2.96    1.61
 -13   2  -3   -1.44    2.51
  13   2   4   23.19    3.03
 -13   2  -4   25.50    3.95
  13   3  -7    0.50    4.67
  13  -3  -7    3.51    6.38
  13   3  -6    5.73    3.50
 -13   3   6   -1.98    3.18
  13  -3  -6    1.60    5.89
  13   3  -5   61.45    6.44
 -13   3   5   50.87    4.87
  13  -3  -5   64.34    9.64
 -13   3   4   45.88    4.27
  13   3  -4   52.45    5.73
  13  -3  -4   40.80    6.38
  13   3  -3    3.60    2.68
 -13   3   3    1.83    1.85
 -13   3   2   -0.21    1.90
  13   3  -2    1.93    2.42
  13   3  -1    3.05    2.63
 -13   3   1   -0.43    1.97
 -13  -3   1    0.36    1.66
 -13   3   0   35.65    3.96
 -13  -3   0   39.20    3.88
 -13   3  -1   50.18    4.56
  13   3   1   36.96    3.39
 -13   3  -2    0.50    2.39
  13   3   2    0.90    1.43
  13   3   3    7.76    1.73
 -13   3  -3    6.63    2.81
  13   3   4    0.80    1.76
 -13   3  -4   -4.29    2.79
  13   4  -7    5.93    4.22
  13   4  -6   18.20    4.42
 -13   4   5    4.63    2.48
  13   4  -5    8.21    3.42
 -13   4   4    0.72    2.15
  13   4  -4    6.46    3.12
  13   4  -3   43.91    4.99
 -13   4   3   40.56    4.25
  13   4  -2   17.94    3.08
  13   4  -1   56.14    5.93
 -13   4   1   57.88    4.92
 -13   4   0    4.93    2.33
 -13   4  -1    5.32    2.63
  13   4   1    5.10    1.47
  13   4   2   30.52    3.18
 -13   4  -2   40.24    4.31
  13   4   3   -0.64    1.44
 -13   4  -3   -2.07    2.47
 -13   5   6    5.42    3.04
  13   5  -6    5.66    3.86
 -13   5   5   -1.45    2.43
  13   5  -5    1.46    2.91
 -13   5   4   12.31    2.73
  13   5  -4   15.76    3.21
  13   5  -3   40.07    4.92
 -13   5   3   36.35    4.36
 -13   5   2   -2.51    2.08
  13   5  -2   -2.32    2.33
 -13   5   1   17.01    2.94
  13   5  -1   10.15    2.74
 -13   5   0   16.67    3.09
 -13   5  -1    0.73    2.36
 -13   5  -2    6.57    2.76
  13   5   2    2.85    1.60
 -13   5  -3   40.04    5.15
  13   5   3   29.90    3.40
  13   6  -5   20.90    3.63
 -13   6   5   18.28    3.47
  13   6  -4    9.01    2.92
 -13   6   4    8.80    2.79
  13   6  -3    1.21    2.63
 -13   6   3    3.20    2.36
 -13   6   2   28.12    3.94
  13   6  -2   28.04    3.62
  13   6  -1    0.46    2.35
 -13   6   1    0.57    2.35
 -13   6   0   17.25    3.05
 -13   6  -1   45.82    5.03
 -13   6  -2    5.92    3.14
 -13   7   4    1.67    2.87
  13   7  -4    1.01    3.00
  13   7  -3    9.45    2.86
 -13   7   3    7.92    2.86
 -13   7   2   -2.52    2.32
  13   7  -2   -0.27    2.41
 -13   7   1   24.61    3.68
  13   7  -1   32.43    4.49
 -13   7   0    2.54    2.57
  14   0  -7   17.47    6.69
  14   0  -6   24.84    6.00
  14   0  -5    0.09    4.26
  14   0  -4   37.09    5.44
  14   0  -3   -5.01    3.60
 -14   0   3   -0.94    1.92
 -14   0   2   63.26    5.01
 -14   0   1    1.52    1.97
 -14   0   0   21.35    3.55
 -14   0  -1   -2.38    2.37
 -14   0  -2   87.46    6.84
 -14   0  -3    3.31    2.95
 -14   1   7   17.02    1.33
  14   1  -7   28.06    6.61
  14  -1  -7   21.19    7.45
  14   1  -6   27.83    5.96
  14  -1  -6   32.84    6.29
  14   1  -5    1.80    4.86
  14  -1  -5    4.13    5.24
  14   1  -4    9.04    4.00
  14  -1  -4    5.77    4.84
 -14   1   3   -1.25    1.85
  14   1  -3    5.20    3.74
  14  -1  -3    3.38    4.11
 -14   1   2    2.11    1.99
  14   1  -2    0.31    3.07
 -14  -1   2    3.78    1.85
 -14   1   1   48.83    4.40
 -14  -1   1   44.34    4.25
 -14   1   0    7.28    2.21
 -14  -1   0    3.92    2.26
 -14   1  -1   92.18    6.61
 -14  -1  -1   68.35    7.86
 -14   1  -2    0.72    2.87
 -14  -1  -2    7.59    2.91
 -14   1  -3   26.13    4.08
 -14  -1  -3   24.29    4.09
  14   2  -7   -1.06    4.79
  14  -2  -7   10.66    7.51
 -14   2   6    0.47    0.48
  14   2  -6    0.82    4.55
  14  -2  -6    4.57    6.04
  14   2  -5   15.50    3.96
  14  -2  -5   10.22    5.52
  14   2  -4   15.39    4.02
 -14   2   4    7.56    2.29
 -14   2   3   20.59    2.89
  14   2  -3   27.79    4.12
 -14   2   2    2.06    2.14
  14   2  -2    2.97    3.15
 -14   2   1    0.78    2.08
 -14  -2   1    0.85    1.87
 -14   2   0  149.64    9.30
 -14  -2   0  122.47    9.06
 -14   2  -1    2.30    2.38
 -14  -2  -1    6.96    2.68
 -14   2  -2   21.60    3.42
 -14  -2  -2   12.63    3.20
  14   2   3    6.59    1.99
 -14   2  -3    9.63    3.32
 -14  -2  -3    9.68    3.23
  14   3  -7   -3.66    4.78
  14   3  -6    1.25    3.59
 -14   3   5   11.24    3.40
  14   3  -5   17.31    3.94
  14   3  -4   -0.10    3.29
 -14   3   4    3.01    2.33
 -14   3   3    1.04    2.16
  14   3  -3    2.08    3.19
  14   3  -2   22.89    3.79
 -14   3   2   16.38    3.12
 -14   3   1    7.76    2.55
 -14   3   0    7.83    2.56
 -14  -3   0    8.77    2.54
 -14   3  -1   91.70    6.50
 -14  -3  -1   73.55    6.60
 -14   3  -2   37.30    4.30
  14   3   2   26.52    3.30
 -14   3  -3   -1.43    2.93
  14   3   3    4.98    1.88
  14   4  -6    8.09    4.36
  14   4  -5   -3.04    3.44
 -14   4   5   -1.69    2.65
 -14   4   4   -0.73    2.42
  14   4  -4    2.84    2.95
  14   4  -3    3.01    4.87
 -14   4   3    0.98    2.38
  14   4  -2   25.43    3.80
 -14   4   2   27.81    4.01
 -14   4   1   75.67    6.24
 -14   4   0    9.87    2.82
 -14   4  -1    8.37    3.01
 -14   4  -2   14.27    3.19
  14   4   2   10.71    2.09
  14   5  -5    0.52    3.56
 -14   5   5   -5.68    2.84
  14   5  -4   -2.28    2.96
 -14   5   4   -0.28    2.59
 -14   5   3   14.66    3.11
  14   5  -3   22.80    3.83
  14   5  -2   10.03    4.42
 -14   5   2   15.10    2.94
 -14   5   1   14.01    2.97
 -14   5   0    2.90    2.47
 -14   5  -1    1.97    2.71
  14   6  -4   12.51    3.52
 -14   6   4   13.18    3.30
  14   6  -3   38.68    5.88
 -14   6   3   39.58    5.11
  14   6  -2   11.28    3.30
 -14   6   2   21.13    3.29
 -14   6   1   -1.04    2.41
 -14   6   0    3.60    2.82
  15   0  -6    7.06    5.50
  15   0  -5   -2.82    4.80
 -15   0   1    0.41    2.29
 -15   0   0   12.89    3.37
 -15   0  -1   -2.14    2.67
 -15   0  -2   -2.26    2.96
  15   1  -6   10.41    5.34
  15  -1  -6   12.05    6.34
  15   1  -5   -5.84    4.64
  15   1  -4    6.77    4.51
 -15   1   2    1.72    2.30
 -15   1   1   93.51    7.02
 -15  -1   1   96.72    8.28
 -15  -1   0   16.42    2.95
 -15   1  -1   12.04    2.91
 -15  -1  -1    9.08    3.05
 -15   1  -2    4.97    3.35
 -15  -1  -2   10.21    3.65
  15   2  -6   -1.89    5.30
  15   2  -5    1.59    3.87
  15   2  -4   50.38    6.81
 -15   2   3   27.88    4.25
  15   2  -3   35.70    6.72
 -15   2   2    8.25    2.69
 -15   2   1    2.27    2.47
 -15   2   0   61.21    5.37
 -15   2  -1   11.46    3.03
 -15  -2  -1    6.88    3.12
 -15   2  -2   -2.06    2.70
 -15  -2  -2    9.41    3.47
  15   3  -5    8.88    4.20
  15   3  -4    6.35    3.67
  15   3  -3   14.04    4.45
 -15   3   3   16.83    3.04
 -15   3   2   -1.25    2.27
 -15   3   1   20.53    3.26
 -15   3   0    2.94    2.78
 -15   3  -1   54.87    5.33
  15   4  -5   21.20    4.46
  15   4  -4    6.96    3.95
 -15   4   4    1.32    2.96
  15   4  -3    2.42    3.75
 -15   4   3    1.47    2.70
 -15   4   2   27.81    4.48
 -15   4   1    2.44    2.79
 -15   4   0   -0.63    2.64
 -15   4  -1   35.21    5.08
 -15   5   3    2.91    2.87
  15   5  -3    9.04    4.84
 -15   5   2    1.88    2.87
 -15   5   1   24.53    3.78
 -16   0   0    4.89    2.88
 -16   1   1   16.89    3.26
 -16   1   0   20.90    3.55
 -16   2   2    0.55    3.16
 -16   2   1   16.37    3.36
 -16   2   0    3.00    3.09
 -16   3   2    7.09    3.01
 -16   3   1   -0.09    2.88
   0   0   0    0.00    0.00
;
_shelx_hkl_checksum              29618
loop_
_space_group_symop_operation_xyz
'x, y, z'
'-x, y+1/2, -z+1/2'
'-x, -y, -z'
'x, -y-1/2, z-1/2'
loop_
_atom_site_label
_atom_site_type_symbol
_atom_site_fract_x
_atom_site_fract_y
_atom_site_fract_z
_atom_site_U_iso_or_equiv
_atom_site_adp_type
_atom_site_occupancy
_atom_site_site_symmetry_order
_atom_site_calc_flag
_atom_site_refinement_flags_posn
_atom_site_refinement_flags_adp
_atom_site_refinement_flags_occupancy
Pd1 Pd 0.5000 0.5000 0.5000 0.00916(12) Uani 1 2 d S . P
Br1 Br 0.29110(4) 0.55308(5) 0.39700(6) 0.01541(13) Uani 1 1 d . . .
Br2 Br 0.54277(4) 0.70536(5) 0.29722(6) 0.01319(13) Uani 1 1 d . . .
N1 N 0.3293(4) -0.0505(5) 0.4507(6) 0.0159(9) Uani 1 1 d . . .
H1A H 0.3717 0.0214 0.4028 0.024 Uiso 1 1 calc R U .
H1B H 0.3535 -0.1488 0.4290 0.024 Uiso 1 1 calc R U .
H1C H 0.3396 -0.0351 0.5728 0.024 Uiso 1 1 calc R U .
C1 C 0.2037(5) -0.0328(6) 0.3647(8) 0.0211(11) Uani 1 1 d . . .
H1D H 0.1577 -0.1113 0.4165 0.025 Uiso 1 1 calc R U .
H1E H 0.1922 -0.0526 0.2323 0.025 Uiso 1 1 calc R U .
C2 C 0.1607(5) 0.1283(6) 0.3952(8) 0.0232(12) Uani 1 1 d . . .
H2A H 0.2098 0.2071 0.3499 0.028 Uiso 1 1 calc R U .
H2B H 0.1679 0.1458 0.5273 0.028 Uiso 1 1 calc R U .
C3 C 0.0351(6) 0.1498(8) 0.2988(9) 0.0395(16) Uani 1 1 d . . .
H3A H 0.0278 0.1320 0.1680 0.059 Uiso 1 1 calc R U .
H3B H 0.0100 0.2568 0.3189 0.059 Uiso 1 1 calc R U .
H3C H -0.0140 0.0747 0.3468 0.059 Uiso 1 1 calc R U .
loop_
_atom_site_aniso_label
_atom_site_aniso_U_11
_atom_site_aniso_U_22
_atom_site_aniso_U_33
_atom_site_aniso_U_23
_atom_site_aniso_U_13
_atom_site_aniso_U_12
Pd1 0.0103(3) 0.0091(2) 0.0083(2) 0.00064(16) 0.00267(18) -0.00016(18)
Br1 0.0116(3) 0.0154(2) 0.0191(2) 0.00110(17) 0.00266(19) 0.00072(17)
Br2 0.0167(3) 0.0124(2) 0.0113(2) 0.00220(15) 0.00471(18) -0.00170(17)
N1 0.013(2) 0.0167(19) 0.019(2) 0.0001(15) 0.0041(17) 0.0009(16)
C1 0.017(3) 0.022(2) 0.024(3) -0.003(2) 0.002(2) -0.003(2)
C2 0.014(3) 0.024(3) 0.030(3) 0.001(2) 0.001(2) 0.004(2)
C3 0.024(4) 0.047(4) 0.045(4) 0.012(3) 0.001(3) 0.013(3)
loop_
_atom_type_symbol
_atom_type_description
_atom_type_scat_dispersion_real
_atom_type_scat_dispersion_imag
_atom_type_scat_source
C C 0.0033 0.0016 'International Tables Vol C Tables 4.2.6.8 and 6.1.1.4'
H H 0.0000 0.0000 'International Tables Vol C Tables 4.2.6.8 and 6.1.1.4'
N N 0.0061 0.0033 'International Tables Vol C Tables 4.2.6.8 and 6.1.1.4'
Br Br -0.2901 2.4595 'International Tables Vol C Tables 4.2.6.8 and 6.1.1.4'
Pd Pd -0.9988 1.0072 'International Tables Vol C Tables 4.2.6.8 and 6.1.1.4'
loop_
_geom_angle_atom_site_label_1
_geom_angle_atom_site_label_2
_geom_angle_atom_site_label_3
_geom_angle
_geom_angle_site_symmetry_1
_geom_angle_site_symmetry_3
Br2 Pd1 Br2 179.999(15) . 3_666
Br2 Pd1 Br1 90.392(17) . 3_666
Br2 Pd1 Br1 89.609(17) 3_666 3_666
Br2 Pd1 Br1 89.608(17) . .
Br2 Pd1 Br1 90.391(17) 3_666 .
Br1 Pd1 Br1 180.0 3_666 .
C1 N1 H1A 109.5 . .
C1 N1 H1B 109.5 . .
H1A N1 H1B 109.5 . .
C1 N1 H1C 109.5 . .
H1A N1 H1C 109.5 . .
H1B N1 H1C 109.5 . .
N1 C1 C2 111.2(4) . .
N1 C1 H1D 109.4 . .
C2 C1 H1D 109.4 . .
N1 C1 H1E 109.4 . .
C2 C1 H1E 109.4 . .
H1D C1 H1E 108.0 . .
C1 C2 C3 111.3(5) . .
C1 C2 H2A 109.4 . .
C3 C2 H2A 109.4 . .
C1 C2 H2B 109.4 . .
C3 C2 H2B 109.4 . .
H2A C2 H2B 108.0 . .
C2 C3 H3A 109.5 . .
C2 C3 H3B 109.5 . .
H3A C3 H3B 109.5 . .
C2 C3 H3C 109.5 . .
H3A C3 H3C 109.5 . .
H3B C3 H3C 109.5 . .
loop_
_geom_bond_atom_site_label_1
_geom_bond_atom_site_label_2
_geom_bond_distance
_geom_bond_site_symmetry_2
Pd1 Br2 2.4414(5) .
Pd1 Br2 2.4414(5) 3_666
Pd1 Br1 2.4532(6) 3_666
Pd1 Br1 2.4532(6) .
N1 C1 1.489(7) .
N1 H1A 0.9100 .
N1 H1B 0.9100 .
N1 H1C 0.9100 .
C1 C2 1.497(7) .
C1 H1D 0.9900 .
C1 H1E 0.9900 .
C2 C3 1.512(8) .
C2 H2A 0.9900 .
C2 H2B 0.9900 .
C3 H3A 0.9800 .
C3 H3B 0.9800 .
C3 H3C 0.9800 .
loop_
_geom_torsion_atom_site_label_1
_geom_torsion_atom_site_label_2
_geom_torsion_atom_site_label_3
_geom_torsion_atom_site_label_4
_geom_torsion
N1 C1 C2 C3 176.7(5)
