#------------------------------------------------------------------------------
#$Date: 2017-04-04 15:51:18 +0300 (Tue, 04 Apr 2017) $
#$Revision: 194778 $
#$URL: file:///home/coder/svn-repositories/cod/cif/4/00/27/4002721.cif $
#------------------------------------------------------------------------------
#
# This file is available in the Crystallography Open Database (COD),
# http://www.crystallography.net/
#
# All data on this site have been placed in the public domain by the
# contributors.
#
data_4002721
loop_
_publ_author_name
'M\;aczka, Miros\/law'
'G\;agor, Anna'
'Ptak, Maciej'
'Paraguassu, Waldeci'
'da Silva, Tercio Almeida'
'Sieradzki, Adam'
'Pikul, Adam'
_publ_section_title
;
 Phase Transitions and Coexistence of Magnetic and Electric Orders in the
 Methylhydrazinium Metal Formate Frameworks
;
_journal_issue                   5
_journal_name_full               'Chemistry of Materials'
_journal_page_first              2264
_journal_paper_doi               10.1021/acs.chemmater.6b05249
_journal_volume                  29
_journal_year                    2017
_chemical_formula_sum            'C8 H20 Mn2 N4 O12'
_chemical_formula_weight         474.16
_space_group_crystal_system      triclinic
_space_group_IT_number           1
_space_group_name_Hall           'P 1'
_space_group_name_H-M_alt        'P 1'
_symmetry_space_group_name_Hall  'P 1'
_symmetry_space_group_name_H-M   'P 1'
_atom_sites_solution_hydrogens   mixed
_audit_creation_method           SHELXL-2014/7
_cell_angle_alpha                63.28(3)
_cell_angle_beta                 63.31(3)
_cell_angle_gamma                60.06(3)
_cell_formula_units_Z            1
_cell_length_a                   8.198(2)
_cell_length_b                   8.200(2)
_cell_length_c                   8.933(3)
_cell_measurement_reflns_used    1860
_cell_measurement_temperature    100.0(4)
_cell_measurement_theta_max      28.9230
_cell_measurement_theta_min      2.9810
_cell_volume                     444.8(3)
_computing_cell_refinement
;
CrysAlisPro, Agilent Technologies,
Version 1.171.37.35h (release 09-02-2015 CrysAlis171 .NET)
(compiled Feb  9 2015,16:26:32)
;
_computing_data_collection
;
CrysAlisPro, Agilent Technologies,
Version 1.171.37.35h (release 09-02-2015 CrysAlis171 .NET)
(compiled Feb  9 2015,16:26:32)
;
_computing_data_reduction
;
CrysAlisPro, Agilent Technologies,
Version 1.171.37.35h (release 09-02-2015 CrysAlis171 .NET)
(compiled Feb  9 2015,16:26:32)
;
_computing_structure_refinement  'SHELXL-2014/7 (Sheldrick, 2014)'
_diffrn_ambient_environment      N~2~
_diffrn_ambient_temperature      100.0(4)
_diffrn_detector                 'CCD plate'
_diffrn_detector_area_resol_mean 10.6249
_diffrn_detector_type            Atlas
_diffrn_measured_fraction_theta_full 0.945
_diffrn_measured_fraction_theta_max 0.862
_diffrn_measurement_device       'four-circle diffractometer'
_diffrn_measurement_device_type  'Xcalibur, Atlas'
_diffrn_radiation_monochromator  graphite
_diffrn_radiation_probe          x-ray
_diffrn_radiation_type           'Mo K\a'
_diffrn_radiation_wavelength     0.71073
_diffrn_reflns_av_R_equivalents  0.0412
_diffrn_reflns_av_unetI/netI     0.0537
_diffrn_reflns_Laue_measured_fraction_full 0.945
_diffrn_reflns_Laue_measured_fraction_max 0.862
_diffrn_reflns_limit_h_max       10
_diffrn_reflns_limit_h_min       -10
_diffrn_reflns_limit_k_max       11
_diffrn_reflns_limit_k_min       -11
_diffrn_reflns_limit_l_max       11
_diffrn_reflns_limit_l_min       -12
_diffrn_reflns_number            5320
_diffrn_reflns_point_group_measured_fraction_full 0.945
_diffrn_reflns_point_group_measured_fraction_max 0.862
_diffrn_reflns_theta_full        28.000
_diffrn_reflns_theta_max         29.232
_diffrn_reflns_theta_min         2.668
_diffrn_source                   'Enhance (Mo) X-ray Source'
_exptl_absorpt_coefficient_mu    1.487
_exptl_absorpt_correction_T_max  1.00000
_exptl_absorpt_correction_T_min  0.26827
_exptl_absorpt_correction_type   multi-scan
_exptl_absorpt_process_details
;
CrysAlisPro, Agilent Technologies,
Version 1.171.37.35h (release 09-02-2015 CrysAlis171 .NET)
(compiled Feb  9 2015,16:26:32)
Empirical absorption correction using spherical harmonics,
 implemented in SCALE3 ABSPACK scaling algorithm.
;
_exptl_crystal_density_diffrn    1.770
_exptl_crystal_description       prism
_exptl_crystal_F_000             242
_exptl_crystal_size_max          0.20
_exptl_crystal_size_mid          0.18
_exptl_crystal_size_min          0.17
_refine_diff_density_max         2.013
_refine_diff_density_min         -1.366
_refine_diff_density_rms         0.185
_refine_ls_abs_structure_details
;
 Refined as an inversion twin.
;
_refine_ls_abs_structure_Flack   0.40(10)
_refine_ls_extinction_method     none
_refine_ls_goodness_of_fit_ref   1.052
_refine_ls_hydrogen_treatment    constr
_refine_ls_matrix_type           full
_refine_ls_number_parameters     238
_refine_ls_number_reflns         3269
_refine_ls_number_restraints     33
_refine_ls_restrained_S_all      1.054
_refine_ls_R_factor_all          0.1014
_refine_ls_R_factor_gt           0.0892
_refine_ls_shift/su_max          0.013
_refine_ls_shift/su_mean         0.002
_refine_ls_structure_factor_coef Fsqd
_refine_ls_weighting_details
'w=1/[\s^2^(Fo^2^)+(0.1300P)^2^+4.0000P] where P=(Fo^2^+2Fc^2^)/3'
_refine_ls_weighting_scheme      calc
_refine_ls_wR_factor_gt          0.2349
_refine_ls_wR_factor_ref         0.2484
_reflns_Friedel_coverage         1.000
_reflns_Friedel_fraction_full    0.945
_reflns_Friedel_fraction_max     0.862
_reflns_number_gt                2762
_reflns_number_total             3269
_reflns_threshold_expression     'I > 2\s(I)'
_cod_data_source_file            cm6b05249_si_006.cif
_cod_data_source_block           MHyMn100K
_cod_depositor_comments
'Adding full bibliography for 4002715--4002727.cif.'
_cod_database_code               4002721
_shelx_shelxl_version_number     2014/7
_shelx_space_group_comment
;
The symmetry employed for this shelxl refinement is uniquely defined
by the following loop, which should always be used as a source of
symmetry information in preference to the above space-group names.
They are only intended as comments.
;
_shelx_res_file
;

    p1.res created by SHELXL-2014/7


TITL p1 in P1
CELL 0.71073   8.198   8.200   8.933  63.28  63.31  60.06
ZERR    1   0.002   0.002   0.003   0.03   0.03   0.03
LATT -1
SFAC C H N O MN
UNIT 8 20 4 12 2
acta 56
L.S. 20
BOND
FMAP 2
PLAN 20
twin
omit 1 1 0
omit -1 -1 0
WGHT    0.130000    4.000000
BASF   0.39529
FVAR       0.80584
MOLE   1
isor 0.005  o1 o6 o11 c13 c14
MN1   5    0.727078    0.767586    0.100630    11.00000    0.02309    0.02420 =
         0.01430   -0.00323   -0.00479   -0.00741
MN2   5    1.232637    0.261951    0.601119    11.00000    0.02319    0.02358 =
         0.01555   -0.00383   -0.00569   -0.00699
O1    4    1.196943   -0.022296    0.760590    11.00000    0.03176    0.02491 =
         0.00847   -0.00417   -0.00409   -0.01394
O2    4    0.700967    0.918794    0.259855    11.00000    0.03155    0.03090 =
         0.01287   -0.01206    0.00114   -0.00817
O3    4    0.447559    0.733094    0.259013    11.00000    0.03183    0.02450 =
         0.06965   -0.00876   -0.01598   -0.01123
O4    4    1.368953    0.227186    0.773698    11.00000    0.04755    0.00975 =
         0.04436   -0.00335   -0.03198   -0.00426
O5    4    0.766996    0.617524   -0.070538    11.00000    0.02254    0.04405 =
         0.05112   -0.02576   -0.01223   -0.01025
O6    4    1.010585    0.803074   -0.061454    11.00000    0.02128    0.02439 =
         0.00961   -0.00226    0.00118   -0.00938
O7    4    0.949923    0.423381    0.753372    11.00000    0.01192    0.06136 =
         0.03993   -0.02998   -0.00045   -0.00431
O8    4    1.068549    0.290237    0.443197    11.00000    0.01941    0.03603 =
         0.01765   -0.00369   -0.00516   -0.00950
O9    4    0.888941    0.480041    0.257524    11.00000    0.03176    0.02056 =
         0.02749   -0.00245   -0.01520   -0.00770
O10   4    1.266725    0.538679    0.434829    11.00000    0.01099    0.02495 =
         0.07085   -0.00301   -0.00595   -0.00441
O11   4    1.516587    0.102416    0.443199    11.00000    0.03135    0.02360 =
         0.02165   -0.01931    0.00114   -0.00640
O12   4    0.564807    1.047372   -0.052670    11.00000    0.04820    0.03275 =
         0.02991    0.00676   -0.03228   -0.00982

C13   1    0.974262    0.458092    0.349960    11.00000    0.02843    0.02546 =
         0.02588    0.00016   -0.01504   -0.01001
AFIX  43
H13   2    0.971849    0.570517    0.354286    11.00000   -1.20000
AFIX   0
C14   1    0.423569    0.567212    0.339507    11.00000    0.02428    0.01955 =
         0.01456   -0.00076    0.00148   -0.01243
AFIX  43
H14   2    0.536273    0.455383    0.325015    11.00000   -1.20000
AFIX   0
C15   1    1.035465   -0.041144    0.836876    11.00000    0.03244    0.02945 =
         0.04440   -0.01342   -0.02204   -0.00533
AFIX  43
H15   2    0.924269    0.069909    0.816458    11.00000   -1.20000
AFIX   0
C16   1    0.926385    0.525071   -0.150323    11.00000    0.02717    0.03350 =
         0.01364   -0.00929   -0.00057   -0.01701
AFIX  43
H16   2    1.037720    0.523971   -0.145110    11.00000   -1.20000
AFIX   0
C17   1    0.545079    1.024869    0.344719    11.00000    0.02951    0.01268 =
         0.05959   -0.01012   -0.01582   -0.00639
AFIX  43
H17   2    0.431567    1.046406    0.327051    11.00000   -1.20000
AFIX   0
C18   1    1.472185    0.075680    0.851108    11.00000    0.03178    0.04626 =
         0.03889   -0.01727   -0.01183   -0.01286
AFIX  43
H18   2    1.486108   -0.037556    0.838464    11.00000   -1.20000
AFIX   0

mole 2
N1    3    1.074728    1.007070   -0.646013    11.00000    0.05643    0.02144 =
         0.04758   -0.00713   -0.01302   -0.01531
AFIX  23
H1A   2    1.191317    0.908652   -0.657976    11.00000   -1.20000
H1B   2    1.087370    1.102683   -0.635298    11.00000   -1.20000
AFIX   0
C1    1    1.006266    1.084168   -0.808343    11.00000    0.08037    0.07977 =
         0.02748    0.00620   -0.02431   -0.04751
AFIX 133
H1C   2    0.877434    1.185480   -0.792107    11.00000   -1.50000
H1D   2    1.002111    0.978180   -0.824245    11.00000   -1.50000
H1E   2    1.096562    1.136923   -0.909904    11.00000   -1.50000
AFIX   0
N2    3    0.930810    0.938522   -0.490130    11.00000    0.02004    0.03232 =
         0.01678    0.00582   -0.00252   -0.00943
AFIX   7
H2A   2    0.942996    0.821723   -0.485332    11.00000   -1.50000
H2C   2    0.808876    1.024919   -0.492913    11.00000   -1.50000
AFIX   0

MOLE   2
N3    3    0.405854    0.468043    0.012266    11.00000    0.04103    0.02762 =
         0.02154   -0.01182    0.00442   -0.00897
AFIX   7
H3A   2    0.498538    0.347161    0.021282    11.00000   -1.50000
H3C   2    0.298209    0.467684    0.010237    11.00000   -1.50000
AFIX   0
C2    1    0.553119    0.533253   -0.310281    11.00000    0.10708    0.09050 =
         0.03838   -0.02812   -0.00229   -0.06668
AFIX 133
H2D   2    0.445925    0.529815   -0.324939    11.00000   -1.50000
H2E   2    0.651855    0.403202   -0.290014    11.00000   -1.50000
H2F   2    0.608905    0.619459   -0.414171    11.00000   -1.50000
AFIX   0
N4    3    0.477291    0.609010   -0.152810    11.00000    0.02122    0.09613 =
         0.04311   -0.01891   -0.01086   -0.02418
AFIX  23
H4A   2    0.573693    0.623710   -0.145477    11.00000   -1.20000
H4B   2    0.379643    0.725854   -0.167821    11.00000   -1.20000
MOLE   3
AFIX   0
HKLF 4

REM  p1 in P1
REM R1 =  0.0892 for    2762 Fo > 4sig(Fo)  and  0.1014 for all    3269 data
REM    238 parameters refined using     33 restraints

END

WGHT      0.0913      4.8055

REM Highest difference peak  2.013,  deepest hole -1.366,  1-sigma level  0.185
Q1    1   0.5674  0.4224 -0.1429  11.00000  0.05    2.01
Q2    1   0.8836  1.1073 -0.6386  11.00000  0.05    1.83
Q3    1   0.8420  0.7454  0.1070  11.00000  0.05    1.43
Q4    1   0.6156  0.7908  0.0956  11.00000  0.05    1.31
Q5    1   1.2071  0.3775  0.5927  11.00000  0.05    1.28
Q6    1   1.3402  0.2415  0.6053  11.00000  0.05    1.25
Q7    1   0.7049  0.8803  0.0951  11.00000  0.05    1.24
Q8    1   1.2543  0.1431  0.6174  11.00000  0.05    1.24
Q9    1   1.1273  0.2891  0.6039  11.00000  0.05    1.12
Q10   1   0.7460  0.6516  0.1019  11.00000  0.05    1.02
Q11   1   0.7738  0.7805  0.0038  11.00000  0.05    0.89
Q12   1   0.6790  0.7534  0.1953  11.00000  0.05    0.81
Q13   1   0.9004  0.3616  0.2789  11.00000  0.05    0.81
Q14   1   0.3927  0.6158 -0.1549  11.00000  0.05    0.75
Q15   1   1.2901  0.2594  0.4961  11.00000  0.05    0.73
Q16   1   0.5780  0.7141  0.2357  11.00000  0.05    0.71
Q17   1   1.0160  0.3012  0.7422  11.00000  0.05    0.67
Q18   1   1.1782  0.2512  0.6959  11.00000  0.05    0.66
Q19   1   0.4250  0.9081  0.4083  11.00000  0.05    0.64
Q20   1   1.0781  0.9175 -0.6488  11.00000  0.05    0.63
;
_shelx_res_checksum              79894
_shelx_hkl_file
;
  -1  -1  -1   15.80    1.83
   2   2   2  142.46    6.76
  -2  -2  -2  114.04    3.80
  -2  -2  -2  107.11    6.85
   2   2   2  130.54    3.83
   3   3   3    9.49    2.50
   3   3   3    9.66    1.35
  -3  -3  -3    7.24    1.26
  -3  -3  -3    6.94    2.75
   4   4   4 1245.87   15.30
   4   4   4 1205.96   28.75
   5   5   5   19.10    1.97
  -5  -5  -5   20.27    4.55
   6   6   6  151.71    5.78
  -6  -6  -6  372.26   20.80
  -7  -7  -7   -0.71    3.19
  -8  -8  -8   16.68    5.46
  -1   1   0 1478.01   16.67
   1  -1   0 1459.41   16.50
   1  -1   0 1424.63   19.33
   1  -1   0 1469.06   17.66
  -1   1   0 1410.12   19.07
  -1   1   0 1423.98   15.91
  -1   1   0 1494.64   17.82
   1  -1   0 1369.52   16.76
  -2   0  -1   50.34    3.87
   0   2   1   45.20    3.08
   0   2   1   40.80    3.91
   0  -2  -1   43.47    2.96
  -2   0  -1   44.37    3.52
   0  -2  -1   45.50    3.66
   2   0   1   45.68    3.65
  -2   0  -1   46.57    3.24
   2   0   1   43.23    3.00
   0  -2  -1   46.64    4.22
  -2   0  -1   44.20    3.63
   0   2   1   40.86    3.55
  -1  -3  -2   26.26    3.51
   1   3   2   19.53    3.13
   3   1   2   21.10    3.09
  -3  -1  -2   20.23    3.23
  -3  -1  -2   15.35    1.67
   1   3   2   18.47    2.91
  -1  -3  -2   12.50    2.88
  -1  -3  -2   20.27    2.71
  -2  -4  -3  159.73    8.67
   4   2   3  168.73    9.72
  -2  -4  -3  161.57    8.63
   2   4   3  191.41    9.32
  -2  -4  -3  179.66   10.03
  -2  -4  -3  176.45    9.78
  -4  -2  -3  161.15    9.69
  -3  -5  -4  342.57   13.96
  -5  -3  -4  372.04   16.22
   5   3   4  333.85   15.58
   3   5   4  362.47   13.16
  -3  -5  -4  384.98   16.33
  -3  -5  -4  327.79   14.96
  -3  -5  -4  347.57   16.20
  -4  -6  -5   18.58    4.12
  -6  -4  -5   17.63    4.83
  -4  -6  -5   17.66    4.25
  -4  -6  -5   16.37    4.50
   4   6   5   18.36    3.47
  -5  -7  -6   66.84    8.88
  -7  -5  -6   70.90    9.10
  -5  -7  -6   59.27    8.62
  -6  -8  -7    7.38    4.18
  -8  -6  -7    1.10    3.62
  -6  -8  -7    3.49    3.22
  -7  -9  -8   31.65    9.79
  -9  -7  -8   47.55    9.63
  -7  -9  -8   55.40   10.54
  -2   2   0  796.66   16.93
   2  -2   0  745.28   17.36
   2  -2   0  775.75   18.90
  -2   2   0  759.72   20.70
  -2   2   0  782.82   18.38
   2  -2   0  792.97   17.62
   2  -2   0  771.77   19.56
   3  -1   1   54.26    4.97
   3  -1   1   51.55    5.37
   1  -3  -1   49.25    5.45
  -1   3   1   61.81    6.14
  -3   1  -1   51.39    4.83
  -1   3   1   57.82    5.39
  -3   1  -1   60.13    5.48
   1  -3  -1   53.58    4.44
   1  -3  -1   51.60    4.58
  -1   3   1   52.44    4.30
  -3   1  -1   52.06    4.83
  -3   1  -1   52.85    4.86
   3  -1   1   49.27    4.83
   3  -1   1   57.90    5.36
   1  -3  -1   53.46    5.15
   4   0   2  971.24   23.32
   0   4   2  997.90   25.64
   0  -4  -2  962.51   20.07
   0  -4  -2 1030.41   23.99
  -4   0  -2 1005.92   23.50
  -4   0  -2  964.87   23.25
  -4   0  -2 1042.22   21.58
  -4   0  -2  936.77   24.00
   0   4   2  960.08   23.96
   0   4   2  924.80   19.74
   4   0   2 1070.42   19.17
   4   0   2 1005.99   20.44
   0  -4  -2 1116.25   27.02
  -5  -1  -3   87.05    5.43
  -1  -5  -3   81.18    7.71
  -1  -5  -3   74.31    6.31
  -5  -1  -3   91.29    7.72
   1   5   3   96.57    8.54
  -1  -5  -3   78.00    7.30
  -5  -1  -3   86.11    7.83
  -5  -1  -3   78.68    7.36
   1   5   3   93.10    8.16
   5   1   3   78.30    7.31
  -6  -2  -4  534.64   21.13
  -2  -6  -4  545.08   20.36
  -6  -2  -4  559.82   21.30
  -2  -6  -4  575.49   21.62
  -2  -6  -4  497.89   17.72
  -3  -7  -5    8.69    3.73
  -3  -7  -5   13.50    4.36
  -7  -3  -5   12.45    4.22
  -3  -7  -5   11.07    3.25
  -4  -8  -6  154.45   13.73
  -4  -8  -6  144.03   13.70
  -8  -4  -6  152.75   14.55
  -4  -8  -6  122.15   11.24
  -5  -9  -7    4.05    3.41
  -9  -5  -7    4.63    4.73
  -5  -9  -7    6.11    4.34
  -6 -10  -8  -10.24    5.81
  -6 -10  -8   15.84    6.44
   3  -3   0   16.65    4.00
   3  -3   0   21.26    4.54
  -3   3   0   30.68    4.59
  -3   3   0   23.06    4.66
   3  -3   0   25.42    6.19
   3  -3   0   15.35    4.49
   4  -2   1   52.69    5.97
   4  -2   1   57.73    6.63
  -4   2  -1   56.82    5.92
  -4   2  -1   64.68    7.46
  -4   2  -1   56.59    6.25
  -4   2  -1   55.08    6.28
   4  -2   1   59.03    6.77
  -2   4   1   55.79    5.47
   2  -4  -1   48.90    5.43
  -2   4   1   57.78    6.49
   2  -4  -1   57.27    7.15
   2  -4  -1   55.43    5.71
  -5   1  -2  396.93   16.91
   1  -5  -2  444.63   21.30
  -5   1  -2  436.82   17.94
  -1   5   2  411.42   18.62
  -1   5   2  356.94   14.16
   5  -1   2  465.26   17.97
   1  -5  -2  347.04   14.89
   1  -5  -2  341.39   13.74
  -5   1  -2  374.12   16.57
  -6   0  -3   29.38    5.18
   0   6   3   30.34    5.58
  -6   0  -3   32.32    5.52
   0  -6  -3   26.90    4.21
   6   0   3   23.36    3.77
  -6   0  -3   31.46    4.76
   0  -6  -3   32.13    6.04
   0   6   3   25.62    4.35
  -7  -1  -4   68.39    6.17
  -1  -7  -4   59.32    8.59
  -7  -1  -4   65.53    8.14
   7   1   4   57.79    6.41
   1   7   4   72.86    9.09
  -7  -1  -4   60.35    7.98
  -1  -7  -4   63.56    6.89
  -8  -2  -5   97.94   11.17
   8   2   5  115.46   10.05
  -2  -8  -5  115.13   11.43
  -8  -2  -5  113.53   11.72
  -2  -8  -5   95.19    8.99
  -2  -8  -5  115.27   12.62
   9   3   6  153.75   12.67
  -3  -9  -6  124.91   11.32
  -3  -9  -6  148.64   14.71
  -3  -9  -6  140.07   13.29
  -9  -3  -6  122.54   13.79
  -9  -3  -6  133.40   13.94
  -4 -10  -7    8.92    5.34
  -4 -10  -7    0.01    3.28
 -10  -4  -7   11.27    5.13
  10   4   7   10.08    4.81
   4  -4   0  237.16   15.22
  -4   4   0  244.65   15.68
  -3   5   1   17.82    5.01
   5  -3   1   24.98    5.89
   3  -5  -1   23.21    6.75
  -5   3  -1   10.03    3.81
   3  -5  -1   17.09    4.20
   2  -6  -2  145.74   13.96
  -6   2  -2  113.27   11.03
  -6   2  -2  127.80   11.21
   2  -6  -2  121.68    9.78
  -2   6   2  135.00   12.52
  -1   7   3   50.48    8.09
   1  -7  -3   59.58    9.70
   1  -7  -3   41.14    5.89
  -7   1  -3   46.03    7.52
  -7   1  -3   47.96    7.49
   0  -8  -4   53.64    6.84
  -8   0  -4   64.61    9.10
  -8   0  -4   62.77    8.72
   0   8   4   72.77   10.44
   0  -8  -4   62.34   10.15
  -1  -9  -5   -2.21    4.47
   9   1   5    0.54    2.09
  -1  -9  -5    6.68    3.87
  -9  -1  -5    3.08    4.26
  -9  -1  -5    1.37    2.92
 -10  -2  -6  127.39   13.94
   5  -5   0  176.62   16.92
  -5   5   0   30.72    7.08
   4  -6  -1    1.04    3.15
  -4   6   1    0.06    3.62
  -6   4  -1    0.41    3.73
  -3   7   2   16.18    5.98
  -7   3  -2   20.94    6.27
  -8   2  -3   -1.18    3.50
  -8   2  -3    0.91    3.73
  -2   8   3   -3.50    4.42
  -9   1  -4   58.05    9.72
  -8  -9  -9    9.86    4.24
  -8  -7  -8   -1.12    3.53
  -7  -8  -8    1.13    3.51
  -7  -8  -8    2.41    3.12
  -6  -7  -7  132.17   13.53
  -7  -6  -7  122.70   13.16
   5   6   6   70.37    5.39
  -6  -5  -6   48.85    7.71
  -5  -6  -6   56.34    7.90
   4   5   5  194.66    8.84
  -5  -4  -5  220.35   13.23
   4   5   5  195.47   12.23
  -4  -5  -5  185.69   12.80
  -3  -4  -4   31.23    4.46
   3   4   4   30.12    3.22
   3   4   4   27.92    4.11
  -3  -4  -4   23.79    3.47
   4   3   4   31.81    4.54
  -4  -3  -4   32.07    4.59
  -3  -2  -3  899.61   20.15
  -2  -3  -3  887.37   18.94
  -2  -3  -3  915.13   16.59
   2   3   3  911.36   18.65
  -2  -3  -3  828.16   19.83
   2   3   3  856.34   15.28
   3   2   3  900.14   19.87
  -2  -1  -2 1121.71   18.68
  -1  -2  -2 1158.62   16.89
   2   1   2 1199.03   18.28
  -1  -2  -2 1061.09   16.09
   1   2   2 1120.51   18.62
  -1  -2  -2 1209.29   18.56
   1   2   2 1061.69   15.63
  -1  -2  -2 1190.58   17.59
   0   1   1 1548.68   15.47
   0  -1  -1 1509.78   16.52
   1   0   1 1527.96   12.90
  -1   0  -1 1588.15   16.27
   0   1   1 1559.51   16.48
  -1   0   0   19.60    1.92
  -1   0   0    2.48    0.87
  -1   0   0   18.67    1.85
   0   1   0   19.17    1.47
   1   0   0   15.20    1.45
   1   0   0    2.03    0.99
   0  -1   0   19.75    1.96
  -1  -2  -1 1478.34   18.53
  -2  -1  -1 1375.15   19.33
   2   1   1 1420.65   18.63
   1   2   1 1279.04   16.78
  -1  -2  -1 1320.27   17.33
  -2  -3  -2  303.38    9.18
   3   2   2  348.25   11.94
   2   3   2  322.59    9.30
  -2  -3  -2  348.79   12.06
  -3  -2  -2  321.57   11.79
   3   4   3  857.10   16.52
  -3  -4  -3  902.50   22.77
   4   3   3  869.38   22.36
  -4  -3  -3  915.61   23.35
  -5  -4  -4  201.94   12.58
   4   5   4  190.73    8.44
  -4  -5  -4  194.13   12.42
  -4  -5  -4  166.34    8.34
  -6  -5  -5  109.48   11.72
  -5  -6  -5  133.32   11.52
  -5  -6  -5  129.01    8.25
   6   7   6  123.30    7.15
  -7  -6  -6   93.49   10.66
  -8  -7  -7  165.64   15.61
  -7  -8  -7  153.89   15.34
  -9  -8  -8    3.14    3.60
  -8  -9  -8   -5.05    4.92
  -7 -10  -9   40.72    9.86
  -9  -6  -8   11.33    5.48
  -6  -9  -8   11.40    6.48
  -6  -9  -8   10.73    4.27
  -5  -8  -7    6.23    3.89
  -8  -5  -7   17.90    5.80
  -5  -8  -7   17.66    5.62
  -7  -4  -6   22.29    5.77
   4   7   6   33.69    5.41
  -4  -7  -6   23.37    4.97
  -4  -7  -6   34.09    6.11
   3   6   5  713.94   21.82
  -3  -6  -5  638.57   22.62
  -6  -3  -5  702.78   25.51
  -3  -6  -5  637.95   21.70
  -3  -6  -5  682.13   23.54
  -5  -2  -4   45.05    6.21
  -2  -5  -4   51.09    6.15
  -2  -5  -4   47.81    5.89
   2   5   4   47.85    5.66
   5   2   4   45.60    5.95
  -2  -5  -4   49.77    5.47
  -2  -5  -4   44.84    5.84
   1   4   3  391.09   14.53
  -4  -1  -3  391.98   14.79
   1   4   3  387.07   15.21
  -1  -4  -3  400.57   15.02
  -4  -1  -3  390.13    9.30
  -1  -4  -3  389.45   15.17
  -1  -4  -3  386.06   13.19
   4   1   3  386.07   14.59
   4   1   3  394.71    9.08
   0  -3  -2   51.45    4.33
   0   3   2   48.09    4.32
  -3   0  -2   57.00    4.28
   0  -3  -2   52.02    4.96
  -3   0  -2   54.38    4.79
   3   0   2   52.74    5.01
  -3   0  -2   53.00    5.04
   3   0   2   48.17    3.84
   0   3   2   52.73    5.11
   0  -3  -2   49.77    5.42
  -3   0  -2   50.35    4.64
   0   3   2   48.99    4.99
  -1   2   1   20.36    3.39
   1  -2  -1   17.06    3.49
   1  -2  -1   17.19    2.76
   2  -1   1   15.69    2.86
   1  -2  -1   19.23    3.06
  -2   1  -1   19.02    2.99
  -2   1  -1   14.95    3.04
   2  -1   1   18.85    3.06
  -1   2   1   22.20    3.27
  -2   1  -1   22.20    2.81
  -1   2   1   19.94    2.79
   1  -2  -1   20.41    2.40
   2  -1   1   20.21    2.97
  -2   1  -1   14.21    2.41
   2  -1   1   20.82    1.76
   1  -2   0  323.33   11.54
   2  -1   0  331.83    9.34
  -1   2   0  356.78   12.46
  -2   1   0  333.22    8.45
  -2   1   0  348.87   11.73
   1  -2   0  346.62   10.16
   1  -2   0  342.17   10.60
  -2   1   0  339.20   10.99
   2  -1   0  325.63   11.46
   1  -2   0  330.43    8.56
  -1   2   0  353.70   10.31
   2  -1   0  353.51   11.55
  -1   2   0  349.41    8.51
   2  -1   0  354.40   11.27
  -2   1   0  325.14   10.47
  -2   1   0  343.52    9.51
  -3   0  -1 1432.32   24.83
   3   0   1 1328.37   19.34
   0   3   1 1309.12   23.07
   0   3   1 1462.31   26.46
  -3   0  -1 1269.41   20.82
  -3   0  -1 1321.04   21.66
   3   0   1 1349.04   22.34
   3   0   1 1341.99   25.00
   0  -3  -1 1285.27   25.00
   0  -3  -1 1320.14   22.12
   0   3   1 1238.50   17.61
  -3   0  -1 1204.37   22.33
   0  -3  -1 1328.18   18.05
   1   4   2   48.82    5.23
  -1  -4  -2   50.06    4.23
  -4  -1  -2   52.50    5.31
  -4  -1  -2   52.22    5.66
  -4  -1  -2   53.18    5.32
  -1  -4  -2   48.58    4.90
  -4  -1  -2   51.04    3.68
  -1  -4  -2   50.39    5.48
   4   1   2   55.88    5.42
   1   4   2   51.29    5.25
   2   5   3  163.79   10.03
  -2  -5  -3  160.08   10.26
  -5  -2  -3  155.45   10.68
  -2  -5  -3  156.42   10.13
  -2  -5  -3  149.74    8.76
  -5  -2  -3  171.83   10.67
   5   2   3  136.20    9.81
   3   6   4  130.56    9.51
  -3  -6  -4  109.43    8.55
  -3  -6  -4  106.03    8.63
  -6  -3  -4  127.18   10.51
  -3  -6  -4  109.87   10.03
   4   7   5  104.91    9.06
  -4  -7  -5   96.73    8.96
  -4  -7  -5   90.56    9.93
  -7  -4  -5   89.33   10.03
  -4  -7  -5   79.19    8.50
  -8  -5  -6    2.70    3.23
  -5  -8  -6   -1.09    3.19
  -5  -8  -6   -0.46    3.12
  -5  -8  -6    0.29    2.26
  -9  -6  -7   39.65    9.14
  -6  -9  -7   31.57    7.65
  -6  -9  -7   41.31    9.29
  -7 -10  -8    0.31    3.11
  -7 -10  -8    3.14    3.63
 -10  -5  -8    0.33    3.39
  -5 -10  -8    5.12    4.03
  -5 -10  -8    6.15    4.05
  -4  -9  -7   16.05    5.08
  -9  -4  -7   15.37    5.94
  -4  -9  -7    7.44    4.05
  -9  -4  -7   10.21    5.12
  -3  -8  -6   80.99    9.57
  -3  -8  -6   76.30    9.86
  -8  -3  -6   81.97   10.12
  -8  -3  -6   75.41   10.05
  -3  -8  -6   61.45    7.88
  -2  -7  -5  356.70   20.13
  -2  -7  -5  341.80   17.76
  -2  -7  -5  279.55   14.86
  -7  -2  -5  310.48   18.16
  -7  -2  -5  313.08   17.48
   1   6   4    9.63    3.56
  -1  -6  -4    7.90    2.72
  -1  -6  -4    9.16    3.91
  -6  -1  -4    7.15    2.95
  -6  -1  -4   10.48    3.40
  -6  -1  -4   11.12    2.46
   0   5   3  612.53   22.12
  -5   0  -3  681.14   19.21
  -5   0  -3  641.84   21.87
   0  -5  -3  615.07   18.80
   0   5   3  609.83   19.04
   0  -5  -3  645.28   24.09
  -5   0  -3  676.58   21.23
   5   0   3  660.15   16.62
   5   0   3  621.37   18.01
  -5   0  -3  625.23   20.62
   4  -1   2   85.47    7.72
  -1   4   2   86.91    7.92
  -1   4   2   74.66    6.30
   4  -1   2   83.70    4.95
  -4   1  -2   80.33    6.97
   4  -1   2   77.00    6.53
   1  -4  -2   84.43    6.62
  -4   1  -2   82.32    7.34
  -4   1  -2   82.35    6.89
   1  -4  -2   76.29    7.14
  -4   1  -2   94.54    7.62
   1  -4  -2   74.23    5.81
   1  -4  -2   89.85    8.63
   2  -3  -1  150.27    8.11
  -2   3   1  167.10   10.33
  -3   2  -1  146.35    8.61
   3  -2   1  159.24    9.61
  -2   3   1  159.05    9.33
   2  -3  -1  141.40   11.60
   2  -3  -1  157.95    9.08
   3  -2   1  182.16   10.37
   3  -2   1  184.39   10.52
  -3   2  -1  176.61    9.72
  -3   2  -1  147.06    9.41
   2  -3  -1  162.84   10.28
  -3   2  -1  175.07   11.30
  -2   3   1  135.71   10.39
  -3   2   0   12.51    2.13
   2  -3   0   20.20    4.39
   2  -3   0   16.23    3.39
   3  -2   0   20.30    4.05
  -3   2   0   21.66    4.04
  -3   2   0   18.71    4.21
   3  -2   0   20.55    3.93
   2  -3   0   21.15    3.69
   3  -2   0   14.61    3.06
   2  -3   0   13.14    2.91
  -3   2   0   22.28    3.78
  -2   3   0   22.23    3.30
  -2   3   0   14.50    4.11
  -2   3   0   18.49    3.61
  -3   2   0   16.87    3.19
   3  -2   0   24.15    4.61
  -2   3   0    6.67    1.03
  -4   1  -1 1430.62   29.71
  -4   1  -1 1349.49   27.07
   4  -1   1 1301.51   26.99
   4  -1   1 1487.56   32.02
   1  -4  -1 1317.07   26.94
  -1   4   1 1306.51   22.53
   1  -4  -1 1248.64   22.42
  -4   1  -1 1387.99   29.03
  -1   4   1 1348.38   28.51
  -1   4   1 1604.21   35.35
  -4   1  -1 1367.34   28.02
   4  -1   1 1487.19   31.46
   1  -4  -1 1457.59   32.81
   1  -4  -1 1361.65   28.14
   4  -1   1 1455.75   29.24
   5   0   2   -0.61    1.89
  -5   0  -2    2.04    2.27
  -5   0  -2    1.40    1.50
  -5   0  -2    1.45    1.48
   0   5   2    1.71    1.83
   0  -5  -2    0.32    1.83
   0   5   2    0.68    1.17
   5   0   2    0.77    1.25
  -5   0  -2    2.38    2.35
   0  -5  -2    0.16    1.64
   0  -5  -2    1.23    1.37
   1   6   3  387.45   18.09
  -1  -6  -3  441.59   20.29
  -6  -1  -3  387.38   18.00
   6   1   3  457.06   16.38
  -6  -1  -3  382.61   13.39
  -6  -1  -3  377.19   17.20
  -1  -6  -3  342.94   13.61
  -2  -7  -4   11.92    3.27
  -7  -2  -4   12.76    2.17
  -7  -2  -4   11.93    3.91
   7   2   4    9.19    2.92
  -2  -7  -4   11.79    3.91
  -2  -7  -4   14.78    4.60
  -7  -2  -4   12.47    3.78
  -3  -8  -5  230.09   16.74
  -3  -8  -5  237.64   16.87
   8   3   5  218.28   14.30
  -3  -8  -5  191.88   12.43
  -8  -3  -5  205.77   15.47
  -8  -3  -5  227.34   16.28
  -4  -9  -6    6.65    4.00
  -9  -4  -6    5.01    2.87
  -9  -4  -6    7.09    4.42
  -4  -9  -6    7.97    4.36
  -4  -9  -6    1.70    2.30
  -5 -10  -7   71.81   10.41
 -10  -5  -7   32.69    8.35
  -5 -10  -7   12.64    5.74
  10   5   7   67.52    9.61
  -5 -10  -7   36.09    8.53
 -10  -5  -7   47.49    9.72
 -10  -3  -7   51.80    9.32
  10   3   7   48.42    7.65
   9   2   6    6.80    3.00
  -9  -2  -6   10.59    4.80
  -2  -9  -6   10.41    4.36
  -2  -9  -6    4.98    2.73
  -9  -2  -6    9.08    4.68
  -1  -8  -5  113.97   10.51
   1   8   5  150.75   14.51
  -8  -1  -5  138.82   13.67
  -8  -1  -5  139.21   12.69
  -1  -8  -5  142.24   12.41
  -1  -8  -5  164.08   15.29
   8   1   5  171.74   11.46
   7   0   4    4.22    2.29
  -7   0  -4    7.25    3.29
   0   7   4    3.80    2.97
  -7   0  -4    7.80    3.69
   0  -7  -4    7.25    2.94
   0  -7  -4    9.80    4.26
   6  -1   3   63.63    7.25
  -1   6   3   58.15    8.04
   1  -6  -3   65.13    9.52
   1  -6  -3   42.97    5.95
  -6   1  -3   64.55    8.25
   1  -6  -3   59.86    6.50
  -6   1  -3   62.15    7.63
   2  -5  -2   11.68    4.28
   2  -5  -2   10.89    3.11
  -2   5   2    9.56    3.13
  -5   2  -2   11.30    3.65
  -5   2  -2    9.21    3.19
   2  -5  -2    9.48    2.95
  -2   5   2   11.70    3.93
   5  -2   2   12.20    3.75
   3  -4  -1   97.61    8.83
   4  -3   1  136.90   11.66
  -3   4   1   72.43    5.03
  -4   3  -1  126.73    9.10
  -4   3  -1  112.39    9.50
  -3   4   1   99.33    8.66
   3  -4  -1  118.98   12.52
   3  -4  -1   85.30    7.80
  -3   4   1  124.87   10.88
   4  -3   0   10.20    3.33
   3  -4   0   10.52    3.89
  -3   4   0   11.02    2.78
   4  -3   0   12.27    4.16
  -4   3   0   11.53    3.54
   3  -4   0    9.27    3.01
  -3   4   0    9.78    3.12
   4  -3   0    6.79    2.31
  -5   2  -1  212.56   13.05
   2  -5  -1  187.65   10.89
   2  -5  -1  224.38   15.44
  -2   5   1  184.55   10.34
  -5   2  -1  208.28   13.49
  -2   5   1  194.45   13.03
  -6   1  -2   44.02    6.30
   1  -6  -2   50.74    7.97
  -1   6   2   44.40    6.82
  -6   1  -2   45.97    6.57
   1  -6  -2   39.67    5.07
  -1   6   2   33.73    4.82
  -7   0  -3    8.16    3.55
  -7   0  -3   10.08    3.59
   0  -7  -3   13.81    4.86
   0  -7  -3    8.20    2.40
   0   7   3    8.45    3.39
  -8  -1  -4   47.42    7.66
  -8  -1  -4   47.58    7.73
  -1  -8  -4   63.41   10.07
  -1  -8  -4   52.71    6.51
   1   8   4   59.73    8.95
   8   1   4   53.08    6.60
  -9  -2  -5  225.19   17.77
   9   2   5  230.84   15.26
  -2  -9  -5  233.04   17.32
  -2  -9  -5  178.13   12.66
  -9  -2  -5  218.50   17.27
  -2  -9  -5  257.93   20.13
  10   3   6   22.06    5.45
 -10  -3  -6   19.09    6.28
  -3 -10  -6   22.06    6.80
  -3 -10  -6   18.14    6.77
 -10  -3  -6   22.62    6.45
   0   9   5   17.03    6.05
  -9   0  -5   10.66    4.07
  -9   0  -5   15.93    5.82
  -8   1  -4    5.64    4.05
  -1   8   4    1.70    3.23
  -8   1  -4    0.78    2.37
   1  -8  -4   -0.99    3.71
  -7   2  -3  188.07   14.89
   2  -7  -3  227.65   19.07
   2  -7  -3  169.52   12.88
  -2   7   3  206.87   17.25
  -7   2  -3  222.26   16.63
  -6   3  -2   17.55    4.85
   3  -6  -2   18.76    5.89
  -3   6   2   12.21    5.05
   3  -6  -2   14.71    3.92
   6  -3   2   15.06    4.78
   5  -4   1  242.07   17.86
  -4   5   1  186.94   15.22
   4  -5  -1  233.79   18.28
  -5   4  -1  129.49   12.02
   4  -5  -1  172.73   13.39
   5  -4   0   10.34    3.68
  -4   5   0    7.57    3.71
  -5   4   0   11.86    4.77
  -3   6   1  119.89   12.34
  -6   3  -1  120.66   12.62
   3  -6  -1  159.25   15.90
   2  -7  -2   14.41    5.18
  -7   2  -2    7.88    3.83
  -7   2  -2    9.88    3.96
  -2   7   2   15.93    5.55
   1  -8  -3  166.07   17.05
  -8   1  -3  149.50   14.26
  -1   8   3  120.50   14.41
  -8   1  -3  143.28   13.64
  -9   0  -4   12.02    4.70
  -9   0  -4   18.09    5.75
   0   9   4    9.34    5.24
  -7   4  -2    4.93    3.80
  -6   5  -1    5.96    3.77
  -5   6   1    9.00    4.43
  -5   6   0   -1.65    3.41
  -6   5   0    0.70    3.31
  -4   7   1   -2.35    5.34
  -8  -8  -9    0.98    3.58
  -7  -7  -8   74.92   10.83
  -6  -6  -7    6.36    4.02
  -5  -5  -6    5.51    3.24
   5   5   6    3.76    1.25
   4   4   5    2.14    1.98
   4   4   5   -0.18    0.72
  -4  -4  -5    1.68    1.92
   3   3   4 1334.39   25.46
  -3  -3  -4 1388.47   26.55
   2   2   3   26.82    2.24
  -2  -2  -3   28.49    3.36
   2   2   3   28.24    3.25
   1   1   2 2397.11   20.75
  -1  -1  -2 2495.78   21.63
  -1  -1  -2 2415.12   22.32
   0   0  -1    0.51    0.55
   1   1   0    0.00    6.44
   1   1   0    0.00    5.40
  -1  -1   0    0.00    6.14
   1   1   0  115.88    6.94
  -1  -1   0  117.11    6.65
  -2  -2  -1   40.45    4.02
  -2  -2  -1   38.67    2.69
   2   2   1   39.97    2.68
   3   3   2 1315.39   24.93
  -3  -3  -2 1307.68   26.11
   3   3   2 1343.02   16.22
   4   4   3   18.86    2.16
  -4  -4  -3    8.31    1.62
  -4  -4  -3   16.93    3.80
   4   4   3   13.36    3.29
  -5  -5  -4  824.31   26.39
   5   5   4  782.32   14.81
  -6  -6  -5    1.74    1.31
  -6  -6  -5    0.87    3.07
  -7  -7  -6  287.39   20.42
  -8  -8  -7    4.20    3.87
  -9  -7  -9   -1.38    3.45
  -7  -9  -9    5.75    4.06
  -7  -9  -9    1.90    4.06
  -6  -8  -8  188.59   16.75
  -8  -6  -8  187.86   17.11
  -6  -8  -8  183.22   16.23
  -5  -7  -7    6.30    3.51
  -7  -5  -7    8.91    4.12
  -5  -7  -7    7.65    3.50
   5   7   7   15.48    3.25
  -4  -6  -6  179.12   13.04
  -4  -6  -6  171.63   12.79
   4   6   6  200.90   10.55
  -6  -4  -6  179.47   13.66
   3   5   5   42.94    4.89
  -3  -5  -5   40.77    5.57
  -5  -3  -5   32.93    5.90
  -3  -5  -5   43.77    5.94
   4   2   4  572.27   18.48
  -2  -4  -4  574.38   17.18
  -2  -4  -4  592.22   18.22
  -4  -2  -4  608.29   19.54
   2   4   4  579.16   16.05
   1   3   3 1490.95   26.58
   3   1   3 1330.10   14.15
  -3  -1  -3 1408.89   14.74
  -1  -3  -3 1367.04   21.13
  -3  -1  -3 1520.31   26.11
  -1  -3  -3 1501.99   24.65
  -1  -3  -3 1495.84   26.21
  -1  -3  -3 1514.50   25.17
   3   1   3 1489.26   25.39
   1   3   3 1501.95   24.80
   0  -2  -2 1732.75   22.94
   0   2   2 1743.99   24.90
  -2   0  -2 1780.49   24.66
  -2   0  -2 1660.72   18.93
   2   0   2 1724.69   23.93
   0  -2  -2 1733.72   24.33
   0   2   2 1660.11   23.11
   2   0   2 1686.49   18.45
   0   2   2 1710.93   24.10
   1  -1   1 1187.60   18.00
   1  -1   1 1183.66   14.30
  -1   1   1 1171.44   18.33
   1  -1  -1 1158.40   18.07
  -1   1  -1 1177.44   18.02
  -1   1  -1 1191.76   12.97
  -1   1   1 1190.44   18.41
  -1   1  -1 1080.27   12.73
  -1   1  -1 1189.69   18.24
  -1   1   1 1173.81   19.17
   1  -1   1 1152.69   17.29
   1  -1  -1 1185.02   17.80
   0  -2   0  125.71    6.46
   2   0   0  130.36    7.17
   2   0   0  149.63    7.14
   0  -2   0  137.88    5.26
  -2   0   0  141.70    5.42
   2   0   0  130.31    5.44
  -2   0   0  141.46    6.77
   0  -2   0  125.79    3.24
  -2   0   0  125.85    5.75
   0   2   0  121.71    3.28
  -2   0   0  133.85    6.54
   0   2   0  128.91    6.66
  -2   0   0  133.87    5.72
   0   2   0  138.40    5.44
   3   1   1  297.46   10.35
   1   3   1  314.82   10.96
  -1  -3  -1  319.48   11.23
   3   1   1  311.20   10.18
  -3  -1  -1  312.32   11.27
  -3  -1  -1  310.57   11.30
  -3  -1  -1  324.20   10.42
  -1  -3  -1  304.03    7.89
  -1  -3  -1  316.65   10.20
   4   2   2  708.49   19.32
  -4  -2  -2  771.29   19.70
  -2  -4  -2  736.50   17.91
  -4  -2  -2  657.63   18.80
   2   4   2  704.75   17.63
  -2  -4  -2  671.12   19.00
  -3  -5  -3   16.74    4.83
   5   3   3   21.31    4.54
  -5  -3  -3    4.18    0.85
  -3  -5  -3   23.54    3.77
   3   5   3   26.13    3.80
  -3  -5  -3   29.47    4.64
  -5  -3  -3   26.54    4.73
  -5  -3  -3    6.29    0.89
  -6  -4  -4   51.04    7.03
  -4  -6  -4   48.21    5.94
  -4  -6  -4   47.50    7.19
   4   6   4   57.28    5.62
  -5  -7  -5    9.39    2.98
  -5  -7  -5   10.54    4.11
   5   7   5   10.90    2.95
  -7  -5  -5    8.35    3.47
  -6  -8  -6   34.10    7.59
  -6  -8  -6   38.29    6.13
  -8  -6  -6   29.88    7.12
  -9  -7  -7   -5.71    4.05
  -7  -9  -7    1.81    3.53
  -7  -9  -7    3.60    3.21
  -8 -10  -8   -6.66    4.95
  -6 -10  -9    7.99    5.05
  -6 -10  -9   -1.75    4.21
  -9  -5  -8    8.34    4.23
  -5  -9  -8   17.17    5.68
  -5  -9  -8    9.05    4.56
  -8  -4  -7    8.03    4.34
  -4  -8  -7    6.46    3.48
  -4  -8  -7    7.44    3.23
  -3  -7  -6  277.51   16.19
  -3  -7  -6  257.70   15.34
  -7  -3  -6  276.22   17.56
  -2  -6  -5  144.53   10.32
  -6  -2  -5  138.66   11.51
  -2  -6  -5  148.76   10.56
  -2  -6  -5  149.15   11.53
  -5  -1  -4  353.10   16.49
  -5  -1  -4  363.34   15.41
  -1  -5  -4  368.47   14.48
  -5  -1  -4  361.44   10.95
   5   1   4  368.17   10.27
  -1  -5  -4  352.94   14.83
  -1  -5  -4  370.23   18.03
   1   5   4  334.43   16.56
   0   4   3   27.22    4.46
  -4   0  -3   32.79    4.83
   0   4   3   31.46    4.86
   4   0   3   29.85    4.63
   0  -4  -3   26.92    4.40
  -4   0  -3   31.01    3.74
   0  -4  -3   27.89    4.00
   0   4   3   26.93    4.11
  -4   0  -3   28.33    3.95
   0  -4  -3   26.85    4.77
   4   0   3   27.25    3.39
  -4   0  -3   30.51    4.13
   3  -1   2  382.03    8.68
   1  -3  -2  380.86   10.51
   1  -3  -2  406.05   16.84
   1  -3  -2  381.80   13.09
  -3   1  -2  460.59   15.07
  -1   3   2  418.78   16.41
   1  -3  -2  400.28   14.78
   3  -1   2  380.94   14.07
  -1   3   2  398.49   15.10
  -1   3   2  400.67   13.86
  -3   1  -2  413.86   12.93
   3  -1   2  392.12   13.11
  -3   1  -2  393.64   14.62
  -3   1  -2  402.01   12.59
   2  -2   1  177.75    9.29
   2  -2  -1  176.19    9.64
  -2   2  -1  178.14    8.14
   2  -2  -1  162.35    8.94
  -2   2  -1  180.18   10.26
   2  -2   1  167.80    9.50
  -2   2   1  166.75    9.13
  -2   2   1  172.94   10.80
   2  -2  -1  141.24   10.48
  -2   2   1  176.00    9.62
   2  -2  -1  161.35    7.08
  -2   2  -1  172.63    7.18
   2  -2   1  179.71    8.46
  -1   3   0  842.96   14.14
  -1   3   0  859.31   18.84
  -3   1   0  761.44   16.01
  -3   1   0  853.35   20.98
   1  -3   0  845.61   18.32
   3  -1   0  838.05   17.64
   3  -1   0  956.41   23.20
  -3   1   0  903.55   20.99
  -3   1   0  812.86   20.72
   1  -3   0  760.74   14.15
   1  -3   0  863.00   21.88
  -3   1   0  839.26   17.37
   3  -1   0  860.69   21.62
   1  -3   0  837.76   20.00
  -1   3   0  794.89   22.08
  -4   0  -1   19.87    3.16
   0   4   1   23.61    3.60
   4   0   1   17.76    3.16
   4   0   1   24.33    4.22
   0  -4  -1   20.06    3.93
   0  -4  -1   21.67    2.55
   4   0   1   20.43    3.11
   0  -4  -1   21.45    3.38
  -4   0  -1   24.25    3.56
   0   4   1   20.15    2.46
  -4   0  -1   23.51    3.84
  -4   0  -1   24.20    3.82
   0   4   1   20.91    4.03
  -5  -1  -2 1349.25   28.79
   1   5   2 1624.53   34.86
   5   1   2 1358.87   29.56
   1   5   2 1369.07   29.28
  -5  -1  -2 1437.22   32.25
  -1  -5  -2 1264.18   21.83
  -1  -5  -2 1354.62   28.52
  -5  -1  -2 1444.82   31.50
  -5  -1  -2 1312.60   23.33
  -1  -5  -2 1500.59   32.48
   5   1   2 1472.69   27.36
  -6  -2  -3   51.90    6.56
  -6  -2  -3   54.55    6.73
   6   2   3   48.09    5.81
  -6  -2  -3   46.16    3.92
  -2  -6  -3   54.50    6.89
  -2  -6  -3   46.72    5.03
  -3  -7  -4  123.24   11.32
  -7  -3  -4  114.63   11.29
  -3  -7  -4  124.79   10.69
  -7  -3  -4  111.25   10.54
  -3  -7  -4   97.39    8.29
  -4  -8  -5   22.07    4.89
  -8  -4  -5   26.92    6.33
  -4  -8  -5   25.97    6.36
  -4  -8  -5   28.13    5.76
  -8  -4  -5   19.68    5.50
  -9  -5  -6  132.35   14.32
  -5  -9  -6  145.47   14.66
  -5  -9  -6  172.73   14.40
 -10  -6  -7   -0.06    3.81
  -6 -10  -7    1.68    3.25
  -6 -10  -7   -2.13    3.31
 -10  -4  -8   73.80   11.68
  -4 -10  -8   53.57    9.30
  -3  -9  -7    9.06    3.91
  -3  -9  -7   16.33    4.98
  -9  -3  -7   20.00    6.42
  -9  -3  -7   15.32    6.29
  -8  -2  -6  133.99   13.32
  -2  -8  -6  140.04   12.01
  -2  -8  -6  120.97   10.86
  -8  -2  -6  137.98   12.79
   1   7   5   37.81    6.87
  -7  -1  -5   37.11    6.48
  -1  -7  -5   39.08    5.98
  -1  -7  -5   44.27    7.67
  -7  -1  -5   32.30    6.60
  -1  -7  -5   32.88    5.49
  -6   0  -4   80.66    8.22
  -6   0  -4   98.99   10.02
  -6   0  -4   88.55    7.89
   0  -6  -4  105.57   12.18
   0   6   4   92.45    9.84
   0  -6  -4   84.48    8.07
   6   0   4  122.30    7.90
   6   0   4  102.65    9.00
  -5   1  -3    6.81    2.57
  -5   1  -3    9.13    3.27
  -5   1  -3    6.14    2.64
   5  -1   3    8.54    2.64
  -1   5   3    8.76    2.94
   5  -1   3    5.99    1.68
   1  -5  -3    8.17    2.65
   1  -5  -3   12.06    4.12
  -5   1  -3    7.82    2.82
   1  -5  -3    7.37    2.18
  -1   5   3    4.10    2.41
   2  -4  -2  418.27   14.24
   2  -4  -2  526.81   23.03
  -4   2  -2  505.55   19.59
   4  -2   2  512.70   19.12
  -2   4   2  473.31   17.80
   4  -2   2  486.84   19.07
  -4   2  -2  507.97   17.80
  -2   4   2  493.29   20.26
   2  -4  -2  455.13   17.16
  -4   2  -2  510.52   17.05
  -3   3  -1  134.21    7.93
   3  -3  -1  101.01    8.96
   3  -3   1  132.02    9.68
   3  -3  -1  127.49   11.69
   3  -3   1  139.67   11.08
  -3   3   1   76.45    5.56
   3  -3   1  107.46    8.89
  -3   3   1  118.93    9.94
   3  -3  -1   95.52    7.04
  -3   3   1  128.92    9.67
  -3   3  -1  118.75    8.69
   2  -4   0   39.55    4.72
  -2   4   0   52.28    4.71
   4  -2   0   41.25    5.20
  -4   2   0   49.68    6.40
   2  -4   0   33.89    5.63
   4  -2   0   49.63    6.71
  -4   2   0   52.80    6.85
   2  -4   0   46.82    5.76
   2  -4   0   55.05    7.76
  -2   4   0   48.34    5.90
  -4   2   0   51.03    5.63
   1  -5  -1   38.90    4.28
  -5   1  -1   43.78    5.90
   5  -1   1   29.73    4.85
  -5   1  -1   44.31    5.49
   1  -5  -1   38.04    5.34
  -1   5   1   35.97    4.10
  -1   5   1   40.13    5.63
   1  -5  -1   44.23    6.87
  -5   1  -1   39.42    5.92
   0  -6  -2  262.69   11.30
  -6   0  -2  280.20   15.53
  -6   0  -2  283.77   14.95
   0   6   2  291.97   15.74
  -6   0  -2  292.38   14.28
   0  -6  -2  293.87   16.99
   1   7   3   42.63    6.73
  -7  -1  -3   43.96    6.74
  -7  -1  -3   40.04    6.25
  -1  -7  -3   40.83    5.03
  -1  -7  -3   42.09    7.07
  -7  -1  -3   45.96    5.49
   7   1   3   39.59    5.44
  -2  -8  -4  115.16    8.99
  -8  -2  -4  124.00   11.76
  -2  -8  -4  130.34   12.95
   8   2   4  129.82   10.72
  -8  -2  -4  142.27   13.01
  -3  -9  -5   14.56    5.13
  -3  -9  -5   21.09    5.92
  -9  -3  -5    4.83    3.54
   9   3   5   12.65    4.21
  -9  -3  -5   19.68    5.92
  -3  -9  -5   10.63    3.31
  -4 -10  -6    3.77    5.18
  -4 -10  -6   22.99    6.64
 -10  -4  -6   21.31    6.68
  10   4   6   24.83    6.16
 -10  -4  -6   16.24    5.94
 -10  -2  -7    8.60    4.72
   1   9   6   34.80    8.56
  -9  -1  -6   34.17    7.95
  -9  -1  -6   32.17    6.99
  -1  -9  -6   23.13    5.48
  -8   0  -5    8.62    4.05
   0  -8  -5    5.69    2.85
   0   8   5   13.01    5.52
  -8   0  -5    7.87    4.01
  -7   1  -4  142.44   13.64
   1  -7  -4  107.48   10.24
  -1   7   4  155.39   14.63
  -7   1  -4  136.86   11.87
  -6   2  -3  117.63   10.65
   2  -6  -3   87.42    8.87
   6  -2   3  133.58   11.80
  -6   2  -3   99.56   10.65
  -2   6   3   90.57   10.87
   2  -6  -3  114.29   12.95
  -3   5   2  196.12   15.23
   5  -3   2  246.89   16.04
   3  -5  -2  248.39   18.09
  -5   3  -2  187.10   12.99
   3  -5  -2  200.03   13.54
  -4   4   1   30.30    6.02
   4  -4  -1   35.02    6.17
   4  -4   1   42.34    7.11
  -4   4  -1   30.54    5.58
   3  -5   0  117.36    9.22
  -3   5   0  119.01   10.74
  -5   3   0  129.39   11.82
   3  -5   0  141.06   13.16
   5  -3   0  125.22   11.99
  -6   2  -1   45.24    6.78
  -6   2  -1   48.88    7.75
   2  -6  -1   46.85    5.73
   2  -6  -1   57.00    8.59
  -2   6   1   48.29    7.41
  -1   7   2   83.13    9.92
  -7   1  -2   83.28    9.93
   1  -7  -2   76.72    7.07
   1  -7  -2   84.57   10.38
  -7   1  -2   86.41    9.62
   0   8   3    4.45    3.54
   0  -8  -3    7.49    4.16
  -8   0  -3    8.15    4.45
  -8   0  -3    3.99    3.25
  -1  -9  -4  159.55   16.04
  -9  -1  -4  153.28   14.52
  -9  -1  -4  144.76   13.87
 -10  -2  -5   15.08    5.32
 -10  -2  -5    6.21    3.64
  -2 -10  -5    5.14    4.63
  10   2   5    6.84    3.69
  -8   2  -4   86.81   11.15
  -7   3  -3   10.06    4.53
  -3   7   3   -3.36    4.54
  -4   6   2   11.35    4.92
  -6   4  -2   14.86    5.05
   6  -4   2   25.70    7.36
  -5   5   1    8.95    4.50
   5  -5  -1    3.31    2.89
   5  -5   1    6.29    3.85
  -5   5  -1    1.71    2.95
  -4   6   0   96.12   11.13
  -6   4   0   33.44    7.91
  -3   7   1    2.71    4.63
   3  -7  -1   -4.70    4.14
  -7   3  -1   -2.27    3.60
  -2   8   2   17.66    6.87
  -8   2  -2   13.80    6.26
  -1   9   3   17.35    6.47
  -9   1  -3   10.19    4.49
  -7  -8  -9   15.82    6.17
  -8  -7  -9   11.28    4.95
  -7  -8  -9   11.12    4.90
  -7  -6  -8   10.20    4.22
  -6  -7  -8   11.93    4.73
  -6  -7  -8   12.57    4.82
  -5  -6  -7  216.20   17.53
   5   6   7  303.73   11.40
  -6  -5  -7  244.54   16.65
  -5  -6  -7  287.64   17.21
  -5  -4  -6  103.89   10.10
  -4  -5  -6  100.19    9.31
   4   5   6   89.99    6.63
   4   5   6  102.39    9.21
  -4  -5  -6  128.95   10.68
   3   4   5  122.14    8.66
  -3  -4  -5  134.36    9.54
   3   4   5  114.00    7.16
  -3  -4  -5  126.21    9.02
  -3  -4  -5  101.26    8.63
   4   3   5  127.38    9.04
   4   3   5   96.90    3.61
  -4  -3  -5  135.42    9.86
   3   2   4  361.92   13.14
   3   2   4  343.69    7.25
  -2  -3  -4  347.51   12.08
  -3  -2  -4  368.05   13.73
   2   3   4  364.77   11.96
  -2  -3  -4  325.59   12.79
   2   3   4  334.78   10.51
  -2  -3  -4  357.66   13.58
   1   2   3 1816.78   20.41
   2   1   3 1850.91   25.35
  -1  -2  -3 1798.54   20.99
  -2  -1  -3 1874.72   25.30
  -1  -2  -3 1867.42   25.88
  -1  -2  -3 1877.90   26.25
   2   1   3 1900.40   17.90
   1   2   3 1829.91   26.26
   0   1   2    3.08    1.48
   0   1   2    3.98    0.75
   0   1   2    3.23    1.49
   0  -1  -2    2.23    1.50
  -1   0  -2    3.40    1.54
   1   0   2    3.53    1.40
   0  -1  -2    3.92    0.83
   0  -1  -2    3.83    1.49
   1   0   2    3.88    1.35
  -1   0  -2    3.21    1.24
  -1   0   1 2439.96   14.39
   1   0  -1 2457.62   22.52
  -1   0   1 2409.80   22.32
  -1   0   1 2434.25   23.72
   0   1  -1 2448.03   23.55
   1   0  -1 2428.47   23.16
   0  -1   1 2417.01   23.15
  -2  -1   0 1059.73   17.86
  -2  -1   0 1119.15   17.19
   1   2   0 1135.66   15.02
   2   1   0 1180.26   17.97
   1   2   0 1135.13   17.73
  -1  -2   0 1142.07   17.37
  -2  -1   0 1060.76   17.50
   2   1   0 1210.59   18.91
   2   1   0 1158.26   17.47
  -2  -1   0 1195.36   16.86
   2   3   1   21.31    2.91
  -2  -3  -1   19.06    2.74
   3   2   1   18.51    3.50
  -3  -2  -1   23.39    3.43
  -3  -2  -1   22.47    3.60
  -3  -2  -1   19.94    2.23
  -4  -3  -2   47.61    5.25
   4   3   2   37.86    5.46
  -3  -4  -2   45.60    4.19
  -4  -3  -2   37.62    2.96
   3   4   2   47.80    4.37
  -3  -4  -2   48.21    5.59
   5   4   3 1352.75   32.42
  -5  -4  -3 1298.15   31.51
  -4  -5  -3 1381.29   32.48
  -4  -5  -3 1226.85   23.05
   4   5   3 1431.68   23.99
   5   6   4   31.97    4.20
  -6  -5  -4   37.72    6.19
  -5  -6  -4   24.06    5.78
  -5  -6  -4   28.19    3.85
  -6  -7  -5   76.28    6.74
  -7  -6  -5   83.65   11.30
   6   7   5  109.83    7.83
  -6  -7  -5  102.78   11.37
  -8  -7  -6   13.63    4.86
  -7  -8  -6    5.32    4.15
  -8  -9  -7   37.58    8.20
  -9  -8  -7   26.21    7.18
  -9  -6  -9   18.67    6.45
  -6  -9  -9   20.63    6.97
  -6  -9  -9   20.11    6.73
  -5  -8  -8   22.11    6.40
  -5  -8  -8    6.59    3.54
  -8  -5  -8   12.93    5.38
  -7  -4  -7  398.95   21.95
  -4  -7  -7  371.83   19.40
  -4  -7  -7  345.93   18.94
   3   6   6   36.35    5.17
  -6  -3  -6   30.02    6.02
  -3  -6  -6   32.89    5.51
  -3  -6  -6   29.47    5.21
  -2  -5  -5  446.37   16.13
   2   5   5  437.92   19.02
  -5  -2  -5  455.68   18.98
  -2  -5  -5  438.43   17.53
   2   5   5  468.08   17.18
   4   1   4   64.47    3.93
  -4  -1  -4   63.94    6.62
   4   1   4   71.77    6.83
  -1  -4  -4   60.34    5.11
  -1  -4  -4   64.48    6.64
   1   4   4   61.15    6.36
  -4  -1  -4   64.93    4.38
   1   4   4   64.40    6.82
  -1  -4  -4   65.63    6.25
   1   4   4   69.19    6.80
  -3   0  -3  486.37   12.67
   3   0   3  555.50   17.17
   0   3   3  494.89   15.77
   3   0   3  513.73   12.84
   0  -3  -3  430.68   10.61
   0  -3  -3  529.54   16.74
   0  -3  -3  534.25   15.67
   0   3   3  531.70   17.28
   0   3   3  484.62   15.96
  -3   0  -3  497.51   13.69
  -3   0  -3  513.20   16.55
  -2   1  -2 1625.36   27.39
   2  -1   2 1544.57   23.35
   1  -2  -2 1551.85   25.30
  -1   2   2 1555.86   27.30
  -1   2   2 1569.13   27.06
   1  -2  -2 1502.00   14.83
   2  -1   2 1612.61   26.66
  -2   1  -2 1571.53   19.23
   1  -2  -2 1554.75   26.32
  -2   1  -2 1638.55   25.34
  -1   2   2 1573.09   25.95
  -1   2  -1  864.44   20.01
   1  -2   1  902.18   14.29
  -1   2  -1  898.81   10.87
   2  -1  -1  807.53   12.64
   1  -2   1  865.03   19.29
  -2   1   1  930.93   19.95
  -1   2  -1  910.06   14.27
  -2   1   1  867.53   20.27
  -2   1   1  881.47   12.74
   1  -2   1  926.33   19.88
   2  -1  -1  923.30   19.95
  -2   1   1  951.41   19.86
   2  -1  -1  918.86   19.43
   3   0   0   12.11    3.05
  -3   0   0   11.31    2.45
   3   0   0   10.88    2.63
   0  -3   0   10.56    1.19
   0   3   0    9.36    1.91
  -3   0   0   10.09    2.19
   0   3   0   13.83    3.11
  -3   0   0   11.11    2.70
   0  -3   0   12.07    2.01
  -3   0   0   10.95    2.17
   3   0   0   10.88    2.16
  -3   0   0   10.59    2.31
   0  -3   0   11.83    2.83
  -1  -4  -1  810.65   13.50
   4   1   1  860.72   19.90
   1   4   1  827.88   21.61
  -4  -1  -1  813.55   21.35
  -1  -4  -1  823.94   21.14
  -4  -1  -1  743.95   16.27
  -4  -1  -1  807.01   21.52
   4   1   1  787.08   19.38
  -1  -4  -1  874.99   19.13
  -4  -1  -1  884.37   19.98
  -2  -5  -2   18.61    3.60
   5   2   2   21.61    3.94
  -5  -2  -2   17.34    3.74
   2   5   2   14.13    3.51
  -5  -2  -2   17.14    3.58
   5   2   2   11.25    3.45
  -2  -5  -2   22.49    4.13
  -2  -5  -2   18.28    3.02
  -5  -2  -2   15.67    4.59
  -5  -2  -2   14.13    2.29
  -3  -6  -3   33.48    5.18
  -3  -6  -3   32.91    4.55
  -3  -6  -3   32.71    5.83
  -6  -3  -3   17.61    2.17
  -6  -3  -3   11.49    1.73
  -6  -3  -3   36.04    5.48
   3   6   3   40.99    5.78
  -4  -7  -4   10.74    3.49
  -4  -7  -4   10.24    3.18
  -7  -4  -4    8.68    3.74
  -4  -7  -4   14.67    4.61
  -8  -5  -5  127.42   12.73
  -5  -8  -5  135.93   13.27
  -5  -8  -5   98.73   10.30
  -5  -8  -5  115.01   10.29
  -6  -9  -6    8.56    3.73
  -6  -9  -6    4.27    2.98
  -6  -9  -6    2.41    3.59
  -9  -6  -6    5.92    4.16
  -7 -10  -7   21.09    5.78
  -7 -10  -7    9.18    4.80
  -5 -10  -9    7.05    4.80
  -9  -4  -8    8.37    5.37
  -4  -9  -8    3.55    3.15
  -4  -9  -8    1.11    2.67
  -9  -4  -8    8.06    5.81
  -8  -3  -7  128.81   13.63
  -8  -3  -7  143.82   13.41
  -3  -8  -7  141.71   12.20
  -3  -8  -7  121.39   11.88
  -7  -2  -6   15.59    4.50
  -2  -7  -6   18.20    4.29
  -7  -2  -6   14.33    4.86
  -2  -7  -6   15.79    4.10
   1   6   5   49.75    7.37
  -1  -6  -5   54.79    6.47
  -6  -1  -5   46.43    6.99
   6   1   5   42.20    4.33
  -6  -1  -5   51.32    4.65
  -1  -6  -5   45.32    6.26
  -6  -1  -5   46.33    6.27
   0   5   4   40.51    6.23
  -5   0  -4   35.68    4.47
  -5   0  -4   39.35    6.03
   0  -5  -4   39.09    5.34
   5   0   4   35.52    4.19
  -5   0  -4   36.44    5.09
  -5   0  -4   36.37    5.04
  -4   1  -3  372.46   16.63
  -4   1  -3  374.63   15.81
   1  -4  -3  315.74   10.58
  -4   1  -3  360.54   13.69
  -1   4   3  344.30   15.35
  -4   1  -3  350.99   14.11
   4  -1   3  412.89   14.99
   1  -4  -3  319.76   14.11
  -1   4   3  376.40   17.36
  -2   3   2   48.64    6.19
   3  -2   2   43.59    5.82
  -3   2  -2   47.33    5.86
   3  -2   2   36.96    5.33
  -2   3   2   41.05    6.73
   2  -3  -2   45.42    5.43
  -3   2  -2   41.43    6.18
  -2   3   2   36.28    5.45
   3  -2   2   34.45    4.99
   2  -3  -2   32.85    3.45
  -3   2  -2   44.69    4.81
  -3   2  -2   49.23    4.58
   2  -3  -2   38.14    5.57
  -3   2   1  328.22   15.12
  -3   2   1  355.52   15.60
   2  -3   1  341.59   14.63
  -2   3  -1  421.91   17.88
   2  -3   1  351.92   12.98
  -3   2   1  300.35   11.26
   3  -2  -1  372.21   16.08
  -2   3  -1  373.19   10.48
   3  -2  -1  300.29   11.03
   2  -3   1  383.56   15.93
  -2   3  -1  342.71   12.62
  -3   2   1  335.67   15.73
   3  -2  -1  351.97   15.01
   1  -4   0  201.56   11.24
   4  -1   0  208.90   12.54
  -4   1   0  187.10    9.19
  -1   4   0  236.08   13.89
   1  -4   0  177.44    9.47
   1  -4   0  194.80   12.35
  -4   1   0  179.33    9.15
   1  -4   0  190.39    7.39
   4  -1   0  207.86   12.19
  -4   1   0  200.43   11.44
  -1   4   0  187.73    9.94
   4  -1   0  175.20    9.08
  -1   4   0  182.59    6.89
  -4   1   0  201.97   11.75
  -4   1   0  199.97   11.58
  -5   0  -1  764.62   23.58
   0   5   1  763.21   21.76
  -5   0  -1  781.38   22.09
   5   0   1  716.26   21.12
   0  -5  -1  828.46   25.56
   0  -5  -1  717.80   20.47
   0  -5  -1  683.48   14.46
  -5   0  -1  693.61   20.03
  -1  -6  -2   41.25    4.17
  -6  -1  -2   42.66    6.32
   1   6   2   46.46    6.12
  -6  -1  -2   44.26    5.85
   6   1   2   41.94    5.54
  -1  -6  -2   47.40    6.79
  -6  -1  -2   44.75    5.17
  -7  -2  -3  217.91   14.89
  -7  -2  -3  202.46   13.65
   7   2   3  215.07   13.04
  -2  -7  -3  239.92   15.53
  -7  -2  -3  185.80    9.22
  -2  -7  -3  191.92   10.19
  -3  -8  -4   30.57    6.20
  -8  -3  -4   30.44    6.45
  -8  -3  -4   27.61    5.87
   8   3   4   23.36    5.18
  -3  -8  -4   22.92    4.22
  -3  -8  -4   24.22    6.15
  -4  -9  -5  190.40   16.94
  -9  -4  -5  189.89   16.57
  -4  -9  -5  174.23   12.20
  -9  -4  -5  204.93   17.37
   9   4   5  238.52   16.21
  -4  -9  -5  213.86   15.95
  -5 -10  -6    0.94    2.71
  -5 -10  -6   -5.80    4.65
  -5 -10  -6    6.67    3.78
 -10  -5  -6    2.37    3.55
 -10  -5  -6    0.04    3.61
  10   5   6    5.55    3.23
  -3 -10  -8    5.12    3.09
  10   3   8    9.86    3.86
 -10  -3  -8    3.30    4.13
   9   2   7   46.20    7.04
  -9  -2  -7   37.77    8.89
  -9  -2  -7   40.82    8.07
  -2  -9  -7   31.83    6.75
  -1  -8  -6   13.99    4.54
   1   8   6   13.75    4.98
  -8  -1  -6    8.62    4.40
  -8  -1  -6   15.31    4.96
   8   1   6    8.38    3.08
  -1  -8  -6   14.23    3.97
   0  -7  -5  201.41   13.68
  -7   0  -5  244.34   15.03
   0  -7  -5  234.61   13.47
  -7   0  -5  241.96   17.36
   7   0   5  236.15   11.64
   0   7   5  247.90   18.03
   7   0   5  254.46   12.92
   1  -6  -4   28.22    5.17
   6  -1   4   37.05    5.53
  -1   6   4   37.78    7.06
  -6   1  -4   32.81    5.31
   6  -1   4   31.40    3.73
  -6   1  -4   36.45    6.88
   1  -6  -4   20.45    3.83
  -5   2  -3  289.96   16.88
   2  -5  -3  247.85   14.36
  -2   5   3  277.33   17.26
   2  -5  -3  204.79   10.64
  -5   2  -3  284.35   14.44
   5  -2   3  354.14   16.87
  -4   3  -2    5.45    2.28
   3  -4  -2    4.24    2.79
  -3   4   2    1.95    2.47
   4  -3   2   10.60    3.67
  -4   3  -2    6.21    2.49
   4  -3   2    0.30    1.89
   3  -4  -2    2.08    1.43
   3  -4   1   72.54    7.92
   4  -3  -1   54.42    5.92
   3  -4   1  110.24   11.23
  -4   3   1   49.04    5.08
  -3   4  -1   86.92    7.92
  -4   3   1   81.32    9.04
   4  -3  -1   71.99    8.94
  -3   4  -1   91.87    6.88
   5  -2   0    5.63    3.37
  -2   5   0    6.22    1.88
  -5   2   0    5.02    3.10
  -5   2   0    8.02    2.65
   2  -5   0    9.86    4.37
   5  -2   0    5.23    2.22
  -2   5   0    5.91    2.59
   2  -5   0    7.16    2.24
   1  -6  -1  122.17    7.65
  -6   1  -1  131.29    9.87
  -6   1  -1  130.88   11.21
  -1   6   1  117.46    7.18
   1  -6  -1  139.35   12.44
  -1   6   1  123.12   10.53
   0   7   2   15.77    4.64
   0  -7  -2   16.26    4.86
  -7   0  -2   15.11    4.15
  -7   0  -2   16.13    4.60
   0  -7  -2   11.61    2.55
  -8  -1  -3   79.39    9.67
  -8  -1  -3   87.59   10.15
  -1  -8  -3   86.56   10.62
  -2  -9  -4   10.59    4.65
  -9  -2  -4   14.93    5.19
  -9  -2  -4   12.69    4.49
   9   2   4    9.09    3.75
 -10  -3  -5   54.68    9.58
  -3 -10  -5   61.45   10.05
 -10  -3  -5   31.92    7.45
  10   3   5   51.69    8.08
  -3 -10  -5   40.49    8.90
  -9   0  -6   -2.18    3.57
  -8   1  -5   31.00    7.39
  -8   1  -5   32.65    6.64
   1  -8  -5   19.61    5.26
  -1   8   5   26.84    7.64
  -2   7   4    8.42    4.52
  -7   2  -4    8.71    3.58
  -7   2  -4    7.21    3.58
   7  -2   4   10.15    3.98
   2  -7  -4   10.09    3.95
   3  -6  -3  136.60   12.45
  -3   6   3  159.49   15.19
  -6   3  -3  134.16   11.64
   6  -3   3  164.02   14.67
   4  -5  -2    2.35    2.36
  -4   5   2   -3.88    4.59
  -5   4  -2   -0.64    2.83
   5  -4   2    3.70    4.06
   5  -4  -1   91.32   11.24
  -4   5  -1  109.53   10.72
  -5   4   1   81.45   10.98
   3  -6   0    9.62    4.40
   6  -3   0    2.78    2.67
  -6   3   0    2.51    3.07
  -3   6   0    6.80    3.15
   2  -7  -1   16.48    5.15
  -7   2  -1   11.14    3.86
  -7   2  -1   13.94    4.20
  -2   7   1   12.46    4.46
  -8   1  -2   21.69    5.83
  -1   8   2   19.17    6.11
   1  -8  -2   17.43    5.44
  -8   1  -2   14.58    4.51
  -9   0  -3  419.57   24.56
  -9   0  -3  408.46   22.90
 -10  -1  -4    7.23    3.53
  -8  -8 -10   22.48    7.87
  -7  -7  -9    5.16    4.60
  -7  -7  -9    1.83    3.77
  -6  -6  -8   20.60    7.58
  -6  -6  -8   20.76    6.22
   5   5   7    1.28    1.13
  -5  -5  -7    2.12    2.66
   4   4   6   12.17    3.45
   4   4   6    9.50    2.37
  -3  -3  -5    4.03    2.07
   3   3   5    7.80    1.91
  -3  -3  -5   11.27    3.02
   3   3   5   10.24    2.63
  -2  -2  -4 2499.03   31.58
   2   2   4 2387.25   29.56
  -2  -2  -4 2419.73   31.40
  -2  -2  -4 2453.88   34.40
  -1  -1  -3   15.27    2.31
   1   1   3   15.85    2.13
  -1  -1  -3   13.86    2.61
   1   1   3   13.33    2.37
  -1  -1  -3   14.09    2.28
   0   0   2  316.18    7.44
   0   0  -2  313.06    8.44
   0   0   2  311.32    8.37
   0   0   2  305.01    6.90
   0   0  -2  293.99    6.56
  -1  -1   1    3.62    1.28
  -1  -1   1    3.13    1.29
   1   1  -1    2.13    1.18
   2   2   0 1817.43   24.12
  -2  -2   0 1764.75   22.05
   3   3   1   38.31    3.69
  -3  -3  -1   32.61    3.50
  -3  -3  -1   46.50    5.23
   4   4   2 1026.70   19.08
  -4  -4  -2 1000.40   18.81
  -5  -5  -3    1.04    2.03
  -5  -5  -3    0.49    1.16
  -6  -6  -4  106.92    6.70
  -6  -6  -4  202.81   14.59
  -7  -7  -5    1.97    1.53
  -7  -7  -5    3.69    3.45
  -8  -8  -6  112.83   13.90
  -7  -9 -10   15.11    6.53
  -8  -6  -9   12.37    5.45
  -6  -8  -9   17.26    6.02
  -6  -8  -9   11.08    5.25
  -5  -7  -8  210.52   15.86
  -5  -7  -8  218.56   17.45
  -6  -4  -7   11.86    4.30
  -4  -6  -7   14.98    4.23
   4   6   7   15.43    3.26
  -4  -6  -7   15.92    4.57
  -3  -5  -6  590.21   22.02
  -5  -3  -6  619.38   23.12
  -3  -5  -6  590.82   20.33
   3   5   6  599.40   18.62
   2   4   5    8.91    2.67
  -2  -4  -5    9.21    2.97
   4   2   5    9.28    1.54
  -4  -2  -5   10.62    3.26
   4   2   5   11.37    3.06
  -2  -4  -5    8.24    2.55
  -2  -4  -5   15.03    3.51
  -3  -1  -4  864.61   21.55
   3   1   4  909.39   21.88
  -1  -3  -4  844.18   16.20
   1   3   4  841.15   21.62
   3   1   4  841.14   14.11
   1   3   4  826.04   21.72
  -1  -3  -4  872.82   21.34
   1   3   4  874.47   20.43
  -1  -3  -4  844.47   21.36
   2   0   3   49.09    4.62
   0  -2  -3   44.38    2.45
   0  -2  -3   45.85    4.64
   0   2   3   46.39    4.64
   0  -2  -3   42.99    4.44
   2   0   3   45.89    3.66
   0   2   3   52.10    4.92
  -2   0  -3   48.19    4.80
   0   2   3   45.72    4.41
  -2   0  -3   49.17    3.99
   1  -1   2 1871.38   26.21
  -1   1   2 1874.07   25.88
   1  -1   2 1797.59   23.84
   1  -1  -2 1842.34   25.47
  -1   1  -2 1860.22   26.08
  -1   1   2 1852.96   26.73
   1  -1  -2 1856.19   26.01
  -1   1  -2 1894.09   25.26
  -2   0   1   31.60    2.33
   2   0  -1   29.86    2.56
   0  -2   1   31.06    3.53
   0  -2   1   30.82    2.01
   2   0  -1   30.60    3.60
  -2   0   1   29.25    3.66
  -2   0   1   33.28    3.64
   0  -2   1   28.59    2.04
   0   2  -1   35.79    3.94
   2   0  -1   36.39    3.90
  -3  -1   0  803.09   20.05
  -1  -3   0  863.09   18.96
   3   1   0  932.57   20.75
  -3  -1   0  886.67   16.84
   3   1   0  865.33   18.59
   3   1   0  822.54   17.49
   1   3   0  896.27   19.91
  -1  -3   0  874.47   15.63
  -3  -1   0  860.34   19.68
  -3  -1   0  835.33   17.95
   1   3   0  801.51   14.03
  -4  -2  -1  140.27    8.97
  -2  -4  -1  162.01    8.97
  -4  -2  -1  175.62    9.36
   4   2   1  142.38    9.03
   4   2   1  163.64    9.45
   2   4   1  143.47    8.67
  -2  -4  -1  175.10    8.74
  -4  -2  -1  155.81    9.58
   3   5   2  170.31    9.79
  -5  -3  -2  180.99   10.93
   5   3   2  168.89   11.10
   5   3   2  178.44   10.75
  -5  -3  -2  153.44   10.64
  -3  -5  -2  154.48    9.41
  -3  -5  -2  141.30    9.77
  -4  -6  -3   48.26    5.75
  -6  -4  -3   50.57    7.09
  -4  -6  -3   44.47    6.78
   4   6   3   51.00    5.70
  -7  -5  -4  155.87   13.56
  -5  -7  -4  176.76   14.25
   5   7   4  163.86   10.66
  -5  -7  -4  162.53   10.78
  -8  -6  -5   27.85    6.97
  -6  -8  -5   34.79    7.77
  -6  -8  -5   29.24    5.47
  -9  -7  -6    9.47    4.67
  -7  -9  -6   11.66    4.95
  -5  -9  -9    1.42    2.78
  -5  -9  -9    2.53    3.04
  -9  -5  -9   -0.33    3.61
  -8  -4  -8   12.93    5.02
  -4  -8  -8   17.17    5.17
  -4  -8  -8   22.81    5.65
  -7  -3  -7    2.37    2.50
  -3  -7  -7    5.38    3.11
  -3  -7  -7    8.14    3.72
  -6  -2  -6  354.83   19.28
  -2  -6  -6  353.49   15.54
  -2  -6  -6  316.49   16.70
   2   6   6  346.48   19.38
  -5  -1  -5   27.34    5.22
   1   5   5   26.36    5.10
  -1  -5  -5   26.16    3.87
  -5  -1  -5   26.37    3.17
   5   1   5   20.56    2.68
  -1  -5  -5   23.17    4.43
  -5  -1  -5   24.71    4.19
  -4   0  -4    8.14    2.70
   0   4   4   11.61    3.57
   4   0   4   18.58    3.30
  -4   0  -4    7.52    3.21
   0   4   4   18.48    4.61
   0  -4  -4    4.12    1.80
  -4   0  -4   15.95    3.16
   0   4   4   10.96    3.42
   0  -4  -4   14.99    3.52
  -1   3   3   64.53    6.80
  -3   1  -3   72.19    5.11
  -1   3   3   63.75    6.59
   1  -3  -3   58.94    3.47
   1  -3  -3   72.02    6.51
   3  -1   3   70.76    6.81
  -3   1  -3   73.87    6.67
   3  -1   3   80.15    6.45
  -3   1  -3   72.24    7.13
  -1   3   3   68.80    7.10
  -3   1  -3   61.10    5.26
   1  -3  -3   68.31    6.78
   2  -2   2  663.14   19.12
   2  -2   2  654.96   19.56
   2  -2   2  591.68   14.07
  -2   2   2  641.04   19.60
  -2   2  -2  623.69   12.67
  -2   2  -2  678.83   19.87
  -2   2  -2  635.36   13.43
  -2   2   2  628.24   19.77
   2  -2  -2  650.65   18.76
  -2   2   2  630.85   19.56
   2  -2  -2  640.71   19.38
  -3   1   1   35.28    4.66
   1  -3   1   40.63    5.24
  -3   1   1   36.77    3.29
  -3   1   1   37.89    4.96
  -1   3  -1   36.25    5.03
  -3   1   1   40.70    5.02
   3  -1  -1   37.00    4.91
  -1   3  -1   34.57    2.13
  -1   3  -1   37.05    3.54
  -3   1   1   31.32    3.82
   1  -3   1   35.16    3.42
   3  -1  -1   32.52    3.30
   3  -1  -1   39.61    4.96
   1  -3   1   39.33    4.92
   0   4   0 1055.74   13.41
   0  -4   0 1271.28   28.40
   4   0   0 1218.29   28.55
   0   4   0 1105.56   21.58
  -4   0   0 1136.70   26.43
   0   4   0 1213.29   29.19
  -4   0   0 1100.36   24.70
   0  -4   0 1106.23   20.96
  -4   0   0 1100.92   23.23
  -4   0   0 1103.93   20.75
   4   0   0 1107.15   22.19
   4   0   0 1218.86   28.89
  -4   0   0 1098.55   26.12
  -1  -5  -1  163.67    6.31
  -5  -1  -1  183.36   11.80
  -5  -1  -1  171.60    9.24
  -5  -1  -1  179.28    9.93
   5   1   1  175.13   10.22
   1   5   1  196.43   12.39
   5   1   1  186.39   10.53
  -1  -5  -1  158.73    9.29
  -5  -1  -1  173.28   11.18
  -1  -5  -1  193.03   11.61
   6   2   2   63.15    6.97
  -6  -2  -2   73.33    8.06
  -6  -2  -2   59.20    6.67
  -2  -6  -2   49.95    4.54
  -2  -6  -2   52.41    6.14
  -2  -6  -2   69.61    7.60
  -6  -2  -2   41.34    4.35
  -7  -3  -3    8.31    1.84
  -7  -3  -3   11.54    3.96
  -3  -7  -3   13.16    3.85
  -7  -3  -3   13.81    4.22
   7   3   3   10.36    3.49
  -3  -7  -3   10.50    2.80
   8   4   4  336.76   18.37
  -8  -4  -4  292.27   18.75
  -8  -4  -4  267.72   17.69
  -4  -8  -4  274.05   19.30
  -4  -8  -4  295.39   17.79
  -4  -8  -4  238.66   13.65
  -5  -9  -5   17.13    4.98
  -9  -5  -5   13.72    5.35
  -5  -9  -5    5.23    2.84
  -5  -9  -5    6.89    4.02
  -9  -5  -5   14.22    4.87
 -10  -6  -6   87.73   12.34
  10   6   6  188.19   16.36
  -6 -10  -6  126.23   14.78
 -10  -6  -6  109.38   14.51
  -6 -10  -6   29.46    6.87
 -10  -4  -9   14.40    5.16
  -9  -3  -8   40.22    8.87
  -9  -3  -8   46.23    8.67
  -3  -9  -8   22.13    5.96
  -8  -2  -7   24.51    5.71
  -8  -2  -7   25.91    6.37
  -2  -8  -7   28.67    5.47
  -2  -8  -7   16.17    4.55
  -7  -1  -6  427.29   19.98
  -7  -1  -6  410.59   22.77
  -1  -7  -6  433.07   17.81
   1   7   6  434.00   23.82
   7   1   6  430.06   13.56
  -1  -7  -6  372.01   19.31
  -6   0  -5    1.67    1.43
   0   6   5    6.70    3.80
   6   0   5    5.44    2.22
  -6   0  -5    0.17    2.29
  -6   0  -5    6.02    2.72
   0  -6  -5    3.79    1.88
   0  -6  -5    3.28    2.55
  -5   1  -4   42.85    5.36
   1  -5  -4   32.97    3.85
  -5   1  -4   48.47    7.31
  -5   1  -4   50.79    6.68
   1  -5  -4   39.45    5.89
  -1   5   4   48.19    7.32
   5  -1   4   40.65    3.74
  -5   1  -4   38.45    5.35
   5  -1   4   50.22    5.88
  -4   2  -3  137.74   10.98
   2  -4  -3  105.72    6.21
  -2   4   3  143.31   11.67
   2  -4  -3  128.55    9.83
  -4   2  -3  149.11    8.79
   4  -2   3  171.78   11.09
  -4   2  -3  142.08    8.83
   3  -3   2  769.26   24.39
   3  -3   2  667.52   20.47
   3  -3  -2  576.29   15.45
  -3   3  -2  683.96   18.92
  -3   3  -2  741.83   16.81
   3  -3  -2  632.97   22.27
  -3   3   2  738.27   25.30
   4  -2  -1   15.22    4.13
  -4   2   1   11.66    2.69
  -2   4  -1   12.51    2.98
  -4   2   1   11.48    3.77
   2  -4   1   11.68    2.87
   4  -2  -1    6.29    1.80
  -4   2   1    7.00    2.13
   2  -4   1   13.87    4.53
  -2   4  -1    7.22    1.58
  -1   5   0  147.57    9.75
   1  -5   0  121.40    6.18
  -5   1   0  148.34    9.23
   5  -1   0  127.47    9.08
  -1   5   0  123.89    5.69
  -5   1   0  148.42   11.44
   5  -1   0  156.79   12.53
   1  -5   0  144.11    9.52
   1  -5   0  174.49   12.59
   0   6   1    4.95    2.65
   0  -6  -1    2.53    1.22
  -6   0  -1    0.83    1.94
  -6   0  -1    2.39    2.33
   0  -6  -1    2.47    2.94
  -6   0  -1    4.91    2.32
  -7  -1  -2  120.11   10.00
  -1  -7  -2  113.94    6.87
  -7  -1  -2  126.45   11.42
  -7  -1  -2  118.64    9.29
  -1  -7  -2  134.91   12.54
  -8  -2  -3   69.03    9.26
  -8  -2  -3   62.61    8.08
   8   2   3   66.78    8.09
  -2  -8  -3   50.56    5.44
  -2  -8  -3   61.51    8.93
  -9  -3  -4  174.86   15.69
  -9  -3  -4  140.94   13.33
  -3  -9  -4  133.90   13.86
   9   3   4  164.44   13.63
  -3  -9  -4  172.66   14.97
  -4 -10  -5    3.15    3.06
  -4 -10  -5   -0.41    3.86
 -10  -4  -5    3.16    2.78
 -10  -4  -5    2.27    3.03
  10   4   5    3.30    3.01
  -5 -11  -6   25.35    6.57
  -9  -1  -7   13.65    4.93
  -1  -9  -7   10.55    4.48
  -8   0  -6   91.73   10.07
  -8   0  -6   96.66   12.98
   0  -8  -6   73.85    9.30
   0   8   6   83.65   12.44
   7  -1   5   10.85    3.30
  -1   7   5   19.15    6.01
  -7   1  -5   12.49    5.06
  -7   1  -5   16.77    4.30
   1  -7  -5    8.92    3.57
  -6   2  -4  122.13   12.57
   2  -6  -4  109.32   10.60
   6  -2   4  143.76   11.87
  -6   2  -4  109.27    9.96
  -2   6   4  125.82   13.45
  -3   5   3   65.19    9.42
   5  -3   3   79.18    9.07
   3  -5  -3   63.14    8.08
  -5   3  -3   56.85    6.94
  -4   4   2  142.83   12.99
  -4   4  -2  139.14   10.63
   4  -4  -2  144.13   12.40
   3  -5   1    5.22    3.62
  -5   3   1    1.64    2.63
   5  -3  -1    1.00    2.70
  -3   5  -1    3.97    2.62
  -6   2   0   50.20    6.29
   2  -6   0   57.17    9.00
  -6   2   0   53.25    8.20
  -2   6   0   43.54    6.78
   6  -2   0   34.24    7.63
  -7   1  -1   32.02    5.78
  -1   7   1   31.31    5.96
   1  -7  -1   33.32    6.87
  -7   1  -1   30.68    6.56
  -8   0  -2  202.27   14.54
   0   8   2  208.11   15.75
   0  -8  -2  219.75   17.31
  -8   0  -2  206.15   16.14
  -1  -9  -3   17.17    5.89
  -9  -1  -3    8.33    3.78
  -9  -1  -3   17.28    5.32
 -10  -2  -4   47.58    8.66
  -2 -10  -4   46.72    9.22
   3  -7  -4   44.77    7.60
   7  -3   4   55.49    9.11
   6  -4   3    3.44    3.91
  -4   6   3    5.58    4.52
   4  -6  -3    3.50    3.53
   5  -5  -2   41.45    7.38
  -5   5   2   42.24    8.71
   6  -4  -1    3.49    3.56
   4  -6   1    9.04    4.29
  -4   6  -1   -1.31    2.38
  -6   4   1    5.13    4.02
  -3   7   0   19.50    5.36
  -7   3   0   22.36    6.71
  -2   8   1   36.73    7.92
  -8   2  -1   34.92    8.08
  -8  -7 -10    0.88    3.30
  -7  -8 -10    5.85    5.05
  -7  -8 -10   -1.40    4.33
  -6  -7  -9   62.02    9.50
  -7  -6  -9   48.44   10.08
  -6  -5  -8   18.67    5.50
  -5  -6  -8   15.78    4.50
   5   6   8   16.82    3.03
  -5  -6  -8   15.88    5.46
  -5  -4  -7   61.45    8.41
  -4  -5  -7   68.86    8.12
  -4  -5  -7   63.95    8.51
   5   4   7   35.97    3.02
   4   5   7   58.40    5.53
  -4  -3  -6   45.53    6.33
  -3  -4  -6   43.14    5.82
   4   3   6   45.08    5.85
  -3  -4  -6   53.46    6.77
   3   4   6   41.85    5.24
  -4  -3  -6   43.64    5.74
   3   4   6   32.93    4.42
   4   3   6   42.15    3.52
   3   2   5 1864.59   23.15
  -3  -2  -5 1904.63   32.59
   3   2   5 1855.12   31.22
   2   3   5 1847.97   27.59
  -3  -2  -5 1684.91   28.98
  -2  -3  -5 1952.40   34.88
  -2  -3  -5 1974.06   29.38
  -2  -3  -5 1705.90   32.12
   2   1   4   13.63    2.28
  -2  -1  -4    9.97    2.14
   1   2   4   11.09    2.65
  -1  -2  -4   10.48    2.42
  -2  -1  -4   11.66    2.60
  -1  -2  -4   10.64    2.02
   2   1   4   11.61    2.49
   1   2   4   11.36    1.92
  -2  -1  -4    8.15    2.54
   1   2   4   10.83    2.65
  -1  -2  -4    8.10    2.46
   0   1   3   75.36    5.15
   0  -1  -3   69.50    3.23
  -1   0  -3   68.23    5.10
   1   0   3   70.51    5.06
   0   1   3   74.96    3.37
  -1   0  -3   69.16    3.48
  -1   0  -3   72.68    4.82
   0   1   3   74.15    5.52
   0  -1  -3   68.03    5.20
   0  -1  -3   65.42    4.69
   1   0   3   74.56    4.98
   0  -1   2   17.36    2.64
   0   1  -2   16.71    2.62
   0  -1   2   15.43    1.84
   1   0  -2   14.95    2.35
   0  -1   2   15.11    2.56
   0   1  -2   16.16    1.85
   1   0  -2   13.98    2.47
  -1   0   2   16.30    2.49
  -1   0   2   16.69    2.71
   2   1  -1 1956.61   25.38
  -2  -1   1 1845.16   21.17
  -1  -2   1 1829.86   17.02
  -2  -1   1 1812.01   25.06
  -1  -2   1 1803.13   25.50
  -2  -1   1 1910.30   25.92
   1   2  -1 1894.44   17.15
   2   1  -1 1893.72   25.42
  -1  -2   1 1791.51   21.29
   1   2  -1 1896.87   26.95
  -3  -2   0 1609.12   27.07
   3   2   0 1564.61   26.41
  -3  -2   0 1583.95   25.62
   2   3   0 1546.64   25.59
  -2  -3   0 1537.53   24.82
  -3  -2   0 1631.64   26.46
   3   2   0 1575.15   26.11
   2   3   0 1603.37   24.29
  -4  -3  -1  373.11   14.67
   3   4   1  359.39   12.78
  -3  -4  -1  342.69   12.67
   4   3   1  370.80   14.42
  -4  -3  -1  281.11   10.34
  -4  -3  -1  248.58   12.04
  -4  -5  -2   63.07    5.79
  -5  -4  -2   70.39    7.39
  -4  -5  -2   68.00    7.44
  -5  -4  -2   39.71    4.00
   5   4   2   68.88    7.33
   4   5   2   68.19    5.97
  -5  -4  -2   46.02    6.31
  -5  -6  -3  367.13   14.50
  -6  -5  -3  462.69   20.23
  -5  -6  -3  454.44   20.85
   5   6   3  396.87   14.96
  -6  -7  -4   25.06    4.04
  -6  -7  -4   26.10    6.05
  -7  -6  -4   28.80    6.54
  -7  -6  -4   10.07    2.11
   6   7   4   22.27    4.53
  -8  -7  -5   35.52    8.06
  -7  -8  -5   34.40    7.68
  -9  -8  -6    6.62    4.16
  -8  -9  -6    6.26    3.79
  -6  -9 -10    4.47    3.85
  -5  -8  -9  158.98   14.66
  -5  -8  -9  145.11   14.68
  -8  -5  -9  141.93   15.46
  -4  -7  -8   35.91    6.29
  -7  -4  -8   30.34    6.82
  -4  -7  -8   23.98    6.04
  -3  -6  -7  193.00   12.21
  -6  -3  -7  186.61   14.38
  -3  -6  -7  182.61   13.61
   5   2   6   13.07    1.86
  -2  -5  -6   18.48    3.67
   2   5   6   20.08    4.00
  -5  -2  -6   20.93    5.14
   2   5   6   19.41    4.46
  -2  -5  -6   21.86    4.60
  -4  -1  -5  659.42   22.04
  -1  -4  -5  657.64   21.25
   4   1   5  640.72   14.43
  -1  -4  -5  609.21   15.15
   1   4   5  622.02   21.81
   1   4   5  608.65   21.58
   1   4   5  659.63   20.46
  -3   0  -4   27.34    4.39
   3   0   4   30.41    4.49
   0  -3  -4   28.23    2.41
   3   0   4   28.81    3.37
   0   3   4   30.38    4.58
   0  -3  -4   28.95    4.34
   0   3   4   30.10    4.58
   0  -3  -4   31.40    4.50
   0   3   4   30.43    4.57
  -3   0  -4   32.42    3.88
  -2   1  -3  889.90   12.93
  -2   1  -3  892.17   22.08
   2  -1   3  892.30   21.80
  -1   2   3  863.05   21.79
   2  -1   3  890.57   19.23
  -1   2   3  881.99   22.22
   1  -2  -3  885.77   21.60
  -2   1  -3  897.73   20.36
   1  -2  -3  841.82   20.96
  -1   2   3  857.67   21.87
   1  -2   2  365.25   14.16
  -2   1   2  296.65    5.41
   1  -2   2  283.98    6.81
   1  -2   2  353.88   12.86
   2  -1  -2  350.43   13.20
  -1   2  -2  372.79   13.98
  -2   1   2  346.94   13.38
  -2   1   2  362.66   14.13
  -1   2  -2  305.75    6.59
   2  -1  -2  354.87   13.26
  -3   0   1 1253.67   25.48
   3   0  -1 1366.69   27.59
   3   0  -1 1359.14   26.93
   0  -3   1 1281.85   26.13
   3   0  -1 1152.13   18.45
  -3   0   1 1207.52   23.34
   0   3  -1 1421.98   28.49
  -3   0   1 1365.60   27.26
   0  -3   1 1237.56   16.50
  -3   0   1 1279.85   17.59
  -4  -1   0   35.87    4.44
  -4  -1   0   41.28    5.18
  -1  -4   0   33.26    4.67
  -4  -1   0   31.61    3.64
   1   4   0   37.82    3.42
   4   1   0   31.02    4.11
  -4  -1   0   36.40    5.05
   1   4   0   34.74    4.81
  -1  -4   0   33.79    1.90
  -1  -4   0   39.36    3.82
   4   1   0   41.76    5.30
  -5  -2  -1  315.21   15.66
  -2  -5  -1  305.16   14.00
  -2  -5  -1  302.39    9.53
  -5  -2  -1  333.45   13.77
   5   2   1  295.40   13.90
   2   5   1  366.68   16.02
  -2  -5  -1  307.71   12.92
  -5  -2  -1  311.70   14.98
   5   2   1  323.89   14.33
   3   6   2  146.04   10.62
  -6  -3  -2  133.02   10.26
   6   3   2  147.29   10.82
  -3  -6  -2  136.44    9.93
  -6  -3  -2  128.97   10.90
  -3  -6  -2  142.07   10.23
  -4  -7  -3  128.27   10.25
  -7  -4  -3  123.88   12.41
  -7  -4  -3  134.27   11.58
   7   4   3  150.13   11.91
  -4  -7  -3  130.40   12.41
   8   5   4   19.07    5.24
  -5  -8  -4    9.46    3.32
  -8  -5  -4   13.85    4.77
  -5  -8  -4    9.86    4.07
  -9  -6  -5   76.11   11.09
  -6  -9  -5   95.30   12.24
  -6  -9  -5   93.17   10.42
  -6  -9  -5   83.04   10.19
 -10  -7  -6    2.50    3.56
  10   7   6    0.88    2.74
  -7 -10  -6   -0.65    4.45
  -7 -10  -6   -4.22    3.32
  -9  -4  -9   36.71    8.26
  -4  -9  -9   16.45    5.82
  -8  -3  -8   16.44    6.05
  -3  -8  -8   11.00    3.89
  -8  -3  -8    4.35    3.61
  -3  -8  -8    5.07    3.58
  -7  -2  -7  138.13   13.59
  -7  -2  -7  135.26   11.51
  -2  -7  -7  146.71   10.67
   2   7   7  141.99   14.05
  -2  -7  -7  110.32   11.03
   1   6   6   15.13    4.64
   6   1   6   12.33    2.46
  -6  -1  -6   16.42    4.99
  -6  -1  -6   11.82    3.47
  -1  -6  -6   14.61    3.08
  -1  -6  -6   10.81    3.68
   0   5   5   13.29    4.40
  -5   0  -5   10.67    3.88
   5   0   5    7.43    2.28
  -5   0  -5   10.62    2.94
   0  -5  -5   10.85    2.37
  -5   0  -5   10.66    2.73
   0  -5  -5    6.37    2.87
   4  -1   4   22.00    3.69
   1  -4  -4   24.60    2.51
  -1   4   4   27.56    5.42
   1  -4  -4   24.80    2.73
  -4   1  -4   25.95    5.21
  -4   1  -4   23.24    3.42
  -4   1  -4   25.24    3.99
   1  -4  -4   22.70    4.45
  -4   1  -4   27.27    4.52
   3  -2   3  520.37   17.92
   2  -3  -3  460.56   17.82
  -3   2  -3  542.51   19.97
  -2   3   3  478.33   19.60
  -3   2  -3  478.98   13.60
  -3   2  -3  456.10   13.11
  -3   2  -3  446.73   18.50
   2  -3   2   48.07    6.11
   2  -3   2   41.51    4.30
  -2   3  -2   52.76    6.86
  -2   3  -2   43.53    4.17
  -3   2   2   50.00    6.59
   3  -2  -2   49.85    6.18
  -3   2   2   46.15    6.16
  -2   3  -2   54.13    3.52
   1  -4   1  237.65   13.48
  -4   1   1  209.36    8.81
   4  -1  -1  196.34    9.14
   1  -4   1  219.40    9.56
  -4   1   1  247.31   13.65
  -4   1   1  206.99   10.87
  -4   1   1  207.12   12.28
  -1   4  -1  215.83    9.64
   4  -1  -1  251.68   13.93
  -5   0   0   29.17    5.03
   5   0   0   29.08    5.22
  -5   0   0   26.67    3.82
   0   5   0   27.41    4.04
   5   0   0   25.36    3.93
   0  -5   0   23.07    4.48
  -5   0   0   25.38    4.23
   0  -5   0   12.19    1.22
   0  -5   0   28.08    3.87
  -6  -1  -1  156.57   11.78
  -1  -6  -1  165.36   12.16
  -6  -1  -1  148.93    9.80
   6   1   1  139.60   10.23
  -1  -6  -1  135.90    9.34
  -1  -6  -1  121.78    5.49
  -6  -1  -1  131.93    9.19
  -7  -2  -2    4.82    1.90
  -7  -2  -2    6.41    2.62
  -7  -2  -2    7.13    2.87
  -2  -7  -2   11.37    3.83
   7   2   2    7.31    2.97
  -2  -7  -2    7.68    1.89
  -8  -3  -3  162.07   14.05
  -8  -3  -3  136.98   12.07
   8   3   3  160.93   12.79
  -3  -8  -3  147.23   13.08
  -3  -8  -3  123.53    8.28
   9   4   4   29.20    6.10
  -4  -9  -4   20.77    5.94
  -9  -4  -4   22.82    5.87
  -9  -4  -4   32.34    7.38
  -4  -9  -4   25.18    6.72
  -4  -9  -4   17.75    3.91
 -10  -5  -5  126.46   14.90
 -10  -5  -5   93.57   12.06
  -5 -10  -5   91.67   12.95
  -5 -10  -5  124.72   12.94
  -9  -2  -8    3.08    3.43
  -2  -9  -8    1.81    2.99
  -8  -1  -7  102.20   10.73
  -8  -1  -7   94.97   12.54
   1   8   7  104.11   13.25
  -1  -8  -7   84.24   10.41
   7   0   6   16.02    3.41
   0   7   6   17.31    5.57
  -7   0  -6   22.14    6.00
  -7   0  -6   21.33    4.70
   0  -7  -6   17.97    4.63
  -6   1  -5  398.98   22.29
   1  -6  -5  379.40   13.88
   6  -1   5  437.99   13.00
  -1   6   5  418.74   23.64
   6  -1   5  423.44   17.62
  -6   1  -5  384.69   16.90
   2  -5  -4    9.73    3.40
  -5   2  -4   11.75    3.03
  -2   5   4    7.13    4.23
  -5   2  -4   11.83    4.21
   5  -2   4   13.47    3.85
  -5   2  -4    8.84    2.81
   4  -3   3  298.55   16.86
  -3   4   3  248.14   16.68
  -4   3  -3  272.59   11.59
   3  -4  -3  225.48   14.62
  -4   3  -3  230.36   11.93
  -3   4  -2   30.41    3.62
  -4   3   2   24.87    5.75
   4  -3  -2   12.61    2.45
   3  -4   2   21.72    4.34
  -4   3   2   11.89    2.87
  -3   4  -2   25.31    4.22
   4  -3  -2   32.89    6.25
  -5   2   1   96.64    7.42
   5  -2  -1   54.42    5.78
  -5   2   1   67.17    6.92
   2  -5   1   86.77    7.86
  -2   5  -1   68.78    4.28
  -2   5  -1   91.79    8.17
  -5   2   1   96.21   10.16
   5  -2  -1  120.08   11.45
   2  -5   1  111.06   11.41
  -6   1   0  134.48    9.59
   6  -1   0  101.12    8.90
   1  -6   0  146.94   12.80
  -1   6   0  136.20   10.33
   6  -1   0  143.88   13.01
  -6   1   0  138.42   12.25
  -7   0  -1  496.96   20.23
   0   7   1  498.53   21.57
   0  -7  -1  551.76   26.08
  -7   0  -1  508.50   23.76
  -1  -8  -2   34.12    7.27
  -8  -1  -2   25.49    5.34
  -8  -1  -2   27.77    5.81
  -2  -9  -3   17.15    5.36
  -9  -2  -3   12.62    4.57
  -9  -2  -3   13.07    4.96
  -3 -10  -4    1.69    3.59
 -10  -3  -4    1.39    2.55
 -10  -3  -4    1.66    2.99
  -3 -10  -4   -4.96    5.47
  10   3   4    1.05    3.34
   1  -8  -6    5.42    3.22
   2  -7  -5   24.29    5.43
  -2   7   5   28.16    7.30
   7  -2   5   44.58    7.78
  -3   6   4    1.44    3.95
  -6   3  -4    8.84    3.30
   3  -6  -4    3.38    2.84
   4  -5  -3    7.66    3.41
   5  -4   3   15.50    5.30
  -4   5   3    5.68    4.27
  -5   4  -3   15.41    4.06
   5  -4  -2   11.25    4.47
  -4   5  -2    8.51    3.14
   4  -5   2   17.66    5.54
  -5   4   2    7.15    3.65
  -3   6  -1   51.03    7.34
   3  -6   1   77.84   10.36
  -6   3   1   55.10    8.90
   6  -3  -1   56.90    9.75
   2  -7   0    0.20    2.73
  -7   2   0    1.21    3.02
  -2   7   0   -0.46    2.47
   1  -8  -1   98.22   12.19
  -8   1  -1   90.25    9.87
  -1   8   1   99.97   11.23
  -8   1  -1   92.78   11.63
  -9   0  -2   12.58    4.29
  -9   0  -2   12.94    4.84
 -10  -1  -3   52.99    8.75
  -7  -7 -10   20.77    6.86
  -7  -7 -10   14.63    6.55
  -6  -6  -9   -7.37    4.13
  -6  -6  -9   -0.30    2.68
  -5  -5  -8  108.72   11.55
  -5  -5  -8  113.00   13.02
   5   5   8   76.76    5.97
   4   4   7    7.72    2.42
  -4  -4  -7   10.30    3.85
  -4  -4  -7   15.95    4.17
  -3  -3  -6  182.02   10.76
   3   3   6  162.61    9.92
  -3  -3  -6  184.96   12.26
  -2  -2  -5   33.39    4.04
   2   2   5   24.89    3.26
  -2  -2  -5   22.41    3.83
  -2  -2  -5   24.96    4.28
   1   1   4  351.13   10.57
  -1  -1  -4  343.91   10.62
   1   1   4  348.45   10.82
  -1  -1  -4  329.50   10.43
  -1  -1  -4  345.56   12.36
   0   0   3    0.98    1.05
   0   0  -3    0.22    0.85
   0   0   3    0.06    0.96
   0   0   3    0.69    1.32
   0   0  -3    0.94    1.48
   1   1  -2   68.47    4.03
  -1  -1   2   65.16    4.57
   1   1  -2   69.68    4.57
  -1  -1   2   73.94    4.06
  -2  -2   1   35.61    3.91
  -2  -2   1   36.03    3.62
  -2  -2   1   40.74    3.97
   2   2  -1   41.73    3.74
  -2  -2   1   40.83    4.30
   3   3   0  634.06   18.05
  -3  -3   0  587.58   15.79
  -3  -3   0  611.45   16.10
   4   4   1   25.06    4.28
  -4  -4  -1   21.53    4.31
  -4  -4  -1   12.73    2.80
  -4  -4  -1   18.30    3.51
   5   5   2  666.55   22.52
  -5  -5  -2  637.92   22.95
  -5  -5  -2  398.03   14.16
  -5  -5  -2  387.91   18.83
  -6  -6  -3   15.29    4.53
  -6  -6  -3    6.56    2.37
  -7  -7  -4    0.51    1.58
  -7  -7  -4    3.92    3.14
  -8  -8  -5    0.34    3.76
  -8  -6 -10   15.37    5.96
  -6  -8 -10   23.87    7.55
  -8  -6 -10   29.39    9.21
  -6  -8 -10   29.75    7.58
  -7  -5  -9    6.83    4.20
  -5  -7  -9   17.06    5.30
  -5  -7  -9   10.07    5.34
  -6  -4  -8  308.52   18.89
  -4  -6  -8  322.28   17.53
  -4  -6  -8  271.90   17.67
   4   6   8  285.18   14.19
  -5  -3  -7   95.89    9.73
  -3  -5  -7   84.52    8.08
   3   5   7   80.65    7.40
   3   5   7   74.72    7.10
   5   3   7   59.15    3.98
  -3  -5  -7   82.93    9.05
  -4  -2  -6  638.92   22.31
  -2  -4  -6  615.02   17.71
   2   4   6  614.49   16.99
   4   2   6  591.20   13.74
   2   4   6  583.44   21.61
  -2  -4  -6  711.45   23.51
   2   4   6  665.27   20.11
   3   1   5  305.12   10.35
  -1  -3  -5  273.02   12.97
  -1  -3  -5  319.65   10.11
   3   1   5  291.98   13.30
  -3  -1  -5  304.92   13.98
   1   3   5  302.51    9.53
   1   3   5  290.26   14.19
   1   3   5  280.57   12.47
   1   3   5  281.25   13.64
  -1  -3  -5  302.04   13.92
  -2   0  -4 1179.07   24.71
   0  -2  -4 1080.94   12.32
   2   0   4 1130.90   23.58
   0   2   4 1079.50   12.62
   0   2   4 1156.17   25.48
  -2   0  -4 1097.14   16.46
   2   0   4 1155.07   21.02
   0  -2  -4 1122.25   24.56
   0   2   4 1154.05   24.83
   0  -2  -4 1099.19   23.47
   1  -1   3   13.04    2.53
  -1   1  -3   12.53    2.68
  -1   1   3   13.40    2.79
   1  -1   3   12.41    2.69
   1  -1  -3   11.71    2.41
  -1   1  -3   14.08    2.09
  -1   1   3   11.66    2.69
   1  -1  -3   15.00    3.03
   2   0  -2 2452.67   32.57
  -2   0   2 2322.13   18.77
   0  -2   2 2299.28   32.37
  -2   0   2 2413.11   32.21
  -2   0   2 2467.31   34.75
   2   0  -2 2349.47   32.52
   0   2  -2 2413.69   34.06
  -3  -1   1  306.70   12.48
   3   1  -1  349.60   13.24
  -3  -1   1  340.34   10.16
  -1  -3   1  335.76   12.91
  -3  -1   1  315.16   12.76
  -3  -1   1  315.31   12.21
  -1  -3   1  342.79    8.67
   1   3  -1  338.54   13.40
   3   1  -1  372.40   13.68
  -1  -3   1  283.64    5.72
  -4  -2   0  582.41   18.66
  -4  -2   0  642.15   19.59
  -4  -2   0  633.83   17.08
   2   4   0  625.56   19.01
  -2  -4   0  643.18   18.78
   2   4   0  675.27   17.08
   4   2   0  657.77   19.56
   4   2   0  650.53   20.75
  -2  -4   0  587.59   12.29
  -5  -3  -1   21.99    3.67
  -5  -3  -1   27.01    5.64
  -3  -5  -1   33.62    4.80
  -5  -3  -1   33.09    5.17
   3   5   1   44.84    5.35
   3   5   1   34.19    4.98
  -5  -3  -1   30.75    5.27
   5   3   1   47.73    6.12
   6   4   2  531.58   20.74
   4   6   2  432.46   17.20
  -4  -6  -2  365.05   15.76
  -6  -4  -2  378.99   18.15
  -4  -6  -2  358.28   19.00
  -6  -4  -2  240.71   10.32
   7   5   3   12.20    4.02
  -7  -5  -3    0.46    1.23
  -5  -7  -3    8.62    3.52
  -7  -5  -3    6.38    3.44
  -5  -7  -3    6.79    2.91
  -8  -6  -4  126.27   12.80
  -6  -8  -4   87.90   11.72
  -6  -8  -4   96.02    8.94
   8   6   4  149.01   13.60
   9   7   5   12.92    4.74
  -9  -7  -5    2.62    3.52
  -7  -9  -5    2.54    3.28
  -8  -4  -9    4.59    4.67
  -4  -8  -9   17.04    4.64
  -4  -8  -9    6.00    3.90
  -7  -3  -8   49.36    8.78
  -3  -7  -8   55.63    7.11
  -3  -7  -8   50.31    8.12
  -2  -6  -7   49.35    5.76
   2   6   7   50.74    8.03
  -2  -6  -7   46.95    7.33
   6   2   7   27.29    2.81
  -6  -2  -7   59.47    8.68
   1   5   6   15.97    4.64
  -1  -5  -6   15.78    4.03
  -5  -1  -6   15.39    4.40
   5   1   6   18.72    2.88
  -1  -5  -6   18.48    3.00
   0  -4  -5   24.33    4.56
  -4   0  -5   27.99    5.42
  -4   0  -5   28.35    3.74
   4   0   5   29.92    3.82
   0  -4  -5   25.02    2.49
   0   4   5   27.29    5.16
  -4   0  -5   29.53    4.29
  -3   1  -4  689.54   14.25
  -3   1  -4  654.55   22.36
  -1   3   4  655.04   22.52
   3  -1   4  723.47   19.45
  -1   3   4  684.40   23.03
   1  -3  -4  679.95   21.61
  -3   1  -4  642.40   21.03
   2  -2  -3   17.44    3.80
  -2   2  -3   13.17    3.37
  -2   2   3   14.16    3.60
  -2   2   3   17.58    3.85
   2  -2   3   16.22    3.65
   2  -2  -3   13.37    3.19
  -2   2   3   15.15    3.57
   2  -2   3   15.54    3.42
  -2   2  -3   11.87    1.68
  -2   2  -3   13.02    2.22
   3  -1  -2  119.10    9.12
   1  -3   2  113.88    9.22
  -3   1   2  106.85    4.50
   1  -3   2  138.59    9.53
   3  -1  -2   85.93    4.46
   1  -3   2  102.11    4.93
  -1   3  -2  132.59   10.12
  -3   1   2  116.01    8.89
  -1   3  -2  102.51    4.81
  -3   1   2  131.15    9.88
   3  -1  -2  130.44    9.33
  -3   1   2  121.15    9.23
  -4   0   1   -0.61    1.62
   4   0  -1   -3.36    2.31
   0  -4   1    0.40    0.92
  -4   0   1   -0.51    1.04
  -4   0   1    0.75    1.69
  -4   0   1    0.26    1.37
   4   0  -1   -0.81    1.61
   4   0  -1    0.59    1.13
   0   4  -1    2.00    1.78
   0  -4   1    1.87    2.07
  -1  -5   0  206.28    9.72
  -1  -5   0  232.97   13.06
  -5  -1   0  215.35   10.34
   5   1   0  215.01   11.34
   5   1   0  254.92   15.25
   1   5   0  234.21    8.91
  -5  -1   0  211.99   12.72
   2   6   1   14.78    3.01
  -2  -6  -1    6.13    2.17
   6   2   1    8.82    3.34
  -6  -2  -1   12.32    3.20
  -6  -2  -1   10.08    3.53
   6   2   1   11.23    3.58
  -2  -6  -1   14.83    4.26
  -2  -6  -1    7.90    1.73
  -3  -7  -2  103.26    9.89
  -7  -3  -2  118.99   11.46
  -7  -3  -2  102.83    9.41
   7   3   2  126.79   10.88
  -3  -7  -2   94.65    6.71
  -4  -8  -3   40.28    6.47
  -8  -4  -3   36.43    6.39
   8   4   3   42.74    7.03
  -4  -8  -3   29.11    6.54
  -4  -8  -3   33.79    4.86
  -8  -4  -3   35.65    7.13
  -8  -4  -3   21.83    3.11
  -9  -5  -4  185.41   16.69
  -9  -5  -4  189.39   15.96
  -5  -9  -4  202.82   17.60
   9   5   4  220.28   16.68
  -5  -9  -4  190.51   14.66
  -6 -10  -5    1.84    2.80
 -10  -6  -5    4.17    4.17
  -6 -10  -5    1.59    2.98
 -10  -6  -5    0.06    3.22
  10   6   5    6.08    3.83
  -9  -3  -9    9.31    4.94
  -3  -9  -9    9.82    5.02
  -8  -2  -8   72.71    9.46
  -8  -2  -8   57.63   10.75
  -2  -8  -8   49.39    8.40
   1   7   7   13.13    5.20
  -7  -1  -7   21.07    5.78
  -7  -1  -7   14.82    4.04
  -1  -7  -7   11.73    4.27
  -6   0  -6  284.30   14.38
   0  -6  -6  275.80   10.80
  -6   0  -6  278.67   18.57
   0   6   6  295.80   19.26
   0  -6  -6  250.56   16.08
   6   0   6  256.91   12.45
  -1   5   5   12.92    4.45
  -5   1  -5   14.62    4.41
   1  -5  -5   10.40    1.73
  -5   1  -5   11.04    3.36
  -5   1  -5   14.67    3.14
   5  -1   5   14.74    3.31
   1  -5  -5   10.86    1.82
   1  -5  -5   14.81    4.11
   4  -2   4  235.57    6.68
   4  -2   4  399.46   17.14
  -4   2  -4  341.75   18.45
   2  -4  -4  123.49    4.91
   2  -4  -4  200.90    6.30
   2  -4  -4  325.65   16.86
  -2   4   4  347.06   19.36
  -4   2  -4  369.52   13.91
  -4   2  -4  338.95   12.76
   3  -3   3   39.39    5.80
   3  -3  -3   37.25    5.91
   3  -3  -3   23.74    2.46
  -3   3  -3   37.35    3.64
  -3   3  -3   35.23    4.04
  -3   3   3   32.53    6.02
  -4   2   2  183.99   11.25
   2  -4   2  236.44   14.15
   2  -4   2  205.02   10.23
   4  -2  -2  179.21    8.23
  -2   4  -2  189.79    5.60
  -2   4  -2  207.51    9.82
   4  -2  -2  228.43   14.20
  -4   2   2  222.07   14.30
  -5   1   1   70.63    5.81
   1  -5   1   78.29    8.77
   5  -1  -1   61.10    5.73
  -1   5  -1   71.44    6.31
   5  -1  -1   78.01    9.09
  -5   1   1   74.55    8.52
   1  -5   1   63.09    5.81
   0  -6   0  425.09   20.66
  -6   0   0  376.94   15.28
   6   0   0  347.84   15.76
   0  -6   0  359.06   14.83
  -6   0   0  396.77   19.71
  -1  -7  -1  136.25   12.15
  -7  -1  -1  139.30   12.28
  -7  -1  -1  127.23    9.90
   1   7   1  136.32    7.44
  -8  -2  -2   55.86    8.42
  -8  -2  -2   43.57    7.02
  -2  -8  -2   51.69    8.29
   2   8   2   58.90    6.11
  -3  -9  -3    6.92    3.97
   9   3   3    8.68    4.03
  -9  -3  -3    7.52    3.86
  -9  -3  -3    6.40    3.93
 -10  -4  -4  145.63   15.63
 -10  -4  -4  107.37   12.88
  10   4   4  157.88   14.69
  -4 -10  -4  122.78   14.39
  -4 -10  -4  124.54   13.91
  -5 -11  -5   -1.72    4.14
  -1  -9  -8   26.84    6.90
   0  -8  -7    1.31    3.00
  -7   1  -6   89.05   12.23
  -1   7   6   87.73   12.46
   1  -7  -6   75.27    9.91
  -6   2  -5   15.86    5.32
  -2   6   5   13.61    5.60
   6  -2   5   24.15    5.45
  -6   2  -5   18.33    4.04
   2  -6  -5   15.47    4.64
  -3   5   4  106.09   12.56
   3  -5  -4   97.43   10.70
  -5   3  -4   92.53    8.28
   4  -4  -3    1.21    2.78
  -4   4  -3    5.87    2.40
  -4   4   3    2.76    2.80
   4  -4   3   11.25    4.46
   5  -3  -2   12.23    4.48
  -3   5  -2    7.99    3.11
  -5   3   2   13.00    4.83
   6  -2  -1   15.44    4.69
  -2   6  -1   12.24    3.56
  -6   2   1   11.59    4.33
   2  -6   1   24.15    5.82
  -7   1   0  267.80   18.65
  -7   1   0  279.77   15.07
   1  -7   0  294.39   20.50
  -1   7   0  247.10   15.15
   7  -1   0  259.97   19.17
  -8   0  -1   11.79    3.94
   0  -8  -1   12.66    4.33
  -8   0  -1    8.68    4.09
  -9  -1  -2   94.16   11.95
  -9  -1  -2   83.38   10.12
  -1  -9  -2  105.35   13.04
 -10  -2  -3   52.42    8.91
   3  -7  -5   10.45    4.58
   4  -6  -4   51.14    8.88
   6  -4   4  104.27   12.34
   5  -5  -3    6.47    3.84
   5  -5   3   13.34    4.83
   6  -4  -2   10.69    4.90
   4  -6   2   26.02    6.72
   7  -3  -1    3.18    3.25
  -7  -8 -11   25.56    7.25
  -7  -6 -10   -3.49    5.02
  -6  -7 -10    1.85    3.60
  -7  -6 -10    1.39    3.29
  -6  -7 -10   -0.49    3.36
  -6  -5  -9   90.91   10.98
  -5  -6  -9  117.57   12.16
  -6  -5  -9  128.03   14.46
  -5  -6  -9   90.31   12.33
   4   5   8   11.55    2.84
  -5  -4  -8   10.81    3.85
  -4  -5  -8   16.62    4.56
   5   4   8    3.73    1.74
  -5  -4  -8    8.32    3.83
  -4  -5  -8   14.97    4.60
   5   4   8    7.28    2.11
  -4  -3  -7  311.63   16.24
  -3  -4  -7  326.21   15.16
   3   4   7  282.91   13.38
  -4  -3  -7  374.41   18.64
  -3  -4  -7  368.56   18.17
   3   4   7  291.45   13.09
  -4  -3  -7  269.16   14.81
   4   3   7  281.23   11.10
   3   2   6  204.57    9.43
  -3  -2  -6  207.15   11.77
  -2  -3  -6  208.98   10.00
   3   2   6  192.90   10.87
   2   3   6  183.05    9.04
  -2  -3  -6  213.64   12.62
  -3  -2  -6  210.31   12.57
  -2  -3  -6  189.95   11.25
  -2  -1  -5  566.46   17.94
   2   1   5  549.77   15.42
  -2  -1  -5  553.30   16.92
  -1  -2  -5  562.58   13.68
   2   1   5  534.73   16.42
   1   2   5  541.16   13.07
   1   2   5  551.97   17.17
   1   2   5  541.51   18.50
  -1  -2  -5  558.58   18.34
  -2  -1  -5  535.98   14.29
  -1  -2  -5  531.07   16.39
  -1   0  -4   36.65    4.21
   1   0   4   38.41    4.25
   0   1   4   40.48    3.04
   0  -1  -4   34.02    3.75
   0   1   4   35.52    4.48
   0  -1  -4   39.88    4.62
   0   1   4   35.35    4.03
  -1   0  -4   35.90    2.83
  -1   0  -4   35.78    3.95
   1   0   4   38.05    4.33
   1   0  -3  322.39   10.62
  -1   0   3  332.46    8.39
   0  -1   3  334.49   11.92
   0  -1   3  335.95   10.15
   0  -1   3  319.07    6.06
   0   1  -3  323.37    9.65
   1   0  -3  330.93   12.02
  -1   0   3  350.28   12.84
  -1   0   3  333.08   10.96
   0  -1   3  337.75   12.52
   2   1  -2   13.06    2.68
  -1  -2   2   14.05    1.73
  -2  -1   2   11.00    2.43
   2   1  -2   13.07    2.48
  -1  -2   2   14.80    2.08
  -1  -2   2   13.26    2.97
   1   2  -2   12.98    1.87
  -2  -1   2   14.58    3.06
   2   3  -1  849.49   21.39
  -3  -2   1  772.39   20.19
  -3  -2   1  826.79   20.20
  -3  -2   1  852.14   19.14
  -2  -3   1  825.98   18.11
  -2  -3   1  859.65   20.76
  -2  -3   1  849.86   15.74
  -3  -2   1  846.38   20.43
   4   3   0   80.03    7.71
  -4  -3   0   73.44    7.21
  -4  -3   0   75.36    6.95
  -3  -4   0   77.64    6.57
   3   4   0   77.23    6.98
   3   4   0   92.21    7.37
  -4  -3   0   69.76    6.56
  -3  -4   0   64.30    5.38
  -4  -3   0   68.41    6.07
   4   5   1  362.55   15.21
  -5  -4  -1  365.36   17.03
  -4  -5  -1  413.15   18.24
  -4  -5  -1  347.32   14.39
   4   5   1  445.84   17.52
   5   4   1  447.82   18.69
  -5  -4  -1  292.04   12.48
  -5  -4  -1  308.78   16.09
  -4  -5  -1  326.97   14.35
  -6  -5  -2    5.20    3.33
  -5  -6  -2    1.50    1.43
   5   6   2    0.43    1.73
  -5  -6  -2    4.10    2.32
   5   6   2    5.96    2.59
   6   5   2    5.82    2.99
  -6  -5  -2    2.15    1.41
  -5  -6  -2    4.51    3.01
  -7  -6  -3   14.62    2.97
   7   6   3   65.73    8.62
  -7  -6  -3   15.82    5.12
   6   7   3   59.79    8.11
  -6  -7  -3   21.79    4.24
  -6  -7  -3   34.62    7.06
  -8  -7  -4   29.59    6.84
  -7  -8  -4   21.83    6.15
  -7  -8  -4   17.75    3.70
  -9  -8  -5   91.54   12.42
  -8  -9  -5   74.01   11.31
   8   9   5  180.50   16.34
   9   8   5  192.11   16.97
  -8  -5 -10    4.91    5.10
  -5  -8 -10    4.55    3.56
  -5  -8 -10    2.13    3.17
  -7  -4  -9  101.20   12.39
  -4  -7  -9  116.48   11.06
  -4  -7  -9   88.61   11.45
  -3  -6  -8  109.70   11.30
  -6  -3  -8   97.07   11.31
  -3  -6  -8  108.88    9.25
  -5  -2  -7  142.64   12.32
  -2  -5  -7  147.63    9.18
   5   2   7  128.78    6.86
   2   5   7  133.84   11.90
  -2  -5  -7  156.02   12.46
  -4  -1  -6  113.84   10.00
  -1  -4  -6  119.22    6.58
   4   1   6  112.86    6.98
   1   4   6  103.71    9.69
  -1  -4  -6  121.14   10.13
  -3   0  -5  553.99   20.44
   3   0   5  526.68   19.22
   3   0   5  547.89   16.06
   0  -3  -5  544.48   19.56
   0   3   5  564.65   20.75
   0   3   5  517.62   18.89
   0  -3  -5  510.27   18.73
  -2   1  -4  274.64    6.32
  -2   1  -4  307.63   14.05
   2  -1   4  317.63   14.24
   2  -1   4  301.41   12.38
  -2   1  -4  300.14   10.90
  -1   2   4  306.68   14.65
  -1   2   4  306.44   14.12
   1  -2  -4  300.52   13.54
   1  -2  -4  300.75   13.91
  -2   1  -4  317.14   13.47
   2  -1  -3 1915.23   33.01
   1  -2   3 1953.86   34.96
   1  -2   3 1895.45   32.14
  -1   2  -3 1910.11   19.70
  -2   1   3 2070.28   36.51
   2  -1  -3 1933.04   34.03
  -1   2  -3 2027.89   35.10
  -2   1   3 1988.81   34.02
   3   0  -2   10.52    3.04
  -3   0   2   13.99    1.80
   0  -3   2   10.14    2.92
  -3   0   2   15.35    3.24
   3   0  -2   13.59    3.30
   0  -3   2   10.55    1.77
   0   3  -2   16.26    3.62
   0  -3   2   11.59    1.23
  -3   0   2   13.90    3.38
  -4  -1   1  111.28    8.64
   4   1  -1  117.03    9.32
  -4  -1   1  117.64    6.75
  -1  -4   1  113.41    8.68
  -4  -1   1   95.87    7.67
   1   4  -1  117.88    9.32
  -1  -4   1  111.41    5.78
  -4  -1   1  107.32    8.67
   4   1  -1  125.91    9.69
  -5  -2   0   45.98    6.17
  -5  -2   0   51.13    5.41
  -2  -5   0   48.65    6.03
   2   5   0   50.13    5.14
  -2  -5   0   38.99    3.03
   5   2   0   46.63    6.85
  -2  -5   0   50.95    4.93
  -6  -3  -1  659.25   25.05
  -3  -6  -1  630.18   16.60
  -3  -6  -1  712.46   23.42
  -6  -3  -1  727.56   23.07
   3   6   1  786.14   22.01
   6   3   1  762.65   25.32
  -3  -6  -1  698.30   21.28
  -7  -4  -2    1.29    1.57
   4   7   2   11.37    3.59
  -7  -4  -2    6.77    3.31
  -7  -4  -2    7.45    3.39
  -4  -7  -2    5.49    3.00
   7   4   2   11.20    4.01
  -5  -8  -3  177.79   12.99
  -8  -5  -3  135.45   14.08
  -8  -5  -3  171.35   14.24
  -5  -8  -3  132.28   14.20
  -8  -5  -3   63.21    5.48
   8   5   3  248.55   16.83
  -9  -6  -4    6.18    3.77
  -6  -9  -4   10.06    3.82
  -9  -6  -4    4.18    3.99
   9   6   4   16.95    5.05
  -6  -9  -4    2.99    3.63
 -10  -7  -5   10.03    4.42
  -7 -10  -5   10.28    4.92
  -9  -4 -10    3.17    3.41
  -8  -3  -9   24.08    6.95
  -8  -3  -9   28.36    6.61
  -3  -8  -9   21.36    6.41
  -7  -2  -8   25.79    6.79
  -7  -2  -8   31.61    5.64
  -2  -7  -8   23.01    5.81
  -6  -1  -7  248.27   17.67
  -6  -1  -7  250.18   13.69
  -1  -6  -7  233.36   10.24
   1   6   7  247.89   18.09
  -1  -6  -7  217.32   15.47
   6   1   7  204.28    9.66
   0   5   6    2.07    2.72
  -5   0  -6    1.29    2.80
   0  -5  -6   -0.06    0.68
  -5   0  -6    0.05    1.43
   5   0   6   -1.75    2.09
  -5   0  -6   -0.16    1.54
   0  -5  -6    1.49    2.17
  -4   1  -5   19.67    2.97
  -4   1  -5   20.42    4.59
  -1   4   5   15.89    4.47
  -4   1  -5   17.04    4.81
   4  -1   5   21.20    3.92
   1  -4  -5   20.35    4.56
   2  -3  -4   18.30    4.34
  -2   3   4   22.59    4.90
  -3   2  -4   16.04    2.30
  -3   2  -4   16.56    2.75
   3  -2   4   17.30    3.68
   2  -3   3  683.32   22.34
   3  -2  -3  664.18   22.97
  -3   2   3  638.83   23.23
   1  -4   2   82.03    5.20
  -4   1   2   87.65    4.95
   1  -4   2  117.57    9.93
   4  -1  -2   71.92    5.16
  -1   4  -2   88.00    5.33
   4  -1  -2  105.89    9.55
  -4   1   2  105.25    9.55
   5   0  -1    5.54    2.16
   5   0  -1   12.21    4.13
   0  -5   1    5.35    1.61
  -5   0   1    9.76    2.26
  -5   0   1   11.66    3.47
   0  -5   1    5.15    2.79
  -6  -1   0   76.27    8.61
  -1  -6   0   73.07    8.53
  -6  -1   0   76.99    7.09
   6   1   0   61.01    7.42
  -1  -6   0   67.19    6.19
  -6  -1   0   54.20    6.63
   6   1   0   90.84    9.74
  -7  -2  -1  140.45   12.36
  -2  -7  -1  109.29   10.93
  -7  -2  -1  118.79    9.80
   2   7   1  126.15    8.40
  -7  -2  -1   93.41    8.41
  -2  -7  -1   71.71    3.95
  -2  -7  -1   61.99    3.93
  -8  -3  -2    7.69    3.32
  -8  -3  -2    9.57    4.17
  -3  -8  -2    5.52    3.15
   3   8   2    7.67    2.78
   8   3   2    5.34    2.96
  -3  -8  -2    6.01    1.86
  -9  -4  -3  136.69   14.42
  -9  -4  -3  138.52   12.99
  -4  -9  -3  104.86   13.68
   9   4   3  151.22   14.20
   4   9   3  145.39   11.99
  -4  -9  -3  129.74   12.68
  10   5   4    5.15    4.12
  -5 -10  -4    3.82    2.96
 -10  -5  -4    9.03    4.76
   5  10   4    5.19    3.16
 -10  -5  -4    0.30    3.44
  -5 -10  -4    5.28    4.21
  -1  -8  -8    8.25    4.31
  -7   0  -7  139.29   15.53
   0   7   7  139.12   15.29
   0  -7  -7  118.43   12.37
  -1   6   6   20.21    5.71
  -6   1  -6   22.55    5.79
   6  -1   6   20.33    4.48
  -6   1  -6   17.80    3.69
   1  -6  -6   15.60    4.59
  -2   5   5  137.23   13.79
   2  -5  -5  120.34   11.37
  -5   2  -5  118.31    8.30
   5  -2   5  149.29   11.60
   3  -4  -4    4.81    2.83
  -3   4   4   -0.50    2.58
  -4   3  -4    1.39    1.41
   4  -3   4    3.26    2.90
  -3   4  -3  318.35   12.71
   4  -3  -3  355.74   19.43
  -4   3   3  365.05   20.68
   5  -2  -2   21.04    5.22
  -2   5  -2   16.24    3.22
  -5   2   2   15.38    4.31
   2  -5   2   20.13    4.77
   5  -2  -2   11.91    2.37
   1  -6   1  228.88   16.08
  -6   1   1  208.62   10.95
  -1   6  -1  190.79   11.50
   6  -1  -1  235.16   16.74
  -6   1   1  209.06   15.42
   7   0   0    7.75    4.44
  -7   0   0    3.63    2.30
  -7   0   0    8.60    3.70
   0  -7   0    3.95    2.91
  -8  -1  -1  303.40   19.68
  -8  -1  -1  260.53   15.29
  -1  -8  -1  271.62   18.72
  -9  -2  -2    0.21    3.07
  -2  -9  -2    4.10    3.37
  -9  -2  -2    2.60    2.73
 -10  -3  -3   42.42    7.64
  -3 -10  -3   56.23    9.69
   1  -8  -7   14.50    4.63
   2  -7  -6    2.35    3.31
   3  -6  -5    9.94    4.28
  -3   6   5    0.95    4.60
   4  -5  -4    2.55    3.13
  -4   5   4    9.26    4.61
   5  -4   4    6.75    4.17
   5  -4  -3    6.90    4.44
  -5   4   3   11.80    4.74
   4  -5   3    5.03    3.70
   6  -3  -2   17.26    5.41
  -6   3   2   18.73    6.05
   3  -6   2   23.70    6.29
  -7   2   1  140.26   14.34
   7  -2  -1  122.41   13.92
   2  -7   1  150.68   15.45
   1  -8   0    8.92    4.71
  -8   1   0    5.02    3.67
  -7  -7 -11   -1.66    3.92
  -6  -6 -10   30.42    6.96
  -6  -6 -10   53.46    9.56
  -5  -5  -9    1.63    2.78
  -5  -5  -9    5.28    3.51
  -4  -4  -8  532.42   21.53
   4   4   8  448.06   16.25
  -3  -3  -7   10.92    3.47
  -3  -3  -7   14.50    3.57
   3   3   7   10.38    3.02
  -3  -3  -7   13.87    4.20
  -2  -2  -6   89.51    7.00
   2   2   6   80.49    6.35
  -2  -2  -6   88.90    8.14
  -2  -2  -6   77.89    6.61
   1   1   5    6.58    2.13
  -1  -1  -5    8.62    2.13
  -1  -1  -5   10.28    2.32
   1   1   5    7.78    2.15
  -1  -1  -5    9.05    2.69
   0   0   4  204.22    8.55
   0   0   4  216.73   10.25
   0   0  -4  214.15    9.93
   0   0   4  219.71    8.28
   0   0  -4  198.23    7.59
   1   1  -3   35.50    3.30
   1   1  -3   30.91    3.62
  -1  -1   3   34.67    3.16
  -1  -1   3   32.52    3.89
  -2  -2   2 1143.22   24.92
  -2  -2   2 1170.88   20.12
  -2  -2   2 1127.17   22.94
   2   2  -2 1158.80   20.99
  -3  -3   1   13.72    3.20
  -3  -3   1   21.35    3.59
  -3  -3   1   21.31    3.49
  -3  -3   1   22.22    3.76
   3   3  -1   27.38    3.84
  -4  -4   0   21.89    4.94
   4   4   0   28.45    5.12
  -4  -4   0   34.99    4.66
  -4  -4   0   29.90    4.74
  -5  -5  -1    9.23    3.10
   5   5   1   31.06    5.62
  -5  -5  -1   24.92    5.19
  -5  -5  -1   14.15    3.26
  -6  -6  -2  142.53   12.32
   6   6   2  168.60   13.16
   7   7   3    6.67    3.46
  -7  -7  -3    2.99    3.14
  -7  -7  -3    2.05    2.10
  -8  -8  -4   17.71    6.29
   8   8   4   46.51    9.11
  -7  -5 -10    8.22    5.24
  -5  -7 -10   10.79    4.02
  -7  -5 -10   12.59    6.10
  -5  -7 -10    3.96    4.24
  -6  -4  -9    3.09    3.28
  -4  -6  -9    5.24    2.94
  -6  -4  -9    4.90    3.86
  -4  -6  -9    6.38    3.51
  -5  -3  -8  237.93   16.08
  -3  -5  -8  231.72   12.96
   3   5   8  209.89   12.07
  -5  -3  -8  249.69   16.82
  -3  -5  -8  223.90   16.15
  -4  -2  -7   78.81    8.69
  -2  -4  -7   91.60    6.90
   2   4   7   80.34    8.90
   2   4   7   85.14    6.66
  -4  -2  -7   91.08    9.70
   4   2   7   93.24    6.58
  -4  -2  -7   71.60    7.07
  -2  -4  -7   96.92    9.65
  -3  -1  -6  547.65   19.89
  -1  -3  -6  544.94   13.55
   3   1   6  540.04   19.40
   1   3   6  509.23   12.78
  -3  -1  -6  567.90   20.01
   1   3   6  540.55   20.17
  -1  -3  -6  541.76   20.61
  -3  -1  -6  511.86   15.32
  -1  -3  -6  526.17   19.24
   3   1   6  541.80   16.25
   0  -2  -5    3.76    1.01
  -2   0  -5    6.88    1.54
   0   2   5    7.97    2.63
   0  -2  -5    6.22    2.18
  -2   0  -5    4.15    2.27
   2   0   5    7.74    2.44
   2   0   5    6.00    2.57
   0   2   5    5.93    1.18
  -2   0  -5    6.18    2.29
   0   2   5    6.89    2.87
   0  -2  -5    5.75    2.51
   1  -1   4  556.38   17.80
   1  -1   4  538.93   16.76
  -1   1  -4  555.69   14.23
  -1   1   4  565.62   19.13
   1  -1  -4  552.46   18.15
  -1   1   4  560.01   17.46
   1  -1  -4  532.90   16.38
   2   0  -3   29.99    4.01
   0  -2   3   32.97    4.53
   0   2  -3   32.58    4.54
  -2   0   3   29.88    2.43
   0  -2   3   31.34    4.29
  -2   0   3   30.19    4.60
   0   2  -3   32.79    2.85
   2   0  -3   30.40    4.31
  -2   0   3   32.16    4.27
   1   3  -2 1931.75   35.42
  -3  -1   2 1902.66   31.93
   3   1  -2 1858.77   32.16
  -1  -3   2 1728.45   18.36
  -3  -1   2 1923.99   24.94
  -1  -3   2 1859.02   33.18
  -1  -3   2 1843.22   18.46
  -3  -1   2 1967.13   35.12
  -3  -1   2 1714.54   31.23
   3   1  -2 1985.46   33.75
   1   3  -2 1799.38   18.48
  -1  -3   2 1746.74   25.05
   4   2  -1   13.30    3.87
  -4  -2   1   21.43    3.93
  -4  -2   1   17.06    3.13
  -2  -4   1   18.03    3.68
  -4  -2   1   17.05    3.42
  -2  -4   1   17.59    2.30
  -4  -2   1   21.15    4.02
   2   4  -1   17.31    4.29
  -5  -3   0  368.77   18.16
  -5  -3   0  441.54   16.78
  -3  -5   0  434.97   17.34
   3   5   0  479.09   17.38
  -3  -5   0  406.76   12.65
   3   5   0  421.36   17.74
  -6  -4  -1   93.66   10.37
  -4  -6  -1  131.76   10.04
  -6  -4  -1  137.50   10.71
   6   4   1  170.03   12.77
   4   6   1  155.80   11.08
  -6  -4  -1   79.68    7.53
  -4  -6  -1  114.46    8.39
   7   5   2  390.29   20.59
  -7  -5  -2  296.38   18.71
  -5  -7  -2  268.87   14.89
  -7  -5  -2  294.00   17.56
  -5  -7  -2  301.30   19.37
   5   7   2  367.15   18.51
  -7  -5  -2  164.40    9.73
  -5  -7  -2  211.38   13.41
  -6  -8  -3   91.23    9.19
  -8  -6  -3   97.00   10.86
  -6  -8  -3   99.03   11.97
   6   8   3  131.70   12.39
   8   6   3  125.69   13.05
  -7  -9  -4   73.37    8.31
  -9  -7  -4   72.95   11.63
  -7  -9  -4   78.82   12.07
   7   9   4  189.13   16.43
   9   7   4  174.04   16.48
   8  10   5    3.64    3.48
  -8  -4 -10   86.36   13.00
  -4  -8 -10   93.30   12.51
  -7  -3  -9   11.18    5.19
  -3  -7  -9    6.98    4.13
   6   2   8   74.33    5.48
  -6  -2  -8   92.51   11.25
  -2  -6  -8  100.28    8.13
   2   6   8   92.54   11.37
  -2  -6  -8   84.37   10.26
   1   5   7    1.75    2.62
  -5  -1  -7    3.97    2.85
  -1  -5  -7    3.05    1.33
  -1  -5  -7    8.87    3.36
   5   1   7    6.83    2.18
  -4   0  -6  152.90   12.60
  -4   0  -6  151.41    8.11
   4   0   6  154.40    9.42
   0   4   6  155.83   12.63
   0  -4  -6  157.22   12.21
  -3   1  -5  109.54    9.61
  -3   1  -5  105.45    5.05
  -3   1  -5  123.23   10.38
   3  -1   5  121.74    8.91
   1  -3  -5  124.31   10.22
  -1   3   5  117.27   10.28
   2  -2  -4  717.41   23.33
   2  -2   4  722.76   21.73
  -2   2  -4  726.50   15.69
  -2   2   4  747.09   24.45
  -2   2  -4  767.52   24.44
   1  -3   3   41.10    5.73
   1  -3   3   25.20    2.50
   3  -1  -3   38.61    5.74
  -3   1   3   36.41    5.61
   4   0  -2   12.54    3.93
   0  -4   2   11.53    4.02
   0  -4   2    3.20    1.04
  -4   0   2    4.86    2.86
  -4   0   2    4.86    1.61
  -5  -1   1   86.42    8.55
  -5  -1   1   91.53    6.42
  -1  -5   1  106.73    9.59
  -1  -5   1   84.48    5.72
   5   1  -1  111.69   10.56
  -6  -2   0  224.08   14.53
  -2  -6   0  207.97   13.44
  -6  -2   0  211.72   11.44
   2   6   0  240.73   11.37
  -2  -6   0  205.64   10.77
   6   2   0  233.52   15.07
  -7  -3  -1   56.11    7.99
  -3  -7  -1   46.96    6.87
  -7  -3  -1   38.26    6.12
   3   7   1   56.57    6.53
  -3  -7  -1   42.45    3.86
  -3  -7  -1   37.86    4.00
  -4  -8  -2  172.42   13.49
  -8  -4  -2  168.77   15.44
  -8  -4  -2  170.93   13.17
   4   8   2  198.09   13.33
   8   4   2  189.52   15.15
  -4  -8  -2  165.26    9.25
  -9  -5  -3    5.76    3.43
  -5  -9  -3   10.33    4.05
  -9  -5  -3   11.21    4.91
  -5  -9  -3    9.59    4.76
   5   9   3    7.72    3.84
   9   5   3    5.83    4.01
  -6 -10  -4   14.14    4.66
 -10  -6  -4    8.27    4.47
 -10  -6  -4    7.01    3.53
  -6 -10  -4    8.40    4.80
   6  10   4   14.92    5.01
  10   6   4   20.67    6.05
   7  11   5    2.76    3.83
  -2  -8  -9    7.00    4.33
  -7  -1  -8  109.45    9.89
  -7  -1  -8   98.76   13.08
   1   7   8  112.21   13.68
  -1  -7  -8   94.36   11.77
   0   6   7    4.39    3.44
  -6   0  -7    1.53    3.09
  -6   0  -7    3.41    1.92
   6   0   7    2.97    1.70
   0  -6  -7    4.73    3.16
   5  -1   6  233.27   13.15
  -5   1  -6  251.72   17.74
  -1   5   6  264.42   18.50
   1  -5  -6  211.11   15.09
  -5   1  -6  241.66   10.93
   4  -2   5   57.03    7.08
  -2   4   5   38.50    7.41
   2  -4  -5   45.94    7.11
  -4   2  -5   43.11    5.09
  -4   2  -5   36.75    3.92
   3  -3   4  239.42   14.67
   3  -3  -4  191.42   13.73
  -3   3   4  200.95   14.81
  -3   3  -4  215.35    8.20
   4  -2  -3   15.11    4.35
  -2   4  -3   10.94    2.07
  -4   2   3   13.79    4.16
   2  -4   3   19.04    4.83
   1  -5   2  256.66   10.39
  -5   1   2  276.57   10.05
   1  -5   2  314.13   18.34
   5  -1  -2  307.10   18.06
  -5   1   2  291.25   17.36
   0  -6   1   49.01    7.47
  -6   0   1   43.60    5.04
   6   0  -1   33.17    5.30
   6   0  -1   47.77    7.43
   0  -6   1   48.54    5.16
  -6   0   1   53.92    7.76
  -7  -1   0  228.26   16.21
  -1  -7   0  231.77   15.97
  -7  -1   0  203.52   11.82
   7   1   0  259.38   17.80
  -8  -2  -1   14.44    4.11
  -8  -2  -1   16.16    4.87
  -2  -8  -1   18.47    5.20
  -9  -3  -2   78.59   10.89
  -9  -3  -2   73.12    9.68
  -3  -9  -2   73.46   10.27
  -4 -10  -3    3.34    2.71
 -10  -4  -3    2.18    2.96
 -10  -4  -3    9.55    5.00
  -4 -10  -3    3.13    4.22
  -5 -11  -4   73.61   11.16
   1  -7  -7    1.26    2.71
   2  -6  -6   39.82    7.30
  -2   6   6   46.01    9.26
   6  -2   6   55.78    8.43
   3  -5  -5    8.37    3.62
  -3   5   5   12.81    5.13
   5  -3   5   11.22    3.85
   4  -4  -4   19.64    5.57
  -4   4   4   17.02    5.62
   4  -4   4   18.85    5.22
   5  -3  -3    4.41    3.68
  -5   3   3   -2.90    3.74
   3  -5   3   10.94    4.84
   6  -2  -2  257.90   19.31
  -6   2   2  268.52   19.17
   2  -6   2  301.49   20.32
   7  -1  -1    2.01    4.24
  -7   1   1    7.27    3.56
   1  -7   1    6.94    3.62
  -8   0   0   42.85    7.95
   0  -8   0   46.41    8.46
  -9  -1  -1   10.58    4.69
  -1  -9  -1    5.45    3.64
   6  -4   5   14.59    5.16
   5  -5  -4    1.44    3.98
   5  -5   4   30.52    7.68
   6  -4  -3    4.14    3.83
  -7  -6 -11   19.52    7.09
  -6  -7 -11   15.51    6.19
  -6  -5 -10   -0.12    3.55
  -5  -6 -10    1.06    2.71
  -6  -5 -10    0.08    4.03
  -5  -6 -10    1.58    3.20
  -5  -4  -9  256.40   17.19
  -4  -5  -9  249.11   15.33
  -5  -4  -9  277.19   20.15
  -4  -5  -9  264.82   18.46
  -4  -3  -8   67.60    8.29
  -3  -4  -8   63.88    7.03
   3   4   8   52.67    6.13
   3   4   8   55.92    6.21
  -4  -3  -8   58.62    8.50
  -3  -4  -8   61.45    8.60
   4   3   8   57.39    5.97
  -3  -2  -7  179.97   11.76
  -2  -3  -7  184.58   10.17
   2   3   7  164.83    9.06
  -3  -2  -7  188.73   12.74
  -2  -3  -7  186.85   12.94
   3   2   7  190.88   10.61
   2   1   6   96.88    7.60
  -1  -2  -6   97.57    6.42
  -2  -1  -6   94.79    8.02
   2   1   6   93.69    7.64
   1   2   6   89.54    5.92
   1   2   6   87.06    7.54
  -2  -1  -6   92.50    8.04
  -1  -2  -6   97.66    8.62
  -2  -1  -6   88.98    6.31
  -1  -2  -6   87.50    7.38
   1   0   5  494.38   16.15
   0   1   5  506.04   12.37
   0  -1  -5  497.72   15.47
   0   1   5  518.55   18.86
  -1   0  -5  485.31   16.01
   0  -1  -5  490.90   17.50
   0   1   5  518.48   16.45
  -1   0  -5  478.49   11.36
   1   0   5  535.88   17.82
   0   1  -4    8.45    1.36
   0  -1   4    8.49    1.33
  -1   0   4   10.05    2.50
   0  -1   4   10.01    2.56
  -1   0   4    9.06    1.73
   1   0  -4    8.79    2.14
   0  -1   4   10.34    2.88
   0  -1   4   10.15    2.39
  -1   0   4   10.25    2.85
   0   1  -4    7.57    2.20
   1   0  -4    7.15    2.48
   2   1  -3  564.47   16.04
  -1  -2   3  546.99   14.09
  -2  -1   3  566.79   17.98
   1   2  -3  534.86   13.30
   2   1  -3  522.28   16.33
  -1  -2   3  532.82   17.90
  -1  -2   3  544.06   10.39
  -2  -1   3  561.60   15.74
  -3  -2   2  276.86   12.12
  -2  -3   2  287.90    9.95
  -3  -2   2  264.43   12.52
  -2  -3   2  278.35   11.64
  -2  -3   2  287.40   13.55
  -2  -3   2  320.81   11.07
  -3  -2   2  302.03   13.32
   3   2  -2  301.65   13.02
   2   3  -2  312.47   10.44
  -4  -3   1  660.14   20.49
  -4  -3   1  689.88   21.30
  -4  -3   1  690.66   20.76
  -3  -4   1  677.72   21.21
  -3  -4   1  659.27   17.09
  -4  -3   1  741.25   22.16
  -5  -4   0   11.70    3.52
  -4  -5   0    9.86    2.81
  -5  -4   0    6.17    3.50
   4   5   0   22.63    4.61
   5   4   0   17.42    4.69
  -4  -5   0   15.15    3.59
  -5  -4   0    9.40    3.08
  -5  -4   0   11.41    3.59
  -5  -6  -1   19.12    4.06
  -6  -5  -1   15.04    3.66
   6   5   1   44.86    7.21
  -5  -6  -1   16.83    3.85
  -6  -5  -1   25.24    5.45
   5   6   1   45.76    6.93
  -5  -6  -1   15.31    5.11
  -6  -7  -2   10.67    5.21
  -6  -7  -2   12.93    3.55
  -7  -6  -2    7.02    2.33
  -7  -6  -2   14.50    5.11
   6   7   2   36.64    6.59
   7   6   2   43.18    7.22
  -7  -8  -3   66.79    7.76
  -8  -7  -3  118.10   12.61
  -7  -8  -3  124.21   14.18
   7   8   3  170.09   15.51
   8   7   3  208.36   16.81
  -9  -8  -4   -1.26    3.85
  -8  -9  -4   -3.03    3.58
   8   9   4   -1.23    3.00
   9   8   4    2.06    3.56
  -7  -4 -10   12.39    5.57
  -7  -4 -10   24.48    6.82
  -4  -7 -10    9.22    4.77
  -6  -3  -9   47.51    8.55
  -3  -6  -9   46.34    6.05
  -6  -3  -9   55.55    9.16
  -3  -6  -9   44.02    8.08
  -5  -2  -8   92.25   10.53
  -2  -5  -8   91.25    7.16
   5   2   8   86.83    6.66
   2   5   8   96.19   10.73
  -5  -2  -8  102.25   10.72
  -5  -2  -8   86.45    8.44
  -2  -5  -8   87.33   10.27
  -4  -1  -7  258.90   15.97
  -1  -4  -7  249.50    9.14
   4   1   7  263.38   12.09
  -4  -1  -7  275.14   15.73
   1   4   7  254.18   15.96
  -4  -1  -7  236.93   11.68
  -1  -4  -7  249.14   15.57
  -3   0  -6   -0.13    1.02
   0   3   6    1.07    2.15
  -3   0  -6   -0.21    1.93
   3   0   6    0.94    1.70
  -3   0  -6   -0.06    1.58
   0  -3  -6   -1.62    2.52
   2  -1   5  545.58   18.49
  -2   1  -5  552.54   16.14
   1  -2  -5  522.38   20.12
  -1   2   5  552.81   20.61
   1  -2  -5  499.28   18.99
   2  -1  -4  207.00   11.73
  -1   2  -4  237.52   13.14
   1  -2   4  212.35   12.42
   1  -2   4  218.81   12.10
  -1   2  -4  214.50    8.06
   2  -1  -4  207.63   12.21
  -2   1   4  223.77   12.58
   0  -3   3  198.60   12.19
   3   0  -3  201.65   11.83
  -3   0   3  197.74    6.15
   0  -3   3  195.79   11.70
   0  -3   3  188.64    8.16
   3   0  -3  197.70   11.80
  -3   0   3  212.39   12.12
   4   1  -2   31.25    5.18
  -4  -1   2   32.31    3.66
  -1  -4   2   35.14    5.49
  -1  -4   2   27.87    2.54
   4   1  -2   45.48    6.29
  -4  -1   2   29.19    5.04
  -5  -2   1  627.81   22.53
  -5  -2   1  607.97   18.15
  -2  -5   1  630.32   22.33
  -2  -5   1  585.08   15.53
  -2  -5   1  523.94    9.16
   5   2  -1  700.17   24.45
  -6  -3   0   37.32    6.27
  -6  -3   0   36.86    5.42
  -3  -6   0   36.15    5.82
   3   6   0   51.48    6.13
  -3  -6   0   30.44    4.58
  -3  -6   0   37.73    3.65
  -7  -4  -1  189.27   15.44
  -4  -7  -1  222.55   14.42
  -7  -4  -1  234.81   14.65
   4   7   1  311.18   16.45
   7   4   1  277.45   17.14
  -4  -7  -1  192.28   10.27
  -7  -4  -1  145.09   10.63
  -5  -8  -2   41.19    6.91
  -8  -5  -2   16.80    3.50
  -8  -5  -2   44.08    7.27
   5   8   2   57.64    8.05
  -8  -5  -2   22.48    6.46
   8   5   2   62.15    9.06
  -5  -8  -2   33.41    7.56
  -6  -9  -3  112.68   11.24
  -9  -6  -3  108.46   13.43
  -9  -6  -3  119.95   13.60
  -6  -9  -3  124.26   14.58
   6   9   3  176.45   15.01
   9   6   3  171.03   15.91
 -10  -7  -4    4.60    4.08
   7  10   4    9.09    4.76
  -7  -2  -9   21.73    6.62
  -2  -7  -9   16.93    5.54
   1   6   8    1.33    3.29
  -6  -1  -8    1.71    3.49
  -6  -1  -8    5.42    2.48
   6   1   8    3.48    1.89
  -1  -6  -8   -1.14    3.27
  -5   0  -7  524.73   16.64
  -5   0  -7  536.13   26.29
   5   0   7  480.24   17.65
   0   5   7  520.20   25.36
   0  -5  -7  505.03   24.19
  -1   4   6    4.99    2.73
  -4   1  -6    5.70    3.31
  -4   1  -6    2.85    1.15
   4  -1   6    3.72    2.34
   1  -4  -6    7.17    3.31
   3  -2   5  161.96   11.43
  -3   2  -5  167.15    9.02
   2  -3  -5  159.53   12.41
  -2   3   5  153.99   12.91
   2  -3   4   90.61    8.89
  -2   3  -4   71.64    4.14
   3  -2  -4   94.39    9.55
  -3   2   4   79.42    9.11
  -2   3  -4   66.99    3.91
  -4   1   3   41.95    2.39
   1  -4   3   66.93    7.91
   4  -1  -3   63.88    7.97
  -4   1   3   61.11    7.75
   5   0  -2    5.22    2.67
  -5   0   2    6.63    3.09
   0  -5   2    5.03    1.33
  -5   0   2    6.78    1.82
   0  -5   2    8.17    3.45
  -6  -1   1  298.62   17.38
  -1  -6   1  285.52   16.86
  -6  -1   1  267.24   12.36
  -1  -6   1  256.61   11.01
  -2  -7   0   18.62    3.75
  -7  -2   0   16.61    3.82
  -7  -2   0   17.12    4.74
  -2  -7   0   19.89    5.02
  -8  -3  -1   22.20    4.99
  -8  -3  -1   20.00    5.55
   3   8   1   32.46    5.27
  -3  -8  -1   20.00    5.44
  -9  -4  -2   16.05    5.25
  -9  -4  -2    8.95    4.51
   4   9   2   17.18    4.65
  -4  -9  -2    9.53    4.65
 -10  -5  -3   46.30    9.24
 -10  -5  -3   32.96    8.74
   5  10   3   77.26    9.74
  10   5   3   65.53   10.37
  -5 -10  -3   37.10    8.75
  -5 -10  -3   62.98    9.49
  -6 -11  -4    2.26    3.39
   0   7   8   11.91    6.16
  -7   0  -8   15.19    6.15
   0  -7  -8    7.46    4.23
  -6   1  -7   95.19   12.37
  -1   6   7  106.02   13.54
   1  -6  -7   91.43   11.37
   6  -1   7   85.18    8.57
   2  -5  -6   15.67    4.99
  -2   5   6   21.40    6.33
   5  -2   6   25.68    5.07
   4  -3   5   67.14    8.36
  -3   4   5   58.90    9.23
   3  -4  -5   58.38    8.73
   4  -3  -4   30.73    6.31
  -4   3   4   26.31    6.61
   2  -5   3  370.72   20.34
   5  -2  -3  317.41   19.74
  -5   2   3  320.08   20.05
   6  -1  -2   22.01    5.85
   1  -6   2   25.94    5.99
  -6   1   2   19.79    5.48
   0  -7   1  111.58   12.00
  -7   0   1  105.15    8.20
   7   0  -1  130.31   13.77
  -7   0   1  106.02   12.05
  -8  -1   0    8.30    2.96
  -8  -1   0   10.19    4.38
  -1  -8   0    9.38    3.99
  -9  -2  -1  145.13   14.81
  -9  -2  -1  143.74   12.07
  -2  -9  -1  147.13   14.61
 -10  -3  -2    9.45    3.94
  -3 -10  -2   11.60    4.93
   3  -6  -6   -4.66    4.28
   6  -3   6    9.10    4.32
   4  -5  -5    8.15    4.57
   5  -4   5   32.01    7.48
   5  -4  -4    3.96    3.20
  -5   4   4    4.64    3.85
   4  -5   4    8.42    4.10
   6  -3  -3   48.41    9.16
  -6   3   3   60.39   10.47
   7  -2  -2   -3.51    4.16
  -7   2   2   -3.14    3.82
   2  -7   2   -2.03    2.58
  -6  -6 -11   -2.30    4.79
  -5  -5 -10  222.77   16.66
  -5  -5 -10  311.43   21.72
  -4  -4  -9    5.93    3.40
  -4  -4  -9   11.00    4.50
  -3  -3  -8  104.93    9.15
  -3  -3  -8  112.02   11.03
  -2  -2  -7    8.10    2.50
  -2  -2  -7   12.08    3.13
   2   2   7    8.12    2.46
  -2  -2  -7   13.35    3.70
  -1  -1  -6 1049.00   22.76
   1   1   6 1047.61   22.83
   1   1   6 1053.79   23.02
  -1  -1  -6 1033.59   26.84
  -1  -1  -6  970.46   21.40
   0   0   5   -0.09    1.07
   0   0   5    1.47    1.35
   0   0  -5   -0.81    1.13
   0   0   5   -1.03    1.75
   0   0  -5    0.71    1.48
  -1  -1   4  512.07   15.62
   1   1  -4  507.41   13.28
  -1  -1   4  489.92   18.39
  -1  -1   4  526.88   16.92
   1   1  -4  472.34   15.42
  -1  -1   4  498.83   13.12
   2   2  -3    5.50    2.05
  -2  -2   3    6.01    1.81
  -2  -2   3    3.84    2.23
  -2  -2   3    6.92    2.13
  -3  -3   2  448.03   15.29
  -3  -3   2  483.32   17.19
  -3  -3   2  555.12   17.47
   3   3  -2  584.68   17.56
  -3  -3   2  511.77   19.08
  -4  -4   1   15.90    3.75
  -4  -4   1    8.94    3.47
  -4  -4   1   18.52    4.12
  -5  -5   0    5.57    2.53
  -5  -5   0    5.25    2.71
  -5  -5   0    7.12    3.33
   5   5   0   11.81    3.86
   6   6   1    0.47    2.27
  -6  -6  -1   -3.66    2.38
  -6  -6  -1    1.24    2.81
  -7  -7  -2  148.65   14.20
  -7  -7  -2   80.03    8.33
  -8  -8  -3   -2.06    3.13
   8   8   3    4.46    3.63
  -7  -5 -11    3.05    4.47
  -6  -4 -10   34.53    8.13
  -4  -6 -10   38.28    6.50
  -6  -4 -10   63.34   10.02
  -4  -6 -10   55.02    9.48
  -5  -3  -9   19.39    5.58
  -3  -5  -9   16.76    4.00
  -5  -3  -9   24.46    6.14
  -3  -5  -9   17.34    5.55
   5   3   9   14.75    3.23
  -4  -2  -8   18.18    3.96
   4   2   8   16.06    3.34
  -4  -2  -8   21.77    5.37
  -2  -4  -8   18.65    3.40
   2   4   8   16.55    3.24
  -4  -2  -8   19.95    5.31
  -2  -4  -8   19.19    5.33
   1   3   7   12.28    3.72
  -3  -1  -7    9.71    2.54
  -1  -3  -7   12.86    2.56
  -3  -1  -7   10.88    3.66
   3   1   7   12.01    3.23
   1   3   7   11.54    2.34
  -3  -1  -7   10.77    3.58
  -1  -3  -7   11.89    4.04
  -2   0  -6  936.82   26.01
   0   2   6  860.82   14.30
  -2   0  -6  931.58   24.41
   0   2   6  957.71   26.70
   0  -2  -6  909.04   27.25
   2   0   6  936.79   24.74
  -2   0  -6  842.53   15.58
   0  -2  -6  887.60   24.62
   1  -1   5   97.21    8.23
  -1   1   5   88.76    4.04
  -1   1  -5   92.95    6.82
   1  -1   5   92.66    7.97
   1  -1  -5   82.91    7.96
  -1   1   5   99.25    8.22
   1  -1  -5   88.37    7.41
   2   0  -4   96.75    7.65
  -2   0   4  102.26    5.01
   0  -2   4   97.39    8.49
   0  -2   4   97.02    8.18
  -2   0   4  106.02    8.97
   0   2  -4   93.54    5.78
   2   0  -4   91.39    7.98
  -2   0   4   98.91    7.81
   3   1  -3  210.90   11.64
  -3  -1   3  208.01    8.54
  -1  -3   3  203.38    9.85
  -1  -3   3  219.96   12.66
  -1  -3   3  211.68    7.80
  -3  -1   3  226.41   13.37
   3   1  -3  211.36   11.90
   1   3  -3  217.90    7.68
  -1  -3   3  166.97    4.61
  -3  -1   3  221.70   11.75
  -4  -2   2  651.14   21.22
  -2  -4   2  686.82   15.50
  -4  -2   2  661.60   18.48
  -2  -4   2  684.00   22.71
  -2  -4   2  699.50   14.48
   5   3  -1   16.06    4.09
  -5  -3   1    7.05    3.50
  -5  -3   1   12.12    3.29
  -3  -5   1   11.42    3.53
  -5  -3   1    6.28    2.84
  -3  -5   1   13.80    2.57
  -6  -4   0  347.28   18.69
  -6  -4   0  367.25   17.51
  -4  -6   0  339.13   17.19
  -4  -6   0  355.02   13.89
  -6  -4   0  241.22   14.51
   4   6   0  461.62   19.72
  -5  -7  -1    7.07    3.10
  -5  -7  -1    6.71    2.85
  -7  -5  -1    0.92    2.00
  -7  -5  -1    2.28    2.74
  -7  -5  -1   11.29    4.00
  -5  -7  -1    0.03    2.88
   5   7   1    6.61    3.39
   7   5   1   10.94    4.14
  -8  -6  -2   49.35    9.72
  -6  -8  -2   72.63    8.59
  -8  -6  -2   82.31   10.63
  -6  -8  -2   59.59   11.01
   6   8   2  155.51   14.03
   8   6   2  135.65   13.79
  -8  -6  -2   31.28    5.04
  -9  -7  -3   -3.07    3.94
  -7  -9  -3    1.22    3.12
  -9  -7  -3   -1.46    3.86
   7   9   3    5.36    3.67
   9   7   3    2.67    3.64
  -7  -9  -3    1.41    2.50
   8  10   4  122.37   14.88
  -7  -3 -10   85.91   12.29
  -7  -3 -10   74.23   12.11
  -3  -7 -10   59.02   10.23
  -6  -2  -9    2.42    3.01
  -6  -2  -9    6.15    3.84
  -2  -6  -9    1.13    3.09
  -5  -1  -8  289.38   19.45
   5   1   8  252.89   12.57
  -5  -1  -8  296.89   18.13
   1   5   8  272.01   18.74
  -1  -5  -8  266.84   17.93
  -4   0  -7    0.12    1.23
   0   4   7   -1.71    2.83
   4   0   7    0.41    1.53
  -4   0  -7   -1.01    2.85
  -4   0  -7    1.75    1.19
  -4   0  -7    2.01    2.37
   0  -4  -7    1.58    2.88
   3  -1   6  270.25   14.08
  -3   1  -6  280.92   13.47
   1  -3  -6  260.45   15.88
  -1   3   6  271.51   16.53
   2  -2   5  111.52    9.37
  -2   2  -5  101.32    6.48
   2  -2  -5  109.36    9.97
  -2   2   5  114.06   10.27
   1  -3   4  317.03   16.28
  -1   3  -4  274.96    7.18
   3  -1  -4  333.88   17.09
  -3   1   4  324.84   16.72
   4   0  -3   22.36    4.70
  -4   0   3   22.58    2.31
   0  -4   3   22.43    4.66
  -4   0   3   24.43    4.76
   0  -4   3   19.55    2.68
  -5  -1   2   48.77    4.59
  -1  -5   2   57.16    7.46
  -1  -5   2   45.95    3.60
   5   1  -2   59.16    7.80
  -5  -1   2   56.48    7.56
   6   2  -1   14.72    4.81
  -2  -6   1   13.55    4.21
  -2  -6   1   12.50    2.80
  -6  -2   1   12.16    3.82
  -6  -2   1   11.08    2.89
  -7  -3   0  336.74   20.22
  -3  -7   0  357.97   19.26
  -7  -3   0  337.67   16.50
   4   8   1   15.99    4.50
  -8  -4  -1    1.20    2.02
  -8  -4  -1   11.83    3.98
  -8  -4  -1    7.18    3.68
  -4  -8  -1   11.55    4.09
  -9  -5  -2    9.56    4.57
  -9  -5  -2    7.38    4.30
  -5  -9  -2    1.80    3.66
  -5  -9  -2   11.80    4.57
 -10  -6  -3   -0.43    3.22
  -6 -10  -3    8.77    4.23
   6  10   3   16.34    5.36
  -8  -2 -10   56.30   10.42
   1   7   9    4.53    3.93
  -7  -1  -9    5.84    4.53
  -7  -1  -9    2.68    3.72
  -1  -7  -9    6.21    4.05
  -6   0  -8   60.27   10.83
   0   6   8   66.94   10.79
   0  -6  -8   52.93    8.97
  -5   1  -7   -1.41    3.96
  -1   5   7    0.93    2.91
  -5   1  -7    2.52    2.53
   5  -1   7    4.33    2.72
   1  -5  -7    0.03    2.43
   4  -2   6  117.69   10.28
  -4   2  -6  108.53    8.51
  -2   4   6  114.89   12.50
   2  -4  -6  102.18   10.97
   3  -3   5  146.45   11.82
  -3   3  -5  116.33    6.66
   3  -3  -5  111.85   11.20
  -3   3   5  120.53   12.50
   2  -4   4  287.06   16.93
   4  -2  -4  263.85   17.04
  -4   2   4  267.50   17.78
   1  -5   3   43.90    6.94
   5  -1  -3   41.46    7.11
  -5   1   3   39.73    7.16
  -6   0   2   74.33    5.77
   0  -6   2   70.65    8.91
   6   0  -2   73.31    9.78
  -6   0   2   86.12   10.19
   7   1  -1   20.24    5.90
  -7  -1   1   25.84    4.26
  -7  -1   1   21.81    5.55
  -1  -7   1   22.66    5.79
  -8  -2   0  302.40   20.26
  -2  -8   0  303.96   19.79
  -8  -2   0  286.01   15.78
  -9  -3  -1   22.28    5.44
  -9  -3  -1   22.01    6.65
  -3  -9  -1   16.19    5.17
 -10  -4  -2   22.62    6.13
  -4 -10  -2   22.86    6.69
   2  -6  -7    1.71    2.65
   3  -5  -6   11.31    4.36
  -3   5   6   14.44    5.99
   5  -3   6   28.05    6.60
   4  -4  -5    1.74    3.23
  -4   4   5    2.39    3.20
   4  -4   5    2.95    3.88
   3  -5   4  212.86   16.58
  -5   3   4  170.73   16.51
   5  -3  -4  167.14   15.27
   6  -2  -3   27.99    6.67
  -6   2   3   26.60    6.62
   2  -6   3   31.05    6.69
   1  -7   2   53.74    8.68
   7  -1  -2   33.16    8.67
  -7   1   2   46.53    8.75
   8   0  -1    8.07    4.57
  -8   0   1    7.88    3.97
   0  -8   1    6.78    4.39
  -7  -6 -12    1.98    3.18
  -5  -6 -11   47.19    8.04
  -6  -5 -11   34.92    8.28
  -6  -5 -11   46.15    9.92
  -5  -6 -11   46.51    9.70
  -5  -4 -10   10.23    4.74
  -4  -5 -10    7.77    3.58
  -5  -4 -10    5.75    4.02
  -4  -5 -10    6.87    3.83
  -4  -3  -9  200.15   14.77
  -3  -4  -9  222.97   13.44
  -4  -3  -9  274.50   18.07
  -3  -4  -9  266.98   18.04
   4   3   9  232.89   13.25
  -3  -2  -8   10.10    3.01
  -3  -2  -8   14.64    4.14
  -2  -3  -8   12.85    3.12
   2   3   8   13.08    2.93
   3   2   8   12.57    3.56
  -3  -2  -8    6.74    3.41
  -2  -3  -8   10.42    4.01
  -1  -2  -7   96.87    6.87
  -2  -1  -7   94.91    8.45
   2   1   7   97.33    8.40
   1   2   7   91.64    6.58
   1   2   7   94.30    8.44
  -2  -1  -7   94.22    8.88
  -1  -2  -7   95.75    9.34
  -2  -1  -7   85.85    6.62
  -1  -2  -7   93.39    8.09
   2   1   7  101.46    8.91
   1   0   6   31.22    4.55
   0   1   6   33.75    3.68
  -1   0  -6   33.70    4.93
   0   1   6   33.66    4.76
   0  -1  -6   32.35    5.30
  -1   0  -6   28.51    3.15
   0  -1  -6   29.97    4.31
   1   0   6   31.48    5.08
   1   0  -5 1026.16   22.81
   0   1  -5 1039.54   15.83
   0  -1   5 1113.50   25.99
  -1   0   5 1066.53   19.85
   0  -1   5 1059.95   24.08
   0  -1   5 1095.14   16.24
  -1   0   5 1108.89   28.55
   0   1  -5 1068.13   24.13
   1   0  -5 1021.60   26.26
  -1   0   5 1114.83   24.25
   0  -1   5 1098.12   28.65
  -1  -2   4   92.04    7.83
   2   1  -4   94.69    7.24
  -1  -2   4   86.26    6.57
  -2  -1   4   94.30    8.37
   1   2  -4   90.82    6.45
   2   1  -4   88.16    7.53
  -1  -2   4   90.89    4.65
  -1  -2   4   91.42    8.49
  -2  -1   4   94.05    7.00
  -2  -3   3  473.04   12.56
  -2  -3   3  446.51   16.31
  -2  -3   3  527.50   15.77
  -3  -2   3  569.11   20.41
  -2  -3   3  495.63   19.75
   3   2  -3  530.29   18.40
   2   3  -3  520.69   14.85
  -3  -2   3  470.37   16.93
  -4  -3   2  124.85   10.09
  -4  -3   2  102.64    8.80
  -3  -4   2  107.38    7.61
  -4  -3   2  108.07    8.44
  -3  -4   2  119.97    9.82
  -3  -4   2  123.25    8.15
  -4  -3   2  110.89    9.29
   4   3  -2  137.81   10.07
   3   4  -2  122.05    7.80
  -5  -4   1   14.99    4.08
  -5  -4   1   21.67    4.94
  -5  -4   1   18.80    4.67
  -4  -5   1   18.04    3.94
  -4  -5   1   22.77    3.94
  -4  -5   1   20.22    4.68
  -5  -6   0   10.02    2.93
  -6  -5   0    2.51    1.98
  -5  -6   0    7.54    3.24
  -6  -5   0    7.18    3.21
  -6  -5   0    1.87    2.19
  -5  -6   0    5.27    3.50
  -7  -6  -1  259.10   19.10
  -7  -6  -1  346.71   20.17
  -6  -7  -1  259.72   18.95
  -6  -7  -1  250.44   15.49
  -7  -6  -1  195.82   12.94
   6   7   1  529.24   25.18
   7   6   1  499.54   25.09
  -7  -8  -2   -0.92    2.81
  -8  -7  -2    1.32    2.11
  -8  -7  -2   -0.88    2.92
  -7  -8  -2   -5.63    5.21
   7   8   2    7.67    4.12
  -8  -7  -2    0.66    2.72
   8   7   2   11.78    5.22
  -9  -8  -3    7.22    4.63
  -8  -9  -3   -1.23    3.82
   8   9   3   21.52    6.97
   9   8   3   21.87    7.13
  -9  -8  -3    5.87    3.55
  -7  -4 -11    5.33    4.14
  -7  -4 -11   19.66    6.96
  -6  -3 -10   19.76    6.49
  -6  -3 -10   29.86    7.70
  -3  -6 -10   28.37    7.25
  -5  -2  -9  167.07   14.87
   5   2   9  142.99    9.67
  -5  -2  -9  172.62   14.84
  -2  -5  -9  182.45   15.43
  -1  -4  -8   54.14    4.25
  -4  -1  -8   75.98    9.58
   4   1   8   67.98    7.07
   1   4   8   66.94    9.02
  -4  -1  -8   81.74    9.21
  -1  -4  -8   72.91    9.41
  -3   0  -7  117.61   10.94
   0  -3  -7  105.10   10.68
   3   0   7  116.82    9.37
  -3   0  -7  113.56    9.49
   0   3   7  108.76   10.59
  -3   0  -7   96.16    5.59
  -1   2   6   10.87    3.78
   2  -1   6   19.03    4.26
  -2   1  -6   11.90    3.13
   1  -2  -6   12.38    3.81
   1  -2   5  209.01   12.87
  -1   2  -5  208.36    9.17
   2  -1  -5  197.38   12.95
  -2   1   5  212.59   13.11
   3   0  -4   16.64    3.99
  -3   0   4   21.12    2.17
  -3   0   4   18.24    1.93
  -3   0   4   21.20    4.28
   0  -3   4   18.64    4.34
   0   3  -4   20.28    2.34
  -4  -1   3  279.30   10.09
  -1  -4   3  302.88   16.31
  -1  -4   3  258.03   10.96
  -4  -1   3  290.97   15.47
  -5  -2   2   62.02    7.53
  -5  -2   2   63.20    5.87
  -2  -5   2   69.24    8.08
  -2  -5   2   57.17    3.11
  -2  -5   2   63.02    4.71
  -6  -3   1  197.07   14.17
  -6  -3   1  195.09   11.89
  -3  -6   1  205.81   14.27
  -3  -6   1  177.48   10.26
  -3  -6   1  192.84    7.58
   6   3  -1  221.39   15.21
  -7  -4   0    4.00    2.62
  -4  -7   0   -3.01    3.28
  -7  -4   0    1.10    2.31
  -7  -4   0   -0.56    1.89
  -8  -5  -1  108.06   13.04
  -5  -8  -1  107.67   11.18
  -8  -5  -1  141.38   12.67
  -5  -8  -1   95.23   12.77
   5   8   1  178.48   14.29
  -8  -5  -1   52.19    7.31
  -9  -6  -2    2.72    3.44
  -9  -6  -2    2.98    3.60
  -6  -9  -2   -0.66    3.45
  -6  -9  -2    2.32    2.72
 -10  -7  -3    7.31    5.54
  -7 -10  -3   27.66    5.92
  -7  -2 -10    7.78    4.80
  -6  -1  -9  100.36   13.24
  -6  -1  -9   89.41   11.10
   1   6   9  104.01   13.07
  -1  -6  -9   83.02   11.60
   0   5   8    0.32    2.58
  -5   0  -8    3.56    3.46
  -5   0  -8   -1.18    2.47
   0  -5  -8    0.39    2.74
   5   0   8   -0.19    1.75
   4  -1   7  278.78   15.43
  -4   1  -7  304.38   16.09
  -1   4   7  320.03   20.27
   1  -4  -7  290.19   18.40
   3  -2   6   84.67    8.84
  -3   2  -6   87.13    6.98
  -2   3   6  101.24   11.18
   2  -3  -6   89.29   10.08
   2  -3   5  239.42   15.05
  -2   3  -5  211.11    7.71
   3  -2  -5  234.74   15.67
  -3   2   5  234.38   16.32
   4  -1  -4   17.68    4.71
   1  -4   4   16.49    4.43
  -4   1   4   20.02    5.10
   1  -4   4   12.62    1.94
  -5   0   3  106.93    5.39
   0  -5   3  145.65   12.65
   5   0  -3  147.93   12.82
  -5   0   3  123.93   11.73
  -6  -1   2   47.41    4.93
  -1  -6   2   40.55    6.91
   6   1  -2   45.31    7.36
  -6  -1   2   41.71    6.93
  -7  -2   1  339.37   20.18
  -2  -7   1  319.69   19.28
  -7  -2   1  317.36   14.96
   7   2  -1  360.86   21.57
  -8  -3   0    7.88    3.08
  -8  -3   0   14.39    4.86
  -3  -8   0   14.66    4.94
  -9  -4  -1    7.28    3.92
  -9  -4  -1   12.97    5.58
  -4  -9  -1   16.75    5.30
 -10  -5  -2    2.06    3.39
  -5 -10  -2    7.26    4.19
  -1   6   8   11.17    5.47
   1  -6  -8    0.81    2.97
   2  -5  -7   20.61    6.05
  -2   5   7   19.40    6.35
   5  -2   7   23.53    5.03
   3  -4  -6    4.17    3.14
  -3   4   6    8.20    4.70
   4  -3   6   16.75    5.02
   3  -4   5  119.09   12.38
  -4   3   5  109.57   12.80
   4  -3  -5  102.07   11.68
   5  -2  -4   27.52    6.47
  -5   2   4   22.95    5.96
   2  -5   4   26.54    6.39
   1  -6   3  115.74   12.46
   6  -1  -3  106.41   12.28
  -6   1   3  100.18   11.95
   7   0  -2   25.86    6.51
  -7   0   2   28.85    6.71
   0  -7   2   22.17    5.82
  -1  -8   1   54.87    9.17
   8   1  -1   62.85    9.96
  -8  -1   1   62.14    9.79
  -9  -2   0    1.97    3.19
  -2  -9   0    2.94    3.78
   5  -4   6    0.35    2.61
   4  -5   5  125.72   13.58
  -5  -5 -11   -1.22    3.43
  -5  -5 -11    3.71    4.02
   4   4  10  120.82   10.90
  -4  -4 -10  116.48   11.78
  -3  -3  -9    0.36    2.10
  -3  -3  -9   -1.38    2.59
  -2  -2  -8  520.65   19.46
   2   2   8  466.16   17.56
  -2  -2  -8  516.37   22.67
  -2  -2  -8  469.13   18.24
   1   1   7   23.85    3.85
  -1  -1  -7   18.79    3.52
  -1  -1  -7   18.75    4.27
   0   0  -6  555.88   15.59
   0   0   6  604.30   22.67
   0   0   6  564.51   17.42
   0   0   6  592.60   16.52
   0   0  -6  585.75   20.86
  -1  -1   5   29.21    5.53
  -1  -1   5   31.32    4.37
   1   1  -5   31.47    3.77
  -1  -1   5   29.98    4.76
   1   1  -5   26.16    4.23
  -1  -1   5   31.00    3.76
  -2  -2   4  928.08   28.10
  -2  -2   4  933.85   24.68
   2   2  -4  907.15   22.81
  -2  -2   4  893.54   19.67
   3   3  -3   -0.14    1.54
  -3  -3   3    1.75    2.21
  -3  -3   3    1.80    1.69
  -3  -3   3   -0.03    1.58
  -4  -4   2  135.91    9.90
  -4  -4   2  137.97   10.10
  -4  -4   2  140.80   11.28
  -5  -5   1   -1.15    2.08
  -5  -5   1   -0.44    1.74
  -5  -5   1    2.12    2.33
  -6  -6   0   71.66    9.02
  -6  -6   0   90.95    9.59
  -7  -7  -1    0.83    2.22
  -7  -7  -1   -1.05    3.44
  -7  -7  -1    0.30    2.37
  -8  -8  -2   18.48    3.98
  -8  -8  -2   44.97    8.82
  -6  -4 -11    6.08    4.88
  -6  -4 -11   15.87    6.28
  -5  -3 -10   50.75    8.97
  -5  -3 -10   65.31    9.85
  -3  -5 -10   59.38    9.52
  -2  -4  -9   23.30    4.51
   4   2   9   22.16    4.67
  -4  -2  -9   32.76    6.87
  -4  -2  -9   32.48    6.51
  -2  -4  -9   30.56    6.51
  -3  -1  -8   97.03   10.12
   1   3   8  108.28   10.52
  -3  -1  -8  113.18   10.67
   3   1   8  114.55    9.83
  -1  -3  -8   90.55   10.10
  -3  -1  -8   91.74    6.95
   0   2   7    5.96    2.93
  -2   0  -7    2.21    1.13
   2   0   7    1.48    2.16
   0   2   7    4.33    1.41
  -2   0  -7    2.62    1.96
   0  -2  -7    6.68    3.03
   1  -1  -6   98.08    8.33
  -1   1   6   94.69    4.91
  -1   1  -6   98.79    7.76
   1  -1   6  107.41    9.61
   1  -1  -6  107.47    9.76
  -1   1   6  108.15    9.16
   2   0  -5   12.72    3.39
  -2   0   5   15.96    2.22
  -2   0   5   13.64    3.38
   0  -2   5   12.55    3.56
   2   0  -5   18.82    3.94
   0   2  -5   13.66    2.81
   3   1  -4  217.98   12.52
  -3  -1   4  189.15    8.63
  -1  -3   4  188.72   10.67
  -1  -3   4  204.61    9.28
  -1  -3   4  198.86   13.10
   1   3  -4  205.89    8.81
   3   1  -4  210.69   12.82
  -3  -1   4  206.43   12.16
  -2  -4   3   96.33    5.43
  -4  -2   3   98.06    7.45
  -2  -4   3   89.01    7.47
  -2  -4   3   98.78    9.58
  -2  -4   3  105.72    6.54
   4   2  -3  108.55    9.60
   2   4  -3  102.80    6.20
  -4  -2   3  104.27    8.96
  -5  -3   2  138.05   11.39
  -5  -3   2  144.93   11.74
  -3  -5   2  145.80    8.92
  -5  -3   2  141.44   10.27
  -3  -5   2  161.28   12.49
  -3  -5   2  149.23    8.52
   5   3  -2  184.71   13.06
  -6  -4   1   48.30    7.75
  -6  -4   1   48.23    6.61
  -4  -6   1   48.52    7.04
  -4  -6   1   54.62    5.72
  -6  -4   1   31.25    6.16
  -7  -5   0  128.76   12.64
  -7  -5   0  149.31   12.37
  -5  -7   0  128.44   11.72
  -6  -8  -1   10.66    3.84
  -8  -6  -1   13.50    4.62
  -8  -6  -1    7.48    4.32
  -6  -8  -1    9.85    5.16
   6   8   1   15.49    4.93
  -8  -6  -1   -0.46    3.05
  -9  -7  -2   42.75    8.44
  -9  -7  -2   41.73    9.56
  -7  -9  -2   32.38    8.26
  -7  -9  -2   14.19    3.81
  -7  -3 -11   15.11    6.30
  -6  -2 -10   92.14   13.14
  -6  -2 -10   92.43   12.55
  -2  -6 -10   87.77   12.00
   1   5   9   25.85    6.39
   5   1   9   15.59    3.95
  -5  -1  -9   18.51    5.98
  -5  -1  -9   14.44    4.65
  -1  -5  -9   13.81    4.95
  -4   0  -8  585.31   26.77
   4   0   8  557.79   21.49
  -4   0  -8  596.74   23.69
   0   4   8  597.65   27.25
   0  -4  -8  587.68   27.42
   3  -1   7   58.05    7.49
  -3   1  -7   61.88    6.84
  -1   3   7   64.86    9.08
   1  -3  -7   65.90    8.85
   2  -2  -6   12.07    4.14
  -2   2   6   15.15    4.64
   2  -2   6   16.46    4.37
  -2   2  -6   14.34    2.98
   1  -3   5   61.86    7.77
  -1   3  -5   56.11    4.03
   3  -1  -5   66.74    8.39
  -3   1   5   57.94    7.96
  -4   0   4  490.42    8.88
   0  -4   4  639.80   25.08
   0  -4   4  516.19   15.22
   4   0  -4  653.66   25.30
  -4   0   4  636.19   24.86
   5   1  -3   10.49    3.82
  -5  -1   3   13.30    2.60
  -1  -5   3   14.79    4.25
  -5  -1   3   18.37    4.65
  -6  -2   2  232.54   15.86
  -6  -2   2  203.56   11.17
  -2  -6   2  219.43   15.77
   6   2  -2  261.80   17.35
  -7  -3   1   45.70    8.08
  -7  -3   1   43.63    6.12
  -3  -7   1   50.83    8.06
  -8  -4   0    5.91    3.55
  -8  -4   0   15.08    5.26
  -8  -4   0   15.18    4.69
  -4  -8   0   19.28    5.30
  -9  -5  -1    0.62    2.90
  -9  -5  -1    3.53    3.87
  -5  -9  -1    4.29    4.56
  -5  -9  -1    4.68    3.76
 -10  -6  -2   36.25    8.99
  -6 -10  -2   43.95    9.06
  -7  -1 -10   21.66    6.97
  -6   0  -9    6.39    4.37
  -6   0  -9    4.61    3.41
   0  -6  -9    0.09    3.94
   5  -1   8   83.58    8.95
  -5   1  -8   84.99    9.35
  -1   5   8   95.94   12.90
   1  -5  -8   72.50   10.61
   2  -4  -7    1.39    2.76
  -2   4   7   -1.15    3.28
   4  -2   7   -0.06    2.64
   3  -3  -6   34.25    7.07
  -3   3   6   29.62    7.20
   3  -3   6   31.06    6.31
   2  -4   5    9.60    3.89
   4  -2  -5    8.67    3.94
  -4   2   5    8.63    3.96
   1  -5   4  185.75   14.78
   5  -1  -4  198.79   15.75
  -5   1   4  178.66   15.40
   6   0  -3    4.02    3.50
  -6   0   3    2.85    3.18
   0  -6   3    1.14    2.49
  -1  -7   2  109.52   11.94
   7   1  -2  112.05   12.70
  -7  -1   2  114.21   12.39
  -8  -2   1   28.46    7.02
  -2  -8   1   31.02    6.70
  -9  -3   0   97.95   12.93
  -3  -9   0   79.64   10.95
   5  -3   7    9.02    4.39
   4  -4   6  106.39   12.43
  -4   4   6   90.06   13.05
   4  -4  -6   71.25   11.04
   5  -3  -5    3.43    3.54
  -5   3   5    0.39    3.74
   3  -5   5   -4.00    4.65
   2  -6   4   61.15    9.58
   6  -2  -4   54.95    9.91
  -6   2   4   56.07   10.00
   7  -1  -3   11.81    4.94
  -7   1   3   13.01    5.00
   1  -7   3   11.22    4.70
  -6  -5 -12    1.23    3.28
  -5  -4 -11   20.93    5.76
  -5  -4 -11   12.88    5.81
  -4  -5 -11   28.73    7.64
   4   3  10   13.68    4.12
  -3  -4 -10    8.62    3.77
  -4  -3 -10   13.02    5.01
  -4  -3 -10   21.82    6.24
  -3  -4 -10   20.63    6.12
  -2  -3  -9  118.15    9.23
  -3  -2  -9  111.69   10.75
  -3  -2  -9  119.71   11.92
  -2  -3  -9  123.01   12.32
   3   2   9  126.54   11.03
   1   2   8   22.55    3.68
  -2  -1  -8   22.56    3.63
   2   1   8   23.53    5.14
   1   2   8   30.50    5.41
  -2  -1  -8   29.00    5.68
  -1  -2  -8   25.53    5.44
   0   1   7  736.63   18.43
   0   1   7  832.17   23.97
  -1   0  -7  743.29   24.24
   0  -1  -7  787.23   27.21
   1   0   7  810.76   27.38
   0  -1  -7  731.59   21.91
  -1   0  -7  729.19   16.68
   1   0  -6   22.87    3.85
   0   1  -6   24.78    2.84
   0  -1   6   30.24    4.86
  -1   0   6   28.92    3.78
  -1   0   6   24.20    4.12
   0  -1   6   24.16    5.07
   0  -1   6   25.44    2.86
   0  -1   6   25.36    4.61
   0   1  -6   19.70    4.00
   1   0  -6   18.78    4.23
  -2  -1   5  110.15    7.79
  -1  -2   5  106.16    9.25
   2   1  -5  107.64    8.27
  -1  -2   5  102.23    8.18
  -1  -2   5  103.64    5.41
   1   2  -5   97.10    7.51
   2   1  -5   99.94    8.69
  -1  -2   5  100.02    9.83
  -2  -1   5  110.85    8.30
   3   2  -4   15.03    3.88
   2   3  -4   14.62    3.19
  -3  -2   4   16.85    4.38
  -3  -2   4   19.93    3.72
  -2  -3   4   16.59    4.56
  -2  -3   4   17.50    2.56
  -2  -3   4   14.02    3.11
  -4  -3   3  244.59   15.62
  -4  -3   3  205.76   12.25
  -3  -4   3  224.47   10.65
  -3  -4   3  238.55   15.22
  -3  -4   3  253.44   12.62
   4   3  -3  287.79   15.19
   3   4  -3  281.17   12.40
  -4  -5   2    2.58    2.52
   5   4  -2    3.64    2.69
  -5  -4   2    3.83    2.57
  -5  -4   2    5.33    2.73
  -4  -5   2    1.63    1.71
  -5  -4   2   -0.28    2.09
  -4  -5   2    6.02    2.81
  -6  -5   1  159.92   13.52
  -5  -6   1  148.06   12.07
  -5  -6   1  157.17   13.10
  -6  -5   1  131.78   11.90
  -6  -7   0    6.68    3.09
  -7  -6   0   17.47    5.39
  -7  -6   0   12.87    5.04
  -6  -7   0   13.31    5.52
  -6  -7   0   16.18    5.02
  -7  -6   0    4.86    2.98
  -7  -8  -1   21.67    4.98
  -8  -7  -1   15.20    4.64
  -8  -7  -1   41.17    8.42
  -8  -7  -1   42.34    8.69
  -7  -8  -1   44.11    8.84
  -9  -8  -2    7.31    4.48
   8   9   2    3.64    3.45
  -6  -3 -11   29.70    8.11
  -6  -3 -11   36.34    8.27
  -5  -2 -10   18.76    6.74
  -5  -2 -10   16.48    5.65
  -2  -5 -10   15.70    6.12
  -4  -1  -9  156.93   14.30
   4   1   9  146.41   11.31
   1   4   9  145.43   13.70
  -4  -1  -9  161.92   13.68
  -1  -4  -9  166.54   15.14
   0   3   8   11.73    4.14
   3   0   8    7.70    3.22
  -3   0  -8    9.74    3.48
   0  -3  -8   10.26    4.07
   2  -1   7  129.50   11.10
  -2   1  -7  123.72    9.48
  -1   2   7  125.44   11.46
   1  -2  -7  107.93   10.88
   2  -1  -6   12.18    3.93
  -2   1   6   13.46    3.84
   1  -2   6   13.14    3.77
  -1   2  -6   12.33    2.89
  -3   0   5   74.06    3.95
  -3   0   5   75.33    3.95
   0  -3   5  104.31   10.28
   0   3  -5   98.27    6.00
   3   0  -5  105.29   10.12
  -3   0   5   99.64    9.70
  -4  -1   4   46.08    4.29
  -1  -4   4   60.65    8.20
  -1  -4   4   42.85    5.19
   4   1  -4   65.34    8.20
   1   4  -4   49.36    3.75
  -4  -1   4   56.61    7.40
  -5  -2   3  210.74   10.83
  -2  -5   3  218.40   15.48
   5   2  -3  249.69   16.06
  -5  -2   3  216.72   14.61
  -6  -3   2  153.85   12.87
  -3  -6   2  149.32    9.24
  -6  -3   2  135.42    9.99
  -3  -6   2  143.92   12.85
   6   3  -2  176.96   14.28
  -7  -4   1   46.91    8.52
  -7  -4   1   61.93    7.88
  -4  -7   1   56.25    8.37
  -7  -4   1   34.03    7.08
  -5  -8   0    5.35    4.28
  -8  -5   0    6.88    4.38
  -8  -5   0    6.36    3.62
  -8  -5   0    0.89    2.76
  -9  -6  -1    8.94    4.62
  -9  -6  -1   22.24    6.48
  -6  -9  -1    3.95    4.36
  -6  -9  -1   13.33    4.55
  -7 -10  -2    0.65    3.02
  -7  -2 -11   99.35   13.89
   1   6  10   15.35    6.38
  -6  -1 -10   15.38    6.14
  -6  -1 -10    3.17    3.75
  -5   0  -9   68.45   11.17
   5   0   9   76.95    8.68
  -5   0  -9   79.96   10.12
   0   5   9   84.57   12.07
   0  -5  -9   78.23   11.21
   4  -1   8   11.11    3.84
  -1   4   8   21.57    5.81
  -4   1  -8   20.19    4.62
   1  -4  -8   12.65    4.74
   3  -2   7  160.82   12.94
  -3   2  -7  160.43   10.07
  -2   3   7  172.82   15.30
   2  -3  -7  157.32   14.24
   3  -2  -6   12.76    4.36
   2  -3   6   10.39    4.29
  -3   2   6    8.66    4.20
   1  -4   5  288.60   17.85
   4  -1  -5  306.24   18.83
  -4   1   5  270.28   18.32
   5   0  -4   17.43    4.99
   0  -5   4   23.21    5.47
  -5   0   4   21.55    5.63
  -1  -6   3  182.97   15.06
   6   1  -3  198.24   15.97
  -6  -1   3  185.93   15.20
  -2  -7   2   32.63    6.82
   7   2  -2   27.66    6.56
  -7  -2   2   25.62    4.44
  -7  -2   2   24.18    6.05
  -8  -3   1  151.55   15.50
  -3  -8   1  153.95   15.02
  -8  -3   1  163.94   12.04
  -9  -4   0    3.34    3.95
  -9  -4   0    5.94    3.21
  -9  -4   0    0.86    2.79
  -4  -9   0    4.67    3.78
 -10  -5  -1   10.48    4.70
   5  -2   8    9.79    4.44
   3  -4  -7   56.03    9.55
   4  -3   7   59.77    9.11
  -3   4   7   51.53    9.95
   4  -3  -6   19.07    6.36
  -4   3   6   30.27    7.13
   3  -4   6   24.90    6.17
   5  -2  -5   14.56    5.25
  -5   2   5   13.48    5.23
   2  -5   5    8.38    4.21
   6  -1  -4   12.08    5.12
  -6   1   4   11.62    5.00
   1  -6   4   14.36    5.09
   0  -7   3   81.33   11.27
   7   0  -3   73.06   10.87
  -7   0   3   77.71   11.44
   8   1  -2    9.37    4.82
  -8  -1   2   13.60    5.27
  -1  -8   2    4.28    3.49
  -4  -4 -11    1.21    3.52
   3   3  10  179.76   14.13
  -3  -3 -10  163.15   12.70
  -3  -3 -10  193.31   16.69
   2   2   9   -0.56    2.75
  -2  -2  -9    1.71    3.09
   1   1   8  256.15   16.54
  -1  -1  -8  226.29   15.13
  -1  -1  -8  214.42   11.57
   0   0   7    0.05    1.39
   0   0   7    0.73    2.19
   0   0   7    1.44    1.57
   0   0  -7    0.26    1.31
   0   0  -7   -0.46    2.00
  -1  -1   6  850.20   29.61
   1   1  -6  815.56   19.93
  -1  -1   6  809.87   23.04
  -1  -1   6  840.21   20.34
   1   1  -6  764.84   23.98
   2   2  -5    4.85    2.41
  -2  -2   5    0.97    1.22
  -2  -2   5    2.94    2.00
  -2  -2   5    3.49    2.84
   3   3  -4   98.66    8.52
  -3  -3   4   99.79   10.77
  -3  -3   4   72.50    6.61
   4   4  -3    1.22    1.91
  -4  -4   3   -0.47    1.62
  -4  -4   3   -0.17    2.15
  -5  -5   2  408.55   19.16
  -5  -5   2  438.17   21.51
  -5  -5   2  429.67   21.22
  -6  -6   1   -1.06    2.11
  -6  -6   1   -1.65    2.74
  -6  -6   1   -0.41    1.89
  -7  -7   0   46.39    9.24
  -7  -7   0   30.11    7.22
  -8  -8  -1    0.04    2.29
  -8  -8  -1    0.39    2.53
  -8  -8  -1   -0.65    2.11
  -6  -4 -12   36.80    8.51
  -5  -3 -11   -1.32    3.61
  -5  -3 -11    1.51    3.05
  -4  -2 -10  175.35   15.03
   4   2  10  179.36   13.20
  -4  -2 -10  188.35   16.12
  -2  -4 -10  173.51   15.93
   1   3   9   36.44    6.64
  -3  -1  -9   41.40    7.21
   3   1   9   37.27    6.35
  -1  -3  -9   38.25    7.51
   0   2   8   24.86    5.42
   2   0   8   29.16    5.92
  -2   0  -8   22.25    4.93
   0  -2  -8   28.04    5.98
   1  -1   7   28.97    5.77
  -1   1  -7   30.65    5.08
  -1   1   7   33.39    5.55
   1  -1  -7   29.54    5.78
   0  -2   6  513.67   22.57
   0   2  -6  524.97   17.46
   2   0  -6  496.58   21.61
  -2   0   6  556.85   21.32
   1   3  -5   14.54    3.01
   3   1  -5   12.31    3.82
  -1  -3   5   17.21    4.56
  -3  -1   5   12.67    3.52
  -3  -1   5   14.66    2.86
  -1  -3   5   10.30    2.82
   4   2  -4   11.38    3.81
   2   4  -4   10.75    2.59
  -2  -4   4    6.90    3.74
  -2  -4   4    3.58    1.07
  -4  -2   4    6.09    2.94
  -4  -2   4    6.92    2.74
  -2  -4   4    7.36    2.54
  -3  -5   3   50.87    5.17
  -5  -3   3   64.87    8.82
  -5  -3   3   60.83    7.06
  -3  -5   3   70.98    9.16
  -5  -3   3   52.73    7.35
  -6  -4   2   99.95   10.81
  -4  -6   2   97.63    8.62
  -6  -4   2  112.19   10.05
  -4  -6   2  113.23   11.49
   6   4  -2  120.07   11.75
  -6  -4   2   87.68   10.30
  -5  -7   1   10.43    4.15
  -7  -5   1    7.84    4.02
  -7  -5   1   10.00    3.96
  -5  -7   1    4.93    3.03
  -7  -5   1    2.43    2.61
  -8  -6   0   56.36    9.49
  -8  -6   0    3.60    3.90
  -6  -8   0   44.03    8.41
  -6  -8   0   20.14    5.77
  -8  -6   0   35.61    7.43
  -6  -8   0   22.16    7.85
  -7  -9  -1   -2.60    3.21
  -9  -7  -1    1.80    3.18
  -9  -7  -1    4.07    3.79
  -6  -2 -11    9.00    4.58
  -5  -1 -10   61.40   10.65
   1   5  10   79.99   12.08
  -5  -1 -10   59.44    9.53
  -1  -5 -10   56.14   10.17
   0   4   9   29.60    7.00
   4   0   9   24.70    5.25
  -4   0  -9   29.06    6.12
   0  -4  -9   24.21    6.73
   3  -1   8  164.08   13.12
  -3   1  -8  170.24   12.10
  -1   3   8  175.90   15.46
   1  -3  -8  166.82   14.84
   2  -2  -7   35.01    6.70
   2  -2   7   39.57    6.90
  -2   2  -7   31.49    4.62
  -2   2   7   43.27    7.62
   1  -3   6  256.95   16.59
  -1   3  -6  233.48    9.55
   3  -1  -6  246.94   16.64
  -3   1   6  268.43   17.51
   4   0  -5   18.84    5.05
  -4   0   5   24.89    5.46
   0  -4   5   20.88    5.34
  -1  -5   4  264.44   17.80
   5   1  -4  322.34   19.37
  -5  -1   4  289.83   18.10
   6   2  -3    5.66    3.40
  -2  -6   3    5.97    3.74
  -6  -2   3    9.18    3.83
  -6  -2   3    7.51    2.56
  -7  -3   2  106.69   12.06
  -7  -3   2  102.05    9.40
  -3  -7   2  114.98   12.42
   7   3  -2  128.86   13.47
  -4  -8   1    4.12    3.14
  -8  -4   1   -0.75    2.93
  -8  -4   1    3.02    3.12
  -8  -4   1   -0.62    2.05
  -9  -5   0   24.39    6.99
  -9  -5   0   14.01    5.25
  -5  -9   0   13.63    5.69
 -10  -6  -1    5.69    4.01
  -1   5   9   12.50    5.56
   4  -2   8   99.89   11.04
  -2   4   8   72.50   11.61
   2  -4  -8   64.14   10.08
   3  -3  -7   22.73    6.31
   3  -3   7   24.49    6.73
  -3   3   7   16.95    6.00
   2  -4   6   72.73   10.14
  -4   2   6   62.61   10.04
   4  -2  -6   53.40    9.04
   5  -1  -5   10.02    4.48
   1  -5   5    3.29    3.21
  -5   1   5    1.54    2.89
   0  -6   4   87.95   11.02
   6   0  -4   75.78   10.61
  -6   0   4   90.47   11.64
   7   1  -3   15.28    5.69
  -7  -1   3   15.02    5.18
  -1  -7   3   13.77    4.76
  -2  -8   2   61.15   10.03
   8   2  -2   56.26   10.15
  -8  -2   2   65.01   10.26
   4  -4   7    3.46    3.05
  -4  -3 -11  104.95   11.75
  -4  -3 -11  145.60   15.26
  -3  -4 -11  138.60   15.32
  -3  -2 -10   53.53    8.88
  -2  -3 -10   56.02    9.01
   3   2  10   54.41    8.07
  -2  -1  -9  139.68   12.73
  -1  -2  -9  146.04   13.66
   2   1   9  151.82   13.27
   0   1   8   -0.20    2.08
   1   0   8    1.75    2.61
  -1   0  -8   -2.22    2.53
   0  -1  -8    0.04    2.13
   1   0  -7  218.85   12.65
  -1   0   7  256.22   13.88
   0   1  -7  220.27   13.43
   1   0  -7  209.43   14.29
   0  -1   7  232.32   16.09
   2   1  -6   27.35    5.32
  -2  -1   6   29.70    6.43
  -2  -1   6   28.26    4.21
   2   1  -6   26.84    4.47
  -1  -2   6   26.94    2.87
   1   2  -6   29.20    4.84
  -2  -1   6   30.48    4.77
  -1  -2   6   36.22    6.66
  -3  -2   5  122.48   12.39
  -3  -2   5  102.60    8.55
  -2  -3   5  100.38    8.96
  -2  -3   5  115.01   11.65
  -2  -3   5  100.15    5.97
   3   2  -5  118.10   10.18
   2   3  -5  113.14    8.58
  -3  -2   5  110.62    8.91
  -3  -4   4   33.44    6.88
  -3  -4   4   34.93    5.46
   4   3  -4   52.27    7.31
   3   4  -4   52.55    6.07
  -3  -4   4   22.55    3.66
  -4  -3   4   21.40    4.98
  -4  -3   4   42.07    7.65
  -5  -4   3  241.46   14.74
  -4  -5   3  225.04   12.41
  -5  -4   3  262.26   15.56
  -4  -5   3  248.44   17.29
  -5  -4   3  228.53   17.00
  -6  -5   2    7.49    3.61
  -5  -6   2    4.88    2.77
  -6  -5   2    2.27    2.86
  -6  -5   2    4.26    2.73
  -5  -6   2    5.04    3.35
  -7  -6   1   37.15    7.80
  -7  -6   1    6.27    4.66
  -7  -6   1   30.91    7.59
  -6  -7   1   25.13    6.40
  -6  -7   1   25.25    7.00
  -6  -7   1   34.52    8.03
  -7  -8   0   -1.62    3.80
  -8  -7   0    5.40    3.90
  -8  -7   0    3.62    2.70
  -7  -8   0    3.63    2.86
  -7  -8   0   -0.76    3.56
  -8  -7   0   -0.22    2.63
  -9  -8  -1   14.45    6.81
  -8  -9  -1   20.35    6.41
  -5  -2 -11  102.89   13.18
  -5  -2 -11  113.64   13.68
   1   4  10   10.14    4.61
   4   1  10    5.79    2.85
  -4  -1 -10    5.87    3.63
  -1  -4 -10    1.84    3.99
   3   0   9   88.63   10.06
   0   3   9   89.41   10.92
  -3   0  -9   97.08   10.58
   0  -3  -9   93.30   11.55
  -1   2   8   31.67    6.62
  -2   1  -8   35.28    5.74
   2  -1   8   26.92    5.96
   1  -2  -8   34.82    6.98
   1  -2   7  116.05   11.74
  -1   2  -7  117.00    8.79
  -2   1   7  126.87   11.89
   2  -1  -7  109.99   11.45
   0   3  -6    1.18    1.38
   3   0  -6    1.85    2.76
  -3   0   6    0.63    2.08
   0  -3   6    0.23    2.89
  -4  -1   5  204.61    8.83
  -1  -4   5  240.85   16.95
   4   1  -5  247.58   16.38
   1   4  -5  224.89    9.21
  -4  -1   5  258.36   16.14
   5   2  -4    6.68    3.72
  -5  -2   4    3.66    2.85
  -5  -2   4    3.64    2.04
  -2  -5   4    5.84    3.75
  -6  -3   3   31.05    6.72
  -6  -3   3   31.81    5.25
  -3  -6   3   38.36    7.31
  -6  -3   3   33.55    6.68
   6   3  -3   45.57    7.95
  -4  -7   2   10.57    4.58
  -7  -4   2    4.70    3.17
  -7  -4   2    7.94    3.38
  -7  -4   2    4.98    3.38
  -5  -8   1   19.64    5.91
  -8  -5   1   35.13    7.73
  -8  -5   1   22.46    5.87
  -6  -9   0    4.30    4.03
  -9  -6   0    0.07    2.68
  -9  -6   0    5.87    3.72
   0   5  10   -2.71    4.40
   4  -1   9   60.39    8.65
  -1   4   9   58.35   10.37
   1  -4  -9   48.07    9.33
   2  -3  -8   18.41    6.53
   3  -2   8   20.26    5.68
  -2   3   8   17.98    5.71
   2  -3   7   77.36   10.10
  -3   2   7   61.48    9.69
   3  -2  -7   69.12   10.02
   4  -1  -6   13.74    4.75
   1  -4   6    7.09    4.14
  -4   1   6    4.64    3.51
   0  -5   5  434.39   23.76
   5   0  -5  444.54   24.40
  -5   0   5  466.32   24.72
   6   1  -4   -0.27    2.74
  -1  -6   4   -1.60    3.37
  -6  -1   4    3.22    3.06
   7   2  -3    6.37    4.18
  -2  -7   3    9.70    4.79
  -7  -2   3   13.24    5.04
  -3  -8   2    5.91    4.06
  -8  -3   2    1.08    3.09
  -9  -4   1   41.42   10.29
   4  -3   8   19.17    5.54
   3  -4   7   31.23    7.01
  -5   2   6    7.85    4.92
   2  -5   6   -0.56    3.35
  -6   1   5   52.42    9.70
   3   3  11    1.83    3.14
  -3  -3 -11    3.94    3.17
  -2  -2 -10  152.73   14.73
   2   2  10  156.89   14.52
   1   1   9    2.40    3.57
  -1  -1  -9    3.44    3.27
   0   0   8  307.13   19.73
   0   0   8  314.24   14.07
   0   0  -8  285.35   17.27
   1   1  -7    1.46    2.08
  -1  -1   7    2.24    1.80
  -1  -1   7   -2.33    3.32
  -2  -2   6   44.04    5.11
   2   2  -6   35.05    5.71
  -2  -2   6   44.24    8.02
   3   3  -5    8.50    3.25
  -3  -3   5    3.52    3.18
  -3  -3   5    5.57    2.31
  -4  -4   4  439.65   23.82
  -4  -4   4  367.41   16.60
  -5  -5   3   -1.97    2.67
  -5  -5   3   -1.73    2.32
  -5  -5   3   -1.06    2.19
  -6  -6   2   60.57    8.80
  -6  -6   2   48.31    8.84
  -6  -6   2   40.09    8.41
  -7  -7   1   -1.72    3.06
  -7  -7   1   -0.93    3.37
  -7  -7   1    1.25    2.78
  -8  -8   0   -8.51    6.23
  -8  -8   0   39.08    9.08
  -4  -2 -11    0.72    3.50
   3   1  10  198.72   15.42
  -3  -1 -10  215.54   17.04
  -1  -3 -10  239.68   19.22
   0   2   9   -0.09    2.46
   2   0   9   -2.28    3.74
  -2   0  -9   -3.05    3.06
   0  -2  -9    0.34    2.77
   1  -1   8  137.47   13.08
  -1   1   8  146.20   12.27
  -1   1  -8  141.25   11.50
   1  -1  -8  129.49   12.81
   2   0  -7    1.07    2.76
  -2   0   7    3.59    3.05
   0  -2   7   -2.06    3.24
   0   2  -7    0.59    1.72
  -1  -3   6  101.97   11.60
   1   3  -6  109.60    8.23
   3   1  -6  113.66   10.97
  -3  -1   6  107.57   10.01
  -4  -2   5   36.16    7.34
  -2  -4   5   37.48    7.20
  -4  -2   5   32.56    4.80
   4   2  -5   36.27    6.58
   2   4  -5   37.06    4.73
  -4  -2   5   41.14    6.31
  -5  -3   4  135.01   13.41
  -5  -3   4  119.93    9.99
  -3  -5   4  141.02   13.76
   5   3  -4  163.58   13.63
  -5  -3   4  120.31   11.26
   6   4  -3   -1.38    2.99
  -6  -4   3    0.11    3.37
  -6  -4   3    3.47    2.57
  -6  -4   3   -0.66    2.12
  -4  -6   3   -0.11    2.46
  -7  -5   2    3.07    3.24
  -7  -5   2    6.76    4.00
  -7  -5   2   -1.51    2.47
  -8  -6   1   -0.59    2.86
  -6  -8   1    0.66    2.62
  -8  -6   1    3.81    3.41
  -8  -6   1   -1.17    2.84
  -6  -8   1   -2.43    3.68
  -9  -7   0   39.37    9.14
  -9  -7   0   22.65    6.71
   0   4  10   28.21    7.10
   4   0  10   24.40    5.78
  -1   3   9    9.42    4.58
   3  -1   9    1.69    3.32
   1  -3  -9    1.61    2.69
   2  -2   8  201.19   15.83
  -2   2   8  201.07   16.74
   2  -2  -8  185.08   16.21
   3  -1  -7   29.39    6.33
  -3   1   7   32.12    6.76
   1  -3   7   26.91    6.53
   0  -4   6  161.11   14.63
   4   0  -6  187.01   15.55
  -4   0   6  174.82   14.96
   5   1  -5   12.59    4.85
  -5  -1   5    9.40    4.30
  -1  -5   5    8.42    4.36
  -2  -6   4   80.89   10.94
   6   2  -4   71.66   10.11
  -6  -2   4   78.31   10.43
   7   3  -3   21.09    6.21
  -3  -7   3   23.16    6.30
  -7  -3   3   20.08    6.04
  -7  -3   3   16.55    5.83
  -4  -8   2   83.39   12.08
  -8  -4   2   87.44   12.24
  -9  -5   1    3.70    2.65
   4  -2   9    8.66    3.98
   3  -3   8   32.56    7.04
  -3   3   8   38.39    8.87
   2  -4   7   26.61    6.61
  -4   2   7   11.52    5.32
   1  -5   6   74.64   10.69
  -5   1   6   77.16   11.38
   5  -1  -6   73.61   11.09
   6   0  -5    4.17    3.65
   0  -6   5    4.83    3.92
  -6   0   5   -0.27    3.60
  -7  -1   4   54.61    9.75
   2   3  11  100.87   12.81
  -3  -2 -11  112.89   13.75
  -2  -3 -11  111.24   13.63
   3   2  11  104.65   12.26
   1   2  10   16.06    5.82
   2   1  10   13.66    5.31
  -2  -1 -10   20.83    5.96
  -1  -2 -10   18.52    5.55
   0   1   9  115.01   13.12
  -1   0  -9  103.30   11.09
   0  -1  -9   99.44   11.48
   1   0   9  107.56   12.28
   0  -1   8    1.83    2.85
  -1   0   8    2.58    2.26
  -1   0   8    4.35    3.86
   0   1  -8   -0.06    2.19
   1   0  -8    3.01    2.61
  -2  -1   7  137.84   14.30
  -2  -1   7  144.63   10.77
   1   2  -7  141.32   10.95
  -1  -2   7  134.48   13.41
   2   1  -7  135.31   11.97
  -3  -2   6   38.78    8.11
  -2  -3   6   33.82    7.25
  -3  -2   6   36.36    5.63
   3   2  -6   41.60    6.74
   2   3  -6   34.96    5.39
  -3  -4   5  178.26   15.49
   4   3  -5  171.86   13.20
   3   4  -5  177.11   11.62
  -4  -3   5  144.10   11.19
  -4  -3   5  171.24   15.77
   5   4  -4   11.42    3.99
   4   5  -4   10.81    3.25
  -4  -5   4    1.80    3.64
  -5  -4   4    5.49    3.60
  -5  -4   4    3.61    2.20
  -5  -4   4    7.18    3.59
  -6  -5   3   61.65    8.45
  -6  -5   3   40.78    8.40
  -6  -5   3   37.81    8.55
  -5  -6   3   51.12    9.71
  -7  -6   2   -8.42    4.13
  -7  -6   2   -1.03    2.36
  -7  -6   2    1.03    2.20
  -6  -7   2    0.38    2.67
  -6  -7   2   -1.47    3.50
  -7  -8   1    1.57    3.60
  -8  -7   1   25.80    6.85
  -8  -7   1   13.03    5.28
  -8  -7   1  -12.27    5.38
  -4  -1 -11   21.04    6.61
   0   3  10    9.59    4.54
   3   0  10    6.81    4.65
  -3   0 -10    1.99    2.70
   0  -3 -10   10.42    5.11
   2  -1   9  231.51   17.65
  -1   2   9  249.56   17.97
  -2   1  -9  255.49   16.25
   1  -2  -9  245.38   18.66
   1  -2   8   66.29    9.61
  -2   1   8   65.13    9.12
   2  -1  -8   55.59    8.79
   0  -3   7  163.37   14.94
  -3   0   7  172.82   14.40
   3   0  -7  155.66   14.18
   4   1  -6   28.93    6.27
  -4  -1   6   35.28    6.69
  -1  -4   6   29.42    6.66
  -2  -5   5   71.04   10.51
   5   2  -5   69.15    9.65
  -5  -2   5   61.53    8.84
  -6  -3   4   29.97    7.02
   6   3  -4   31.78    7.46
  -6  -3   4   35.54    6.93
  -3  -6   4   30.16    7.09
  -4  -7   3   56.76   10.16
  -7  -4   3   38.86    8.23
  -7  -4   3   27.19    8.38
   7   4  -3   65.61   10.32
  -5  -8   2    1.93    3.18
  -8  -5   2   -1.97    3.46
  -8  -5   2   -0.55    2.55
  -1   4  10   22.43    7.45
   3  -2   9  127.17   13.41
  -2   3   9  122.59   14.92
   3  -2  -8    1.34    3.21
  -3   2   8    0.43    3.18
   2  -3   8    0.89    3.18
   4  -1  -7   36.86    7.61
   1  -4   7   39.71    8.03
  -4   1   7   44.74    8.58
   5   0  -6    4.28    3.62
   0  -5   6   -3.42    3.24
  -5   0   6    4.15    3.62
  -1  -6   5   91.68   12.18
   6   1  -5   80.01   11.25
  -6  -1   5   91.34   11.84
   7   2  -4    3.58    3.54
  -7  -2   4    2.08    2.97
  -8  -3   3   39.35    8.48
  -8  -3   3   21.96    7.45
  -9  -4   2    1.33    2.97
   2   2  11    4.09    3.92
  -2  -2 -11    3.73    4.02
   1   1  10   24.54    7.00
  -1  -1 -10   19.37    5.71
   0   0   9   -0.52    3.22
   0   0  -9   -2.10    3.33
   1   1  -8   98.99   10.53
  -1  -1   8  107.39   12.86
   2   2  -7   -1.66    2.87
  -2  -2   7   -0.68    2.87
  -3  -3   6  125.19   13.56
   3   3  -6  118.81   10.56
   4   4  -5   16.45    4.64
  -4  -4   5   10.42    5.12
  -5  -5   4   64.59   10.59
   5   5  -4   83.99    9.56
  -6  -6   3    3.52    3.44
  -6  -6   3   -0.53    2.68
  -7  -7   2   27.73    7.07
  -7  -7   2   -2.59    4.15
   3   1  11   -0.29    3.38
  -3  -1 -11    4.68    3.63
   2   0  10  199.67   16.84
  -2   0 -10  177.38   15.17
   0  -2 -10  178.52   16.82
   1  -1   9   15.85    5.68
  -1   1  -9   16.64    4.62
   1  -1  -9   17.62    5.51
   0  -2   8  131.30   13.64
  -2   0   8  145.50   12.54
   0   2  -8  124.01   10.46
   2   0  -8  134.13   13.19
  -3  -1   7   60.92   10.07
  -1  -3   7   60.18    9.55
  -3  -1   7   60.69    8.15
   3   1  -7   52.19    8.15
  -4  -2   6  169.41   16.88
  -2  -4   6  182.38   16.61
   4   2  -6  192.69   15.26
  -4  -2   6  174.43   13.62
   5   3  -5   18.63    5.21
  -5  -3   5   16.34    4.81
  -3  -5   5   15.34    6.05
  -5  -3   5   12.44    5.42
  -6  -4   4   39.54    8.81
  -6  -4   4   45.59    7.81
  -4  -6   4   47.26    9.34
  -7  -5   3    0.99    2.36
  -5  -7   3    0.78    3.87
  -7  -5   3   -0.17    2.33
  -8  -6   2   -1.06    3.50
  -8  -6   2   16.88    5.54
  -1   3  10   26.16    7.26
   3  -1  10   25.63    6.35
  -2   2   9    7.59    4.13
   2  -2   9    0.12    2.87
   1  -3   8  150.64   15.22
  -3   1   8  162.91   15.54
   3  -1  -8  161.00   15.78
   4   0  -7    3.05    3.26
  -4   0   7   -1.29    4.32
   0  -4   7    3.08    3.43
   5   1  -6   39.54    7.93
  -5  -1   6   40.51    8.13
  -1  -5   6   40.17    8.32
   6   2  -5   15.58    5.51
  -2  -6   5   15.49    5.55
  -6  -2   5   17.24    5.60
   7   3  -4   35.54    8.11
  -7  -3   4   27.24    7.60
  -7  -3   4   36.57    8.09
  -8  -4   3    8.69    5.10
  -8  -4   3   -1.92    3.30
  -2  -1 -11  137.55   14.91
   2   1  11  152.27   15.89
   1   0  10    7.19    4.31
   0   1  10    7.62    4.66
  -1   0 -10    5.68    3.49
   0  -1 -10    8.47    4.43
   1   0  -9   18.78    5.66
  -1   0   9   22.60    6.89
   0  -1   9   14.15    5.31
   0   1  -9   21.24    5.29
   1   2  -8   15.34    4.40
   2   1  -8   21.85    5.87
  -2  -1   8   14.94    5.47
  -1  -2   8   20.45    6.30
  -2  -3   7  263.83   20.32
   3   2  -7  243.99   16.83
   2   3  -7  241.34   14.79
  -3  -2   7  273.50   21.40
   4   3  -6    8.85    3.63
  -3  -4   6    5.67    3.96
  -4  -3   6   10.37    5.40
  -4  -5   5   15.05    6.40
  -5  -4   5   19.84    6.88
  -6  -5   4    5.73    3.97
  -5  -6   4    2.78    3.84
  -7  -6   3   14.67    5.74
  -6  -7   3   26.51    7.69
   2  -1  10    4.23    3.03
   1  -2   9   97.96   12.52
   2  -1  -9   89.79   11.97
   3   0  -8   11.86    5.03
   0  -3   8    7.88    4.31
  -1  -4   7  161.43   16.16
  -4  -1   7  155.66   14.17
   4   1  -7  145.11   14.43
   5   2  -6    0.03    3.18
  -5  -2   6    7.20    3.88
  -2  -5   6   -3.36    4.02
  -5  -2   6    0.01    3.39
   6   3  -5   30.31    7.14
  -6  -3   5   25.81    7.71
  -6  -3   5   28.93    6.76
   7   4  -4   17.47    5.66
  -7  -4   4   24.36    6.48
  -3   2   9   65.20   11.15
  -4   1   8    5.32    4.28
  -5   0   7   16.15    6.34
  -6  -1   6   10.08    5.05
  -1  -1 -11    3.39    3.26
   0   0 -10    7.31    4.26
   1   1  -9    6.61    3.54
  -2  -2   8  188.85   18.08
   2   2  -8  174.26   14.16
   3   3  -7    6.50    3.40
  -6  -6   4    9.49    4.52
   2   0  -9    2.79    3.94
   3   1  -8   99.23   12.01
   4   2  -7    2.55    3.62
   5   3  -6  106.99   12.66
   6   4  -5   -0.70    3.21
   1   0 -10    4.10    3.62
   2   1  -9  119.11   13.18
   3   2  -8   -3.46    4.05
   4   3  -7   16.80    4.82
   0   0   0    0.00    0.00
;
_shelx_hkl_checksum              38239
loop_
_space_group_symop_operation_xyz
'x, y, z'
loop_
_atom_site_label
_atom_site_type_symbol
_atom_site_fract_x
_atom_site_fract_y
_atom_site_fract_z
_atom_site_U_iso_or_equiv
_atom_site_adp_type
_atom_site_occupancy
_atom_site_site_symmetry_order
_atom_site_calc_flag
_atom_site_refinement_flags_posn
_atom_site_refinement_flags_adp
Mn1 Mn 0.7271(4) 0.7676(4) 0.1006(3) 0.0225(4) Uani 1 1 d . .
Mn2 Mn 1.2326(4) 0.2620(4) 0.6011(3) 0.0224(4) Uani 1 1 d . .
O1 O 1.1969(16) -0.0223(16) 0.7606(12) 0.021(2) Uani 1 1 d . U
O2 O 0.7010(16) 0.9188(17) 0.2599(12) 0.028(3) Uani 1 1 d . .
O3 O 0.4476(18) 0.7331(18) 0.2590(19) 0.043(3) Uani 1 1 d . .
O4 O 1.3690(18) 0.2272(15) 0.7737(16) 0.031(3) Uani 1 1 d . .
O5 O 0.7670(16) 0.6175(19) -0.0705(17) 0.035(3) Uani 1 1 d . .
O6 O 1.0106(15) 0.8031(16) -0.0615(12) 0.022(2) Uani 1 1 d . U
O7 O 0.9499(16) 0.423(2) 0.7534(16) 0.039(3) Uani 1 1 d . .
O8 O 1.0685(15) 0.2902(17) 0.4432(13) 0.027(2) Uani 1 1 d . .
O9 O 0.8889(17) 0.4800(16) 0.2575(14) 0.027(2) Uani 1 1 d . .
O10 O 1.2667(16) 0.5387(18) 0.4348(19) 0.044(4) Uani 1 1 d . .
O11 O 1.5166(16) 0.1024(16) 0.4432(13) 0.026(2) Uani 1 1 d . U
O12 O 0.5648(19) 1.0474(19) -0.0527(15) 0.037(3) Uani 1 1 d . .
C13 C 0.974(3) 0.458(3) 0.350(2) 0.027(3) Uani 1 1 d . U
H13 H 0.9718 0.5705 0.3543 0.032 Uiso 1 1 calc R U
C14 C 0.424(2) 0.567(2) 0.3395(19) 0.022(3) Uani 1 1 d . U
H14 H 0.5363 0.4554 0.3250 0.027 Uiso 1 1 calc R U
C15 C 1.035(3) -0.041(3) 0.837(3) 0.033(4) Uani 1 1 d . .
H15 H 0.9243 0.0699 0.8165 0.039 Uiso 1 1 calc R U
C16 C 0.926(2) 0.525(3) -0.1503(19) 0.023(3) Uani 1 1 d . .
H16 H 1.0377 0.5240 -0.1451 0.028 Uiso 1 1 calc R U
C17 C 0.545(3) 1.025(2) 0.345(3) 0.034(4) Uani 1 1 d . .
H17 H 0.4316 1.0464 0.3271 0.040 Uiso 1 1 calc R U
C18 C 1.472(3) 0.076(3) 0.851(3) 0.037(4) Uani 1 1 d . .
H18 H 1.4861 -0.0376 0.8385 0.044 Uiso 1 1 calc R U
N1 N 1.075(2) 1.007(2) -0.646(2) 0.044(3) Uani 1 1 d . .
H1A H 1.1913 0.9087 -0.6580 0.052 Uiso 1 1 calc R U
H1B H 1.0874 1.1027 -0.6353 0.052 Uiso 1 1 calc R U
C1 C 1.006(5) 1.084(5) -0.808(3) 0.060(8) Uani 1 1 d . .
H1C H 0.8774 1.1855 -0.7921 0.089 Uiso 1 1 calc R U
H1D H 1.0021 0.9782 -0.8242 0.089 Uiso 1 1 calc R U
H1E H 1.0966 1.1369 -0.9099 0.089 Uiso 1 1 calc R U
N2 N 0.931(2) 0.939(2) -0.4901(19) 0.030(4) Uani 1 1 d . .
H2A H 0.9430 0.8217 -0.4853 0.045 Uiso 1 1 d R U
H2C H 0.8089 1.0249 -0.4929 0.045 Uiso 1 1 d R U
N3 N 0.406(3) 0.468(3) 0.012(2) 0.036(4) Uani 1 1 d . .
H3A H 0.4985 0.3472 0.0213 0.053 Uiso 1 1 d R U
H3C H 0.2982 0.4677 0.0102 0.053 Uiso 1 1 d R U
C2 C 0.553(5) 0.533(5) -0.310(3) 0.068(9) Uani 1 1 d . .
H2D H 0.4459 0.5298 -0.3249 0.102 Uiso 1 1 calc R U
H2E H 0.6519 0.4032 -0.2900 0.102 Uiso 1 1 calc R U
H2F H 0.6089 0.6195 -0.4142 0.102 Uiso 1 1 calc R U
N4 N 0.477(2) 0.609(3) -0.1528(19) 0.052(4) Uani 1 1 d . .
H4A H 0.5737 0.6237 -0.1455 0.063 Uiso 1 1 calc R U
H4B H 0.3796 0.7259 -0.1678 0.063 Uiso 1 1 calc R U
loop_
_atom_site_aniso_label
_atom_site_aniso_U_11
_atom_site_aniso_U_22
_atom_site_aniso_U_33
_atom_site_aniso_U_23
_atom_site_aniso_U_13
_atom_site_aniso_U_12
Mn1 0.0231(8) 0.0242(9) 0.0143(7) -0.0032(6) -0.0048(6) -0.0074(6)
Mn2 0.0232(8) 0.0236(9) 0.0155(7) -0.0038(6) -0.0057(6) -0.0070(6)
O1 0.032(5) 0.025(4) 0.008(3) -0.004(3) -0.004(3) -0.014(3)
O2 0.032(6) 0.031(6) 0.013(5) -0.012(5) 0.001(4) -0.008(5)
O3 0.032(6) 0.024(6) 0.070(9) -0.009(6) -0.016(6) -0.011(5)
O4 0.048(7) 0.010(5) 0.044(7) -0.003(5) -0.032(6) -0.004(4)
O5 0.023(6) 0.044(8) 0.051(7) -0.026(6) -0.012(5) -0.010(5)
O6 0.021(4) 0.024(5) 0.010(4) -0.002(3) 0.001(3) -0.009(3)
O7 0.012(5) 0.061(9) 0.040(7) -0.030(6) 0.000(5) -0.004(5)
O8 0.019(5) 0.036(6) 0.018(5) -0.004(4) -0.005(4) -0.010(4)
O9 0.032(6) 0.021(6) 0.027(6) -0.002(5) -0.015(5) -0.008(5)
O10 0.011(5) 0.025(6) 0.071(9) -0.003(6) -0.006(5) -0.004(4)
O11 0.031(5) 0.024(4) 0.022(4) -0.019(4) 0.001(4) -0.006(3)
O12 0.048(8) 0.033(7) 0.030(6) 0.007(5) -0.032(6) -0.010(6)
C13 0.028(5) 0.025(6) 0.026(5) 0.000(4) -0.015(4) -0.010(4)
C14 0.024(5) 0.020(5) 0.015(5) -0.001(4) 0.001(4) -0.012(4)
C15 0.032(8) 0.029(8) 0.044(9) -0.013(7) -0.022(7) -0.005(6)
C16 0.027(8) 0.034(9) 0.014(6) -0.009(6) -0.001(6) -0.017(7)
C17 0.030(8) 0.013(7) 0.060(11) -0.010(7) -0.016(8) -0.006(6)
C18 0.032(8) 0.046(11) 0.039(9) -0.017(8) -0.012(7) -0.013(8)
N1 0.056(9) 0.021(6) 0.048(8) -0.007(6) -0.013(7) -0.015(6)
C1 0.080(18) 0.080(19) 0.027(10) 0.006(11) -0.024(11) -0.048(15)
N2 0.020(6) 0.032(8) 0.017(6) 0.006(5) -0.003(5) -0.009(5)
N3 0.041(8) 0.028(7) 0.022(7) -0.012(6) 0.004(6) -0.009(6)
C2 0.11(2) 0.09(2) 0.038(12) -0.028(13) -0.002(13) -0.067(19)
N4 0.021(6) 0.096(13) 0.043(8) -0.019(8) -0.011(5) -0.024(7)
loop_
_atom_type_symbol
_atom_type_description
_atom_type_scat_dispersion_real
_atom_type_scat_dispersion_imag
_atom_type_scat_source
C C 0.0033 0.0016 'International Tables Vol C Tables 4.2.6.8 and 6.1.1.4'
H H 0.0000 0.0000 'International Tables Vol C Tables 4.2.6.8 and 6.1.1.4'
N N 0.0061 0.0033 'International Tables Vol C Tables 4.2.6.8 and 6.1.1.4'
O O 0.0106 0.0060 'International Tables Vol C Tables 4.2.6.8 and 6.1.1.4'
Mn Mn 0.3368 0.7283 'International Tables Vol C Tables 4.2.6.8 and 6.1.1.4'
loop_
_geom_angle_atom_site_label_1
_geom_angle_atom_site_label_2
_geom_angle_atom_site_label_3
_geom_angle
_geom_angle_site_symmetry_1
_geom_angle_site_symmetry_3
O12 Mn1 O2 88.8(5) . .
O12 Mn1 O3 87.3(5) . .
O2 Mn1 O3 92.8(5) . .
O12 Mn1 O5 91.0(5) . .
O2 Mn1 O5 177.1(5) . .
O3 Mn1 O5 90.1(5) . .
O12 Mn1 O6 92.5(5) . .
O2 Mn1 O6 87.4(4) . .
O3 Mn1 O6 179.7(6) . .
O5 Mn1 O6 89.7(4) . .
O12 Mn1 O9 179.0(6) . .
O2 Mn1 O9 91.9(4) . .
O3 Mn1 O9 91.9(5) . .
O5 Mn1 O9 88.4(5) . .
O6 Mn1 O9 88.3(4) . .
O4 Mn2 O10 92.3(5) . .
O4 Mn2 O7 89.8(5) . .
O10 Mn2 O7 88.6(5) . .
O4 Mn2 O11 91.0(5) . .
O10 Mn2 O11 90.8(5) . .
O7 Mn2 O11 179.0(6) . .
O4 Mn2 O1 90.1(4) . .
O10 Mn2 O1 177.3(6) . .
O7 Mn2 O1 92.5(5) . .
O11 Mn2 O1 88.1(4) . .
O4 Mn2 O8 174.6(5) . .
O10 Mn2 O8 91.4(5) . .
O7 Mn2 O8 86.5(5) . .
O11 Mn2 O8 92.8(4) . .
O1 Mn2 O8 86.2(4) . .
C15 O1 Mn2 124.0(11) . .
C17 O2 Mn1 127.1(12) . .
C14 O3 Mn1 125.2(11) . .
C18 O4 Mn2 126.9(12) . .
C16 O5 Mn1 123.0(10) . .
C15 O6 Mn1 126.8(11) 1_564 .
C16 O7 Mn2 124.2(10) 1_556 .
C13 O8 Mn2 122.7(11) . .
C13 O9 Mn1 124.5(11) . .
C14 O10 Mn2 127.7(10) 1_655 .
C17 O11 Mn2 127.5(12) 1_645 .
C18 O12 Mn1 127.0(13) 1_464 .
O9 C13 O8 125.0(16) . .
O10 C14 O3 127.8(15) 1_455 .
O1 C15 O6 125.2(15) . 1_546
O5 C16 O7 122.7(14) . 1_554
O11 C17 O2 131.6(18) 1_465 .
O4 C18 O12 129.5(19) . 1_646
N2 N1 C1 109.4(17) . .
N3 N4 C2 110.3(18) . .
loop_
_geom_bond_atom_site_label_1
_geom_bond_atom_site_label_2
_geom_bond_distance
_geom_bond_site_symmetry_2
Mn1 O12 2.162(13) .
Mn1 O2 2.157(12) .
Mn1 O3 2.170(13) .
Mn1 O5 2.191(13) .
Mn1 O6 2.204(10) .
Mn1 O9 2.205(12) .
Mn2 O4 2.131(12) .
Mn2 O10 2.159(13) .
Mn2 O7 2.168(12) .
Mn2 O11 2.189(11) .
Mn2 O1 2.206(11) .
Mn2 O8 2.225(12) .
O1 C15 1.24(2) .
O2 C17 1.26(2) .
O3 C14 1.291(19) .
O4 C18 1.20(2) .
O5 C16 1.204(19) .
O6 C15 1.24(2) 1_564
O7 C16 1.34(2) 1_556
O8 C13 1.29(2) .
O9 C13 1.21(2) .
O10 C14 1.253(19) 1_655
O11 C17 1.18(2) 1_645
O12 C18 1.27(2) 1_464
C14 O10 1.253(19) 1_455
C15 O6 1.24(2) 1_546
C16 O7 1.34(2) 1_554
C17 O11 1.18(2) 1_465
C18 O12 1.27(2) 1_646
N1 N2 1.46(2) .
N1 C1 1.54(3) .
N3 N4 1.49(2) .
C2 N4 1.54(3) .
loop_
_geom_hbond_atom_site_label_D
_geom_hbond_atom_site_label_H
_geom_hbond_atom_site_label_A
_geom_hbond_distance_DH
_geom_hbond_distance_HA
_geom_hbond_distance_DA
_geom_hbond_angle_DHA
_geom_hbond_site_symmetry_A
N1 H1A O3 0.89 1.89 2.76(2) 166.3 1_654
N1 H1B O8 0.89 1.87 2.745(19) 165.5 1_564
N2 H2C O11 0.90 2.42 3.20(2) 145.7 1_464
N3 H3A O12 0.89 2.57 3.25(2) 134.3 1_545
N4 H4A O5 0.89 1.95 2.822(18) 166.0 .
N4 H4B O1 0.89 1.87 2.75(2) 170.4 1_464
