#------------------------------------------------------------------------------
#$Date: 2019-10-29 23:19:15 +0200 (Tue, 29 Oct 2019) $
#$Revision: 220412 $
#$URL: file:///home/coder/svn-repositories/cod/cif/4/00/29/4002988.cif $
#------------------------------------------------------------------------------
#
# This file is available in the Crystallography Open Database (COD),
# http://www.crystallography.net/
#
# All data on this site have been placed in the public domain by the
# contributors.
#
data_4002988
loop_
_publ_author_name
'Zhou, Laidong'
'Assoud, Abdeljalil'
'Shyamsunder, Abhinandan'
'Huq, Ashfia'
'Zhang, Qiang'
'Hartmann, Pascal'
'Kulisch, Joern'
'Nazar, Linda F.'
_publ_section_title
;
 An Entropically Stabilized Fast-Ion Conductor: Li3.25[Si0.25P0.75]S4
;
_journal_issue                   19
_journal_name_full               'Chemistry of Materials'
_journal_page_first              7801
_journal_paper_doi               10.1021/acs.chemmater.9b00657
_journal_volume                  31
_journal_year                    2019
_chemical_formula_moiety         'Li3.58 P0.50 S4 Si0.50'
_chemical_formula_sum            'Li3.58 P0.5 S4 Si0.5'
_chemical_formula_weight         182.64
_space_group_crystal_system      orthorhombic
_space_group_IT_number           62
_space_group_name_Hall           '-P 2ac 2n'
_space_group_name_H-M_alt        'P n m a'
_symmetry_space_group_name_Hall  '-P 2ac 2n'
_symmetry_space_group_name_H-M   'P n m a'
_audit_creation_method           SHELXL-2018/3
_cell_angle_alpha                90
_cell_angle_beta                 90
_cell_angle_gamma                90
_cell_formula_units_Z            4
_cell_length_a                   13.4165(19)
_cell_length_b                   7.9107(11)
_cell_length_c                   6.1283(8)
_cell_measurement_reflns_used    171
_cell_measurement_temperature    280(2)
_cell_measurement_theta_max      30
_cell_measurement_theta_min      1.5
_cell_volume                     650.42(15)
_computing_cell_refinement       'SMART, 'Bruker APEX II'
_computing_data_collection       'Bruker kappa APEX II'
_computing_data_reduction        'SAINT, 'Bruker APEX II'
_computing_molecular_graphics    Diamond
_computing_structure_refinement  'SHELXL-2016 (Sheldrick, 2016)'
_computing_structure_solution    'SHELXL-2016 (Sheldrick, 2016)'
_diffrn_ambient_temperature      280(2)
_diffrn_measured_fraction_theta_full 1.000
_diffrn_measured_fraction_theta_max 0.999
_diffrn_measurement_device_type  'BRUKER kappa APEX II'
_diffrn_measurement_method       'Omega and phi scan'
_diffrn_radiation_monochromator  graphite
_diffrn_radiation_source         'fine-focus sealed tube'
_diffrn_radiation_type           MoK\a
_diffrn_radiation_wavelength     0.71073
_diffrn_reflns_av_R_equivalents  0.0355
_diffrn_reflns_av_unetI/netI     0.0307
_diffrn_reflns_Laue_measured_fraction_full 1.000
_diffrn_reflns_Laue_measured_fraction_max 0.999
_diffrn_reflns_limit_h_max       17
_diffrn_reflns_limit_h_min       -18
_diffrn_reflns_limit_k_max       9
_diffrn_reflns_limit_k_min       -11
_diffrn_reflns_limit_l_max       6
_diffrn_reflns_limit_l_min       -8
_diffrn_reflns_number            5234
_diffrn_reflns_point_group_measured_fraction_full 1.000
_diffrn_reflns_point_group_measured_fraction_max 0.999
_diffrn_reflns_theta_full        25.242
_diffrn_reflns_theta_max         29.999
_diffrn_reflns_theta_min         3.037
_diffrn_standards_decay_%        0
_diffrn_standards_interval_time  3
_diffrn_standards_number         3
_exptl_absorpt_coefficient_mu    1.535
_exptl_absorpt_correction_T_max  0.7460
_exptl_absorpt_correction_T_min  0.5893
_exptl_absorpt_correction_type   multi-scan
_exptl_absorpt_process_details   SADABS
_exptl_crystal_colour            colourless
_exptl_crystal_density_diffrn    1.865
_exptl_crystal_description       Plate
_exptl_crystal_F_000             357
_exptl_crystal_size_max          0.160
_exptl_crystal_size_mid          0.100
_exptl_crystal_size_min          0.010
_refine_diff_density_max         0.786
_refine_diff_density_min         -0.431
_refine_diff_density_rms         0.116
_refine_ls_extinction_method     none
_refine_ls_goodness_of_fit_ref   1.005
_refine_ls_hydrogen_treatment    undef
_refine_ls_matrix_type           full
_refine_ls_number_parameters     71
_refine_ls_number_reflns         1010
_refine_ls_number_restraints     6
_refine_ls_restrained_S_all      1.002
_refine_ls_R_factor_all          0.0543
_refine_ls_R_factor_gt           0.0373
_refine_ls_shift/su_max          0.000
_refine_ls_shift/su_mean         0.000
_refine_ls_structure_factor_coef Fsqd
_refine_ls_weighting_details
'w=1/[\s^2^(Fo^2^)+(0.0579P)^2^+0.7274P] where P=(Fo^2^+2Fc^2^)/3'
_refine_ls_weighting_scheme      calc
_refine_ls_wR_factor_gt          0.0893
_refine_ls_wR_factor_ref         0.0995
_reflns_Friedel_coverage         0.000
_reflns_number_gt                817
_reflns_number_total             1010
_reflns_threshold_expression     'I > 2\s(I)'
_cod_data_source_file            Li3.5Si0.5P0.5S4.cif
_cod_data_source_block           Li3.5Si0.5P0.5S4
_cod_original_formula_sum        'Li3.58 P0.50 S4 Si0.50'
_cod_database_code               4002988
_shelx_shelxl_version_number     2018/3
_shelx_space_group_comment
;
The symmetry employed for this shelxl refinement is uniquely defined
by the following loop, which should always be used as a source of
symmetry information in preference to the above space-group names.
They are only intended as comments.
;
_shelx_estimated_absorpt_t_min   0.791
_shelx_estimated_absorpt_t_max   0.985
_shelx_res_file
;
TITL LN11_0ma_a.res in Pnma
    LN11_LDR.res
    created by SHELXL-2018/3 at 10:35:35 on 06-Aug-2019
CELL  0.71073  13.4165   7.9107   6.1283   90.000   90.000   90.000
ZERR    4.000   0.0019   0.0011   0.0008    0.000    0.000    0.000
LATT  1
SYMM 1/2-X, -Y, 1/2+Z
SYMM -X, 1/2+Y, -Z
SYMM 1/2+X, 1/2-Y, 1/2-Z
SFAC LI P S SI
UNIT 14.3341 2 16 2
TEMP 6.850
SIZE 0.01 0.10 0.16
L.S. 10
BOND
LIST 4

FMAP 2
PLAN 10
ACTA
OMIT -3 60
EXYZ P1 SI1
EADP P1 SI1
SIMU LI1A LI1B

WGHT    0.057900    0.727400
FVAR       0.17063   0.73028
P1    2    0.087486    0.250000    0.154899    10.25000    0.01836    0.01460 =
         0.01597    0.00000    0.00130    0.00000
SI1   4    0.087486    0.250000    0.154899    10.25000    0.01836    0.01460 =
         0.01597    0.00000    0.00130    0.00000
S1    3    0.154981    0.030788    0.273341    11.00000    0.02258    0.02125 =
         0.02657    0.00444   -0.00055    0.00342
S2    3   -0.060108    0.250000    0.268384    10.50000    0.01946    0.01809 =
         0.02278    0.00000    0.00155    0.00000
S3    3    0.095302    0.250000   -0.183675    10.50000    0.03362    0.02109 =
         0.01762    0.00000    0.00449    0.00000
LI1A  1    0.328922    0.026256    0.373966    21.00000    0.04004    0.04018 =
         0.06717    0.01533   -0.00588    0.00309
LI1B  1    0.329756    0.005228    0.185771   -21.00000    0.02912    0.03042 =
         0.03791    0.00172   -0.00769    0.00503
LI2   1    0.009857    0.031280    0.547280     0.38482    0.03317    0.06447 =
         0.03178    0.02228   -0.00385   -0.00693
LI3A  1   -0.087336    0.250000   -0.131576     0.17457    0.04426    0.05041 =
         0.02095    0.00000   -0.00848    0.00000
LI3B  1   -0.067929    0.250000   -0.282294     0.23237    0.17951    0.02833 =
         0.21311    0.00000   -0.11650    0.00000
HKLF 4




REM  LN11_0ma_a.res in Pnma
REM wR2 = 0.099548, GooF = S = 1.00527, Restrained GooF = 1.00246 for all data
REM R1 = 0.037350 for 817 Fo > 4sig(Fo) and 0.054263 for all 1010 data
REM 71 parameters refined using 6 restraints

END

WGHT      0.0475      0.4675

REM Highest difference peak  0.786,  deepest hole -0.431,  1-sigma level  0.116
Q1    1   0.1531  0.2500 -0.1716  10.50000  0.05    0.79
Q2    1   0.0265  0.2500  0.2228  10.50000  0.05    0.68
Q3    1   0.2302  0.0461  0.2695  11.00000  0.05    0.52
Q4    1  -0.0182  0.2500  0.1748  10.50000  0.05    0.51
Q5    1  -0.1082  0.2500  0.1999  10.50000  0.05    0.49
Q6    1   0.0901  0.0269  0.2836  11.00000  0.05    0.48
Q7    1   0.0787  0.2500 -0.0709  10.50000  0.05    0.47
Q8    1   0.0199  0.2500 -0.1531  10.50000  0.05    0.39
Q9    1   0.0825  0.2500  0.4160  10.50000  0.05    0.38
Q10   1   0.1187  0.0202  0.3561  11.00000  0.05    0.38
;
_shelx_res_checksum              88731
_shelx_hkl_file
;
   0   0  -2 1000.00   22.20
   0   0  -2  982.83   22.09
   0   0  -2  961.51   22.15
   0   0  -3    0.19    0.17
   0   0  -3    0.09    0.20
   0   0  -3    0.41    0.18
   0   0  -4   53.09    1.39
   0   0  -4   49.96    1.33
   0   0  -4   51.96    1.34
   0   0  -5    0.30    0.30
   0   0  -5   -0.21    0.28
   0   0  -5   -0.07    0.24
   0   0  -6    1.94    0.38
   0   0  -6    1.36    0.37
   0   0  -7    3.48    0.49
   0   0  -7    3.02    0.48
   0   0  -8    1.53    0.54
   0   1   0    0.04    0.07
   0  -1  -1  127.22    2.99
   0   1  -1  133.71    2.99
   0   1  -2    0.17    0.19
   0  -1  -2    0.04    0.19
   0   1  -2    0.11    0.17
   0   1  -2   -0.01    0.20
   0  -1   3   22.35    0.70
   0  -1  -3   22.94    0.65
   0   1  -3   22.79    0.69
   0  -1  -3   22.82    0.72
   0   1  -3   23.29    0.70
   0   1  -3   22.22    0.70
   0  -1  -4    0.13    0.26
   0  -1  -4    0.04    0.21
   0   1  -4   -0.31    0.24
   0   1  -4   -0.29    0.24
   0   1  -4   -0.23    0.24
   0  -1  -5    5.96    0.48
   0   1  -5    5.59    0.49
   0   1  -5    6.77    0.48
   0  -1  -5    5.59    0.57
   0   1  -5    6.04    0.57
   0   1  -6    0.78    0.35
   0   1  -6    0.86    0.35
   0  -1  -6    1.53    0.39
   0  -1  -6    1.45    0.35
   0   1  -6    0.62    0.38
   0  -1  -7   11.73    0.79
   0  -1  -7   11.30    0.72
   0   1  -7   10.18    0.80
   0   1  -8    1.50    0.58
   0   2   0   48.72    1.17
   0   2  -1   -0.06    0.22
   0  -2  -1   -0.11    0.18
   0  -2   1    0.17    0.19
   0  -2   2    4.48    0.42
   0   2  -2    4.66    0.39
   0   2  -2    5.00    0.33
   0  -2  -2    4.82    0.37
   0  -2   3   -0.03    0.22
   0   2  -3    0.39    0.25
   0   2  -3    0.79    0.21
   0  -2  -3    0.32    0.24
   0   2  -3    0.37    0.26
   0  -2  -3    0.27    0.16
   0   2  -4   36.93    1.05
   0  -2  -4   37.07    1.00
   0  -2   4   36.74    1.11
   0  -2  -4   37.17    1.13
   0   2  -4   36.57    1.12
   0   2  -4   38.60    1.09
   0   2  -5   -0.12    0.34
   0   2  -5   -0.34    0.29
   0  -2  -5    0.10    0.26
   0  -2  -5    0.79    0.35
   0   2  -5   -0.21    0.35
   0  -2  -6   42.66    1.36
   0   2  -6   42.41    1.36
   0   2  -6   42.34    1.35
   0  -2  -6   42.38    1.28
   0   2  -7   -0.54    0.52
   0   2  -7   -0.29    0.49
   0  -2  -7    0.37    0.42
   0   2  -8    4.88    0.71
   0  -3   0    0.21    0.22
   0   3   0    0.09    0.20
   0   3  -1    9.16    0.47
   0  -3  -1    7.70    0.45
   0  -3   1    8.73    0.51
   0  -3  -1    8.67    0.43
   0   3  -1    8.57    0.37
   0  -3  -2   -0.01    0.22
   0   3  -2    0.16    0.21
   0   3  -2    0.02    0.27
   0  -3   2   -0.01    0.23
   0   3  -3    7.19    0.55
   0  -3  -3    6.99    0.51
   0   3  -3    7.03    0.47
   0  -3   3    6.68    0.58
   0   3  -4   -0.23    0.34
   0   3  -4   -0.20    0.31
   0  -3   4    0.01    0.29
   0  -3  -4   -0.08    0.21
   0   3  -4    0.63    0.27
   0  -3  -4   -0.20    0.29
   0  -3  -5    1.35    0.39
   0   3  -5    0.25    0.41
   0   3  -5    0.42    0.40
   0  -3   5    0.49    0.48
   0   3  -6    0.12    0.46
   0   3  -6    0.57    0.49
   0  -3  -6    1.45    0.46
   0  -3  -7    4.08    0.59
   0   3  -7    3.35    0.62
   0   3  -7    3.51    0.64
   0   3  -8    0.21    0.62
   0   4   0  900.19   20.81
   0  -4   0  947.22   20.93
   0   4   0  930.87   20.85
   0  -4   1    0.13    0.26
   0   4  -1    0.47    0.20
   0   4  -1    0.51    0.30
   0   4  -2  358.57    7.94
   0   4  -2  347.26    7.86
   0  -4  -2  329.56    7.87
   0  -4   2  354.68    7.99
   0  -4  -2  335.18    7.93
   0  -4  -3   -0.02    0.30
   0   4  -3    0.40    0.39
   0  -4   3   -0.28    0.30
   0   4  -3    0.30    0.31
   0  -4   4   20.04    0.95
   0   4  -4   20.90    0.93
   0  -4  -4   18.54    0.87
   0   4  -4   19.19    0.83
   0  -4  -5   -0.53    0.38
   0  -4   5    0.35    0.42
   0   4  -5    0.81    0.44
   0   4  -5   -0.05    0.47
   0   4  -6   -0.13    0.52
   0  -4  -6    1.62    0.50
   0   4  -6    0.84    0.53
   0   4  -7    1.43    0.64
   0   4  -7    0.40    0.60
   0   4  -8    1.59    0.73
   0  -5   0   -0.20    0.30
   0   5   0    0.03    0.32
   0  -5   1  180.89    4.26
   0  -5  -1  172.64    4.19
   0   5  -1  171.89    4.06
   0   5  -1  175.97    4.10
   0   5  -1  178.93    4.17
   0  -5  -2   -0.61    0.30
   0  -5  -2   -0.46    0.32
   0   5  -2    0.26    0.28
   0   5  -2   -0.16    0.40
   0  -5   2   -0.20    0.33
   0   5  -3   61.48    1.76
   0  -5  -3   59.58    1.73
   0  -5   3   61.46    1.80
   0   5  -3   61.57    1.62
   0  -5   4   -0.11    0.41
   0   5  -4   -0.13    0.42
   0   5  -4    0.18    0.48
   0  -5  -4    0.67    0.41
   0  -5   5   15.99    1.12
   0   5  -5   17.28    0.93
   0  -5  -5   17.39    0.98
   0   5  -5   15.59    1.02
   0   5  -6    0.61    0.59
   0   5  -6    0.41    0.59
   0   5  -7   13.46    1.11
   0   6   0   96.51    2.44
   0  -6   0   99.13    2.58
   0  -6   1   -0.01    0.38
   0   6  -1    0.05    0.27
   0   6  -1   -0.25    0.42
   0  -6  -1   -0.02    0.37
   0   6  -1    0.34    0.31
   0  -6  -2   27.32    1.09
   0   6  -2   30.93    1.14
   0   6  -2   31.20    0.96
   0  -6   2   30.46    1.23
   0   6  -3    0.39    0.40
   0  -6   3   -0.52    0.43
   0  -6  -3    0.20    0.45
   0   6  -3    0.07    0.53
   0  -6   4    4.40    0.62
   0   6  -4    5.44    0.70
   0  -6  -4    4.37    0.61
   0   6  -4    5.25    0.59
   0  -6  -5    0.28    0.53
   0  -6   5    0.18    0.57
   0   6  -5   -0.32    0.62
   0   6  -5   -0.79    0.56
   0   6  -6   12.05    1.06
   0   6  -7   -0.38    0.73
   0   7   0   -0.65    0.50
   0  -7   0   -0.38    0.46
   0  -7  -1   17.13    1.09
   0   7  -1   17.29    0.95
   0  -7   1   17.54    1.13
   0  -7   2    0.24    0.49
   0   7  -2   -0.70    0.37
   0   7  -2   -0.05    0.55
   0  -7   3   14.81    1.20
   0   7  -3   16.08    0.85
   0   7  -3   15.79    1.08
   0  -7   4   -0.57    0.58
   0   7  -4   -1.02    0.64
   0  -7  -4   -0.36    0.55
   0   7  -4    0.41    0.54
   0   7  -5    5.16    0.75
   0   7  -5    4.66    0.86
   0  -7  -5    5.17    0.76
   0  -7   5    2.87    0.74
   0   7  -6   -0.29    0.74
   0  -7   6   -1.24    0.76
   0  -8   0  121.53    3.31
   0  -8   1    0.18    0.57
   0  -8  -1   -0.40    0.54
   0   8  -1   -0.43    0.57
   0   8  -2   46.26    1.64
   0  -8   2   46.23    1.81
   0   8  -3    0.07    0.69
   0  -8   3   -0.11    0.62
   0   8  -4    0.22    0.59
   0  -8   4   -0.04    0.69
   0   8  -4    0.55    0.78
   0  -8   5   -0.62    0.76
   0   8  -5    0.59    0.69
   0  -8   6   -0.44    0.86
   0  -9   0   -0.49    0.68
   0  -9   1   63.96    2.28
   0  -9  -1   60.45    2.22
   0   9  -2   -0.84    0.66
   0  -9   2   -0.72    0.69
   0  -9   3   26.99    1.72
   0   9  -3   23.23    1.40
   0  -9   4   -1.46    0.79
   0  -9   5    5.62    1.03
   0 -10   1   -2.15    0.80
   0 -10   2   34.63    2.02
   0 -10   3   -0.66    0.89
   0 -11   1   -1.15    1.01
   1   0   0   -0.01    0.03
  -1   0   0    0.03    0.04
   1   0  -1   18.08    0.49
  -1   0  -1   17.97    0.47
  -1   0  -1   18.34    0.47
  -1   0  -2   16.45    0.50
   1   0  -2   16.26    0.50
  -1   0  -2   17.04    0.51
   1   0  -2   17.78    0.56
  -1   0  -2   15.18    0.49
  -1   0  -3   31.89    0.87
   1   0  -3   32.03    0.85
  -1   0  -3   31.40    0.86
   1   0  -3   31.75    0.91
  -1   0  -3   30.84    0.84
  -1   0  -4   17.84    0.61
   1   0  -4   18.27    0.63
  -1   0  -4   18.72    0.67
   1   0  -4   17.57    0.62
  -1   0  -4   18.17    0.63
   1   0  -4   17.63    0.71
  -1   0  -5    2.97    0.36
   1   0  -5    2.81    0.40
  -1   0  -5    2.74    0.33
  -1   0  -5    2.97    0.38
   1   0  -5    2.95    0.34
   1   0  -5    2.93    0.36
  -1   0  -6   19.81    0.83
   1   0  -6   19.92    0.89
   1   0  -6   19.37    0.80
  -1   0  -6   20.13    0.85
  -1   0  -7   31.44    1.12
   1   0  -7   29.16    1.15
   1   0  -7   30.44    1.10
   1   0  -8    8.09    0.70
  -1   0  -8    8.72    0.74
  -1   1   0    0.06    0.10
  -1   1  -1   17.94    0.50
   1  -1  -1   17.03    0.51
   1   1  -1   17.69    0.47
  -1  -1  -1   16.27    0.50
  -1   1  -2    2.09    0.20
  -1   1  -2    2.54    0.25
   1  -1  -2    2.60    0.26
   1   1  -2    3.11    0.24
  -1  -1  -2    2.35    0.24
   1   1  -2    2.65    0.23
  -1  -1  -2    2.82    0.21
   1  -1  -3   33.92    0.96
  -1  -1   3   32.92    0.93
  -1   1  -3   33.02    0.93
  -1   1  -3   33.18    0.89
   1  -1  -3   33.33    0.87
  -1   1  -3   32.23    0.90
   1   1  -3   32.79    0.91
  -1  -1  -3   33.61    0.94
  -1  -1  -3   34.27    0.89
   1   1  -3   34.74    0.94
   1   1  -3   32.92    0.94
   1  -1   3   33.38    0.93
   1  -1  -4   14.82    0.54
  -1   1  -4   15.51    0.58
  -1   1  -4   14.50    0.60
   1  -1  -4   14.60    0.65
  -1   1  -4   14.30    0.59
  -1  -1  -4   14.33    0.63
  -1  -1  -4   15.43    0.57
   1   1  -4   14.06    0.61
   1   1  -4   14.76    0.64
   1   1  -4   14.36    0.60
  -1   1  -5    6.10    0.49
  -1   1  -5    6.30    0.47
   1  -1  -5    5.95    0.47
  -1   1  -5    5.69    0.51
   1  -1  -5    5.66    0.58
  -1  -1  -5    5.48    0.56
  -1  -1  -5    5.51    0.48
   1   1  -5    6.12    0.58
   1   1  -5    5.29    0.51
   1   1  -5    6.14    0.55
   1  -1  -6   25.02    0.90
  -1   1  -6   26.09    0.98
  -1   1  -6   27.35    0.95
   1  -1  -6   24.84    1.00
   1   1  -6   24.52    0.94
   1   1  -6   25.09    0.99
  -1  -1  -6   25.64    0.98
   1   1  -6   25.50    0.98
  -1  -1  -6   26.90    0.92
  -1   1  -7    0.74    0.48
   1  -1  -7    1.95    0.42
   1  -1  -7    3.22    0.50
  -1  -1  -7    0.63    0.42
   1   1  -7    1.96    0.48
  -1  -1  -7    0.42    0.42
  -1   1  -8    9.85    0.80
   1   1  -8   10.62    0.81
   1  -2   0    0.05    0.13
  -1   2   0    0.21    0.19
   1  -2  -1   57.69    1.42
  -1   2  -1   59.13    1.44
  -1  -2   1   58.84    1.47
  -1  -2  -1   55.50    1.43
   1   2  -1   58.50    1.40
   1  -2   1   60.15    1.47
   1   2  -1   58.67    1.43
   1   2  -1   57.74    1.40
   1  -2  -2   20.34    0.67
  -1   2  -2   21.48    0.69
  -1   2  -2   21.84    0.65
  -1  -2   2   21.88    0.72
  -1  -2  -2   20.00    0.67
   1   2  -2   21.27    0.62
   1   2  -2   22.10    0.70
   1  -2   2   20.92    0.71
   1   2  -2   21.10    0.63
  -1   2  -3   82.66    2.04
  -1  -2   3   83.60    2.09
   1  -2  -3   83.76    1.98
  -1   2  -3   85.50    2.09
   1  -2  -3   83.04    2.09
   1   2  -3   86.11    2.03
   1   2  -3   87.42    2.10
  -1  -2  -3   83.91    2.09
   1   2  -3   84.02    2.05
  -1  -2  -3   82.73    2.00
   1  -2   3   84.63    2.09
  -1   2  -4   10.12    0.57
   1  -2  -4    9.61    0.44
  -1   2  -4    9.04    0.55
   1  -2  -4   10.18    0.60
  -1   2  -4    9.37    0.47
  -1  -2   4   10.11    0.62
  -1  -2  -4    9.01    0.46
  -1  -2  -4    9.28    0.57
   1  -2   4    8.59    0.61
   1   2  -4   10.21    0.55
   1   2  -4    9.03    0.57
   1   2  -4    9.27    0.56
  -1   2  -5   18.05    0.79
   1  -2  -5   16.76    0.65
   1  -2  -5   16.85    0.80
  -1   2  -5   17.57    0.77
   1   2  -5   17.14    0.76
   1   2  -5   17.54    0.78
  -1  -2  -5   19.28    0.81
  -1  -2  -5   18.59    0.68
   1   2  -5   17.02    0.79
  -1   2  -6    3.75    0.51
  -1   2  -6    3.04    0.49
  -1  -2  -6    3.36    0.49
  -1  -2  -6    2.81    0.41
   1   2  -6    4.13    0.50
   1   2  -6    5.08    0.53
   1  -2  -7    1.44    0.46
  -1   2  -7    1.22    0.51
   1   2  -7    0.04    0.49
   1   2  -7    0.74    0.49
  -1  -2  -7    1.57    0.48
  -1   2  -8    4.34    0.72
   1   2  -8    3.89    0.67
   1  -3   0   -0.10    0.21
  -1   3   0   -0.05    0.23
  -1  -3   0   -0.03    0.21
  -1   3  -1   29.92    0.80
   1  -3  -1   30.88    0.86
   1  -3  -1   29.17    0.87
  -1  -3   1   30.89    0.93
  -1   3  -1   32.09    0.88
  -1  -3  -1   27.72    0.86
   1   3  -1   31.18    0.82
   1   3  -1   30.98    0.87
   1   3  -1   31.29    0.84
   1  -3   1   30.72    0.93
  -1  -3   2   -0.05    0.22
  -1   3  -2   -0.36    0.27
  -1   3  -2    0.05    0.21
   1  -3  -2    0.12    0.23
  -1  -3  -2   -0.07    0.22
   1  -3   2   -0.07    0.23
   1   3  -2    0.20    0.27
   1   3  -2    0.08    0.21
   1   3  -2    0.06    0.19
   1  -3  -3   72.57    1.87
  -1  -3   3   72.13    1.89
  -1   3  -3   75.52    1.89
  -1   3  -3   72.57    1.81
   1   3  -3   73.86    1.81
  -1  -3  -3   70.59    1.87
   1   3  -3   72.66    1.78
   1   3  -3   74.16    1.88
  -1  -3  -3   68.03    1.75
   1  -3   3   72.76    1.90
  -1   3  -4    1.38    0.40
  -1  -3   4    0.90    0.33
  -1   3  -4    1.07    0.36
   1  -3  -4    1.62    0.36
  -1  -3  -4    1.38    0.35
   1   3  -4    1.15    0.40
   1   3  -4    1.24    0.35
  -1  -3  -4    1.16    0.27
   1  -3   4    0.80    0.32
   1   3  -4    1.94    0.33
  -1  -3   5   25.14    1.12
  -1   3  -5   24.40    0.98
  -1   3  -5   24.23    1.00
   1  -3  -5   24.57    0.98
   1   3  -5   25.32    1.01
  -1  -3  -5   24.85    0.99
   1   3  -5   25.25    0.96
  -1   3  -6    9.98    0.82
   1  -3  -6    8.51    0.75
  -1   3  -6   11.39    0.82
   1   3  -6    7.65    0.81
   1   3  -6   10.17    0.71
  -1   3  -7    1.82    0.60
  -1   3  -7    2.74    0.61
   1  -3  -7    3.79    0.58
   1   3  -7    2.14    0.61
   1   3  -7    2.22    0.59
  -1  -3  -7    2.61    0.55
  -1   3  -8    4.21    0.76
   1   3  -8    2.37    0.68
  -1   4   0   -0.71    0.27
  -1  -4   0    0.56    0.25
   1  -4   0   -0.64    0.26
  -1   4  -1   12.08    0.46
  -1   4  -1   12.02    0.59
  -1  -4   1   12.04    0.63
   1  -4  -1   12.65    0.54
   1  -4  -1   11.77    0.58
   1  -4   1   12.22    0.63
  -1  -4  -1   11.35    0.58
   1   4  -1   12.73    0.59
   1   4  -1   11.87    0.46
   1   4  -1   12.55    0.54
  -1   4  -2    1.29    0.27
   1  -4  -2    1.69    0.31
  -1  -4   2    1.69    0.31
  -1   4  -2    1.40    0.37
  -1  -4  -2    1.33    0.25
   1   4  -2    1.84    0.27
   1  -4   2    1.15    0.31
   1   4  -2    1.51    0.24
   1   4  -2    2.48    0.38
  -1  -4  -2    1.73    0.32
  -1   4  -3   27.50    0.89
   1  -4  -3   25.04    0.94
  -1   4  -3   27.66    0.99
  -1  -4   3   27.17    1.02
   1   4  -3   27.17    0.87
  -1  -4  -3   27.04    0.97
   1   4  -3   27.30    0.99
   1  -4   3   26.99    1.03
   1  -4  -4    5.57    0.50
  -1   4  -4    6.08    0.58
  -1  -4   4    4.55    0.48
  -1   4  -4    5.49    0.49
   1   4  -4    5.63    0.56
  -1  -4  -4    5.74    0.51
   1  -4   4    4.35    0.47
   1   4  -4    5.63    0.49
  -1   4  -5    0.30    0.49
  -1   4  -5    0.92    0.46
   1  -4  -5    0.88    0.43
  -1  -4   5    0.33    0.42
   1   4  -5    0.15    0.48
   1  -4   5    0.10    0.43
  -1  -4  -5    0.83    0.43
   1   4  -5    0.15    0.43
   1  -4  -6    8.98    0.86
  -1   4  -6    8.64    0.77
  -1   4  -6    9.25    0.74
  -1  -4  -6    7.98    0.84
   1   4  -6    9.10    0.73
   1   4  -6    8.39    0.75
  -1   4  -7   12.65    1.07
  -1   4  -7   14.06    1.08
   1   4  -7   15.76    1.09
   1   4  -7   14.93    1.07
  -1   4  -8    3.04    0.76
   1   4  -8    2.13    0.75
   1  -5   0   -0.17    0.31
  -1  -5   0   -0.44    0.30
   1   5   0    0.41    0.25
  -1   5   0    0.12    0.33
  -1   5  -1    1.11    0.40
   1  -5  -1    0.82    0.31
   1  -5  -1    1.29    0.32
  -1  -5   1    1.41    0.35
  -1   5  -1    1.02    0.26
   1   5  -1    1.74    0.33
  -1  -5  -1    1.01    0.31
   1   5  -1    1.70    0.26
   1   5  -1    2.03    0.40
   1  -5   1    0.84    0.35
  -1   5  -2    1.25    0.42
  -1  -5   2    0.66    0.37
  -1   5  -2    1.62    0.31
   1  -5  -2    1.23    0.35
  -1  -5  -2    0.31    0.31
   1   5  -2    1.46    0.31
   1   5  -2    0.91    0.43
   1  -5   2    0.80    0.36
  -1   5  -3    4.46    0.45
  -1  -5   3    3.46    0.48
   1  -5  -3    4.39    0.48
  -1   5  -3    4.88    0.57
   1   5  -3    4.72    0.58
  -1  -5  -3    3.16    0.46
   1  -5   3    4.30    0.49
   1   5  -3    4.69    0.44
  -1   5  -4   21.49    1.04
  -1   5  -4   23.79    0.94
  -1  -5   4   21.73    1.12
   1  -5  -4   21.76    0.99
   1  -5   4   21.71    1.12
   1   5  -4   22.07    1.06
   1   5  -4   22.25    0.92
  -1  -5  -4   21.40    1.01
  -1   5  -5   -0.59    0.53
   1  -5  -5    1.68    0.50
  -1   5  -5    0.50    0.51
  -1  -5   5    0.25    0.49
   1  -5   5   -0.41    0.50
   1   5  -5    0.66    0.49
  -1  -5  -5    0.23    0.47
   1   5  -5   -0.38    0.53
   1  -5  -6   28.54    1.27
  -1   5  -6   26.87    1.33
  -1   5  -6   29.86    1.28
   1   5  -6   28.75    1.24
   1   5  -6   27.46    1.32
  -1  -5  -6   31.78    1.30
  -1   5  -7    5.39    0.79
   1   5  -7    6.02    0.81
  -1   6   0    0.12    0.42
  -1  -6   0   -0.52    0.38
   1  -6   0   -0.37    0.38
  -1  -6   1   13.69    0.92
   1  -6  -1   12.25    0.82
  -1   6  -1   11.84    0.80
  -1   6  -1   12.18    0.56
   1   6  -1   12.67    0.64
  -1  -6  -1   10.81    0.80
   1  -6   1   13.60    0.92
   1   6  -1   12.36    0.78
   1   6  -1   11.62    0.56
   1  -6  -2    1.79    0.44
  -1   6  -2    1.97    0.52
  -1  -6   2    0.98    0.45
  -1   6  -2    1.89    0.37
   1   6  -2    2.89    0.38
   1  -6   2    1.55    0.46
   1   6  -2    2.13    0.52
  -1  -6  -2    1.63    0.42
  -1   6  -3   29.74    1.03
   1  -6  -3   27.74    1.14
  -1  -6   3   28.70    1.31
  -1   6  -3   28.99    1.21
   1   6  -3   28.54    1.00
   1   6  -3   28.24    1.19
   1  -6   3   29.43    1.27
   1  -6  -4    0.65    0.51
  -1  -6   4    0.29    0.49
  -1   6  -4    0.61    0.59
  -1   6  -4    0.56    0.49
   1   6  -4    0.64    0.48
   1   6  -4    0.72    0.59
   1  -6   4    0.04    0.49
  -1  -6  -4    0.15    0.51
  -1  -6   5    2.23    0.62
  -1   6  -5    2.89    0.64
   1  -6  -5    3.41    0.63
  -1   6  -5    3.03    0.71
   1  -6   5    1.89    0.63
   1   6  -5    4.14    0.65
  -1  -6  -5    4.39    0.66
   1   6  -5    3.10    0.70
  -1   6  -6   -1.20    0.66
   1   6  -6   -0.06    0.65
  -1   6  -7    2.19    0.81
   1   6  -7    3.26    0.82
  -1  -7   0   -0.30    0.44
   1  -7   0   -0.03    0.48
  -1   7   0   -0.12    0.47
   1  -7  -1   10.73    1.00
  -1  -7   1   10.79    1.02
  -1   7  -1   10.38    0.87
   1   7  -1   10.43    0.83
  -1  -7  -1   10.50    0.96
   1  -7   1   12.55    1.06
  -1   7  -2   -0.68    0.54
  -1  -7   2    0.52    0.49
   1   7  -2   -0.18    0.53
   1  -7   2    0.74    0.51
   1   7  -2    0.70    0.37
  -1  -7   3   40.05    1.63
  -1   7  -3   39.37    1.53
  -1   7  -3   40.09    1.30
   1  -7  -3   42.39    1.48
   1  -7   3   41.09    1.64
   1   7  -3   39.77    1.50
   1   7  -3   41.89    1.32
  -1  -7   4    0.12    0.60
  -1   7  -4    0.00    0.54
  -1   7  -4    0.40    0.67
   1  -7  -4    0.49    0.58
   1  -7   4   -0.01    0.60
   1   7  -4   -0.58    0.65
   1   7  -4    0.65    0.54
   1  -7  -5   19.21    1.22
  -1   7  -5   20.35    1.13
  -1   7  -5   17.44    1.28
  -1  -7   5   16.42    1.39
   1   7  -5   15.89    1.21
  -1  -7  -5   19.23    1.24
   1  -7   5   16.20    1.44
   1   7  -5   19.60    1.12
  -1  -7   6    1.06    0.77
  -1   7  -6    1.74    0.78
   1   7  -6    3.22    0.81
   1  -7   6    0.00    0.81
   1  -8   0   -0.14    0.57
  -1  -8   0    0.82    0.57
   1  -8  -1    3.48    0.65
  -1  -8   1    4.06    0.67
  -1   8  -1    5.74    0.72
   1  -8   1    4.55    0.69
   1   8  -1    5.15    0.99
  -1  -8  -1    4.82    0.66
  -1  -8   2    0.50    0.60
  -1   8  -2    0.40    0.61
   1  -8   2    0.01    0.59
   1   8  -2   -0.02    0.61
  -1   8  -3   14.67    1.17
  -1  -8   3   16.12    1.37
   1   8  -3   14.57    1.13
   1  -8   3   14.53    1.35
   1   8  -3   16.62    0.91
  -1   8  -4    0.26    0.59
  -1  -8   4    0.11    0.68
  -1   8  -4   -1.26    0.77
   1   8  -4   -0.21    0.73
   1   8  -4    0.57    0.59
   1  -8   4   -0.69    0.69
  -1  -8   5   -0.23    0.74
  -1   8  -5    0.70    0.74
   1  -8   5   -0.13    0.78
   1   8  -5    0.57    0.70
  -1  -8   6   -1.62    0.81
   1  -8   6   -2.55    0.83
  -1  -9   0   -0.33    0.67
   1  -9   0    0.01    0.68
  -1  -9   1    0.01    0.69
   1  -9  -1   -0.39    0.68
  -1  -9  -1   -0.51    0.64
   1  -9   1    0.83    0.73
  -1  -9   2   -0.14    0.72
  -1   9  -2   -0.35    0.72
   1   9  -2   -1.25    1.20
   1  -9   2   -0.38    0.71
  -1   9  -3    0.99    0.79
  -1  -9   3    1.00    0.79
   1  -9   3    0.94    0.82
   1   9  -3    0.46    0.79
  -1  -9   4    5.10    0.94
   1  -9   4    4.16    0.96
  -1  -9   5   -1.50    0.83
   1  -9   5   -1.61    0.86
   1   9  -5   -0.25    0.75
  -1 -10   0   -1.15    0.78
   1 -10   0   -1.50    0.83
  -1 -10   1    0.88    0.87
   1 -10   1   -0.29    0.89
  -1 -10   2   -1.19    0.84
   1 -10   2   -2.02    0.86
  -1 -10   3    3.38    1.00
   1 -10   3    3.65    1.03
  -1 -11   0   -2.67    0.92
  -1 -11   1   -1.33    0.96
   1 -11   1   -0.91    1.04
   2   0   0   60.46    1.48
  -2   0   0   68.22    1.51
  -2   0  -1   62.15    1.44
  -2   0   1   61.90    1.47
   2   0  -1   59.94    1.46
  -2   0  -2    5.66    0.31
   2   0  -2    5.35    0.31
  -2   0  -2    6.02    0.33
   2   0  -2    5.55    0.39
  -2   0  -2    5.40    0.31
  -2   0  -3   13.58    0.49
   2   0  -3   13.47    0.57
  -2   0  -3   14.21    0.51
   2   0  -3   13.49    0.49
   2   0  -4    0.94    0.26
  -2   0  -4    0.62    0.23
  -2   0  -4    0.89    0.26
  -2   0  -4    0.83    0.26
   2   0  -4    0.46    0.30
   2   0  -5    2.40    0.35
   2   0  -5    2.48    0.41
  -2   0  -5    2.23    0.35
   2   0  -5    2.34    0.35
  -2   0  -5    2.60    0.35
  -2   0  -6    3.63    0.46
   2   0  -6    5.14    0.53
   2   0  -6    4.40    0.45
  -2   0  -6    3.89    0.44
   2   0  -7    8.48    0.72
   2   0  -7    9.70    0.76
  -2   0  -7    5.66    0.59
   2   0  -8    1.06    0.53
  -2   0  -8    0.55    0.55
  -2   1   0  176.47    3.81
  -2  -1   0  166.61    3.79
   2   1   0  156.55    3.80
  -2   1  -1   22.88    0.63
   2  -1  -1   20.52    0.62
   2   1  -1   22.19    0.61
  -2   1   1   22.07    0.63
   2  -1  -2   17.64    0.60
  -2   1  -2   17.12    0.57
  -2  -1   2   18.21    0.62
  -2   1  -2   17.20    0.54
   2   1  -2   17.27    0.57
  -2  -1  -2   17.63    0.53
   2   1  -2   16.64    0.54
  -2  -1  -2   16.04    0.55
  -2  -1   3    4.60    0.41
   2  -1  -3    4.54    0.44
   2  -1  -3    4.59    0.30
  -2   1  -3    5.04    0.36
  -2   1  -3    5.60    0.38
  -2   1  -3    4.84    0.31
   2   1  -3    4.52    0.37
   2   1  -3    4.98    0.42
  -2  -1  -3    4.67    0.37
  -2  -1  -3    4.86    0.34
  -2   1  -4   22.22    0.72
  -2   1  -4   23.10    0.76
   2  -1  -4   22.43    0.70
   2  -1  -4   22.75    0.82
  -2   1  -4   21.91    0.76
   2   1  -4   22.02    0.75
  -2  -1  -4   23.51    0.74
  -2  -1  -4   23.21    0.79
   2   1  -4   22.75    0.81
  -2   1  -5    1.01    0.32
  -2   1  -5    0.71    0.35
   2  -1  -5    1.17    0.39
   2  -1  -5    0.46    0.28
  -2   1  -5    0.56    0.28
  -2  -1  -5    1.18    0.32
   2   1  -5    0.85    0.34
   2   1  -5    0.84    0.34
  -2  -1  -5    1.26    0.34
   2   1  -5    0.70    0.35
   2  -1  -6   39.90    1.32
   2  -1  -6   39.96    1.18
  -2   1  -6   39.19    1.26
  -2   1  -6   39.00    1.27
   2   1  -6   42.06    1.26
   2   1  -6   39.59    1.26
  -2  -1  -6   38.81    1.22
   2   1  -6   40.64    1.30
  -2  -1  -6   40.19    1.30
  -2   1  -7    2.03    0.52
   2  -1  -7    2.16    0.48
  -2  -1  -7    2.68    0.49
  -2  -1  -7    2.06    0.47
   2   1  -7    1.95    0.52
   2   1  -7    1.74    0.49
  -2   1  -8    6.47    0.73
  -2  -1  -8    7.08    0.70
   2   1  -8    7.89    0.72
  -2   2   0  428.31    9.68
   2  -2  -1  366.40    8.50
  -2  -2   1  372.68    8.55
  -2   2  -1  385.72    8.52
   2  -2   1  380.37    8.54
   2   2  -1  372.68    8.50
  -2   2  -2  172.16    3.92
  -2  -2   2  171.96    3.94
   2  -2  -2  166.02    3.91
  -2   2  -2  160.26    3.86
  -2  -2  -2  162.53    3.91
   2  -2   2  173.16    3.93
   2   2  -2  171.61    3.88
   2   2  -2  167.71    3.87
  -2  -2  -2  165.20    3.85
  -2  -2   3  230.23    5.22
  -2   2  -3  223.21    5.21
  -2   2  -3  219.42    5.16
   2  -2  -3  223.68    5.22
   2  -2  -3  216.00    5.09
  -2  -2  -3  223.14    5.21
   2   2  -3  230.38    5.17
   2   2  -3  225.91    5.17
   2  -2   3  229.78    5.21
  -2  -2  -3  218.87    5.14
   2  -2  -4   10.08    0.61
  -2  -2   4    8.55    0.60
   2  -2  -4    9.39    0.42
  -2   2  -4    8.46    0.58
  -2   2  -4    9.11    0.57
   2   2  -4    9.66    0.61
   2   2  -4    9.57    0.57
  -2  -2  -4    9.83    0.49
  -2  -2  -4    9.11    0.57
   2   2  -4   10.47    0.59
  -2   2  -5   72.09    1.90
   2  -2  -5   71.63    1.79
  -2   2  -5   70.17    1.92
   2  -2  -5   71.31    1.95
   2   2  -5   71.19    1.94
  -2  -2  -5   74.06    1.95
  -2  -2  -5   72.27    1.85
   2   2  -5   72.46    1.90
   2   2  -5   70.75    1.90
  -2   2  -6    0.17    0.43
  -2   2  -6    0.43    0.43
   2  -2  -6    0.81    0.42
   2   2  -6    0.10    0.42
  -2  -2  -6    0.47    0.36
  -2  -2  -6    0.33    0.40
   2   2  -6    0.34    0.40
   2   2  -6    0.10    0.40
  -2   2  -7    4.46    0.61
   2  -2  -7    3.68    0.55
  -2  -2  -7    4.00    0.54
   2   2  -7    4.28    0.62
   2   2  -7    2.98    0.57
  -2   2  -8    0.98    0.62
   2   2  -8    0.50    0.58
  -2  -3   0   -0.11    0.21
   2  -3   0    0.25    0.22
  -2   3   0   -0.07    0.24
  -2   3  -1   68.40    1.67
  -2   3  -1   73.34    1.77
   2  -3  -1   71.34    1.73
  -2  -3   1   69.97    1.80
  -2  -3  -1   70.46    1.68
  -2  -3  -1   66.78    1.75
   2   3  -1   72.59    1.73
   2  -3   1   72.62    1.80
  -2   3  -2   22.83    0.76
  -2   3  -2   21.78    0.67
   2  -3  -2   21.90    0.74
  -2  -3   2   22.49    0.81
   2   3  -2   22.92    0.77
   2   3  -2   21.60    0.69
   2  -3   2   21.61    0.80
  -2  -3  -2   21.01    0.74
  -2  -3  -2   20.88    0.66
   2   3  -2   22.40    0.69
  -2   3  -3   14.11    0.67
  -2  -3   3   13.92    0.72
   2  -3  -3   13.64    0.64
  -2   3  -3   13.27    0.58
   2   3  -3   13.48    0.58
   2  -3   3   13.71    0.71
  -2  -3  -3   13.08    0.63
  -2  -3  -3   12.70    0.52
   2   3  -3   14.40    0.68
   2   3  -3   13.71    0.59
  -2   3  -4   90.47    2.26
   2  -3  -4   87.69    2.31
  -2   3  -4   88.54    2.31
  -2  -3   4   89.26    2.32
   2   3  -4   90.43    2.25
   2   3  -4   90.56    2.32
  -2  -3  -4   90.27    2.31
   2   3  -4   89.77    2.22
  -2  -3  -4   86.65    2.19
   2  -3   4   91.24    2.33
  -2  -3   5    4.64    0.51
  -2   3  -5    5.21    0.51
  -2   3  -5    5.21    0.55
   2  -3  -5    8.40    0.69
   2   3  -5    5.51    0.49
   2   3  -5    5.30    0.56
  -2  -3  -5    5.70    0.52
  -2  -3  -5    7.64    0.68
   2   3  -5    5.96    0.53
   2  -3  -6   60.19    1.82
  -2   3  -6   59.57    1.83
  -2   3  -6   60.83    1.76
   2   3  -6   58.96    1.81
  -2  -3  -6   61.69    1.82
   2   3  -6   60.38    1.76
  -2   3  -7    3.33    0.64
   2  -3  -7    4.26    0.60
  -2   3  -7    3.43    0.70
  -2  -3  -7    3.43    0.58
   2   3  -7    3.42    0.63
   2   3  -7    3.26    0.65
  -2   3  -8    9.23    0.89
   2   3  -8    9.55    0.86
  -2  -4   0   38.67    1.16
  -2   4   0   38.78    1.09
   2  -4   0   38.49    1.15
   2  -4  -1    4.92    0.43
  -2  -4   1    5.36    0.55
  -2   4  -1    3.85    0.34
  -2   4  -1    5.28    0.51
  -2  -4  -1    4.56    0.36
   2   4  -1    4.56    0.41
   2  -4   1    4.81    0.53
   2   4  -1    5.18    0.47
   2   4  -1    4.56    0.48
  -2  -4  -1    4.51    0.32
   2  -4  -2    9.36    0.55
  -2   4  -2    9.18    0.62
  -2   4  -2    9.00    0.47
  -2  -4   2    9.77    0.67
   2   4  -2    8.72    0.49
  -2  -4  -2    8.57    0.52
   2   4  -2    9.45    0.48
   2  -4   2    8.96    0.66
   2   4  -2    8.52    0.61
  -2  -4  -2    8.95    0.42
  -2  -4   3    0.32    0.32
   2  -4  -3    0.36    0.31
  -2   4  -3   -0.02    0.38
  -2   4  -3    0.31    0.32
   2  -4   3    0.36    0.32
   2   4  -3    0.38    0.38
   2   4  -3    0.21    0.31
  -2  -4  -3    0.67    0.25
  -2  -4  -3   -0.06    0.31
   2   4  -3    0.32    0.28
  -2   4  -4    0.04    0.44
  -2  -4   4   -0.34    0.34
  -2   4  -4    0.05    0.40
   2  -4  -4    0.23    0.35
   2  -4   4    0.17    0.37
   2   4  -4   -0.13    0.31
  -2  -4  -4    0.45    0.38
   2   4  -4   -0.14    0.36
   2   4  -4    0.00    0.43
  -2  -4   5   -0.08    0.42
   2  -4  -5    0.52    0.42
  -2   4  -5   -1.03    0.45
  -2   4  -5   -0.29    0.44
   2   4  -5    0.00    0.44
  -2  -4  -5    0.14    0.41
   2  -4   5   -0.53    0.44
   2   4  -5   -0.16    0.47
  -2   4  -6    1.92    0.57
  -2   4  -6    1.34    0.59
   2  -4  -6    2.67    0.53
   2   4  -6    1.99    0.59
   2   4  -6    2.38    0.55
  -2  -4  -6    2.18    0.52
  -2   4  -7    1.92    0.69
  -2   4  -7    4.04    0.72
   2   4  -7    3.01    0.84
   2   4  -7    3.17    0.69
   2  -5   0  158.44    3.82
  -2  -5   0  156.23    3.82
  -2   5   0  157.96    3.74
  -2   5  -1    0.05    0.37
   2  -5  -1   -0.15    0.29
  -2   5  -1   -0.12    0.24
  -2  -5   1    0.35    0.32
   2  -5  -1    0.38    0.31
  -2  -5  -1   -0.11    0.28
   2   5  -1   -0.42    0.28
   2  -5   1    0.47    0.34
   2   5  -1    0.26    0.32
   2   5  -1    0.20    0.37
  -2   5  -2   59.15    1.55
  -2  -5   2   60.17    1.75
   2  -5  -2   59.95    1.65
  -2   5  -2   60.62    1.70
  -2  -5  -2   59.24    1.64
   2   5  -2   59.49    1.55
   2   5  -2   60.83    1.68
   2   5  -2   59.66    1.57
   2  -5   2   62.70    1.77
  -2  -5   3    0.09    0.37
  -2   5  -3    0.20    0.47
   2  -5  -3   -0.47    0.35
  -2   5  -3    0.11    0.37
   2  -5   3   -0.15    0.39
   2   5  -3    0.37    0.32
   2   5  -3    0.22    0.46
  -2  -5  -3    0.36    0.37
   2   5  -3    0.61    0.35
   2  -5  -4    0.73    0.42
  -2   5  -4    0.33    0.44
  -2   5  -4   -0.19    0.49
  -2  -5   4   -0.22    0.43
   2   5  -4    0.02    0.40
  -2  -5  -4    0.56    0.44
   2   5  -4    0.51    0.50
   2  -5   4   -0.24    0.44
  -2   5  -5   -0.28    0.52
  -2  -5   5   -0.49    0.48
   2  -5  -5   -0.13    0.46
  -2   5  -5    0.30    0.58
   2  -5   5   -0.75    0.50
   2   5  -5    0.23    0.49
  -2  -5  -5    1.09    0.52
   2   5  -5   -0.63    0.53
  -2   5  -6   11.14    1.08
   2  -5  -6   16.80    1.02
  -2   5  -6   13.61    1.03
  -2  -5  -6   14.18    1.06
   2   5  -6   11.57    1.04
   2   5  -6   13.32    1.01
  -2   5  -7    0.42    0.70
   2   5  -7    0.81    0.68
   2  -6   0   77.40    2.14
  -2  -6   0   76.98    2.13
  -2   6   0   75.86    2.02
  -2  -6   1   34.01    1.28
  -2   6  -1   33.17    1.18
   2  -6  -1   34.51    1.25
   2   6  -1   34.56    1.15
   2  -6   1   35.25    1.31
   2   6  -1   32.34    1.08
  -2  -6  -1   32.10    1.21
   2   6  -1   34.00    1.00
  -2   6  -2   39.14    1.32
  -2   6  -2   37.20    1.10
   2  -6  -2   37.27    1.24
  -2  -6   2   37.00    1.38
   2   6  -2   38.53    1.29
   2   6  -2   35.94    1.13
  -2  -6  -2   34.49    1.24
   2  -6   2   37.72    1.41
   2   6  -2   35.74    1.11
  -2   6  -3   47.89    1.39
  -2   6  -3   47.26    1.58
  -2  -6   3   48.53    1.68
   2  -6  -3   44.11    1.49
   2   6  -3   47.18    1.56
   2   6  -3   47.48    1.38
   2  -6   3   48.96    1.67
   2  -6  -4    2.75    0.54
  -2  -6   4    1.37    0.56
  -2   6  -4    3.31    0.56
  -2   6  -4    3.33    0.69
   2   6  -4    2.68    0.53
   2  -6   4    2.10    0.58
   2   6  -4    2.64    0.63
  -2  -6   5   21.22    1.30
   2  -6  -5   24.01    1.17
  -2   6  -5   21.00    1.24
  -2   6  -5   21.20    1.11
  -2  -6  -5   23.82    1.21
   2   6  -5   23.33    1.13
   2  -6   5   19.09    1.36
   2   6  -5   21.17    1.19
  -2  -6   6   -0.54    0.85
  -2   6  -6   -0.98    0.65
   2   6  -6    0.10    0.66
  -2   6  -7   -0.41    0.76
   2   6  -7    0.98    0.76
   2  -7   0    4.88    0.60
  -2  -7   0    4.75    0.60
  -2   7   0    4.40    0.60
  -2   7  -1   33.20    1.28
  -2  -7   1   35.60    1.46
   2   7  -1   34.39    1.14
  -2  -7  -1   33.21    1.34
   2  -7   1   34.98    1.44
   2   7  -1   31.41    1.22
   2   7  -1   35.15    1.31
  -2  -7   2   26.71    1.35
  -2   7  -2   25.20    1.20
   2   7  -2   27.23    1.16
   2   7  -2   27.56    0.98
   2  -7   2   29.03    1.34
   2  -7  -3   13.76    0.98
  -2   7  -3   11.17    0.79
  -2   7  -3   10.29    1.03
  -2  -7   3   11.76    1.20
   2   7  -3    9.13    0.97
   2  -7   3   10.55    1.17
   2   7  -3   10.41    0.77
   2  -7  -4   68.00    2.10
  -2  -7   4   70.93    2.28
  -2   7  -4   69.10    1.96
  -2   7  -4   64.32    2.16
   2   7  -4   67.27    2.13
   2  -7   4   68.67    2.27
   2   7  -4   70.37    1.97
   2  -7  -5    7.23    0.76
  -2   7  -5    5.05    0.76
  -2  -7   5    4.17    0.76
  -2   7  -5    4.93    0.90
   2   7  -5    3.96    0.84
   2  -7   5    3.07    0.79
   2   7  -5    5.91    0.77
  -2  -7   6   36.19    1.80
  -2   7  -6   34.18    1.53
   2   7  -6   37.29    1.52
  -2  -8   0   28.58    1.40
   2   8   0   22.76    1.30
   2  -8   0   26.32    1.43
  -2  -8   1    4.48    0.68
  -2   8  -1    5.53    0.72
   2  -8   1    4.65    0.69
  -2  -8  -1    4.45    0.64
  -2   8  -2   10.83    1.05
  -2  -8   2   13.00    1.26
   2   8  -2   11.78    0.97
   2  -8   2   11.11    1.24
  -2  -8   3    7.17    0.82
  -2   8  -3    8.55    0.93
   2   8  -3    9.30    0.83
   2  -8   3    6.42    0.82
   2   8  -3    8.20    0.85
   2  -8  -4    0.33    0.61
  -2  -8   4    0.52    0.70
  -2   8  -4   -0.20    1.25
  -2   8  -4   -1.09    0.75
   2   8  -4   -0.44    0.72
   2  -8   4   -0.26    0.72
   2   8  -4    1.04    0.62
  -2  -8   5    1.43    0.79
  -2   8  -5    2.07    0.75
   2  -8   5    0.11    0.81
   2   8  -5    3.97    0.78
   2  -9   0   54.97    2.16
  -2  -9   0   57.58    2.11
  -2  -9   1   -0.29    0.69
  -2  -9  -1   -0.76    0.63
   2  -9   1   -1.05    0.70
  -2  -9   2   23.97    1.61
  -2   9  -2   22.52    1.32
   2  -9   2   22.52    1.64
  -2   9  -3   -0.60    0.78
  -2  -9   3   -1.09    0.75
   2   9  -3   -1.23    0.71
   2  -9   3   -1.12    0.76
  -2  -9   4   -1.11    0.80
   2  -9   4   -2.02    0.81
  -2  -9   5   -0.82    0.83
  -2 -10   0    8.07    1.01
  -2 -10   1   -0.61    0.83
  -2 -10   2    2.56    0.93
   2 -10   2    2.08    0.99
  -2 -10   3    1.18    0.93
   2 -10   3    0.52    0.97
  -2 -11   0   -1.34    0.94
  -2 -11   1    3.53    1.05
  -3   0   0   -0.29    0.19
   3   0   0    0.03    0.15
   3   0  -1    2.04    0.22
  -3   0   1    1.68    0.24
  -3   0  -1    1.89    0.23
  -3   0  -1    1.97    0.28
  -3   0   2    3.69    0.31
   3   0  -2    3.49    0.29
  -3   0  -2    2.64    0.27
  -3   0  -2    3.10    0.25
   3   0  -2    3.90    0.25
  -3   0  -2    3.18    0.29
  -3   0  -3    3.93    0.36
   3   0  -3    4.29    0.35
   3   0  -3    3.64    0.34
  -3   0  -3    4.09    0.32
  -3   0  -4    0.45    0.23
   3   0  -4    0.93    0.34
   3   0  -4    0.55    0.26
  -3   0  -4    0.42    0.27
  -3   0  -4    0.76    0.26
  -3   0  -5   11.90    0.63
   3   0  -5   11.69    0.74
  -3   0  -5   11.91    0.64
   3   0  -5   12.48    0.62
  -3   0  -6    7.50    0.57
   3   0  -6    6.89    0.60
   3   0  -6    6.63    0.58
   3   0  -6    7.79    0.54
   3   0  -7    9.01    0.83
  -3   0  -7    9.29    0.79
   3   0  -7    8.76    0.73
  -3   0  -8    0.75    0.58
  -3  -1   0   -0.10    0.18
  -3   1   0    0.16    0.24
   3  -1   0    0.55    0.14
   3   1   0    0.25    0.20
  -3   1  -1   66.28    1.59
  -3   1  -1   61.44    1.54
   3  -1  -1   60.10    1.56
  -3  -1   1   65.36    1.62
  -3  -1   1   67.02    1.60
  -3  -1  -1   66.65    1.56
  -3   1   1   66.98    1.59
   3   1  -1   64.59    1.57
  -3   1  -2    1.29    0.23
  -3  -1   2    0.75    0.22
  -3   1  -2    0.96    0.20
   3  -1  -2    0.89    0.24
  -3  -1  -2    1.01    0.21
   3   1  -2    1.26    0.23
   3   1  -2    1.08    0.23
  -3  -1  -2    1.51    0.23
  -3   1   2    0.96    0.24
  -3   1  -3  137.18    3.24
  -3  -1   3  139.09    3.26
  -3   1  -3  139.41    3.26
   3  -1  -3  140.35    3.29
   3  -1  -3  131.88    3.18
   3   1  -3  140.92    3.26
   3   1  -3  139.26    3.23
  -3  -1  -3  136.22    3.23
  -3  -1  -3  136.75    3.26
  -3   1  -4    0.66    0.29
  -3   1  -4    1.30    0.31
  -3  -1   4    0.92    0.26
  -3   1  -4    0.93    0.22
   3  -1  -4    1.15    0.24
   3  -1  -4    1.49    0.35
   3   1  -4    1.08    0.34
  -3  -1  -4    1.08    0.28
   3   1  -4    1.58    0.31
  -3  -1  -4    0.79    0.27
  -3   1  -5   30.59    1.13
  -3   1  -5   31.28    1.04
   3  -1  -5   31.39    1.10
   3  -1  -5   31.27    0.95
  -3   1  -5   31.50    1.04
  -3  -1  -5   32.37    1.06
  -3  -1  -5   31.70    1.01
   3   1  -5   31.36    1.10
   3   1  -5   32.68    1.02
  -3   1  -6    1.48    0.43
   3  -1  -6    1.26    0.34
   3   1  -6    0.99    0.40
   3   1  -6    0.80    0.40
  -3  -1  -6    1.09    0.39
   3   1  -6    0.88    0.42
  -3   1  -7    0.44    0.49
   3  -1  -7    0.54    0.45
   3   1  -7    0.29    0.47
   3   1  -7    0.63    0.46
  -3  -1  -7   -0.09    0.45
  -3   1  -8    0.42    0.59
   3   1  -8   -0.04    0.54
  -3  -1  -8    0.27    0.55
  -3  -2   0   -0.08    0.23
  -3   2   0    0.20    0.27
  -3  -2   0   -0.13    0.20
   3   2   0    0.41    0.29
  -3   2  -1    3.60    0.30
  -3  -2   1    3.32    0.32
  -3   2  -1    4.36    0.41
   3  -2  -1    3.92    0.29
   3   2  -1    3.85    0.38
  -3  -2  -1    4.26    0.29
  -3   2   1    4.54    0.34
  -3  -2   2    9.60    0.55
  -3   2  -2   10.15    0.50
  -3   2  -2   10.11    0.44
   3  -2  -2    9.24    0.51
   3   2  -2    9.25    0.47
   3   2  -2    9.66    0.46
  -3  -2  -2    9.39    0.44
   3  -2  -3   41.06    1.18
   3  -2  -3   37.41    1.02
  -3  -2   3   43.64    1.20
  -3   2  -3   39.88    1.12
  -3   2  -3   41.59    1.18
   3   2  -3   43.31    1.15
  -3  -2  -3   40.43    1.16
   3   2  -3   43.49    1.13
  -3  -2  -3   40.90    1.11
  -3  -2   4    1.85    0.33
  -3   2  -4    2.25    0.37
   3  -2  -4    2.29    0.25
  -3   2  -4    2.08    0.36
   3  -2  -4    2.50    0.39
  -3  -2  -4    1.77    0.34
  -3  -2  -4    2.24    0.33
   3   2  -4    2.07    0.35
   3   2  -4    2.11    0.37
  -3   2  -5   38.83    1.22
   3  -2  -5   39.20    1.27
  -3   2  -5   39.29    1.25
   3   2  -5   37.44    1.22
   3   2  -5   37.64    1.24
  -3  -2  -5   38.41    1.24
   3   2  -5   39.35    1.20
  -3  -2  -5   37.07    1.15
  -3   2  -6    0.62    0.45
  -3   2  -6    0.42    0.47
   3  -2  -6    1.21    0.46
   3   2  -6    1.13    0.44
   3   2  -6    0.45    0.43
   3   2  -6    1.15    0.45
  -3  -2  -6    1.64    0.44
  -3   2  -7   13.95    0.95
   3  -2  -7   15.32    0.96
  -3  -2  -7   15.62    0.95
   3   2  -7   14.11    0.92
   3   2  -7   13.89    0.92
  -3  -2  -7   14.58    0.86
  -3   2  -8   -0.13    0.62
   3   2  -8   -1.23    0.56
  -3   3   0    0.29    0.28
  -3  -3   0    0.06    0.24
  -3   3  -1   47.14    1.24
   3  -3  -1   44.73    1.19
  -3   3  -1   44.02    1.14
  -3  -3   1   46.39    1.30
  -3  -3  -1   44.52    1.25
  -3  -3  -1   45.09    1.16
   3   3  -1   47.17    1.22
  -3   3   1   47.74    1.23
   3  -3  -2    2.76    0.32
  -3  -3   2    2.03    0.31
  -3   3  -2    2.94    0.28
  -3   3  -2    2.72    0.36
   3   3  -2    2.84    0.32
  -3  -3  -2    2.63    0.27
   3   3  -2    2.84    0.32
   3  -3  -3  120.85    3.02
  -3   3  -3  127.79    3.05
  -3   3  -3  124.61    2.96
  -3  -3   3  126.21    3.06
  -3  -3  -3  119.32    3.03
  -3  -3  -3  120.71    2.93
   3   3  -3  127.74    2.98
   3   3  -3  124.52    2.96
  -3   3  -4    6.44    0.56
   3  -3  -4    6.77    0.61
  -3   3  -4    6.75    0.61
  -3  -3   4    6.17    0.70
   3   3  -4    6.69    0.49
  -3  -3  -4    6.19    0.60
  -3  -3  -4    5.61    0.50
   3   3  -4    6.88    0.60
   3   3  -4    6.20    0.66
   3  -3  -5   33.98    1.23
  -3   3  -5   35.58    1.20
  -3  -3   5   37.46    1.30
  -3   3  -5   36.66    1.26
   3   3  -5   35.96    1.18
  -3  -3  -5   35.18    1.12
  -3  -3  -5   35.53    1.23
   3   3  -5   36.87    1.20
   3   3  -5   35.84    1.26
  -3   3  -6    8.06    0.86
  -3   3  -6   10.08    0.86
  -3  -3  -6   12.31    0.84
   3   3  -6   10.63    0.83
   3   3  -6   11.75    0.85
   3  -3  -7    1.13    0.54
  -3   3  -7    0.22    0.56
  -3   3  -7   -0.66    0.57
   3   3  -7    0.09    0.54
  -3  -3  -7    0.59    0.50
   3   3  -7    0.36    0.57
  -3   3  -8    4.99    0.78
   3   3  -8    5.55    0.78
  -3   4   0    0.12    0.32
  -3  -4   0   -0.08    0.24
  -3  -4   1    0.72    0.28
   3  -4  -1    0.27    0.24
  -3   4  -1    0.50    0.22
  -3   4  -1    0.88    0.33
   3  -4   1    0.75    0.30
   3   4  -1    0.28    0.32
  -3  -4  -1    0.61    0.21
  -3   4   1    1.21    0.33
  -3  -4  -1    0.69    0.25
   3   4  -1    1.09    0.31
  -3   4  -2    3.10    0.42
  -3   4  -2    4.09    0.34
  -3  -4   2    2.92    0.37
   3  -4  -2    3.39    0.36
   3   4  -2    3.82    0.36
   3   4  -2    3.83    0.45
   3  -4   2    2.64    0.37
  -3  -4  -2    3.03    0.32
  -3  -4  -2    3.31    0.30
   3   4  -2    3.40    0.34
  -3   4  -3    0.23    0.41
   3  -4  -3    0.30    0.34
  -3   4  -3    0.64    0.34
  -3  -4   3    0.50    0.34
   3   4  -3    0.44    0.31
   3   4  -3    0.57    0.32
   3   4  -3    0.61    0.42
  -3  -4  -3    0.89    0.28
   3  -4   3    0.28    0.34
  -3   4  -4   -0.10    0.40
  -3  -4   4    0.10    0.37
   3  -4  -4    0.27    0.37
  -3   4  -4    0.08    0.45
   3   4  -4    0.07    0.44
  -3  -4  -4    0.37    0.34
   3   4  -4    0.34    0.38
   3   4  -4    0.92    0.37
  -3  -4  -4   -0.01    0.38
  -3  -4   5    1.74    0.47
   3  -4  -5    1.42    0.47
  -3   4  -5    1.98    0.50
  -3   4  -5    2.11    0.57
   3   4  -5    1.16    0.47
   3   4  -5    2.90    0.57
  -3  -4  -5    2.65    0.51
  -3   4  -6    4.48    0.67
  -3   4  -6    3.99    0.70
   3  -4  -6    5.84    0.64
   3   4  -6    5.49    0.65
   3   4  -6    4.38    0.64
  -3  -4  -6    4.50    0.61
  -3   4  -7    1.38    0.68
  -3   4  -7    2.84    0.71
   3   4  -7    2.44    0.67
  -3  -5   0   -0.02    0.31
  -3   5   0   -0.40    0.38
  -3   5  -1   20.98    0.70
  -3   5  -1   22.97    0.90
   3  -5  -1   23.06    0.80
  -3  -5   1   21.55    0.97
  -3  -5  -1   20.70    0.91
   3   5  -1   22.54    0.84
   3   5  -1   22.47    0.86
   3  -5   1   23.25    0.99
   3  -5  -2    4.21    0.43
  -3  -5   2    3.21    0.45
  -3   5  -2    4.12    0.52
  -3   5  -2    3.64    0.38
   3  -5   2    3.35    0.45
  -3  -5  -2    3.24    0.37
   3   5  -2    3.29    0.36
   3   5  -2    3.87    0.41
   3   5  -2    4.19    0.50
  -3  -5  -2    3.82    0.32
  -3   5  -3   69.52    1.96
   3  -5  -3   65.24    1.88
  -3  -5   3   68.87    2.00
  -3   5  -3   71.20    1.82
   3   5  -3   69.50    1.81
   3  -5   3   70.16    2.02
   3   5  -3   66.13    1.92
   3   5  -3   68.97    1.81
  -3  -5   4    8.75    0.94
   3  -5  -4    9.75    0.77
  -3   5  -4    8.91    0.91
  -3   5  -4   10.17    0.78
   3  -5   4    9.29    1.01
   3   5  -4   10.21    0.72
   3   5  -4    9.35    0.87
   3  -5  -5   14.61    0.94
  -3   5  -5   15.86    1.06
  -3   5  -5   15.43    0.97
  -3  -5   5   13.96    1.18
  -3  -5  -5   16.03    1.01
   3   5  -5   16.12    0.95
   3   5  -5   16.23    1.04
  -3   5  -6    7.54    0.77
  -3   5  -6    6.11    0.82
   3  -5  -6   11.10    0.96
  -3  -5  -6   12.44    1.00
   3   5  -6    8.17    0.84
   3   5  -6    8.62    0.78
  -3   5  -7   -0.87    0.68
   3   5  -7    0.19    0.67
  -3  -6   0   -0.11    0.37
  -3   6   0    0.35    0.47
   3  -6  -1    0.77    0.37
  -3   6  -1    1.36    0.51
  -3  -6   1   -0.02    0.40
   3   6  -1    0.98    0.39
  -3  -6  -1    0.61    0.38
   3   6  -1    0.45    0.36
   3   6  -1    0.75    0.45
   3  -6   1    0.74    0.44
   3  -6  -2    3.74    0.48
  -3   6  -2    3.88    0.61
  -3  -6   2    3.18    0.52
  -3   6  -2    3.70    0.44
   3   6  -2    4.33    0.45
   3  -6   2    3.61    0.55
  -3  -6  -2    2.82    0.44
   3   6  -2    5.86    0.61
   3   6  -2    4.20    0.48
  -3   6  -3    7.43    0.58
  -3   6  -3    6.65    0.71
   3  -6  -3    6.25    0.59
  -3  -6   3    5.73    0.62
   3  -6   3    5.22    0.63
   3   6  -3    7.00    0.55
   3   6  -3    7.57    0.70
  -3   6  -4    0.92    0.53
   3  -6  -4    0.73    0.48
  -3   6  -4    0.42    0.61
  -3  -6   4    0.21    0.53
   3   6  -4    1.07    0.61
   3  -6   4    0.14    0.56
   3   6  -4    0.02    0.47
  -3   6  -5    4.77    0.80
  -3   6  -5    4.26    0.69
  -3  -6   5    3.74    0.71
   3  -6  -5    5.81    0.68
   3   6  -5    5.99    0.72
   3   6  -5    5.44    0.78
  -3   6  -6    0.55    0.71
  -3  -6   6    0.83    0.78
   3   6  -6   -0.15    0.65
  -3   6  -7    0.47    0.80
   3   6  -7    1.42    0.76
  -3   7   0   -0.26    0.52
   3   7   0   -0.79    0.45
  -3  -7   0   -0.22    0.46
  -3   7  -1   17.44    1.01
  -3  -7   1   17.96    1.13
  -3  -7  -1   16.38    1.08
   3   7  -1   16.68    0.75
   3   7  -1   15.52    0.92
   3   7  -1   15.55    0.84
   3  -7   1   17.84    1.17
   3  -7  -2    2.78    0.52
  -3   7  -2    2.89    0.65
  -3  -7   2    2.05    0.57
   3   7  -2    2.25    0.58
   3   7  -2    2.37    0.45
   3  -7   2    1.93    0.58
  -3   7  -3   54.89    1.88
  -3   7  -3   56.29    1.67
  -3  -7   3   58.15    2.01
   3  -7  -3   57.68    1.78
   3   7  -3   55.98    1.64
   3   7  -3   57.99    1.82
   3  -7   3   56.50    1.97
  -3   7  -4    7.31    0.90
  -3  -7   4    6.41    0.80
  -3   7  -4    8.41    0.73
   3  -7   4    6.35    0.80
   3   7  -4    8.64    0.88
   3   7  -4    7.89    0.71
  -3  -7   5   18.87    1.50
   3  -7  -5   20.29    1.19
  -3   7  -5   18.93    1.15
   3   7  -5   18.88    1.76
   3   7  -5   18.72    1.16
  -3   7  -6   10.42    0.96
  -3  -7   6    7.16    0.93
   3   7  -6   10.02    0.96
   3   8   0   -0.56    0.50
  -3  -8   0    0.00    0.56
  -3   8  -1    0.71    0.64
  -3  -8   1   -0.01    0.59
   3  -8   1    0.63    0.64
  -3  -8  -1   -0.24    0.54
  -3   8  -2    1.75    0.71
  -3  -8   2    1.96    0.68
   3  -8   2    1.70    0.69
  -3  -8   3    1.70    0.73
   3  -8  -3    3.00    0.60
  -3   8  -3    1.53    0.76
   3   8  -3    2.03    0.67
   3   8  -3    1.74    0.52
   3  -8   3    0.22    0.69
  -3   8  -4   -1.14    0.79
  -3  -8   4    0.04    0.74
   3  -8  -4    0.85    0.64
   3   8  -4   -0.03    0.70
   3   8  -4   -0.29    0.60
  -3   8  -5    0.77    0.72
  -3  -8   5    0.96    0.77
   3   8  -5    2.00    0.74
  -3  -9   0   -0.14    0.65
  -3  -9   1    5.87    0.86
  -3  -9  -1    4.29    0.76
  -3  -9   2    0.79    0.74
  -3   9  -2    0.89    0.80
  -3   9  -3   19.27    1.57
  -3  -9   3   24.04    1.67
   3   9  -3   18.47    1.28
  -3  -9   4    3.19    0.91
   3   9  -4    4.09    0.82
  -3 -10   0   -0.38    0.81
  -3 -10   1   -0.25    0.85
  -3 -10   2    0.04    0.88
  -3 -10   3   -0.26    0.92
  -3 -11   0   -2.29    0.92
  -4   0   0  534.50   12.03
  -4   0   0  541.37   12.06
   4   0   0  521.12   11.99
  -4   0  -1  271.03    6.22
   4   0  -1  269.01    6.21
  -4   0   1  276.40    6.24
  -4   0  -1  273.92    6.20
   4   0  -2  205.02    4.81
  -4   0  -2  206.57    4.80
  -4   0  -2  207.64    4.79
  -4   0   2  213.95    4.83
  -4   0   3  203.68    4.58
  -4   0  -3  190.81    4.56
   4   0  -3  197.97    4.61
   4   0  -3  198.36    4.54
  -4   0  -3  195.72    4.57
  -4   0  -3  197.11    4.58
  -4   0  -4    4.28    0.42
   4   0  -4    4.82    0.45
  -4   0  -4    4.46    0.40
  -4   0   4    3.81    0.41
   4   0  -4    5.20    0.37
   4   0  -5   78.71    2.01
  -4   0  -5   77.81    2.05
  -4   0  -5   80.66    2.05
   4   0  -5   79.21    2.12
  -4   0  -6    2.71    0.47
   4   0  -6    2.02    0.48
   4   0  -6    1.29    0.40
   4   0  -7    5.53    0.65
  -4   0  -7    6.49    0.65
   4   0  -7    5.19    0.55
  -4   0  -8    0.89    0.60
   4   1   0    0.34    0.24
  -4   1   0   -0.26    0.26
  -4  -1   0    0.30    0.21
   4  -1   0    0.33    0.18
  -4  -1   0   -0.02    0.23
  -4  -1   1   -0.09    0.26
   4  -1  -1    0.30    0.22
  -4   1  -1    0.10    0.27
  -4   1  -1    0.26    0.21
  -4   1   1    0.14    0.28
  -4  -1  -1    0.08    0.22
   4   1  -1    0.08    0.23
  -4  -1  -1    0.02    0.23
   4  -1  -2   13.63    0.56
  -4   1  -2   13.86    0.56
  -4   1  -2   13.94    0.52
  -4  -1   2   14.81    0.61
  -4  -1  -2   13.80    0.54
   4   1  -2   13.52    0.56
  -4   1   2   14.12    0.59
   4  -1  -3    1.16    0.21
  -4   1  -3    1.13    0.27
  -4   1  -3    0.95    0.28
  -4  -1   3    0.71    0.26
   4  -1  -3    0.81    0.30
  -4   1   3    0.90    0.28
  -4  -1  -3    1.20    0.27
  -4  -1  -3    0.63    0.24
   4   1  -3    1.06    0.29
   4   1  -3    0.86    0.27
   4  -1  -4   56.89    1.61
  -4  -1   4   59.36    1.57
   4  -1  -4   56.22    1.46
  -4   1  -4   58.85    1.57
  -4   1  -4   57.11    1.55
  -4  -1  -4   58.88    1.56
   4   1  -4   57.40    1.52
   4   1  -4   59.20    1.60
  -4  -1  -4   58.32    1.54
  -4   1  -5   -0.41    0.36
   4  -1  -5    0.00    0.39
   4  -1  -5    0.29    0.29
  -4   1  -5    0.12    0.37
   4   1  -5    0.05    0.35
  -4  -1  -5   -0.17    0.33
   4   1  -5   -0.01    0.40
  -4  -1  -5    0.62    0.33
  -4   1  -6   40.28    1.33
   4  -1  -6   41.23    1.33
   4  -1  -6   40.53    1.40
  -4  -1  -6   40.60    1.30
   4   1  -6   39.72    1.33
  -4  -1  -6   42.01    1.32
   4   1  -6   40.34    1.37
   4   1  -6   41.59    1.30
  -4   1  -7    2.08    0.56
   4  -1  -7    1.37    0.52
  -4  -1  -7    1.50    0.51
   4   1  -7    1.51    0.50
   4   1  -7    2.03    0.55
  -4   1  -8    7.42    0.77
  -4  -1  -8    6.06    0.73
   4   1  -8    5.37    0.69
  -4  -2   0    1.21    0.25
  -4   2   0    1.69    0.33
  -4  -2   0    1.51    0.25
  -4  -2   0    1.36    0.27
   4   2   0    1.84    0.31
  -4  -2   1    0.43    0.26
  -4   2  -1    1.29    0.22
  -4   2  -1    0.97    0.29
   4  -2  -1    0.86    0.24
   4   2  -1    0.91    0.26
  -4  -2  -1    0.70    0.23
  -4   2   1    0.95    0.31
  -4  -2  -1    0.69    0.23
   4  -2  -2   21.88    0.75
  -4   2  -2   21.88    0.68
  -4   2  -2   22.33    0.76
  -4  -2   2   21.75    0.81
   4   2  -2   21.31    0.73
  -4  -2  -2   21.27    0.69
  -4  -2  -2   20.29    0.71
  -4   2   2   21.80    0.73
  -4  -2   3    1.00    0.28
   4  -2  -3    0.75    0.32
  -4   2  -3    1.08    0.32
  -4   2  -3    0.66    0.29
   4   2  -3    1.36    0.30
  -4  -2  -3    1.23    0.28
  -4   2   3    1.20    0.30
   4   2  -3    1.28    0.33
   4  -2  -4   42.73    1.16
  -4   2  -4   45.31    1.34
  -4  -2   4   47.11    1.36
  -4   2  -4   45.35    1.30
   4  -2  -4   45.84    1.36
   4   2  -4   45.15    1.33
  -4  -2  -4   45.01    1.28
  -4  -2  -4   45.41    1.33
   4   2  -4   46.12    1.29
  -4   2  -5    1.35    0.44
   4  -2  -5    1.90    0.46
  -4   2  -5    2.24    0.43
   4   2  -5    2.06    0.45
  -4  -2  -5    1.66    0.40
  -4  -2  -5    1.83    0.39
   4   2  -5    1.90    0.42
  -4   2  -6   33.78    1.25
  -4   2  -6   32.57    1.21
   4  -2  -6   31.88    1.27
   4   2  -6   33.64    1.23
   4   2  -6   33.16    1.23
  -4  -2  -6   33.81    1.22
   4   2  -6   32.89    1.18
  -4  -2  -6   34.12    1.16
  -4   2  -7   -0.20    0.52
   4  -2  -7    1.25    0.53
  -4  -2  -7    0.78    0.49
   4   2  -7    0.05    0.51
   4   2  -7    0.79    0.51
  -4  -2  -7    0.92    0.49
  -4   2  -8    4.70    0.74
   4   2  -8    4.89    0.72
  -4  -3   0   39.51    1.19
   4   3   0   40.33    1.17
  -4   3   0   41.68    1.17
  -4   3  -1   49.26    1.22
  -4  -3   1   48.66    1.39
  -4   3  -1   51.41    1.35
   4  -3  -1   46.27    1.28
  -4  -3  -1   47.65    1.25
  -4  -3  -1   48.19    1.35
  -4   3   1   50.27    1.33
   4   3  -1   49.96    1.32
  -4   3  -2    6.19    0.45
  -4  -3   2    5.49    0.57
  -4   3  -2    6.72    0.54
   4  -3  -2    5.47    0.51
   4   3  -2    6.41    0.51
  -4   3   2    5.31    0.50
  -4  -3  -2    5.40    0.44
  -4  -3  -2    5.95    0.50
  -4   3  -3   20.72    0.79
  -4   3  -3   20.34    0.85
   4  -3  -3   20.22    0.82
  -4  -3   3   20.51    0.88
   4   3  -3   22.03    0.80
  -4  -3  -3   20.82    0.73
   4   3  -3   20.40    0.77
  -4  -3   4   12.70    0.82
  -4   3  -4   12.76    0.77
  -4   3  -4   11.94    0.72
   4  -3  -4   11.74    0.74
   4   3  -4   12.52    0.69
  -4  -3  -4   12.14    0.64
   4   3  -4   13.26    0.74
  -4  -3  -4   11.86    0.70
   4  -3  -5    7.32    0.63
  -4  -3   5    7.88    0.87
  -4   3  -5    7.77    0.60
  -4   3  -5    5.56    0.60
  -4  -3  -5    6.17    0.58
   4   3  -5    7.43    0.59
   4   3  -5    7.19    0.64
  -4  -3  -5    6.43    0.52
   4   3  -5    7.27    0.60
  -4   3  -6   20.14    1.10
  -4   3  -6   19.98    1.04
   4  -3  -6   22.01    1.10
  -4  -3  -6   22.29    0.96
   4   3  -6   21.15    1.07
  -4  -3  -6   22.90    1.06
   4   3  -6   21.60    1.12
   4   3  -6   21.55    1.03
  -4   3  -7   -0.39    0.63
  -4   3  -7    0.11    0.59
  -4  -3  -7    0.49    0.53
   4   3  -7    0.08    0.53
   4   3  -7   -0.55    0.55
  -4   3  -8    3.70    0.77
   4   3  -8    3.26    0.73
  -4  -4   0  169.69    4.18
   4   4   0  177.43    4.15
  -4   4   0  177.17    4.15
  -4   4  -1   77.40    1.96
   4  -4  -1   75.77    1.88
  -4  -4   1   75.13    2.02
  -4   4  -1   74.86    1.82
  -4   4   1   77.71    1.95
  -4  -4  -1   74.91    1.97
   4   4  -1   73.33    1.93
  -4  -4  -1   74.18    1.85
  -4   4  -2   71.56    1.79
  -4  -4   2   70.25    1.96
  -4   4  -2   71.52    1.90
   4  -4  -2   72.48    1.86
  -4  -4  -2   70.28    1.78
   4   4  -2   72.46    1.84
   4   4  -2   71.81    1.82
  -4  -4  -2   70.58    1.86
  -4  -4   3   91.41    2.48
   4  -4  -3   90.82    2.40
  -4   4  -3   96.00    2.46
  -4   4  -3   95.98    2.35
  -4  -4  -3   90.72    2.31
   4   4  -3   97.43    2.38
   4   4  -3   96.79    2.35
  -4   4  -4    0.51    0.48
   4  -4  -4    0.81    0.41
  -4  -4   4    0.58    0.42
  -4   4  -4    1.04    0.45
  -4  -4  -4    0.87    0.32
   4   4  -4    0.71    0.49
   4   4  -4    0.85    0.40
   4   4  -4    0.92    0.41
  -4   4  -5   46.26    1.47
  -4   4  -5   46.75    1.56
  -4  -4   5   46.86    1.62
   4  -4  -5   47.09    1.54
   4   4  -5   45.67    1.44
   4   4  -5   46.74    1.45
   4   4  -5   45.63    1.55
  -4  -4  -5   44.91    1.51
   4  -4  -6    3.26    0.61
  -4   4  -6    2.09    0.66
  -4   4  -6    2.16    0.60
   4   4  -6    2.58    0.61
  -4  -4  -6    3.21    0.57
   4   4  -6    1.97    0.57
  -4   4  -7    2.49    0.71
  -4   4  -7    2.80    1.02
   4   4  -7    3.56    0.70
   4   5   0   10.31    0.77
  -4  -5   0    9.11    0.74
  -4   5   0   10.13    0.76
  -4   5  -1   19.69    0.69
  -4   5  -1   20.72    0.92
   4  -5  -1   20.44    0.76
  -4  -5   1   20.07    0.96
   4   5  -1   19.70    0.85
   4   5  -1   21.10    0.86
  -4   5   1   20.80    0.91
  -4  -5  -1   20.49    0.91
   4  -5  -2   37.41    1.15
  -4   5  -2   36.11    1.25
  -4  -5   2   36.28    1.32
  -4   5  -2   36.28    1.07
   4   5  -2   36.28    1.21
  -4  -5  -2   35.17    1.19
  -4  -5  -2   34.82    1.04
   4   5  -2   36.40    1.15
   4   5  -2   37.53    1.12
  -4  -5   3    4.01    0.54
  -4   5  -3    4.10    0.60
  -4   5  -3    5.28    0.50
   4  -5  -3    4.69    0.50
   4   5  -3    4.19    0.46
   4   5  -3    4.42    0.58
   4   5  -3    4.21    0.46
   4  -5  -4   72.88    2.08
  -4   5  -4   74.60    2.02
  -4   5  -4   73.68    2.17
  -4  -5   4   78.68    2.24
   4   5  -4   74.26    2.14
   4   5  -4   74.08    2.01
   4   5  -4   74.70    2.02
  -4   5  -5    3.15    0.69
   4  -5  -5    3.28    0.56
  -4  -5   5    2.39    0.58
  -4   5  -5    2.58    0.60
   4   5  -5    2.94    0.64
   4   5  -5    2.87    0.56
   4  -5  -6   38.43    1.46
  -4   5  -6   37.45    1.56
  -4   5  -6   37.49    1.45
   4   5  -6   37.24    1.52
   4   5  -6   36.10    1.43
  -4   5  -7    2.87    0.76
   4   5  -7    1.67    0.73
  -4   6   0    7.65    0.81
   4   6   0    6.51    0.61
  -4  -6   0    7.81    0.83
   4  -6  -1    5.77    0.59
  -4  -6   1    4.16    0.54
  -4   6  -1    5.95    0.64
  -4   6   1    5.61    0.60
   4   6  -1    5.66    0.56
   4   6  -1    4.26    0.50
  -4  -6  -1    3.57    0.48
   4  -6  -2    0.85    0.40
  -4   6  -2    0.96    0.56
  -4   6  -2    1.05    0.40
  -4  -6   2    1.00    0.47
   4   6  -2    0.31    0.36
   4   6  -2    0.51    0.40
   4   6  -2    0.41    0.48
  -4  -6  -2    0.09    0.37
   4  -6  -3    9.74    0.79
  -4   6  -3    9.47    0.96
  -4   6  -3   10.56    0.75
  -4  -6   3   10.74    1.03
   4   6  -3   10.03    0.74
   4   6  -3    9.90    0.75
   4   6  -3   10.31    0.90
  -4  -6   4   12.02    1.17
   4  -6  -4   10.81    0.89
  -4   6  -4   11.43    0.94
  -4   6  -4   12.52    0.89
   4   6  -4   11.21    0.85
   4   6  -4   10.75    1.01
  -4  -6   5    4.00    0.72
   4  -6  -5    4.68    0.65
  -4   6  -5    4.33    0.70
  -4   6  -5    4.42    0.81
   4   6  -5    5.25    0.68
   4   6  -5    5.03    0.77
  -4  -6   6   13.68    1.60
  -4   6  -6   13.73    1.02
   4   6  -6   12.34    1.10
  -4   6  -7   -2.37    0.72
   4   6  -7   -0.58    0.72
   4   7   0   29.24    1.18
  -4  -7   0   29.09    1.31
  -4   7   0   27.07    1.22
  -4   7  -1   32.55    1.34
  -4  -7   1   36.73    1.48
   4   7  -1   34.53    1.12
   4   7  -1   34.70    1.22
   4   7  -1   34.86    1.25
  -4  -7  -1   34.90    1.39
  -4   7  -2   10.54    1.01
  -4  -7   2   10.17    1.10
   4  -7  -2   11.12    0.83
   4   7  -2    8.78    0.86
   4   7  -2    9.97    0.88
   4   7  -2   10.31    0.74
  -4   7  -3   20.10    1.24
  -4  -7   3   21.46    1.35
   4  -7  -3   21.80    1.09
   4   7  -3   21.02    0.97
   4   7  -3   22.45    1.14
   4  -7  -4    2.40    0.58
  -4  -7   4    1.41    0.68
  -4   7  -4    1.34    0.76
  -4   7  -4    1.01    0.59
   4   7  -4    2.12    0.56
   4   7  -4   -0.35    0.64
  -4   7  -5    8.54    0.86
   4  -7  -5    9.97    1.03
  -4  -7   5    7.59    0.91
   4   7  -5    7.82    0.87
  -4   7  -6    4.69    0.85
  -4  -7   6    4.06    0.85
   4   7  -6    6.33    0.88
   4   8   0   18.57    1.06
  -4  -8   0   18.55    1.32
  -4   8  -1    8.51    0.89
  -4  -8   1    6.24    0.79
  -4  -8  -1    5.53    0.71
  -4  -8   2    3.91    0.78
  -4   8  -2    6.12    0.86
   4   8  -2    4.20    0.71
   4   8  -2    6.24    0.60
  -4   8  -3   12.20    1.22
   4  -8  -3   14.21    1.16
  -4  -8   3   13.46    1.45
   4   8  -3   12.89    0.90
   4   8  -3   11.96    1.06
  -4  -8   4   -0.03    0.75
   4  -8  -4    1.63    0.66
   4   8  -4    0.97    0.63
   4   8  -4    1.15    0.76
  -4   8  -5    8.96    1.35
  -4  -8   5    7.09    0.97
   4   8  -5   10.25    0.96
  -4  -9   0    3.10    0.78
   4   9   1    6.32    0.79
  -4  -9   1    8.33    0.95
  -4  -9  -1    7.49    0.85
  -4  -9   2   11.60    1.08
  -4   9  -2   12.67    1.25
  -4  -9   3    1.93    0.87
   4   9  -3    2.70    0.79
  -4  -9   4   30.28    1.90
   4   9  -4   25.04    1.31
  -4 -10   0    8.90    1.02
  -4 -10   1    7.85    1.05
  -4 -10   2    2.94    0.97
  -4 -10   3    9.62    1.16
   5   0   0   -0.19    0.21
  -5   0   0   -0.11    0.28
  -5   0   0    0.23    0.22
  -5   0   1   44.58    1.20
  -5   0   1   43.86    1.12
  -5   0  -1   44.19    1.15
   5   0   1   43.71    1.14
  -5   0  -1   43.83    1.18
   5   0  -1   42.89    1.16
  -5   0  -2   51.05    1.36
   5   0  -2   53.75    1.40
  -5   0  -2   52.35    1.38
  -5   0   2   53.76    1.42
  -5   0   3   82.12    2.02
  -5   0  -3   78.73    1.99
   5   0  -3   79.03    1.94
   5   0  -3   78.41    2.02
  -5   0  -3   80.29    1.99
   5   0  -4   43.08    1.19
  -5   0  -4   41.91    1.24
  -5   0   4   43.88    1.25
   5   0  -4   43.80    1.31
   5   0  -5   15.63    0.73
  -5   0  -5   15.37    0.79
   5   0  -5   16.50    0.88
  -5   0  -5   17.42    0.76
   5   0  -6   22.02    1.05
   5   0  -6   21.20    0.89
  -5   0  -6   22.78    0.99
   5   0  -7    2.05    0.57
  -5   0  -7    2.43    0.57
   5   0  -7    1.82    0.48
  -5   0  -8   11.60    1.05
  -5   1   0   -0.29    0.20
  -5  -1   0   -0.18    0.22
   5   1   0    0.20    0.26
  -5  -1   0    0.05    0.26
   5  -1   0    0.21    0.20
  -5   1   0   -0.12    0.29
  -5  -1   1    8.38    0.52
   5  -1  -1    8.35    0.45
  -5   1  -1    8.35    0.53
  -5   1  -1    8.62    0.46
  -5   1   1    7.91    0.54
  -5  -1  -1    8.36    0.46
   5   1  -1    8.34    0.49
  -5  -1  -1    8.17    0.44
  -5   1   1    8.31    0.39
  -5  -1   2    0.07    0.25
  -5   1  -2    0.33    0.25
  -5   1  -2    0.46    0.29
  -5  -1   2   -0.59    0.28
   5  -1  -2    0.44    0.27
   5   1  -2    0.06    0.25
  -5  -1  -2    0.11    0.25
  -5   1   2    0.18    0.29
   5  -1  -3   23.93    0.86
  -5  -1   3   24.62    0.87
  -5   1  -3   24.26    0.83
   5  -1  -3   23.38    0.72
  -5   1  -3   25.68    0.83
  -5  -1  -3   25.32    0.83
   5   1  -3   24.94    0.79
  -5   1   3   25.05    0.85
   5   1  -3   24.28    0.87
  -5   1  -4    2.90    0.39
   5  -1  -4    2.72    0.31
  -5   1  -4    2.53    0.40
  -5  -1   4    2.71    0.35
   5  -1  -4    3.11    0.45
  -5  -1  -4    2.96    0.39
   5   1  -4    3.59    0.46
   5   1  -4    3.33    0.38
   5  -1  -5   10.69    0.80
   5  -1  -5   10.67    0.58
  -5   1  -5   11.35    0.73
  -5   1  -5   11.30    0.71
   5   1  -5   10.82    0.80
  -5  -1  -5   11.79    0.68
   5   1  -5   10.59    0.69
  -5  -1  -5   11.10    0.72
  -5   1  -6   10.81    0.81
   5  -1  -6   10.99    0.88
   5   1  -6   10.77    0.86
  -5  -1  -6   10.63    0.81
   5   1  -6   10.78    0.74
   5  -1  -7    2.80    0.60
  -5   1  -7    2.50    0.62
   5   1  -7    2.61    0.57
   5   1  -7    2.97    0.55
  -5  -1  -7    4.89    0.62
  -5   1  -8    3.22    0.70
   5   1  -8    1.86    0.63
  -5  -1  -8    3.34    0.68
  -5  -2   0    0.06    0.26
  -5   2   0   -0.05    0.21
  -5  -2   0    0.08    0.26
  -5  -2   0   -0.07    0.24
   5   2   0   -0.06    0.30
  -5   2   0    0.10    0.32
  -5   2  -1   28.05    0.91
  -5  -2   1   27.04    0.93
  -5  -2   1   27.33    0.87
  -5   2  -1   25.78    0.78
   5  -2  -1   24.91    0.79
  -5   2   1   27.75    0.89
   5   2  -1   25.95    0.85
  -5  -2  -1   26.60    0.81
  -5   2  -2    0.52    0.26
  -5   2  -2    0.73    0.32
   5  -2  -2    0.64    0.29
  -5  -2   2    0.02    0.27
  -5   2   2    0.73    0.32
   5   2  -2    0.68    0.29
  -5  -2  -2    0.39    0.25
  -5  -2   3   72.99    1.91
  -5   2  -3   70.76    1.87
  -5   2  -3   71.50    1.82
   5  -2  -3   72.63    1.87
  -5   2   3   71.58    1.84
   5   2  -3   70.92    1.81
   5   2  -3   71.62    1.86
  -5  -2  -3   67.99    1.81
   5  -2  -4    2.31    0.44
  -5   2  -4    2.07    0.40
  -5   2  -4    1.94    0.42
  -5  -2   4    1.90    0.37
  -5  -2  -4    2.05    0.39
   5   2  -4    2.24    0.43
   5   2  -4    2.49    0.40
  -5   2  -5    4.54    0.52
   5  -2  -5    4.72    0.56
  -5   2  -5    4.80    0.57
  -5  -2  -5    3.37    0.46
   5   2  -5    4.43    0.55
   5   2  -5    5.21    0.51
  -5  -2  -5    4.27    0.48
  -5   2  -6    5.95    0.66
  -5   2  -6    7.00    0.64
   5  -2  -6    9.34    0.88
   5   2  -6    6.87    0.66
  -5  -2  -6    6.39    0.60
   5   2  -6    7.24    0.78
   5   2  -6    9.02    0.67
  -5  -2  -6    6.09    0.58
   5  -2  -7    6.84    0.77
  -5   2  -7    6.34    0.71
  -5  -2  -7    6.28    0.67
   5   2  -7    6.23    0.67
   5   2  -7    5.40    0.66
   5   2  -7    6.28    0.70
  -5   2  -8    3.40    0.76
   5   2  -8    3.51    0.68
   5   3   0   -0.03    0.32
  -5  -3   0   -0.19    0.24
  -5   3   0    0.04    0.35
  -5  -3   0   -0.34    0.27
  -5   3  -1    1.35    0.26
  -5  -3   1    0.88    0.32
  -5   3  -1    1.17    0.37
   5  -3  -1    1.26    0.28
  -5  -3  -1    0.99    0.29
   5   3  -1    0.70    0.32
  -5   3   1    1.15    0.37
  -5  -3  -1    1.11    0.27
   5  -3  -2    0.06    0.31
  -5   3  -2    0.45    0.28
  -5   3  -2    0.43    0.35
  -5  -3   2   -0.27    0.29
  -5  -3  -2   -0.11    0.27
   5   3  -2    0.32    0.33
  -5  -3  -2    0.15    0.26
  -5   3   2   -0.41    0.33
  -5  -3   3    1.35    0.35
  -5   3  -3    2.64    0.44
  -5   3  -3    1.88    0.38
   5  -3  -3    2.04    0.40
  -5  -3  -3    1.74    0.32
   5   3  -3    2.56    0.37
   5   3  -3    2.21    0.40
  -5   3  -4    6.69    0.53
   5  -3  -4    6.77    0.58
  -5   3  -4    6.90    0.62
  -5  -3   4    6.73    0.78
   5   3  -4    7.18    0.62
  -5  -3  -4    6.56    0.58
   5   3  -4    6.52    0.57
  -5   3  -5    0.71    0.51
  -5   3  -5    0.61    0.45
  -5  -3   5   -0.10    0.42
   5  -3  -5    0.49    0.47
   5   3  -5    0.02    0.44
  -5  -3  -5    0.49    0.38
   5   3  -5    0.09    0.42
  -5   3  -6    9.95    0.93
  -5   3  -6   10.40    0.91
   5  -3  -6   12.59    0.94
   5   3  -6   11.61    0.93
  -5  -3  -6   12.80    0.81
   5   3  -6   12.06    0.93
   5   3  -6   11.96    0.88
  -5   3  -7    0.33    0.63
   5   3  -7    0.09    0.59
   5   3  -7    0.69    0.58
   5   4   0    0.18    0.38
  -5  -4   0    0.12    0.31
  -5   4   0   -0.15    0.41
  -5  -4   1   20.97    0.94
  -5   4  -1   21.85    0.71
  -5   4  -1   21.91    0.91
   5  -4  -1   21.85    0.77
  -5  -4  -1   21.43    0.75
  -5  -4  -1   21.70    0.89
  -5   4   1   22.77    0.89
   5   4  -1   21.10    0.86
   5  -4  -2   19.59    0.81
  -5   4  -2   19.60    0.74
  -5  -4   2   19.72    0.94
  -5   4  -2   20.01    0.89
  -5  -4  -2   19.46    0.84
  -5  -4  -2   18.73    0.73
  -5   4   2   19.02    0.82
   5   4  -2   20.46    0.83
  -5   4  -3   52.78    1.56
  -5   4  -3   51.45    1.45
  -5  -4   3   48.43    1.61
   5  -4  -3   50.19    1.50
   5   4  -3   53.55    1.50
   5   4  -3   51.03    1.44
  -5  -4  -3   51.35    1.41
  -5  -4   4   19.17    1.07
   5  -4  -4   18.17    0.91
  -5   4  -4   18.41    0.91
  -5   4  -4   19.02    1.00
  -5  -4  -4   18.07    0.78
   5   4  -4   18.41    0.83
   5   4  -4   17.83    0.91
  -5   4  -5   10.73    0.74
  -5  -4   5    9.21    1.05
   5  -4  -5   11.68    0.90
  -5   4  -5    9.75    0.92
  -5  -4  -5    8.53    0.76
   5   4  -5    8.53    0.76
   5   4  -5   10.25    0.84
   5   4  -5    8.72    0.91
   5  -4  -6    8.73    0.78
  -5   4  -6    8.39    0.76
  -5   4  -6    7.22    0.81
   5   4  -6    8.67    0.82
   5   4  -6    8.02    0.73
  -5   4  -7    1.22    0.71
   5   4  -7    0.99    0.65
  -5  -5   0    0.38    0.36
  -5   5   0    0.21    0.49
   5   5   0   -0.27    0.43
  -5   5  -1    9.52    0.63
  -5   5  -1   10.64    0.84
   5  -5  -1    9.64    0.59
  -5  -5   1   10.17    0.84
  -5  -5  -1   10.04    0.77
  -5   5   1    9.42    0.78
  -5  -5  -1    8.50    0.55
   5   5  -1   10.35    0.73
  -5   5  -2    0.42    0.37
  -5  -5   2    0.31    0.39
  -5   5  -2   -0.21    0.48
   5  -5  -2    0.53    0.35
  -5  -5  -2    0.21    0.34
   5   5  -2    0.49    0.38
  -5  -5  -2    0.32    0.32
   5   5  -2   -0.10    0.39
  -5  -5   3   37.07    1.42
   5  -5  -3   37.02    1.25
  -5   5  -3   36.71    1.19
  -5   5  -3   35.02    1.33
   5   5  -3   37.62    1.21
   5   5  -3   37.32    1.18
  -5  -5  -3   35.49    1.12
   5   5  -3   35.52    1.31
  -5  -5   4    1.05    0.53
  -5   5  -4    0.87    0.51
   5  -5  -4    1.35    0.47
  -5   5  -4    0.81    0.60
   5   5  -4    0.79    0.56
   5   5  -4    1.18    0.46
   5   5  -4    0.59    0.45
  -5   5  -5   22.47    1.13
  -5   5  -5   23.87    1.25
   5  -5  -5   24.76    1.16
  -5  -5   5   24.28    1.35
   5   5  -5   23.15    1.21
   5   5  -5   22.97    1.07
  -5   5  -6    3.99    0.81
  -5   5  -6    4.57    0.73
   5  -5  -6    5.66    0.72
   5   5  -6    4.77    0.73
   5   5  -6    6.22    1.00
  -5   5  -7    9.67    0.93
   5   5  -7    8.68    0.89
   5   6   0    0.84    0.50
  -5  -6   0    0.52    0.42
  -5   6   0    0.61    0.55
  -5   6  -1   14.50    0.99
  -5  -6   1   12.39    1.00
   5  -6  -1   13.03    1.00
  -5  -6  -1   12.89    0.92
  -5   6   1   13.23    0.92
   5   6  -1   12.50    0.81
   5   6  -1   12.76    0.84
  -5  -6   2    1.37    0.49
   5  -6  -2    1.81    0.42
  -5   6  -2    1.23    0.59
   5   6  -2    1.14    0.51
   5   6  -2    0.76    0.45
   5   6  -2    1.13    0.43
  -5  -6  -2    1.37    0.42
  -5   6  -3   36.10    1.45
  -5   6  -3   38.46    1.24
  -5  -6   3   37.91    1.58
   5  -6  -3   38.72    1.31
   5   6  -3   36.49    1.28
   5   6  -3   38.87    1.26
   5   6  -3   35.76    1.38
   5  -6  -4    0.84    0.48
  -5   6  -4    1.14    0.57
  -5  -6   4    0.09    0.56
  -5   6  -4   -0.06    0.64
   5   6  -4    0.54    0.52
   5   6  -4    0.69    0.59
  -5   6  -5    3.64    0.82
  -5  -6   5    2.66    0.70
  -5   6  -5    3.07    0.69
   5  -6  -5    3.57    0.62
   5   6  -5    4.50    0.67
   5   6  -5    4.23    0.78
  -5   6  -6   -0.41    0.69
  -5  -6   6   -0.29    0.78
   5   6  -6    0.09    0.65
   5   7   0    0.06    0.49
  -5  -7   0    0.21    0.50
  -5   7   0    0.32    0.60
  -5  -7   1   -0.29    0.51
  -5   7  -1    0.92    0.64
   5   7  -1   -0.09    0.51
   5   7  -1    0.19    0.46
  -5  -7  -1   -0.45    0.45
  -5   7  -2   -0.21    0.66
  -5  -7   2    0.65    0.56
   5   7  -2    0.33    0.55
   5   7  -2    0.74    0.44
   5   7  -2   -0.14    0.47
  -5   7  -3   -0.56    0.70
   5  -7  -3    0.36    0.49
  -5  -7   3    0.05    0.60
   5   7  -3    0.98    0.59
   5   7  -3    0.59    0.49
   5  -7  -4    3.02    0.61
  -5  -7   4    2.27    0.73
  -5   7  -4    1.82    0.77
  -5   7  -4    2.79    0.65
   5   7  -4    2.30    0.71
   5   7  -4    2.44    0.63
  -5   7  -5    1.54    0.71
   5  -7  -5    2.56    0.81
  -5  -7   5    0.61    0.75
   5   7  -5    0.58    0.67
  -5  -7   6    4.52    0.93
  -5   7  -6    6.76    0.88
   5   7  -6    6.86    0.90
   5   8   0    0.62    0.54
  -5  -8   0   -1.17    0.58
   5   8   1    6.18    0.77
  -5  -8   1    5.45    0.77
  -5   8  -1    7.47    0.90
  -5  -8  -1    5.06    0.69
   5   8  -1    5.31    0.66
  -5   8  -2    1.52    0.77
  -5  -8   2    0.12    0.67
   5   8  -2    0.42    0.51
   5   8  -2   -0.01    0.62
  -5   8  -3   15.83    1.31
  -5  -8   3   18.08    1.49
   5   8  -3   16.99    0.99
   5   8  -3   16.67    1.15
   5  -8  -4    1.68    0.64
  -5  -8   4    0.60    0.81
   5   8  -4    0.92    0.63
  -5  -8   5    0.95    0.85
   5   8  -5    3.03    0.79
   5   9   0    0.46    0.62
  -5  -9   0   -0.63    0.72
  -5  -9   1    2.39    0.81
   5   9   1    2.93    0.73
  -5  -9  -1    1.82    0.72
  -5  -9   2   -0.05    0.81
  -5   9  -2    0.03    0.87
  -5  -9   3    9.72    1.11
   5   9  -3   11.54    1.47
   5   9  -3    9.62    1.07
  -5  -9   4    0.25    0.89
  -5 -10   0   -0.29    0.84
  -5 -10   1    2.47    0.94
  -5 -10   2    1.59    0.97
  -5 -10   3   10.03    1.20
  -6   0   0    3.77    0.32
  -6   0   0    4.20    0.39
   6   0   0    3.93    0.32
  -6   0  -1   77.05    1.94
  -6   0  -1   75.18    1.89
  -6   0   1   78.69    1.96
   6   0  -1   77.41    1.92
   6   0   1   75.91    1.89
  -6   0   1   78.86    1.87
  -6   0   2    0.46    0.33
  -6   0  -2    0.48    0.31
  -6   0  -2    0.26    0.28
   6   0  -2    0.10    0.29
  -6   0   3   39.12    1.19
  -6   0   3   37.66    1.17
   6   0  -3   37.26    1.16
  -6   0  -3   37.53    1.14
  -6   0  -3   37.35    1.14
   6   0  -3   38.11    1.06
  -6   0   4   41.50    1.24
   6   0  -4   39.22    1.29
  -6   0  -4   40.65    1.24
   6   0  -4   39.17    1.15
  -6   0  -4   40.73    1.24
   6   0  -5   20.17    0.83
   6   0  -5   20.64    1.00
  -6   0  -5   22.81    0.97
  -6   0  -6   36.79    1.32
   6   0  -6   36.73    1.36
   6   0  -6   34.82    1.17
  -6   0  -7    8.55    0.76
   6   0  -7    6.87    0.73
  -6   0  -8    3.23    0.73
  -6   1   0   97.60    2.30
  -6  -1   0   97.99    2.33
  -6  -1   0   94.77    2.37
  -6   1   0  100.32    2.39
   6  -1   0   94.37    2.30
   6   1   0   96.49    2.35
  -6  -1   1    1.13    0.33
  -6   1  -1    1.81    0.29
   6   1   1    1.17    0.34
  -6   1  -1    1.49    0.36
   6  -1  -1    1.28    0.28
  -6  -1  -1    1.01    0.27
  -6   1   1    1.85    0.25
  -6  -1  -1    0.95    0.28
  -6   1   1    1.48    0.36
   6   1  -1    1.52    0.31
  -6   1  -2   46.94    1.34
  -6  -1   2   49.38    1.39
   6  -1  -2   46.37    1.30
  -6  -1   2   46.15    1.34
  -6   1  -2   48.32    1.29
  -6  -1  -2   45.71    1.28
   6   1  -2   46.80    1.31
  -6   1   2   47.61    1.33
  -6  -1   3    0.79    0.31
   6  -1  -3    1.14    0.26
  -6   1  -3    0.88    0.38
  -6   1  -3    1.07    0.35
   6  -1  -3    0.80    0.35
   6   1  -3    1.06    0.32
  -6   1   3    1.12    0.37
   6   1  -3    1.01    0.37
  -6  -1  -3    0.87    0.35
   6  -1  -4    5.37    0.47
  -6   1  -4    5.82    0.63
  -6   1  -4    5.87    0.50
  -6  -1   4    5.49    0.47
   6  -1  -4    5.78    0.55
  -6  -1  -4    5.98    0.51
   6   1  -4    6.96    0.50
   6   1  -4    6.47    0.55
  -6   1  -5    0.09    0.41
   6  -1  -5    1.18    0.47
  -6   1  -5    0.23    0.42
   6  -1  -5    0.12    0.33
  -6  -1  -5    1.06    0.44
   6   1  -5    0.31    0.47
   6   1  -5    0.33    0.39
   6  -1  -6    0.59    0.53
  -6   1  -6    0.07    0.48
   6   1  -6   -0.21    0.49
  -6  -1  -6   -0.52    0.47
   6   1  -6    0.19    0.45
  -6   1  -7    2.12    0.62
   6  -1  -7    2.64    0.67
   6   1  -7    2.35    0.56
   6   1  -7    2.56    0.60
   6   1  -7    3.36    0.63
  -6  -1  -7    2.49    0.62
  -6   1  -8   -0.04    0.67
  -6  -1  -8    0.15    0.63
  -6  -2   0  718.37   16.94
  -6  -2   0  744.00   16.92
   6   2   0  739.61   16.95
  -6   2   0  781.14   16.88
  -6   2   0  758.56   16.98
  -6  -2   0  754.66   17.00
   6   2   1    5.06    0.46
  -6   2  -1    5.29    0.45
  -6  -2   1    5.92    0.61
  -6   2  -1    5.87    0.61
  -6  -2   1    5.35    0.53
  -6   2   1    5.70    0.35
  -6  -2  -1    5.38    0.46
   6   2  -1    5.06    0.51
  -6   2   1    4.72    0.46
  -6   2  -2  267.09    6.19
   6  -2  -2  264.90    6.21
  -6  -2   2  263.16    6.29
  -6   2  -2  275.80    6.28
  -6   2   2  272.09    6.25
   6   2  -2  271.74    6.23
  -6  -2  -2  267.23    6.20
  -6  -2   3    0.03    0.32
  -6   2  -3    0.35    0.35
   6  -2  -3    0.39    0.23
  -6   2  -3    0.18    0.38
   6  -2  -3   -0.09    0.35
  -6   2   3    0.00    0.36
  -6  -2  -3   -0.11    0.32
   6   2  -3    0.21    0.35
   6   2  -3    0.45    0.34
   6  -2  -4   14.51    0.86
  -6  -2   4   14.64    0.85
  -6   2  -4   14.11    0.78
  -6   2  -4   14.73    0.82
  -6  -2  -4   14.14    0.75
  -6   2   4   14.49    0.75
   6   2  -4   15.43    0.85
   6   2  -4   14.84    0.75
   6  -2  -5    0.17    0.49
  -6   2  -5    0.09    0.43
  -6   2  -5    0.13    0.47
  -6  -2  -5    0.95    0.44
   6   2  -5    0.30    0.42
   6   2  -5    0.19    0.47
   6  -2  -6    1.10    0.56
  -6   2  -6    0.39    0.50
  -6   2  -6   -0.40    0.52
   6   2  -6   -0.25    0.50
   6   2  -6    0.59    0.50
  -6  -2  -6    0.54    0.49
  -6   2  -7    0.68    0.61
  -6  -2  -7    1.95    0.62
   6   2  -7    0.56    0.54
   6   2  -7    1.51    0.58
   6   2  -7    0.69    0.56
  -6   2  -8   -0.23    0.68
  -6  -2  -8    0.22    0.75
   6   2  -8   -0.75    0.61
  -6  -3   0   24.65    0.82
  -6  -3   0   24.19    0.97
  -6   3   0   26.82    0.97
   6   3   0   24.29    0.93
  -6   3   0   24.98    0.74
  -6   3  -1   76.60    1.99
  -6   3  -1   76.03    1.84
  -6  -3   1   72.41    2.01
   6  -3  -1   70.77    1.86
  -6  -3  -1   75.90    1.88
   6   3  -1   74.25    1.94
  -6   3   1   77.42    1.96
  -6  -3  -1   73.33    1.96
  -6  -3   2    9.94    0.76
  -6   3  -2   11.84    0.75
  -6   3  -2   10.17    0.62
   6  -3  -2   10.95    0.66
  -6   3   2   10.11    0.69
  -6  -3  -2   10.35    0.60
   6   3  -2   10.77    0.70
  -6  -3  -2   10.88    0.68
   6  -3  -3   18.69    0.86
  -6   3  -3   18.39    0.82
  -6  -3   3   19.05    0.93
  -6   3  -3   19.22    0.90
   6   3  -3   18.93    0.88
  -6   3   3   18.23    0.80
  -6  -3  -3   17.98    0.76
   6   3  -3   17.08    0.79
   6  -3  -4    1.45    0.48
  -6   3  -4    0.85    0.49
  -6   3  -4    0.79    0.44
  -6  -3   4    0.56    0.40
   6   3  -4    0.65    0.46
   6   3  -4    1.19    0.42
  -6  -3  -4    0.30    0.38
  -6  -3   5    2.54    0.52
  -6   3  -5    3.30    0.60
   6  -3  -5    3.99    0.61
  -6   3  -5    3.41    0.54
  -6  -3  -5    2.77    0.48
   6   3  -5    3.64    0.55
   6   3  -5    3.79    0.54
   6  -3  -6    0.80    0.57
  -6   3  -6    0.19    0.57
  -6   3  -6    1.02    0.55
  -6  -3  -6    0.08    0.48
   6   3  -6    0.67    0.52
   6   3  -6    1.01    0.57
   6   3  -6   -0.02    0.56
  -6   3  -7    7.28    0.82
   6   3  -7    5.73    0.73
   6   4   0   24.65    0.97
  -6  -4   0   22.29    0.99
  -6   4   0   24.90    1.02
  -6  -4   1   29.39    1.15
  -6   4  -1   30.80    1.15
   6  -4  -1   29.57    0.95
  -6   4  -1   30.04    0.90
  -6  -4  -1   29.34    0.95
  -6   4   1   30.23    1.09
  -6  -4  -1   30.73    1.10
   6   4  -1   28.73    1.06
  -6   4  -2    3.10    0.54
  -6   4  -2    3.16    0.42
   6  -4  -2    4.00    0.46
  -6  -4   2    2.37    0.44
  -6   4   2    3.63    0.49
  -6  -4  -2    2.76    0.39
   6   4  -2    3.12    0.47
  -6  -4  -2    2.94    0.38
   6  -4  -3   19.30    0.92
  -6   4  -3   18.64    0.88
  -6   4  -3   20.31    1.00
  -6  -4   3   19.54    1.07
  -6  -4  -3   19.75    0.81
   6   4  -3   19.47    0.86
   6   4  -3   20.05    0.95
  -6   4   3   18.91    0.85
  -6   4  -4   18.31    1.02
   6  -4  -4   17.69    0.97
  -6   4  -4   17.14    0.93
  -6  -4   4   18.69    1.09
   6   4  -4   16.43    0.86
  -6  -4  -4   17.29    0.81
   6   4  -4   17.95    0.96
   6  -4  -5   12.81    0.97
  -6   4  -5   12.80    1.01
  -6  -4   5   12.63    1.12
  -6   4  -5   11.32    0.92
   6   4  -5   13.32    0.92
  -6  -4  -5   13.08    0.77
   6   4  -5   11.03    0.86
   6   4  -5   13.02    0.97
  -6   4  -6   19.54    1.14
  -6   4  -6   17.84    1.18
   6  -4  -6   20.60    1.17
   6   4  -6   18.93    1.16
   6   4  -6   19.25    1.08
  -6   4  -7    5.71    0.79
   6   4  -7    5.27    0.78
  -6   5   0   77.18    2.15
  -6  -5   0   76.03    2.16
   6   5   0   77.26    2.10
  -6   5  -1   16.11    1.01
  -6  -5   1   14.36    0.97
   6  -5  -1   14.63    0.69
  -6   5   1   15.13    0.89
  -6  -5  -1   14.53    0.70
   6   5  -1   15.23    0.88
  -6  -5  -1   14.85    0.91
  -6  -5   2   45.17    1.62
  -6   5  -2   48.59    1.36
   6  -5  -2   48.21    1.43
  -6   5  -2   47.70    1.58
  -6   5   2   46.63    1.47
  -6  -5  -2   47.06    1.37
  -6  -5  -2   49.67    1.54
   6   5  -2   47.75    1.47
   6  -5  -3   16.85    0.91
  -6  -5   3   16.93    1.11
  -6   5  -3   15.41    1.04
  -6   5  -3   17.82    0.86
  -6  -5  -3   17.22    0.79
   6   5  -3   16.10    0.82
   6   5  -3   17.81    0.92
   6  -5  -4    9.61    0.85
  -6   5  -4    9.38    0.85
  -6  -5   4   10.07    1.12
  -6   5  -4    9.90    0.72
   6   5  -4    9.10    0.78
   6   5  -4   10.29    0.88
   6   5  -4   10.02    0.84
  -6   5  -5    5.78    0.70
  -6  -5   5    5.34    0.75
   6  -5  -5    6.86    0.70
  -6   5  -5    6.07    0.80
   6   5  -5    6.15    0.68
   6   5  -5    7.22    0.82
  -6   5  -6   -0.13    0.65
  -6   5  -6    0.00    0.86
   6   5  -6    0.97    0.64
  -6   5  -7   -0.15    0.74
   6   5  -7   -0.54    0.67
   6   6   0  167.01    4.15
  -6  -6   0  174.86    4.27
  -6   6   0  165.22    4.19
  -6   6  -1    0.35    0.64
  -6  -6   1    0.32    0.45
   6   6  -1    0.49    0.48
  -6   6   1    0.93    0.54
  -6  -6  -1    0.50    0.42
   6   6  -1   -0.52    0.46
   6  -6  -2   64.52    1.81
  -6  -6   2   63.88    2.06
  -6   6  -2   65.05    2.01
   6   6  -2   66.02    1.89
   6   6  -2   65.30    1.90
   6   6  -2   66.17    1.80
  -6  -6  -2   66.58    1.94
  -6  -6  -2   64.15    1.76
  -6  -6   3    0.10    0.55
  -6   6  -3    0.83    0.50
   6  -6  -3    1.28    0.46
  -6   6  -3    0.29    0.64
   6   6  -3    0.74    0.48
   6   6  -3    0.58    0.48
   6   6  -3   -0.48    0.56
   6  -6  -4    1.10    0.51
  -6  -6   4    0.14    0.65
  -6   6  -4    1.96    0.59
  -6   6  -4    2.22    0.75
   6   6  -4    0.96    0.67
   6   6  -4    0.59    0.52
   6  -6  -5    1.07    0.55
  -6  -6   5    0.87    0.69
  -6   6  -5   -0.40    0.75
  -6   6  -5    0.45    0.63
   6   6  -5    1.14    0.62
   6   6  -5    0.54    0.65
  -6  -6   6    0.47    0.79
  -6   6  -6    1.14    0.73
   6   6  -6    1.08    0.69
  -6  -7   0    2.86    0.60
   6   7   0    3.59    0.61
  -6   7   0    4.46    0.79
   6   7   1   62.20    1.98
  -6   7  -1   59.76    2.02
  -6  -7   1   64.78    2.16
   6   7  -1   67.84    2.13
   6   7  -1   63.01    1.91
  -6  -7  -1   64.37    2.05
  -6   7  -2    1.49    0.74
  -6  -7   2    0.31    0.60
   6   7  -2    1.09    0.54
   6   7  -2    0.99    0.48
   6   7  -2    1.27    0.57
   6  -7  -3   20.26    1.04
  -6   7  -3   18.02    1.26
  -6  -7   3   20.40    1.45
   6   7  -3   18.02    1.02
   6   7  -3   20.09    1.13
  -6  -7   4    0.57    0.71
   6  -7  -4    0.74    0.54
  -6   7  -4   -0.35    0.76
   6   7  -4   -0.17    0.66
   6   7  -4    0.42    0.60
  -6  -7   5    4.22    0.85
  -6   7  -5    4.90    0.78
   6   7  -5    5.71    0.77
  -6  -7   6    0.50    0.85
  -6   7  -6   -0.20    0.75
   6   7  -6   -0.09    0.76
  -6  -8   0   52.79    1.95
  -6   8   0   46.29    2.24
   6   8   0   45.70    1.65
   6   8   1    4.47    0.76
  -6  -8   1    4.76    0.77
  -6   8  -1    4.64    0.86
   6   8  -1    3.93    0.68
   6   8  -1    3.65    0.66
  -6  -8  -1    4.01    0.68
  -6  -8   2   17.40    1.47
  -6   8  -2   15.96    1.32
   6   8  -2   17.13    1.28
   6   8  -2   16.29    0.97
  -6  -8   3    2.95    0.81
  -6   8  -3    2.31    0.93
   6   8  -3    3.59    0.64
   6   8  -3    3.18    0.74
  -6  -8   4    0.29    0.79
   6   8  -4    1.03    0.67
  -6  -8   5    2.16    0.91
   6   8  -5    3.32    0.82
  -6  -9   0   31.48    1.72
   6   9   0   23.72    1.35
   6   9   1    6.72    0.87
  -6  -9   1    6.13    0.90
  -6   9  -1    4.61    1.47
  -6  -9  -1    6.81    0.88
  -6   9  -2   15.11    1.47
  -6  -9   2   18.93    1.69
  -6  -9   3    7.11    1.06
   6   9  -3    8.21    0.83
  -6  -9   4    2.50    0.99
   6   9  -4    4.38    0.79
  -6 -10   0   15.38    1.71
  -6 -10   1   -0.05    0.91
  -6 -10   2    3.92    1.06
   7   0   0   -0.27    0.26
  -7   0   0   -0.11    0.26
  -7   0   0   -0.13    0.35
   7   0  -1   20.71    0.77
  -7   0  -1   19.87    0.80
   7   0   1   20.67    0.74
  -7   0   1   21.64    0.84
  -7   0   1   22.10    0.71
  -7   0  -1   21.33    0.75
   7   0   2    2.09    0.38
   7   0  -2    2.48    0.38
  -7   0  -2    2.45    0.40
  -7   0  -2    1.64    0.36
  -7   0   2    2.38    0.42
   7   0  -3   44.20    1.35
  -7   0  -3   46.52    1.35
  -7   0  -3   45.69    1.34
  -7   0   3   43.61    1.37
  -7   0  -4    0.01    0.42
  -7   0   4    0.53    0.37
   7   0  -4    0.28    0.43
  -7   0  -4    0.28    0.44
   7   0  -4    0.56    0.36
   7   0  -5   14.56    0.95
   7   0  -5   14.85    0.75
  -7   0  -5   15.06    0.90
   7   0  -6    1.99    0.50
  -7   0  -6    2.69    0.59
   7   0  -6    2.31    0.59
  -7   0  -7   -0.31    0.59
  -7   0  -8   -0.30    0.67
   7  -1   0   -0.02    0.26
  -7   1   0   -0.41    0.37
   7   1   0   -0.19    0.30
  -7  -1   0    0.52    0.35
  -7   1   0   -0.35    0.24
  -7  -1   0    0.15    0.28
  -7   1  -1   12.87    0.62
  -7  -1   1   13.55    0.71
   7  -1  -1   13.60    0.63
   7   1   1   13.93    0.68
  -7  -1   1   14.62    0.60
  -7   1  -1   13.67    0.72
  -7  -1  -1   13.79    0.63
  -7  -1  -1   14.48    0.66
  -7   1   1   14.18    0.55
  -7   1   1   13.87    0.73
   7   1  -1   13.95    0.68
   7  -1  -2    0.92    0.34
  -7   1  -2    1.53    0.42
  -7  -1   2    0.96    0.39
  -7   1  -2    1.86    0.36
  -7   1   2    1.18    0.38
  -7  -1  -2    1.23    0.35
   7   1  -2    1.41    0.36
  -7  -1  -2    0.97    0.33
  -7   1  -3   34.02    1.13
  -7   1  -3   36.37    1.19
  -7  -1   3   36.73    1.23
   7  -1  -3   34.72    1.16
  -7  -1  -3   34.42    1.14
  -7   1   3   35.32    1.17
   7   1  -3   35.80    1.18
  -7   1  -4    0.85    0.43
  -7  -1   4    0.50    0.38
   7  -1  -4    1.01    0.32
  -7   1  -4    0.68    0.47
   7  -1  -4    0.94    0.46
  -7  -1  -4    1.10    0.44
   7   1  -4    0.61    0.45
   7   1  -4    0.66    0.40
   7  -1  -5    6.11    0.65
  -7   1  -5    4.98    0.58
  -7   1  -5    5.32    0.58
  -7  -1  -5    3.86    0.57
   7   1  -5    4.99    0.63
   7   1  -5    5.75    0.55
  -7   1  -6    6.61    0.70
   7  -1  -6    7.50    0.76
  -7  -1  -6    7.50    0.71
   7   1  -6    7.66    0.74
   7   1  -6    7.39    0.65
  -7   1  -7    1.69    0.66
   7   1  -7    1.26    0.54
   7   1  -7    0.68    0.71
  -7  -1  -7    2.44    0.65
  -7   2   0    0.06    0.24
   7  -2   0    0.43    0.25
   7   2   0    0.06    0.33
  -7  -2   0   -0.15    0.28
  -7   2   0   -0.10    0.38
  -7  -2   0    0.40    0.34
  -7  -2   1    1.46    0.40
  -7  -2   1    1.23    0.35
   7   2   1    0.97    0.40
  -7   2  -1    1.46    0.33
  -7   2  -1    1.15    0.44
   7  -2  -1    1.64    0.33
  -7   2   1    1.23    0.26
  -7  -2  -1    1.55    0.33
  -7   2   1    1.58    0.42
  -7  -2  -1    1.08    0.33
   7   2  -1    1.64    0.37
  -7   2  -2    4.30    0.43
  -7  -2   2    4.03    0.43
   7  -2  -2    4.71    0.44
  -7   2  -2    4.51    0.53
  -7   2   2    4.86    0.51
   7   2  -2    5.12    0.48
  -7  -2  -2    4.74    0.42
   7  -2  -3    1.80    0.44
  -7   2  -3    2.11    0.43
  -7  -2   3    1.72    0.41
  -7   2  -3    1.56    0.49
  -7   2   3    2.16    0.46
   7   2  -3    2.07    0.44
  -7  -2  -3    1.66    0.40
  -7   2  -4   15.02    0.86
  -7   2  -4   14.46    0.90
   7  -2  -4   14.51    0.90
  -7  -2   4   15.07    0.94
   7   2  -4   16.52    0.79
  -7   2   4   15.27    0.83
  -7  -2  -4   15.09    0.82
   7   2  -4   13.70    0.90
  -7   2  -5   10.21    0.84
  -7   2  -5   10.30    0.88
   7  -2  -5    9.66    0.91
   7   2  -5    9.95    0.78
   7   2  -5    8.68    0.90
  -7  -2  -5    9.98    0.82
  -7   2  -6   16.44    1.03
   7  -2  -6   15.93    1.09
   7   2  -6   15.43    1.08
   7   2  -6   15.28    0.95
  -7  -2  -6   17.53    0.99
  -7   2  -7   22.81    1.26
   7   2  -7   19.23    1.46
   7   2  -7   21.60    1.74
  -7  -2  -7   24.90    1.21
   7   2  -7   21.13    1.11
  -7  -3   0   -0.10    0.34
  -7  -3   0    0.11    0.32
   7   3   0    0.08    0.39
  -7  -3   0    0.24    0.36
  -7   3   0   -0.02    0.43
  -7   3   0    0.17    0.28
  -7   3  -1    4.17    0.57
  -7  -3   1    3.52    0.46
   7   3   1    4.52    0.52
   7  -3  -1    3.92    0.39
  -7   3  -1    3.86    0.39
   7   3  -1    4.13    0.47
  -7   3   1    4.54    0.53
  -7  -3  -1    3.47    0.42
  -7  -3  -1    4.49    0.42
  -7   3  -2    0.66    0.37
   7  -3  -2   -0.24    0.37
  -7  -3   2    0.11    0.38
  -7   3  -2    0.72    0.49
  -7   3   2    0.23    0.41
  -7  -3  -2    0.01    0.34
   7   3  -2    0.06    0.40
  -7  -3  -2   -0.29    0.33
  -7   3  -3   13.00    0.90
  -7   3  -3   13.99    0.80
   7  -3  -3   13.33    0.84
  -7  -3   3   13.27    0.95
  -7   3   3   13.59    0.77
   7   3  -3   13.80    0.85
  -7  -3  -3   13.10    0.74
  -7  -3   4    9.56    0.93
  -7   3  -4    8.96    0.87
   7  -3  -4   10.27    0.86
  -7   3  -4   10.50    0.82
   7   3  -4    9.34    0.73
  -7  -3  -4   10.13    0.71
  -7   3   4   10.41    0.75
   7   3  -4   11.26    0.90
  -7  -3   5    0.38    0.51
  -7   3  -5    0.35    0.51
   7  -3  -5    0.42    0.54
  -7   3  -5   -0.51    0.55
  -7  -3  -5    0.56    0.46
   7   3  -5    0.74    0.48
   7   3  -5    0.72    0.53
  -7   3  -6   20.77    1.19
  -7   3  -6   21.42    1.16
   7  -3  -6   20.95    1.22
   7   3  -6   20.17    1.17
   7   3  -6   21.79    1.08
  -7  -3  -6   22.18    1.08
  -7   3  -7    6.03    0.82
   7   3  -7    6.13    0.73
  -7  -3  -7    5.24    0.80
  -7  -4   0   -0.67    0.38
  -7   4   0    0.13    0.51
   7   4   0   -0.28    0.43
  -7  -4   1    9.35    0.86
   7   4   1    9.95    0.82
  -7   4  -1    9.87    0.88
   7  -4  -1   10.74    0.63
  -7   4  -1    9.68    0.62
  -7  -4  -1   10.94    0.82
   7   4  -1   11.04    0.79
  -7  -4  -1   10.49    0.65
  -7   4   1   10.36    0.80
  -7   4  -2    0.40    0.41
  -7   4  -2   -0.07    0.55
   7  -4  -2    0.15    0.40
  -7  -4   2    0.39    0.42
  -7  -4  -2    0.44    0.36
   7   4  -2    0.62    0.45
  -7  -4  -2   -0.13    0.37
  -7   4   2    0.37    0.46
  -7   4  -3   23.47    1.14
   7  -4  -3   24.68    1.03
  -7  -4   3   23.23    1.19
  -7   4  -3   24.01    1.00
  -7  -4  -3   22.69    0.93
   7   4  -3   25.42    1.09
   7   4  -3   23.60    0.96
  -7   4   3   23.45    0.98
  -7   4  -4    1.58    0.53
   7  -4  -4    1.81    0.53
  -7   4  -4    0.82    0.59
  -7  -4   4    1.27    0.52
   7   4  -4    0.52    0.46
  -7  -4  -4    0.61    0.42
   7   4  -4    0.55    0.51
  -7   4  -5    5.68    0.68
   7  -4  -5    6.11    0.71
  -7  -4   5    5.71    0.68
  -7   4  -5    4.99    0.75
  -7  -4  -5    4.39    0.55
   7   4  -5    7.01    0.69
   7   4  -5    6.14    0.69
  -7   4  -6    3.79    0.72
   7  -4  -6    2.79    0.68
  -7   4  -6    2.12    0.72
   7   4  -6    3.49    0.66
   7   4  -6    3.07    0.72
   7   4  -6    2.76    0.68
  -7   4  -7   -0.02    0.71
   7   4  -7   -0.38    0.61
  -7   5   0    0.31    0.59
   7   5   0   -0.26    0.50
  -7  -5   0   -0.08    0.42
  -7  -5   1   10.72    0.98
  -7   5  -1   11.72    1.00
   7   5   1   11.41    0.93
   7  -5  -1   13.39    0.73
  -7  -5  -1   11.02    0.70
  -7  -5  -1   11.54    0.92
   7   5  -1   11.62    0.89
  -7   5   1   10.89    0.89
   7  -5  -2    4.40    0.49
  -7   5  -2    4.27    0.71
  -7  -5   2    3.00    0.55
  -7   5  -2    4.90    0.50
   7   5  -2    4.36    0.57
  -7  -5  -2    3.24    0.48
  -7  -5  -2    4.60    0.48
  -7   5   2    3.51    0.56
  -7   5  -3   32.10    1.18
  -7   5  -3   31.56    1.37
   7  -5  -3   33.15    1.20
  -7  -5   3   31.80    1.45
  -7  -5  -3   32.01    1.11
   7   5  -3   32.18    1.25
   7   5  -3   31.19    1.16
   7  -5  -4    3.22    0.55
  -7  -5   4    1.78    0.59
  -7   5  -4    3.15    0.60
  -7   5  -4    2.91    0.70
   7   5  -4    2.72    0.60
  -7  -5  -4    3.68    0.51
   7   5  -4    2.53    0.53
   7  -5  -5    7.77    0.75
  -7  -5   5    6.82    0.81
  -7   5  -5    8.04    0.76
  -7   5  -5    6.61    0.86
   7   5  -5    8.01    0.86
   7   5  -5    6.98    0.77
   7   5  -5    7.59    0.75
  -7   5  -6   -0.38    0.67
   7   5  -6   -0.09    0.62
  -7   5  -7   -0.61    0.76
   7   5  -7   -0.11    0.69
  -7   6   0   -0.28    0.63
   7   6   0   -0.36    0.51
  -7  -6   0    0.50    0.49
   7   6   1    2.61    0.62
  -7  -6   1    2.19    0.55
  -7   6  -1    2.94    0.70
  -7   6   1    2.92    0.61
   7   6  -1    1.82    0.57
  -7  -6  -1    1.99    0.53
   7  -6  -2    0.50    0.65
  -7   6  -2    1.04    0.71
  -7  -6   2   -0.10    0.51
  -7  -6  -2    0.76    0.42
  -7  -6  -2    0.24    0.48
   7   6  -2    0.20    0.50
  -7   6  -3    3.46    0.81
  -7   6  -3    4.86    0.63
   7  -6  -3    4.15    0.56
  -7  -6   3    3.02    0.66
   7   6  -3    4.56    0.72
   7   6  -3    4.10    0.59
   7   6  -3    4.25    0.63
   7  -6  -4    3.21    0.57
  -7   6  -4    3.33    0.82
  -7   6  -4    3.86    0.64
  -7  -6   4    2.54    0.73
   7   6  -4    3.00    0.61
   7   6  -4    3.29    0.64
   7   6  -4    3.05    0.73
   7  -6  -5    1.03    0.56
  -7   6  -5    0.10    0.64
  -7  -6   5   -0.20    0.69
   7   6  -5    0.30    0.62
  -7  -6   6    3.41    0.88
  -7   6  -6    4.55    0.83
   7   6  -6    6.49    0.83
  -7   7   0    0.35    0.69
   7   7   0   -0.08    0.58
  -7  -7   0    0.03    0.52
  -7  -7   1    0.83    0.60
  -7   7  -1    0.65    0.75
   7   7   1    1.82    0.64
  -7  -7  -1    1.25    0.53
   7   7  -1    1.38    0.59
  -7   7   1    0.90    0.71
  -7   7  -2    0.74    0.78
  -7  -7   2    1.24    0.64
   7   7  -2    1.52    0.58
   7   7  -2    0.46    0.56
   7   7  -2   -0.16    0.49
  -7  -7   3    3.42    0.78
  -7   7  -3    3.36    0.86
   7   7  -3    4.81    0.74
   7   7  -3    4.54    0.66
   7   7  -3    4.38    0.69
  -7  -7   4    6.38    0.92
  -7   7  -4    8.79    1.13
   7  -7  -4   10.24    0.95
   7   7  -4    9.56    0.83
   7   7  -4    9.44    0.93
  -7  -7   5   -1.06    0.75
  -7   7  -5   -0.78    0.68
   7   7  -5   -0.06    0.69
  -7   8   0    0.51    0.75
  -7  -8   0    0.58    0.65
   7   8   0    0.03    0.62
   7   8   1    0.37    0.66
  -7  -8   1    1.69    0.72
  -7   8  -1    1.91    0.85
  -7  -8  -1    1.20    0.62
   7   8  -1    2.07    0.65
  -7  -8   2   -0.21    0.72
  -7   8  -2    0.98    0.86
   7   8  -2   -0.19    0.58
   7   8  -2    0.66    0.54
  -7  -8   3    2.98    0.86
  -7   8  -3    3.05    1.36
   7   8  -3    3.64    0.70
   7   8  -3    4.09    0.78
  -7  -8   4    2.70    0.88
   7   8  -4    1.40    0.72
  -7  -8   5   -0.44    0.84
   7   8  -5    0.21    0.73
   7   9   0   -0.13    0.65
  -7  -9   0   -0.91    0.73
   7   9   1    2.39    0.84
  -7   9  -1    3.92    1.03
  -7  -9   1    3.30    0.86
  -7  -9  -1    3.19    0.79
  -7  -9   2    0.79    0.84
  -7  -9   3    8.25    1.06
   7   9  -3    9.84    0.91
  -7 -10   0   -0.29    0.89
  -7 -10   1    0.08    0.95
  -7 -10   2   -1.00    0.94
  -8   0   0   40.89    1.14
  -8   0   0   40.60    1.25
   8   0   0   39.65    1.18
  -8   0   1   71.91    1.94
   8   0   1   71.16    1.85
  -8   0   1   73.63    1.82
  -8   0  -1   69.72    1.84
  -8   0  -1   71.76    1.92
   8   0  -1   75.14    1.89
  -8   0   2   25.32    1.01
  -8   0  -2   26.14    0.99
  -8   0  -2   25.67    0.95
   8   0   2   24.57    0.90
   8   0  -2   25.87    0.95
  -8   0  -3   88.89    2.32
   8   0  -3   89.19    2.34
  -8   0   3   89.14    2.37
  -8   0  -3   90.76    2.34
   8   0  -4    4.92    0.48
  -8   0  -4    2.74    0.52
  -8   0  -4    4.22    0.57
  -8   0   4    3.03    0.48
   8   0  -4    3.75    0.58
  -8   0  -5   34.41    1.30
   8   0  -5   32.03    1.32
   8   0  -5   31.41    1.12
   8   0  -6    1.94    0.63
  -8   0  -6    0.94    0.61
   8   0  -6    1.25    0.70
  -8   0  -7    0.76    0.66
   8  -1   0   59.46    1.56
  -8  -1   0   58.59    1.57
  -8   1   0   57.95    1.53
  -8   1   0   60.82    1.68
   8   1   0   61.16    1.63
  -8  -1   0   59.63    1.65
  -8   1  -1   42.12    1.21
   8  -1  -1   41.93    1.23
  -8  -1   1   42.60    1.20
   8   1   1   43.17    1.27
  -8   1  -1   42.03    1.31
  -8  -1   1   40.43    1.30
  -8   1   1   44.02    1.16
   8   1  -1   43.31    1.29
  -8   1   1   43.24    1.33
  -8  -1  -1   41.49    1.26
  -8  -1  -1   42.55    1.23
   8  -1   1   40.38    1.15
  -8   1  -2   10.52    0.79
   8   1   2   10.83    0.75
   8  -1  -2    9.59    0.69
  -8   1  -2    9.27    0.68
  -8  -1   2    9.26    0.73
  -8   1   2    9.20    0.72
  -8  -1  -2   10.09    0.68
  -8  -1  -2    8.83    0.68
   8   1  -2    9.88    0.72
  -8   1  -3    9.15    0.83
  -8  -1   3   10.38    0.87
  -8  -1   3   10.89    0.81
   8  -1  -3   10.80    0.80
  -8   1  -3   10.83    0.78
   8   1  -3   11.00    0.82
  -8   1   3   10.31    0.78
  -8  -1  -3   10.91    0.77
  -8  -1   4   13.91    0.94
  -8   1  -4   13.18    0.89
   8  -1  -4   12.78    0.66
  -8   1  -4   12.58    0.88
   8  -1  -4   12.41    0.91
  -8  -1  -4   12.87    0.87
   8   1  -4   13.29    0.90
  -8   1   4   11.93    0.85
   8   1  -4   13.17    0.74
   8  -1  -5    1.74    0.60
  -8   1  -5    1.67    0.55
  -8   1  -5    1.24    0.57
   8   1  -5    1.69    0.49
  -8  -1  -5    1.73    0.54
   8   1  -5    1.60    0.58
  -8   1  -6   21.30    1.15
   8  -1  -6   19.98    1.17
   8   1  -6   21.20    1.17
  -8  -1  -6   20.38    1.15
   8   1  -6   20.20    1.00
  -8   1  -7    0.27    0.66
   8   1  -7    0.03    0.53
  -8  -1  -7    1.51    0.66
   8  -2   0   41.41    1.16
  -8   2   0   41.50    1.15
  -8  -2   0   42.52    1.30
  -8   2   0   42.24    1.33
  -8  -2   0   42.75    1.23
   8   2   0   41.87    1.29
   8  -2  -1   66.79    1.76
  -8   2  -1   68.33    1.90
  -8  -2   1   67.73    1.87
  -8  -2   1   68.79    1.96
  -8   2  -1   67.94    1.76
   8   2   1   71.15    1.85
  -8   2   1   66.18    1.69
   8   2  -1   67.92    1.84
  -8  -2  -1   68.26    1.79
  -8  -2  -1   67.31    1.80
  -8   2   1   67.48    1.87
  -8   2  -2   24.26    1.08
   8  -2  -2   24.73    0.95
   8   2   2   26.28    1.02
  -8  -2   2   23.95    1.10
  -8   2  -2   24.76    0.94
  -8  -2   2   24.60    1.01
   8   2  -2   23.94    0.98
  -8   2   2   24.64    1.02
  -8  -2  -2   24.22    0.93
  -8  -2   3   25.92    1.16
  -8   2  -3   26.17    1.05
   8  -2  -3   27.00    1.07
  -8   2  -3   26.46    1.15
  -8  -2  -3   25.66    1.01
  -8   2   3   26.78    1.08
   8   2  -3   25.75    1.06
  -8   2  -4   12.69    0.87
  -8  -2   4   10.99    0.99
   8  -2  -4   12.66    0.91
  -8   2  -4   11.45    0.93
  -8  -2  -4   12.84    0.83
   8   2  -4   10.71    0.75
  -8   2   4   11.61    0.83
   8   2  -4   12.00    0.91
  -8   2  -5    7.07    0.68
   8  -2  -5    8.16    0.78
  -8   2  -5    6.27    0.74
   8   2  -5    8.25    0.67
  -8  -2  -5    7.02    0.66
   8   2  -5    6.48    0.70
   8  -2  -6    3.45    0.71
  -8   2  -6    3.55    0.66
   8   2  -6    2.40    0.66
   8   2  -6    3.34    0.60
  -8  -2  -6    3.18    0.64
  -8   2  -7    9.99    0.93
  -8  -2  -7    8.71    0.87
   8   2  -7    7.60    0.77
  -8  -3   0  178.32    4.38
  -8  -3   0  183.15    4.25
  -8   3   0  173.14    4.15
   8   3   0  180.63    4.31
  -8   3   0  175.86    4.34
  -8  -3   0  183.59    4.29
  -8  -3   1   31.09    1.24
   8  -3  -1   31.10    1.02
   8   3   1   33.54    1.16
  -8   3  -1   31.06    1.01
  -8   3  -1   32.75    1.24
  -8  -3  -1   32.67    1.06
  -8  -3  -1   31.20    1.19
  -8  -3  -1   32.88    1.07
   8   3  -1   31.56    1.15
  -8   3   1   31.96    1.19
  -8   3  -2   73.14    2.08
  -8   3  -2   73.54    1.93
   8  -3  -2   73.32    1.95
  -8  -3   2   73.29    2.12
  -8  -3  -2   72.03    2.00
  -8   3   2   71.29    2.01
  -8  -3  -2   73.31    1.93
   8   3  -2   72.75    2.02
  -8   3  -3   13.20    0.86
   8  -3  -3   14.68    0.89
  -8   3  -3   14.23    1.00
  -8  -3   3   14.16    1.03
  -8  -3  -3   14.87    0.81
  -8   3   3   13.56    0.83
   8   3  -3   13.17    0.91
  -8   3  -4    0.90    0.60
   8  -3  -4    0.79    0.53
  -8   3  -4    0.57    0.52
  -8  -3   4    0.40    0.48
  -8   3   4    0.54    0.50
   8   3  -4    0.18    0.52
  -8  -3  -4    0.94    0.46
   8   3  -4    1.21    0.46
  -8   3  -5    1.02    0.62
   8  -3  -5    1.29    0.60
  -8  -3   5    0.88    0.55
  -8   3  -5    1.80    0.59
   8   3  -5    0.97    0.58
   8   3  -5    1.11    0.51
  -8  -3  -5    1.16    0.50
  -8   3  -6    4.62    0.78
   8  -3  -6    7.60    0.84
  -8   3  -6    5.77    0.76
  -8  -3  -6    5.72    0.70
   8   3  -6    7.24    0.72
   8   3  -6    7.37    0.79
  -8   3  -7    1.27    0.75
  -8  -3  -7    1.79    0.69
   8   3  -7   -0.17    0.62
  -8   4   0   26.35    1.16
   8   4   0   27.38    1.12
  -8  -4   0   26.57    1.21
   8   4   1   20.30    1.03
  -8   4  -1   21.24    0.84
   8  -4  -1   20.72    0.84
  -8   4  -1   20.27    1.11
  -8  -4   1   20.76    1.14
   8   4  -1   21.59    1.03
  -8  -4  -1   20.23    1.05
  -8  -4  -1   21.58    0.89
  -8   4   1   21.57    1.01
  -8  -4   2   15.69    1.06
  -8   4  -2   16.06    0.85
  -8   4  -2   16.10    1.05
   8  -4  -2   15.86    0.85
  -8   4   2   14.57    0.91
  -8  -4  -2   16.44    0.95
  -8  -4  -2   16.03    0.81
   8   4  -2   17.71    0.98
  -8   4  -3   37.48    1.29
  -8   4  -3   37.59    1.45
   8  -4  -3   37.72    1.30
  -8  -4   3   36.72    1.50
  -8  -4  -3   36.75    1.23
  -8   4   3   36.09    1.29
   8   4  -3   36.73    1.37
  -8   4  -4    3.40    0.60
   8  -4  -4    2.51    0.61
  -8  -4   4    3.04    0.61
  -8   4  -4    2.70    0.71
   8   4  -4    2.84    0.54
   8   4  -4    2.66    0.62
  -8  -4  -4    3.69    0.54
  -8   4  -5   13.90    1.14
  -8   4  -5   15.92    1.08
  -8  -4   5   15.27    1.28
   8  -4  -5   17.72    1.12
   8   4  -5   16.88    0.99
   8   4  -5   15.02    1.11
  -8  -4  -5   16.66    0.96
  -8   4  -6    1.80    0.70
  -8   4  -6    0.31    0.73
   8   4  -6    1.77    0.63
   8   4  -6    0.79    0.67
  -8  -4  -6    1.18    0.65
  -8   4  -7    0.50    0.73
   8   4  -7   -0.15    0.66
  -8  -5   0    1.77    0.51
   8   5   0    2.84    0.58
  -8   5   0    2.53    0.65
   8   5   1   24.26    1.14
  -8  -5   1   25.98    1.25
  -8   5  -1   24.84    1.26
  -8   5   1   23.16    1.12
  -8  -5  -1   23.84    1.19
   8   5  -1   23.40    1.15
  -8  -5  -1   23.45    0.97
  -8   5  -2    3.39    0.51
   8  -5  -2    3.60    0.49
  -8  -5   2    1.95    0.55
  -8   5  -2    2.65    0.70
  -8  -5  -2    3.10    0.50
  -8  -5  -2    2.04    0.48
  -8   5   2    3.17    0.57
   8   5  -2    2.15    0.56
  -8   5  -3    5.94    0.64
  -8  -5   3    5.01    0.69
  -8   5  -3    6.15    0.82
   8  -5  -3    6.00    0.62
   8   5  -3    6.20    0.63
   8   5  -3    5.77    0.70
  -8  -5  -3    6.01    0.58
  -8   5  -4   32.06    1.48
  -8  -5   4   32.97    1.61
   8  -5  -4   31.30    1.29
  -8   5  -4   32.53    1.28
  -8  -5  -4   33.66    1.20
   8   5  -4   30.13    1.23
   8   5  -4   31.38    1.36
  -8   5  -5    0.70    0.77
  -8  -5   5    0.57    0.67
  -8   5  -5    1.15    0.66
   8  -5  -5    1.71    0.61
   8   5  -5    2.22    0.68
   8   5  -5    1.64    0.60
   8   5  -5    1.77    0.74
  -8   5  -6   23.46    1.33
   8   5  -6   23.15    1.25
  -8  -6   0   21.50    1.27
  -8   6   0   19.14    1.18
   8   6   0   20.88    1.14
  -8  -6   1    5.97    0.73
  -8   6  -1    7.33    0.88
   8   6   1    7.73    0.78
   8   6  -1    6.75    0.74
  -8   6   1    9.14    0.79
  -8  -6  -1    6.84    0.70
  -8  -6   2   15.56    1.25
  -8   6  -2   11.93    1.19
  -8  -6  -2   14.47    1.15
  -8   6   2   14.67    1.25
  -8  -6  -2   15.02    0.87
   8   6  -2   12.44    1.03
   8  -6  -3    1.09    0.50
  -8   6  -3    1.00    0.77
  -8  -6   3    0.53    0.63
   8   6  -3    2.34    0.57
   8   6  -3    1.04    0.61
  -8  -6  -3    1.28    0.54
  -8  -6   4    5.35    0.84
  -8   6  -4    5.81    0.73
  -8   6  -4    5.74    0.94
   8  -6  -4    5.80    0.67
   8   6  -4    6.06    0.82
   8   6  -4    4.98    0.70
   8   6  -4    6.06    0.75
  -8  -6   5   -0.22    0.76
   8  -6  -5    0.84    0.67
  -8   6  -5    0.48    0.69
   8   6  -5    0.66    0.65
  -8   6  -6    1.15    0.78
  -8  -6   6    1.00    0.86
   8   6  -6    1.27    0.71
   8   7   0  117.48    3.12
  -8  -7   0  119.41    3.26
  -8   7   0  110.03    3.15
   8   7   1   16.78    1.14
  -8  -7   1   16.18    1.35
  -8   7  -1   12.31    1.27
  -8   7   1   13.71    1.10
   8   7  -1   16.46    1.15
  -8  -7  -1   16.77    1.23
   8   7   2   57.06    1.94
  -8   7  -2   56.97    2.06
  -8  -7   2   60.84    2.16
   8   7  -2   55.96    1.83
   8   7  -2   59.68    1.90
  -8  -7   3    6.67    0.91
  -8   7  -3    5.64    0.97
   8   7  -3    7.00    0.79
   8   7  -3    6.60    0.74
   8   7  -3    6.50    0.80
  -8  -7   4    3.42    0.91
   8  -7  -4    5.09    1.01
   8   7  -4    5.16    0.77
  -8  -7   5    0.66    0.83
   8   7  -5    0.42    0.73
  -8   8   0    9.64    1.02
   8   8   0    8.61    0.87
  -8  -8   0    8.99    0.95
  -8   8  -1    0.40    0.87
   8   8   1   -0.57    0.64
  -8  -8   1    0.25    0.74
   8   8  -1    0.79    0.67
  -8  -8  -1    0.06    0.62
  -8  -8   2    6.06    0.96
   8   8   2    6.34    0.84
  -8   8  -2    5.46    0.99
   8   8  -2    6.04    0.80
   8   8  -2    6.22    0.70
  -8  -8   3    0.74    0.84
   8   8  -3    0.81    0.70
   8   8  -3    2.00    0.69
  -8  -8   4    0.21    0.89
   8   8  -4    1.88    0.74
  -8  -9   0   -0.66    0.77
  -8   9  -1    6.03    1.36
  -8  -9   1    5.13    0.97
  -8  -9  -1    5.99    1.10
   8   9  -1    6.52    1.05
  -8  -9   2    1.58    0.88
   8   9  -2    1.56    0.87
  -8  -9   3    0.39    0.91
   8   9  -3    2.50    0.74
  -8 -10   0    5.25    1.02
  -8 -10   1   -0.19    0.88
  -9   0   0   -0.12    0.33
  -9   0   0   -0.04    0.44
   9   0   0   -0.12    0.38
   9   0  -1    6.09    0.54
  -9   0  -1    5.73    0.48
   9   0   1    6.41    0.63
  -9   0   1    6.95    0.63
  -9   0  -1    6.28    0.59
  -9   0   1    6.55    0.55
   9   0   2   11.15    0.71
  -9   0  -2   10.63    0.80
  -9   0  -2   10.99    0.74
  -9   0   2   11.34    0.82
   9   0  -2   11.86    0.78
  -9   0  -3   51.27    1.58
  -9   0   3   51.08    1.62
  -9   0  -3   51.51    1.57
   9   0  -3   51.46    1.59
   9   0   3   52.23    1.50
  -9   0   4    8.56    0.97
   9   0  -4    6.38    0.67
  -9   0  -4   10.08    0.89
  -9   0  -4    8.51    0.85
   9   0  -4    7.91    0.67
   9   0  -5   40.93    1.53
  -9   0  -5   41.42    1.49
   9   0  -5   38.56    1.29
   9   0  -6    0.64    0.64
  -9   0  -6    0.12    0.62
  -9   0  -7   11.04    0.95
   9   1   0   -0.18    0.40
  -9  -1   0   -0.28    0.37
   9  -1   0   -0.16    0.35
  -9   1   0   -0.18    0.32
  -9  -1   0    0.11    0.45
  -9   1   0   -0.72    0.44
   9   1   1   14.25    0.79
  -9  -1   1   14.02    0.84
   9  -1  -1   15.06    0.76
  -9   1  -1   13.84    0.70
  -9  -1   1   15.18    0.71
  -9   1  -1   15.28    0.87
   9   1  -1   13.99    0.82
  -9   1   1   14.15    0.65
   9  -1   1   14.24    0.67
  -9   1   1   13.13    0.85
  -9  -1  -1   14.73    0.74
  -9  -1  -1   14.05    0.81
   9   1   2    0.40    0.44
  -9   1  -2    0.22    0.51
  -9   1  -2    0.36    0.44
   9  -1  -2    0.96    0.45
  -9  -1   2   -0.07    0.46
  -9  -1  -2   -0.70    0.45
   9   1  -2   -0.08    0.43
  -9  -1  -2    0.16    0.42
  -9   1   2    0.47    0.47
  -9   1  -3   42.57    1.49
  -9   1  -3   44.68    1.43
  -9  -1   3   44.57    1.49
  -9  -1   3   45.13    1.57
   9  -1  -3   45.00    1.46
  -9  -1  -3   43.79    1.41
   9   1  -3   46.43    1.49
  -9   1   3   43.62    1.48
  -9  -1  -3   44.74    1.39
  -9   1  -4    0.37    0.56
  -9   1  -4    0.45    0.53
   9  -1  -4    0.30    0.55
   9  -1  -4    1.19    0.45
  -9  -1   4    0.47    0.48
  -9   1   4    1.45    0.56
   9   1  -4    1.08    0.54
   9   1  -4    1.14    0.46
  -9  -1  -4    0.40    0.54
   9  -1  -5   10.18    0.87
  -9   1  -5   10.94    1.01
   9   1  -5   11.05    1.03
   9   1  -5   10.48    0.72
  -9  -1  -5   10.17    0.82
  -9   1  -6    2.70    0.70
   9  -1  -6    1.17    0.68
  -9  -1  -6    1.63    0.64
   9   1  -6    1.51    0.55
   9   1  -6    1.33    0.67
  -9   1  -7    0.47    0.71
  -9  -1  -7    1.50    0.73
   9   2   0    0.54    0.43
  -9   2   0   -0.51    0.47
  -9   2   0   -0.26    0.31
  -9  -2   0   -0.04    0.45
   9  -2   0    0.09    0.34
  -9  -2   0   -0.51    0.37
  -9   2  -1    3.46    0.58
   9  -2  -1    3.93    0.45
  -9  -2   1    5.03    0.57
  -9  -2   1    3.65    0.53
  -9   2  -1    5.19    0.47
   9   2   1    4.57    0.54
  -9   2   1    3.88    0.58
   9   2  -1    4.26    0.52
  -9  -2  -1    4.10    0.47
  -9   2   1    4.45    0.39
  -9  -2  -1    3.84    0.51
  -9  -2   2    0.80    0.49
  -9   2  -2    0.96    0.56
  -9   2  -2    0.63    0.46
  -9  -2   2    1.00    0.47
   9  -2  -2    0.39    0.44
   9   2   2    0.89    0.50
  -9   2   2    0.47    0.51
   9   2  -2    0.51    0.47
  -9  -2  -2   -0.11    0.42
  -9  -2  -2    1.24    0.44
  -9   2  -3    5.24    0.62
   9  -2  -3    5.96    0.62
  -9  -2   3    4.16    0.56
  -9   2  -3    3.88    0.66
   9   2  -3    4.46    0.58
  -9   2   3    4.36    0.60
  -9  -2  -3    5.33    0.58
  -9   2  -4    3.58    0.62
  -9  -2   4    4.03    0.61
   9  -2  -4    5.18    0.68
  -9   2  -4    3.74    0.69
   9   2  -4    4.62    0.57
  -9  -2  -4    4.59    0.59
  -9   2   4    5.09    0.67
   9   2  -4    4.15    0.67
  -9   2  -5   -0.02    0.57
  -9  -2   5   -0.79    0.79
   9  -2  -5   -0.38    0.61
  -9   2  -5   -0.13    0.61
   9   2  -5    0.39    0.52
   9   2  -5   -0.33    0.56
  -9  -2  -5    0.60    0.56
  -9   2  -6   13.99    1.14
   9  -2  -6   14.12    1.20
   9   2  -6   13.55    1.18
   9   2  -6   13.58    0.98
  -9  -2  -6   15.56    1.11
  -9   2  -7    1.67    0.76
  -9  -2  -7    1.37    0.72
   9   2  -7    0.31    0.61
  -9  -3   0   -0.14    0.43
  -9   3   0   -0.20    0.32
   9   3   0   -0.12    0.44
  -9  -3   0    0.07    0.40
  -9  -3   0    0.25    0.47
  -9   3   0   -0.47    0.50
   9   3   1    9.79    0.85
   9  -3  -1    7.85    0.67
  -9  -3   1    7.80    0.90
  -9   3  -1    7.56    0.72
  -9  -3   1    8.27    0.79
  -9   3  -1    7.68    0.66
  -9  -3  -1    9.19    0.72
   9   3  -1    9.06    0.81
  -9   3   1    8.09    0.85
  -9  -3  -1    8.02    0.60
  -9  -3  -1    8.42    0.85
  -9   3  -2    1.39    0.47
   9   3   2    0.64    0.55
   9  -3  -2    0.64    0.47
  -9   3  -2    0.71    0.62
  -9  -3   2    0.73    0.48
  -9  -3  -2    1.35    0.46
  -9  -3  -2    0.75    0.43
  -9   3   2    1.30    0.53
   9   3  -2    0.66    0.50
  -9   3  -3   22.69    1.20
  -9  -3   3   23.60    1.29
  -9   3  -3   24.03    1.10
   9  -3  -3   23.72    1.08
   9   3  -3   21.63    1.12
  -9   3   3   23.54    1.06
  -9  -3  -3   23.02    1.02
  -9   3  -4    1.56    0.66
  -9  -3   4    1.96    0.58
   9  -3  -4    2.54    0.62
  -9   3  -4    1.94    0.59
  -9   3   4    2.38    0.57
  -9  -3  -4    1.88    0.53
   9   3  -4    2.56    0.62
   9   3  -4    2.12    0.54
  -9   3  -5    1.67    0.64
   9  -3  -5    2.54    0.68
  -9  -3   5    1.74    0.62
  -9   3  -5    0.64    0.68
   9   3  -5    1.27    0.63
   9   3  -5    2.72    0.60
  -9  -3  -5    2.26    0.57
  -9   3  -6    0.18    0.75
  -9   3  -6    0.78    0.68
  -9  -3  -6    2.39    0.64
   9   3  -6    0.20    0.61
   9   3  -6    0.44    0.67
  -9   3  -7    3.30    0.82
  -9  -3  -7    2.74    0.73
   9   3  -7    3.13    0.71
  -9  -4   0   -0.03    0.43
   9   4   0    0.09    0.49
  -9   4   0   -0.43    0.54
  -9  -4   0    0.37    0.47
   9  -4  -1    4.72    0.49
   9   4   1    4.29    0.61
  -9   4  -1    4.27    0.49
  -9   4  -1    4.20    0.70
  -9  -4   1    3.67    0.58
  -9  -4  -1    4.26    0.53
  -9  -4  -1    3.98    0.56
   9   4  -1    3.97    0.62
  -9   4   1    4.09    0.65
  -9   4  -2    5.71    0.79
   9  -4  -2    6.64    0.59
  -9   4  -2    6.74    0.60
   9   4   2    6.19    0.71
  -9  -4   2    5.26    0.64
  -9   4   2    6.56    0.69
   9   4  -2    5.56    0.67
  -9  -4  -2    5.39    0.58
  -9  -4  -2    5.84    0.57
   9  -4  -3   25.92    1.14
  -9  -4   3   26.81    1.38
  -9   4  -3   27.24    1.15
  -9   4  -3   26.03    1.31
  -9  -4  -3   28.36    1.09
   9   4  -3   23.77    1.22
  -9   4   3   25.63    1.14
  -9  -4   4    1.56    0.63
  -9   4  -4    3.75    0.77
   9  -4  -4    3.29    0.61
  -9   4  -4    3.27    0.64
   9   4  -4    2.52    0.53
  -9  -4  -4    1.96    0.53
   9   4  -4    1.16    0.63
  -9   4  -5   18.17    1.28
  -9  -4   5   19.51    1.42
  -9   4  -5   18.27    1.19
   9  -4  -5   19.77    1.21
   9   4  -5   17.49    1.06
   9   4  -5   19.08    1.25
  -9  -4  -5   20.53    1.07
  -9   4  -6    0.09    0.71
  -9  -4  -6    1.32    0.65
   9   4  -6    0.30    0.67
   9   5   0   -0.05    0.52
  -9  -5   0    0.21    0.50
  -9   5   0   -0.81    0.59
   9   5   1   11.10    0.98
  -9  -5   1   12.48    1.12
  -9   5  -1   11.68    1.10
  -9  -5  -1   11.57    0.82
  -9  -5  -1   11.78    1.07
  -9   5   1   11.46    0.95
   9   5  -1   11.82    1.02
   9   5   2    0.93    0.63
  -9   5  -2    1.10    0.72
  -9  -5   2    1.43    0.58
   9  -5  -2    0.72    0.50
  -9  -5  -2    0.95    0.49
  -9   5   2    2.72    0.60
   9   5  -2    1.80    0.61
  -9  -5  -2    1.83    0.54
  -9   5  -3   36.04    1.60
   9  -5  -3   38.12    1.39
  -9   5  -3   38.84    1.39
  -9  -5   3   40.49    1.73
   9   5  -3   38.98    1.51
  -9  -5  -3   38.78    1.34
  -9   5  -4    3.90    0.70
   9  -5  -4    4.45    0.66
  -9   5  -4    3.85    0.86
  -9  -5   4    3.03    0.74
   9   5  -4    4.63    0.74
   9   5  -4    4.41    0.65
  -9  -5  -4    5.04    0.63
  -9   5  -5   12.41    1.13
   9  -5  -5   13.37    1.10
  -9  -5   5   13.79    1.43
  -9   5  -5   12.35    1.31
  -9  -5  -5   12.43    1.18
   9   5  -5   12.90    1.03
   9   5  -5   13.52    1.20
  -9   5  -6    5.87    0.87
   9   5  -6    6.76    0.84
   9   6   0   -0.50    0.57
  -9   6   0   -0.79    0.65
  -9  -6   0    0.28    0.57
   9   6   1    2.42    0.64
  -9  -6   1    1.77    0.62
  -9   6  -1    2.49    0.79
  -9   6   1    2.91    0.67
  -9  -6  -1    1.49    0.59
   9   6  -1    2.77    0.67
  -9   6  -2    1.19    0.79
  -9  -6   2    0.88    0.62
   9   6   2    1.02    0.63
  -9   6   2    2.25    0.62
   9   6  -2    0.75    0.63
  -9  -6  -2    1.47    0.61
  -9  -6  -2    0.88    0.52
  -9  -6   3    7.64    0.88
  -9   6  -3    7.15    0.98
   9   6  -3    6.69    0.79
   9   6  -3    7.27    0.73
  -9  -6  -3    7.61    0.68
  -9  -6   4    0.11    0.73
  -9   6  -4    0.68    0.65
   9  -6  -4    0.70    0.54
  -9   6  -4    0.84    0.84
   9   6  -4   -0.22    0.67
   9   6  -4   -0.32    0.60
  -9  -6   5    3.04    0.87
  -9   6  -5    3.34    0.77
   9   6  -5    3.28    0.73
  -9  -6   6    3.14    0.99
  -9   6  -6    2.72    0.83
  -9   7   0   -0.38    0.71
   9   7   0    0.92    0.66
  -9  -7   0    0.25    0.63
  -9  -7   1    2.18    0.73
  -9   7  -1    2.04    0.83
   9   7   1    2.60    0.68
  -9   7   1    3.97    0.76
   9   7  -1    2.87    0.72
  -9  -7  -1    2.75    0.69
   9   7   2    1.22    0.69
  -9   7  -2    0.53    0.84
  -9  -7   2    1.60    0.72
   9   7  -2    0.71    0.65
   9   7  -2    0.87    0.63
  -9   7  -3    6.90    1.03
  -9  -7   3    7.12    0.95
   9   7  -3    7.33    0.87
   9   7  -3    9.16    0.82
   9   7  -3    6.35    0.84
  -9  -7   4    1.97    0.89
   9   7  -4    2.42    0.76
  -9  -7   5   -0.75    0.85
   9   7  -5    0.46    0.75
   9   8   0   -0.17    0.68
  -9   8   0   -0.24    0.79
  -9  -8   0    0.40    0.72
  -9  -8   1    1.16    0.80
  -9   8  -1    1.96    0.90
   9   8   1    1.18    0.71
  -9  -8  -1    1.03    0.70
   9   8  -1    0.45    0.72
  -9  -8   2    0.62    0.82
   9   8  -2    0.86    0.62
   9   8  -2    1.28    0.74
  -9  -8   3    3.78    0.99
   9   8  -3    3.90    0.77
  -9  -8   4    0.12    0.90
   9   8  -4   -1.60    0.72
  -9  -9   0   -0.55    0.80
  -9  -9   1    3.61    0.96
  -9  -9   2   -0.18    0.89
   9   9  -2   -0.12    0.69
  -9  -9   3   12.54    1.29
 -10   0   0   21.74    1.03
  10   0   0   23.67    0.97
 -10   0   0   22.90    0.89
 -10   0   1    0.57    0.51
 -10   0   1    0.18    0.38
 -10   0  -1    0.18    0.42
 -10   0  -1    0.66    0.53
  10   0  -1    0.77    0.47
  10   0   1    0.56    0.43
 -10   0  -2   54.74    1.63
 -10   0   2   54.94    1.74
 -10   0  -2   55.37    1.69
  10   0  -2   57.35    1.67
  10   0   2   55.22    1.58
 -10   0   3    1.03    0.58
  10   0  -3    1.67    0.57
 -10   0  -3    1.11    0.57
 -10   0  -3    1.29    0.55
  10   0  -4   78.71    2.11
 -10   0  -4   82.50    2.26
 -10   0  -4   79.81    2.31
  10   0  -4   80.62    2.31
 -10   0   4   80.25    2.38
 -10   0   4   77.88    2.31
  10   0  -5    2.95    0.71
 -10   0  -5    2.82    0.68
  10   0  -5    3.18    0.55
 -10   0  -6   46.49    1.72
 -10   0  -7    0.92    0.74
 -10   1   0    2.52    0.57
  10   1   0    3.33    0.53
 -10  -1   0    3.87    0.49
  10  -1   0    2.64    0.46
 -10   1   0    2.72    0.43
 -10  -1   0    2.92    0.56
 -10   1  -1   31.98    1.08
 -10  -1   1   31.74    1.22
  10  -1  -1   32.19    1.12
 -10   1  -1   32.17    1.24
  10   1   1   32.24    1.17
 -10  -1   1   32.21    1.08
 -10   1   1   32.03    1.24
 -10   1   1   31.27    1.03
  10  -1   1   30.15    1.05
 -10  -1  -1   31.00    1.11
 -10  -1  -1   33.10    1.19
  10   1  -1   32.14    1.21
 -10  -1   2    0.45    0.53
 -10   1  -2    0.39    0.46
  10   1   2   -0.39    0.47
  10  -1  -2    0.13    0.49
 -10   1  -2    0.24    0.57
 -10  -1  -2   -0.25    0.49
 -10   1   2    0.20    0.51
  10   1  -2    0.62    0.50
 -10  -1  -2    0.83    0.47
 -10   1  -3   27.14    1.16
  10  -1  -3   26.51    1.16
  10   1   3   26.52    1.09
 -10  -1   3   25.96    1.18
 -10  -1   3   24.97    1.32
 -10   1  -3   25.22    1.19
  10   1  -3   24.76    1.19
 -10  -1  -3   24.36    1.09
 -10   1   3   25.94    1.19
 -10  -1  -3   25.16    1.09
 -10   1  -4    7.45    0.77
 -10   1  -4    7.52    0.73
 -10  -1   4    6.59    0.72
  10  -1  -4    7.74    0.78
  10   1  -4    7.81    0.76
 -10  -1  -4    7.39    0.71
 -10   1   4    8.38    0.79
  10   1  -4    9.80    0.78
  10  -1  -5   10.32    0.88
 -10   1  -5    7.70    0.81
  10   1  -5   10.68    0.90
  10   1  -5    9.77    0.74
 -10  -1  -5    8.92    0.82
 -10   1  -6    6.28    0.84
 -10  -1  -6    7.28    0.83
  10   1  -6    8.49    0.75
 -10   1  -7    0.60    0.78
 -10  -1  -7    1.20    0.76
  10  -2   0  105.30    2.62
  10   2   0  109.47    2.77
 -10  -2   0  106.80    2.69
 -10   2   0  105.44    2.79
 -10   2   0  102.27    2.60
 -10  -2   0  107.25    2.76
  10   2   1    7.49    0.65
  10  -2  -1    6.41    0.56
 -10  -2   1    6.05    0.66
 -10   2  -1    5.88    0.53
 -10   2  -1    6.99    0.71
 -10  -2   1    7.63    0.72
 -10  -2  -1    6.61    0.61
 -10  -2  -1    6.54    0.58
  10   2  -1    6.43    0.65
 -10   2   1    6.50    0.69
 -10   2   1    7.14    0.50
 -10  -2   2   45.48    1.56
 -10  -2   2   45.99    1.67
  10   2   2   46.31    1.49
 -10   2  -2   44.59    1.44
 -10   2  -2   46.38    1.59
  10  -2  -2   47.09    1.47
 -10  -2  -2   46.17    1.44
 -10   2   2   44.60    1.55
  10   2  -2   46.19    1.53
 -10  -2  -2   45.50    1.43
  10  -2  -3   24.05    1.13
 -10  -2   3   23.98    1.30
  10   2   3   23.11    1.15
 -10   2  -3   24.23    1.12
 -10   2  -3   22.03    1.20
  10   2  -3   22.04    1.14
 -10   2   3   22.84    1.14
 -10  -2  -3   22.83    1.05
  10  -2  -4   -0.09    0.59
 -10   2  -4    0.04    0.59
 -10  -2   4   -0.16    0.55
 -10   2  -4   -0.07    0.67
 -10  -2  -4    0.25    0.54
  10   2  -4    0.05    0.60
  10   2  -4    0.06    0.51
 -10   2   4   -0.43    0.56
 -10   2  -5   20.62    1.28
 -10   2  -5   20.81    1.23
  10  -2  -5   19.78    1.24
 -10  -2   5   21.38    1.66
  10   2  -5   20.61    1.24
 -10  -2  -5   22.24    1.17
  10   2  -5   19.27    1.07
 -10   2  -6    5.50    0.82
 -10  -2  -6    3.35    0.75
  10   2  -6    4.24    0.69
 -10   2  -7    2.93    0.85
 -10  -2  -7    2.61    0.77
  10   2  -7    1.09    0.65
 -10  -3   0    0.04    0.48
 -10   3   0   -0.43    0.54
 -10  -3   0   -0.24    0.51
  10   3   0   -0.24    0.50
 -10  -3   0    0.16    0.47
 -10   3   0   -0.27    0.36
 -10  -3   1    0.05    0.47
 -10   3  -1    0.34    0.58
 -10   3  -1    0.00    0.45
  10   3   1    0.96    0.55
  10  -3  -1   -0.34    0.42
 -10  -3   1    0.69    0.54
 -10  -3  -1    0.08    0.47
 -10  -3  -1    0.28    0.48
  10   3  -1   -0.03    0.51
 -10  -3  -1   -0.65    0.47
 -10   3   1    0.07    0.53
  10  -3  -2    4.81    0.59
  10   3   2    4.19    0.63
 -10  -3   2    3.32    0.60
 -10   3  -2    4.01    0.72
 -10   3  -2    5.03    0.57
 -10   3   2    4.37    0.64
  10   3  -2    4.38    0.64
 -10  -3  -2    4.16    0.58
 -10  -3  -2    3.64    0.58
 -10  -3   3    1.07    0.58
  10  -3  -3    1.42    0.59
  10   3   3    0.47    0.63
 -10   3  -3    1.04    0.58
 -10   3  -3    1.04    0.69
  10   3  -3    1.25    0.60
 -10   3   3    1.59    0.60
 -10  -3  -3    2.71    0.56
 -10  -3   4   16.28    1.33
 -10   3  -4   16.25    1.11
  10  -3  -4   15.21    1.11
 -10   3  -4   16.11    1.19
  10   3  -4   13.81    1.17
  10   3  -4   16.07    0.97
 -10   3   4   16.20    1.04
 -10  -3  -4   17.55    1.01
  10  -3  -5   -0.20    0.66
 -10   3  -5    1.38    0.71
 -10  -3   5    0.18    0.64
 -10   3  -5    1.01    0.76
  10   3  -5    0.83    0.65
  10   3  -5    0.59    0.61
 -10  -3  -5    0.31    0.60
 -10   3  -6    8.11    0.92
 -10   3  -6    8.50    1.16
 -10  -3  -6    8.38    0.85
  10   3  -6    9.15    0.86
 -10  -4   0    5.38    0.66
  10   4   0    6.00    0.69
 -10   4   0    6.05    0.75
 -10  -4   0    6.34    0.62
  10   4   1    0.03    0.55
 -10   4  -1    0.83    0.64
 -10  -4   1    0.10    0.51
 -10  -4  -1   -0.13    0.48
  10   4  -1    0.19    0.56
 -10   4   1   -0.77    0.55
 -10  -4  -1   -0.12    0.49
  10  -4  -2   21.46    1.00
 -10  -4   2   19.34    1.31
  10   4   2   18.21    1.13
 -10   4  -2   21.09    1.02
 -10   4  -2   19.08    1.24
 -10   4   2   22.07    1.10
  10   4  -2   18.45    1.17
 -10  -4  -2   20.48    1.00
 -10  -4  -2   20.83    1.21
  10  -4  -3    3.15    0.62
 -10  -4   3    2.22    0.65
 -10   4  -3    2.65    0.78
 -10   4  -3    3.26    0.64
  10   4   3    3.88    0.73
 -10   4   3    3.46    0.67
  10   4  -3    3.08    0.69
 -10  -4  -3    3.35    0.60
 -10   4  -4   42.96    1.73
 -10  -4   4   44.17    1.89
 -10   4  -4   45.27    1.60
  10  -4  -4   45.32    1.60
 -10  -4  -4   44.92    1.52
  10   4  -4   41.93    1.50
  10   4  -4   42.59    1.67
 -10   4  -5    3.56    0.75
 -10  -4   5    3.52    0.77
 -10   4  -5    2.98    0.83
  10  -4  -5    4.56    0.77
 -10  -4  -5    3.77    0.70
  10   4  -5    2.85    0.77
  10   4  -5    2.77    0.66
 -10   4  -6   28.03    1.51
 -10  -4  -6   33.25    1.44
  10   4  -6   27.36    1.41
  10   5   0    6.58    0.75
 -10   5   0    7.18    0.83
 -10  -5   0    5.68    0.72
 -10   5  -1   63.28    2.11
 -10  -5   1   70.39    2.24
  10   5   1   67.29    2.06
 -10   5   1   63.06    2.04
  10   5  -1   64.89    2.07
 -10  -5  -1   67.79    1.92
 -10  -5  -1   69.55    2.21
 -10  -5   2    1.86    0.63
  10   5   2    1.56    0.65
 -10   5  -2    1.46    0.77
 -10  -5  -2    1.81    0.56
  10   5  -2    2.08    0.67
 -10  -5  -2    2.33    0.61
 -10   5   2    2.36    0.62
  10  -5  -3   44.63    1.55
 -10   5  -3   47.44    1.59
 -10  -5   3   49.53    1.98
  10   5   3   47.22    1.68
 -10   5  -3   45.07    1.81
  10   5  -3   45.76    1.71
 -10   5   3   43.21    1.82
 -10  -5  -3   44.46    1.54
 -10   5  -4    1.81    0.84
  10  -5  -4    0.93    0.57
 -10  -5   4    1.36    0.74
 -10   5  -4    1.80    0.69
  10   5  -4    1.42    0.70
  10   5  -4    1.95    0.59
 -10  -5  -4    2.53    0.62
 -10   5  -5   17.77    1.26
 -10  -5   5   16.58    1.59
  10   5  -5   17.08    1.16
 -10  -5  -5   17.51    1.13
  10   5  -5   17.68    1.70
 -10   5  -6    4.39    0.86
  10   5  -6    2.35    0.79
 -10  -6   0   20.57    1.41
 -10   6   0   17.07    1.22
  10   6   0   19.99    1.21
 -10  -6   1    0.83    0.65
 -10   6  -1   -0.34    0.76
  10   6   1    0.69    0.65
 -10  -6  -1    0.69    0.60
 -10   6   1    0.28    0.65
  10   6  -1    0.76    0.67
  10   6   2    5.39    0.77
 -10  -6   2    5.49    0.83
 -10   6  -2    3.88    0.90
  10   6  -2    6.43    0.81
 -10  -6  -2    5.11    0.94
 -10  -6  -2    5.55    0.67
 -10   6   2    6.11    0.75
  10   6   3    6.35    0.87
 -10   6  -3    6.37    0.98
 -10  -6   3    5.91    0.88
 -10  -6  -3    7.83    0.73
  10   6  -3    7.90    0.79
  10   6  -3    6.67    0.83
  10  -6  -4    2.46    0.63
 -10  -6   4    1.93    0.84
  10   6  -4    3.19    0.72
  10   6  -4    1.33    0.76
 -10   6  -5    8.52    0.92
 -10  -6   5    6.75    1.00
  10   6  -5    7.66    0.87
 -10   7   0    0.22    0.75
 -10  -7   0   -0.37    0.67
  10   7   0   -0.34    0.65
 -10   7  -1    4.23    0.91
  10   7   1    4.02    0.76
 -10  -7   1    3.67    0.82
 -10   7   1    5.10    0.80
 -10  -7  -1    3.30    0.74
  10   7  -1    3.20    0.79
 -10   7  -2    3.52    0.96
 -10  -7   2    3.48    0.85
  10   7   2    3.72    0.77
  10   7  -2    3.33    0.78
 -10  -7   3    0.63    0.82
  10   7  -3    0.72    0.67
  10   7  -3    0.64    0.75
  10   7  -3    0.19    0.69
 -10  -7   4    7.53    1.08
  10   7  -4   11.71    0.99
 -10  -8   0    1.10    0.82
 -10   8   0    1.34    0.85
 -10   8  -1    0.05    1.49
 -10  -8   1    0.39    0.80
 -10  -8  -1   -0.16    0.68
 -10  -8   2    0.03    0.87
  10   8  -2    0.54    0.69
 -10  -8   3    2.74    1.00
  10   8  -3    5.03    0.84
 -10  -9   0    2.58    0.94
 -10  -9   1   30.10    2.01
 -10  -9   2   -0.62    0.92
  10   9  -2    0.05    0.68
 -11   0   0    0.49    0.45
  11   0   0    0.18    0.48
 -11   0   0   -0.45    0.56
 -11   0   1   17.58    1.01
  11   0   1   16.23    0.87
 -11   0  -1   15.39    1.00
 -11   0  -1   15.28    0.87
  11   0  -1   18.13    0.98
 -11   0   1   15.56    0.82
 -11   0  -2    0.14    0.59
 -11   0  -2   -0.97    0.49
  11   0  -2   -0.28    0.54
 -11   0   2   -0.35    0.56
  11   0   2    0.08    0.46
 -11   0  -3   60.58    1.79
 -11   0   3   57.27    1.90
  11   0  -3   60.26    1.88
 -11   0  -3   58.78    1.82
 -11   0   4    0.54    0.67
  11   0  -4    0.41    0.63
 -11   0   4    1.38    0.67
  11   0  -4    0.65    0.51
 -11   0  -4    0.67    0.65
 -11   0  -5   17.21    1.19
  11   0  -5   13.16    1.22
 -11   0  -6    3.88    0.81
 -11   0  -7    1.06    0.81
  11   1   0   -0.32    0.51
 -11   1   0   -0.13    0.42
 -11  -1   0   -0.02    0.47
 -11   1   0   -0.46    0.57
 -11  -1   0   -0.10    0.54
  11  -1   0   -0.52    0.43
  11   1   1    0.33    0.52
  11  -1  -1   -0.30    0.47
 -11   1  -1    0.51    0.62
 -11  -1   1    0.19    0.46
 -11  -1   1    0.18    0.57
 -11   1  -1    0.19    0.45
 -11   1   1    0.60    0.42
 -11  -1  -1    0.30    0.56
 -11  -1  -1    0.39    0.48
  11  -1   1   -0.15    0.41
  11   1  -1    0.18    0.53
 -11   1   1    0.47    0.59
  11   1   2    3.00    0.56
 -11   1  -2    2.06    0.65
 -11  -1   2    1.75    0.62
 -11   1  -2    3.44    0.59
  11  -1  -2    3.10    0.60
 -11  -1  -2    2.26    0.56
 -11  -1  -2    1.83    0.57
  11   1  -2    2.07    0.59
 -11   1   2    2.60    0.63
 -11   1  -3    0.58    0.65
 -11   1  -3    0.47    0.57
  11  -1  -3    0.79    0.59
 -11  -1   3    0.21    0.60
  11   1   3   -0.07    0.51
 -11  -1   3    0.49    0.63
 -11  -1  -3   -0.19    0.55
  11   1  -3   -1.10    0.58
 -11  -1  -3   -0.05    0.55
 -11   1   3    0.51    0.62
 -11   1  -4    0.05    0.68
 -11   1  -4    0.63    0.62
 -11  -1   4    0.70    0.60
  11  -1  -4   -0.02    0.63
 -11  -1  -4    0.18    0.60
  11   1  -4    0.84    0.53
 -11   1   4   -0.12    0.64
  11   1  -4   -0.25    0.63
 -11   1  -5    0.53    0.69
  11  -1  -5   -0.05    0.67
 -11  -1  -5    0.06    0.67
  11   1  -5   -0.36    0.54
  11   1  -5   -0.29    0.68
 -11   1  -6    1.41    0.74
 -11  -1  -6    2.14    0.77
  11   1  -6    1.28    0.63
 -11  -2   0    0.11    0.47
  11  -2   0    0.11    0.43
 -11   2   0   -0.17    0.57
  11   2   0   -0.32    0.55
 -11  -2   0    0.07    0.57
 -11   2   0   -0.16    0.41
 -11   2  -1   11.21    0.79
 -11   2  -1   10.50    0.97
  11  -2  -1    9.98    0.81
 -11  -2   1   10.17    0.95
  11   2   1   10.74    0.91
 -11  -2  -1   11.82    0.85
 -11  -2  -1   10.31    0.82
 -11   2   1    9.96    0.69
  11   2  -1   10.74    0.98
 -11   2   1    9.72    0.93
  11  -2  -2   18.79    1.01
 -11   2  -2   17.17    0.97
 -11   2  -2   18.63    1.15
  11   2   2   20.48    1.05
 -11  -2   2   19.84    1.28
 -11  -2   2   16.10    1.09
 -11   2   2   17.82    1.09
  11   2  -2   17.30    1.12
 -11  -2  -2   17.36    0.96
 -11  -2  -2   17.72    0.96
 -11   2  -3   27.33    1.33
  11  -2  -3   27.08    1.26
 -11   2  -3   27.93    1.22
 -11  -2   3   26.68    1.46
  11   2   3   25.52    1.19
 -11   2   3   27.68    1.29
  11   2  -3   27.17    1.29
 -11  -2  -3   26.14    1.19
 -11   2  -4   22.48    1.23
  11  -2  -4   22.32    1.23
 -11   2  -4   22.41    1.30
  11   2   4   21.00    1.22
 -11  -2   4   22.70    1.42
  11   2  -4   21.04    1.05
 -11   2   4   21.12    1.22
 -11  -2  -4   20.47    1.16
  11   2  -4   18.36    1.28
 -11   2  -5    5.59    0.82
 -11  -2   5    6.23    0.87
  11  -2  -5    6.46    0.84
 -11   2  -5    5.51    0.89
  11   2  -5    6.16    0.83
  11   2  -5    6.52    0.75
 -11  -2  -5    5.12    0.75
 -11   2  -6   10.63    1.01
  11   2  -6   11.51    0.91
 -11  -2  -6   14.51    1.18
 -11   3   0   -0.21    0.60
 -11  -3   0    0.16    0.55
 -11   3   0    0.58    0.59
 -11  -3   0   -0.57    0.49
 -11  -3   0    0.21    0.58
  11   3   0    0.19    0.57
  11   3   1    0.80    0.58
 -11  -3   1    1.56    0.63
 -11   3  -1    1.49    0.66
 -11  -3   1    1.43    0.60
  11  -3  -1    0.70    0.48
 -11   3  -1    0.52    0.47
 -11  -3  -1    1.41    0.57
 -11   3   1    1.11    0.60
 -11  -3  -1    1.05    0.57
  11   3  -1    1.01    0.59
 -11  -3  -1    1.40    0.52
 -11   3  -2    1.41    0.54
  11   3   2    0.50    0.58
 -11  -3   2    1.12    0.58
  11  -3  -2    0.02    0.53
 -11   3  -2    0.39    0.69
 -11  -3  -2    0.14    0.54
  11   3  -2    1.33    0.60
 -11  -3  -2    0.32    0.50
 -11   3   2    0.94    0.63
 -11   3  -3    5.59    0.70
  11   3   3    5.98    0.73
 -11  -3   3    4.84    0.73
  11  -3  -3    5.36    0.73
 -11   3  -3    4.94    0.83
 -11  -3  -3    6.71    0.70
  11   3  -3    5.83    0.77
 -11   3   3    5.30    0.75
 -11  -3   4   -0.77    0.65
  11  -3  -4    0.39    0.67
 -11   3  -4   -0.48    0.72
  11   3   4    0.23    0.69
 -11   3  -4    0.41    0.65
  11   3  -4    0.34    0.69
 -11   3   4    0.31    0.62
  11   3  -4    0.07    0.58
 -11  -3  -4   -0.57    0.60
 -11  -3   5    3.98    0.80
  11  -3  -5    4.28    0.82
 -11   3  -5    4.91    0.82
 -11   3  -5    5.08    0.91
  11   3  -5    5.72    0.74
 -11  -3  -5    6.83    0.79
  11   3  -5    4.15    0.81
 -11   3  -6    3.00    0.84
  11   3  -6    2.20    0.73
 -11  -3  -6    2.60    0.77
 -11  -4   0   -0.62    0.51
  11   4   0    0.08    0.58
 -11   4   0   -0.02    0.62
 -11  -4   0   -0.80    0.58
 -11   4  -1   10.97    1.08
 -11  -4   1   12.14    1.21
  11   4   1   10.17    0.99
 -11  -4  -1   10.77    1.15
  11   4  -1   10.16    1.04
 -11  -4  -1   10.67    0.88
 -11   4   1   10.18    0.98
  11  -4  -2    0.73    0.53
 -11  -4   2    0.55    0.62
  11   4   2    0.51    0.61
 -11   4  -2    0.53    0.71
 -11   4  -2    0.80    0.54
 -11   4   2    0.72    0.61
  11   4  -2    0.27    0.64
 -11  -4  -2    0.16    0.59
 -11  -4  -2    0.29    0.54
  11   4   3   39.74    1.56
  11  -4  -3   38.49    1.47
 -11   4  -3   38.92    1.45
 -11  -4   3   40.78    1.82
 -11   4  -3   39.95    1.69
 -11   4   3   36.67    1.50
 -11  -4  -3   41.63    1.45
  11   4  -3   37.36    1.62
 -11   4  -4   -0.02    0.81
 -11   4  -4    0.39    0.68
  11  -4  -4    0.49    0.65
 -11  -4   4    0.50    0.70
  11   4  -4    0.24    0.70
  11   4  -4    0.37    0.61
 -11  -4  -4    0.64    0.61
 -11   4  -5    9.05    0.94
 -11  -4   5    8.59    0.97
 -11   4  -5    8.60    1.36
  11   4  -5   10.31    0.90
 -11  -4  -5   10.05    0.89
 -11   4  -6    1.16    0.82
 -11  -4  -6    2.60    0.81
  11   4  -6    0.91    0.74
 -11  -5   0   -0.92    0.62
  11   5   0    0.21    0.62
 -11   5   0    0.36    0.68
  11   5   1    0.32    0.62
 -11   5  -1    0.52    0.72
 -11  -5   1    0.20    0.62
 -11   5   1    0.15    0.67
 -11  -5  -1    0.03    0.60
 -11  -5  -1    0.37    0.56
  11   5  -1    0.91    0.66
 -11   5  -2    3.69    0.83
  11   5   2    3.19    0.70
 -11  -5   2    3.57    0.74
 -11  -5  -2    2.20    0.61
 -11  -5  -2    2.81    0.67
  11   5  -2    3.43    0.75
 -11   5   2    3.40    0.70
 -11  -5   3    1.36    0.73
  11   5   3    3.02    0.74
 -11   5  -3    1.66    0.72
 -11   5  -3    2.53    0.85
 -11  -5  -3    2.42    0.63
 -11   5   3    1.74    0.69
  11   5  -3    1.90    0.73
 -11   5  -4    1.63    0.91
  11  -5  -4    0.19    0.62
 -11   5  -4    0.94    0.71
 -11  -5   4    0.42    0.77
  11   5  -4    0.62    0.76
  11   5  -4    0.94    0.65
 -11  -5  -4    1.37    0.64
 -11  -5   5    2.24    0.86
 -11   5  -5    2.06    0.80
 -11  -5  -5    2.53    0.73
  11   5  -5    2.18    0.78
  11   6   0   -0.89    0.63
 -11  -6   0   -0.52    0.64
 -11   6   0    0.64    0.71
  11   6   1    6.60    0.79
 -11  -6   1    4.98    0.82
 -11   6  -1    5.29    0.89
  11   6  -1    5.07    0.82
 -11  -6  -1    6.16    0.78
 -11   6   1    6.24    0.81
 -11  -6   2    3.76    0.82
  11   6   2    4.07    0.74
 -11   6  -2    4.42    0.92
 -11  -6  -2    3.88    0.68
 -11   6   2    3.89    0.73
  11   6  -2    3.94    0.81
 -11   6  -3   16.85    1.75
  11   6   3   18.00    1.27
 -11  -6   3   19.15    1.67
  11   6  -3   15.76    1.34
 -11  -6  -3   18.64    1.14
 -11  -6   4    4.28    0.95
 -11  -6  -4    4.67    0.80
  11   6  -4    5.39    0.81
 -11   6  -5    5.18    0.90
 -11  -6   5    3.37    0.94
  11   6  -5    4.23    0.85
 -11   7   0    1.16    0.82
 -11  -7   0   -0.48    0.72
  11   7   0    0.01    0.70
 -11   7  -1    0.45    0.83
  11   7   1    0.23    0.70
 -11  -7   1    0.60    0.79
 -11  -7  -1    0.59    0.72
 -11   7   1    1.45    0.77
  11   7  -1    0.85    0.75
 -11  -7   2   -0.39    0.80
  11   7  -2    0.29    0.88
 -11  -7   3    4.65    1.01
  11   7  -3    7.34    0.85
 -11  -7   4   -0.39    0.89
  11   7  -4   -0.30    0.75
 -11  -8   0   -0.54    0.79
 -11  -8   1    3.83    0.93
 -11  -8  -1    4.11    0.85
 -11  -8   2    2.33    0.94
 -11  -8   3   11.89    1.26
  11   8  -3   14.12    1.05
 -11  -9   0   -0.67    0.87
 -11  -9   1    0.36    0.93
  12   0   0  108.48    2.80
 -12   0   0  106.12    2.75
 -12   0   0  107.98    2.89
 -12   0  -1    9.69    0.96
  12   0  -1    9.44    0.96
 -12   0  -1    9.65    0.87
  12   0   1   10.57    0.85
 -12   0   1    9.64    0.79
 -12   0   1    9.42    0.94
  12   0  -2   35.88    1.41
 -12   0  -2   33.88    1.32
 -12   0  -2   35.17    1.39
 -12   0   2   34.55    1.46
 -12   0   3    2.63    0.75
  12   0  -3    2.06    0.69
 -12   0  -3    3.12    0.73
 -12   0  -3    3.10    0.66
 -12   0  -4    0.42    0.64
  12   0  -4   -0.86    0.67
 -12   0   4   -0.94    0.71
 -12   0   4    0.49    0.71
 -12   0  -5    1.46    0.72
  12   0  -5   -0.51    0.75
 -12   0  -6    1.06    0.77
 -12   1   0   35.37    1.42
 -12  -1   0   37.13    1.30
  12   1   0   37.81    1.41
 -12   1   0   37.35    1.27
 -12  -1   0   36.80    1.40
  12  -1   0   37.61    1.29
 -12  -1   1    0.75    0.66
 -12   1  -1    1.21    0.51
  12   1   1    1.71    0.58
  12  -1  -1    0.63    0.56
 -12  -1   1    1.26    0.52
 -12   1  -1    2.27    0.66
 -12   1   1    1.42    0.64
 -12  -1  -1    0.34    0.60
 -12   1   1    1.20    0.47
 -12  -1  -1    1.83    0.54
  12   1  -1    1.99    0.63
  12  -1  -2   20.27    1.12
 -12   1  -2   18.03    1.17
 -12   1  -2   19.02    1.04
  12   1   2   19.34    1.03
 -12  -1   2   17.34    1.15
  12   1  -2   17.93    1.17
 -12   1   2   17.40    1.12
 -12  -1  -2   18.37    1.03
 -12  -1  -2   17.30    1.05
 -12  -1   3    0.63    0.71
 -12   1  -3    1.58    0.73
 -12  -1   3    1.99    0.74
 -12   1  -3    1.31    0.62
  12  -1  -3    1.27    0.66
  12   1  -3    1.68    0.71
 -12   1   3    1.97    0.74
 -12  -1  -3    1.03    0.62
  12  -1  -4    1.49    0.74
 -12   1  -4    0.48    0.69
 -12   1  -4    0.58    0.75
 -12  -1   4    1.34    0.68
 -12  -1  -4    1.70    0.68
 -12   1   4    1.52    0.73
  12   1  -4    0.67    0.72
 -12   1  -5    3.20    0.77
  12  -1  -5    2.34    0.81
  12   1  -5    2.77    0.85
  12   1  -5    2.35    0.64
 -12  -1  -5    3.00    0.76
 -12   1  -6   -0.61    0.77
 -12  -1  -6    0.39    0.73
 -12   2   0    0.83    0.62
  12   2   0   -0.07    0.59
 -12  -2   0    0.69    0.63
 -12  -2   0    0.29    0.54
 -12   2   0    0.46    0.48
 -12   2  -1   51.63    1.59
 -12  -2   1   53.19    1.78
  12  -2  -1   54.06    1.63
 -12   2  -1   53.24    1.81
  12   2   1   55.83    1.74
 -12  -2  -1   52.55    1.68
 -12  -2  -1   53.62    1.65
  12   2  -1   52.76    1.79
 -12   2   1   50.64    1.54
 -12   2   1   51.99    1.77
  12  -2  -2    2.69    0.64
 -12   2  -2    4.25    0.66
  12   2   2    2.81    0.66
 -12  -2   2    3.18    0.75
 -12  -2   2    2.68    0.67
 -12   2  -2    3.38    0.76
 -12   2   2    4.15    0.74
 -12  -2  -2    4.00    0.65
  12   2  -2    3.12    0.73
 -12  -2  -2    2.97    0.66
  12   2   3   31.86    1.34
  12  -2  -3   33.50    1.42
 -12   2  -3   32.15    1.36
 -12   2  -3   32.05    1.48
 -12  -2   3   31.24    1.63
 -12  -2  -3   32.80    1.34
 -12   2   3   29.40    1.43
  12   2  -3   31.13    1.49
 -12   2  -4   19.37    1.32
  12  -2  -4   18.99    1.26
 -12   2  -4   18.95    1.25
 -12  -2   4   19.73    1.49
 -12  -2  -4   20.37    1.19
  12   2  -4   20.40    1.35
 -12   2   4   19.76    1.25
 -12   2  -5   20.62    1.34
  12  -2  -5   18.76    1.78
 -12   2  -5   18.50    1.67
 -12  -2   5   19.72    1.75
  12   2  -5   18.12    1.14
 -12   2   5   18.11    1.30
 -12  -2  -5   19.93    1.29
 -12   2  -6   16.27    1.33
 -12  -2  -6   17.42    1.29
  12   2  -6   13.85    1.14
 -12   3   0   82.70    2.46
 -12  -3   0   84.72    2.41
 -12  -3   0   87.31    2.57
 -12  -3   0   81.14    2.31
  12   3   0   86.76    2.46
  12   3   1    6.06    0.75
 -12   3  -1    5.34    0.79
 -12  -3   1    4.94    0.75
 -12   3  -1    6.15    0.64
 -12  -3   1    7.08    0.81
  12   3  -1    5.61    0.77
 -12  -3  -1    5.50    0.74
 -12   3   1    5.70    0.78
 -12  -3  -1    6.27    0.69
 -12  -3  -1    7.31    0.74
  12  -3  -2   51.11    1.63
 -12  -3   2   51.21    1.94
  12   3   2   50.57    1.71
 -12   3  -2   48.21    1.80
 -12   3  -2   51.06    1.62
 -12  -3  -2   50.21    1.62
  12   3  -2   47.91    1.77
 -12   3   2   49.23    1.75
 -12  -3  -2   49.80    1.84
 -12   3  -3   12.45    1.08
 -12  -3   3   11.91    1.00
  12   3   3   11.19    1.04
 -12   3  -3    9.31    0.96
  12  -3  -3   10.19    1.04
 -12  -3  -3   11.76    1.00
  12   3  -3   10.12    0.93
 -12   3   3   12.09    1.07
 -12   3  -4    8.72    0.88
 -12  -3   4    8.43    0.95
  12   3   4    9.99    0.88
 -12   3  -4    8.00    0.99
  12  -3  -4    8.84    0.89
  12   3  -4    8.55    0.81
 -12  -3  -4    9.18    0.85
  12   3  -4    8.33    0.95
 -12   3   4    9.53    0.93
 -12   3  -5    7.54    0.90
 -12  -3   5    6.37    0.91
 -12   3  -5    6.29    0.99
 -12  -3  -5    8.39    0.90
  12   3  -5    8.36    0.86
 -12   3  -6    0.76    0.80
 -12  -3  -6    1.39    0.79
  12   3  -6   -0.58    0.69
 -12  -4   0   51.58    1.76
 -12   4   0   51.44    1.85
  12   4   0   56.11    1.86
 -12  -4   0   55.43    2.01
 -12   4  -1    1.68    0.73
  12   4   1    1.59    0.68
 -12  -4   1    1.20    0.66
 -12  -4  -1    1.61    0.65
 -12  -4  -1    1.78    0.64
  12   4  -1    1.97    0.69
 -12   4   1    1.79    0.66
  12   4   2   13.98    1.16
 -12  -4   2   16.75    1.42
 -12   4  -2   18.36    1.05
 -12   4  -2   15.25    1.28
  12   4  -2   12.13    1.22
 -12  -4  -2   16.70    1.33
 -12   4   2   17.64    1.14
 -12  -4  -2   16.54    1.06
  12   4   3    0.31    0.64
  12  -4  -3    1.04    0.65
 -12   4  -3    1.31    0.66
 -12   4  -3    0.84    0.79
 -12  -4   3    0.82    0.76
  12   4  -3    0.03    0.72
 -12   4   3    1.72    0.70
 -12  -4  -3    0.97    0.62
  12  -4  -4   -0.55    0.69
 -12  -4   4   -0.33    0.74
 -12   4  -4   -0.37    0.85
  12   4   4    0.63    0.74
 -12   4  -4    0.83    0.71
  12   4  -4   -0.22    0.76
 -12  -4  -4    1.06    0.68
  12   4  -4    0.02    0.64
 -12  -4   5    0.41    0.82
 -12   4  -5   -0.39    0.77
 -12  -4  -5    1.17    0.74
  12   4  -5   -0.05    0.70
  12   5   0    5.60    0.78
 -12   5   0    5.10    0.83
 -12  -5   0    4.53    0.79
 -12   5  -1   12.30    1.21
  12   5   1   10.62    1.11
 -12  -5   1   12.86    1.42
 -12  -5  -1   11.98    1.34
  12   5  -1   12.10    1.18
 -12   5   1   10.89    1.09
 -12  -5  -1   12.31    1.02
 -12   5  -2    0.93    0.79
 -12  -5   2    1.19    0.73
  12   5   2    1.33    0.71
 -12   5   2    2.54    0.70
 -12  -5  -2    1.01    0.63
 -12  -5  -2    1.29    0.66
  12   5  -2    1.81    0.76
  12   5   3    0.30    0.68
 -12   5  -3    0.83    0.85
 -12  -5   3    1.18    0.77
 -12  -5  -3    0.07    0.64
  12   5  -3    0.02    0.76
 -12   5   3    1.64    0.72
  12  -5  -4    1.70    0.72
 -12   5  -4    1.09    0.73
 -12  -5   4    0.51    0.85
 -12  -5  -4    0.33    0.68
  12   5  -4    0.62    0.70
 -12   5  -5    1.58    0.81
 -12  -5   5    0.04    0.86
  12   5  -5    0.82    0.78
 -12  -5  -5    0.45    0.75
  12   6   0    4.00    0.78
 -12  -6   0    3.35    0.78
 -12   6   0    3.37    0.81
 -12   6  -1   13.51    1.13
 -12  -6   1   13.61    1.50
  12   6   1   12.07    1.17
 -12  -6  -1   12.04    1.02
 -12   6   1   13.30    1.21
  12   6  -1   14.18    1.08
 -12  -6   2    0.82    0.80
  12   6   2   -0.28    0.73
 -12   6  -2   -0.08    0.86
 -12   6   2    1.39    0.73
  12   6  -2   -0.30    0.75
 -12  -6  -2    0.04    0.66
 -12  -6   3    7.69    1.05
 -12  -6  -3    9.48    0.88
 -12  -6   4    5.13    1.04
 -12  -6  -4    5.34    0.80
  12   6  -4    6.42    0.88
 -12   7   0   50.61    2.08
 -12  -7   0   59.14    2.30
 -12  -7   1    5.71    1.00
 -12  -7  -1    6.96    0.94
 -12   7   1    7.89    0.96
 -12  -7   2   40.25    2.13
 -12  -7   3   10.43    1.20
  12   7  -3   10.72    0.98
 -12  -8   0    5.60    1.01
 -12  -8   1    1.45    0.90
 -12  -8  -1    0.88    0.83
 -12  -8   2    0.57    0.95
  13   0   0    0.72    0.60
 -13   0   0    0.26    0.66
 -13   0   0   -0.22    0.54
 -13   0   1    0.22    0.66
 -13   0  -1    0.81    0.57
 -13   0   1    0.02    0.54
  13   0  -1    0.00    0.63
  13   0   1   -0.23    0.56
 -13   0  -1   -0.14    0.66
 -13   0  -2    1.28    0.70
 -13   0  -2    0.72    0.62
 -13   0   2    1.62    0.75
  13   0  -2    0.27    0.67
  13   0  -3   -0.39    0.69
 -13   0  -3    1.63    0.74
 -13   0   3    0.59    0.74
 -13   0  -3   -0.71    0.61
  13   0  -4    3.93    0.84
 -13   0   4    5.17    0.90
 -13   0  -4    4.18    0.77
 -13   0   4    2.67    0.88
 -13   0  -5    6.08    0.85
 -13   0  -6    7.14    0.93
 -13  -1   0   -0.23    0.57
 -13   1   0    0.00    0.66
  13  -1   0    0.76    0.55
 -13   1   0   -0.11    0.55
  13   1   0    0.19    0.63
 -13  -1   0    0.14    0.65
 -13  -1   1    2.98    0.64
 -13  -1   1    3.00    0.77
  13   1   1    2.85    0.64
  13  -1  -1    3.67    0.66
 -13   1  -1    3.07    0.62
 -13   1  -1    3.87    0.77
 -13  -1  -1    3.74    0.72
  13   1  -1    2.99    0.74
 -13  -1  -1    2.49    0.63
 -13   1   1    2.47    0.72
 -13   1   1    3.35    0.58
 -13  -1   2    1.70    0.74
 -13   1  -2    1.68    0.65
 -13   1  -2    0.82    0.75
  13   1   2    1.93    0.61
  13  -1  -2    1.06    0.68
 -13  -1  -2    1.79    0.67
 -13   1   2    2.83    0.74
  13   1  -2    1.44    0.71
 -13  -1  -2    1.74    0.61
 -13  -1   3    7.58    0.96
 -13   1  -3    7.56    0.91
  13  -1  -3    8.67    0.88
 -13  -1   3    9.73    1.00
 -13   1  -3    8.05    0.81
  13   1  -3    8.14    0.92
 -13  -1  -3    9.48    0.83
 -13   1   3    8.70    0.95
  13  -1  -4   -0.12    0.76
 -13  -1   4   -0.09    0.75
 -13   1  -4    2.54    0.74
 -13   1  -4    0.81    0.80
 -13  -1  -4    0.43    0.69
 -13   1   4    0.42    0.77
  13   1  -4   -0.19    0.76
 -13   1  -5    0.48    0.78
  13   1  -5    1.40    0.65
 -13  -1  -5    1.65    0.78
 -13   1  -6    2.35    0.85
 -13  -1  -6    2.59    0.82
 -13  -2   0    0.38    0.60
 -13   2   0    0.85    0.69
  13   2   0    0.08    0.67
 -13  -2   0    0.50    0.70
 -13   2   0    0.02    0.53
 -13   2  -1    4.05    0.64
 -13  -2   1    5.66    0.84
  13   2   1    3.43    0.72
 -13   2  -1    4.66    0.82
  13  -2  -1    5.09    0.66
 -13  -2  -1    5.17    0.72
  13   2  -1    4.35    0.78
 -13   2   1    5.05    0.79
 -13  -2  -1    4.38    0.66
 -13   2  -2   -0.35    0.59
 -13  -2   2   -0.39    0.71
 -13   2  -2   -0.21    0.73
 -13  -2   2   -0.99    0.66
  13  -2  -2    0.40    0.63
  13   2   2   -0.92    0.60
  13   2  -2    0.27    0.72
 -13  -2  -2    0.61    0.58
 -13   2   2    0.60    0.71
 -13   2  -3   13.02    1.10
 -13   2  -3   14.96    1.26
 -13  -2   3   12.93    1.08
  13   2   3   13.39    1.12
  13  -2  -3   12.79    1.17
  13   2  -3   12.61    1.29
 -13   2   3   13.94    1.21
 -13  -2  -3   13.11    1.09
 -13  -2   4    2.42    0.81
  13  -2  -4    1.98    0.79
 -13   2  -4    3.20    0.90
 -13   2  -4    2.03    0.75
  13   2  -4    2.81    0.84
 -13   2   4    3.59    0.84
 -13  -2  -4    2.72    0.76
 -13  -2   5    5.92    1.06
 -13   2  -5    5.16    0.90
  13   2  -5    7.33    0.83
 -13  -2  -5    6.07    0.86
 -13   2   5    8.96    1.39
 -13   2  -6    6.94    0.95
 -13  -2  -6    5.19    0.92
  13   2  -6    6.69    0.85
  13   3   0    1.82    0.71
 -13  -3   0   -0.21    0.63
 -13  -3   0   -0.11    0.61
 -13  -3   0    1.04    0.68
 -13   3   0    2.01    0.72
  13   3   1    3.45    0.74
 -13   3  -1    4.16    0.82
 -13  -3   1    4.24    0.83
 -13   3  -1    4.57    0.64
 -13  -3   1    4.33    0.77
 -13  -3  -1    3.63    0.75
 -13  -3  -1    3.53    0.67
 -13  -3  -1    4.97    0.75
 -13   3   1    4.56    0.80
  13   3  -1    4.10    0.80
 -13  -3   2    4.76    0.77
  13  -3  -2    4.33    0.72
 -13   3  -2    5.69    0.71
  13   3   2    4.55    0.76
 -13   3  -2    4.70    0.88
 -13  -3  -2    4.25    0.74
 -13   3   2    6.14    0.85
 -13  -3  -2    4.18    0.72
  13   3  -2    4.82    0.82
 -13  -3   3   10.06    1.02
  13   3   3    8.47    0.87
 -13   3  -3   12.08    1.09
 -13   3  -3   10.22    1.03
  13  -3  -3    9.57    0.89
 -13  -3  -3   10.13    0.89
 -13   3   3   11.05    1.13
  13   3  -3    9.62    0.96
 -13   3  -4    4.80    0.94
  13   3   4    2.77    0.86
 -13  -3   4    3.11    0.87
 -13   3  -4    4.44    0.81
  13  -3  -4    4.31    0.82
 -13  -3  -4    4.35    0.78
  13   3  -4    3.63    1.27
 -13   3   4    4.00    0.83
 -13  -3   5    0.68    0.83
 -13   3  -5    1.82    0.83
  13   3  -5    0.92    0.74
 -13  -3  -5    1.26    0.79
 -13   4   0    0.59    0.74
  13   4   0    0.53    0.73
 -13  -4   0    0.91    0.68
 -13  -4   0    0.40    0.69
 -13   4  -1    0.50    0.73
 -13  -4   1    0.96    0.71
  13   4   1    0.09    0.70
 -13  -4  -1   -0.32    0.65
 -13   4   1    0.22    0.70
  13   4  -1    0.06    0.70
 -13  -4  -1    0.67    0.68
 -13   4  -2    0.60    0.81
  13   4   2    0.77    0.70
 -13  -4   2   -0.35    0.72
 -13   4   2    0.36    0.69
 -13  -4  -2    0.95    0.67
  13   4  -2    0.24    0.72
 -13  -4  -2    0.12    0.67
 -13   4  -3    1.33    0.70
 -13  -4   3   -0.25    0.77
 -13   4  -3    0.60    0.85
  13   4   3    0.19    0.70
 -13  -4  -3    0.40    0.66
  13   4  -3    0.89    0.78
 -13   4   3    0.85    0.72
  13   4   4    3.97    0.79
 -13   4  -4    3.43    0.82
 -13  -4   4    1.48    0.86
  13  -4  -4    2.78    0.78
 -13  -4  -4    3.00    0.78
 -13   4   4    3.19    1.20
  13   4  -4    2.07    0.73
 -13   4  -5    2.66    0.86
 -13  -4   5    1.45    0.89
 -13  -4  -5    3.19    0.83
  13   4  -5    1.68    0.77
 -13  -5   0    0.01    0.71
  13   5   0   -0.14    0.71
 -13   5   0    1.25    0.75
  13   5   1    2.43    0.75
 -13  -5   1    0.79    0.80
 -13   5  -1    2.65    0.84
 -13  -5  -1    1.17    0.75
  13   5  -1    1.90    0.76
 -13   5   1    2.43    0.74
 -13  -5  -1    1.76    0.70
 -13  -5   2    0.08    0.76
  13   5   2    0.25    0.70
 -13   5  -2    0.56    0.83
 -13   5   2    0.88    0.73
 -13  -5  -2    0.27    0.69
 -13  -5  -2    1.21    0.69
  13   5  -2   -0.34    0.76
 -13  -5   3    4.21    0.96
 -13   5   3    6.24    0.92
 -13  -5  -3    5.07    0.79
 -13  -5   4    1.74    0.95
 -13   5  -4    2.55    0.91
  13   5  -4    2.02    0.78
 -13  -5  -4    1.43    0.77
 -13   6   0    0.93    0.80
 -13  -6   0   -0.67    0.78
 -13  -6   1    0.70    0.82
 -13   6   1    1.35    0.76
 -13  -6  -1    1.32    0.78
 -13  -6   2   -0.90    0.84
 -13   6   2    1.35    0.76
 -13  -6  -2    2.79    0.78
 -13  -6   3    3.13    0.99
 -13  -6  -3    4.02    0.84
 -13  -6   4    1.44    1.02
  13   6  -4    2.48    0.81
 -13  -6  -4    2.75    0.80
 -13  -7   0    1.68    0.85
 -13  -7   1    2.72    0.94
 -13  -7  -1    2.27    0.85
 -13  -7   2    2.53    0.98
 -13  -7   3    5.04    1.09
 -13  -7  -3    4.49    0.87
  13   7  -3    4.53    0.88
 -13  -8   0    0.49    0.89
 -13  -8   1    0.69    0.95
 -13  -8  -1    1.38    0.89
 -14   0   0   11.29    0.99
  14   0   0   11.50    1.08
 -14   0   0   12.74    1.14
 -14   0  -1   57.52    1.92
 -14   0   1   55.78    1.94
  14   0  -1   57.49    1.90
 -14   0   1   54.04    1.75
 -14   0  -1   57.47    1.79
  14   0  -2    9.66    0.96
 -14   0  -2   10.40    0.87
 -14   0  -2   11.56    1.14
 -14   0   2   10.72    1.03
  14   0  -3   21.38    1.41
 -14   0  -3   23.18    1.32
 -14   0  -3   25.38    1.32
 -14   0   3   22.39    1.42
  14   0  -4    8.22    1.08
 -14   0  -4    8.45    0.91
 -14   0   4    8.16    1.10
 -14   0   4    8.21    1.07
 -14   0  -5    6.04    0.92
 -14   1   0   67.16    1.94
 -14   1   0   64.44    2.12
 -14  -1   0   64.78    2.09
  14   1   0   67.68    2.09
 -14  -1   0   64.29    1.99
  14  -1  -1    8.56    0.85
 -14   1  -1   12.45    1.00
 -14   1  -1   12.19    1.16
 -14  -1   1   10.09    1.01
  14   1   1   10.85    1.07
 -14  -1  -1   11.75    1.04
 -14  -1  -1   12.69    1.10
  14   1  -1    8.95    0.93
 -14   1   1   13.62    1.15
 -14   1   1   10.29    0.91
 -14   1  -2   30.75    1.45
  14  -1  -2   27.94    1.42
 -14   1  -2   27.63    1.32
 -14  -1   2   26.98    1.46
 -14   1   2   29.59    1.46
 -14  -1  -2   29.40    1.38
 -14  -1  -2   29.15    1.35
  14   1  -2   28.70    1.49
  14  -1  -3    2.22    0.78
 -14   1  -3    3.42    0.85
 -14   1  -3    3.23    0.74
 -14  -1   3    3.07    0.94
 -14  -1   3    2.78    0.88
 -14   1   3    3.22    0.83
 -14  -1  -3    3.31    0.76
  14   1  -3    1.42    0.81
 -14  -1   4    0.63    0.89
  14  -1  -4    0.02    0.84
 -14   1  -4    0.54    0.74
 -14  -1  -4    1.37    0.77
 -14   1   4    0.56    0.83
 -14   1  -5   -0.34    0.77
  14   1  -5   -0.20    0.95
 -14  -1  -5    2.07    0.81
 -14  -2   0    1.38    0.75
 -14   2   0    1.16    0.61
 -14  -2   0    1.11    0.66
 -14   2   0    1.58    0.75
  14   2   0    0.14    0.74
 -14   2  -1    2.63    0.68
 -14  -2   1    1.50    0.75
  14   2   1    1.78    0.72
 -14   2  -1    1.81    0.78
 -14  -2   1    1.51    0.78
 -14  -2  -1    1.50    0.68
 -14  -2  -1    2.26    0.73
 -14   2   1    1.77    0.82
  14   2  -1    1.56    0.76
 -14  -2   2    1.35    0.81
 -14   2  -2    1.76    0.82
 -14  -2   2    0.31    0.77
  14  -2  -2   -0.58    0.66
 -14   2  -2    1.70    0.69
  14   2   2    1.65    0.69
 -14  -2  -2    1.05    0.65
 -14   2   2    1.40    0.77
  14   2  -2    0.79    0.80
  14  -2  -3    8.84    0.95
 -14  -2   3    7.11    1.03
 -14   2  -3    7.19    0.85
 -14   2  -3    7.27    0.98
 -14  -2  -3    7.30    0.82
  14   2  -3    6.60    0.97
 -14   2   3   10.03    1.05
 -14   2  -4    0.83    0.91
 -14   2  -4    1.94    0.75
  14  -2  -4    0.46    0.88
 -14  -2   4    1.08    0.84
 -14  -2  -4    0.11    0.72
 -14   2   4    1.58    0.89
 -14  -2   5    4.24    1.23
 -14   2  -5    6.21    0.94
 -14  -2  -5    4.82    0.88
  14   2  -5    5.17    0.83
  14   3   0   18.54    1.31
 -14   3   0   17.46    1.26
 -14  -3   0   16.99    1.50
 -14  -3   0   17.71    1.23
 -14  -3   0   18.60    1.15
 -14  -3   1    1.72    0.76
 -14  -3   1    2.57    0.82
 -14   3  -1    2.32    0.84
  14   3   1    1.98    0.77
 -14   3   1    2.62    0.79
 -14  -3  -1    2.62    0.71
  14   3  -1    2.55    0.81
 -14  -3  -1    2.61    0.78
 -14  -3   2    4.81    0.86
  14   3   2    4.39    0.81
 -14   3  -2    4.79    0.88
 -14   3  -2    5.20    0.78
 -14  -3  -2    5.06    0.79
  14   3  -2    2.63    0.88
 -14   3   2    4.82    0.86
 -14  -3  -2    4.41    0.82
 -14   3  -3    1.16    0.75
  14  -3  -3    0.11    0.73
 -14  -3   3    0.34    0.84
 -14   3  -3   -0.95    0.83
  14   3   3    0.58    0.72
  14   3  -3   -1.20    0.79
 -14   3   3    1.00    0.79
 -14  -3  -3    0.41    0.69
 -14  -3   4    1.65    0.90
 -14   3  -4    3.81    0.83
 -14  -3  -4    3.33    0.79
 -14   3  -5    0.04    0.84
 -14  -3   5   -0.03    0.87
 -14  -3  -5    0.96    0.80
  14   3  -5   -0.59    0.73
 -14  -4   0    5.83    0.89
  14   4   0    5.86    0.88
 -14   4   0    7.53    0.93
 -14  -4   0    8.56    0.95
 -14  -4   1   30.27    1.80
  14   4   1   29.52    1.52
 -14   4  -1   28.72    1.54
  14   4  -1   27.86    1.59
 -14  -4  -1   31.20    1.40
 -14  -4  -1   27.62    1.71
 -14   4   1   30.78    1.49
 -14   4  -2    5.91    0.97
 -14  -4   2    5.37    0.94
  14   4   2    5.55    0.85
  14   4  -2    5.26    0.89
 -14  -4  -2    5.34    0.85
 -14  -4  -2    7.72    0.87
 -14   4   2    6.12    0.90
 -14  -4   3    9.29    1.13
 -14   4  -3   10.42    0.93
  14   4   3    9.46    0.97
 -14  -4  -3    9.42    0.94
 -14   4   3   11.63    1.21
 -14   4  -4    6.68    0.90
 -14  -4   4    4.74    1.01
 -14  -4  -4    6.15    0.87
  14   4  -4    4.01    0.84
 -14  -5   0   85.43    2.79
  14   5   0   83.30    2.69
 -14   5   0   75.62    2.58
  14   5   1   10.32    1.17
 -14  -5   1   15.22    1.68
 -14   5   1   15.20    1.26
 -14  -5  -1   15.67    1.57
 -14  -5  -1   17.39    1.24
 -14  -5   2   47.23    2.22
 -14   5   2   40.77    1.89
 -14  -5  -2   41.88    1.95
 -14  -5  -2   39.78    1.68
 -14  -5   3    4.92    1.01
 -14  -5  -3    6.25    0.87
 -14  -5   4    4.80    1.09
 -14  -5  -4    5.58    0.91
  14   5  -4    6.00    0.92
 -14  -6   0   -0.81    0.79
 -14  -6   1    3.01    0.93
 -14  -6  -1    1.22    0.82
 -14  -6   2    0.03    0.90
 -14  -6  -2    0.41    0.77
 -14  -6   3   -0.36    0.95
 -14  -6  -3    1.35    0.80
 -14  -7   0    3.67    0.98
 -14  -7   1    1.26    0.94
 -14  -7  -1    0.50    0.87
 -14  -7   2    0.34    0.99
  15   0   0   -0.89    0.71
 -15   0   0    1.30    0.77
 -15   0   0    0.56    0.68
 -15   0   1    3.36    0.83
 -15   0  -1    2.55    0.75
 -15   0  -1    2.68    0.84
  15   0  -1    1.90    0.78
 -15   0   2    0.80    0.84
 -15   0  -2    0.43    0.74
  15   0  -2   -0.17    0.82
 -15   0  -2    1.86    0.78
 -15   0  -3    5.63    1.14
 -15   0   3    3.60    1.03
  15   0  -3    2.60    0.90
 -15   0  -3    4.98    0.84
 -15   0   4    2.98    1.05
 -15   0  -4    4.68    0.88
 -15   0  -5    1.13    0.82
 -15   1   0    0.36    0.65
 -15  -1   0    0.29    0.70
  15   1   0   -0.08    0.73
 -15   1   0    1.62    0.79
 -15  -1   0    2.84    0.80
  15  -1  -1    0.05    0.77
  15   1   1    1.52    0.77
 -15   1  -1    2.65    0.83
 -15  -1   1    1.99    0.85
 -15   1  -1    1.48    0.70
 -15   1   1    1.18    0.65
  15   1  -1    2.15    0.82
 -15  -1  -1    2.41    0.78
 -15   1   1    2.56    0.81
 -15  -1  -1    1.66    0.74
  15  -1  -2   -0.15    0.74
 -15   1  -2    0.05    0.72
 -15  -1   2   -0.59    0.78
 -15   1  -2    0.97    0.81
 -15   1   2    1.50    0.83
 -15  -1  -2    1.35    0.76
  15   1  -2   -0.45    0.80
 -15  -1  -2   -0.49    0.69
  15  -1  -3    3.07    0.87
 -15  -1   3    5.40    1.07
 -15   1  -3    4.58    0.95
 -15   1  -3    2.80    0.83
 -15  -1   3    2.78    1.12
 -15   1   3    4.41    1.05
  15   1  -3    2.33    0.93
 -15  -1  -3    1.05    0.74
 -15   1  -4    1.33    0.78
 -15  -1   4    0.93    0.98
 -15  -1  -4    0.50    0.76
 -15   1  -5    1.32    0.83
 -15  -1  -5    1.02    0.82
 -15  -2   0    0.50    0.76
 -15   2   0    2.01    0.80
 -15  -2   0    0.98    0.73
  15   2   0    0.48    0.80
 -15   2   0   -0.14    0.74
 -15  -2   1    1.11    0.83
 -15   2  -1    3.49    0.72
 -15   2  -1    2.75    0.84
 -15  -2   1    2.27    0.83
  15   2   1    2.61    0.80
 -15  -2  -1    1.35    0.73
 -15   2   1    3.27    0.84
 -15  -2  -1    3.18    0.80
  15   2  -1    1.74    0.85
 -15   2  -2    4.48    0.93
 -15  -2   2    3.06    0.95
 -15   2  -2    6.59    0.82
  15  -2  -2    4.59    1.12
  15   2   2    3.66    0.86
 -15  -2   2    3.68    0.95
 -15   2   2    5.01    0.91
 -15  -2  -2    4.54    0.80
  15   2  -2    4.41    0.93
 -15  -2   3   13.97    1.27
 -15   2  -3   14.77    1.24
  15  -2  -3   11.05    1.06
 -15   2  -3   14.83    1.40
 -15  -2  -3   11.85    1.01
 -15  -2   4    3.36    0.97
 -15   2  -4    3.49    0.85
 -15  -2  -4    2.64    0.82
 -15  -2   5    6.50    1.55
 -15   2  -5    8.92    1.01
  15   2  -5    7.78    0.92
 -15  -2  -5    8.41    0.99
 -15  -3   0    1.14    0.81
  15   3   0   -0.47    0.80
 -15  -3   0    1.18    0.75
 -15  -3   0   -0.09    0.78
 -15   3   0    1.15    0.80
 -15   3  -1    3.72    0.88
  15   3   1    3.04    0.84
 -15  -3   1    3.27    0.87
 -15  -3   1    2.50    0.86
 -15  -3  -1    1.67    0.76
 -15   3   1    3.14    0.89
 -15  -3  -1    2.23    0.84
  15   3  -1    3.35    0.88
 -15   3  -2    1.43    0.75
 -15   3  -2    0.36    0.89
 -15  -3   2   -1.04    0.80
  15   3   2    0.00    0.76
 -15  -3  -2    0.95    0.75
  15   3  -2   -0.62    0.90
 -15  -3  -2   -1.41    0.74
 -15   3   2    0.61    0.84
 -15  -3   3    6.99    1.08
 -15   3  -3    7.44    0.90
 -15  -3  -3    8.18    0.93
 -15  -3   4    0.59    0.92
 -15   3  -4    0.46    0.79
 -15  -3  -4    0.29    0.82
  15   4   0   -0.47    0.79
 -15  -4   0   -0.13    0.79
 -15   4   0    2.08    1.25
  15   4   1    1.89    0.85
 -15  -4   1    2.31    0.90
 -15   4   1    1.32    1.20
 -15  -4  -1    2.32    0.79
 -15  -4  -1    1.19    0.82
 -15  -4   2    0.60    0.88
 -15  -4  -2   -0.72    0.77
 -15  -4  -2   -0.05    0.79
 -15  -4   3    4.52    1.07
 -15  -4  -3    5.58    0.89
 -15  -4   4    0.98    0.99
 -15   4  -4    1.49    0.83
  15   4  -4    2.48    0.83
 -15  -4  -4    1.23    0.82
 -15  -5   0    0.09    0.85
 -15  -5   1    0.59    0.91
 -15  -5  -1    1.08    0.80
 -15  -5  -1    1.00    0.86
 -15  -5   2    1.43    0.98
 -15  -5  -2    0.40    0.80
 -15  -5  -2    1.01    0.90
 -15  -5   3    0.14    0.93
 -15  -5  -3    2.01    0.84
 -15  -6   0    0.34    0.87
 -15  -6   1    0.96    0.93
 -15  -6  -1    1.08    0.85
 -15  -6   2    1.05    0.98
 -15  -6  -2    2.40    0.86
 -16   0   0   32.26    1.57
 -16   0   0   32.52    1.46
  16   0  -1    5.40    0.93
 -16   0  -1    7.94    1.00
 -16   0   1    9.01    1.03
 -16   0  -1    7.13    0.89
 -16   0  -2   15.37    1.24
  16   0  -2   12.71    1.15
 -16   0  -2   16.47    1.33
 -16   0  -3    0.16    0.78
 -16   0  -4    0.71    0.80
 -16   0   4    0.17    1.03
 -16  -1   0    4.06    0.83
  16   1   0    2.87    0.87
 -16   1   0    5.05    0.92
 -16  -1   0    5.61    0.96
 -16   1   0    4.74    0.80
 -16   1  -1    2.60    0.87
 -16   1  -1    3.11    0.80
 -16  -1   1    2.33    0.90
  16   1  -1    2.33    0.90
 -16   1   1    3.04    0.87
 -16  -1  -1    3.71    0.85
 -16  -1  -1    2.60    0.80
 -16   1  -2    2.21    0.90
  16  -1  -2   -0.32    0.80
 -16   1  -2    1.55    0.81
 -16  -1  -2    0.40    0.77
 -16  -1  -2    1.59    1.03
  16   1  -2   -0.51    0.89
 -16   1  -3    2.80    0.87
 -16   1  -3    6.84    1.32
 -16  -1   3    3.89    1.11
 -16  -1  -3    3.41    0.87
 -16   1  -4    1.42    0.84
 -16  -1   4    0.81    0.95
 -16  -1  -4    1.18    0.80
  16   2   0    7.70    1.01
 -16  -2   0    7.52    0.91
 -16  -2   0    7.57    0.99
 -16   2   0    7.63    1.06
 -16   2  -1    0.84    0.76
 -16  -2   1    0.26    0.89
 -16  -2   1    2.29    0.92
 -16   2  -1    2.80    0.94
  16   2   1    0.79    0.84
 -16  -2  -1    2.78    0.86
 -16  -2  -1    1.01    0.81
  16   2  -1    1.17    0.92
 -16  -2   2   18.12    1.84
 -16   2  -2   19.76    1.31
 -16  -2  -2   18.26    1.34
 -16  -2   3    0.86    0.93
 -16   2  -3    1.32    0.84
 -16  -2  -3    1.15    0.81
 -16  -2   4   30.35    2.11
 -16  -3   0    3.04    0.86
  16   3   0    1.94    0.95
 -16  -3   0    2.50    0.90
 -16  -3   1   20.86    1.77
  16   3   1   19.29    1.43
 -16  -3   1   20.02    1.48
 -16  -3  -1   18.77    1.70
 -16  -3  -1   18.95    1.36
  16   3   2    1.28    0.95
 -16  -3   2    1.17    0.94
 -16  -3  -2    2.09    0.83
 -16  -3  -2    1.12    0.87
 -16  -3   3   20.56    1.96
 -16   3  -3   19.58    1.38
 -16  -3  -3   17.26    1.42
 -16  -3   4   -0.04    0.97
 -16  -4   0   14.86    1.70
 -16  -4   1    5.34    1.04
 -16  -4  -1    4.35    0.95
 -16  -4  -1    5.12    0.90
 -16  -4   2    4.11    1.05
 -16  -4  -2    2.89    0.88
 -16  -4  -2    4.89    0.97
 -16  -4   3   -0.46    1.00
 -16  -4  -3    1.31    0.85
 -16  -5   0    3.71    0.98
 -16  -5   1    1.62    0.99
 -16  -5  -1    1.40    0.91
 -16  -5   2    2.01    1.04
 -16  -5  -2    2.11    0.88
 -17   0   0    0.38    0.78
 -17   0  -1    3.20    0.85
 -17   0  -2    3.13    0.88
 -17   0  -3    5.99    0.99
 -17   1   0    0.46    0.78
 -17  -1   0    0.77    0.84
 -17   1  -1    0.15    0.81
  17   1  -1   -0.76    0.99
 -17  -1  -1   -0.65    0.82
 -17  -1  -1    1.10    0.91
 -17  -1   2    0.73    1.04
 -17   1  -2    1.98    0.85
 -17  -1  -2    1.78    0.87
 -17   1  -3    0.25    0.86
 -17  -1   3    0.75    1.09
 -17  -1  -3    0.95    0.82
 -17  -2   0    0.06    0.81
 -17  -2   1    4.23    1.05
 -17   2  -1    6.36    1.09
 -17  -2  -1    3.12    0.88
 -17   2  -2    0.10    0.85
 -17  -2   2    1.76    1.03
 -17  -2  -2    1.05    0.86
 -17   2  -3   19.96    1.43
 -17  -2   3   16.89    1.96
 -17  -2  -3   19.60    1.42
 -17  -3   0    0.35    0.90
 -17  -3   1    0.25    0.94
 -17  -3  -1   -0.62    0.88
 -17  -3  -1    0.58    0.84
 -17  -3   2    3.73    1.09
 -17  -3  -2    2.40    0.90
 -17  -3  -2    1.51    0.93
 -17  -3   3    2.40    1.08
 -17  -4   0   -0.76    0.91
 -17  -4   1    0.76    0.99
 -17  -4  -1    2.16    0.95
 -17  -4  -1    2.59    0.91
 -17  -4   2   -0.04    0.99
 -17  -4  -2    0.12    0.88
 -17  -4  -2    1.85    0.95
 -18   0   0    0.17    0.85
 -18   0  -1   16.68    1.39
 -18   0  -2    3.76    0.96
 -18   1   0   11.97    1.15
 -18  -1   0   11.38    1.09
 -18   1  -1    1.78    0.89
 -18  -1  -1    0.85    0.88
 -18  -1   2    5.44    1.19
 -18   1  -2    6.06    1.00
 -18  -1  -2    6.92    1.02
 -18  -2   0    0.96    1.01
 -18  -2   1    5.50    1.16
 -18  -2  -1    7.18    1.04
 -18   2  -2    1.28    0.90
 -18  -2   2   -1.03    1.05
 -18  -2  -2   -0.69    0.87
 -18  -3   0    1.95    1.00
 -18  -3   1    0.16    1.01
 -18  -3  -1   -1.21    0.92
 -18  -3  -1    0.23    0.89
   0   0   0    0.00    0.00
;
_shelx_hkl_checksum              78262
loop_
_space_group_symop_operation_xyz
'x, y, z'
'-x+1/2, -y, z+1/2'
'-x, y+1/2, -z'
'x+1/2, -y+1/2, -z+1/2'
'-x, -y, -z'
'x-1/2, y, -z-1/2'
'x, -y-1/2, z'
'-x-1/2, y-1/2, z-1/2'
loop_
_atom_site_label
_atom_site_type_symbol
_atom_site_fract_x
_atom_site_fract_y
_atom_site_fract_z
_atom_site_U_iso_or_equiv
_atom_site_adp_type
_atom_site_occupancy
_atom_site_site_symmetry_order
_atom_site_calc_flag
_atom_site_refinement_flags_posn
_atom_site_refinement_flags_adp
_atom_site_refinement_flags_occupancy
P1 P 0.08749(7) 0.250000 0.15490(15) 0.0163(2) Uani 0.5 2 d S T P
Si1 Si 0.08749(7) 0.250000 0.15490(15) 0.0163(2) Uani 0.5 2 d S T P
S1 S 0.15498(5) 0.03079(9) 0.27334(11) 0.0235(2) Uani 1 1 d . . .
S2 S -0.06011(7) 0.250000 0.26838(15) 0.0201(2) Uani 1 2 d S T P
S3 S 0.09530(8) 0.250000 -0.18368(15) 0.0241(2) Uani 1 2 d S T P
Li1A Li 0.3289(6) 0.0263(11) 0.3740(17) 0.049(3) Uani 0.730(18) 1 d . U P
Li1B Li 0.3298(14) 0.005(3) 0.186(3) 0.032(6) Uani 0.270(18) 1 d . U P
Li2 Li 0.0099(13) 0.031(3) 0.547(2) 0.043(6) Uani 0.38(2) 1 d . . .
Li3A Li -0.087(2) 0.250000 -0.132(5) 0.039(10) Uani 0.35(7) 2 d S T .
Li3B Li -0.068(5) 0.250000 -0.282(17) 0.14(4) Uani 0.46(9) 2 d S T .
loop_
_atom_site_aniso_label
_atom_site_aniso_U_11
_atom_site_aniso_U_22
_atom_site_aniso_U_33
_atom_site_aniso_U_23
_atom_site_aniso_U_13
_atom_site_aniso_U_12
P1 0.0184(5) 0.0146(5) 0.0160(4) 0.000 0.0013(3) 0.000
Si1 0.0184(5) 0.0146(5) 0.0160(4) 0.000 0.0013(3) 0.000
S1 0.0226(3) 0.0212(4) 0.0266(3) 0.0044(3) -0.0005(2) 0.0034(2)
S2 0.0195(4) 0.0181(5) 0.0228(4) 0.000 0.0015(3) 0.000
S3 0.0336(5) 0.0211(5) 0.0176(4) 0.000 0.0045(3) 0.000
Li1A 0.040(5) 0.040(5) 0.067(7) 0.015(4) -0.006(4) 0.003(4)
Li1B 0.029(10) 0.030(11) 0.038(12) 0.002(8) -0.008(8) 0.005(8)
Li2 0.033(9) 0.064(15) 0.032(11) 0.022(9) -0.004(8) -0.007(8)
Li3A 0.044(17) 0.050(17) 0.021(16) 0.000 -0.008(10) 0.000
Li3B 0.18(5) 0.028(16) 0.21(9) 0.000 -0.12(5) 0.000
loop_
_atom_type_symbol
_atom_type_description
_atom_type_scat_dispersion_real
_atom_type_scat_dispersion_imag
_atom_type_scat_source
Li Li -0.0003 0.0001 'International Tables Vol C Tables 4.2.6.8 and 6.1.1.4'
P P 0.1023 0.0942 'International Tables Vol C Tables 4.2.6.8 and 6.1.1.4'
S S 0.1246 0.1234 'International Tables Vol C Tables 4.2.6.8 and 6.1.1.4'
Si Si 0.0817 0.0704 'International Tables Vol C Tables 4.2.6.8 and 6.1.1.4'
loop_
_geom_angle_atom_site_label_1
_geom_angle_atom_site_label_2
_geom_angle_atom_site_label_3
_geom_angle
_geom_angle_site_symmetry_1
_geom_angle_site_symmetry_3
S3 P1 S1 109.00(4) . .
S3 P1 S1 109.00(4) . 7_565
S1 P1 S1 112.42(6) . 7_565
S3 P1 S2 112.25(6) . .
S1 P1 S2 107.11(4) . .
S1 P1 S2 107.11(4) 7_565 .
S3 P1 Li3A 56.1(5) . .
S1 P1 Li3A 123.77(3) . .
S1 P1 Li3A 123.77(3) 7_565 .
S2 P1 Li3A 56.2(5) . .
S3 P1 Li1A 53.7(2) . 2_554
S1 P1 Li1A 55.4(2) . 2_554
S1 P1 Li1A 130.00(18) 7_565 2_554
S2 P1 Li1A 122.89(17) . 2_554
Li3A P1 Li1A 87.4(4) . 2_554
S3 P1 Li1A 53.7(2) . 8_665
S1 P1 Li1A 130.00(17) . 8_665
S1 P1 Li1A 55.4(2) 7_565 8_665
S2 P1 Li1A 122.89(17) . 8_665
Li3A P1 Li1A 87.4(4) . 8_665
Li1A P1 Li1A 93.5(4) 2_554 8_665
P1 S1 Li1B 114.4(5) . .
P1 S1 Li1A 121.4(2) . .
Li1B S1 Li1A 27.9(5) . .
P1 S1 Li1A 81.2(2) . 2_554
Li1B S1 Li1A 71.5(5) . 2_554
Li1A S1 Li1A 99.4(3) . 2_554
P1 S1 Li3B 122.8(9) . 5
Li1B S1 Li3B 112.5(18) . 5
Li1A S1 Li3B 115.5(10) . 5
Li1A S1 Li3B 84(3) 2_554 5
P1 S1 Li2 86.1(5) . 5_556
Li1B S1 Li2 159.0(7) . 5_556
Li1A S1 Li2 137.3(4) . 5_556
Li1A S1 Li2 117.9(4) 2_554 5_556
Li3B S1 Li2 54(2) 5 5_556
P1 S1 Li1B 118.2(4) . 2
Li1B S1 Li1B 97.6(6) . 2
Li1A S1 Li1B 70.6(5) . 2
Li1A S1 Li1B 160.6(5) 2_554 2
Li3B S1 Li1B 85(2) 5 2
Li2 S1 Li1B 67.4(5) 5_556 2
P1 S1 Li3A 116.8(6) . 5
Li1B S1 Li3A 101.4(8) . 5
Li1A S1 Li3A 114.7(6) . 5
Li1A S1 Li3A 62.6(7) 2_554 5
Li3B S1 Li3A 22(2) 5 5
Li2 S1 Li3A 70.5(7) 5_556 5
Li1B S1 Li3A 105.6(8) 2 5
P1 S1 Li2 84.1(5) . .
Li1B S1 Li2 151.8(6) . .
Li1A S1 Li2 124.4(4) . .
Li1A S1 Li2 134.9(4) 2_554 .
Li3B S1 Li2 69(3) 5 .
Li2 S1 Li2 18.2(7) 5_556 .
Li1B S1 Li2 54.1(5) 2 .
Li3A S1 Li2 87.4(7) 5 .
P1 S2 Li1B 127.3(4) . 6_556
P1 S2 Li1B 127.3(4) . 4_455
Li1B S2 Li1B 104.3(9) 6_556 4_455
P1 S2 Li1A 116.8(2) . 6_556
Li1B S2 Li1A 27.4(5) 6_556 6_556
Li1B S2 Li1A 104.1(5) 4_455 6_556
P1 S2 Li1A 116.8(2) . 4_455
Li1B S2 Li1A 104.1(5) 6_556 4_455
Li1B S2 Li1A 27.4(5) 4_455 4_455
Li1A S2 Li1A 91.5(5) 6_556 4_455
P1 S2 Li3A 79.1(7) . .
Li1B S2 Li3A 91.4(6) 6_556 .
Li1B S2 Li3A 91.4(6) 4_455 .
Li1A S2 Li3A 64.0(5) 6_556 .
Li1A S2 Li3A 64.0(5) 4_455 .
P1 S2 Li2 84.2(4) . 3_556
Li1B S2 Li2 141.9(6) 6_556 3_556
Li1B S2 Li2 55.1(6) 4_455 3_556
Li1A S2 Li2 158.1(4) 6_556 3_556
Li1A S2 Li2 72.2(4) 4_455 3_556
Li3A S2 Li2 118.1(4) . 3_556
P1 S2 Li2 84.2(4) . 5_556
Li1B S2 Li2 55.1(6) 6_556 5_556
Li1B S2 Li2 141.9(6) 4_455 5_556
Li1A S2 Li2 72.2(4) 6_556 5_556
Li1A S2 Li2 158.1(4) 4_455 5_556
Li3A S2 Li2 118.1(4) . 5_556
Li2 S2 Li2 118.8(6) 3_556 5_556
P1 S2 Li2 83.0(4) . 7_565
Li1B S2 Li2 131.8(6) 6_556 7_565
Li1B S2 Li2 67.5(6) 4_455 7_565
Li1A S2 Li2 157.4(5) 6_556 7_565
Li1A S2 Li2 88.5(4) 4_455 7_565
Li3A S2 Li2 134.6(5) . 7_565
Li2 S2 Li2 17.9(7) 3_556 7_565
Li2 S2 Li2 101.00(13) 5_556 7_565
P1 S2 Li2 83.0(4) . .
Li1B S2 Li2 67.5(6) 6_556 .
Li1B S2 Li2 131.8(6) 4_455 .
Li1A S2 Li2 88.5(4) 6_556 .
Li1A S2 Li2 157.4(5) 4_455 .
Li3A S2 Li2 134.6(5) . .
Li2 S2 Li2 101.00(13) 3_556 .
Li2 S2 Li2 17.9(7) 5_556 .
Li2 S2 Li2 83.2(7) 7_565 .
P1 S2 Li3B 111.5(14) . 1_556
Li1B S2 Li3B 82.1(9) 6_556 1_556
Li1B S2 Li3B 82.1(9) 4_455 1_556
Li1A S2 Li3B 109.3(9) 6_556 1_556
Li1A S2 Li3B 109.3(9) 4_455 1_556
Li3A S2 Li3B 169.3(13) . 1_556
Li2 S2 Li3B 64.7(6) 3_556 1_556
Li2 S2 Li3B 64.7(6) 5_556 1_556
Li2 S2 Li3B 50.1(8) 7_565 1_556
Li2 S2 Li3B 50.1(8) . 1_556
P1 S3 Li3B 103(3) . .
P1 S3 Li1B 110.8(5) . 8_665
Li3B S3 Li1B 108.4(14) . 8_665
P1 S3 Li1B 110.8(5) . 2_554
Li3B S3 Li1B 108.4(14) . 2_554
Li1B S3 Li1B 115.1(10) 8_665 2_554
P1 S3 Li1A 82.9(2) . 8_665
Li3B S3 Li1A 116.2(2) . 8_665
Li1B S3 Li1A 27.9(5) 8_665 8_665
Li1B S3 Li1A 129.0(5) 2_554 8_665
P1 S3 Li1A 82.9(2) . 2_554
Li3B S3 Li1A 116.2(2) . 2_554
Li1B S3 Li1A 129.0(5) 8_665 2_554
Li1B S3 Li1A 27.9(5) 2_554 2_554
Li1A S3 Li1A 127.6(4) 8_665 2_554
P1 S3 Li3A 79.7(7) . .
Li3B S3 Li3A 23(2) . .
Li1B S3 Li3A 117.4(5) 8_665 .
Li1B S3 Li3A 117.4(5) 2_554 .
Li1A S3 Li3A 113.3(3) 8_665 .
Li1A S3 Li3A 113.3(3) 2_554 .
P1 S3 Li2 126.8(4) . 1_554
Li3B S3 Li2 54.4(18) . 1_554
Li1B S3 Li2 121.6(6) 8_665 1_554
Li1B S3 Li2 54.8(7) 2_554 1_554
Li1A S3 Li2 148.9(5) 8_665 1_554
Li1A S3 Li2 71.6(5) 2_554 1_554
Li3A S3 Li2 69.6(7) . 1_554
P1 S3 Li2 126.8(4) . 7_564
Li3B S3 Li2 54.4(18) . 7_564
Li1B S3 Li2 54.8(7) 8_665 7_564
Li1B S3 Li2 121.6(6) 2_554 7_564
Li1A S3 Li2 71.6(5) 8_665 7_564
Li1A S3 Li2 148.9(5) 2_554 7_564
Li3A S3 Li2 69.6(7) . 7_564
Li2 S3 Li2 81.5(8) 1_554 7_564
Li1B Li1A S1 76.0(10) . .
Li1B Li1A S3 74.0(11) . 2
S1 Li1A S3 112.3(4) . 2
Li1B Li1A S2 75.4(11) . 6_656
S1 Li1A S2 118.8(3) . 6_656
S3 Li1A S2 109.9(4) 2 6_656
Li1B Li1A S1 160.6(11) . 2
S1 Li1A S1 109.7(4) . 2
S3 Li1A S1 86.8(3) 2 2
S2 Li1A S1 115.0(4) 6_656 2
Li1B Li1A Li3A 133.4(13) . 6_656
S1 Li1A Li3A 123.9(7) . 6_656
S3 Li1A Li3A 120.9(6) 2 6_656
S2 Li1A Li3A 58.1(7) 6_656 6_656
S1 Li1A Li3A 59.7(6) 2 6_656
Li1B Li1A Li1B 130.8(9) . 2
S1 Li1A Li1B 56.9(5) . 2
S3 Li1A Li1B 109.2(5) 2 2
S2 Li1A Li1B 138.0(6) 6_656 2
S1 Li1A Li1B 52.9(4) 2 2
Li3A Li1A Li1B 88.6(9) 6_656 2
Li1B Li1A Li2 46.1(10) . 2_554
S1 Li1A Li2 122.1(5) . 2_554
S3 Li1A Li2 57.5(5) 2 2_554
S2 Li1A Li2 55.6(4) 6_656 2_554
S1 Li1A Li2 124.6(5) 2 2_554
Li3A Li1A Li2 101.3(8) 6_656 2_554
Li1B Li1A Li2 166.2(7) 2 2_554
Li1B Li1A P1 117.4(11) . 2
S1 Li1A P1 121.3(3) . 2
S3 Li1A P1 43.42(14) 2 2
S2 Li1A P1 119.9(3) 6_656 2
S1 Li1A P1 43.43(14) 2 2
Li3A Li1A P1 89.2(5) 6_656 2
Li1B Li1A P1 80.3(5) 2 2
Li2 Li1A P1 90.2(5) 2_554 2
Li1B Li1A Li3B 143.9(14) . 6_656
S1 Li1A Li3B 125.5(9) . 6_656
S3 Li1A Li3B 114.1(10) 2 6_656
S2 Li1A Li3B 68.8(9) 6_656 6_656
S1 Li1A Li3B 48.0(10) 2 6_656
Li3A Li1A Li3B 11.8(7) 6_656 6_656
Li1B Li1A Li3B 81.7(9) 2 6_656
Li2 Li1A Li3B 106.3(9) 2_554 6_656
P1 Li1A Li3B 78.6(11) 2 6_656
Li1A Li1B Li2 112.8(13) . 2_554
Li1A Li1B S3 78.1(11) . 2
Li2 Li1B S3 68.2(7) 2_554 2
Li1A Li1B S1 76.0(11) . .
Li2 Li1B S1 171.1(11) 2_554 .
S3 Li1B S1 113.9(8) 2 .
Li1A Li1B S2 77.3(11) . 6_656
Li2 Li1B S2 65.4(7) 2_554 6_656
S3 Li1B S2 112.0(7) 2 6_656
S1 Li1B S2 119.6(8) . 6_656
Li1A Li1B S1 175.6(15) . 2_554
Li2 Li1B S1 63.4(6) 2_554 2_554
S3 Li1B S1 101.7(7) 2 2_554
S1 Li1B S1 107.9(7) . 2_554
S2 Li1B S1 98.8(7) 6_656 2_554
Li1A Li1B Li2 120.0(13) . 6_656
Li2 Li1B Li2 14.5(9) 2_554 6_656
S3 Li1B Li2 82.6(7) 2 6_656
S1 Li1B Li2 160.2(10) . 6_656
S2 Li1B Li2 58.9(6) 6_656 6_656
S1 Li1B Li2 55.7(6) 2_554 6_656
Li1A Li1B Li1A 131.6(13) . 2_554
Li2 Li1B Li1A 115.6(9) 2_554 2_554
S3 Li1B Li1A 117.4(8) 2 2_554
S1 Li1B Li1A 55.6(4) . 2_554
S2 Li1B Li1A 126.3(8) 6_656 2_554
S1 Li1B Li1A 52.5(4) 2_554 2_554
Li2 Li1B Li1A 107.8(8) 6_656 2_554
Li1A Li1B Li3B 130(2) . 6_655
Li2 Li1B Li3B 55.8(12) 2_554 6_655
S3 Li1B Li3B 123.3(11) 2 6_655
S1 Li1B Li3B 120.1(15) . 6_655
S2 Li1B Li3B 52.8(16) 6_656 6_655
S1 Li1B Li3B 46.9(15) 2_554 6_655
Li2 Li1B Li3B 41.3(11) 6_656 6_655
Li1A Li1B Li3B 82.3(19) 2_554 6_655
Li1A Li1B Li3A 32.7(10) . 6_656
Li2 Li1B Li3A 93.4(9) 2_554 6_656
S3 Li1B Li3A 94.1(6) 2 6_656
S1 Li1B Li3A 95.1(8) . 6_656
S2 Li1B Li3A 44.6(5) 6_656 6_656
S1 Li1B Li3A 143.4(9) 2_554 6_656
Li2 Li1B Li3A 94.7(8) 6_656 6_656
Li1A Li1B Li3A 142.8(8) 2_554 6_656
Li3B Li1B Li3A 97.0(14) 6_655 6_656
Li2 Li2 Li3B 130(3) 5_556 1_556
Li2 Li2 Li1B 119(3) 5_556 2
Li3B Li2 Li1B 110.5(13) 1_556 2
Li2 Li2 S1 85(3) 5_556 5_556
Li3B Li2 S1 62.9(19) 1_556 5_556
Li1B Li2 S1 128.9(8) 2 5_556
Li2 Li2 S1 77(3) 5_556 .
Li3B Li2 S1 130(2) 1_556 .
Li1B Li2 S1 62.5(7) 2 .
S1 Li2 S1 161.8(7) 5_556 .
Li2 Li2 S2 83(3) 5_556 5_556
Li3B Li2 S2 125(2) 1_556 5_556
Li1B Li2 S2 59.6(7) 2 5_556
S1 Li2 S2 82.6(5) 5_556 5_556
S1 Li2 S2 95.0(7) . 5_556
Li2 Li2 S2 80(3) 5_556 .
Li3B Li2 S2 68(2) 1_556 .
Li1B Li2 S2 130.8(9) 2 .
S1 Li2 S2 95.7(6) 5_556 .
S1 Li2 S2 81.1(5) . .
S2 Li2 S2 162.1(7) 5_556 .
Li2 Li2 S3 172(3) 5_556 1_556
Li3B Li2 S3 54.3(11) 1_556 1_556
Li1B Li2 S3 57.0(6) 2 1_556
S1 Li2 S3 103.6(6) 5_556 1_556
S1 Li2 S3 94.6(5) . 1_556
S2 Li2 S3 100.2(5) 5_556 1_556
S2 Li2 S3 97.5(7) . 1_556
Li2 Li2 Li1B 46(3) 5_556 6_556
Li3B Li2 Li1B 84.0(13) 1_556 6_556
Li1B Li2 Li1B 165.5(9) 2 6_556
S1 Li2 Li1B 56.9(5) 5_556 6_556
S1 Li2 Li1B 108.6(6) . 6_556
S2 Li2 Li1B 112.5(8) 5_556 6_556
S2 Li2 Li1B 53.6(5) . 6_556
S3 Li2 Li1B 137.3(9) 1_556 6_556
Li2 Li2 Li3B 37(3) 5_556 5
Li3B Li2 Li3B 167.6(8) 1_556 5
Li1B Li2 Li3B 81.9(12) 2 5
S1 Li2 Li3B 109.6(17) 5_556 5
S1 Li2 Li3B 54.7(18) . 5
S2 Li2 Li3B 60.5(16) 5_556 5
S2 Li2 Li3B 104.0(15) . 5
S3 Li2 Li3B 137.9(12) 1_556 5
Li1B Li2 Li3B 83.6(10) 6_556 5
Li2 Li2 Li3A 134(3) 5_556 1_556
Li3B Li2 Li3A 16(2) 1_556 1_556
Li1B Li2 Li3A 103.9(9) 2 1_556
S1 Li2 Li3A 55.3(6) 5_556 1_556
S1 Li2 Li3A 141.0(8) . 1_556
S2 Li2 Li3A 109.3(7) 5_556 1_556
S2 Li2 Li3A 83.6(8) . 1_556
S3 Li2 Li3A 52.3(6) 1_556 1_556
Li1B Li2 Li3A 90.1(9) 6_556 1_556
Li3B Li2 Li3A 164.2(19) 5 1_556
Li2 Li2 Li1A 129(3) 5_556 2
Li3B Li2 Li1A 98.1(14) 1_556 2
Li1B Li2 Li1A 21.1(5) 2 2
S1 Li2 Li1A 108.3(5) 5_556 2
S1 Li2 Li1A 83.6(5) . 2
S2 Li2 Li1A 52.1(4) 5_556 2
S2 Li2 Li1A 143.4(7) . 2
S3 Li2 Li1A 50.8(3) 1_556 2
Li1B Li2 Li1A 162.2(8) 6_556 2
Li3B Li2 Li1A 93.7(11) 5 2
Li3A Li2 Li1A 87.8(7) 1_556 2
Li3B Li3A S3 67(4) . .
Li3B Li3A S2 156(4) . .
S3 Li3A S2 88.9(10) . .
Li3B Li3A S1 76.6(19) . 5
S3 Li3A S1 108.0(7) . 5
S2 Li3A S1 112.9(7) . 5
Li3B Li3A S1 76.6(19) . 3
S3 Li3A S1 108.0(7) . 3
S2 Li3A S1 112.9(7) . 3
S1 Li3A S1 121.0(12) 5 3
Li3B Li3A Li1A 134.0(16) . 4_455
S3 Li3A Li1A 120.1(9) . 4_455
S2 Li3A Li1A 57.9(6) . 4_455
S1 Li3A Li1A 129.8(11) 5 4_455
S1 Li3A Li1A 57.7(3) 3 4_455
Li3B Li3A Li1A 134.0(16) . 6_556
S3 Li3A Li1A 120.1(9) . 6_556
S2 Li3A Li1A 57.9(6) . 6_556
S1 Li3A Li1A 57.7(3) 5 6_556
S1 Li3A Li1A 129.8(11) 3 6_556
Li1A Li3A Li1A 84.8(9) 4_455 6_556
Li3B Li3A Li2 39.8(14) . 1_554
S3 Li3A Li2 58.1(6) . 1_554
S2 Li3A Li2 126.8(9) . 1_554
S1 Li3A Li2 54.2(5) 5 1_554
S1 Li3A Li2 116.4(11) 3 1_554
Li1A Li3A Li2 173.7(9) 4_455 1_554
Li1A Li3A Li2 101.3(4) 6_556 1_554
Li3B Li3A Li2 39.8(14) . 7_564
S3 Li3A Li2 58.1(6) . 7_564
S2 Li3A Li2 126.8(9) . 7_564
S1 Li3A Li2 116.4(11) 5 7_564
S1 Li3A Li2 54.2(5) 3 7_564
Li1A Li3A Li2 101.3(4) 4_455 7_564
Li1A Li3A Li2 173.7(9) 6_556 7_564
Li2 Li3A Li2 72.5(10) 1_554 7_564
Li3B Li3A P1 111(4) . .
S3 Li3A P1 44.2(5) . .
S2 Li3A P1 44.7(5) . .
S1 Li3A P1 119.3(6) 5 .
S1 Li3A P1 119.3(6) 3 .
Li1A Li3A P1 89.0(9) 4_455 .
Li1A Li3A P1 89.0(9) 6_556 .
Li2 Li3A P1 92.7(8) 1_554 .
Li2 Li3A P1 92.7(8) 7_564 .
Li3B Li3A Li1B 146.2(9) . 4_455
S3 Li3A Li1B 114.4(9) . 4_455
S2 Li3A Li1B 44.0(5) . 4_455
S1 Li3A Li1B 129.0(9) 5 4_455
S1 Li3A Li1B 71.0(5) 3 4_455
Li1A Li3A Li1B 13.9(5) 4_455 4_455
Li1A Li3A Li1B 76.7(8) 6_556 4_455
Li2 Li3A Li1B 170.2(12) 1_554 4_455
Li2 Li3A Li1B 109.7(5) 7_564 4_455
P1 Li3A Li1B 77.8(7) . 4_455
Li3A Li3B S3 90(3) . .
Li3A Li3B Li2 125(2) . 7_564
S3 Li3B Li2 71(2) . 7_564
Li3A Li3B Li2 125(2) . 1_554
S3 Li3B Li2 71(2) . 1_554
Li2 Li3B Li2 99(4) 7_564 1_554
Li3A Li3B S1 82(4) . 5
S3 Li3B S1 116.3(9) . 5
Li2 Li3B S1 154(5) 7_564 5
Li2 Li3B S1 63.3(7) 1_554 5
Li3A Li3B S1 82(4) . 3
S3 Li3B S1 116.3(9) . 3
Li2 Li3B S1 63.3(7) 7_564 3
Li2 Li3B S1 154(5) 1_554 3
S1 Li3B S1 124(3) 5 3
Li3A Li3B S2 166(5) . 1_554
S3 Li3B S2 103(4) . 1_554
Li2 Li3B S2 62(3) 7_564 1_554
Li2 Li3B S2 62(3) 1_554 1_554
S1 Li3B S2 92(2) 5 1_554
S1 Li3B S2 92(2) 3 1_554
Li3A Li3B Li2 128.3(16) . 5
S3 Li3B Li2 84(2) . 5
Li2 Li3B Li2 102(4) 7_564 5
Li2 Li3B Li2 12.4(8) 1_554 5
S1 Li3B Li2 56.7(9) 5 5
S1 Li3B Li2 146(3) 3 5
S2 Li3B Li2 54.7(19) 1_554 5
Li3A Li3B Li2 128.3(16) . 3
S3 Li3B Li2 84(2) . 3
Li2 Li3B Li2 12.4(8) 7_564 3
Li2 Li3B Li2 102(4) 1_554 3
S1 Li3B Li2 146(3) 5 3
S1 Li3B Li2 56.7(9) 3 3
S2 Li3B Li2 54.7(19) 1_554 3
Li2 Li3B Li2 102(4) 5 3
Li3A Li3B Li1A 34(2) . 4_455
S3 Li3B Li1A 101(2) . 4_455
Li2 Li3B Li1A 97.5(14) 7_564 4_455
Li2 Li3B Li1A 159(3) 1_554 4_455
S1 Li3B Li1A 105(4) 5 4_455
S1 Li3B Li1A 47.7(16) 3 4_455
S2 Li3B Li1A 139.4(10) 1_554 4_455
Li2 Li3B Li1A 161(3) 5 4_455
Li2 Li3B Li1A 97.2(9) 3 4_455
Li3A Li3B Li1A 34(2) . 6_556
S3 Li3B Li1A 101(2) . 6_556
Li2 Li3B Li1A 159(3) 7_564 6_556
Li2 Li3B Li1A 97.5(14) 1_554 6_556
S1 Li3B Li1A 47.7(16) 5 6_556
S1 Li3B Li1A 105(4) 3 6_556
S2 Li3B Li1A 139.4(10) 1_554 6_556
Li2 Li3B Li1A 97.2(9) 5 6_556
Li2 Li3B Li1A 161(3) 3 6_556
Li1A Li3B Li1A 64(2) 4_455 6_556
Li3A Li3B Li1B 126(4) . 6
S3 Li3B Li1B 125(3) . 6
Li2 Li3B Li1B 106(4) 7_564 6
Li2 Li3B Li1B 54.7(14) 1_554 6
S1 Li3B Li1B 47.9(9) 5 6
S1 Li3B Li1B 109.2(16) 3 6
S2 Li3B Li1B 45.1(11) 1_554 6
Li2 Li3B Li1B 42.3(10) 5 6
Li2 Li3B Li1B 98(3) 3 6
Li1A Li3B Li1B 132(2) 4_455 6
Li1A Li3B Li1B 94.3(11) 6_556 6
loop_
_geom_bond_atom_site_label_1
_geom_bond_atom_site_label_2
_geom_bond_distance
_geom_bond_site_symmetry_2
P1 S3 2.0775(13) .
P1 S1 2.0866(9) .
P1 S1 2.0867(9) 7_565
P1 S2 2.0988(13) .
P1 Li3A 2.93(3) .
P1 Li1A 3.000(9) 2_554
P1 Li1A 3.000(9) 8_665
S1 Li1B 2.41(2) .
S1 Li1A 2.414(9) .
S1 Li1A 2.498(10) 2_554
S1 Li3B 2.51(3) 5
S1 Li2 2.518(18) 5_556
S1 Li1B 2.55(2) 2
S1 Li3A 2.552(16) 5
S1 Li2 2.571(18) .
S2 Li1B 2.45(2) 6_556
S2 Li1B 2.45(2) 4_455
S2 Li1A 2.472(9) 6_556
S2 Li1A 2.472(9) 4_455
S2 Li3A 2.48(3) .
S2 Li2 2.58(2) 3_556
S2 Li2 2.58(2) 5_556
S2 Li2 2.607(18) 7_565
S2 Li2 2.607(18) .
S2 Li3B 2.76(11) 1_556
S3 Li3B 2.27(5) .
S3 Li1B 2.393(19) 8_665
S3 Li1B 2.393(19) 2_554
S3 Li1A 2.436(9) 8_665
S3 Li1A 2.436(9) 2_554
S3 Li3A 2.47(3) .
S3 Li2 2.651(16) 1_554
S3 Li2 2.651(16) 7_564
Li1A Li1B 1.17(2) .
Li1A Li3A 2.62(2) 6_656
Li1A Li1B 2.87(2) 2
Li1A Li2 2.982(18) 2_554
Li1A Li3B 3.36(10) 6_656
Li1B Li2 2.33(3) 2_554
Li1B Li2 2.81(3) 6_656
Li1B Li3B 3.43(6) 6_655
Li1B Li3A 3.53(3) 6_656
Li2 Li2 0.81(3) 5_556
Li2 Li3B 2.27(8) 1_556
Li2 Li3B 2.86(8) 5
Li2 Li3A 2.93(3) 1_556
Li3A Li3B 0.96(10) .
