#------------------------------------------------------------------------------
#$Date: 2016-03-21 01:21:50 +0200 (Mon, 21 Mar 2016) $
#$Revision: 178377 $
#$URL: svn://www.crystallography.net/cod/cif/4/00/21/4002115.cif $
#------------------------------------------------------------------------------
#
# This file is available in the Crystallography Open Database (COD),
# http://www.crystallography.net/
#
# All data on this site have been placed in the public domain by the
# contributors.
#
data_4002115
loop_
_publ_author_name
'Nanthamathee, Chompoonoot'
'Ling, Sanliang'
'Slater, Ben'
'Attfield, Martin P.'
_publ_section_title
;
 Contradistinct Thermoresponsive Behavior of Isostructural MIL-53 Type
 Metal--Organic Frameworks by Modifying the Framework Inorganic Anion
;
_journal_name_full               'Chemistry of Materials'
_journal_page_first              141223143002002
_journal_paper_doi               10.1021/cm503311x
_journal_year                    2014
_chemical_formula_sum            'C8 Al O5'
_chemical_formula_weight         203.07
_chemical_name_systematic        ' ?'
_space_group_IT_number           74
_symmetry_cell_setting           orthorhombic
_symmetry_space_group_name_Hall  '-I 2b 2'
_symmetry_space_group_name_H-M   'I m m a'
_audit_creation_date             2014-08-28T12:15
_audit_creation_method           'from EXP file using GSAS2CIF'
_audit_update_record
' 2014-08-28T12:15  Initial CIF as created by GSAS2CIF'
_cell_angle_alpha                90.0
_cell_angle_beta                 90.0
_cell_angle_gamma                90.0
_cell_formula_units_Z            4
_cell_length_a                   6.63021(6)
_cell_length_b                   16.77003(17)
_cell_length_c                   12.77785(23)
_cell_volume                     1420.75(3)
_computing_structure_refinement  GSAS
_diffrn_radiation_polarisn_ratio 0.95
_diffrn_radiation_probe          x-ray
_diffrn_radiation_wavelength     0.825993
_exptl_absorpt_correction_T_max  1.00000
_exptl_absorpt_correction_T_min  1.00000
_exptl_absorpt_process_details
;   GSAS Absorption/surface roughness correction: function number 0
 No correction is applied.
;
_pd_block_id                     2014-08-28T12:15|250K|300k|i11
_pd_calc_method                  'Rietveld Refinement'
_pd_instr_location               ' ?'
_pd_meas_2theta_range_inc        0.003
_pd_meas_2theta_range_max        149.9955
_pd_meas_2theta_range_min        0.0015
_pd_meas_number_of_points        49999
_pd_phase_name                   300K
_pd_proc_2theta_range_inc        0.003
_pd_proc_2theta_range_max        150.00452
_pd_proc_2theta_range_min        0.010521
_pd_proc_info_datetime           2014-08-28T12:15:17
_pd_proc_info_excluded_regions   ' ?'
_pd_proc_ls_background_function
;   GSAS Background function number 1 with  2 terms.
 Shifted Chebyshev function of 1st kind
      1:    0.00000     2:    0.00000    
;
_pd_proc_ls_peak_cutoff          0.00100
_pd_proc_ls_profile_function
;
 CW Profile function number 4 with  18 terms
 Pseudovoigt profile coefficients as parameterized in
 P. Thompson, D.E. Cox & J.B. Hastings (1987). J. Appl. Cryst.,20,79-83.
 Asymmetry correction of L.W. Finger, D.E. Cox & A. P. Jephcoat (1994).
 J. Appl. Cryst.,27,892-900.
 Microstrain broadening by P.W. Stephens,  (1999). J. Appl. Cryst.,32,281-289.
 Peak tails are ignored  where the intensity is below 0.0010 times the peak
   Aniso. broadening axis   1.0   0.0   1.0
;
_pd_proc_ls_prof_R_factor        0.0346
_pd_proc_ls_prof_wR_expected     0.0224
_pd_proc_ls_prof_wR_factor       0.0460
_pd_proc_number_of_points        49999
_pd_spec_mounting                ' ?'
_refine_ls_goodness_of_fit_all   2.05
_refine_ls_matrix_type           full
_refine_ls_number_parameters     28
_refine_ls_number_restraints     0
_refine_ls_R_Fsqd_factor         0.18660
_refine_ls_shift/su_max          0.06
_refine_ls_shift/su_mean         0.01
_reflns_d_resolution_high        1.208
_reflns_d_resolution_low         8.385
_reflns_limit_h_max              5
_reflns_limit_h_min              0
_reflns_limit_k_max              13
_reflns_limit_k_min              0
_reflns_limit_l_max              10
_reflns_limit_l_min              0
_reflns_number_total             252
_cod_data_source_file            aloh250K.cif
_cod_data_source_block           250K_publ
_cod_depositor_comments
;
The following automatic conversions were performed:

'_geom_bond_publ_flag' value 'N' changed to 'n' according to
/home/saulius/struct/COD-crude-data--automatic-downloads/rss-feeds/ACS/lib/dictionaries/cif_core.dic
dictionary named 'cif_core.dic' version 2.4.2 from 2011-04-26 (18
times).

'_geom_angle_publ_flag' value 'N' changed to 'n' according
to
/home/saulius/struct/COD-crude-data--automatic-downloads/rss-feeds/ACS/lib/dictionaries/cif_core.dic
dictionary named 'cif_core.dic' version 2.4.2 from 2011-04-26 (24
times).

Automatic conversion script
Id: cif_fix_values 2935 2014-11-11 08:27:57Z andrius 
;
_cod_original_cell_volume        1420.754(32)
_cod_database_code               4002115
#BEGIN Tags that were not found in dictionaries:
_gsas_exptl_extinct_corr_t_min   1.00000
_gsas_exptl_extinct_corr_t_max   1.00000
#END Tags that were not found in dictionaries
loop_
_symmetry_equiv_pos_site_id
_symmetry_equiv_pos_as_xyz
1 +x,+y,+z
2 -x,+y,+z
3 +x,-y+1/2,+z
4 -x,-y+1/2,+z
-1 -x,-y,-z
-2 +x,-y,-z
-3 -x,+y+1/2,-z
-4 +x,+y+1/2,-z
101 +x+1/2,+y+1/2,+z+1/2
102 -x+1/2,+y+1/2,+z+1/2
103 +x+1/2,-y,+z+1/2
104 -x+1/2,-y,+z+1/2
-101 -x+1/2,-y+1/2,-z+1/2
-102 +x+1/2,-y+1/2,-z+1/2
-103 -x+1/2,+y,-z+1/2
-104 +x+1/2,+y,-z+1/2
loop_
_atom_site_type_symbol
_atom_site_label
_atom_site_fract_x
_atom_site_fract_y
_atom_site_fract_z
_atom_site_occupancy
_atom_site_thermal_displace_type
_atom_site_U_iso_or_equiv
_atom_site_symmetry_multiplicity
Al Al1 0.25 0.25 0.75 1.0 Uiso 0.0206(10) 4
O O2 0.0 0.25 0.6856(4) 1.0 Uiso 0.0162(8) 4
O O1 0.16646(31) 0.16815(13) 0.84300(21) 1.0 Uiso 0.0162(8) 16
C C3 -0.1911(4) 0.03535(28) 0.9688(4) 1.0 Uiso 0.0358(14) 16
C C2 0.0 0.0630(4) 0.9456(5) 1.0 Uiso 0.0358(14) 8
C C1 0.0 0.13718(35) 0.8701(6) 1.0 Uiso 0.0358(14) 8
loop_
_atom_type_symbol
_atom_type_number_in_cell
_atom_type_scat_dispersion_real
_atom_type_scat_dispersion_imag
_atom_type_scat_Cromer_Mann_a1
_atom_type_scat_Cromer_Mann_a2
_atom_type_scat_Cromer_Mann_a3
_atom_type_scat_Cromer_Mann_a4
_atom_type_scat_Cromer_Mann_b1
_atom_type_scat_Cromer_Mann_b2
_atom_type_scat_Cromer_Mann_b3
_atom_type_scat_Cromer_Mann_b4
_atom_type_scat_Cromer_Mann_c
_atom_type_scat_source
Al 4.0 0.000 0.000 6.42020 3.03870 1.90020 0.74260 1.59360 31.5472 1.96460
85.0886 1.11510 International_Tables_Vol_C
O 20.0 0.000 0.000 3.04850 13.2771 2.28680 5.70110 1.54630 0.32390 0.86700
32.9089 0.25080 International_Tables_Vol_C
C 32.0 0.000 0.000 2.31000 20.8439 1.02000 10.2075 1.58860 0.56870 0.86500
51.6512 0.21560 International_Tables_Vol_C
loop_
_geom_angle_atom_site_label_1
_geom_angle_atom_site_label_2
_geom_angle_atom_site_label_3
_geom_angle
_geom_angle_site_symmetry_1
_geom_angle_site_symmetry_3
_geom_angle_publ_flag
O2 Al1 O2 180.0 1_555 -101_546 n
O2 Al1 O1 90.96(12) 1_555 1_555 n
O2 Al1 O1 90.96(12) 1_555 3_555 n
O2 Al1 O1 89.04(12) 1_555 -101_566 n
O2 Al1 O1 89.04(12) 1_555 -103_566 n
O2 Al1 O1 89.04(12) -101_566 1_555 n
O2 Al1 O1 89.04(12) -101_566 3_555 n
O2 Al1 O1 90.96(12) -101_566 -101_566 n
O2 Al1 O1 90.96(12) -101_566 -103_566 n
O1 Al1 O1 92.63(17) 1_555 3_555 n
O1 Al1 O1 180.0 1_555 -101_566 n
O1 Al1 O1 87.37(17) 1_555 -103_566 n
O1 Al1 O1 87.37(17) 3_555 -101_566 n
O1 Al1 O1 180.0 3_555 -103_566 n
O1 Al1 O1 92.63(17) -101_566 -103_566 n
Al1 O2 Al1 127.22(30) 1_555 2_555 n
Al1 O1 C1 136.17(34) 1_555 1_555 n
C3 C3 C2 113.45(34) -2_557 1_555 n
C3 C2 C3 133.1(7) 1_555 2_555 n
C3 C2 C1 113.36(33) 1_555 1_555 n
C3 C2 C1 113.36(33) 2_555 1_555 n
O1 C1 O1 121.0(6) 1_555 2_555 n
O1 C1 C2 119.42(29) 1_555 1_555 n
O1 C1 C2 119.42(29) 2_555 1_555 n
loop_
_geom_bond_atom_site_label_1
_geom_bond_atom_site_label_2
_geom_bond_distance
_geom_bond_site_symmetry_2
_geom_bond_publ_flag
Al1 O2 1.8504(24) 1_555 n
Al1 O2 1.8504(24) -101_445 n
Al1 O1 1.8982(19) 1_555 n
Al1 O1 1.8982(19) 3_555 n
Al1 O1 1.8982(19) -101_445 n
Al1 O1 1.8982(19) -103_445 n
O2 Al1 1.8504(24) 1_555 n
O2 Al1 1.8504(24) 2_555 n
O1 Al1 1.8982(19) 1_555 n
O1 C1 1.2681(31) 1_555 n
C3 C3 1.429(7) -2_557 n
C3 C2 1.3809(30) 1_555 n
C2 C3 1.3809(30) 1_555 n
C2 C3 1.3809(30) 2_555 n
C2 C1 1.574(6) 1_555 n
C1 O1 1.2681(31) 1_555 n
C1 O1 1.2681(31) 2_555 n
C1 C2 1.574(6) 1_555 n
loop_
_pd_meas_intensity_total
_pd_proc_ls_weight
_pd_proc_intensity_bkg_calc
_pd_calc_intensity_total
25.6(30) 0.0 0.00 .
16.4(22) 0.0 0.00 .
15.6(21) 0.0 0.00 .
16.0(22) 0.0 0.00 .
33.3(31) 0.0 0.00 .
122(7) 0.0 0.0 .
108(6) 0.0 0.0 .
736(15) 0.0 0.0 .
1251(18) 0.0 0.0 .
2513(27) 0.0 0.0 .
2810(29) 0.0 0.0 .
2910(29) 0.0 0.0 .
2982(28) 0.0 0.0 .
1066(20) 0.0 0.0 .
97(5) 0.0 0.0 .
55(4) 0.0 0.0 .
40.1(34) 0.0 0.00 .
41.3(34) 0.0 0.00 .
36.5(32) 0.0 0.00 .
67(4) 0.0 0.0 .
196(8) 0.0 0.0 .
304(9) 0.0 0.0 .
635(13) 0.0 0.0 .
878(16) 0.0 0.0 .
912(17) 0.0 0.0 .
1153(18) 0.0 0.0 .
1277(19) 0.0 0.0 .
1445(20) 0.0 0.0 .
1772(23) 0.0 0.0 .
1841(24) 0.0 0.0 .
1998(24) 0.0 0.0 .
2032(24) 0.0 0.0 .
1832(22) 0.0 0.0 .
1540(21) 0.0 0.0 .
1169(19) 0.0 0.0 .
667(14) 0.0 0.0 .
344(10) 0.0 0.0 .
222(8) 0.0 0.0 .
128(6) 0.0 0.0 .
65(5) 0.0 0.0 .
39.4(33) 0.0 0.00 .
34.9(31) 0.0 0.00 .
31.3(29) 0.0 0.00 .
37.0(35) 0.0 0.00 .
31.8(31) 0.0 0.00 .
25.2(26) 0.0 0.00 .
25.1(26) 0.0 0.00 .
27.5(28) 0.0 0.00 .
31.7(29) 0.0 0.00 .
31.5(30) 0.0 0.00 .
23.4(26) 0.0 0.00 .
22.1(25) 0.0 0.00 .
28.2(28) 0.0 0.00 .
31.0(29) 0.0 0.00 .
31.8(31) 0.0 0.00 .
29.0(29) 0.0 0.00 .
25.1(27) 0.0 0.00 .
32.5(30) 0.0 0.00 .
28.9(28) 0.0 0.00 .
32.4(31) 0.0 0.00 .
30.9(30) 0.0 0.00 .
33.8(30) 0.0 0.00 .
27.0(27) 0.0 0.00 .
28.0(28) 0.0 0.00 .
36.0(32) 0.0 0.00 .
33.6(30) 0.0 0.00 .
35.1(31) 0.0 0.00 .
33.7(30) 0.0 0.00 .
34.7(32) 0.0 0.00 .
34.3(31) 0.0 0.00 .
40.8(34) 0.0 0.00 .
33.4(30) 0.0 0.00 .
35.0(33) 0.0 0.00 .
33.4(32) 0.0 0.00 .
32.1(29) 0.0 0.00 .
36.8(32) 0.0 0.00 .
32.8(31) 0.0 0.00 .
48(4) 0.0 0.0 .
42(4) 0.0 0.0 .
35.3(31) 0.0 0.00 .
33.7(30) 0.0 0.00 .
38.8(33) 0.0 0.00 .
32.3(30) 0.0 0.00 .
37.8(35) 0.0 0.00 .
42.9(35) 0.0 0.00 .
32.0(30) 0.0 0.00 .
29.8(29) 0.0 0.00 .
32.5(30) 0.0 0.00 .
32.6(32) 0.0 0.00 .
31.6(31) 0.0 0.00 .
34.7(31) 0.0 0.00 .
35.8(31) 0.0 0.00 .
39.1(33) 0.0 0.00 .
53(4) 0.0 0.0 .
59(4) 0.0 0.0 .
62(4) 0.0 0.0 .
77(5) 0.0 0.0 .
81(5) 0.0 0.0 .
76(5) 0.0 0.0 .
106(6) 0.0 0.0 .
78(5) 0.0 0.0 .
101(5) 0.0 0.0 .
116(6) 0.0 0.0 .
129(6) 0.0 0.0 .
125(6) 0.0 0.0 .
151(6) 0.0 0.0 .
143(6) 0.0 0.0 .
155(7) 0.0 0.0 .
154(7) 0.0 0.0 .
181(7) 0.0 0.0 .
210(8) 0.0 0.0 .
195(7) 0.0 0.0 .
198(8) 0.0 0.0 .
201(8) 0.0 0.0 .
208(8) 0.0 0.0 .
215(8) 0.0 0.0 .
246(8) 0.0 0.0 .
259(9) 0.0 0.0 .
262(9) 0.0 0.0 .
271(9) 0.0 0.0 .
263(8) 0.0 0.0 .
278(9) 0.0 0.0 .
314(10) 0.0 0.0 .
301(9) 0.0 0.0 .
318(9) 0.0 0.0 .
299(9) 0.0 0.0 .
326(10) 0.0 0.0 .
337(10) 0.0 0.0 .
345(10) 0.0 0.0 .
365(10) 0.0 0.0 .
338(10) 0.0 0.0 .
361(10) 0.0 0.0 .
380(11) 0.0 0.0 .
384(10) 0.0 0.0 .
396(10) 0.0 0.0 .
397(10) 0.0 0.0 .
417(11) 0.0 0.0 .
444(12) 0.0 0.0 .
432(11) 0.0 0.0 .
437(11) 0.0 0.0 .
435(11) 0.0 0.0 .
436(11) 0.0 0.0 .
458(12) 0.0 0.0 .
497(12) 0.0 0.0 .
478(11) 0.0 0.0 .
481(11) 0.0 0.0 .
472(12) 0.0 0.0 .
494(12) 0.0 0.0 .
464(12) 0.0 0.0 .
486(11) 0.0 0.0 .
560(13) 0.0 0.0 .
498(12) 0.0 0.0 .
508(12) 0.0 0.0 .
530(12) 0.0 0.0 .
516(12) 0.0 0.0 .
520(12) 0.0 0.0 .
556(12) 0.0 0.0 .
555(13) 0.0 0.0 .
551(13) 0.0 0.0 .
562(12) 0.0 0.0 .
558(12) 0.0 0.0 .
544(13) 0.0 0.0 .
548(13) 0.0 0.0 .
560(12) 0.0 0.0 .
556(12) 0.0 0.0 .
588(13) 0.0 0.0 .
557(13) 0.0 0.0 .
549(13) 0.0 0.0 .
595(13) 0.0 0.0 .
601(13) 0.0 0.0 .
586(13) 0.0 0.0 .
586(13) 0.0 0.0 .
605(14) 0.0 0.0 .
594(13) 0.0 0.0 .
580(13) 0.0 0.0 .
635(14) 0.0 0.0 .
605(13) 0.0 0.0 .
594(13) 0.0 0.0 .
599(13) 0.0 0.0 .
649(13) 0.0 0.0 .
608(13) 0.0 0.0 .
637(14) 0.0 0.0 .
606(13) 0.0 0.0 .
640(13) 0.0 0.0 .
656(13) 0.0 0.0 .
614(13) 0.0 0.0 .
635(14) 0.0 0.0 .
648(14) 0.0 0.0 .
667(13) 0.0 0.0 .
688(14) 0.0 0.0 .
632(13) 0.0 0.0 .
648(14) 0.0 0.0 .
641(14) 0.0 0.0 .
650(13) 0.0 0.0 .
630(13) 0.0 0.0 .
656(14) 0.0 0.0 .
639(14) 0.0 0.0 .
648(14) 0.0 0.0 .
661(13) 0.0 0.0 .
671(14) 0.0 0.0 .
709(14) 0.0 0.0 .
681(15) 0.0 0.0 .
683(14) 0.0 0.0 .
687(14) 0.0 0.0 .
664(13) 0.0 0.0 .
691(14) 0.0 0.0 .
702(14) 0.0 0.0 .
654(14) 0.0 0.0 .
687(14) 0.0 0.0 .
725(14) 0.0 0.0 .
715(14) 0.0 0.0 .
721(15) 0.0 0.0 .
692(14) 0.0 0.0 .
717(14) 0.0 0.0 .
696(14) 0.0 0.0 .
722(15) 0.0 0.0 .
724(14) 0.0 0.0 .
744(15) 0.0 0.0 .
769(14) 0.0 0.0 .
746(15) 0.0 0.0 .
750(15) 0.0 0.0 .
752(15) 0.0 0.0 .
763(15) 0.0 0.0 .
767(14) 0.0 0.0 .
750(15) 0.0 0.0 .
763(15) 0.0 0.0 .
778(15) 0.0 0.0 .
793(15) 0.0 0.0 .
788(15) 0.0 0.0 .
801(15) 0.0 0.0 .
769(15) 0.0 0.0 .
781(15) 0.0 0.0 .
766(15) 0.0 0.0 .
755(14) 0.0 0.0 .
799(15) 0.0 0.0 .
798(16) 0.0 0.0 .
797(15) 0.0 0.0 .
793(15) 0.0 0.0 .
826(15) 0.0 0.0 .
806(15) 0.0 0.0 .
825(16) 0.0 0.0 .
853(16) 0.0 0.0 .
819(15) 0.0 0.0 .
852(15) 0.0 0.0 .
832(16) 0.0 0.0 .
794(15) 0.0 0.0 .
851(16) 0.0 0.0 .
886(15) 0.0 0.0 .
894(16) 0.0 0.0 .
829(15) 0.0 0.0 .
821(16) 0.0 0.0 .
831(16) 0.0 0.0 .
842(15) 0.0 0.0 .
811(15) 0.0 0.0 .
883(16) 0.0 0.0 .
828(16) 0.0 0.0 .
860(16) 0.0 0.0 .
870(15) 0.0 0.0 .
864(15) 0.0 0.0 .
867(16) 0.0 0.0 .
822(16) 0.0 0.0 .
796(15) 0.0 0.0 .
847(15) 0.0 0.0 .
850(15) 0.0 0.0 .
880(16) 0.0 0.0 .
883(16) 0.0 0.0 .
921(16) 0.0 0.0 .
914(16) 0.0 0.0 .
880(16) 0.0 0.0 .
849(16) 0.0 0.0 .
904(16) 0.0 0.0 .
903(16) 0.0 0.0 .
872(15) 0.0 0.0 .
830(15) 0.0 0.0 .
896(16) 0.0 0.0 .
886(16) 0.0 0.0 .
822(15) 0.0 0.0 .
875(15) 0.0 0.0 .
907(16) 0.0 0.0 .
890(16) 0.0 0.0 .
898(16) 0.0 0.0 .
911(16) 0.0 0.0 .
901(16) 0.0 0.0 .
893(16) 0.0 0.0 .
907(17) 0.0 0.0 .
899(16) 0.0 0.0 .
894(16) 0.0 0.0 .
908(16) 0.0 0.0 .
957(17) 0.0 0.0 .
949(17) 0.0 0.0 .
923(16) 0.0 0.0 .
932(16) 0.0 0.0 .
912(16) 0.0 0.0 .
934(16) 0.0 0.0 .
920(17) 0.0 0.0 .
926(16) 0.0 0.0 .
936(16) 0.0 0.0 .
917(16) 0.0 0.0 .
912(16) 0.0 0.0 .
905(17) 0.0 0.0 .
874(16) 0.0 0.0 .
938(16) 0.0 0.0 .
900(16) 0.0 0.0 .
968(17) 0.0 0.0 .
946(17) 0.0 0.0 .
970(17) 0.0 0.0 .
932(16) 0.0 0.0 .
934(16) 0.0 0.0 .
986(17) 0.0 0.0 .
922(17) 0.0 0.0 .
962(17) 0.0 0.0 .
1005(16) 0.0 0.0 .
943(16) 0.0 0.0 .
924(16) 0.0 0.0 .
923(17) 0.0 0.0 .
942(16) 0.0 0.0 .
947(16) 0.0 0.0 .
996(17) 0.0 0.0 .
964(17) 0.0 0.0 .
956(17) 0.0 0.0 .
961(16) 0.0 0.0 .
1010(16) 0.0 0.0 .
991(17) 0.0 0.0 .
968(17) 0.0 0.0 .
970(17) 0.0 0.0 .
967(16) 0.0 0.0 .
948(16) 0.0 0.0 .
974(17) 0.0 0.0 .
944(17) 0.0 0.0 .
953(17) 0.0 0.0 .
982(17) 0.0 0.0 .
954(16) 0.0 0.0 .
984(17) 0.0 0.0 .
1022(18) 0.0 0.0 .
1001(17) 0.0 0.0 .
1031(17) 0.0 0.0 .
985(16) 0.0 0.0 .
994(17) 0.0 0.0 .
1002(18) 0.0 0.0 .
1043(17) 0.0 0.0 .
1046(17) 0.0 0.0 .
991(16) 0.0 0.0 .
1011(17) 0.0 0.0 .
989(17) 0.0 0.0 .
1009(17) 0.0 0.0 .
997(16) 0.0 0.0 .
1084(17) 0.0 0.0 .
1022(17) 0.0 0.0 .
1043(18) 0.0 0.0 .
1044(18) 0.0 0.0 .
1047(17) 0.0 0.0 .
1006(17) 0.0 0.0 .
1067(18) 0.0 0.0 .
1031(17) 0.0 0.0 .
1040(17) 0.0 0.0 .
1048(17) 0.0 0.0 .
1048(17) 0.0 0.0 .
1060(18) 0.0 0.0 .
1108(18) 0.0 0.0 .
1087(18) 0.0 0.0 .
1099(17) 0.0 0.0 .
1086(17) 0.0 0.0 .
1116(18) 0.0 0.0 .
1085(18) 0.0 0.0 .
1102(18) 0.0 0.0 .
1071(17) 0.0 0.0 .
1072(17) 0.0 0.0 .
1123(18) 0.0 0.0 .
1099(18) 0.0 0.0 .
1105(18) 0.0 0.0 .
1141(18) 0.0 0.0 .
1168(18) 0.0 0.0 .
1133(18) 0.0 0.0 .
1108(18) 0.0 0.0 .
1112(17) 0.0 0.0 .
1122(17) 0.0 0.0 .
1205(19) 0.0 0.0 .
1176(19) 0.0 0.0 .
1119(18) 0.0 0.0 .
1150(18) 0.0 0.0 .
1146(18) 0.0 0.0 .
1144(18) 0.0 0.0 .
1134(18) 0.0 0.0 .
1163(18) 0.0 0.0 .
1159(18) 0.0 0.0 .
1170(18) 0.0 0.0 .
1183(18) 0.0 0.0 .
1205(19) 0.0 0.0 .
1196(18) 0.0 0.0 .
1202(18) 0.0 0.0 .
1196(18) 0.0 0.0 .
1194(19) 0.0 0.0 .
1230(20) 0.0 0.0 .
1173(18) 0.0 0.0 .
1188(18) 0.0 0.0 .
1203(18) 0.0 0.0 .
1186(18) 0.0 0.0 .
1254(20) 0.0 0.0 .
1193(19) 0.0 0.0 .
1222(18) 0.0 0.0 .
1214(18) 0.0 0.0 .
1190(19) 0.0 0.0 .
1227(19) 0.0 0.0 .
1229(19) 0.0 0.0 .
1232(18) 0.0 0.0 .
1250(19) 0.0 0.0 .
1237(19) 0.0 0.0 .
1264(20) 0.0 0.0 .
1260(19) 0.0 0.0 .
1265(18) 0.0 0.0 .
1202(18) 0.0 0.0 .
1196(19) 0.0 0.0 .
1282(19) 0.0 0.0 .
1305(19) 0.0 0.0 .
1282(19) 0.0 0.0 .
1232(19) 0.0 0.0 .
1253(19) 0.0 0.0 .
1255(19) 0.0 0.0 .
1326(19) 0.0 0.0 .
1280(19) 0.0 0.0 .
1298(19) 0.0 0.0 .
1288(20) 0.0 0.0 .
1255(19) 0.0 0.0 .
1298(19) 0.0 0.0 .
1249(18) 0.0 0.0 .
1296(19) 0.0 0.0 .
1328(20) 0.0 0.0 .
1265(19) 0.0 0.0 .
1234(18) 0.0 0.0 .
1292(19) 0.0 0.0 .
1229(19) 0.0 0.0 .
1280(20) 0.0 0.0 .
1345(20) 0.0 0.0 .
1280(19) 0.0 0.0 .
1266(18) 0.0 0.0 .
1266(19) 0.0 0.0 .
1274(20) 0.0 0.0 .
1243(19) 0.0 0.0 .
1299(19) 0.0 0.0 .
1312(19) 0.0 0.0 .
1305(19) 0.0 0.0 .
1268(20) 0.0 0.0 .
1271(19) 0.0 0.0 .
1312(19) 0.0 0.0 .
1318(19) 0.0 0.0 .
1276(19) 0.0 0.0 .
1246(20) 0.0 0.0 .
1278(19) 0.0 0.0 .
1276(19) 0.0 0.0 .
1280(19) 0.0 0.0 .
1300(19) 0.0 0.0 .
1316(20) 0.0 0.0 .
1293(19) 0.0 0.0 .
1285(19) 0.0 0.0 .
1243(19) 0.0 0.0 .
1276(19) 0.0 0.0 .
1304(20) 0.0 0.0 .
1260(19) 0.0 0.0 .
1293(19) 0.0 0.0 .
1242(19) 0.0 0.0 .
1290(19) 0.0 0.0 .
1294(20) 0.0 0.0 .
1261(19) 0.0 0.0 .
1294(19) 0.0 0.0 .
1281(19) 0.0 0.0 .
1286(19) 0.0 0.0 .
1206(19) 0.0 0.0 .
1274(19) 0.0 0.0 .
1256(18) 0.0 0.0 .
1275(19) 0.0 0.0 .
1294(20) 0.0 0.0 .
1266(19) 0.0 0.0 .
1303(19) 0.0 0.0 .
1335(19) 0.0 0.0 .
1344(20) 0.0 0.0 .
1270(19) 0.0 0.0 .
1322(20) 0.0 0.0 .
1335(19) 0.0 0.0 .
1300(19) 0.0 0.0 .
1269(19) 0.0 0.0 .
1283(20) 0.0 0.0 .
1271(19) 0.0 0.0 .
1316(19) 0.0 0.0 .
1289(19) 0.0 0.0 .
1247(19) 0.0 0.0 .
1240(20) 0.0 0.0 .
1281(19) 0.0 0.0 .
1282(19) 0.0 0.0 .
1256(18) 0.0 0.0 .
1277(19) 0.0 0.0 .
1246(20) 0.0 0.0 .
1285(19) 0.0 0.0 .
1295(19) 0.0 0.0 .
1263(18) 0.0 0.0 .
1308(19) 0.0 0.0 .
1320(20) 0.0 0.0 .
1300(19) 0.0 0.0 .
1317(19) 0.0 0.0 .
1278(19) 0.0 0.0 .
1263(19) 0.0 0.0 .
1272(20) 0.0 0.0 .
1298(19) 0.0 0.0 .
1233(18) 0.0 0.0 .
1288(19) 0.0 0.0 .
1255(19) 0.0 0.0 .
1288(20) 0.0 0.0 .
1313(19) 0.0 0.0 .
1322(19) 0.0 0.0 .
1280(19) 0.0 0.0 .
1296(19) 0.0 0.0 .
1303(19) 0.0 0.0 .
1313(20) 0.0 0.0 .
1274(19) 0.0 0.0 .
1227(19) 0.0 0.0 .
1251(19) 0.0 0.0 .
1260(19) 0.0 0.0 .
1294(19) 0.0 0.0 .
1293(19) 0.0 0.0 .
1270(19) 0.0 0.0 .
1302(20) 0.0 0.0 .
1270(19) 0.0 0.0 .
1293(19) 0.0 0.0 .
1268(19) 0.0 0.0 .
1327(20) 0.0 0.0 .
1310(20) 0.0 0.0 .
1287(19) 0.0 0.0 .
1273(19) 0.0 0.0 .
1258(18) 0.0 0.0 .
1248(19) 0.0 0.0 .
1296(20) 0.0 0.0 .
1304(20) 0.0 0.0 .
1255(19) 0.0 0.0 .
1220(18) 0.0 0.0 .
1271(19) 0.0 0.0 .
1270(20) 0.0 0.0 .
1278(19) 0.0 0.0 .
1295(19) 0.0 0.0 .
1290(19) 0.0 0.0 .
1293(19) 0.0 0.0 .
1243(20) 0.0 0.0 .
1297(19) 0.0 0.0 .
1293(19) 0.0 0.0 .
1215(18) 0.0 0.0 .
1267(19) 0.0 0.0 .
1251(19) 0.0 0.0 .
1290(19) 0.0 0.0 .
1263(18) 0.0 0.0 .
1295(19) 0.0 0.0 .
1286(19) 0.0 0.0 .
1306(20) 0.0 0.0 .
1264(19) 0.0 0.0 .
1278(19) 0.0 0.0 .
1263(19) 0.0 0.0 .
1225(19) 0.0 0.0 .
1231(19) 0.0 0.0 .
1248(19) 0.0 0.0 .
1225(18) 0.0 0.0 .
1233(18) 0.0 0.0 .
1288(19) 0.0 0.0 .
1256(19) 0.0 0.0 .
1256(19) 0.0 0.0 .
1249(18) 0.0 0.0 .
1265(19) 0.0 0.0 .
1246(19) 0.0 0.0 .
1274(20) 0.0 0.0 .
1275(19) 0.0 0.0 .
1225(18) 0.0 0.0 .
1269(19) 0.0 0.0 .
1241(19) 0.0 0.0 .
1268(19) 0.0 0.0 .
1258(19) 0.0 0.0 .
1305(19) 0.0 0.0 .
1226(19) 0.0 0.0 .
1259(19) 0.0 0.0 .
1276(20) 0.0 0.0 .
1229(18) 0.0 0.0 .
1209(18) 0.0 0.0 .
1229(19) 0.0 0.0 .
1238(19) 0.0 0.0 .
1241(19) 0.0 0.0 .
1222(18) 0.0 0.0 .
1264(18) 0.0 0.0 .
1224(19) 0.0 0.0 .
1169(19) 0.0 0.0 .
1192(19) 0.0 0.0 .
1225(18) 0.0 0.0 .
1248(18) 0.0 0.0 .
1263(19) 0.0 0.0 .
1275(20) 0.0 0.0 .
1204(18) 0.0 0.0 .
1261(19) 0.0 0.0 .
1244(18) 0.0 0.0 .
1252(19) 0.0 0.0 .
1234(19) 0.0 0.0 .
1237(19) 0.0 0.0 .
1249(18) 0.0 0.0 .
1172(18) 0.0 0.0 .
1198(18) 0.0 0.0 .
1225(19) 0.0 0.0 .
1234(19) 0.0 0.0 .
1211(18) 0.0 0.0 .
1265(19) 0.0 0.0 .
1216(19) 0.0 0.0 .
1223(19) 0.0 0.0 .
1200(19) 0.0 0.0 .
1217(18) 0.0 0.0 .
1192(18) 0.0 0.0 .
1159(18) 0.0 0.0 .
1221(19) 0.0 0.0 .
1235(19) 0.0 0.0 .
1231(18) 0.0 0.0 .
1248(19) 0.0 0.0 .
1169(18) 0.0 0.0 .
1224(19) 0.0 0.0 .
1182(18) 0.0 0.0 .
1224(18) 0.0 0.0 .
1216(18) 0.0 0.0 .
1250(19) 0.0 0.0 .
1206(19) 0.0 0.0 .
1191(18) 0.0 0.0 .
1208(18) 0.0 0.0 .
1205(19) 0.0 0.0 .
1201(19) 0.0 0.0 .
1176(18) 0.0 0.0 .
1165(18) 0.0 0.0 .
1191(18) 0.0 0.0 .
1201(19) 0.0 0.0 .
1181(19) 0.0 0.0 .
1212(19) 0.0 0.0 .
1202(18) 0.0 0.0 .
1193(18) 0.0 0.0 .
1219(19) 0.0 0.0 .
1177(19) 0.0 0.0 .
1159(18) 0.0 0.0 .
1166(18) 0.0 0.0 .
1202(18) 0.0 0.0 .
1205(19) 0.0 0.0 .
1207(19) 0.0 0.0 .
1202(19) 0.0 0.0 .
1199(18) 0.0 0.0 .
1197(18) 0.0 0.0 .
1162(18) 0.0 0.0 .
1211(19) 0.0 0.0 .
1201(19) 0.0 0.0 .
1188(18) 0.0 0.0 .
1224(18) 0.0 0.0 .
1145(18) 0.0 0.0 .
1125(19) 0.0 0.0 .
1145(18) 0.0 0.0 .
1165(18) 0.0 0.0 .
1204(18) 0.0 0.0 .
1171(18) 0.0 0.0 .
1151(19) 0.0 0.0 .
1192(19) 0.0 0.0 .
1143(18) 0.0 0.0 .
1166(18) 0.0 0.0 .
1188(19) 0.0 0.0 .
1181(19) 0.0 0.0 .
1165(18) 0.0 0.0 .
1140(18) 0.0 0.0 .
1145(18) 0.0 0.0 .
1189(19) 0.0 0.0 .
1198(19) 0.0 0.0 .
1113(18) 0.0 0.0 .
1158(18) 0.0 0.0 .
1135(18) 0.0 0.0 .
1122(18) 0.0 0.0 .
1182(19) 0.0 0.0 .
1152(18) 0.0 0.0 .
1128(17) 0.0 0.0 .
1171(18) 0.0 0.0 .
1127(18) 0.0 0.0 .
1161(18) 0.0 0.0 .
1158(18) 0.0 0.0 .
1112(17) 0.0 0.0 .
1099(18) 0.0 0.0 .
1104(18) 0.0 0.0 .
1178(19) 0.0 0.0 .
1204(18) 0.0 0.0 .
1166(18) 0.0 0.0 .
1151(18) 0.0 0.0 .
1165(19) 0.0 0.0 .
1136(18) 0.0 0.0 .
1126(18) 0.0 0.0 .
1192(18) 0.0 0.0 .
1107(18) 0.0 0.0 .
1096(18) 0.0 0.0 .
1097(18) 0.0 0.0 .
1148(18) 0.0 0.0 .
1175(18) 0.0 0.0 .
1144(18) 0.0 0.0 .
1119(19) 0.0 0.0 .
1134(18) 0.0 0.0 .
1101(17) 0.0 0.0 .
1148(18) 0.0 0.0 .
1143(18) 0.0 0.0 .
1096(18) 0.0 0.0 .
1120(18) 0.0 0.0 .
1122(17) 0.0 0.0 .
1153(18) 0.0 0.0 .
1081(18) 0.0 0.0 .
1114(19) 0.0 0.0 .
1074(18) 0.0 0.0 .
1141(18) 0.0 0.0 .
1130(18) 0.0 0.0 .
1078(17) 0.0 0.0 .
1101(18) 0.0 0.0 .
1134(18) 0.0 0.0 .
1068(17) 0.0 0.0 .
1131(18) 0.0 0.0 .
1119(18) 0.0 0.0 .
1149(18) 0.0 0.0 .
1145(18) 0.0 0.0 .
1161(18) 0.0 0.0 .
1142(18) 0.0 0.0 .
1098(18) 0.0 0.0 .
1114(18) 0.0 0.0 .
1108(18) 0.0 0.0 .
1125(17) 0.0 0.0 .
1118(18) 0.0 0.0 .
1111(18) 0.0 0.0 .
1084(18) 0.0 0.0 .
1051(17) 0.0 0.0 .
1059(17) 0.0 0.0 .
1094(18) 0.0 0.0 .
1068(18) 0.0 0.0 .
1130(18) 0.0 0.0 .
1132(18) 0.0 0.0 .
1085(17) 0.0 0.0 .
1067(18) 0.0 0.0 .
1086(18) 0.0 0.0 .
1100(18) 0.0 0.0 .
1085(17) 0.0 0.0 .
1074(17) 0.0 0.0 .
1095(18) 0.0 0.0 .
1040(18) 0.0 0.0 .
1053(18) 0.0 0.0 .
1086(17) 0.0 0.0 .
1031(17) 0.0 0.0 .
1069(18) 0.0 0.0 .
1107(19) 0.0 0.0 .
1047(17) 0.0 0.0 .
1072(17) 0.0 0.0 .
1082(17) 0.0 0.0 .
1066(17) 0.0 0.0 .
1071(18) 0.0 0.0 .
1078(18) 0.0 0.0 .
1089(17) 0.0 0.0 .
1084(17) 0.0 0.0 .
1085(18) 0.0 0.0 .
1123(18) 0.0 0.0 .
1120(18) 0.0 0.0 .
1080(17) 0.0 0.0 .
1079(17) 0.0 0.0 .
1098(18) 0.0 0.0 .
1049(18) 0.0 0.0 .
1093(18) 0.0 0.0 .
1052(17) 0.0 0.0 .
1090(17) 0.0 0.0 .
1084(18) 0.0 0.0 .
1026(17) 0.0 0.0 .
1064(18) 0.0 0.0 .
1072(17) 0.0 0.0 .
1037(17) 0.0 0.0 .
1059(18) 0.0 0.0 .
1045(18) 0.0 0.0 .
1056(17) 0.0 0.0 .
1034(17) 0.0 0.0 .
1072(17) 0.0 0.0 .
1002(17) 0.0 0.0 .
1051(18) 0.0 0.0 .
1023(17) 0.0 0.0 .
1055(17) 0.0 0.0 .
1038(17) 0.0 0.0 .
1071(18) 0.0 0.0 .
1079(18) 0.0 0.0 .
1072(17) 0.0 0.0 .
1038(17) 0.0 0.0 .
1035(17) 0.0 0.0 .
1070(18) 0.0 0.0 .
1026(17) 0.0 0.0 .
1084(17) 0.0 0.0 .
992(16) 0.0 0.0 .
1061(18) 0.0 0.0 .
1034(18) 0.0 0.0 .
1060(18) 0.0 0.0 .
1065(17) 0.0 0.0 .
1036(17) 0.0 0.0 .
1015(17) 0.0 0.0 .
1043(18) 0.0 0.0 .
1016(17) 0.0 0.0 .
1001(16) 0.0 0.0 .
993(16) 0.0 0.0 .
1070(17) 0.0 0.0 .
1015(17) 0.0 0.0 .
1033(17) 0.0 0.0 .
1003(16) 0.0 0.0 .
1038(17) 0.0 0.0 .
1049(17) 0.0 0.0 .
972(17) 0.0 0.0 .
986(17) 0.0 0.0 .
1056(17) 0.0 0.0 .
1095(17) 0.0 0.0 .
1054(18) 0.0 0.0 .
1086(18) 0.0 0.0 .
1010(17) 0.0 0.0 .
1013(16) 0.0 0.0 .
1021(17) 0.0 0.0 .
1031(17) 0.0 0.0 .
1052(18) 0.0 0.0 .
1005(17) 0.0 0.0 .
1030(17) 0.0 0.0 .
1032(17) 0.0 0.0 .
1047(17) 0.0 0.0 .
1004(17) 0.0 0.0 .
1062(18) 0.0 0.0 .
992(16) 0.0 0.0 .
1002(17) 0.0 0.0 .
1000(17) 0.0 0.0 .
1050(18) 0.0 0.0 .
1046(17) 0.0 0.0 .
1020(17) 0.0 0.0 .
1024(17) 0.0 0.0 .
1010(17) 0.0 0.0 .
1050(18) 0.0 0.0 .
1000(17) 0.0 0.0 .
976(16) 0.0 0.0 .
1061(18) 0.0 0.0 .
1022(18) 0.0 0.0 .
1019(17) 0.0 0.0 .
1011(17) 0.0 0.0 .
1001(16) 0.0 0.0 .
1000(17) 0.0 0.0 .
978(17) 0.0 0.0 .
1031(17) 0.0 0.0 .
989(16) 0.0 0.0 .
971(16) 0.0 0.0 .
1043(17) 0.0 0.0 .
1019(18) 0.0 0.0 .
990(17) 0.0 0.0 .
996(16) 0.0 0.0 .
1029(17) 0.0 0.0 .
1026(17) 0.0 0.0 .
1029(18) 0.0 0.0 .
1019(17) 0.0 0.0 .
961(16) 0.0 0.0 .
998(16) 0.0 0.0 .
1013(17) 0.0 0.0 .
995(17) 0.0 0.0 .
1004(17) 0.0 0.0 .
1010(17) 0.0 0.0 .
1063(17) 0.0 0.0 .
1013(17) 0.0 0.0 .
1001(18) 0.0 0.0 .
1013(17) 0.0 0.0 .
984(16) 0.0 0.0 .
990(16) 0.0 0.0 .
1015(17) 0.0 0.0 .
986(17) 0.0 0.0 .
1026(17) 0.0 0.0 .
997(16) 0.0 0.0 .
1011(17) 0.0 0.0 .
982(17) 0.0 0.0 .
976(17) 0.0 0.0 .
991(17) 0.0 0.0 .
978(16) 0.0 0.0 .
985(17) 0.0 0.0 .
1011(17) 0.0 0.0 .
967(17) 0.0 0.0 .
967(17) 0.0 0.0 .
961(16) 0.0 0.0 .
970(17) 0.0 0.0 .
1015(17) 0.0 0.0 .
998(17) 0.0 0.0 .
961(16) 0.0 0.0 .
933(16) 0.0 0.0 .
957(17) 0.0 0.0 .
973(17) 0.0 0.0 .
955(17) 0.0 0.0 .
987(17) 0.0 0.0 .
970(16) 0.0 0.0 .
989(17) 0.0 0.0 .
934(17) 0.0 0.0 .
976(17) 0.0 0.0 .
1020(17) 0.0 0.0 .
983(16) 0.0 0.0 .
988(17) 0.0 0.0 .
1010(18) 0.0 0.0 .
923(16) 0.0 0.0 .
982(16) 0.0 0.0 .
969(16) 0.0 0.0 .
960(17) 0.0 0.0 .
932(17) 0.0 0.0 .
978(17) 0.0 0.0 .
962(16) 0.0 0.0 .
966(16) 0.0 0.0 .
963(17) 0.0 0.0 .
979(18) 0.0 0.0 .
947(16) 0.0 0.0 .
918(16) 0.0 0.0 .
972(16) 0.0 0.0 .
924(16) 0.0 0.0 .
989(18) 0.0 0.0 .
985(17) 0.0 0.0 .
993(16) 0.0 0.0 .
957(16) 0.0 0.0 .
967(17) 0.0 0.0 .
1003(17) 0.0 0.0 .
959(17) 0.0 0.0 .
982(16) 0.0 0.0 .
955(16) 0.0 0.0 .
947(16) 0.0 0.0 .
929(17) 0.0 0.0 .
949(17) 0.0 0.0 .
961(16) 0.0 0.0 .
941(16) 0.0 0.0 .
964(17) 0.0 0.0 .
975(17) 0.0 0.0 .
951(17) 0.0 0.0 .
982(16) 0.0 0.0 .
945(16) 0.0 0.0 .
980(17) 0.0 0.0 .
929(16) 0.0 0.0 .
916(16) 0.0 0.0 .
942(16) 0.0 0.0 .
963(17) 0.0 0.0 .
968(17) 0.0 0.0 .
982(17) 0.0 0.0 .
905(16) 0.0 0.0 .
960(16) 0.0 0.0 .
949(17) 0.0 0.0 .
945(17) 0.0 0.0 .
951(17) 0.0 0.0 .
989(16) 0.0 0.0 .
939(16) 0.0 0.0 .
937(16) 0.0 0.0 .
943(17) 0.0 0.0 .
945(17) 0.0 0.0 .
962(16) 0.0 0.0 .
966(16) 0.0 0.0 .
946(16) 0.0 0.0 .
873(16) 0.0 0.0 .
896(16) 0.0 0.0 .
903(16) 0.0 0.0 .
939(16) 0.0 0.0 .
935(16) 0.0 0.0 .
919(17) 0.0 0.0 .
924(16) 0.0 0.0 .
896(16) 0.0 0.0 .
950(16) 0.0 0.0 .
925(16) 0.0 0.0 .
897(16) 0.0 0.0 .
962(17) 0.0 0.0 .
905(16) 0.0 0.0 .
924(16) 0.0 0.0 .
907(16) 0.0 0.0 .
954(17) 0.0 0.0 .
923(16) 0.0 0.0 .
969(16) 0.0 0.0 .
909(16) 0.0 0.0 .
937(17) 0.0 0.0 .
900(17) 0.0 0.0 .
887(16) 0.0 0.0 .
899(16) 0.0 0.0 .
913(16) 0.0 0.0 .
910(16) 0.0 0.0 .
923(17) 0.0 0.0 .
904(16) 0.0 0.0 .
923(16) 0.0 0.0 .
919(16) 0.0 0.0 .
871(16) 0.0 0.0 .
878(16) 0.0 0.0 .
881(16) 0.0 0.0 .
872(15) 0.0 0.0 .
888(16) 0.0 0.0 .
905(17) 0.0 0.0 .
892(16) 0.0 0.0 .
940(16) 0.0 0.0 .
913(16) 0.0 0.0 .
903(16) 0.0 0.0 .
865(16) 0.0 0.0 .
868(16) 0.0 0.0 .
878(16) 0.0 0.0 .
913(16) 0.0 0.0 .
901(16) 0.0 0.0 .
900(16) 0.0 0.0 .
897(16) 0.0 0.0 .
862(15) 0.0 0.0 .
885(15) 0.0 0.0 .
894(16) 0.0 0.0 .
858(16) 0.0 0.0 .
877(16) 0.0 0.0 .
878(15) 0.0 0.0 .
894(16) 0.0 0.0 .
889(16) 0.0 0.0 .
875(16) 0.0 0.0 .
872(16) 0.0 0.0 .
873(15) 0.0 0.0 .
882(15) 0.0 0.0 .
896(16) 0.0 0.0 .
869(16) 0.0 0.0 .
855(16) 0.0 0.0 .
929(16) 0.0 0.0 .
873(15) 0.0 0.0 .
873(16) 0.0 0.0 .
891(16) 0.0 0.0 .
899(16) 0.0 0.0 .
897(16) 0.0 0.0 .
870(16) 0.0 0.0 .
879(16) 0.0 0.0 .
855(16) 0.0 0.0 .
865(16) 0.0 0.0 .
907(16) 0.0 0.0 .
879(16) 0.0 0.0 .
913(16) 0.0 0.0 .
860(16) 0.0 0.0 .
870(16) 0.0 0.0 .
920(16) 0.0 0.0 .
877(16) 0.0 0.0 .
834(16) 0.0 0.0 .
867(16) 0.0 0.0 .
877(16) 0.0 0.0 .
864(15) 0.0 0.0 .
867(16) 0.0 0.0 .
842(16) 0.0 0.0 .
845(16) 0.0 0.0 .
849(16) 0.0 0.0 .
889(15) 0.0 0.0 .
874(16) 0.0 0.0 .
899(16) 0.0 0.0 .
879(16) 0.0 0.0 .
834(15) 0.0 0.0 .
852(15) 0.0 0.0 .
856(16) 0.0 0.0 .
851(16) 0.0 0.0 .
811(15) 0.0 0.0 .
809(15) 0.0 0.0 .
840(15) 0.0 0.0 .
842(16) 0.0 0.0 .
843(16) 0.0 0.0 .
822(15) 0.0 0.0 .
825(15) 0.0 0.0 .
821(15) 0.0 0.0 .
838(15) 0.0 0.0 .
857(16) 0.0 0.0 .
874(16) 0.0 0.0 .
823(15) 0.0 0.0 .
827(15) 0.0 0.0 .
804(15) 0.0 0.0 .
843(16) 0.0 0.0 .
836(15) 0.0 0.0 .
854(15) 0.0 0.0 .
800(15) 0.0 0.0 .
858(16) 0.0 0.0 .
842(16) 0.0 0.0 .
857(16) 0.0 0.0 .
837(15) 0.0 0.0 .
822(15) 0.0 0.0 .
817(15) 0.0 0.0 .
829(16) 0.0 0.0 .
809(15) 0.0 0.0 .
798(15) 0.0 0.0 .
792(15) 0.0 0.0 .
828(15) 0.0 0.0 .
851(16) 0.0 0.0 .
794(15) 0.0 0.0 .
823(15) 0.0 0.0 .
787(15) 0.0 0.0 .
805(15) 0.0 0.0 .
794(15) 0.0 0.0 .
784(15) 0.0 0.0 .
809(15) 0.0 0.0 .
813(15) 0.0 0.0 .
825(16) 0.0 0.0 .
850(16) 0.0 0.0 .
814(15) 0.0 0.0 .
793(15) 0.0 0.0 .
812(15) 0.0 0.0 .
842(16) 0.0 0.0 .
839(16) 0.0 0.0 .
833(15) 0.0 0.0 .
852(15) 0.0 0.0 .
797(15) 0.0 0.0 .
834(16) 0.0 0.0 .
813(15) 0.0 0.0 .
827(15) 0.0 0.0 .
785(14) 0.0 0.0 .
802(15) 0.0 0.0 .
787(16) 0.0 0.0 .
819(15) 0.0 0.0 .
815(15) 0.0 0.0 .
811(15) 0.0 0.0 .
802(15) 0.0 0.0 .
840(16) 0.0 0.0 .
795(15) 0.0 0.0 .
802(15) 0.0 0.0 .
794(15) 0.0 0.0 .
795(15) 0.0 0.0 .
799(16) 0.0 0.0 .
789(15) 0.0 0.0 .
808(15) 0.0 0.0 .
807(15) 0.0 0.0 .
861(16) 0.0 0.0 .
795(15) 0.0 0.0 .
792(15) 0.0 0.0 .
830(15) 0.0 0.0 .
780(15) 0.0 0.0 .
826(16) 0.0 0.0 .
796(15) 0.0 0.0 .
798(15) 0.0 0.0 .
785(14) 0.0 0.0 .
814(15) 0.0 0.0 .
810(15) 0.0 0.0 .
781(15) 0.0 0.0 .
823(16) 0.0 0.0 .
769(14) 0.0 0.0 .
814(15) 0.0 0.0 .
786(15) 0.0 0.0 .
772(15) 0.0 0.0 .
800(15) 0.0 0.0 .
780(14) 0.0 0.0 .
809(15) 0.0 0.0 .
815(15) 0.0 0.0 .
806(15) 0.0 0.0 .
770(15) 0.0 0.0 .
784(15) 0.0 0.0 .
764(15) 0.0 0.0 .
783(15) 0.0 0.0 .
817(16) 0.0 0.0 .
776(15) 0.0 0.0 .
804(15) 0.0 0.0 .
810(15) 0.0 0.0 .
795(15) 0.0 0.0 .
808(15) 0.0 0.0 .
793(15) 0.0 0.0 .
799(15) 0.0 0.0 .
757(15) 0.0 0.0 .
771(15) 0.0 0.0 .
772(15) 0.0 0.0 .
737(14) 0.0 0.0 .
763(14) 0.0 0.0 .
798(15) 0.0 0.0 .
775(15) 0.0 0.0 .
777(15) 0.0 0.0 .
781(15) 0.0 0.0 .
799(15) 0.0 0.0 .
769(15) 0.0 0.0 .
756(15) 0.0 0.0 .
757(15) 0.0 0.0 .
762(14) 0.0 0.0 .
825(15) 0.0 0.0 .
788(15) 0.0 0.0 .
775(15) 0.0 0.0 .
783(15) 0.0 0.0 .
790(15) 0.0 0.0 .
740(14) 0.0 0.0 .
770(15) 0.0 0.0 .
745(15) 0.0 0.0 .
779(15) 0.0 0.0 .
794(15) 0.0 0.0 .
824(15) 0.0 0.0 .
762(15) 0.0 0.0 .
773(15) 0.0 0.0 .
753(15) 0.0 0.0 .
789(15) 0.0 0.0 .
743(14) 0.0 0.0 .
814(16) 0.0 0.0 .
799(15) 0.0 0.0 .
797(15) 0.0 0.0 .
737(14) 0.0 0.0 .
769(15) 0.0 0.0 .
768(15) 0.0 0.0 .
801(15) 0.0 0.0 .
803(15) 0.0 0.0 .
732(14) 0.0 0.0 .
783(15) 0.0 0.0 .
768(15) 0.0 0.0 .
762(15) 0.0 0.0 .
764(15) 0.0 0.0 .
782(14) 0.0 0.0 .
771(15) 0.0 0.0 .
747(15) 0.0 0.0 .
741(15) 0.0 0.0 .
765(15) 0.0 0.0 .
757(14) 0.0 0.0 .
772(15) 0.0 0.0 .
728(15) 0.0 0.0 .
754(15) 0.0 0.0 .
777(15) 0.0 0.0 .
747(14) 0.0 0.0 .
744(15) 0.0 0.0 .
778(16) 0.0 0.0 .
754(15) 0.0 0.0 .
775(15) 0.0 0.0 .
754(14) 0.0 0.0 .
776(15) 0.0 0.0 .
751(15) 0.0 0.0 .
796(15) 0.0 0.0 .
763(14) 0.0 0.0 .
732(14) 0.0 0.0 .
753(15) 0.0 0.0 .
726(15) 0.0 0.0 .
751(15) 0.0 0.0 .
784(15) 0.0 0.0 .
770(15) 0.0 0.0 .
777(15) 0.0 0.0 .
750(15) 0.0 0.0 .
744(15) 0.0 0.0 .
760(14) 0.0 0.0 .
773(15) 0.0 0.0 .
728(14) 0.0 0.0 .
714(15) 0.0 0.0 .
735(15) 0.0 0.0 .
748(14) 0.0 0.0 .
761(15) 0.0 0.0 .
737(15) 0.0 0.0 .
732(15) 0.0 0.0 .
749(15) 0.0 0.0 .
733(14) 0.0 0.0 .
751(15) 0.0 0.0 .
781(15) 0.0 0.0 .
758(15) 0.0 0.0 .
758(15) 0.0 0.0 .
712(14) 0.0 0.0 .
715(14) 0.0 0.0 .
716(14) 0.0 0.0 .
726(14) 0.0 0.0 .
753(15) 0.0 0.0 .
757(14) 0.0 0.0 .
734(15) 0.0 0.0 .
731(15) 0.0 0.0 .
740(15) 0.0 0.0 .
728(14) 0.0 0.0 .
750(14) 0.0 0.0 .
781(15) 0.0 0.0 .
746(15) 0.0 0.0 .
707(14) 0.0 0.0 .
741(14) 0.0 0.0 .
785(15) 0.0 0.0 .
741(15) 0.0 0.0 .
721(15) 0.0 0.0 .
730(14) 0.0 0.0 .
749(14) 0.0 0.0 .
749(14) 0.0 0.0 .
723(14) 0.0 0.0 .
742(15) 0.0 0.0 .
733(15) 0.0 0.0 .
749(14) 0.0 0.0 .
705(14) 0.0 0.0 .
733(15) 0.0 0.0 .
730(15) 0.0 0.0 .
725(14) 0.0 0.0 .
732(14) 0.0 0.0 .
730(14) 0.0 0.0 .
699(14) 0.0 0.0 .
688(15) 0.0 0.0 .
704(14) 0.0 0.0 .
735(14) 0.0 0.0 .
706(14) 0.0 0.0 .
730(14) 0.0 0.0 .
736(15) 0.0 0.0 .
726(15) 0.0 0.0 .
724(14) 0.0 0.0 .
736(14) 0.0 0.0 .
741(15) 0.0 0.0 .
730(15) 0.0 0.0 .
736(15) 0.0 0.0 .
746(14) 0.0 0.0 .
714(14) 0.0 0.0 .
741(15) 0.0 0.0 .
719(15) 0.0 0.0 .
720(14) 0.0 0.0 .
707(14) 0.0 0.0 .
741(15) 0.0 0.0 .
731(15) 0.0 0.0 .
725(15) 0.0 0.0 .
699(14) 0.0 0.0 .
709(14) 0.0 0.0 .
730(14) 0.0 0.0 .
729(15) 0.0 0.0 .
737(15) 0.0 0.0 .
753(14) 0.0 0.0 .
705(14) 0.0 0.0 .
751(15) 0.0 0.0 .
715(14) 0.0 0.0 .
695(14) 0.0 0.0 .
738(14) 0.0 0.0 .
725(14) 0.0 0.0 .
731(15) 0.0 0.0 .
750(15) 0.0 0.0 .
728(14) 0.0 0.0 .
714(14) 0.0 0.0 .
747(14) 0.0 0.0 .
660(14) 0.0 0.0 .
713(15) 0.0 0.0 .
727(14) 0.0 0.0 .
710(14) 0.0 0.0 .
762(14) 0.0 0.0 .
723(14) 0.0 0.0 .
725(15) 0.0 0.0 .
744(15) 0.0 0.0 .
724(14) 0.0 0.0 .
713(14) 0.0 0.0 .
741(15) 0.0 0.0 .
715(15) 0.0 0.0 .
695(14) 0.0 0.0 .
718(14) 0.0 0.0 .
711(14) 0.0 0.0 .
726(14) 0.0 0.0 .
710(15) 0.0 0.0 .
722(15) 0.0 0.0 .
702(14) 0.0 0.0 .
701(14) 0.0 0.0 .
734(15) 0.0 0.0 .
715(14) 0.0 0.0 .
725(14) 0.0 0.0 .
713(14) 0.0 0.0 .
702(14) 0.0 0.0 .
704(14) 0.0 0.0 .
709(14) 0.0 0.0 .
715(14) 0.0 0.0 .
701(14) 0.0 0.0 .
710(14) 0.0 0.0 .
723(15) 0.0 0.0 .
698(14) 0.0 0.0 .
653(14) 0.0 0.0 .
691(14) 0.0 0.0 .
720(14) 0.0 0.0 .
713(14) 0.0 0.0 .
707(14) 0.0 0.0 .
696(14) 0.0 0.0 .
690(14) 0.0 0.0 .
690(14) 0.0 0.0 .
735(15) 0.0 0.0 .
723(15) 0.0 0.0 .
693(14) 0.0 0.0 .
704(14) 0.0 0.0 .
702(14) 0.0 0.0 .
718(15) 0.0 0.0 .
695(14) 0.0 0.0 .
670(14) 0.0 0.0 .
677(14) 0.0 0.0 .
690(14) 0.0 0.0 .
712(15) 0.0 0.0 .
706(14) 0.0 0.0 .
716(14) 0.0 0.0 .
695(14) 0.0 0.0 .
696(14) 0.0 0.0 .
697(15) 0.0 0.0 .
728(15) 0.0 0.0 .
700(14) 0.0 0.0 .
679(14) 0.0 0.0 .
662(14) 0.0 0.0 .
688(14) 0.0 0.0 .
721(14) 0.0 0.0 .
720(14) 0.0 0.0 .
687(14) 0.0 0.0 .
726(15) 0.0 0.0 .
705(15) 0.0 0.0 .
691(14) 0.0 0.0 .
707(14) 0.0 0.0 .
688(14) 0.0 0.0 .
676(14) 0.0 0.0 .
676(14) 0.0 0.0 .
729(15) 0.0 0.0 .
715(14) 0.0 0.0 .
688(14) 0.0 0.0 .
662(14) 0.0 0.0 .
749(15) 0.0 0.0 .
687(14) 0.0 0.0 .
724(14) 0.0 0.0 .
727(14) 0.0 0.0 .
680(14) 0.0 0.0 .
733(15) 0.0 0.0 .
710(14) 0.0 0.0 .
690(14) 0.0 0.0 .
687(14) 0.0 0.0 .
705(14) 0.0 0.0 .
673(14) 0.0 0.0 .
700(14) 0.0 0.0 .
691(14) 0.0 0.0 .
727(15) 0.0 0.0 .
690(14) 0.0 0.0 .
705(14) 0.0 0.0 .
656(13) 0.0 0.0 .
692(14) 0.0 0.0 .
687(14) 0.0 0.0 .
715(15) 0.0 0.0 .
685(14) 0.0 0.0 .
666(13) 0.0 0.0 .
685(14) 0.0 0.0 .
654(14) 0.0 0.0 .
702(15) 0.0 0.0 .
730(15) 0.0 0.0 .
681(14) 0.0 0.0 .
733(14) 0.0 0.0 .
689(14) 0.0 0.0 .
697(15) 0.0 0.0 .
723(14) 0.0 0.0 .
725(14) 0.0 0.0 .
682(14) 0.0 0.0 .
702(14) 0.0 0.0 .
714(15) 0.0 0.0 .
741(15) 0.0 0.0 .
706(14) 0.0 0.0 .
731(14) 0.0 0.0 .
695(14) 0.0 0.0 .
701(15) 0.0 0.0 .
686(14) 0.0 0.0 .
715(14) 0.0 0.0 .
719(14) 0.0 0.0 .
693(14) 0.0 0.0 .
691(14) 0.0 0.0 .
743(15) 0.0 0.0 .
719(14) 0.0 0.0 .
691(14) 0.0 0.0 .
704(14) 0.0 0.0 .
713(15) 0.0 0.0 .
705(14) 0.0 0.0 .
705(14) 0.0 0.0 .
666(14) 0.0 0.0 .
697(14) 0.0 0.0 .
676(14) 0.0 0.0 .
744(15) 0.0 0.0 .
700(14) 0.0 0.0 .
661(14) 0.0 0.0 .
725(15) 0.0 0.0 .
690(14) 0.0 0.0 .
723(14) 0.0 0.0 .
715(14) 0.0 0.0 .
696(14) 0.0 0.0 .
723(15) 0.0 0.0 .
661(14) 0.0 0.0 .
750(14) 0.0 0.0 .
735(14) 0.0 0.0 .
707(14) 0.0 0.0 .
679(14) 0.0 0.0 .
712(14) 0.0 0.0 .
695(14) 0.0 0.0 .
702(14) 0.0 0.0 .
703(14) 0.0 0.0 .
704(15) 0.0 0.0 .
713(14) 0.0 0.0 .
691(14) 0.0 0.0 .
743(14) 0.0 0.0 .
729(14) 0.0 0.0 .
702(15) 0.0 0.0 .
716(15) 0.0 0.0 .
720(14) 0.0 0.0 .
736(14) 0.0 0.0 .
733(15) 0.0 0.0 .
732(15) 0.0 0.0 .
729(14) 0.0 0.0 .
721(14) 0.0 0.0 .
719(14) 0.0 0.0 .
702(14) 0.0 0.0 .
734(15) 0.0 0.0 .
722(14) 0.0 0.0 .
777(14) 0.0 0.0 .
763(15) 0.0 0.0 .
722(14) 0.0 0.0 .
722(15) 0.0 0.0 .
755(15) 0.0 0.0 .
715(14) 0.0 0.0 .
748(14) 0.0 0.0 .
709(14) 0.0 0.0 .
763(15) 0.0 0.0 .
756(15) 0.0 0.0 .
772(14) 0.0 0.0 .
725(14) 0.0 0.0 .
775(15) 0.0 0.0 .
729(15) 0.0 0.0 .
760(15) 0.0 0.0 .
751(14) 0.0 0.0 .
740(15) 0.0 0.0 .
702(14) 0.0 0.0 .
769(15) 0.0 0.0 .
747(15) 0.0 0.0 .
744(14) 0.0 0.0 .
741(15) 0.0 0.0 .
782(16) 0.0 0.0 .
756(15) 0.0 0.0 .
769(15) 0.0 0.0 .
773(14) 0.0 0.0 .
797(15) 0.0 0.0 .
811(16) 0.0 0.0 .
819(15) 0.0 0.0 .
779(15) 0.0 0.0 .
801(15) 0.0 0.0 .
800(15) 0.0 0.0 .
821(16) 0.0 0.0 .
814(15) 0.0 0.0 .
799(15) 0.0 0.0 .
813(15) 0.0 0.0 .
836(15) 0.0 0.0 .
884(17) 0.0 0.0 .
868(16) 0.0 0.0 .
910(16) 0.0 0.0 .
844(15) 0.0 0.0 .
874(16) 0.0 0.0 .
874(17) 0.0 0.0 .
930(17) 0.0 0.0 .
926(16) 0.0 0.0 .
907(16) 0.0 0.0 .
901(16) 0.0 0.0 .
921(17) 0.0 0.0 .
957(17) 0.0 0.0 .
989(16) 0.0 0.0 .
998(16) 0.0 0.0 .
985(17) 0.0 0.0 .
1024(18) 0.0 0.0 .
1022(17) 0.0 0.0 .
1024(17) 0.0 0.0 .
1099(17) 0.0 0.0 .
1130(18) 0.0 0.0 .
1131(18) 0.0 0.0 .
1164(18) 0.0 0.0 .
1212(18) 0.0 0.0 .
1274(19) 0.0 0.0 .
1324(20) 0.0 0.0 .
1395(20) 0.0 0.0 .
1502(21) 0.0 0.0 .
1643(21) 0.0 0.0 .
1729(22) 0.0 0.0 .
1973(24) 0.0 0.0 .
2142(25) 0.0 0.0 .
2523(27) 0.0 0.0 .
2953(28) 0.0 0.0 .
3465(31) 0.0 0.0 .
4296(36) 0.0 0. .
5355(40) 0.0 0. .
6725(44) 0.0 0. .
8401(48) 0.0 0. .
10203(55) 0.0 0. .
12427(61) 0.0 0. .
14719(66) 0.0 0. .
17340(70) 0.0 0. .
19866(74) 0.0 0. .
22458(82) 0.0 0. .
24973(89) 0.0 0. .
27438(91) 0.0 0. .
30253(93) 0.0 0. .
33661(98) 0.0 0. .
37900(110) 0.0 0. .
42900(120) 0.0 0. .
49040(120) 0.0 0. .
56970(130) 0.0 0. .
67000(140) 0.0 0. .
77330(160) 0.0 0. .
85840(180) 0.0 0. .
87240(170) 0.0 0. .
78480(160) 0.0 0. .
64340(140) 0.0 0. .
48570(120) 0.0 0. .
36200(110) 0.0 0. .
26728(89) 0.0 0. .
19896(74) 0.0 0. .
15327(66) 0.0 0. .
12110(60) 0.0 0. .
9589(54) 0.0 0. .
8103(48) 0.0 0. .
6727(43) 0.0 0. .
5650(40) 0.0 0. .
4910(38) 0.0 0. .
4302(36) 0.0 0. .
3866(33) 0.0 0.0 .
3395(30) 0.0 0.0 .
3105(30) 0.0 0.0 .
2848(29) 0.0 0.0 .
2655(28) 0.0 0.0 .
2406(26) 0.0 0.0 .
2244(25) 0.0 0.0 .
2123(24) 0.0 0.0 .
1934(24) 0.0 0.0 .
1850(23) 0.0 0.0 .
1698(22) 0.0 0.0 .
1626(21) 0.0 0.0 .
1519(21) 0.0 0.0 .
1472(21) 0.0 0.0 .
1421(20) 0.0 0.0 .
1416(20) 0.0 0.0 .
1291(19) 0.0 0.0 .
1246(19) 0.0 0.0 .
1203(19) 0.0 0.0 .
1213(19) 0.0 0.0 .
1157(18) 0.0 0.0 .
1127(17) 0.0 0.0 .
1052(18) 0.0 0.0 .
1041(18) 0.0 0.0 .
998(17) 0.0 0.0 .
1019(17) 0.0 0.0 .
975(16) 0.0 0.0 .
985(17) 0.0 0.0 .
937(17) 0.0 0.0 .
932(16) 0.0 0.0 .
905(16) 0.0 0.0 .
905(16) 0.0 0.0 .
941(17) 0.0 0.0 .
888(16) 0.0 0.0 .
890(16) 0.0 0.0 .
850(15) 0.0 0.0 .
846(15) 0.0 0.0 .
839(15) 0.0 0.0 .
856(16) 0.0 0.0 .
851(16) 0.0 0.0 .
831(15) 0.0 0.0 .
818(15) 0.0 0.0 .
812(15) 0.0 0.0 .
803(16) 0.0 0.0 .
788(15) 0.0 0.0 .
802(15) 0.0 0.0 .
792(15) 0.0 0.0 .
818(15) 0.0 0.0 .
778(15) 0.0 0.0 .
781(15) 0.0 0.0 .
766(14) 0.0 0.0 .
724(14) 0.0 0.0 .
761(15) 0.0 0.0 .
760(15) 0.0 0.0 .
771(15) 0.0 0.0 .
759(14) 0.0 0.0 .
770(15) 0.0 0.0 .
747(15) 0.0 0.0 .
739(15) 0.0 0.0 .
732(15) 0.0 0.0 .
774(15) 0.0 0.0 .
723(14) 0.0 0.0 .
709(15) 0.0 0.0 .
678(14) 0.0 0.0 .
704(14) 0.0 0.0 .
718(14) 0.0 0.0 .
684(14) 0.0 0.0 .
693(14) 0.0 0.0 .
704(14) 0.0 0.0 .
714(14) 0.0 0.0 .
710(14) 0.0 0.0 .
669(14) 0.0 0.0 .
701(14) 0.0 0.0 .
697(14) 0.0 0.0 .
721(14) 0.0 0.0 .
700(14) 0.0 0.0 .
669(14) 0.0 0.0 .
704(15) 0.0 0.0 .
701(14) 0.0 0.0 .
695(14) 0.0 0.0 .
670(13) 0.0 0.0 .
695(14) 0.0 0.0 .
709(15) 0.0 0.0 .
702(14) 0.0 0.0 .
704(14) 0.0 0.0 .
712(14) 0.0 0.0 .
651(13) 0.0 0.0 .
690(15) 0.0 0.0 .
694(14) 0.0 0.0 .
677(14) 0.0 0.0 .
659(13) 0.0 0.0 .
656(14) 0.0 0.0 .
688(14) 0.0 0.0 .
673(14) 0.0 0.0 .
699(14) 0.0 0.0 .
692(14) 0.0 0.0 .
679(14) 0.0 0.0 .
676(14) 0.0 0.0 .
708(14) 0.0 0.0 .
692(14) 0.0 0.0 .
669(14) 0.0 0.0 .
659(14) 0.0 0.0 .
710(15) 0.00470 657.1 61.8
705(14) 0.00484 657.1 60.8
700(14) 0.00527 657.1 59.8
662(14) 0.00537 657.1 58.8
640(14) 0.00523 656.9 57.8
668(14) 0.00506 656.4 56.9
674(14) 0.00516 656.0 56.0
664(13) 0.00563 655.6 55.1
648(14) 0.00544 655.1 0.0
626(13) 0.00551 654.7 0.0
672(14) 0.00508 654.2 0.0
626(13) 0.00558 653.8 0.0
614(13) 0.00603 653.3 0.0
669(14) 0.00521 652.9 0.0
657(14) 0.00506 652.5 0.0
652(14) 0.00535 652.0 0.0
652(13) 0.00552 651.6 0.0
647(13) 0.00575 651.1 0.0
666(14) 0.00502 650.7 0.0
654(14) 0.00498 650.2 0.0
672(14) 0.00499 649.8 0.0
675(14) 0.00534 649.4 0.0
631(13) 0.00593 648.9 0.0
637(14) 0.00538 648.5 0.0
630(14) 0.00509 648.0 0.0
618(13) 0.00574 647.6 0.0
671(14) 0.00546 647.1 0.0
643(13) 0.00583 646.7 0.0
675(14) 0.00521 646.3 0.0
670(14) 0.00486 645.8 0.0
664(14) 0.00530 645.4 0.0
602(13) 0.00620 644.9 0.0
634(13) 0.00587 644.5 0.0
620(13) 0.00575 644.1 0.0
646(14) 0.00500 643.6 0.0
641(13) 0.00553 643.2 0.0
637(13) 0.00589 642.7 0.0
641(13) 0.00567 642.3 0.0
625(13) 0.00556 641.8 0.0
639(14) 0.00504 641.4 0.0
627(14) 0.00548 641.0 0.0
653(13) 0.00560 640.5 0.0
633(13) 0.00573 640.1 0.0
653(14) 0.00534 639.6 0.0
660(14) 0.00494 639.2 0.0
617(13) 0.00568 638.7 0.0
648(13) 0.00575 638.3 0.0
622(13) 0.00590 637.9 0.0
658(14) 0.00510 637.4 0.0
625(14) 0.00533 637.0 0.0
638(14) 0.00535 636.5 0.0
624(13) 0.00600 636.1 0.0
655(14) 0.00536 635.6 0.0
608(13) 0.00583 635.2 0.0
630(14) 0.00541 634.8 0.0
624(13) 0.00571 634.3 0.0
610(13) 0.00612 633.9 0.0
629(13) 0.00551 633.4 0.0
621(14) 0.00548 633.0 0.0
613(13) 0.00552 632.5 0.0
629(13) 0.00569 632.1 0.0
629(13) 0.00590 631.7 0.0
622(13) 0.00563 631.2 0.0
599(13) 0.00577 630.8 0.0
620(13) 0.00560 630.3 0.0
654(13) 0.00552 629.9 0.0
659(13) 0.00563 629.4 0.0
590(13) 0.00594 629.0 0.0
607(14) 0.00547 628.6 0.0
650(14) 0.00516 628.1 0.0
599(13) 0.00615 627.7 0.0
626(13) 0.00589 627.2 0.0
604(13) 0.00583 626.8 0.0
633(14) 0.00523 626.3 0.0
642(14) 0.00528 625.9 0.0
614(13) 0.00592 625.5 0.0
663(13) 0.00559 625.0 0.0
591(13) 0.00601 624.6 0.0
632(14) 0.00512 624.1 0.0
602(13) 0.00587 623.7 0.0
607(13) 0.00605 623.2 0.0
599(13) 0.00624 622.8 0.0
626(14) 0.00544 622.4 0.0
608(14) 0.00526 621.9 0.0
609(13) 0.00576 621.5 0.0
623(13) 0.00599 621.0 0.7
629(13) 0.00588 620.6 0.8
578(13) 0.00600 620.1 0.8
619(14) 0.00514 619.7 0.8
648(14) 0.00535 619.3 0.8
631(13) 0.00591 618.8 0.8
630(13) 0.00591 618.4 0.8
644(14) 0.00542 617.9 0.8
614(14) 0.00535 617.5 0.8
605(13) 0.00571 617.0 0.9
587(13) 0.00634 616.6 0.9
601(13) 0.00600 616.2 0.9
624(13) 0.00551 615.7 0.9
571(13) 0.00603 615.3 0.9
602(13) 0.00576 614.8 0.9
607(13) 0.00616 614.4 1.0
606(13) 0.00601 613.9 1.0
611(13) 0.00564 613.5 1.0
597(13) 0.00568 613.1 1.0
588(13) 0.00601 612.6 1.0
612(13) 0.00603 612.2 1.0
620(13) 0.00560 611.7 1.1
639(14) 0.00533 611.3 1.1
603(13) 0.00569 610.8 1.1
610(13) 0.00581 610.4 1.1
620(13) 0.00599 610.0 1.1
624(13) 0.00558 609.5 1.2
592(13) 0.00570 609.1 1.2
598(13) 0.00572 608.6 1.2
600(13) 0.00596 608.2 1.2
621(13) 0.00594 607.7 1.3
648(14) 0.00525 607.3 1.3
608(14) 0.00538 606.9 1.3
603(13) 0.00569 606.4 1.4
590(13) 0.00608 606.0 1.4
557(12) 0.00671 605.5 1.4
612(13) 0.00566 605.1 1.4
633(14) 0.00525 604.6 1.5
621(13) 0.00560 604.2 1.5
617(13) 0.00600 603.8 1.5
592(13) 0.00631 603.3 1.6
570(13) 0.00617 602.9 1.6
585(13) 0.00558 602.4 1.7
583(13) 0.00622 602.0 1.7
570(12) 0.00658 601.5 1.7
629(13) 0.00591 601.1 1.8
587(13) 0.00600 600.7 1.8
615(14) 0.00519 600.2 1.9
584(13) 0.00597 599.8 1.9
625(13) 0.00589 599.3 2.0
603(13) 0.00612 598.9 2.0
622(13) 0.00561 598.7 2.1
597(14) 0.00548 598.6 2.1
614(13) 0.00561 598.4 2.2
589(13) 0.00635 598.3 2.2
599(13) 0.00611 598.2 2.3
592(13) 0.00597 598.1 2.4
619(14) 0.00536 597.9 2.4
609(13) 0.00562 597.8 2.5
591(13) 0.00625 597.7 2.6
600(13) 0.00604 597.5 2.7
603(13) 0.00568 597.4 2.7
585(13) 0.00573 597.3 2.8
595(13) 0.00582 597.1 2.9
581(12) 0.00644 597.0 3.0
573(13) 0.00636 596.9 3.1
629(14) 0.00532 596.7 3.2
582(13) 0.00584 596.6 3.3
599(13) 0.00572 596.5 3.4
590(13) 0.00631 596.4 3.6
575(13) 0.00610 596.2 3.7
590(13) 0.00580 596.1 3.8
581(13) 0.00601 596.0 4.0
630(13) 0.00566 595.8 4.1
583(13) 0.00635 595.7 4.3
614(13) 0.00581 595.6 4.4
610(13) 0.00561 595.4 4.6
574(13) 0.00603 595.3 4.8
611(13) 0.00577 595.2 5.0
592(13) 0.00632 595.0 5.2
611(13) 0.00562 594.9 5.4
610(13) 0.00552 594.8 5.6
589(13) 0.00588 594.7 5.9
572(13) 0.00624 594.5 6.2
580(12) 0.00641 594.4 6.5
561(13) 0.00603 594.3 6.8
596(13) 0.00551 594.1 7.1
603(13) 0.00582 594.0 7.5
597(13) 0.00610 593.9 7.8
581(13) 0.00636 593.7 8.3
610(13) 0.00558 593.6 8.7
597(13) 0.00552 593.5 9.2
622(13) 0.00556 593.3 9.7
592(13) 0.00622 593.2 10.3
594(13) 0.00625 593.1 10.9
594(13) 0.00580 593.0 11.6
591(14) 0.00545 592.8 12.4
599(13) 0.00581 592.7 13.2
615(13) 0.00593 592.6 14.1
611(13) 0.00602 592.4 15.1
621(13) 0.00565 592.3 16.2
630(14) 0.00508 592.2 17.5
645(14) 0.00540 592.0 18.8
620(13) 0.00603 591.9 20.4
660(13) 0.00553 591.8 22.2
621(13) 0.00564 591.6 24.2
641(14) 0.00518 591.5 26.4
663(14) 0.00521 591.4 29.0
690(14) 0.00539 591.3 32.0
626(13) 0.00590 591.1 35.6
690(14) 0.00515 591.0 39.8
693(14) 0.00492 590.9 45.0
731(15) 0.00468 590.7 51.5
797(15) 0.00465 590.6 60.1
768(15) 0.00471 590.5 71.8
787(15) 0.00438 590.3 88.1
815(15) 0.00418 590.2 111.3
897(16) 0.00384 590.1 143.8
923(16) 0.00403 589.9 188.7
928(16) 0.00386 589.8 249.0
997(17) 0.003416 589.7 326.7
983(17) 0.003437 589.6 422.3
1075(18) 0.003211 589.4 533.4
1184(18) 0.003121 589.3 654.2
1275(19) 0.002787 589.2 773.5
1255(19) 0.002741 589.0 874.1
1300(19) 0.002635 588.9 935.2
1344(19) 0.002651 588.8 940.1
1355(19) 0.002728 588.6 887.5
1241(19) 0.002772 588.5 791.9
1161(19) 0.002867 588.4 674.4
993(17) 0.00351 588.2 552.9
901(16) 0.00399 588.1 439.7
817(15) 0.00451 588.0 341.3
805(15) 0.00425 587.9 260.6
726(15) 0.00475 587.7 197.6
715(14) 0.00483 587.6 150.3
676(14) 0.00539 587.5 115.9
628(13) 0.00594 587.3 91.4
628(14) 0.00541 587.2 74.1
627(14) 0.00524 587.1 61.8
617(13) 0.00560 586.9 52.8
617(13) 0.00591 586.8 45.9
594(13) 0.00627 586.7 40.6
566(13) 0.00619 586.5 36.2
573(13) 0.00567 586.4 32.6
615(13) 0.00568 586.3 29.5
609(13) 0.00603 586.2 26.8
566(12) 0.00654 586.0 24.5
631(13) 0.00550 585.9 22.5
613(14) 0.00538 585.8 20.7
629(14) 0.00548 585.6 19.1
603(13) 0.00605 585.5 17.7
584(12) 0.00644 585.4 16.4
603(13) 0.00580 585.2 15.3
590(13) 0.00552 585.1 14.3
565(13) 0.00623 585.0 13.3
583(13) 0.00638 584.8 12.5
595(13) 0.00611 584.7 11.7
602(13) 0.00565 584.6 11.0
591(13) 0.00564 584.5 10.4
569(13) 0.00611 584.3 9.8
578(13) 0.00637 584.2 9.3
597(13) 0.00614 584.1 8.8
567(13) 0.00625 583.9 8.3
570(13) 0.00590 583.8 7.9
588(13) 0.00571 583.7 7.5
571(12) 0.00653 583.5 7.2
574(13) 0.00625 583.4 6.8
571(13) 0.00587 583.3 6.5
592(13) 0.00557 583.1 6.2
582(13) 0.00589 583.0 5.9
594(13) 0.00629 582.9 5.7
552(12) 0.00643 582.8 5.4
554(13) 0.00612 582.6 5.2
573(13) 0.00610 582.5 5.0
597(13) 0.00605 582.4 4.8
563(12) 0.00659 582.2 4.6
568(13) 0.00609 582.1 4.5
603(13) 0.00558 582.0 4.3
583(13) 0.00605 581.8 4.1
575(13) 0.00627 581.7 4.0
578(12) 0.00641 581.6 3.8
602(13) 0.00568 581.4 3.7
601(14) 0.00541 581.3 3.6
571(13) 0.00619 581.2 3.5
601(13) 0.00601 581.1 3.3
572(12) 0.00648 580.9 3.2
575(13) 0.00594 580.8 3.1
583(13) 0.00560 580.7 3.0
570(13) 0.00593 580.5 2.9
576(13) 0.00625 580.4 2.8
570(12) 0.00654 580.3 2.8
610(13) 0.00565 580.1 2.7
544(13) 0.00601 580.0 2.6
520(12) 0.00664 579.9 2.5
573(13) 0.00636 579.7 2.5
578(12) 0.00640 579.6 2.4
614(13) 0.00568 579.5 2.3
601(14) 0.00524 579.4 2.3
581(13) 0.00609 579.2 2.2
581(13) 0.00639 579.1 2.1
522(12) 0.00707 579.0 2.1
565(13) 0.00600 578.8 2.0
577(13) 0.00567 578.7 2.0
568(13) 0.00604 578.6 1.9
563(12) 0.00658 578.4 1.9
597(13) 0.00609 578.3 1.8
588(13) 0.00558 578.2 1.8
584(13) 0.00555 578.0 1.7
570(13) 0.00616 577.9 1.7
597(13) 0.00628 577.8 1.7
597(13) 0.00607 577.7 1.6
583(13) 0.00594 577.5 1.6
567(13) 0.00597 577.4 1.5
578(13) 0.00592 577.3 1.5
568(12) 0.00652 577.1 1.5
594(13) 0.00597 577.0 1.4
586(13) 0.00573 576.9 1.4
586(13) 0.00564 576.7 1.4
618(14) 0.00541 576.6 1.4
561(12) 0.00667 576.5 1.3
556(13) 0.00628 576.3 1.3
552(13) 0.00624 576.2 1.3
554(13) 0.00612 576.1 1.2
568(13) 0.00628 576.0 1.2
590(13) 0.00633 575.8 1.2
565(13) 0.00611 575.8 1.2
557(13) 0.00611 575.8 1.2
583(13) 0.00587 575.7 1.1
573(13) 0.00619 575.7 1.1
585(13) 0.00636 575.7 1.1
579(13) 0.00587 575.7 1.1
589(13) 0.00577 575.6 1.0
581(13) 0.00593 575.6 1.0
565(12) 0.00649 575.6 1.0
606(13) 0.00613 575.5 1.0
561(13) 0.00575 575.5 1.0
568(13) 0.00559 575.5 1.0
565(13) 0.00606 575.5 0.9
552(12) 0.00654 575.4 0.9
544(12) 0.00685 575.4 0.9
558(13) 0.00625 575.4 0.9
585(13) 0.00559 575.4 0.9
571(13) 0.00614 575.3 0.9
576(13) 0.00630 575.3 0.8
563(12) 0.00662 575.3 0.8
583(13) 0.00589 575.3 0.8
568(13) 0.00574 575.2 0.8
570(13) 0.00621 575.2 0.8
568(12) 0.00653 575.2 0.8
602(13) 0.00614 575.2 0.8
560(13) 0.00633 575.1 0.0
556(13) 0.00578 575.1 0.0
557(13) 0.00626 575.1 0.0
583(13) 0.00635 575.1 0.0
571(12) 0.00645 575.0 0.0
565(13) 0.00617 575.0 0.0
546(13) 0.00605 575.0 0.0
557(13) 0.00622 575.0 0.0
580(12) 0.00642 574.9 0.0
591(13) 0.00616 574.9 0.0
546(13) 0.00630 574.9 0.0
585(13) 0.00567 574.9 0.0
565(13) 0.00622 574.8 0.0
579(12) 0.00642 574.8 0.0
603(13) 0.00597 574.8 0.0
564(13) 0.00609 574.8 0.0
568(13) 0.00578 574.7 0.0
570(13) 0.00604 574.7 0.0
564(12) 0.00663 574.7 0.0
547(12) 0.00653 574.7 0.0
592(13) 0.00582 574.6 0.0
606(13) 0.00570 574.6 0.0
552(12) 0.00653 574.6 0.0
586(13) 0.00636 574.6 0.0
556(13) 0.00630 574.5 0.0
560(13) 0.00601 574.5 0.0
546(13) 0.00636 574.5 0.0
588(13) 0.00614 574.5 0.0
596(13) 0.00618 574.4 0.0
566(13) 0.00611 574.4 0.0
543(13) 0.00622 574.4 0.0
592(13) 0.00570 574.3 0.0
540(12) 0.00678 574.3 0.0
571(12) 0.00645 574.3 0.0
580(13) 0.00604 574.3 0.0
597(14) 0.00545 574.2 0.0
602(13) 0.00558 574.2 0.0
553(12) 0.00662 574.2 0.0
573(12) 0.00646 574.2 0.0
565(13) 0.00604 574.1 0.0
595(14) 0.00544 574.1 0.0
589(13) 0.00590 574.1 0.0
562(12) 0.00658 574.1 0.0
567(12) 0.00655 574.0 0.0
566(13) 0.00616 574.0 0.0
546(13) 0.00594 574.0 0.0
537(13) 0.00638 574.0 0.0
547(12) 0.00676 573.9 0.0
582(13) 0.00632 573.9 0.0
597(13) 0.00577 573.9 0.0
554(13) 0.00580 573.9 0.0
610(13) 0.00554 573.8 0.0
559(12) 0.00660 573.8 0.0
547(12) 0.00659 573.8 0.0
537(12) 0.00656 573.8 0.0
560(13) 0.00593 573.7 0.0
597(13) 0.00579 573.7 0.0
559(12) 0.00657 573.7 0.0
561(12) 0.00653 573.7 0.0
599(13) 0.00574 573.6 0.0
578(13) 0.00569 573.6 0.0
592(13) 0.00560 573.6 0.0
553(12) 0.00671 573.6 0.0
563(12) 0.00641 573.5 0.0
590(13) 0.00587 573.5 0.0
571(13) 0.00578 573.5 0.0
559(13) 0.00612 573.5 0.0
584(13) 0.00637 573.4 0.0
564(13) 0.00622 573.4 0.0
585(13) 0.00587 573.4 0.0
572(13) 0.00598 573.4 0.0
540(12) 0.00661 573.3 0.0
592(13) 0.00628 573.3 0.0
550(12) 0.00641 573.3 0.0
580(13) 0.00577 573.3 0.0
567(13) 0.00616 573.2 0.0
552(12) 0.00648 573.2 0.0
583(13) 0.00632 573.2 0.0
599(13) 0.00577 573.2 0.0
569(13) 0.00583 573.1 0.0
562(13) 0.00598 573.1 0.0
572(13) 0.00632 573.1 0.0
560(12) 0.00657 573.0 0.0
564(13) 0.00593 573.0 0.0
566(13) 0.00585 573.0 0.0
590(13) 0.00571 573.0 0.0
543(12) 0.00673 572.9 0.0
600(13) 0.00610 572.9 0.0
553(13) 0.00615 572.9 0.0
560(13) 0.00592 572.9 0.0
579(13) 0.00607 572.8 0.0
553(12) 0.00659 572.8 0.0
563(12) 0.00655 572.8 0.0
535(12) 0.00652 572.8 0.0
550(13) 0.00583 572.7 0.0
562(13) 0.00606 572.7 0.0
529(12) 0.00708 572.7 0.0
582(13) 0.00628 572.7 0.0
595(13) 0.00575 572.6 0.0
564(13) 0.00561 572.6 0.0
542(12) 0.00653 572.6 0.0
552(12) 0.00668 572.6 0.0
552(12) 0.00664 572.5 0.0
557(12) 0.00640 572.5 0.0
581(13) 0.00566 572.5 0.0
549(12) 0.00654 572.5 0.0
563(12) 0.00664 572.4 0.0
533(12) 0.00695 572.4 0.0
528(12) 0.00666 572.4 0.0
594(14) 0.00539 572.4 0.0
559(13) 0.00596 572.3 0.0
564(12) 0.00659 572.3 0.0
573(13) 0.00636 572.3 0.0
561(13) 0.00605 572.3 0.0
569(13) 0.00568 572.2 0.0
533(13) 0.00630 572.2 0.0
537(12) 0.00690 572.2 0.0
535(12) 0.00679 572.2 0.0
607(13) 0.00572 572.1 0.0
562(13) 0.00596 572.1 0.0
550(13) 0.00636 572.1 0.0
560(12) 0.00657 572.1 0.0
526(12) 0.00690 572.0 0.0
567(13) 0.00598 572.0 0.0
593(13) 0.00571 572.0 0.0
567(12) 0.00640 572.0 0.0
552(12) 0.00672 571.9 0.0
579(13) 0.00594 571.9 0.0
581(13) 0.00578 571.9 0.0
571(13) 0.00612 571.8 0.0
570(13) 0.00626 571.8 0.0
554(12) 0.00676 571.8 0.0
579(13) 0.00585 571.8 0.0
562(13) 0.00593 571.7 0.0
550(13) 0.00633 571.7 0.0
563(13) 0.00638 571.7 0.0
569(12) 0.00648 571.7 0.0
539(13) 0.00625 571.6 0.0
584(13) 0.00557 571.6 0.0
545(12) 0.00649 571.6 0.0
575(13) 0.00637 571.6 0.0
555(12) 0.00668 571.5 0.0
542(12) 0.00660 571.5 0.0
552(13) 0.00592 571.5 0.0
535(12) 0.00652 571.5 0.0
540(12) 0.00679 571.4 0.0
583(13) 0.00636 571.4 0.0
566(13) 0.00602 571.4 0.0
617(14) 0.00506 571.4 0.0
572(13) 0.00619 571.3 0.0
564(12) 0.00653 571.3 0.0
529(12) 0.00701 571.3 0.0
547(13) 0.00625 571.3 0.0
563(13) 0.00562 571.2 0.0
575(13) 0.00587 571.2 0.0
555(12) 0.00676 571.2 0.0
555(12) 0.00672 571.2 0.0
563(13) 0.00619 571.1 0.0
566(13) 0.00595 571.1 0.0
579(13) 0.00583 571.1 0.0
564(12) 0.00658 571.1 0.0
541(12) 0.00678 571.0 0.0
575(13) 0.00593 571.0 0.0
568(13) 0.00584 571.0 0.0
528(12) 0.00658 571.0 0.0
550(12) 0.00673 570.9 0.0
565(12) 0.00648 570.9 0.0
551(13) 0.00638 570.9 0.0
575(13) 0.00599 570.9 0.0
593(13) 0.00590 570.8 0.0
577(13) 0.00639 570.8 0.0
564(13) 0.00633 570.8 0.0
550(13) 0.00620 570.8 0.0
553(13) 0.00622 570.7 0.0
565(13) 0.00623 570.7 0.0
550(12) 0.00679 570.7 0.0
549(13) 0.00628 570.6 0.0
531(13) 0.00628 570.6 0.0
551(13) 0.00618 570.6 0.0
551(12) 0.00641 570.6 0.0
593(13) 0.00623 570.5 0.0
564(13) 0.00608 570.5 0.0
534(13) 0.00630 570.5 0.0
571(13) 0.00596 570.5 0.0
572(13) 0.00628 570.4 0.0
538(12) 0.00690 570.4 0.0
543(12) 0.00643 570.4 0.0
565(13) 0.00592 570.4 0.0
570(13) 0.00605 570.3 0.0
559(12) 0.00661 570.3 0.0
564(12) 0.00659 570.3 0.0
591(13) 0.00589 570.3 0.0
593(13) 0.00560 570.2 0.0
542(12) 0.00646 570.2 0.0
561(12) 0.00659 570.2 0.0
542(12) 0.00677 570.2 0.0
524(12) 0.00670 570.1 0.0
560(13) 0.00570 570.1 0.0
578(13) 0.00595 570.1 0.0
556(12) 0.00661 570.1 0.0
545(12) 0.00682 570.0 0.0
584(13) 0.00575 570.0 0.0
555(13) 0.00596 570.0 0.0
587(13) 0.00584 570.0 0.0
569(12) 0.00653 569.9 0.0
564(12) 0.00656 569.9 0.0
571(13) 0.00609 569.9 0.0
543(13) 0.00604 569.9 0.0
563(13) 0.00618 569.8 0.0
552(12) 0.00674 569.8 0.0
537(12) 0.00683 569.8 0.0
573(13) 0.00611 569.8 0.0
574(13) 0.00585 569.7 0.0
591(13) 0.00577 569.7 0.0
556(12) 0.00667 569.7 0.0
533(12) 0.00681 569.7 0.0
543(12) 0.00644 569.6 0.0
557(13) 0.00626 569.6 0.0
563(13) 0.00617 569.6 0.0
563(12) 0.00660 569.6 0.0
540(12) 0.00671 569.5 0.0
551(12) 0.00641 569.5 0.0
553(13) 0.00607 569.5 0.0
556(13) 0.00624 569.5 0.0
586(13) 0.00632 569.4 0.0
561(13) 0.00623 569.4 0.0
569(13) 0.00581 569.4 0.0
561(13) 0.00608 569.3 0.0
598(13) 0.00582 569.3 0.0
572(12) 0.00651 569.3 0.0
567(13) 0.00623 569.3 0.0
572(13) 0.00578 569.2 0.0
554(13) 0.00611 569.2 0.0
528(12) 0.00675 569.2 0.0
548(12) 0.00681 569.2 0.0
559(13) 0.00624 569.1 0.0
567(13) 0.00579 569.1 0.0
605(13) 0.00553 569.1 0.0
555(12) 0.00654 569.1 0.0
561(12) 0.00662 569.0 0.0
569(13) 0.00606 569.0 0.0
571(13) 0.00590 569.0 0.0
592(13) 0.00589 569.0 0.0
575(13) 0.00635 568.9 0.0
529(12) 0.00706 568.9 0.0
558(13) 0.00616 568.9 0.0
538(13) 0.00620 568.9 0.0
563(13) 0.00629 568.8 0.0
596(13) 0.00604 568.8 0.0
579(13) 0.00634 568.8 0.0
558(13) 0.00628 568.9 0.0
562(13) 0.00566 569.0 0.0
562(13) 0.00607 569.0 0.0
553(12) 0.00672 569.1 0.0
550(12) 0.00668 569.1 0.0
570(13) 0.00618 569.2 0.0
587(13) 0.00567 569.3 0.0
580(13) 0.00610 569.3 0.0
588(13) 0.00619 569.4 0.0
596(13) 0.00618 569.4 0.0
575(13) 0.00605 569.5 0.0
583(13) 0.00563 569.6 0.0
521(12) 0.00685 569.6 0.0
538(12) 0.00692 569.7 0.0
580(13) 0.00626 569.7 0.0
595(13) 0.00572 569.8 0.0
535(12) 0.00642 569.9 0.0
541(12) 0.00640 569.9 0.0
542(12) 0.00682 570.0 0.0
563(13) 0.00627 570.0 0.0
549(13) 0.00603 570.1 0.0
557(13) 0.00603 570.2 0.0
525(12) 0.00675 570.2 0.0
555(12) 0.00669 570.3 0.0
577(13) 0.00605 570.3 0.0
590(13) 0.00569 570.4 0.0
573(13) 0.00592 570.5 0.0
607(13) 0.00577 570.5 0.0
544(12) 0.00682 570.6 0.0
574(13) 0.00586 570.6 0.0
567(13) 0.00582 570.7 0.0
563(13) 0.00623 570.8 0.0
588(13) 0.00613 570.8 0.0
584(13) 0.00633 570.9 0.0
534(12) 0.00647 570.9 0.0
575(13) 0.00576 571.0 0.0
588(13) 0.00580 571.1 0.0
562(12) 0.00643 571.1 0.0
576(13) 0.00637 571.2 0.0
611(13) 0.00551 571.2 0.0
580(13) 0.00574 571.3 0.0
567(13) 0.00620 571.4 0.0
558(12) 0.00660 571.4 0.0
570(12) 0.00643 571.5 0.0
574(13) 0.00608 571.5 0.0
590(14) 0.00548 571.6 0.0
572(13) 0.00601 571.7 0.0
563(12) 0.00658 571.7 0.0
554(12) 0.00664 571.8 0.0
578(13) 0.00619 571.8 0.0
557(13) 0.00577 571.9 0.0
576(13) 0.00599 572.0 0.0
587(13) 0.00619 572.0 0.0
572(12) 0.00651 572.1 0.0
553(13) 0.00621 572.1 0.0
557(13) 0.00561 572.2 0.0
576(13) 0.00592 572.3 0.0
587(13) 0.00634 572.3 0.0
581(13) 0.00631 572.4 0.0
541(12) 0.00649 572.4 0.0
576(13) 0.00553 572.5 0.0
555(13) 0.00629 572.6 0.0
569(12) 0.00657 572.6 0.0
574(13) 0.00639 572.7 0.0
585(13) 0.00593 572.7 0.0
570(13) 0.00584 572.8 0.0
575(13) 0.00588 572.9 0.0
592(13) 0.00626 572.9 0.0
569(13) 0.00626 573.0 0.0
550(13) 0.00617 573.0 0.0
570(13) 0.00585 573.1 0.0
603(13) 0.00557 573.2 0.0
556(12) 0.00672 573.2 0.0
571(13) 0.00628 573.3 0.0
579(13) 0.00574 573.3 0.0
537(13) 0.00635 573.4 0.0
584(13) 0.00606 573.5 0.0
612(13) 0.00606 573.5 0.0
572(13) 0.00613 573.6 0.0
567(13) 0.00604 573.6 0.0
548(13) 0.00625 573.7 0.0
537(12) 0.00673 573.8 0.0
585(13) 0.00636 573.8 0.0
568(13) 0.00617 573.9 0.0
545(13) 0.00627 573.9 0.0
580(13) 0.00594 574.0 0.0
577(13) 0.00629 574.1 0.0
564(12) 0.00663 574.1 0.0
570(13) 0.00611 574.2 0.0
554(13) 0.00602 574.2 0.0
581(13) 0.00593 574.3 0.0
569(12) 0.00649 574.4 0.0
597(13) 0.00617 574.4 0.0
590(13) 0.00580 574.5 0.0
583(13) 0.00573 574.5 0.0
545(12) 0.00651 574.6 0.0
595(13) 0.00613 574.7 0.0
593(13) 0.00628 574.7 0.0
562(13) 0.00614 574.8 0.0
586(14) 0.00546 574.8 0.0
583(13) 0.00597 574.9 0.0
603(13) 0.00615 575.0 0.0
604(13) 0.00617 575.0 0.0
571(13) 0.00631 575.1 0.0
593(13) 0.00554 575.1 0.0
568(13) 0.00600 575.2 0.0
570(12) 0.00650 575.3 0.0
617(13) 0.00587 575.3 0.0
592(13) 0.00593 575.4 0.0
647(14) 0.00506 575.4 0.0
590(13) 0.00596 575.5 0.0
612(13) 0.00608 575.6 0.0
621(13) 0.00592 575.6 0.0
605(13) 0.00577 575.7 0.0
603(14) 0.00548 575.7 0.0
563(13) 0.00614 575.8 0.0
586(13) 0.00626 575.9 0.0
580(13) 0.00619 575.9 0.0
605(13) 0.00566 576.0 0.0
582(13) 0.00584 576.0 0.0
556(12) 0.00645 576.1 0.0
598(13) 0.00622 576.2 0.0
573(13) 0.00616 576.2 0.0
562(13) 0.00603 576.3 0.0
553(13) 0.00610 576.3 0.0
573(13) 0.00612 576.4 0.0
568(12) 0.00651 576.5 0.0
567(13) 0.00605 576.5 0.0
587(13) 0.00583 576.6 0.0
600(13) 0.00576 576.6 0.0
620(13) 0.00586 576.7 0.0
554(12) 0.00669 576.8 0.0
594(13) 0.00580 576.8 0.0
584(13) 0.00585 576.9 0.0
577(13) 0.00598 576.9 0.0
556(13) 0.00634 577.0 0.0
556(12) 0.00673 577.1 0.0
576(13) 0.00594 577.1 0.0
572(13) 0.00584 577.2 0.0
566(13) 0.00606 577.2 0.1
586(13) 0.00610 577.3 0.1
579(12) 0.00645 577.4 0.1
566(13) 0.00611 577.4 0.1
562(13) 0.00572 577.5 0.1
547(13) 0.00631 577.5 0.1
581(13) 0.00638 577.6 0.1
582(13) 0.00640 577.7 0.1
571(13) 0.00614 577.7 0.1
580(13) 0.00558 577.8 0.1
588(13) 0.00597 577.8 0.1
568(12) 0.00645 577.9 0.1
543(12) 0.00682 578.0 0.1
607(13) 0.00553 578.0 0.1
545(13) 0.00606 578.1 0.1
600(13) 0.00565 578.1 0.1
580(12) 0.00647 578.2 0.1
552(12) 0.00662 578.3 0.1
557(13) 0.00606 578.3 0.1
565(13) 0.00568 578.4 0.1
568(13) 0.00622 578.4 0.1
562(12) 0.00661 578.5 0.1
564(12) 0.00650 578.6 0.1
563(13) 0.00634 578.6 0.1
576(13) 0.00584 578.7 0.1
583(13) 0.00608 578.7 0.1
573(12) 0.00644 578.8 0.1
589(13) 0.00617 578.9 0.1
570(13) 0.00614 578.9 0.1
589(13) 0.00586 579.0 0.1
576(13) 0.00602 579.0 0.1
619(13) 0.00600 579.1 0.1
559(12) 0.00646 579.2 0.1
586(13) 0.00592 579.2 0.2
578(13) 0.00588 579.3 0.2
589(13) 0.00600 579.3 0.2
546(12) 0.00683 579.4 0.2
581(13) 0.00604 579.5 0.2
593(13) 0.00577 579.5 0.2
559(13) 0.00621 579.6 0.2
575(13) 0.00617 579.6 0.2
572(12) 0.00650 579.7 0.2
600(13) 0.00578 579.8 0.2
557(13) 0.00596 579.8 0.3
583(13) 0.00585 579.9 0.3
593(13) 0.00600 579.9 0.3
559(12) 0.00668 580.0 0.3
563(13) 0.00598 580.1 0.3
545(13) 0.00606 580.1 0.4
551(13) 0.00616 580.2 0.4
580(13) 0.00619 580.2 0.4
578(12) 0.00642 580.3 0.5
557(13) 0.00624 580.4 0.5
601(13) 0.00554 580.4 0.6
577(13) 0.00614 580.5 0.7
598(13) 0.00612 580.5 0.7
614(13) 0.00603 580.6 0.8
575(13) 0.00611 580.7 0.9
584(13) 0.00564 580.7 1.1
597(13) 0.00578 580.8 1.2
609(13) 0.00603 580.8 1.3
572(12) 0.00654 580.9 1.5
602(13) 0.00575 581.0 1.7
543(13) 0.00599 581.0 1.9
555(13) 0.00615 581.1 2.1
574(13) 0.00640 581.1 2.4
571(13) 0.00638 581.2 2.6
601(13) 0.00577 581.3 2.9
589(13) 0.00559 581.3 3.2
581(13) 0.00593 581.4 3.4
577(13) 0.00639 581.4 3.7
565(12) 0.00643 581.5 3.9
576(13) 0.00589 581.6 4.0
586(13) 0.00566 581.6 4.2
595(13) 0.00578 581.7 4.2
599(13) 0.00620 581.7 4.2
606(13) 0.00609 581.8 4.1
604(13) 0.00563 581.9 4.0
566(13) 0.00591 581.9 3.8
597(13) 0.00559 582.0 3.6
551(12) 0.00672 582.0 3.3
565(13) 0.00637 582.1 3.1
588(13) 0.00579 582.2 2.8
599(13) 0.00559 582.2 2.6
586(13) 0.00595 582.3 2.3
591(13) 0.00630 582.3 2.1
575(13) 0.00629 582.4 1.9
584(13) 0.00574 582.5 1.7
577(13) 0.00576 582.5 1.5
551(12) 0.00660 582.6 1.3
594(13) 0.00619 582.6 1.2
575(13) 0.00608 582.7 1.0
588(13) 0.00573 582.8 0.9
536(12) 0.00646 582.8 0.8
596(13) 0.00609 582.9 0.7
602(13) 0.00615 582.9 0.6
580(13) 0.00589 583.0 0.6
570(13) 0.00602 583.1 0.5
587(13) 0.00584 583.1 0.5
568(12) 0.00645 583.2 0.4
585(13) 0.00632 583.2 0.4
593(13) 0.00569 583.3 0.4
555(13) 0.00597 583.4 0.3
597(13) 0.00569 583.4 0.3
586(13) 0.00614 583.5 0.3
621(13) 0.00594 583.5 0.3
597(13) 0.00564 583.6 0.3
554(13) 0.00594 583.7 0.2
544(12) 0.00643 583.7 0.2
558(12) 0.00653 583.8 0.2
574(12) 0.00652 583.8 0.2
584(13) 0.00601 583.9 0.2
585(13) 0.00549 584.0 0.2
570(13) 0.00614 584.0 0.2
576(12) 0.00643 584.1 0.2
585(13) 0.00632 584.1 0.2
575(13) 0.00606 584.2 0.2
556(13) 0.00584 584.3 0.1
572(13) 0.00587 584.3 0.1
580(12) 0.00646 584.4 0.1
578(12) 0.00641 584.4 0.1
572(13) 0.00602 584.5 0.1
573(13) 0.00581 584.6 0.1
561(13) 0.00617 584.6 0.1
598(13) 0.00617 584.7 0.1
612(13) 0.00589 584.7 0.1
572(13) 0.00621 584.8 0.1
579(13) 0.00569 585.0 0.1
586(13) 0.00574 585.2 0.1
607(13) 0.00611 585.5 0.1
608(13) 0.00592 585.7 0.1
585(13) 0.00595 585.9 0.1
580(13) 0.00574 586.2 0.1
587(13) 0.00586 586.4 0.1
617(13) 0.00603 586.7 0.1
595(13) 0.00601 586.9 0.1
592(13) 0.00588 587.1 0.1
579(13) 0.00600 587.4 0.1
557(12) 0.00643 587.6 0.1
561(12) 0.00669 587.8 0.1
568(13) 0.00610 588.1 0.1
596(13) 0.00567 588.3 0.1
601(13) 0.00579 588.5 0.1
567(13) 0.00630 588.8 0.1
610(13) 0.00611 589.0 0.1
582(13) 0.00605 589.2 0.1
575(13) 0.00585 589.5 0.1
602(13) 0.00572 589.7 0.1
584(13) 0.00628 589.9 0.1
577(12) 0.00640 590.2 0.1
591(13) 0.00566 590.4 0.0
616(14) 0.00539 590.6 0.0
568(13) 0.00627 590.9 0.0
587(13) 0.00629 591.1 0.0
601(13) 0.00619 591.4 0.0
580(13) 0.00596 591.6 0.0
584(13) 0.00560 591.8 0.0
584(13) 0.00607 592.1 0.0
628(13) 0.00583 592.3 0.0
609(13) 0.00603 592.5 0.0
583(13) 0.00583 592.8 6.6
592(14) 0.00519 593.0 6.7
564(13) 0.00621 593.2 6.8
586(13) 0.00630 593.5 6.9
635(13) 0.00570 593.7 7.0
575(13) 0.00609 593.9 7.1
590(14) 0.00540 594.2 7.2
579(13) 0.00591 594.4 7.4
574(12) 0.00645 594.6 7.5
598(13) 0.00622 594.9 7.6
584(13) 0.00599 595.1 7.7
587(14) 0.00542 595.3 7.9
576(13) 0.00589 595.6 8.0
595(13) 0.00626 595.8 8.1
597(13) 0.00608 596.1 8.3
589(13) 0.00601 596.3 8.4
590(13) 0.00567 596.5 8.6
591(13) 0.00591 596.8 8.8
563(12) 0.00660 597.0 8.9
555(13) 0.00639 597.2 9.1
567(13) 0.00599 597.5 9.2
589(13) 0.00573 597.7 9.4
583(13) 0.00603 597.9 9.6
615(13) 0.00605 598.2 9.8
609(13) 0.00585 598.4 10.0
571(13) 0.00603 598.6 10.2
582(13) 0.00590 598.9 10.4
599(13) 0.00583 599.1 10.6
608(13) 0.00605 599.3 10.8
588(13) 0.00604 599.6 11.0
580(13) 0.00597 599.8 11.3
589(13) 0.00587 600.0 11.5
581(13) 0.00603 600.3 11.7
596(13) 0.00626 600.5 12.0
587(13) 0.00581 600.8 12.2
547(13) 0.00615 601.0 12.5
569(13) 0.00600 601.2 12.8
591(13) 0.00609 601.5 13.1
572(12) 0.00648 601.7 13.4
586(13) 0.00589 601.9 13.7
596(14) 0.00547 602.2 14.0
586(13) 0.00595 602.4 14.3
604(13) 0.00609 602.6 14.7
584(12) 0.00643 602.9 15.0
557(12) 0.00642 603.1 15.4
596(13) 0.00550 603.3 15.8
628(14) 0.00546 603.6 16.2
625(13) 0.00591 603.8 16.6
632(13) 0.00584 604.0 17.0
617(13) 0.00568 604.3 17.4
614(14) 0.00522 604.5 17.9
568(13) 0.00620 604.7 18.4
604(13) 0.00601 605.0 18.9
580(12) 0.00642 605.2 19.4
598(13) 0.00576 605.5 19.9
636(14) 0.00499 605.7 20.5
644(14) 0.00533 605.9 21.1
623(13) 0.00590 606.2 21.7
605(13) 0.00604 606.4 22.3
584(13) 0.00601 606.6 23.0
610(14) 0.00535 606.9 23.7
605(13) 0.00575 607.1 24.4
591(13) 0.00627 607.3 25.2
595(13) 0.00618 607.6 26.0
595(13) 0.00594 607.8 26.8
602(13) 0.00556 608.0 27.7
609(13) 0.00573 608.3 28.6
620(13) 0.00601 608.5 29.6
620(13) 0.00586 608.7 30.6
619(13) 0.00569 609.0 31.7
642(14) 0.00522 609.2 32.8
594(13) 0.00577 609.4 34.0
618(13) 0.00597 609.7 35.2
627(13) 0.00569 609.9 36.6
599(13) 0.00592 610.2 38.0
593(13) 0.00589 610.4 39.4
627(13) 0.00570 610.6 41.0
616(13) 0.00603 610.9 42.7
618(13) 0.00569 611.1 44.5
612(14) 0.00545 611.3 46.4
602(13) 0.00575 611.6 48.4
650(13) 0.00553 611.8 50.5
644(13) 0.00573 612.0 52.8
592(13) 0.00595 612.3 55.2
669(14) 0.00503 612.5 57.9
655(14) 0.00531 612.7 60.7
615(13) 0.00579 613.0 63.7
649(13) 0.00570 613.2 66.9
645(14) 0.00534 613.4 70.4
624(14) 0.00545 613.7 74.2
638(13) 0.00553 613.9 78.3
643(13) 0.00563 614.1 82.7
596(13) 0.00624 614.4 87.6
675(14) 0.00503 614.6 92.8
603(14) 0.00547 614.9 98.5
643(14) 0.00540 615.1 104.8
630(13) 0.00586 615.3 111.7
653(13) 0.00572 615.6 119.3
657(14) 0.00519 615.8 127.7
687(15) 0.00472 616.0 137.0
729(14) 0.00481 616.3 147.4
664(13) 0.00556 616.5 158.9
649(13) 0.00576 616.7 171.9
712(14) 0.00491 617.0 186.5
718(15) 0.00447 617.2 203.0
755(15) 0.00441 617.4 221.7
751(14) 0.00493 617.7 243.2
784(15) 0.00463 617.9 267.8
827(15) 0.00427 618.1 296.3
903(17) 0.00362 618.4 329.6
918(16) 0.00378 618.6 369.0
936(16) 0.00396 618.9 416.3
1020(17) 0.00360 619.1 474.5
1163(18) 0.002991 619.3 548.9
1340(20) 0.002417 619.6 648.3
1577(21) 0.002192 619.8 787.6
1941(23) 0.001906 620.0 990.1
2376(25) 0.001540 620.3 1290.1
2988(29) 0.001162 620.5 1732.0
3635(33) 0.000910 620.7 2365.7
4412(36) 0.000776 621. 3237.
5172(38) 0.000711 621. 4370.
5968(41) 0.000602 621. 5748.
7237(46) 0.000476 622. 7292.
8528(51) 0.000387 622. 8827.
9893(54) 0.0003450 622. 10071.
11537(56) 0.0003165 622. 10675.
11918(59) 0.0002911 623. 10423.
10970(58) 0.0003022 623. 9410.
8900(51) 0.000380 623. 7957.
6863(44) 0.000516 623. 6390.
5285(38) 0.000695 624. 4927.
3940(34) 0.000863 623.8 3684.8
3062(30) 0.001098 624.0 2703.6
2490(27) 0.001384 624.3 1974.1
2070(24) 0.001748 624.5 1457.0
1773(22) 0.002083 624.7 1103.0
1526(21) 0.002227 625.0 863.9
1384(20) 0.002438 625.2 701.3
1295(19) 0.002705 625.4 587.3
1130(17) 0.003286 625.7 503.7
1103(17) 0.003366 625.9 439.4
973(17) 0.003487 626.1 387.9
942(17) 0.003485 626.4 345.5
921(16) 0.00372 626.6 309.8
875(15) 0.00420 626.8 279.4
828(15) 0.00448 627.1 253.2
883(16) 0.00386 627.3 230.5
819(16) 0.00399 627.5 210.6
805(15) 0.00435 627.8 193.2
788(14) 0.00477 628.0 177.9
771(14) 0.00476 628.3 164.3
735(15) 0.00470 628.5 152.1
723(15) 0.00429 628.7 141.3
741(15) 0.00459 629.0 131.6
738(14) 0.00506 629.2 122.8
725(14) 0.00502 629.4 114.9
675(14) 0.00525 629.7 107.7
700(15) 0.00454 629.9 101.1
651(14) 0.00533 630.1 95.2
690(14) 0.00536 630.4 89.7
673(13) 0.00555 630.6 84.7
656(14) 0.00538 630.8 80.1
629(14) 0.00517 631.1 75.9
649(14) 0.00527 631.3 72.0
638(13) 0.00577 631.5 68.4
652(13) 0.00565 631.8 65.0
662(14) 0.00522 632.0 61.9
626(14) 0.00545 632.2 59.0
656(14) 0.00527 632.5 56.3
639(13) 0.00580 632.7 53.8
657(14) 0.00542 633.0 51.4
641(13) 0.00551 633.2 49.2
650(14) 0.00531 633.4 47.2
692(14) 0.00507 633.7 45.2
670(13) 0.00553 633.9 43.4
634(13) 0.00573 634.1 41.7
655(14) 0.00524 634.4 40.1
638(14) 0.00529 634.6 38.6
612(13) 0.00556 634.8 37.1
647(13) 0.00569 635.1 35.8
658(14) 0.00536 635.3 34.5
636(14) 0.00534 635.5 33.3
633(13) 0.00549 635.8 32.1
693(14) 0.00509 636.0 31.0
636(13) 0.00587 636.2 30.0
642(14) 0.00535 636.5 29.0
655(14) 0.00493 636.7 28.1
635(14) 0.00532 636.9 27.2
608(13) 0.00575 637.2 26.3
646(13) 0.00576 637.4 25.5
664(14) 0.00518 637.7 24.7
643(14) 0.00512 637.9 24.0
650(14) 0.00531 638.1 23.3
650(13) 0.00555 638.4 22.6
644(13) 0.00576 638.6 21.9
632(14) 0.00545 638.8 21.3
645(14) 0.00521 639.1 20.7
621(13) 0.00576 639.3 20.1
642(13) 0.00575 639.5 19.6
670(13) 0.00550 639.8 19.1
662(14) 0.00533 640.0 18.6
637(14) 0.00521 640.2 18.1
660(14) 0.00528 640.5 17.6
652(13) 0.00565 640.7 17.2
654(13) 0.00561 640.9 16.7
649(14) 0.00518 641.2 16.3
667(14) 0.00479 641.4 15.9
650(14) 0.00521 641.6 15.5
640(13) 0.00586 641.9 15.2
654(14) 0.00548 642.1 14.8
611(13) 0.00570 642.4 14.5
637(14) 0.00511 642.6 14.1
628(14) 0.00548 642.8 13.8
605(13) 0.00616 643.1 13.5
632(13) 0.00571 643.3 13.2
624(13) 0.00562 643.5 12.9
647(14) 0.00514 643.8 12.6
675(14) 0.00498 644.0 12.3
635(13) 0.00589 644.2 12.1
629(13) 0.00577 644.5 11.8
619(14) 0.00534 644.7 11.6
640(14) 0.00510 644.9 11.3
618(13) 0.00566 645.2 11.1
627(13) 0.00594 645.4 10.9
641(13) 0.00550 645.6 10.7
613(13) 0.00558 645.9 10.4
655(14) 0.00522 646.1 10.2
634(13) 0.00553 646.3 10.0
610(13) 0.00605 646.6 9.8
622(13) 0.00574 646.8 9.7
646(14) 0.00524 647.1 9.5
629(14) 0.00540 647.3 9.3
653(14) 0.00544 647.5 9.1
658(13) 0.00560 647.8 9.0
671(14) 0.00509 648.0 8.8
644(14) 0.00533 648.2 8.6
671(14) 0.00513 648.5 8.5
652(13) 0.00559 648.7 8.3
685(14) 0.00538 648.9 8.2
685(14) 0.00495 649.2 8.0
647(14) 0.00506 649.4 7.9
648(14) 0.00522 649.6 7.8
662(13) 0.00557 649.9 7.6
642(13) 0.00581 650.1 7.5
619(13) 0.00553 650.3 7.4
628(14) 0.00512 650.6 7.3
617(13) 0.00558 650.8 7.1
622(13) 0.00585 651.0 7.0
657(13) 0.00565 651.3 6.9
632(14) 0.00536 651.5 6.8
621(14) 0.00517 651.8 6.7
621(13) 0.00556 652.0 0.0
642(13) 0.00571 652.2 0.0
634(13) 0.00582 652.5 0.0
640(14) 0.00522 652.7 0.0
642(14) 0.00501 652.9 0.0
661(14) 0.00524 653.2 0.0
651(13) 0.00568 653.4 0.0
659(13) 0.00552 653.6 0.0
618(13) 0.00551 653.9 0.0
638(14) 0.00503 654.1 0.0
640(13) 0.00549 654.3 0.0
608(13) 0.00609 654.6 0.0
664(13) 0.00552 654.8 0.0
638(14) 0.00546 655.0 0.0
656(14) 0.00505 655.3 0.0
667(14) 0.00516 655.5 0.0
655(13) 0.00565 655.8 0.0
675(14) 0.00533 656.0 0.0
656(14) 0.00529 656.2 0.0
630(14) 0.00547 656.5 0.0
646(14) 0.00539 656.7 0.0
694(14) 0.00535 656.9 0.0
672(14) 0.00535 657.2 0.0
651(14) 0.00524 657.4 0.0
633(14) 0.00538 657.6 0.0
644(14) 0.00527 657.9 0.0
656(13) 0.00565 658.1 0.0
634(14) 0.00541 658.3 0.0
647(14) 0.00532 658.6 0.0
638(14) 0.00540 658.8 0.0
638(13) 0.00553 659.0 0.0
676(13) 0.00549 659.3 0.0
638(13) 0.00553 659.5 0.0
651(14) 0.00528 659.7 0.0
667(14) 0.00522 660.0 0.0
677(14) 0.00531 660.2 0.0
688(14) 0.00540 660.5 0.0
647(14) 0.00542 660.7 0.0
670(14) 0.00505 660.9 0.0
698(14) 0.00499 661.2 0.0
670(14) 0.00548 661.4 0.0
664(13) 0.00561 661.6 0.0
674(14) 0.00505 661.9 0.0
701(15) 0.00472 662.1 0.0
657(14) 0.00534 662.3 0.0
641(13) 0.00576 662.6 0.0
649(13) 0.00568 662.8 0.0
657(14) 0.00528 663.0 0.0
649(14) 0.00499 663.3 0.0
661(14) 0.00527 663.5 0.0
673(14) 0.00546 663.7 0.0
667(13) 0.00561 664.0 0.0
654(14) 0.00528 664.2 0.0
649(14) 0.00503 664.4 0.0
698(14) 0.00484 664.7 0.0
676(14) 0.00545 664.9 0.0
648(13) 0.00563 665.2 0.0
642(14) 0.00534 665.4 0.0
673(14) 0.00486 665.6 0.0
684(14) 0.00510 665.9 0.0
655(13) 0.00558 666.1 0.0
654(13) 0.00564 666.3 0.0
698(14) 0.00492 666.6 0.0
680(14) 0.00481 666.8 0.0
700(14) 0.00476 667.0 0.0
640(13) 0.00580 667.3 0.0
697(14) 0.00522 667.5 0.0
650(14) 0.00545 667.7 0.0
667(14) 0.00506 668.0 0.0
679(14) 0.00502 668.2 0.0
656(13) 0.00562 668.4 0.0
680(14) 0.00529 668.7 0.0
736(15) 0.00460 668.9 0.0
684(14) 0.00495 669.1 0.0
666(14) 0.00524 669.4 0.0
657(13) 0.00567 669.6 0.0
685(14) 0.00515 669.9 0.0
671(14) 0.00521 670.3 0.0
717(14) 0.00485 670.8 0.0
711(14) 0.00499 671.4 0.0
692(14) 0.00539 672.0 0.0
658(14) 0.00542 672.5 0.0
666(14) 0.00504 673.1 0.0
672(14) 0.00515 673.7 0.0
691(14) 0.00525 674.2 0.0
737(14) 0.00501 674.8 0.0
718(15) 0.00472 675.4 0.0
673(14) 0.00501 675.9 0.0
675(14) 0.00505 676.5 0.0
650(13) 0.00557 677.1 0.0
628(13) 0.00587 677.6 0.0
710(15) 0.00469 678.2 0.0
663(14) 0.00499 678.8 0.0
656(14) 0.00528 679.3 0.0
723(14) 0.00501 679.9 0.0
695(14) 0.00531 680.5 0.0
653(14) 0.00541 681.0 0.0
687(15) 0.00472 681.6 0.0
703(14) 0.00486 682.2 0.0
669(13) 0.00549 682.7 0.0
654(13) 0.00559 683.3 0.0
669(14) 0.00514 683.9 0.0
671(14) 0.00481 684.4 0.0
692(14) 0.00497 685.0 0.0
696(14) 0.00531 685.6 0.0
715(14) 0.00516 686.1 0.0
641(14) 0.00540 686.7 0.0
710(15) 0.00445 687.3 0.0
660(14) 0.00530 687.8 0.0
687(14) 0.00531 688.4 0.0
701(14) 0.00516 689.0 0.0
706(14) 0.00483 689.6 0.0
690(14) 0.00489 690.1 0.0
687(14) 0.00482 690.7 0.0
703(14) 0.00529 691.3 0.0
648(13) 0.00552 691.8 0.0
664(14) 0.00526 692.4 0.0
674(14) 0.00492 693.0 0.0
690(14) 0.00490 693.5 0.0
685(14) 0.00541 694.1 0.0
708(14) 0.00491 694.7 0.0
679(14) 0.00506 695.2 0.0
688(15) 0.00476 695.8 0.0
697(14) 0.00498 696.4 0.0
717(14) 0.00513 696.9 9.3
709(14) 0.00492 697.5 9.4
642(14) 0.00548 698.1 9.5
690(15) 0.00469 698.6 9.6
700(14) 0.00492 699.2 9.7
712(14) 0.00511 699.8 9.8
682(14) 0.00513 700.3 9.9
665(14) 0.00499 700.9 10.0
656(14) 0.00519 701.5 10.2
689(14) 0.00517 702.0 10.3
707(14) 0.00517 702.6 10.4
683(14) 0.00503 703.2 10.5
726(15) 0.00453 703.7 10.7
737(15) 0.00462 704.3 10.8
692(14) 0.00515 704.9 10.9
708(14) 0.00522 705.4 11.1
725(15) 0.00475 706.0 11.2
729(15) 0.00446 706.6 11.3
709(14) 0.00490 707.1 11.5
686(14) 0.00520 707.7 11.6
723(14) 0.00517 708.3 11.8
691(14) 0.00481 708.9 11.9
669(14) 0.00477 709.4 12.1
673(14) 0.00510 710.0 12.3
717(14) 0.00511 710.6 12.9
707(14) 0.00529 711.1 13.1
714(14) 0.00495 711.7 13.2
706(15) 0.00462 712.3 13.4
677(14) 0.00516 712.8 13.6
678(14) 0.00544 713.4 13.8
726(14) 0.00510 714.0 14.0
704(14) 0.00506 714.5 14.2
717(15) 0.00455 715.1 14.4
709(14) 0.00490 715.7 14.6
716(14) 0.00516 716.2 14.8
687(14) 0.00528 716.8 15.0
693(14) 0.00512 717.4 15.2
702(15) 0.00460 717.9 15.4
725(15) 0.00460 718.5 15.7
707(14) 0.00520 719.1 15.9
707(14) 0.00523 719.6 16.1
727(15) 0.00469 720.2 16.4
710(15) 0.00473 720.8 16.6
714(14) 0.00486 721.3 16.9
709(14) 0.00519 721.9 17.1
689(14) 0.00528 722.5 17.4
704(14) 0.00485 723.0 17.7
717(15) 0.00467 723.6 18.0
729(14) 0.00481 724.2 18.2
748(14) 0.00496 724.7 18.5
673(14) 0.00532 725.3 18.8
730(15) 0.00457 725.9 19.1
769(15) 0.00439 726.4 19.5
735(14) 0.00479 727.0 19.8
741(14) 0.00503 727.6 20.1
738(15) 0.00469 728.1 20.5
716(14) 0.00483 728.7 20.8
752(15) 0.00453 729.3 21.2
720(14) 0.00494 729.9 21.5
739(14) 0.00503 730.4 21.9
727(14) 0.00483 731.0 22.3
759(15) 0.00446 731.6 22.7
742(14) 0.00477 732.1 23.1
721(14) 0.00498 732.7 23.5
746(14) 0.00497 733.3 23.9
738(15) 0.00468 733.8 24.4
720(15) 0.00458 734.4 24.8
736(15) 0.00475 735.0 25.3
742(14) 0.00492 735.5 25.8
755(14) 0.00493 736.1 26.3
713(14) 0.00487 736.7 26.8
718(15) 0.00466 737.2 27.3
748(15) 0.00456 737.8 27.8
706(14) 0.00515 738.4 28.4
732(14) 0.00506 738.9 28.9
754(15) 0.00461 739.5 29.5
767(16) 0.00414 740.1 30.1
766(15) 0.00455 740.6 30.8
729(14) 0.00515 741.2 31.4
735(14) 0.00496 741.8 32.1
754(15) 0.00464 742.3 32.7
757(15) 0.00426 742.9 33.4
736(15) 0.00468 743.5 34.2
746(14) 0.00495 744.0 34.9
704(14) 0.00528 744.6 35.7
701(14) 0.00498 745.2 36.5
730(15) 0.00445 745.7 37.4
752(15) 0.00457 746.3 38.2
743(14) 0.00502 746.9 39.1
750(14) 0.00486 747.4 40.0
756(15) 0.00451 748.0 41.0
777(15) 0.00427 748.6 42.0
788(15) 0.00434 749.2 43.0
771(14) 0.00480 749.7 44.1
730(14) 0.00505 750.3 45.2
742(15) 0.00471 750.9 46.3
772(15) 0.00437 751.4 47.5
788(15) 0.00436 752.0 48.8
796(15) 0.00470 752.6 50.1
780(15) 0.00454 753.1 51.4
770(15) 0.00444 753.7 52.8
774(15) 0.00445 754.3 54.3
790(15) 0.00450 754.8 55.8
827(15) 0.00451 755.4 57.4
750(15) 0.00472 756.0 59.1
768(15) 0.00435 756.5 60.8
776(15) 0.00440 757.1 62.6
770(15) 0.00460 757.7 64.5
779(15) 0.00476 758.2 66.5
783(15) 0.00447 758.8 68.6
767(15) 0.00439 759.4 70.7
821(16) 0.00407 759.9 73.0
806(15) 0.00443 760.5 75.4
781(14) 0.00476 761.1 77.9
822(15) 0.00419 761.6 80.6
844(16) 0.00379 762.2 83.4
779(15) 0.00444 762.8 86.3
828(15) 0.00430 763.3 89.4
818(15) 0.00451 763.9 92.7
808(15) 0.00419 764.5 96.2
805(16) 0.00405 765.0 99.8
785(15) 0.00445 765.6 103.7
826(15) 0.00444 766.2 107.9
810(15) 0.00460 766.7 112.2
843(16) 0.00413 767.3 116.9
791(15) 0.00423 767.9 121.9
848(16) 0.00411 768.5 127.3
831(15) 0.00443 769.0 133.0
798(15) 0.00461 769.6 139.1
853(16) 0.00412 770.2 145.7
874(17) 0.00362 770.7 152.8
850(16) 0.00414 771.3 160.5
867(15) 0.00425 771.9 168.8
907(16) 0.00407 772.4 177.9
919(16) 0.00382 773.0 187.9
953(17) 0.003426 773.6 198.9
973(17) 0.00358 774.1 211.1
978(16) 0.00375 774.7 224.9
898(15) 0.00417 775.3 241.0
1018(17) 0.003380 775.8 260.1
1012(17) 0.003273 776.4 283.6
1071(18) 0.003193 777.0 313.3
1138(17) 0.003278 777.5 351.8
1123(18) 0.003249 778.1 401.9
1247(19) 0.002747 778.7 466.3
1318(20) 0.002529 779.2 547.0
1399(20) 0.002440 779.8 644.6
1427(20) 0.002585 780.4 756.8
1593(21) 0.002260 780.9 877.6
1674(22) 0.002062 781.5 996.0
1725(22) 0.001992 782.1 1095.6
1871(23) 0.001861 782.6 1158.8
2004(23) 0.001853 783.2 1176.7
1976(24) 0.001793 783.8 1156.6
1893(23) 0.001814 784.3 1117.0
1771(23) 0.001954 784.9 1077.4
1719(22) 0.002053 785.5 1052.7
1652(21) 0.002243 786.0 1053.6
1717(22) 0.002041 786.6 1088.0
1857(24) 0.001807 787.2 1162.7
1909(23) 0.001827 787.7 1284.8
2181(25) 0.001636 788.3 1462.8
2385(25) 0.001553 788.9 1707.2
2829(29) 0.001214 789.5 2030.8
3232(31) 0.001030 790.0 2448.3
3743(33) 0.000916 790.6 2973.9
4627(36) 0.000772 791. 3620.
5423(38) 0.000678 792. 4396.
6375(43) 0.000543 792. 5299.
7533(48) 0.000435 793. 6320.
8534(50) 0.000400 793. 7430.
9762(52) 0.000367 794. 8580.
11003(55) 0.0003320 795. 9690.
11914(59) 0.0002882 795. 10651.
12663(63) 0.0002546 796. 11333.
12863(62) 0.0002643 796. 11619.
12360(58) 0.0002926 797. 11455.
11692(57) 0.0003103 797. 10871.
10492(55) 0.0003259 798. 9972.
9437(55) 0.0003329 799. 8889.
8214(49) 0.000424 799. 7739.
7091(44) 0.000520 800. 6609.
6263(41) 0.000583 800. 5556.
5451(40) 0.000633 801. 4615.
4870(39) 0.000664 801. 3800.
4168(35) 0.000840 801.9 3113.2
3631(31) 0.001022 802.5 2548.7
3278(30) 0.001100 803.1 2094.0
2808(28) 0.001234 803.6 1734.0
2604(28) 0.001261 804.2 1452.0
2323(26) 0.001493 804.8 1232.4
2119(24) 0.001757 805.3 1061.2
2004(23) 0.001828 805.9 926.9
1845(23) 0.001889 806.5 820.0
1749(23) 0.001909 807.0 733.5
1665(22) 0.002112 807.6 662.2
1638(21) 0.002262 808.2 602.3
1451(20) 0.002490 808.8 551.0
1386(20) 0.002515 809.3 506.5
1388(20) 0.002386 809.9 467.4
1303(19) 0.002727 810.5 432.8
1304(19) 0.002862 811.0 402.0
1261(19) 0.002794 811.6 374.3
1201(19) 0.002871 812.2 349.4
1182(19) 0.002866 812.7 326.9
1115(18) 0.003189 813.3 306.4
1075(17) 0.003448 813.9 287.8
1048(17) 0.003365 814.4 270.8
1090(18) 0.003137 815.0 255.3
1092(18) 0.003096 815.6 241.0
1070(17) 0.003363 816.1 227.9
1022(17) 0.00362 816.7 215.8
989(17) 0.003439 817.3 204.7
1054(18) 0.003076 817.8 194.3
1006(17) 0.003348 818.4 184.8
1002(17) 0.00355 819.0 175.9
960(16) 0.00387 819.5 167.6
977(17) 0.00357 820.1 160.0
948(17) 0.00354 820.7 152.8
934(16) 0.00373 821.2 146.1
931(16) 0.00393 821.8 139.8
928(16) 0.00400 822.4 133.9
971(17) 0.00353 822.9 128.4
913(17) 0.00367 823.5 123.2
927(16) 0.00376 824.1 118.3
911(16) 0.00397 824.6 113.7
880(15) 0.00417 825.2 109.4
889(16) 0.00401 825.8 105.3
919(17) 0.00362 826.3 101.4
923(16) 0.00381 826.9 97.7
931(16) 0.00394 827.5 94.3
921(16) 0.00400 828.0 91.0
927(16) 0.00373 828.6 87.9
889(17) 0.00358 829.2 84.9
847(16) 0.00412 829.8 82.1
893(16) 0.00415 830.3 79.4
928(16) 0.00395 830.9 76.9
922(16) 0.00376 831.5 74.4
886(16) 0.00371 832.0 72.1
883(16) 0.00390 832.6 69.9
896(16) 0.00414 833.2 67.8
850(15) 0.00430 833.7 65.8
895(16) 0.00376 834.3 63.9
854(16) 0.00390 834.9 62.0
862(16) 0.00401 835.4 60.3
834(15) 0.00442 836.0 58.6
890(16) 0.00402 836.6 56.9
843(16) 0.00409 837.1 55.4
841(16) 0.00393 837.7 53.9
878(16) 0.00403 838.3 52.5
902(16) 0.00413 838.8 51.1
886(16) 0.00404 839.4 49.8
860(16) 0.00395 840.0 48.5
856(16) 0.00395 840.5 47.3
849(16) 0.00415 841.1 46.1
865(15) 0.00429 841.7 45.0
857(16) 0.00409 842.2 43.9
893(16) 0.00380 842.8 42.8
843(16) 0.00409 843.4 41.8
832(15) 0.00427 843.9 40.8
845(15) 0.00438 844.5 39.9
834(16) 0.00412 845.1 38.9
845(16) 0.00395 845.6 39.4
841(16) 0.00410 846.2 38.6
891(16) 0.00400 846.8 37.8
897(15) 0.00417 847.3 37.0
895(16) 0.00392 847.9 36.3
870(16) 0.00381 848.5 35.5
840(16) 0.00410 849.1 34.9
862(15) 0.00431 849.6 34.2
880(15) 0.00423 850.2 33.6
870(16) 0.00401 850.8 32.9
839(16) 0.00397 851.3 32.4
853(16) 0.00403 851.9 31.8
845(15) 0.00439 852.5 31.2
843(15) 0.00437 853.0 30.7
874(16) 0.00400 853.6 30.2
853(16) 0.00389 854.2 29.7
884(16) 0.00394 854.7 29.2
866(15) 0.00426 855.3 28.8
865(15) 0.00426 855.9 28.3
865(16) 0.00406 856.4 27.9
861(17) 0.00367 857.0 27.5
860(16) 0.00408 857.6 27.1
863(15) 0.00435 858.1 26.7
875(15) 0.00419 858.7 26.4
865(16) 0.00412 859.3 26.0
866(16) 0.00378 859.8 25.7
811(15) 0.00428 860.4 25.4
871(15) 0.00427 861.0 25.1
864(15) 0.00423 861.5 24.8
855(16) 0.00411 862.1 24.5
857(16) 0.00394 862.7 24.3
868(16) 0.00402 863.3 24.0
925(16) 0.00398 863.9 23.8
871(16) 0.00412 864.6 23.6
834(16) 0.00411 865.2 23.4
841(16) 0.00401 865.8 23.2
878(16) 0.00388 866.4 23.1
885(15) 0.00421 867.0 23.0
851(15) 0.00421 867.6 22.8
851(16) 0.00411 868.2 22.7
859(16) 0.00404 868.9 22.7
937(16) 0.00370 869.5 22.6
906(16) 0.00408 870.1 22.6
895(16) 0.00396 870.7 22.5
851(16) 0.00402 871.3 22.6
860(16) 0.00396 871.9 22.6
865(16) 0.00408 872.6 22.7
919(16) 0.00406 873.2 22.8
892(16) 0.00395 873.8 22.9
875(16) 0.00383 874.4 23.0
875(16) 0.00401 875.0 23.3
903(16) 0.00396 875.6 23.5
926(16) 0.00401 876.2 23.8
885(16) 0.00390 876.9 24.2
853(16) 0.00387 877.5 24.6
855(16) 0.00400 878.1 25.0
898(16) 0.00410 878.7 25.6
887(16) 0.00415 879.3 26.2
898(16) 0.00378 879.9 27.0
860(16) 0.00396 880.5 27.8
876(16) 0.00402 881.2 28.8
909(16) 0.00397 881.8 30.0
871(15) 0.00430 882.4 31.3
863(16) 0.00404 883.0 32.8
892(16) 0.00370 883.6 34.6
931(17) 0.00364 884.2 36.6
912(16) 0.00402 884.8 39.1
929(16) 0.00401 885.5 42.0
909(16) 0.00386 886.1 45.4
880(16) 0.00374 886.7 49.5
983(17) 0.00354 887.3 54.5
984(16) 0.00376 887.9 60.6
981(16) 0.00375 888.5 68.2
985(17) 0.00351 889.2 78.4
1009(18) 0.003237 889.8 93.0
1073(18) 0.003244 890.4 116.1
1171(18) 0.003135 891.0 156.4
1243(18) 0.002955 891.6 229.4
1446(20) 0.002425 892.2 357.9
1658(23) 0.001963 892.8 569.5
1826(23) 0.001868 893.5 884.5
2085(24) 0.001763 894.1 1299.3
2305(25) 0.001575 894.7 1770.1
2658(28) 0.001306 895.3 2201.2
3113(31) 0.001067 895.9 2454.1
3505(32) 0.000971 896.5 2415.6
3587(31) 0.001033 897.1 2104.8
2743(28) 0.001282 897.8 1651.7
1958(24) 0.001749 898.4 1187.8
1545(21) 0.002221 899.0 795.2
1336(20) 0.002627 899.6 497.3
1185(18) 0.003130 900.2 308.7
1078(17) 0.003314 900.8 196.3
1064(18) 0.003154 901.4 133.2
1000(17) 0.003392 902.1 98.1
999(17) 0.00355 902.7 77.5
961(16) 0.00388 903.3 64.2
940(16) 0.00381 903.9 54.6
970(17) 0.003477 904.5 47.3
943(17) 0.00365 905.1 41.3
924(16) 0.00387 905.8 36.4
917(16) 0.00405 906.4 32.4
947(17) 0.00362 907.0 28.9
910(16) 0.00371 907.6 26.0
925(16) 0.00373 908.2 23.5
949(16) 0.00377 908.8 21.4
899(16) 0.00413 909.4 19.5
937(17) 0.00363 910.1 17.8
923(17) 0.00355 910.7 16.4
872(16) 0.00407 911.3 15.1
934(16) 0.00389 911.9 14.0
980(16) 0.00379 912.5 13.0
905(16) 0.00380 913.1 12.1
929(17) 0.00352 913.7 11.2
918(16) 0.00377 914.4 10.5
971(16) 0.00378 915.0 9.8
954(16) 0.00393 915.6 9.2
933(16) 0.00370 916.2 8.7
902(17) 0.00363 916.8 8.2
890(16) 0.00388 917.4 7.7
908(16) 0.00407 918.1 7.3
883(15) 0.00418 918.7 6.9
878(16) 0.00394 919.3 6.5
882(17) 0.00367 919.9 6.2
891(16) 0.00388 920.5 5.9
894(15) 0.00417 921.1 5.6
950(16) 0.00389 921.7 5.4
983(17) 0.003458 922.4 5.1
909(16) 0.00368 923.0 4.9
918(16) 0.00378 923.6 4.7
900(16) 0.00413 924.2 4.5
926(16) 0.00392 924.8 4.3
882(16) 0.00399 925.4 4.1
917(17) 0.00365 926.0 5.2
921(16) 0.00376 926.7 5.1
912(16) 0.00406 927.3 5.0
922(16) 0.00386 927.9 4.8
921(16) 0.00379 928.5 4.7
947(17) 0.00363 929.1 4.6
936(16) 0.00374 929.7 4.5
890(15) 0.00417 930.3 4.4
931(16) 0.00388 931.0 4.3
941(16) 0.00371 931.6 4.2
967(17) 0.00356 932.2 4.1
949(17) 0.00366 932.8 4.1
878(15) 0.00424 933.4 4.0
899(16) 0.00391 934.0 3.9
892(16) 0.00383 934.7 3.9
914(16) 0.00372 935.3 3.8
900(16) 0.00396 935.9 3.7
928(16) 0.00400 936.5 3.7
946(17) 0.00363 937.1 3.6
948(17) 0.00360 937.7 3.6
962(17) 0.00359 938.3 3.6
944(16) 0.00384 939.0 3.5
964(16) 0.00387 939.6 3.5
955(17) 0.00360 940.2 3.4
918(17) 0.00363 940.8 3.4
898(16) 0.00390 941.4 3.4
916(16) 0.00401 942.0 3.3
931(16) 0.00399 942.6 3.3
975(17) 0.00351 943.3 3.3
929(17) 0.00357 943.9 3.3
919(16) 0.00382 944.5 3.2
944(16) 0.00383 945.1 3.2
925(16) 0.00402 945.7 3.2
937(16) 0.00369 946.3 3.2
905(17) 0.00357 947.0 3.2
968(17) 0.00353 947.6 1.8
953(16) 0.00389 948.2 1.8
963(16) 0.00385 948.8 1.9
910(16) 0.00391 949.4 1.9
951(17) 0.003342 950.0 1.9
905(16) 0.00384 950.6 1.9
955(16) 0.00384 951.3 1.9
969(16) 0.00381 951.9 2.0
969(17) 0.00363 952.5 2.0
971(17) 0.003496 953.1 2.0
958(17) 0.00361 953.7 2.0
953(16) 0.00387 954.3 2.0
955(16) 0.00384 954.9 2.1
931(16) 0.00378 955.6 2.1
916(16) 0.00368 956.2 2.1
953(17) 0.00355 956.8 2.1
953(16) 0.00389 957.4 2.2
958(16) 0.00378 958.0 2.2
970(17) 0.00353 958.6 2.2
954(17) 0.00351 959.2 2.2
929(16) 0.00375 959.9 2.3
964(16) 0.00388 960.5 2.3
950(16) 0.00373 961.1 2.3
954(17) 0.00358 961.7 2.3
943(17) 0.00358 962.3 2.4
984(17) 0.00354 962.9 2.4
989(16) 0.00376 963.6 2.4
956(16) 0.00372 964.2 2.4
924(16) 0.00374 964.8 2.5
947(17) 0.00365 965.4 2.5
987(17) 0.00354 966.0 2.5
922(16) 0.00405 966.6 2.6
969(17) 0.003490 967.2 2.6
963(17) 0.00351 967.8 2.6
1000(17) 0.003486 968.4 2.7
961(16) 0.00377 969.1 2.7
933(16) 0.00396 969.7 2.7
993(17) 0.003448 970.3 2.8
974(17) 0.003414 970.9 2.8
928(16) 0.00372 971.5 2.8
958(16) 0.00376 972.1 2.9
988(16) 0.00377 972.7 2.9
958(17) 0.00364 973.3 2.9
950(17) 0.003403 973.9 3.0
964(17) 0.00354 974.6 3.0
937(16) 0.00393 975.2 3.0
953(16) 0.00389 975.8 3.1
953(17) 0.00361 976.4 3.1
978(17) 0.003283 977.0 3.2
1005(17) 0.003416 977.6 3.2
972(16) 0.00380 978.2 3.3
1016(17) 0.00363 978.8 3.3
981(17) 0.00356 979.4 3.3
959(17) 0.003380 980.1 3.4
995(17) 0.003441 980.7 3.4
989(16) 0.00372 981.3 3.5
951(16) 0.00390 981.9 3.5
966(17) 0.00366 982.5 3.6
969(17) 0.003359 983.1 3.6
985(17) 0.003484 983.7 3.7
963(16) 0.00389 984.3 3.7
1000(17) 0.00366 984.9 3.8
983(17) 0.00358 985.6 3.8
1015(18) 0.003223 986.2 3.9
985(17) 0.00355 986.8 4.0
946(16) 0.00393 987.4 4.0
1010(17) 0.00358 988.0 4.1
983(17) 0.00357 988.6 4.1
987(17) 0.003387 989.2 4.2
1015(17) 0.003387 989.8 4.3
964(16) 0.00385 990.5 4.3
1000(17) 0.00358 991.1 4.4
1016(17) 0.003326 991.7 4.5
977(17) 0.003505 992.3 4.6
971(17) 0.00363 992.9 4.6
935(16) 0.00398 993.5 4.7
973(17) 0.00365 994.1 4.8
1031(17) 0.003270 994.7 4.9
1033(17) 0.003315 995.3 4.9
989(17) 0.00352 996.0 5.0
1015(17) 0.00366 996.6 5.1
1009(17) 0.003481 997.2 5.2
1009(17) 0.003355 997.8 5.3
1035(17) 0.003336 998.4 5.4
991(17) 0.00360 999.0 5.5
1071(17) 0.003454 999.6 5.6
972(17) 0.00351 1000.2 5.7
964(17) 0.003478 1000.8 5.8
1035(17) 0.003308 1001.5 5.9
997(17) 0.00362 1002.1 6.0
1022(17) 0.00361 1002.7 6.1
1021(17) 0.003368 1003.3 6.2
980(17) 0.003392 1003.9 6.3
1002(17) 0.003428 1004.5 6.4
1008(17) 0.00361 1005.1 6.6
982(16) 0.00380 1005.7 6.7
986(17) 0.00356 1006.3 6.8
1002(17) 0.003368 1007.0 7.0
1042(17) 0.003349 1007.6 7.1
1005(16) 0.00369 1008.2 7.2
1014(17) 0.00367 1008.8 7.4
1000(17) 0.00353 1009.4 7.5
1020(18) 0.003153 1010.0 7.7
994(17) 0.003498 1010.6 7.8
1007(16) 0.00369 1011.2 8.0
972(16) 0.00382 1011.8 8.2
978(17) 0.00364 1012.5 8.4
1019(18) 0.003214 1013.1 8.5
1000(17) 0.003490 1013.7 8.7
1017(16) 0.00368 1014.3 8.9
996(17) 0.00367 1014.9 9.1
1011(17) 0.003424 1015.5 9.3
1013(18) 0.003207 1016.1 9.6
1020(17) 0.003363 1016.7 9.8
1009(16) 0.00368 1017.3 10.0
1004(17) 0.00361 1018.0 10.3
975(17) 0.00363 1018.6 10.5
1062(18) 0.003155 1019.2 10.8
1081(18) 0.003135 1019.8 11.0
1038(17) 0.00359 1020.4 11.3
1003(17) 0.00359 1021.0 11.6
1027(17) 0.003399 1021.6 11.9
1012(17) 0.003458 1022.2 12.2
1081(18) 0.003249 1022.8 12.5
1071(17) 0.003467 1023.5 12.9
1018(17) 0.00351 1024.1 13.2
1023(17) 0.003382 1024.7 13.6
997(17) 0.003364 1025.3 14.0
997(17) 0.00357 1025.9 14.3
1038(17) 0.00358 1026.5 14.8
1084(18) 0.003238 1027.1 15.2
1101(18) 0.003024 1027.7 15.6
1052(17) 0.003280 1028.3 16.1
1063(17) 0.003332 1029.0 16.6
1038(17) 0.00359 1029.6 17.1
1053(17) 0.003299 1030.2 17.6
1064(18) 0.003134 1030.8 18.2
1070(18) 0.003263 1031.4 18.8
1048(17) 0.003505 1032.0 19.4
1056(17) 0.00352 1032.6 20.1
1014(17) 0.003343 1033.2 20.8
1029(18) 0.003169 1033.8 21.5
1062(18) 0.003237 1034.5 22.2
1035(17) 0.00353 1035.1 23.0
1023(17) 0.00361 1035.7 23.9
1052(18) 0.003247 1036.3 24.7
1066(18) 0.003042 1036.9 25.7
1068(18) 0.003186 1037.5 26.7
1067(17) 0.003452 1038.1 27.7
1080(17) 0.003437 1038.7 28.8
1072(18) 0.003234 1039.3 30.0
1072(18) 0.003014 1040.0 31.2
1116(18) 0.003123 1040.6 32.6
1057(17) 0.003483 1041.2 34.0
1034(17) 0.00359 1041.8 35.5
1026(17) 0.003407 1042.4 37.1
1060(18) 0.003006 1043.0 38.8
1079(18) 0.003259 1043.6 40.7
1069(17) 0.003486 1044.2 42.6
1075(17) 0.003390 1044.8 44.8
1088(18) 0.003263 1045.5 47.0
1081(18) 0.003065 1046.1 49.5
1094(18) 0.003170 1046.7 52.1
1085(17) 0.003446 1047.3 55.0
1039(17) 0.00354 1047.9 58.1
1071(17) 0.003289 1048.5 61.5
1114(18) 0.002953 1049.1 65.1
1103(18) 0.003107 1049.7 69.1
1107(17) 0.003339 1050.4 73.5
1125(18) 0.003211 1051.0 78.3
1089(18) 0.003161 1051.6 83.6
1108(18) 0.003017 1052.2 89.5
1110(18) 0.003192 1052.8 95.9
1166(18) 0.003172 1053.4 103.2
1137(18) 0.003127 1054.0 111.4
1139(18) 0.003026 1054.6 120.7
1175(19) 0.002912 1055.2 131.4
1187(18) 0.002952 1055.9 143.9
1170(18) 0.003168 1056.5 158.6
1246(19) 0.002853 1057.1 176.3
1251(19) 0.002729 1057.7 197.7
1268(19) 0.002701 1058.3 223.8
1269(19) 0.002799 1058.9 256.0
1345(19) 0.002762 1059.5 295.6
1361(20) 0.002556 1060.1 344.4
1416(20) 0.002394 1060.7 404.1
1499(21) 0.002294 1061.4 476.5
1640(21) 0.002185 1062.0 563.4
1688(21) 0.002198 1062.6 666.0
1809(23) 0.001927 1063.2 785.3
1964(24) 0.001676 1063.8 921.2
2095(25) 0.001638 1064.4 1072.7
2338(25) 0.001540 1065.0 1237.2
2466(26) 0.001500 1065.6 1410.1
2686(28) 0.001289 1066.2 1583.8
2873(30) 0.001128 1066.9 1747.6
2950(29) 0.001197 1067.5 1887.5
3071(29) 0.001174 1068.1 1988.1
3123(29) 0.001181 1068.7 2035.7
3071(30) 0.001120 1069.3 2023.2
2988(30) 0.001080 1069.9 1952.5
2766(28) 0.001261 1070.5 1833.9
2616(27) 0.001392 1071.1 1682.3
2513(26) 0.001472 1071.7 1512.9
2357(26) 0.001472 1072.4 1338.4
2128(26) 0.001526 1073.0 1168.3
2036(24) 0.001693 1073.6 1008.7
1830(22) 0.002010 1074.2 863.3
1787(22) 0.002052 1074.8 734.2
1709(22) 0.001987 1075.4 621.8
1637(23) 0.001956 1076.0 525.9
1545(21) 0.002221 1076.6 445.1
1491(20) 0.002501 1077.2 378.1
1428(20) 0.002543 1077.9 323.1
1440(20) 0.002399 1078.5 278.3
1370(20) 0.002396 1079.1 242.0
1318(20) 0.002589 1079.7 212.5
1309(19) 0.002834 1080.3 188.4
1227(19) 0.002919 1080.9 168.7
1287(19) 0.002676 1081.5 152.3
1315(20) 0.002510 1082.1 138.5
1265(19) 0.002703 1082.7 126.8
1220(18) 0.003029 1083.4 116.7
1253(19) 0.002848 1084.0 107.9
1227(19) 0.002860 1084.6 100.1
1223(19) 0.002773 1085.2 93.2
1181(18) 0.002996 1085.8 87.0
1162(18) 0.003171 1086.4 81.4
1195(18) 0.002966 1087.0 76.4
1215(19) 0.002779 1087.6 71.8
1152(18) 0.002954 1088.2 67.5
1129(18) 0.003143 1088.9 63.7
1180(18) 0.003139 1089.5 60.2
1154(18) 0.002979 1090.1 56.9
1159(19) 0.002847 1090.7 53.9
1153(18) 0.003025 1091.3 51.1
1160(18) 0.003144 1091.9 48.6
1185(18) 0.003129 1092.5 46.2
1165(18) 0.002968 1093.1 44.0
1127(18) 0.003000 1093.7 41.9
1171(18) 0.002948 1094.4 40.0
1119(18) 0.003201 1095.0 38.2
1116(17) 0.003348 1095.6 36.6
1129(18) 0.003048 1096.2 35.0
1105(18) 0.003003 1096.8 33.5
1176(19) 0.002909 1097.4 32.2
1073(17) 0.003441 1098.0 30.9
1097(17) 0.003393 1098.6 29.6
1141(18) 0.003067 1099.2 28.5
1144(19) 0.002828 1099.9 27.4
1178(18) 0.002938 1100.5 26.4
1151(18) 0.003166 1101.1 25.4
1129(18) 0.003264 1101.7 24.5
1110(18) 0.003124 1102.3 23.7
1139(19) 0.002784 1102.9 22.8
1156(18) 0.003022 1103.5 22.1
1112(17) 0.003322 1104.1 21.3
1139(18) 0.003252 1104.7 20.6
1153(18) 0.003021 1105.4 20.0
1122(19) 0.002896 1106.0 19.3
1096(18) 0.003197 1106.6 18.7
1101(17) 0.003372 1107.2 18.1
1125(17) 0.003266 1107.8 17.6
1151(18) 0.002957 1108.4 17.1
1124(18) 0.002961 1109.0 16.6
1165(18) 0.002982 1109.6 16.1
1126(17) 0.003272 1110.3 15.6
1132(18) 0.003210 1110.9 15.2
1126(18) 0.003062 1111.5 14.8
1135(18) 0.002963 1112.1 14.4
1145(18) 0.003075 1112.7 14.0
1123(17) 0.003307 1113.3 13.6
1148(18) 0.003114 1113.9 13.3
1142(18) 0.002955 1114.5 12.9
1126(18) 0.002988 1115.1 12.6
1171(18) 0.002999 1115.8 12.3
1142(18) 0.003246 1116.4 12.0
1111(18) 0.003158 1117.0 11.7
1100(18) 0.003080 1117.6 11.4
1097(18) 0.003132 1118.2 11.1
1114(18) 0.003175 1118.8 10.9
1083(17) 0.003411 1119.4 10.6
1160(18) 0.002987 1120.0 10.4
1190(19) 0.002851 1120.6 10.1
1119(18) 0.003176 1121.3 9.9
1140(18) 0.003208 1121.9 9.7
1189(18) 0.003130 1122.5 9.5
1176(18) 0.002924 1123.1 9.3
1161(19) 0.002897 1123.7 9.1
1102(18) 0.003224 1124.3 8.9
1110(17) 0.003297 1124.9 8.7
1136(17) 0.003272 1125.5 8.6
1166(18) 0.002967 1126.1 8.4
1149(18) 0.002930 1126.8 8.2
1120(18) 0.003117 1127.4 8.1
1136(18) 0.003163 1128.0 7.9
1127(17) 0.003323 1128.6 7.8
1171(18) 0.002953 1129.2 7.6
1109(18) 0.002952 1129.8 7.5
1129(18) 0.003081 1130.4 7.3
1111(17) 0.003286 1131.0 7.2
1143(18) 0.003255 1131.6 7.1
1169(18) 0.002925 1132.3 7.0
1156(19) 0.002807 1132.9 6.8
1196(18) 0.002934 1133.5 6.7
1193(18) 0.003081 1134.1 6.6
1144(18) 0.003257 1134.7 6.5
1141(18) 0.003072 1135.3 6.4
1141(19) 0.002804 1135.9 6.3
1142(18) 0.003000 1136.5 6.2
1114(17) 0.003308 1137.1 6.1
1110(17) 0.003297 1137.8 6.0
1158(18) 0.003021 1138.4 5.9
1183(19) 0.002744 1139.0 5.8
1154(18) 0.002978 1139.6 5.7
1132(17) 0.003299 1140.2 5.7
1109(18) 0.003262 1140.8 5.6
1104(18) 0.003107 1141.4 5.5
1126(19) 0.002881 1142.0 5.4
1121(18) 0.003082 1142.6 5.4
1131(17) 0.003285 1143.3 5.3
1143(18) 0.003100 1143.9 5.2
1144(18) 0.003007 1144.5 5.2
1174(19) 0.002873 1145.1 5.1
1146(18) 0.003072 1145.6 5.0
1170(18) 0.003203 1145.9 5.0
1122(18) 0.003177 1146.1 4.9
1166(18) 0.002947 1146.4 4.9
1127(18) 0.003035 1146.6 4.8
1172(18) 0.002964 1146.9 4.8
1165(18) 0.003203 1147.1 4.7
1184(18) 0.003008 1147.4 4.7
1164(19) 0.002897 1147.6 4.6
1161(18) 0.002951 1147.8 4.6
1130(18) 0.003161 1148.1 4.5
1131(17) 0.003291 1148.3 4.5
1148(18) 0.003092 1148.6 4.5
1194(19) 0.002819 1148.8 4.4
1178(18) 0.002927 1149.1 4.4
1156(18) 0.003153 1149.3 4.4
1148(18) 0.003218 1149.6 4.3
1141(18) 0.003027 1149.8 4.3
1141(18) 0.002992 1150.0 4.3
1211(19) 0.002808 1150.3 4.3
1137(18) 0.003206 1150.5 4.3
1154(18) 0.003239 1150.8 4.2
1142(18) 0.003092 1151.0 4.2
1124(18) 0.002944 1151.3 4.2
1180(18) 0.002968 1151.5 4.2
1164(18) 0.003184 1151.8 4.2
1201(18) 0.003083 1152.0 4.2
1152(18) 0.002982 1152.3 4.2
1123(19) 0.002840 1152.5 4.2
1151(18) 0.003004 1152.7 4.2
1153(18) 0.003186 1153.0 4.2
1177(18) 0.003163 1153.2 4.2
1180(18) 0.002934 1153.5 4.2
1168(19) 0.002787 1153.7 4.2
1150(18) 0.003008 1154.0 4.3
1116(17) 0.003304 1154.2 4.3
1166(18) 0.003185 1154.5 4.3
1187(18) 0.002951 1154.7 4.3
1198(19) 0.002772 1154.9 4.4
1200(18) 0.002938 1155.2 4.4
1150(18) 0.003200 1155.4 4.5
1138(18) 0.003222 1155.7 4.5
1117(18) 0.003168 1155.9 4.6
1155(19) 0.002855 1156.2 4.7
1147(18) 0.002978 1156.4 4.7
1186(18) 0.003137 1156.7 4.8
1181(18) 0.003055 1156.9 4.9
1193(19) 0.002886 1157.1 5.0
1123(18) 0.003069 1157.4 5.2
1170(18) 0.002996 1157.6 5.3
1196(18) 0.003103 1157.9 5.4
1183(18) 0.003044 1158.1 5.6
1178(18) 0.002940 1158.4 5.8
1146(18) 0.002971 1158.6 6.0
1177(18) 0.002983 1158.9 6.2
1210(18) 0.003074 1159.1 6.5
1219(19) 0.002879 1159.4 6.7
1160(18) 0.002942 1159.6 7.1
1176(19) 0.002868 1159.8 7.4
1185(19) 0.002919 1160.1 7.9
1137(17) 0.003281 1160.3 8.4
1182(19) 0.002889 1160.6 9.0
1171(19) 0.002856 1160.8 9.8
1156(18) 0.002993 1161.1 10.7
1215(18) 0.002981 1161.3 11.8
1195(18) 0.003103 1161.6 13.1
1177(19) 0.002896 1161.8 14.7
1183(19) 0.002761 1162.0 16.7
1174(18) 0.002934 1162.3 19.1
1197(18) 0.003027 1162.5 22.0
1205(18) 0.003081 1162.8 25.3
1222(19) 0.002854 1163.0 29.3
1202(19) 0.002750 1163.3 33.8
1247(19) 0.002754 1163.5 38.9
1224(18) 0.002987 1163.8 44.5
1248(18) 0.002969 1164.0 50.7
1269(19) 0.002709 1164.2 57.2
1292(20) 0.002518 1164.5 63.8
1273(19) 0.002719 1164.7 70.3
1245(18) 0.002976 1165.0 76.3
1285(19) 0.002877 1165.2 81.3
1222(19) 0.002889 1165.5 84.9
1267(20) 0.002550 1165.7 86.5
1339(20) 0.002591 1166.0 86.2
1266(19) 0.002907 1166.2 83.7
1303(19) 0.002819 1166.5 79.6
1307(19) 0.002669 1166.7 74.1
1288(20) 0.002512 1166.9 67.9
1224(19) 0.002820 1167.2 61.3
1247(18) 0.002972 1167.4 54.6
1254(19) 0.002888 1167.7 48.2
1192(18) 0.002954 1167.9 42.2
1222(19) 0.002659 1168.2 36.7
1195(19) 0.002887 1168.4 31.8
1198(18) 0.003093 1168.7 27.5
1166(18) 0.003150 1168.9 23.7
1210(19) 0.002842 1169.1 20.5
1222(19) 0.002729 1169.4 17.8
1157(18) 0.003047 1169.6 15.6
1159(18) 0.003207 1169.9 13.7
1155(18) 0.003135 1170.1 12.1
1176(18) 0.002967 1170.4 10.9
1183(19) 0.002876 1170.6 9.8
1244(19) 0.002810 1170.9 9.0
1205(18) 0.003081 1171.1 8.2
1167(18) 0.003034 1171.3 7.6
1183(19) 0.002838 1171.6 7.1
1177(19) 0.002918 1171.8 6.7
1189(18) 0.002983 1172.1 6.3
1181(18) 0.003143 1172.3 4.7
1185(18) 0.002977 1172.6 4.4
1198(19) 0.002842 1172.8 4.2
1162(18) 0.002997 1173.1 4.0
1191(18) 0.003006 1173.3 3.8
1202(18) 0.003081 1173.6 3.6
1215(19) 0.002846 1173.8 3.4
1197(19) 0.002795 1174.0 3.3
1153(18) 0.003031 1174.3 3.2
1169(18) 0.003127 1174.5 3.1
1223(18) 0.003026 1174.8 3.0
1198(19) 0.002878 1175.0 3.0
1188(19) 0.002825 1175.3 2.9
1212(19) 0.002891 1175.5 2.9
1205(18) 0.003041 1175.8 2.9
1182(18) 0.003126 1176.0 2.9
1178(18) 0.002968 1176.2 2.9
1164(19) 0.002838 1176.5 2.9
1153(18) 0.003022 1176.7 2.9
1154(18) 0.003234 1177.0 2.9
1230(18) 0.003014 1177.2 3.0
1208(19) 0.002865 1177.5 3.0
1212(20) 0.002610 1177.7 3.1
1180(18) 0.002932 1178.0 3.1
1213(18) 0.003034 1178.2 3.2
1183(18) 0.003105 1178.4 3.2
1202(19) 0.002888 1178.7 3.3
1192(19) 0.002697 1178.9 3.3
1203(19) 0.002833 1179.2 3.4
1180(18) 0.003135 1179.4 3.4
1205(18) 0.003049 1179.7 3.4
1240(19) 0.002804 1179.9 3.4
1249(20) 0.002606 1180.2 3.4
1208(19) 0.002876 1180.4 3.4
1189(18) 0.003138 1180.7 3.3
1206(18) 0.002978 1180.9 3.3
1177(18) 0.002935 1181.1 3.2
1194(19) 0.002777 1181.4 3.1
1176(18) 0.002938 1181.6 2.9
1173(18) 0.003171 1181.9 2.8
1174(18) 0.003043 1182.1 2.7
1191(19) 0.002893 1182.4 2.6
1167(18) 0.002951 1182.6 2.4
1198(18) 0.002928 1182.9 2.3
1234(18) 0.003003 1183.1 2.2
1215(18) 0.002960 1183.3 2.0
1186(19) 0.002897 1183.6 1.9
1195(19) 0.002899 1183.8 1.8
1239(19) 0.002807 1184.1 1.7
1232(18) 0.003029 1184.3 1.6
1210(19) 0.002892 1184.6 1.5
1215(19) 0.002770 1184.8 1.4
1210(19) 0.002770 1185.1 1.3
1245(19) 0.002813 1185.3 1.2
1199(18) 0.003102 1185.5 1.2
1179(18) 0.002939 1185.8 1.1
1210(19) 0.002722 1186.0 1.0
1197(19) 0.002832 1186.3 1.0
1203(18) 0.003030 1186.5 0.9
1204(18) 0.003069 1186.8 0.9
1163(18) 0.002989 1187.0 0.8
1181(19) 0.002800 1187.3 0.8
1145(18) 0.003061 1187.5 0.8
1169(18) 0.003132 1187.8 0.7
1169(18) 0.003197 1188.0 0.7
1169(18) 0.002975 1188.2 0.7
1144(19) 0.002886 1188.5 0.6
1213(19) 0.002837 1188.7 0.6
1176(18) 0.003143 1189.0 0.6
1207(18) 0.003050 1189.2 0.6
1215(19) 0.002810 1189.5 0.6
1139(19) 0.002844 1189.7 0.5
1171(19) 0.002895 1190.0 0.5
1192(18) 0.003091 1190.2 0.5
1180(18) 0.003133 1190.4 0.5
1203(19) 0.002878 1190.7 0.5
1180(19) 0.002739 1190.9 0.5
1195(19) 0.002873 1191.2 0.5
1173(18) 0.003167 1191.4 0.4
1217(18) 0.003008 1191.6 0.4
1205(19) 0.002830 1191.3 0.4
1157(19) 0.002841 1190.9 0.4
1215(19) 0.002834 1190.6 0.4
1183(18) 0.003127 1190.3 0.4
1170(18) 0.003128 1190.0 0.4
1185(19) 0.002885 1189.6 0.4
1188(19) 0.002784 1189.3 0.4
1184(18) 0.002954 1189.0 0.4
1188(18) 0.003101 1188.7 0.4
1152(18) 0.003177 1188.4 0.3
1167(19) 0.002899 1188.0 0.3
1159(19) 0.002884 1187.7 0.3
1161(18) 0.002990 1187.4 0.3
1242(18) 0.002984 1187.1 0.3
1205(18) 0.002958 1186.7 0.3
1168(18) 0.003013 1186.4 0.3
1221(19) 0.002796 1186.1 0.3
1189(18) 0.002978 1185.8 0.3
1241(18) 0.002987 1185.5 0.3
1166(18) 0.003081 1185.1 0.3
1189(19) 0.002854 1184.8 0.3
1213(19) 0.002782 1184.5 0.3
1188(18) 0.002958 1184.2 0.3
1187(18) 0.003152 1183.8 0.3
1160(18) 0.002990 1183.5 0.3
1214(19) 0.002700 1183.2 0.3
1175(18) 0.002933 1182.9 0.2
1183(18) 0.003056 1182.5 0.2
1188(18) 0.003142 1182.2 0.2
1205(19) 0.002832 1181.9 0.2
1184(19) 0.002745 1181.6 0.2
1142(18) 0.003023 1181.3 0.2
1186(18) 0.003039 1180.9 0.2
1187(18) 0.003117 1180.6 0.2
1172(19) 0.002917 1180.3 0.2
1182(19) 0.002789 1180.0 0.2
1275(19) 0.002683 1179.6 0.2
1181(18) 0.003106 1179.3 0.2
1190(18) 0.003113 1179.0 0.2
1230(19) 0.002835 1178.7 0.2
1216(20) 0.002609 1178.4 0.2
1144(18) 0.002953 1178.0 0.2
1148(18) 0.003211 1177.7 0.2
1239(18) 0.002996 1177.4 0.2
1169(18) 0.003017 1177.1 0.2
1198(19) 0.002732 1176.7 0.2
1209(19) 0.002876 1176.4 0.2
1197(18) 0.003066 1176.1 0.2
1156(18) 0.003180 1175.8 0.2
1152(18) 0.003063 1175.5 0.2
1208(19) 0.002694 1175.1 0.2
1146(18) 0.003044 1174.8 0.2
1189(18) 0.003126 1174.5 0.2
1213(18) 0.003007 1174.2 0.2
1174(18) 0.002927 1173.8 0.2
1165(19) 0.002853 1173.5 0.2
1225(19) 0.002740 1173.2 0.2
1152(18) 0.003242 1172.9 0.2
1164(18) 0.003089 1172.6 0.2
1144(18) 0.003068 1172.2 0.2
1171(19) 0.002883 1171.9 0.1
1188(18) 0.002955 1171.6 0.1
1239(18) 0.002994 1171.3 0.1
1224(19) 0.002871 1170.9 0.1
1199(19) 0.002913 1170.6 0.1
1253(19) 0.002661 1170.3 0.1
1182(18) 0.003009 1170.0 0.1
1144(18) 0.003262 1169.7 0.1
1160(18) 0.002992 1169.3 0.1
1179(19) 0.002824 1169.0 0.1
1199(19) 0.002878 1168.7 0.1
1224(19) 0.002875 1168.4 0.1
1155(18) 0.003230 1168.0 0.1
1136(18) 0.003092 1167.7 0.1
1213(19) 0.002791 1167.4 0.1
1209(19) 0.002869 1167.1 0.1
1230(18) 0.002935 1166.7 0.1
1171(18) 0.003172 1166.4 0.1
1176(18) 0.002947 1166.1 0.1
1174(19) 0.002859 1165.8 0.1
1167(18) 0.003007 1165.5 0.1
1147(18) 0.003175 1165.1 0.1
1186(18) 0.003120 1164.8 0.1
1172(18) 0.002932 1164.5 0.1
1172(19) 0.002783 1164.2 0.1
1196(19) 0.002866 1163.8 0.1
1184(18) 0.003085 1163.5 0.1
1204(18) 0.003061 1163.2 0.1
1132(18) 0.003001 1162.9 0.1
1171(19) 0.002720 1162.6 0.1
1117(18) 0.003161 1162.2 0.1
1148(18) 0.003206 1161.9 0.1
1198(18) 0.003082 1161.6 0.1
1203(19) 0.002873 1161.3 0.1
1174(19) 0.002747 1160.9 0.1
1188(19) 0.002891 1160.6 0.1
1204(18) 0.003081 1160.3 0.1
1168(18) 0.003179 1160.0 0.1
1176(18) 0.002957 1159.7 0.1
1178(19) 0.002746 1159.3 0.1
1188(19) 0.002865 1159.0 0.1
1110(17) 0.003334 1158.7 0.1
1161(18) 0.003157 1158.4 0.1
1176(18) 0.002965 1158.0 0.1
1157(18) 0.002936 1157.7 0.1
1215(19) 0.002858 1157.4 0.1
1206(18) 0.003081 1157.1 0.1
1209(18) 0.003014 1156.8 0.1
1176(18) 0.002942 1156.4 0.1
1200(19) 0.002806 1156.1 0.1
1182(18) 0.002925 1155.8 0.1
1231(18) 0.003028 1155.5 0.1
1168(18) 0.003053 1155.1 0.1
1191(19) 0.002832 1154.8 0.1
1193(19) 0.002834 1154.5 0.1
1195(18) 0.002936 1154.2 0.1
1209(18) 0.003081 1153.9 0.1
1172(18) 0.003008 1153.5 0.1
1160(18) 0.002932 1153.2 0.1
1166(19) 0.002897 1152.9 0.1
1167(18) 0.003002 1152.6 0.1
1180(18) 0.003170 1152.2 0.1
1143(18) 0.003020 1151.9 0.1
1138(18) 0.002946 1151.6 0.1
1118(18) 0.003138 1151.3 0.1
1164(18) 0.003096 1151.0 0.1
1183(18) 0.003142 1150.6 0.1
1151(18) 0.003018 1150.3 0.1
1192(19) 0.002779 1150.0 0.1
1121(18) 0.003092 1149.7 0.1
1243(19) 0.002911 1149.3 0.1
1159(18) 0.003199 1149.0 0.1
1187(19) 0.002869 1148.7 0.1
1167(19) 0.002838 1148.4 0.1
1150(18) 0.003032 1148.0 0.1
1190(18) 0.003079 1147.7 0.1
1202(18) 0.003092 1147.4 0.1
1167(18) 0.002987 1147.1 0.1
1197(19) 0.002751 1146.8 0.1
1198(19) 0.002899 1146.4 0.1
1197(18) 0.003058 1146.1 0.1
1139(18) 0.003245 1145.8 0.1
1171(18) 0.002980 1145.5 0.1
1139(19) 0.002775 1145.1 0.1
1157(19) 0.002917 1144.8 0.1
1170(18) 0.003140 1144.5 0.1
1115(17) 0.003287 1144.2 0.1
1134(18) 0.003109 1143.9 0.1
1183(19) 0.002704 1143.5 0.1
1131(18) 0.003063 1143.2 0.1
1154(18) 0.003202 1142.9 0.1
1161(18) 0.003144 1142.6 0.1
1182(19) 0.002911 1142.2 0.1
1202(19) 0.002703 1141.9 0.1
1150(18) 0.003011 1141.6 0.1
1110(17) 0.003344 1141.3 0.1
1126(18) 0.003241 1141.0 0.1
1150(18) 0.003055 1140.6 0.1
1127(18) 0.003007 1140.3 0.1
1136(18) 0.002965 1140.0 0.1
1120(17) 0.003317 1139.7 0.1
1184(18) 0.003043 1139.3 0.1
1160(19) 0.002890 1139.0 0.1
1159(19) 0.002859 1138.7 0.1
1156(18) 0.003013 1138.4 0.1
1171(18) 0.003174 1138.1 0.1
1188(18) 0.002984 1137.7 0.1
1158(19) 0.002906 1137.4 0.1
1137(18) 0.002992 1137.1 0.1
1147(18) 0.003057 1136.8 0.1
1122(17) 0.003330 1136.4 0.1
1201(19) 0.002885 1136.1 0.1
1154(18) 0.002964 1135.8 0.1
1181(19) 0.002878 1135.5 0.1
1131(18) 0.003153 1135.2 0.1
1162(18) 0.003209 1134.8 0.1
1186(18) 0.002943 1134.5 0.1
1185(19) 0.002799 1134.2 0.1
1145(18) 0.003016 1133.9 0.1
1131(18) 0.003190 1133.5 0.1
1172(18) 0.003167 1133.2 0.1
1193(19) 0.002885 1132.9 0.1
1160(19) 0.002844 1132.6 0.1
1160(18) 0.002942 1132.3 0.1
1121(18) 0.003250 1131.9 0.1
1095(17) 0.003400 1131.6 0.1
1101(18) 0.003186 1131.3 0.1
1195(19) 0.002700 1131.0 0.1
1136(18) 0.003056 1130.6 0.1
1097(17) 0.003360 1130.3 0.1
1155(18) 0.003225 1130.0 0.1
1162(18) 0.003031 1129.7 0.1
1144(19) 0.002839 1129.3 0.1
1111(18) 0.003142 1129.0 0.1
1195(18) 0.003089 1128.7 0.1
1113(17) 0.003316 1128.4 0.1
1170(18) 0.002942 1128.1 0.1
1111(19) 0.002878 1127.7 0.1
1140(18) 0.003047 1127.4 0.1
1096(17) 0.003376 1127.1 0.1
1149(18) 0.003214 1126.8 0.1
1139(18) 0.003114 1126.4 0.1
1194(19) 0.002741 1126.1 0.1
1158(18) 0.003015 1125.8 0.1
1153(18) 0.003222 1125.5 0.1
1110(17) 0.003271 1125.2 0.1
1161(18) 0.002999 1124.8 0.1
1178(19) 0.002822 1124.5 0.1
1141(18) 0.003056 1124.2 0.1
1143(18) 0.003250 1123.9 0.1
1158(18) 0.003110 1123.5 0.1
1170(19) 0.002907 1123.2 0.1
1133(19) 0.002904 1122.9 0.1
1144(18) 0.003030 1122.6 0.1
1157(18) 0.003208 1122.3 0.1
1103(18) 0.003209 1121.9 0.1
1138(18) 0.002987 1121.6 0.1
1144(18) 0.002990 1121.3 0.1
1105(18) 0.003200 1121.0 0.1
1175(18) 0.003168 1120.6 0.1
1142(18) 0.003057 1120.3 0.1
1108(18) 0.003062 1120.0 0.1
1106(18) 0.003119 1119.7 0.1
1139(18) 0.003098 1119.4 0.1
1101(17) 0.003379 1119.0 0.1
1112(18) 0.003083 1118.7 0.1
1153(19) 0.002844 1118.4 0.1
1133(18) 0.003007 1118.1 0.1
1108(18) 0.003214 1117.7 0.1
1143(17) 0.003284 1117.3 0.1
1165(18) 0.002969 1116.7 0.1
1101(18) 0.003038 1116.1 0.1
1087(18) 0.003139 1115.6 0.1
1104(17) 0.003286 1115.0 0.1
1119(17) 0.003328 1114.4 0.1
1118(18) 0.003117 1113.9 0.1
1116(18) 0.002936 1113.3 0.1
1156(18) 0.002987 1112.7 0.1
1091(17) 0.003317 1112.1 0.1
1111(17) 0.003305 1111.6 0.1
1129(18) 0.003094 1111.0 0.1
1157(19) 0.002827 1110.4 0.1
1118(18) 0.003103 1109.9 0.1
1161(18) 0.003167 1109.3 0.1
1113(17) 0.003343 1108.7 0.1
1074(17) 0.003267 1108.1 0.1
1133(19) 0.002812 1107.6 0.1
1122(18) 0.003018 1107.0 0.1
1150(18) 0.003209 1106.4 0.1
1094(17) 0.003357 1105.8 0.1
1139(18) 0.003034 1105.3 0.1
1117(18) 0.002933 1104.7 0.1
1109(18) 0.003118 1104.1 0.1
1100(17) 0.003379 1103.6 0.1
1098(17) 0.003334 1103.0 0.1
1081(18) 0.003158 1102.4 0.1
1074(18) 0.003078 1101.8 0.1
1122(18) 0.003033 1101.3 0.1
1113(17) 0.003327 1100.7 0.1
1141(18) 0.003201 1100.1 0.1
1117(18) 0.003047 1099.5 0.1
1068(18) 0.003137 1099.0 0.1
1066(17) 0.003266 1098.4 0.1
1119(17) 0.003292 1097.8 0.1
1073(17) 0.003376 1097.3 0.1
1069(18) 0.003249 1096.7 0.1
1107(18) 0.003048 1096.1 0.1
1115(18) 0.003175 1095.5 0.1
1087(17) 0.003406 1095.0 0.1
1109(18) 0.003131 1094.4 0.1
1088(18) 0.003167 1093.8 0.1
1174(18) 0.002933 1093.2 0.1
1064(17) 0.003346 1092.7 0.1
1066(17) 0.003489 1092.1 0.1
1079(18) 0.003191 1091.5 0.1
1089(18) 0.003094 1091.0 0.1
1073(18) 0.003162 1090.4 0.1
1139(18) 0.003161 1089.8 0.1
1109(17) 0.003346 1089.2 0.1
1103(18) 0.003105 1088.7 0.1
1045(18) 0.003226 1088.1 0.1
1069(18) 0.003188 1087.5 0.1
1059(17) 0.003441 1086.9 0.1
1095(17) 0.003407 1086.4 0.1
1072(18) 0.003226 1085.8 0.1
1095(18) 0.002991 1085.2 0.1
1094(18) 0.003147 1084.7 0.1
1073(17) 0.003406 1084.1 0.1
1087(17) 0.003430 1083.5 0.1
1080(18) 0.003225 1082.9 0.1
1095(19) 0.002911 1082.4 0.1
1062(18) 0.003227 1081.8 0.1
1061(17) 0.003477 1081.2 0.1
1069(17) 0.003442 1080.6 0.1
1077(18) 0.003234 1080.1 0.1
1046(18) 0.003089 1079.5 0.1
1124(18) 0.003069 1078.9 0.1
1108(17) 0.003344 1078.4 0.1
1077(17) 0.003382 1077.8 0.1
1069(18) 0.003200 1077.2 0.1
1074(18) 0.003075 1076.6 0.1
1085(17) 0.003280 1076.1 0.1
1132(18) 0.003260 1075.5 0.1
1069(17) 0.003486 1074.9 0.1
1094(18) 0.003232 1074.3 0.1
1082(18) 0.003095 1073.8 0.1
1109(18) 0.003093 1073.2 0.1
1153(18) 0.003204 1072.6 0.1
1072(17) 0.003402 1072.1 0.1
1109(18) 0.003117 1071.5 0.1
1112(18) 0.003026 1070.9 0.1
1127(18) 0.003003 1070.3 0.1
1091(17) 0.003391 1069.8 0.1
1111(18) 0.003230 1069.2 0.1
1074(18) 0.003225 1068.6 0.1
1069(18) 0.003165 1068.1 0.1
1054(17) 0.003365 1067.5 0.1
1067(17) 0.003486 1066.9 0.1
1113(18) 0.003099 1066.3 0.1
1099(18) 0.003071 1065.8 0.1
1037(17) 0.003273 1065.2 0.1
1083(17) 0.003271 1064.6 0.1
1060(17) 0.00352 1064.0 0.1
1107(18) 0.003223 1063.5 0.1
1082(18) 0.003171 1062.9 0.1
1076(18) 0.003187 1062.3 0.1
1025(17) 0.00355 1061.8 0.1
1051(17) 0.00351 1061.2 0.1
1071(18) 0.003253 1060.6 0.1
1058(18) 0.003211 1060.0 0.1
1119(18) 0.002984 1059.5 0.1
1044(17) 0.003503 1058.9 0.1
986(16) 0.00378 1058.3 0.1
1076(18) 0.003189 1057.7 0.1
1083(18) 0.003087 1057.2 0.1
1062(18) 0.003258 1056.6 0.1
1011(17) 0.00362 1056.0 0.1
1083(17) 0.003410 1055.5 0.1
1044(17) 0.003331 1054.9 0.1
1068(18) 0.003067 1054.3 0.1
1052(17) 0.003338 1053.7 0.1
1070(17) 0.003444 1053.2 0.1
1092(17) 0.003399 1052.6 0.1
1065(18) 0.003175 1052.0 0.1
1067(18) 0.002953 1051.4 0.1
1059(18) 0.003231 1050.9 0.1
1055(17) 0.003497 1050.3 0.1
1056(17) 0.003488 1049.7 0.1
1085(18) 0.003212 1049.2 0.1
1053(18) 0.003091 1048.6 0.1
1069(18) 0.003251 1048.0 0.1
982(16) 0.00375 1047.4 0.1
1025(17) 0.00358 1046.9 0.1
1013(17) 0.003416 1046.3 0.1
1020(18) 0.003228 1045.7 0.1
1053(18) 0.003250 1045.1 0.1
1003(17) 0.00367 1044.6 0.1
1085(17) 0.003330 1044.0 0.1
1091(18) 0.003115 1043.4 0.1
1078(18) 0.003090 1042.9 0.1
1046(17) 0.003304 1042.3 0.1
1070(17) 0.003458 1041.7 0.1
1082(17) 0.003323 1041.1 0.1
1050(17) 0.003318 1040.6 0.1
1094(18) 0.003006 1040.0 0.1
1069(18) 0.003175 1039.4 0.1
1020(17) 0.00364 1038.8 0.1
1048(17) 0.003352 1038.3 0.1
1069(18) 0.003174 1037.7 0.1
999(17) 0.003350 1037.1 0.1
1004(17) 0.00352 1036.6 0.1
1063(17) 0.003497 1036.0 0.1
1041(17) 0.003283 1035.4 0.1
1028(17) 0.003306 1034.8 0.1
1020(17) 0.003353 1034.3 0.1
1044(17) 0.003456 1033.7 0.1
1024(17) 0.00358 1033.1 0.1
1056(18) 0.003255 1032.6 0.1
972(17) 0.00352 1032.0 0.1
1029(17) 0.003276 1031.4 0.1
1035(17) 0.003506 1030.8 0.1
994(16) 0.00370 1030.3 0.1
1049(18) 0.003257 1029.7 0.1
1024(18) 0.003262 1029.1 0.1
1030(17) 0.003364 1028.5 0.1
1047(17) 0.003485 1028.0 0.1
1014(17) 0.00363 1027.4 0.1
1031(17) 0.003384 1026.8 0.1
1013(18) 0.003229 1026.3 0.1
1002(17) 0.003421 1025.7 0.1
1025(17) 0.00358 1025.1 0.1
1021(17) 0.00362 1024.5 0.1
1032(17) 0.003364 1024.0 0.1
1004(18) 0.003197 1023.4 0.1
1027(17) 0.003350 1022.8 0.1
1071(17) 0.003459 1022.2 0.1
1017(17) 0.00366 1021.7 0.1
1058(17) 0.003286 1021.1 0.1
1051(18) 0.003129 1020.5 0.1
1034(18) 0.003259 1020.0 0.1
1005(16) 0.00370 1019.4 0.1
1002(17) 0.00366 1018.8 0.1
967(16) 0.00370 1018.2 0.1
1061(18) 0.003135 1017.7 0.1
1042(18) 0.003253 1017.1 0.1
1053(17) 0.00352 1016.5 0.1
1041(17) 0.003485 1015.9 0.1
997(17) 0.003505 1015.4 0.1
1018(18) 0.003253 1014.8 0.1
1016(17) 0.003373 1014.2 0.1
1031(17) 0.00362 1013.7 0.1
1032(17) 0.003490 1013.1 0.1
981(17) 0.00353 1012.5 0.1
995(17) 0.003398 1011.9 0.1
1041(17) 0.003360 1011.4 0.1
991(16) 0.00375 1010.8 0.1
1005(17) 0.00359 1010.2 0.2
1015(17) 0.003308 1009.6 0.2
992(17) 0.003383 1009.1 0.2
963(16) 0.00369 1008.5 0.2
1003(16) 0.00370 1007.9 0.2
984(17) 0.00356 1007.4 0.2
1001(17) 0.003351 1006.8 0.2
988(17) 0.003489 1006.2 0.2
1054(17) 0.003371 1005.6 0.2
991(16) 0.00376 1005.1 0.2
989(17) 0.003494 1004.5 0.2
1005(17) 0.003402 1003.9 0.2
988(17) 0.00355 1003.3 0.2
1032(17) 0.003453 1002.8 0.2
999(16) 0.00373 1002.2 0.2
1021(17) 0.003418 1001.6 0.2
991(17) 0.003339 1001.1 0.2
1025(17) 0.003321 1000.5 0.2
959(16) 0.00386 999.9 0.2
1013(17) 0.00363 999.3 0.2
1031(17) 0.003293 998.8 0.2
1027(18) 0.003209 998.2 0.2
1010(17) 0.003420 997.6 0.2
992(16) 0.00368 997.0 0.2
979(16) 0.00382 996.4 0.2
969(17) 0.00362 995.9 0.2
973(17) 0.003322 995.3 0.2
1009(17) 0.003405 994.7 0.2
1004(16) 0.00370 994.1 0.3
1046(17) 0.00351 993.5 0.3
988(17) 0.00356 992.9 0.3
964(17) 0.003328 992.3 0.3
977(17) 0.00359 991.7 0.3
955(16) 0.00387 991.2 1.3
956(16) 0.00389 990.6 1.4
960(17) 0.00363 990.0 1.4
974(17) 0.003313 989.4 1.4
974(17) 0.00362 988.8 1.4
996(16) 0.00373 988.2 1.5
1006(17) 0.00362 987.6 1.5
980(17) 0.00362 987.1 1.5
992(17) 0.003363 986.5 1.5
1008(17) 0.003436 985.9 1.6
995(16) 0.00373 985.3 1.6
975(16) 0.00378 984.7 1.6
999(17) 0.003411 984.1 1.7
1017(18) 0.003237 983.5 1.7
954(17) 0.00366 983.0 1.7
974(16) 0.00378 982.4 1.8
993(17) 0.00362 981.8 1.8
966(17) 0.00357 981.2 1.8
988(17) 0.003378 980.6 1.9
971(17) 0.00359 980.0 1.9
934(16) 0.00398 979.4 1.9
997(17) 0.00355 978.8 2.0
977(17) 0.003466 978.3 2.0
967(17) 0.00352 977.7 2.1
971(16) 0.00367 977.1 2.1
1016(17) 0.00366 976.5 2.2
978(17) 0.00354 975.9 2.2
960(17) 0.00353 975.3 2.3
913(16) 0.00385 974.7 2.3
954(16) 0.00378 974.2 2.4
993(16) 0.00376 973.6 2.4
1000(17) 0.003488 973.0 2.5
957(17) 0.00357 972.4 2.6
970(17) 0.00359 971.8 2.6
1002(17) 0.00357 971.2 2.7
927(16) 0.00401 970.6 2.8
955(16) 0.00368 970.0 2.8
968(17) 0.003416 969.5 2.9
946(16) 0.00371 968.9 3.0
956(16) 0.00380 968.3 3.1
973(16) 0.00380 967.7 3.1
944(16) 0.00368 967.1 3.2
980(18) 0.003235 966.5 3.3
986(17) 0.003452 965.9 3.4
989(16) 0.00374 965.4 3.5
942(16) 0.00392 964.8 3.6
982(17) 0.00357 964.2 3.8
978(17) 0.003343 963.6 3.9
957(17) 0.00362 963.0 4.0
954(16) 0.00390 962.4 4.1
947(16) 0.00387 961.8 4.3
959(17) 0.00357 961.3 4.4
954(17) 0.003448 960.7 4.6
972(17) 0.00357 960.1 4.8
972(16) 0.00382 959.5 5.0
978(16) 0.00376 958.9 5.2
973(17) 0.00355 958.3 5.4
961(17) 0.003395 957.7 5.6
957(17) 0.00363 957.1 5.9
944(16) 0.00395 956.6 6.2
943(16) 0.00387 956.0 6.5
916(16) 0.00383 955.4 6.9
982(17) 0.003336 954.8 7.3
924(16) 0.00374 954.2 7.7
954(16) 0.00388 953.6 8.2
943(16) 0.00381 953.0 8.7
963(17) 0.00361 952.5 9.2
975(17) 0.00351 951.9 9.9
1024(17) 0.003432 951.3 10.5
969(16) 0.00385 950.7 11.3
991(17) 0.00356 950.1 12.1
926(17) 0.00366 949.5 12.9
937(17) 0.00364 948.9 13.8
950(16) 0.00373 948.4 14.8
988(16) 0.00378 947.8 15.9
915(16) 0.00377 947.2 17.0
1014(17) 0.003304 946.6 18.2
982(17) 0.00359 946.0 19.4
996(17) 0.00361 945.4 20.7
966(16) 0.00385 944.8 22.0
927(16) 0.00376 944.2 23.3
984(17) 0.003364 943.7 24.6
996(17) 0.003493 943.1 25.8
986(17) 0.00366 942.5 27.0
976(16) 0.00383 941.9 28.2
958(17) 0.00358 941.3 29.2
931(17) 0.00367 940.7 30.0
988(17) 0.003489 940.1 30.7
954(16) 0.00380 939.6 31.3
966(16) 0.00386 939.0 31.6
1011(17) 0.003439 938.4 31.9
968(17) 0.003407 937.8 32.0
954(17) 0.00367 937.2 32.0
971(16) 0.00376 936.6 32.0
947(16) 0.00391 936.0 32.0
937(16) 0.00374 935.4 32.1
978(18) 0.003210 934.9 32.2
921(16) 0.00374 934.3 32.4
946(16) 0.00388 933.7 32.7
949(16) 0.00392 933.1 33.2
922(16) 0.00375 932.5 33.9
969(17) 0.003288 931.9 34.9
906(16) 0.00386 931.3 36.1
920(16) 0.00404 930.8 37.6
977(16) 0.00380 930.2 39.5
943(16) 0.00370 929.6 41.8
1001(18) 0.003238 929.0 44.5
951(17) 0.00363 928.4 47.8
947(16) 0.00392 927.8 51.8
914(16) 0.00403 927.2 56.6
970(17) 0.00352 926.7 63.5
954(17) 0.003505 926.1 70.4
958(17) 0.00365 925.5 78.9
1000(16) 0.00371 924.9 89.6
1021(17) 0.003494 924.3 103.6
1038(17) 0.003383 923.7 122.9
1085(18) 0.003139 923.1 151.3
1132(18) 0.003023 922.5 194.8
1135(17) 0.003278 922.0 262.8
1207(18) 0.002944 921.4 367.8
1385(20) 0.002506 920.8 523.7
1563(21) 0.002178 920.2 741.9
1768(22) 0.001990 919.6 1025.7
2141(24) 0.001743 919.0 1363.6
2461(26) 0.001437 918.4 1722.5
2841(29) 0.001197 917.9 2041.0
3199(31) 0.001070 917.3 2232.9
3382(31) 0.001050 916.7 2226.8
3139(29) 0.001175 916.1 2025.3
2692(28) 0.001261 915.5 1702.4
2235(26) 0.001495 914.9 1343.3
1834(23) 0.001868 914.3 1007.6
1628(21) 0.002211 913.7 727.3
1417(20) 0.002616 913.2 512.8
1273(19) 0.002702 912.6 360.1
1238(20) 0.002622 912.0 257.3
1165(18) 0.002943 911.4 190.8
1091(17) 0.003360 910.8 148.2
1098(17) 0.003393 910.2 120.3
1065(18) 0.003220 909.6 101.1
1006(18) 0.003239 909.1 87.1
979(17) 0.00360 908.5 76.2
995(16) 0.00367 907.9 67.5
986(16) 0.00376 907.3 60.3
982(17) 0.00358 906.7 54.2
937(17) 0.00355 906.1 49.1
904(16) 0.00394 905.5 44.6
936(16) 0.00396 905.0 40.8
936(16) 0.00398 904.4 37.5
939(16) 0.00372 903.8 34.5
922(17) 0.00355 903.2 32.0
922(16) 0.00380 902.6 29.7
938(16) 0.00396 902.0 27.7
889(16) 0.00414 901.4 25.9
940(16) 0.00372 900.8 24.3
956(17) 0.003389 900.3 22.8
900(16) 0.00382 899.7 21.5
927(16) 0.00401 899.1 20.3
910(16) 0.00395 898.5 19.3
891(16) 0.00400 897.9 18.3
944(17) 0.00353 897.3 17.4
886(16) 0.00394 896.7 16.6
913(16) 0.00410 896.2 15.9
908(16) 0.00401 895.6 15.2
941(16) 0.00367 895.0 14.6
904(16) 0.00369 894.4 14.0
912(16) 0.00377 893.8 13.5
901(16) 0.00411 893.2 13.0
911(16) 0.00396 892.6 12.5
915(16) 0.00376 892.1 12.1
887(16) 0.00390 891.5 11.7
840(15) 0.00424 890.9 11.3
861(15) 0.00433 890.3 11.0
870(16) 0.00399 889.7 10.7
902(16) 0.00375 889.1 10.4
878(16) 0.00397 888.5 10.3
912(16) 0.00382 887.9 10.1
938(16) 0.00396 887.4 9.9
857(16) 0.00410 886.8 9.7
892(16) 0.00375 886.2 9.5
888(16) 0.00398 885.6 9.4
874(16) 0.00416 885.0 9.4
915(16) 0.00405 884.4 9.5
883(16) 0.00394 883.8 9.6
877(16) 0.00385 883.3 9.8
895(16) 0.00385 882.7 10.1
887(16) 0.00405 882.1 10.2
909(16) 0.00409 881.5 10.1
899(16) 0.00382 880.9 9.7
928(17) 0.003503 880.3 9.3
942(17) 0.00366 879.7 8.8
883(16) 0.00413 879.1 8.4
891(15) 0.00417 878.6 8.1
901(16) 0.00381 878.0 7.9
858(16) 0.00385 877.4 7.8
855(16) 0.00400 876.8 7.6
839(15) 0.00439 876.2 7.6
882(15) 0.00420 875.6 7.5
869(16) 0.00407 875.0 7.5
859(16) 0.00378 874.5 7.4
907(16) 0.00381 873.9 7.4
877(15) 0.00420 873.3 7.4
875(15) 0.00423 872.7 7.3
873(16) 0.00393 872.1 7.3
917(17) 0.003494 871.6 7.3
882(16) 0.00389 871.1 7.3
884(15) 0.00419 870.6 7.3
854(15) 0.00428 870.1 7.3
879(16) 0.00399 869.6 7.3
881(16) 0.00385 869.1 7.3
905(16) 0.00382 868.6 7.3
854(15) 0.00437 868.1 7.3
865(15) 0.00420 867.5 7.3
886(16) 0.00386 867.0 7.4
871(16) 0.00378 866.5 7.4
850(16) 0.00409 866.0 7.4
862(15) 0.00433 865.5 7.5
831(15) 0.00437 865.0 7.5
859(16) 0.00402 864.5 7.5
872(16) 0.00383 864.0 7.6
832(15) 0.00422 863.5 7.6
846(15) 0.00440 863.0 7.7
830(15) 0.00429 862.5 7.7
863(16) 0.00390 861.9 7.8
863(16) 0.00400 861.4 7.9
862(16) 0.00412 860.9 7.9
846(15) 0.00441 860.4 8.0
831(15) 0.00428 859.9 8.1
849(16) 0.00400 859.4 8.2
852(16) 0.00413 858.9 8.3
844(15) 0.00428 858.4 8.3
831(15) 0.00444 857.9 8.4
837(16) 0.00400 857.4 8.5
835(16) 0.00401 856.9 8.6
864(16) 0.00398 856.3 8.8
846(15) 0.00428 855.8 8.9
817(15) 0.00456 855.3 9.0
824(15) 0.00422 854.8 9.1
852(16) 0.00390 854.3 9.2
840(15) 0.00421 853.8 9.4
788(15) 0.00467 853.3 9.5
863(15) 0.00428 852.8 9.7
827(15) 0.00420 852.3 9.8
799(16) 0.00401 851.8 10.0
848(16) 0.00410 851.3 10.2
841(15) 0.00445 850.7 10.3
830(15) 0.00442 850.2 10.5
883(16) 0.00395 849.7 10.7
856(16) 0.00377 849.2 10.9
863(16) 0.00400 848.7 11.1
864(15) 0.00428 848.2 11.3
845(15) 0.00441 847.7 11.6
816(15) 0.00430 847.2 11.8
878(16) 0.00370 846.7 12.1
836(16) 0.00408 846.2 12.3
854(15) 0.00435 845.7 12.6
850(15) 0.00425 845.1 12.9
865(16) 0.00401 844.6 13.2
871(16) 0.00378 844.1 13.5
829(16) 0.00413 843.6 13.8
822(15) 0.00452 843.1 14.2
840(15) 0.00440 842.6 14.5
859(16) 0.00404 842.1 14.9
848(16) 0.00406 841.6 15.3
879(16) 0.00399 841.1 15.7
853(15) 0.00436 840.6 16.1
852(15) 0.00423 840.1 16.6
841(16) 0.00402 839.5 17.1
878(16) 0.00379 839.0 17.6
842(16) 0.00411 838.5 18.2
865(15) 0.00430 838.0 18.7
839(15) 0.00429 837.5 19.4
862(16) 0.00395 837.0 20.0
852(16) 0.00402 836.5 20.7
830(15) 0.00435 836.0 21.5
831(15) 0.00447 835.5 22.2
829(15) 0.00423 835.0 23.1
833(16) 0.00415 834.5 24.0
860(16) 0.00397 833.9 25.0
847(15) 0.00421 833.4 26.0
835(15) 0.00444 832.9 27.2
875(16) 0.00403 832.4 28.4
862(16) 0.00390 831.9 29.7
818(15) 0.00431 831.4 31.2
846(15) 0.00427 830.9 32.8
843(15) 0.00439 830.4 34.6
828(16) 0.00411 829.9 36.6
822(16) 0.00401 829.4 38.8
851(16) 0.00411 828.9 41.4
836(15) 0.00441 828.3 44.3
875(15) 0.00427 827.8 47.9
905(16) 0.00382 827.3 52.1
882(16) 0.00378 826.8 57.4
889(16) 0.00395 826.3 64.0
878(15) 0.00421 825.8 72.3
917(16) 0.00405 825.3 82.9
919(16) 0.00370 824.8 96.2
930(17) 0.003420 824.3 112.8
899(16) 0.00387 823.8 133.1
967(16) 0.00382 823.3 157.3
945(16) 0.00393 822.7 185.5
1020(17) 0.003362 822.2 217.3
1050(18) 0.003092 821.7 251.7
1114(18) 0.003110 821.2 287.0
1123(17) 0.003275 820.7 320.4
1112(17) 0.003298 820.2 348.3
1195(19) 0.002915 819.7 366.5
1202(19) 0.002788 819.2 371.9
1212(19) 0.002839 818.7 363.8
1208(18) 0.003081 818.2 344.5
1148(18) 0.003155 817.7 317.9
1084(18) 0.003156 817.1 288.1
1000(17) 0.003395 816.6 258.3
1053(18) 0.003263 816.1 230.8
989(16) 0.00374 815.6 206.8
926(16) 0.00381 815.1 187.0
902(16) 0.00391 814.6 171.7
963(17) 0.003423 814.1 160.9
917(16) 0.00381 813.6 154.3
938(16) 0.00397 813.1 151.6
953(16) 0.00373 812.6 152.6
926(16) 0.00369 812.1 157.0
939(17) 0.00361 811.5 164.9
957(17) 0.00363 811.0 176.2
985(16) 0.00377 810.5 191.2
987(17) 0.00354 810.0 210.2
987(17) 0.00354 809.5 233.9
1049(18) 0.003197 809.0 262.7
1012(17) 0.003477 808.5 297.4
1046(17) 0.00356 808.0 338.7
1140(18) 0.003036 807.5 387.0
1169(18) 0.002935 807.0 443.1
1261(19) 0.002741 806.5 507.2
1327(19) 0.002720 806.0 579.4
1404(19) 0.002657 805.4 659.6
1542(21) 0.002221 804.9 747.0
1669(23) 0.001974 804.4 840.4
1725(22) 0.002026 803.9 937.9
1886(23) 0.001915 803.4 1036.5
2059(24) 0.001796 802.9 1132.1
2197(25) 0.001590 802.4 1219.6
2208(26) 0.001482 801.9 1292.9
2282(26) 0.001501 801.4 1345.8
2323(25) 0.001573 800.9 1372.8
2140(24) 0.001743 800.4 1371.2
2108(25) 0.001631 799.8 1340.9
2103(26) 0.001523 799.3 1285.3
1989(24) 0.001734 798.8 1209.8
1845(22) 0.002000 798.3 1120.7
1795(22) 0.002065 797.8 1024.0
1735(22) 0.002009 797.3 924.7
1585(22) 0.002018 796.8 826.9
1521(21) 0.002257 796.3 733.2
1460(20) 0.002527 795.8 645.7
1380(19) 0.002645 795.3 565.5
1287(19) 0.002701 794.8 493.2
1229(19) 0.002721 794.2 428.9
1199(19) 0.002911 793.7 372.6
1151(18) 0.003255 793.2 323.7
1135(18) 0.003218 792.7 281.9
1099(18) 0.003222 792.2 246.2
1068(18) 0.003098 791.7 216.2
1024(17) 0.003393 791.2 190.9
1016(17) 0.00364 790.7 169.7
981(16) 0.00370 790.2 152.0
933(16) 0.00373 789.7 137.1
971(17) 0.003420 789.2 124.5
942(16) 0.00371 788.6 113.9
924(16) 0.00401 788.1 104.8
850(15) 0.00420 787.6 96.9
926(16) 0.00370 787.1 90.1
874(16) 0.00392 786.6 84.1
879(16) 0.00408 786.1 78.7
897(16) 0.00411 785.6 74.0
838(15) 0.00420 785.1 69.7
855(16) 0.00392 784.6 65.8
860(16) 0.00395 784.1 62.2
808(15) 0.00443 783.6 59.0
844(15) 0.00442 783.0 56.0
794(15) 0.00441 782.5 53.2
827(16) 0.00399 782.0 50.7
820(16) 0.00414 781.5 48.3
802(15) 0.00453 781.0 46.2
837(15) 0.00444 780.5 44.1
844(16) 0.00413 780.0 42.3
795(15) 0.00421 779.5 40.5
810(15) 0.00434 779.0 38.9
782(15) 0.00465 778.5 37.4
801(15) 0.00467 778.0 35.9
812(15) 0.00436 777.4 34.6
809(16) 0.00409 776.9 33.4
789(15) 0.00439 776.4 32.2
775(14) 0.00476 775.9 31.1
815(15) 0.00458 775.4 30.1
732(14) 0.00478 774.9 29.1
773(16) 0.00413 774.4 28.5
770(15) 0.00450 773.9 27.7
767(14) 0.00488 773.4 26.9
754(14) 0.00492 772.9 26.2
769(15) 0.00461 772.4 25.5
796(16) 0.00411 771.8 24.8
758(15) 0.00471 771.3 24.2
786(15) 0.00475 770.8 23.6
762(14) 0.00487 770.3 23.1
729(15) 0.00471 769.8 22.6
746(15) 0.00439 769.3 22.1
780(15) 0.00448 768.8 21.7
800(15) 0.00462 768.3 21.3
730(14) 0.00505 767.8 20.9
735(15) 0.00470 767.3 20.6
805(16) 0.00403 766.8 20.3
785(15) 0.00440 766.2 20.0
803(15) 0.00466 765.7 19.7
782(15) 0.00465 765.2 19.5
745(14) 0.00476 764.7 19.3
763(15) 0.00431 764.2 19.1
756(15) 0.00461 763.7 18.9
779(14) 0.00477 763.2 18.8
769(15) 0.00468 762.7 18.7
772(15) 0.00441 762.2 18.7
782(15) 0.00421 761.7 18.6
729(14) 0.00486 761.2 18.6
759(14) 0.00495 760.6 18.6
755(15) 0.00470 760.1 18.7
765(15) 0.00446 759.6 18.8
750(15) 0.00466 759.1 18.9
747(14) 0.00481 758.6 19.1
756(14) 0.00492 758.1 19.4
778(15) 0.00458 757.6 19.7
774(15) 0.00441 757.1 20.0
686(14) 0.00518 756.6 20.5
746(15) 0.00474 756.1 21.0
773(14) 0.00480 755.6 21.6
743(15) 0.00443 755.0 22.4
735(15) 0.00452 754.5 23.4
768(15) 0.00451 754.0 24.6
748(14) 0.00483 753.5 26.2
776(14) 0.00478 753.0 28.6
754(15) 0.00456 752.5 32.7
758(15) 0.00439 752.0 40.8
750(15) 0.00469 751.5 56.7
829(15) 0.00440 751.0 86.1
863(15) 0.00431 750.5 134.9
906(16) 0.00392 750.0 205.2
1006(18) 0.003252 749.4 290.5
1093(18) 0.003208 748.9 373.4
1172(18) 0.003145 748.4 427.0
1329(19) 0.002791 747.9 427.4
1242(19) 0.002767 747.4 375.2
1079(18) 0.002987 746.9 294.3
928(16) 0.00377 746.4 211.7
833(15) 0.00450 745.9 144.7
779(15) 0.00475 745.4 99.4
803(15) 0.00439 744.9 73.8
791(16) 0.00412 744.4 61.9
798(15) 0.00432 743.8 58.1
775(14) 0.00480 743.3 58.8
783(15) 0.00468 742.8 61.8
753(15) 0.00457 742.3 66.3
804(16) 0.00405 741.8 71.9
803(15) 0.00433 741.3 78.6
790(15) 0.00474 740.8 86.4
805(15) 0.00437 740.3 95.2
786(15) 0.00434 739.8 105.0
795(15) 0.00419 739.3 115.8
858(16) 0.00398 738.8 127.4
865(15) 0.00432 738.2 139.9
872(16) 0.00410 737.7 153.0
836(15) 0.00417 737.2 166.5
946(17) 0.003503 736.7 180.1
937(16) 0.00375 736.2 193.4
879(15) 0.00426 735.7 205.8
894(16) 0.00400 735.2 216.7
920(16) 0.00369 734.7 225.6
910(16) 0.00372 734.2 231.7
889(16) 0.00402 733.7 234.7
878(15) 0.00422 733.2 234.3
856(15) 0.00416 732.6 230.5
895(16) 0.00381 732.1 223.6
860(16) 0.00403 731.6 214.1
901(16) 0.00403 731.1 202.6
857(15) 0.00437 730.6 189.7
836(15) 0.00418 730.1 176.1
827(16) 0.00414 729.6 162.1
855(16) 0.00399 729.1 148.3
802(15) 0.00450 728.6 134.9
795(15) 0.00470 728.1 122.1
821(15) 0.00424 727.6 110.1
795(15) 0.00422 727.0 98.9
807(15) 0.00426 726.5 88.7
764(14) 0.00486 726.0 79.4
752(14) 0.00493 725.5 71.1
756(15) 0.00448 725.0 63.6
755(15) 0.00440 724.5 57.0
741(15) 0.00466 724.0 51.2
740(14) 0.00491 723.5 46.1
771(14) 0.00477 723.0 41.7
766(15) 0.00456 722.5 37.8
711(15) 0.00460 722.0 34.5
743(15) 0.00462 721.4 31.6
708(14) 0.00527 720.9 29.1
722(14) 0.00509 720.4 26.9
702(14) 0.00497 719.9 25.0
706(15) 0.00464 719.4 23.4
703(14) 0.00504 718.9 21.9
696(14) 0.00537 718.4 20.6
733(14) 0.00497 717.9 19.5
727(15) 0.00463 717.4 18.5
714(15) 0.00453 716.9 17.5
717(14) 0.00480 716.4 16.7
752(14) 0.00495 715.9 15.9
742(14) 0.00495 715.3 15.2
698(14) 0.00499 714.8 14.6
706(14) 0.00477 714.3 14.0
690(14) 0.00505 713.8 13.5
719(14) 0.00518 713.3 13.0
699(14) 0.00516 712.8 12.5
733(15) 0.00464 712.3 12.0
697(14) 0.00483 711.8 11.6
687(14) 0.00506 711.3 11.3
712(14) 0.00522 710.8 11.0
703(14) 0.00513 710.3 10.7
674(14) 0.00512 709.7 10.3
692(14) 0.00489 709.2 10.1
709(14) 0.00498 708.7 9.8
692(14) 0.00537 708.2 9.5
715(14) 0.00494 707.7 9.3
663(14) 0.00523 707.2 9.1
724(15) 0.00462 706.7 8.9
708(14) 0.00505 706.2 8.8
682(14) 0.00541 705.7 8.6
721(14) 0.00476 705.2 8.5
707(14) 0.00480 704.7 8.4
710(14) 0.00482 704.1 8.4
665(13) 0.00553 703.6 8.3
696(14) 0.00537 703.1 8.4
702(14) 0.00490 702.6 8.4
733(15) 0.00433 702.1 8.5
705(14) 0.00486 701.6 8.7
722(14) 0.00504 701.1 8.9
684(14) 0.00547 700.6 9.2
706(14) 0.00492 700.1 9.6
704(15) 0.00466 699.6 10.0
692(14) 0.00507 699.1 10.5
704(14) 0.00522 698.5 11.0
733(14) 0.00510 698.0 11.6
706(14) 0.00491 697.5 12.2
727(15) 0.00431 697.0 12.8
698(14) 0.00499 696.5 13.3
687(14) 0.00539 696.0 13.7
706(14) 0.00521 695.5 14.0
715(14) 0.00483 695.0 14.1
723(15) 0.00451 694.5 14.0
727(14) 0.00480 694.0 13.7
692(14) 0.00536 693.5 13.2
680(14) 0.00545 692.9 12.6
681(14) 0.00515 692.4 11.9
643(14) 0.00510 691.9 11.2
699(14) 0.00491 691.4 10.4
692(14) 0.00533 690.9 9.7
665(13) 0.00554 690.4 9.0
668(14) 0.00536 689.9 8.3
694(14) 0.00478 689.4 7.7
674(14) 0.00510 688.9 7.1
668(13) 0.00553 688.4 6.7
676(14) 0.00537 687.9 6.2
667(14) 0.00519 687.3 5.9
646(14) 0.00516 686.8 5.5
663(14) 0.00513 686.3 5.3
675(14) 0.00547 685.8 5.0
716(14) 0.00498 685.3 4.8
719(14) 0.00484 684.8 4.6
690(14) 0.00495 684.3 4.5
669(14) 0.00530 683.8 4.4
689(14) 0.00537 683.3 4.2
698(14) 0.00500 682.8 4.1
681(14) 0.00487 682.3 4.1
671(14) 0.00498 681.7 4.0
688(14) 0.00518 681.2 3.9
684(14) 0.00542 680.7 3.8
664(14) 0.00528 680.2 3.8
665(14) 0.00505 679.7 3.7
668(14) 0.00523 679.2 3.7
683(14) 0.00523 678.7 3.6
668(13) 0.00554 678.2 3.6
663(14) 0.00515 677.7 3.6
671(14) 0.00484 677.2 3.5
673(14) 0.00507 676.7 3.5
641(13) 0.00563 676.1 3.5
703(14) 0.00529 675.6 3.5
652(14) 0.00533 675.1 3.5
658(14) 0.00497 674.6 3.4
670(14) 0.00519 674.1 3.4
702(14) 0.00511 673.6 3.4
680(14) 0.00548 673.1 3.4
689(14) 0.00492 672.6 3.4
676(14) 0.00487 672.1 3.5
679(14) 0.00509 671.6 3.5
688(14) 0.00525 671.1 3.5
662(13) 0.00563 670.7 3.5
640(13) 0.00556 670.3 3.6
674(14) 0.00479 669.9 3.6
677(14) 0.00503 669.5 3.6
677(13) 0.00553 669.1 3.7
659(13) 0.00553 668.8 3.7
643(14) 0.00543 668.4 3.8
673(14) 0.00482 668.0 3.8
664(14) 0.00508 667.6 3.9
631(13) 0.00587 667.2 4.0
705(14) 0.00525 666.9 4.0
677(14) 0.00515 666.5 4.1
698(15) 0.00465 666.1 4.6
685(14) 0.00514 665.7 4.7
678(13) 0.00549 665.4 4.8
702(14) 0.00525 665.0 4.9
633(13) 0.00565 664.6 5.0
638(14) 0.00530 664.2 5.1
710(15) 0.00473 663.8 5.2
679(14) 0.00545 663.5 5.3
686(14) 0.00528 663.1 5.4
666(14) 0.00515 662.7 5.5
655(14) 0.00521 662.3 5.5
655(14) 0.00541 661.9 5.6
677(13) 0.00552 661.6 5.7
691(14) 0.00513 661.2 5.7
642(14) 0.00528 660.8 5.8
649(14) 0.00526 660.4 5.8
642(14) 0.00549 660.1 5.8
647(13) 0.00573 659.7 5.8
652(13) 0.00551 659.3 5.8
664(14) 0.00515 658.9 5.8
624(13) 0.00553 658.5 5.8
627(13) 0.00574 658.2 5.7
692(14) 0.00532 657.8 5.6
684(14) 0.00501 657.4 5.6
634(14) 0.00545 657.0 5.5
671(14) 0.00503 656.7 5.4
655(13) 0.00552 656.3 5.3
649(13) 0.00573 655.9 5.3
683(14) 0.00501 655.5 5.2
670(14) 0.00480 655.1 5.1
675(14) 0.00503 654.8 5.0
663(13) 0.00558 654.4 4.9
650(13) 0.00567 654.0 4.8
658(14) 0.00537 653.6 4.7
651(14) 0.00507 653.2 4.7
650(13) 0.00550 652.9 4.6
652(13) 0.00562 652.5 4.5
658(13) 0.00558 652.1 4.5
654(14) 0.00529 651.7 4.4
657(14) 0.00494 651.4 4.4
638(13) 0.00558 651.0 4.4
630(13) 0.00586 650.6 4.3
645(13) 0.00579 650.2 4.3
670(14) 0.00523 649.8 4.3
678(15) 0.00467 649.5 4.3
666(14) 0.00525 649.1 4.3
652(13) 0.00572 648.7 4.3
628(13) 0.00583 648.3 4.4
627(13) 0.00553 647.9 4.4
657(14) 0.00499 647.6 4.5
651(14) 0.00539 647.2 4.6
658(13) 0.00567 646.8 4.7
652(13) 0.00552 646.4 4.8
661(14) 0.00527 646.1 4.9
658(14) 0.00517 645.7 5.0
650(14) 0.00535 645.3 5.2
634(13) 0.00586 644.9 5.4
656(13) 0.00557 644.5 5.6
653(14) 0.00531 644.2 5.9
655(14) 0.00513 643.8 6.2
651(14) 0.00534 643.4 6.5
654(13) 0.00572 643.0 6.9
641(14) 0.00545 642.6 7.3
657(14) 0.00508 642.3 7.8
616(13) 0.00558 641.9 8.4
602(13) 0.00587 641.5 9.0
623(13) 0.00593 641.1 9.8
638(13) 0.00562 640.8 10.7
645(14) 0.00542 640.4 11.8
654(14) 0.00543 640.0 13.1
702(14) 0.00512 639.6 14.7
678(13) 0.00550 639.2 16.6
694(14) 0.00491 638.9 19.1
674(14) 0.00487 638.5 22.4
660(14) 0.00522 638.1 27.2
696(14) 0.00521 637.7 34.9
680(14) 0.00547 637.3 47.7
683(14) 0.00509 637.0 69.3
691(14) 0.00484 636.6 104.1
740(15) 0.00473 636.2 156.8
793(15) 0.00456 635.8 229.7
862(15) 0.00433 635.5 320.1
927(16) 0.00372 635.1 417.6
1061(18) 0.003107 634.7 502.4
1161(18) 0.003035 634.3 547.2
1200(18) 0.003069 633.9 532.4
1107(17) 0.003289 633.6 465.0
956(17) 0.00356 633.2 371.0
903(17) 0.00358 632.8 275.0
815(15) 0.00423 632.4 192.2
758(14) 0.00490 632.0 129.0
697(14) 0.00530 631.7 85.3
714(14) 0.00494 631.3 57.4
688(15) 0.00468 630.9 40.6
667(14) 0.00515 630.5 30.6
642(13) 0.00579 630.2 24.4
656(13) 0.00557 629.8 20.4
630(13) 0.00558 629.4 17.5
663(14) 0.00488 629.0 15.3
630(13) 0.00555 628.6 13.6
658(13) 0.00564 628.3 12.1
655(13) 0.00560 627.9 10.9
625(13) 0.00559 627.5 9.9
647(14) 0.00508 627.1 9.0
657(14) 0.00535 626.8 8.3
660(13) 0.00561 626.4 7.6
636(13) 0.00574 626.0 7.1
602(13) 0.00586 625.6 6.6
591(13) 0.00582 625.2 6.1
650(14) 0.00536 624.9 5.7
654(13) 0.00566 624.5 5.4
660(14) 0.00527 624.1 5.1
625(14) 0.00548 623.7 4.9
589(13) 0.00599 623.3 4.6
632(13) 0.00563 623.0 4.4
622(13) 0.00596 622.6 4.2
598(13) 0.00603 622.2 4.0
613(14) 0.00538 621.8 3.8
618(13) 0.00552 621.5 3.7
650(14) 0.00547 621.1 3.5
605(13) 0.00615 620.7 3.4
598(13) 0.00583 620.3 3.3
613(13) 0.00553 619.9 3.2
608(13) 0.00584 619.6 3.1
602(13) 0.00592 619.2 3.0
596(13) 0.00624 618.8 2.9
615(13) 0.00551 618.4 2.8
639(14) 0.00526 618.0 2.7
662(14) 0.00522 617.7 2.7
610(13) 0.00602 617.3 2.6
599(13) 0.00622 616.9 2.5
594(13) 0.00589 616.5 2.5
624(14) 0.00531 616.2 2.4
630(13) 0.00572 615.8 2.4
618(13) 0.00595 615.4 2.3
614(13) 0.00605 615.0 2.3
592(13) 0.00591 614.6 2.2
638(14) 0.00505 614.3 2.2
620(13) 0.00566 613.9 2.2
663(13) 0.00550 613.5 2.1
617(13) 0.00595 613.1 2.1
608(13) 0.00563 612.7 2.1
621(14) 0.00518 612.4 2.0
599(13) 0.00592 612.0 2.0
649(13) 0.00577 611.6 2.0
615(13) 0.00598 611.2 2.0
606(13) 0.00577 610.9 1.9
619(14) 0.00540 610.5 1.9
627(13) 0.00551 610.1 1.9
617(13) 0.00600 609.7 1.9
603(13) 0.00609 609.4 1.9
592(13) 0.00582 609.0 1.9
606(14) 0.00547 608.7 1.9
620(13) 0.00568 608.4 1.8
629(13) 0.00594 608.1 1.8
591(13) 0.00623 607.8 1.8
604(13) 0.00564 607.4 1.8
639(14) 0.00509 607.1 1.8
627(14) 0.00539 606.8 1.8
619(13) 0.00601 606.5 1.8
586(13) 0.00614 606.2 1.8
620(13) 0.00558 605.8 1.8
600(13) 0.00571 605.5 1.8
642(14) 0.00537 605.2 1.8
603(13) 0.00622 604.9 1.8
625(13) 0.00558 604.6 1.8
617(13) 0.00549 604.2 1.8
597(13) 0.00581 603.9 1.8
592(13) 0.00602 603.6 1.9
613(13) 0.00606 603.3 1.9
599(13) 0.00571 603.0 1.9
568(13) 0.00610 602.6 1.9
593(13) 0.00591 602.3 2.0
595(13) 0.00611 602.0 2.0
596(13) 0.00623 601.7 2.0
585(13) 0.00600 601.3 2.1
579(13) 0.00589 601.0 2.1
577(13) 0.00601 600.7 2.2
569(12) 0.00645 600.4 2.3
613(13) 0.00600 600.1 2.4
627(14) 0.00541 599.7 2.5
570(13) 0.00580 599.4 2.6
604(13) 0.00563 599.1 2.7
586(13) 0.00625 598.8 2.9
585(13) 0.00639 598.5 3.1
571(13) 0.00617 598.1 3.4
627(14) 0.00513 597.8 3.9
603(13) 0.00582 597.5 4.5
606(13) 0.00613 597.2 5.5
608(13) 0.00612 596.9 7.2
581(13) 0.00620 596.5 9.8
598(14) 0.00535 596.2 13.8
633(14) 0.00547 595.9 19.5
602(13) 0.00616 595.6 26.7
617(13) 0.00594 595.3 35.1
618(13) 0.00559 594.9 43.5
605(14) 0.00532 594.6 49.9
587(13) 0.00588 594.3 52.1
595(13) 0.00631 594.0 49.2
612(13) 0.00591 593.7 42.4
597(13) 0.00595 593.3 34.0
602(14) 0.00541 593.0 25.7
608(13) 0.00562 592.7 18.6
635(13) 0.00580 592.4 13.2
609(13) 0.00589 592.0 9.4
563(13) 0.00614 591.7 7.0
568(13) 0.00586 591.4 5.4
611(13) 0.00567 591.1 4.4
595(13) 0.00624 590.8 3.8
565(12) 0.00641 590.4 3.4
605(13) 0.00566 590.1 3.1
615(14) 0.00544 589.8 2.9
583(13) 0.00593 589.5 2.7
562(12) 0.00662 589.2 2.6
587(13) 0.00601 588.8 2.5
563(13) 0.00627 588.5 2.4
579(13) 0.00582 588.2 2.3
606(13) 0.00577 587.9 2.2
603(13) 0.00616 587.6 2.2
627(13) 0.00554 587.2 2.1
593(13) 0.00577 586.9 2.1
580(13) 0.00598 586.6 2.0
591(13) 0.00606 586.3 2.0
586(13) 0.00638 586.0 2.0
569(13) 0.00602 585.6 1.9
566(13) 0.00590 585.3 1.9
608(13) 0.00572 585.0 1.9
583(13) 0.00622 584.7 1.9
575(12) 0.00649 584.3 1.9
589(13) 0.00594 584.0 1.9
589(13) 0.00573 583.7 1.8
584(13) 0.00598 583.4 1.8
566(12) 0.00663 583.1 1.8
592(13) 0.00623 582.7 1.8
570(13) 0.00624 582.4 1.8
582(13) 0.00557 582.1 1.8
569(13) 0.00599 581.8 1.8
573(12) 0.00653 581.5 1.8
588(13) 0.00621 581.1 1.8
554(13) 0.00628 580.8 1.8
551(13) 0.00591 580.5 1.9
588(13) 0.00584 580.2 1.9
568(12) 0.00649 579.9 1.9
610(13) 0.00614 579.5 1.9
607(13) 0.00558 579.2 1.9
568(13) 0.00568 578.9 1.9
557(13) 0.00637 578.6 1.9
571(12) 0.00643 578.3 1.9
564(12) 0.00663 577.9 1.9
559(13) 0.00629 577.6 1.9
595(14) 0.00539 577.3 2.0
570(13) 0.00608 577.0 2.0
593(13) 0.00631 576.6 2.0
558(12) 0.00654 576.3 2.0
587(13) 0.00594 576.0 2.0
576(13) 0.00581 575.7 2.1
592(13) 0.00572 575.4 2.1
568(12) 0.00652 575.0 2.1
556(12) 0.00654 574.7 2.1
563(13) 0.00616 574.4 2.1
569(13) 0.00601 574.1 2.2
578(13) 0.00603 573.8 2.2
577(12) 0.00642 573.4 2.2
591(13) 0.00583 573.1 2.2
577(13) 0.00597 572.8 2.3
576(13) 0.00587 572.5 2.3
583(13) 0.00610 572.2 2.3
596(13) 0.00623 571.8 2.4
581(13) 0.00603 571.5 2.4
556(13) 0.00612 571.2 2.5
601(13) 0.00563 570.9 2.5
579(13) 0.00613 570.6 2.5
551(12) 0.00676 570.3 2.6
560(13) 0.00614 570.1 2.6
573(13) 0.00587 569.8 2.6
584(13) 0.00591 569.6 2.7
559(12) 0.00659 569.3 2.7
566(12) 0.00657 569.1 2.8
598(13) 0.00573 568.8 2.8
570(13) 0.00573 568.6 2.9
560(13) 0.00613 568.4 2.9
548(12) 0.00669 568.1 3.0
605(13) 0.00610 567.9 3.0
563(13) 0.00615 567.6 3.1
561(13) 0.00590 567.4 3.1
595(13) 0.00584 567.1 3.2
586(13) 0.00635 566.9 3.3
574(12) 0.00645 566.6 3.3
551(12) 0.00655 566.4 3.4
566(13) 0.00581 566.2 3.5
570(13) 0.00609 565.9 3.5
549(12) 0.00684 565.7 3.6
572(12) 0.00645 565.4 3.7
548(12) 0.00643 565.2 3.8
593(14) 0.00545 564.9 3.8
598(13) 0.00596 564.7 3.9
565(12) 0.00657 564.5 4.0
591(13) 0.00624 564.2 4.1
568(13) 0.00625 564.0 4.2
589(13) 0.00565 563.7 4.3
566(13) 0.00586 563.5 4.4
578(12) 0.00647 563.2 4.5
568(12) 0.00642 563.0 4.7
598(13) 0.00580 562.8 4.8
596(13) 0.00557 562.5 4.9
566(13) 0.00610 562.3 5.1
569(12) 0.00647 562.0 5.2
578(13) 0.00633 561.8 5.3
588(13) 0.00600 561.5 5.5
573(13) 0.00592 561.3 5.7
557(13) 0.00622 561.0 5.8
553(12) 0.00663 560.8 6.0
546(12) 0.00653 560.6 6.2
547(13) 0.00631 560.3 6.4
549(13) 0.00622 560.1 6.6
544(12) 0.00651 559.8 6.9
555(12) 0.00669 559.6 7.1
554(13) 0.00637 559.3 7.4
567(13) 0.00591 559.1 7.7
549(13) 0.00639 558.9 8.0
564(13) 0.00636 558.6 8.3
550(12) 0.00679 558.4 8.7
537(12) 0.00649 558.1 9.1
561(13) 0.00608 557.9 9.5
538(13) 0.00634 557.6 10.0
578(13) 0.00615 557.4 10.5
593(13) 0.00629 557.2 11.0
575(13) 0.00609 556.9 11.6
584(13) 0.00576 556.7 12.3
574(13) 0.00606 556.4 13.0
576(12) 0.00644 556.2 13.8
553(12) 0.00665 555.9 14.6
604(13) 0.00564 555.7 15.6
587(13) 0.00553 555.5 16.6
578(13) 0.00613 555.2 17.7
568(12) 0.00648 555.0 19.0
583(12) 0.00646 554.7 20.3
596(13) 0.00586 554.5 21.8
581(13) 0.00558 554.2 23.3
585(13) 0.00609 554.0 25.0
594(13) 0.00628 553.7 26.9
574(12) 0.00646 553.5 28.9
582(13) 0.00588 553.3 31.0
543(13) 0.00603 553.0 33.3
590(13) 0.00576 552.8 35.7
586(13) 0.00625 552.5 38.3
579(13) 0.00639 552.3 41.1
597(13) 0.00572 552.0 44.0
565(13) 0.00582 551.8 47.0
610(13) 0.00562 551.6 50.2
622(13) 0.00594 551.3 53.6
585(13) 0.00632 551.1 57.0
593(13) 0.00598 550.8 60.5
591(13) 0.00564 550.6 64.1
576(13) 0.00607 550.3 67.8
644(13) 0.00582 550.1 71.5
622(13) 0.00575 549.9 75.1
642(14) 0.00525 549.6 78.7
664(14) 0.00505 549.4 82.2
654(14) 0.00530 549.1 85.4
642(13) 0.00579 548.9 88.5
644(13) 0.00554 548.6 91.2
639(14) 0.00537 548.4 93.5
625(13) 0.00556 548.2 95.4
678(14) 0.00507 547.9 96.8
626(13) 0.00595 547.7 97.7
645(14) 0.00544 547.4 98.0
653(14) 0.00514 547.2 97.8
615(13) 0.00557 546.9 97.0
610(13) 0.00565 546.7 95.6
625(13) 0.00601 546.4 93.8
608(13) 0.00577 546.2 91.5
616(13) 0.00552 546.0 88.8
623(13) 0.00550 545.7 85.8
600(13) 0.00598 545.5 82.6
612(13) 0.00603 545.2 79.1
615(13) 0.00563 545.0 75.6
598(13) 0.00560 544.7 71.9
606(13) 0.00568 544.5 68.3
595(13) 0.00606 544.3 64.6
586(13) 0.00639 544.0 61.0
595(13) 0.00586 543.8 57.5
586(13) 0.00556 543.5 54.0
594(13) 0.00583 543.3 50.7
567(12) 0.00648 543.0 47.5
575(12) 0.00648 542.8 44.5
579(13) 0.00607 542.6 41.6
606(14) 0.00539 542.3 38.8
574(13) 0.00613 542.1 36.2
560(12) 0.00657 541.8 33.8
542(12) 0.00693 541.6 31.5
579(13) 0.00598 541.3 29.3
590(14) 0.00530 541.1 27.4
555(13) 0.00640 540.9 25.5
577(12) 0.00643 540.6 23.8
543(12) 0.00685 540.4 22.2
554(13) 0.00622 540.1 20.8
554(13) 0.00595 539.9 19.5
602(13) 0.00565 539.6 18.2
577(12) 0.00646 539.4 17.1
572(13) 0.00637 539.1 16.1
534(12) 0.00648 538.9 15.2
564(13) 0.00611 538.7 14.4
577(13) 0.00605 538.4 13.6
551(12) 0.00675 538.2 12.9
554(12) 0.00668 537.9 12.3
537(12) 0.00669 537.7 11.7
533(13) 0.00613 537.4 11.2
563(13) 0.00602 537.2 10.7
551(12) 0.00673 537.0 10.3
557(13) 0.00637 536.7 10.0
535(12) 0.00656 536.5 9.6
543(13) 0.00618 536.2 9.3
587(13) 0.00588 536.0 9.1
568(12) 0.00658 535.7 8.8
564(13) 0.00632 535.5 8.6
524(12) 0.00661 535.3 8.5
535(13) 0.00628 535.0 8.3
570(13) 0.00621 534.8 8.2
568(12) 0.00646 534.5 8.1
525(12) 0.00681 534.3 8.1
544(13) 0.00610 534.0 8.0
565(13) 0.00590 533.8 8.0
551(13) 0.00637 533.5 8.1
514(12) 0.00719 533.3 8.2
509(12) 0.00693 533.1 8.3
546(13) 0.00609 532.8 8.6
535(13) 0.00632 532.6 8.9
516(12) 0.00711 532.3 9.4
545(12) 0.00681 532.1 10.0
587(13) 0.00599 531.8 10.9
550(13) 0.00608 531.6 12.0
572(13) 0.00605 531.4 13.6
563(12) 0.00653 531.1 15.6
578(12) 0.00645 530.9 18.1
547(13) 0.00632 530.6 21.2
564(13) 0.00565 530.4 25.0
553(13) 0.00625 530.1 29.4
587(13) 0.00620 529.9 34.4
575(12) 0.00649 529.7 39.6
583(13) 0.00599 529.4 44.9
582(13) 0.00557 529.2 49.7
567(13) 0.00638 528.9 53.3
590(13) 0.00629 528.7 55.1
601(13) 0.00610 528.4 54.6
549(13) 0.00640 528.2 51.9
524(13) 0.00619 528.0 47.7
553(13) 0.00627 527.7 42.5
560(12) 0.00663 527.5 37.0
559(12) 0.00663 527.2 31.7
604(13) 0.00575 527.0 26.8
536(12) 0.00644 526.7 22.4
537(12) 0.00663 526.5 18.7
542(12) 0.00677 526.2 15.7
554(12) 0.00662 526.0 13.2
528(12) 0.00643 525.8 11.2
519(12) 0.00642 525.5 9.6
534(12) 0.00642 525.3 8.4
518(12) 0.00718 525.0 7.5
567(13) 0.00633 524.8 6.8
524(12) 0.00660 524.5 6.2
559(13) 0.00591 524.3 5.7
583(13) 0.00585 524.1 5.3
543(12) 0.00685 523.8 5.0
554(12) 0.00644 523.6 4.7
534(12) 0.00651 523.3 4.4
516(12) 0.00655 523.1 4.2
511(12) 0.00701 522.8 4.0
513(12) 0.00726 522.6 3.8
507(12) 0.00680 522.4 3.7
484(12) 0.00692 522.1 3.5
511(12) 0.00672 521.9 3.4
513(12) 0.00695 521.6 3.3
531(12) 0.00699 521.4 3.1
501(12) 0.00671 521.1 3.0
528(13) 0.00636 520.9 2.9
513(12) 0.00676 520.7 2.8
530(12) 0.00676 520.4 2.7
526(12) 0.00700 520.2 2.7
514(12) 0.00659 519.9 2.6
525(12) 0.00645 519.7 2.5
523(12) 0.00672 519.4 2.5
528(12) 0.00688 519.2 2.4
498(12) 0.00754 518.9 2.3
507(12) 0.00693 518.7 2.3
521(13) 0.00631 518.5 2.2
522(12) 0.00646 518.2 2.2
500(12) 0.00737 518.0 2.1
531(12) 0.00691 517.7 2.1
534(12) 0.00644 517.5 2.0
528(13) 0.00601 517.2 2.0
533(12) 0.00670 517.0 2.0
529(12) 0.00702 516.8 1.9
516(12) 0.00722 516.5 1.9
520(12) 0.00659 516.3 1.8
506(13) 0.00635 516.0 1.8
522(12) 0.00654 515.8 1.8
542(12) 0.00683 515.5 1.7
526(12) 0.00707 515.3 1.7
528(12) 0.00647 515.1 1.7
524(13) 0.00631 514.8 1.7
530(12) 0.00663 514.6 1.6
526(12) 0.00703 514.3 1.6
529(12) 0.00699 514.1 1.6
532(12) 0.00647 513.8 1.6
492(12) 0.00687 513.6 1.5
502(12) 0.00688 513.4 1.5
519(12) 0.00720 513.1 1.5
532(12) 0.00678 512.9 1.5
511(12) 0.00669 512.6 1.5
501(12) 0.00677 512.4 1.4
494(12) 0.00708 512.1 1.4
535(12) 0.00692 511.9 1.4
501(12) 0.00715 511.6 1.4
533(12) 0.00641 511.4 1.4
551(13) 0.00617 511.2 1.3
530(12) 0.00669 510.9 1.3
516(12) 0.00719 510.7 1.3
506(12) 0.00704 510.4 1.3
506(12) 0.00669 510.2 1.3
501(12) 0.00695 509.9 1.3
506(12) 0.00701 509.7 1.3
517(12) 0.00719 509.5 1.2
507(12) 0.00685 509.2 1.2
525(12) 0.00646 509.0 1.2
535(12) 0.00657 508.7 1.2
515(12) 0.00703 508.5 1.2
505(12) 0.00736 508.2 1.2
510(12) 0.00688 508.0 1.2
521(12) 0.00644 507.8 1.2
494(12) 0.00721 507.5 1.1
534(12) 0.00686 507.3 1.1
517(12) 0.00719 507.0 1.1
527(12) 0.00652 506.8 1.1
482(12) 0.00688 506.5 1.1
487(12) 0.00720 506.3 1.1
512(12) 0.00716 506.0 1.1
498(12) 0.00748 505.8 1.1
526(12) 0.00665 505.6 1.1
495(12) 0.00663 505.3 1.1
512(12) 0.00680 505.3 1.0
548(12) 0.00660 505.2 1.0
517(12) 0.00721 505.1 1.0
511(12) 0.00677 505.0 1.0
484(12) 0.00673 504.9 1.0
493(12) 0.00719 504.8 1.0
510(12) 0.00728 504.8 1.0
516(12) 0.00718 504.7 1.0
500(12) 0.00715 504.6 1.0
462(12) 0.00740 504.5 1.0
520(12) 0.00663 504.4 1.0
502(12) 0.00736 504.3 1.0
498(12) 0.00750 504.3 1.0
522(12) 0.00663 504.2 1.0
511(13) 0.00637 504.1 1.0
531(13) 0.00631 504.0 1.0
508(12) 0.00736 503.9 0.9
494(12) 0.00716 503.8 0.9
529(12) 0.00657 503.8 0.9
504(12) 0.00672 503.7 0.9
482(12) 0.00716 503.6 0.9
492(11) 0.00757 503.5 0.9
489(12) 0.00740 503.4 0.9
524(13) 0.00632 503.3 0.9
511(12) 0.00667 503.3 0.9
524(12) 0.00660 503.2 0.9
509(12) 0.00727 503.1 0.9
489(12) 0.00730 503.0 0.9
536(13) 0.00599 502.9 0.9
513(12) 0.00666 502.8 0.9
496(12) 0.00716 502.8 0.8
541(12) 0.00688 502.7 0.8
500(12) 0.00696 502.6 0.8
494(12) 0.00685 502.5 0.8
500(12) 0.00688 502.4 0.8
504(12) 0.00720 502.3 0.8
520(12) 0.00715 502.3 0.8
505(12) 0.00658 502.2 0.8
478(12) 0.00677 502.1 0.8
499(12) 0.00695 502.0 0.8
483(11) 0.00763 501.9 0.8
505(12) 0.00736 501.8 0.8
541(13) 0.00629 501.8 0.8
520(12) 0.00641 501.7 0.8
500(12) 0.00690 501.6 0.8
519(12) 0.00707 501.5 0.8
535(12) 0.00693 501.4 0.8
504(12) 0.00696 501.3 0.8
534(13) 0.00607 501.3 0.8
516(12) 0.00690 501.2 0.8
514(12) 0.00722 501.1 0.8
514(12) 0.00724 501.0 0.8
496(12) 0.00724 500.9 0.8
541(13) 0.00579 500.8 0.8
509(12) 0.00687 500.8 0.8
518(12) 0.00717 500.7 0.8
496(12) 0.00750 500.6 0.8
466(11) 0.00763 500.5 0.8
492(12) 0.00673 500.4 0.8
528(12) 0.00669 500.3 0.8
507(12) 0.00727 500.3 0.8
509(12) 0.00719 500.2 0.8
511(12) 0.00688 500.1 0.9
525(13) 0.00618 500.0 0.9
525(12) 0.00665 499.9 0.9
508(12) 0.00733 499.8 0.9
496(12) 0.00750 499.8 0.9
525(12) 0.00676 499.7 0.9
511(12) 0.00650 499.6 0.9
453(11) 0.00791 499.5 1.0
492(12) 0.00750 499.4 1.0
513(12) 0.00708 499.3 1.0
491(12) 0.00705 499.3 1.0
469(12) 0.00707 499.2 1.1
497(12) 0.00692 499.1 1.1
499(12) 0.00751 499.0 1.1
484(12) 0.00744 498.9 1.2
500(12) 0.00701 498.8 1.2
509(12) 0.00663 498.8 1.3
509(12) 0.00682 498.7 1.3
492(12) 0.00753 498.6 1.3
505(12) 0.00701 498.5 1.4
493(12) 0.00679 498.4 1.5
477(12) 0.00722 498.3 1.5
493(12) 0.00709 498.3 1.6
485(11) 0.00772 498.2 1.7
494(12) 0.00711 498.1 1.7
522(13) 0.00630 498.0 2.0
507(12) 0.00659 497.9 2.1
529(12) 0.00667 497.8 2.2
492(11) 0.00758 497.8 2.2
488(12) 0.00732 497.7 2.3
490(12) 0.00706 497.6 2.4
505(12) 0.00697 497.5 2.5
504(12) 0.00726 497.4 2.6
518(12) 0.00713 497.3 2.7
536(12) 0.00641 497.3 2.8
515(12) 0.00658 497.2 2.9
482(12) 0.00727 497.1 3.0
472(11) 0.00793 497.0 3.1
500(12) 0.00740 496.9 3.2
495(12) 0.00708 496.8 3.9
526(13) 0.00604 496.8 4.0
503(12) 0.00679 496.7 4.0
523(12) 0.00704 496.6 4.1
498(12) 0.00737 496.5 4.1
519(12) 0.00667 496.4 4.2
508(13) 0.00632 496.3 4.2
461(11) 0.00757 496.3 4.2
490(11) 0.00762 496.2 4.2
480(11) 0.00760 496.1 4.2
518(12) 0.00670 496.0 4.1
495(12) 0.00668 495.9 4.1
481(12) 0.00737 495.8 4.1
546(12) 0.00675 495.8 4.0
506(12) 0.00723 495.7 4.0
483(12) 0.00732 495.6 3.9
502(12) 0.00654 495.5 3.9
467(12) 0.00731 495.4 3.8
471(11) 0.00781 495.3 3.8
517(12) 0.00687 495.2 3.7
497(12) 0.00697 495.0 3.7
523(13) 0.00639 494.9 3.6
512(12) 0.00657 494.7 3.6
477(11) 0.00781 494.6 3.6
504(12) 0.00700 494.4 3.5
512(12) 0.00654 494.2 3.5
493(12) 0.00713 494.1 3.5
514(12) 0.00680 493.9 3.5
484(11) 0.00772 493.8 3.5
468(12) 0.00756 493.6 3.5
482(12) 0.00721 493.5 3.5
493(12) 0.00700 493.3 3.5
493(12) 0.00730 493.2 3.5
465(11) 0.00797 493.0 3.6
487(12) 0.00716 492.9 3.6
480(12) 0.00716 492.7 3.6
507(12) 0.00678 492.6 3.7
488(12) 0.00755 492.4 3.8
517(12) 0.00718 492.3 3.8
522(12) 0.00649 492.1 3.9
491(12) 0.00675 491.9 4.0
520(12) 0.00645 491.8 4.0
518(12) 0.00706 491.6 4.1
487(11) 0.00764 491.5 4.2
515(12) 0.00671 491.3 4.3
491(12) 0.00675 491.2 4.5
519(12) 0.00658 491.0 4.6
503(12) 0.00731 490.9 4.7
522(12) 0.00720 490.7 4.9
506(12) 0.00693 490.6 5.0
480(12) 0.00688 490.4 5.2
495(12) 0.00691 490.3 5.4
510(12) 0.00721 490.1 5.6
535(12) 0.00697 490.0 5.8
478(12) 0.00741 489.8 6.0
481(12) 0.00677 489.6 6.3
481(12) 0.00740 489.5 6.6
500(12) 0.00748 489.3 6.9
474(11) 0.00777 489.2 7.2
485(12) 0.00715 489.0 7.6
485(12) 0.00687 488.9 8.0
478(12) 0.00735 488.7 9.3
498(12) 0.00752 488.6 9.8
513(12) 0.00701 488.4 10.4
483(12) 0.00715 488.3 11.1
479(12) 0.00708 488.1 11.8
511(12) 0.00684 488.0 12.7
477(11) 0.00775 487.8 13.7
487(12) 0.00733 487.6 14.7
499(12) 0.00672 487.5 16.0
483(12) 0.00692 487.3 17.3
512(12) 0.00666 487.2 18.8
468(11) 0.00796 487.0 20.5
519(12) 0.00676 486.9 22.3
482(12) 0.00723 486.7 24.3
515(12) 0.00642 486.6 26.4
473(12) 0.00728 486.4 28.7
476(11) 0.00778 486.3 31.2
502(12) 0.00700 486.1 33.8
508(12) 0.00663 486.0 36.5
530(13) 0.00640 485.8 39.3
512(12) 0.00687 485.7 42.1
522(12) 0.00707 485.5 44.9
521(12) 0.00674 485.3 47.6
512(12) 0.00691 485.2 50.2
522(12) 0.00668 485.0 52.5
518(12) 0.00711 484.9 54.4
505(12) 0.00739 484.7 56.0
513(12) 0.00658 484.6 57.1
515(12) 0.00652 484.4 57.7
507(12) 0.00689 484.3 57.8
512(12) 0.00704 484.1 57.6
488(11) 0.00766 484.0 57.0
495(12) 0.00711 483.8 56.1
511(12) 0.00655 483.7 55.1
530(12) 0.00655 483.5 54.2
523(12) 0.00698 483.4 53.3
506(12) 0.00739 483.2 52.6
504(12) 0.00687 483.0 52.2
494(12) 0.00656 482.9 52.3
489(12) 0.00722 482.7 53.0
529(12) 0.00700 482.6 54.6
510(12) 0.00730 482.4 57.6
534(12) 0.00654 482.3 62.7
547(13) 0.00597 482.1 71.1
556(13) 0.00615 482.0 84.5
586(13) 0.00622 481.8 104.6
583(13) 0.00637 481.7 133.6
618(13) 0.00570 481.5 172.4
685(15) 0.00469 481.4 220.7
727(14) 0.00482 481.2 275.8
758(14) 0.00486 481.0 331.2
819(15) 0.00451 480.9 376.6
866(16) 0.00397 480.7 400.1
916(17) 0.00356 480.6 395.8
881(16) 0.00393 480.4 370.3
792(15) 0.00473 480.3 337.6
695(14) 0.00522 480.1 310.7
744(15) 0.00463 480.0 298.7
710(14) 0.00478 479.8 306.9
755(15) 0.00449 479.7 337.1
820(15) 0.00455 479.5 388.5
948(16) 0.00381 479.4 457.1
978(17) 0.00362 479.2 536.0
1125(18) 0.003008 479.1 614.2
1194(18) 0.002960 478.9 676.3
1266(18) 0.002945 478.7 705.8
1223(19) 0.002892 478.6 692.8
1124(18) 0.003058 478.4 640.3
1016(17) 0.003352 478.3 561.9
936(16) 0.00384 478.1 473.1
854(15) 0.00438 478.0 385.9
811(15) 0.00430 477.8 307.2
727(15) 0.00465 477.7 240.4
675(14) 0.00523 477.5 186.6
641(13) 0.00562 477.4 145.0
590(13) 0.00632 477.2 113.9
566(13) 0.00599 477.1 91.2
553(13) 0.00605 476.9 74.9
537(12) 0.00646 476.8 63.0
522(12) 0.00703 476.6 55.1
544(12) 0.00684 476.4 48.5
528(12) 0.00649 476.3 43.4
508(12) 0.00662 476.1 39.3
504(12) 0.00689 476.0 35.9
527(12) 0.00681 475.8 33.0
485(11) 0.00776 475.7 30.5
508(12) 0.00701 475.5 28.4
493(12) 0.00667 475.4 26.5
502(12) 0.00695 475.2 24.9
514(12) 0.00715 475.1 23.4
486(11) 0.00761 474.9 22.2
512(12) 0.00682 474.8 21.1
532(13) 0.00611 474.6 20.1
488(12) 0.00718 474.4 19.2
493(12) 0.00747 474.3 18.4
490(12) 0.00748 474.1 17.7
473(12) 0.00737 474.0 17.0
500(12) 0.00648 473.8 16.5
484(12) 0.00742 473.7 16.0
492(11) 0.00759 473.5 15.5
507(12) 0.00728 473.4 15.1
473(12) 0.00753 473.2 14.8
488(12) 0.00665 473.1 14.5
464(12) 0.00735 472.9 14.2
505(12) 0.00738 472.8 14.0
465(11) 0.00769 472.6 13.8
495(12) 0.00698 472.5 13.6
469(12) 0.00728 472.3 13.5
471(12) 0.00722 472.1 13.3
470(11) 0.00791 472.0 13.3
461(11) 0.00802 471.8 13.2
480(12) 0.00741 471.7 13.2
487(12) 0.00693 471.5 13.1
460(11) 0.00770 471.4 13.1
473(11) 0.00791 471.2 13.2
466(11) 0.00766 471.1 13.2
468(12) 0.00729 470.9 13.3
474(12) 0.00748 470.8 13.4
524(12) 0.00685 470.6 13.5
479(11) 0.00774 470.5 13.6
490(12) 0.00713 470.3 13.8
480(12) 0.00710 470.2 14.0
484(12) 0.00708 470.0 14.2
453(11) 0.00812 469.8 14.4
455(11) 0.00816 469.7 14.7
468(12) 0.00748 469.5 15.0
505(12) 0.00650 469.4 15.2
504(12) 0.00696 469.2 15.5
479(12) 0.00755 469.1 15.9
475(11) 0.00784 468.9 16.3
458(12) 0.00744 468.8 16.8
496(12) 0.00660 468.6 17.2
482(12) 0.00718 468.5 17.8
488(12) 0.00746 468.3 18.3
477(11) 0.00789 468.2 18.9
492(12) 0.00715 468.0 19.6
493(12) 0.00655 467.8 20.3
495(12) 0.00706 467.7 21.1
495(12) 0.00749 467.5 21.9
463(11) 0.00809 467.4 22.8
467(11) 0.00758 467.2 23.8
492(13) 0.00637 467.1 24.9
452(11) 0.00778 466.9 26.1
489(12) 0.00750 466.8 27.4
482(11) 0.00761 466.6 28.8
487(12) 0.00730 466.5 30.3
511(13) 0.00630 466.3 32.0
457(11) 0.00793 466.2 33.9
482(11) 0.00767 466.0 35.9
478(11) 0.00782 465.9 38.2
517(12) 0.00688 465.7 40.7
530(13) 0.00637 465.5 43.5
535(12) 0.00661 465.4 46.6
495(12) 0.00748 465.2 50.2
517(12) 0.00703 465.1 54.1
513(12) 0.00675 464.9 58.7
497(12) 0.00677 464.8 63.9
519(12) 0.00668 464.6 69.9
526(12) 0.00711 464.5 77.1
541(12) 0.00672 464.3 85.8
546(13) 0.00628 464.2 96.5
556(13) 0.00601 464.0 110.1
586(13) 0.00595 463.9 127.6
582(13) 0.00638 463.7 150.7
622(13) 0.00580 463.6 181.0
654(14) 0.00536 463.4 220.8
677(14) 0.00516 463.2 272.5
746(15) 0.00453 463.1 338.5
814(15) 0.00456 462.9 420.5
849(15) 0.00433 462.8 519.5
1024(17) 0.003361 462.6 635.0
1185(19) 0.002897 462.5 764.4
1392(20) 0.002551 462.3 901.9
1554(20) 0.002398 462.2 1037.6
1651(22) 0.002138 462.0 1156.5
1752(23) 0.001908 461.9 1240.1
1786(23) 0.001928 461.7 1271.4
1708(22) 0.002134 461.6 1243.5
1534(20) 0.002409 461.4 1162.9
1429(21) 0.002367 461.2 1046.4
1324(20) 0.002500 461.1 912.7
1195(19) 0.002905 460.9 776.9
1089(17) 0.003404 460.8 649.0
983(16) 0.00376 460.6 535.0
902(16) 0.00386 460.5 437.6
797(16) 0.00413 460.3 357.5
766(15) 0.00454 460.2 293.8
728(14) 0.00504 460.0 244.7
691(14) 0.00536 459.9 208.0
706(14) 0.00484 459.7 181.5
674(14) 0.00476 459.6 163.1
663(14) 0.00526 459.4 151.4
675(14) 0.00548 459.3 145.5
682(14) 0.00539 459.1 144.9
685(14) 0.00493 458.9 150.0
654(14) 0.00496 458.8 161.9
671(14) 0.00517 458.6 182.0
720(14) 0.00514 458.5 212.4
763(14) 0.00486 458.3 255.1
806(15) 0.00430 458.2 311.6
843(16) 0.00372 458.0 382.4
919(16) 0.00372 457.9 466.4
1005(16) 0.00368 457.7 559.7
1128(18) 0.003246 457.6 654.8
1216(19) 0.002840 457.4 739.8
1301(20) 0.002559 457.3 798.4
1340(20) 0.002613 457.1 815.6
1411(20) 0.002623 457.0 785.9
1284(19) 0.002821 456.8 717.2
1186(19) 0.002878 456.6 625.4
1013(17) 0.003336 456.5 526.1
848(16) 0.00412 456.3 430.3
783(15) 0.00473 456.2 344.5
670(14) 0.00537 456.0 271.9
662(14) 0.00518 455.9 213.4
609(13) 0.00562 455.7 167.9
561(12) 0.00643 455.6 133.6
556(12) 0.00674 455.4 108.3
559(12) 0.00643 455.3 89.9
543(13) 0.00630 455.1 76.5
510(12) 0.00662 455.0 66.4
484(12) 0.00744 454.8 58.8
501(12) 0.00741 454.6 52.7
490(12) 0.00725 454.5 47.8
491(12) 0.00683 454.3 43.7
477(12) 0.00742 454.2 40.1
494(12) 0.00729 454.0 37.1
491(11) 0.00761 453.9 34.4
450(11) 0.00761 453.7 32.0
475(12) 0.00679 453.6 29.9
482(12) 0.00720 453.4 28.0
496(12) 0.00724 453.3 26.3
465(11) 0.00801 453.1 24.8
491(12) 0.00704 453.0 23.4
497(12) 0.00652 452.8 22.1
468(11) 0.00758 452.7 20.9
454(11) 0.00820 452.5 19.9
450(11) 0.00818 452.3 18.9
457(12) 0.00749 452.2 18.0
447(12) 0.00738 452.0 17.2
446(11) 0.00773 451.9 16.4
458(11) 0.00794 451.7 15.7
458(11) 0.00814 451.6 15.0
475(12) 0.00732 451.4 14.4
462(12) 0.00706 451.3 13.8
472(12) 0.00741 451.1 13.3
456(11) 0.00817 451.0 12.8
465(11) 0.00808 450.8 12.3
478(12) 0.00717 450.7 11.9
452(12) 0.00731 450.5 11.5
448(11) 0.00786 450.4 11.1
454(11) 0.00801 450.2 10.7
454(11) 0.00805 450.0 10.3
447(11) 0.00759 449.9 10.0
440(11) 0.00764 449.7 9.7
448(11) 0.00791 449.6 9.4
455(11) 0.00818 449.4 9.1
449(11) 0.00800 449.3 8.8
456(11) 0.00761 449.1 8.6
477(12) 0.00680 449.0 8.3
443(11) 0.00790 448.8 8.1
476(11) 0.00782 448.7 7.9
439(11) 0.00809 448.5 7.7
455(11) 0.00771 448.4 7.5
456(12) 0.00742 448.2 7.3
470(12) 0.00736 448.0 7.1
427(11) 0.00873 447.9 6.9
417(11) 0.00851 447.7 6.8
440(11) 0.00792 447.6 6.6
445(12) 0.00756 447.4 6.4
456(11) 0.00791 447.3 6.3
457(11) 0.00816 447.1 6.2
431(11) 0.00816 447.0 6.0
450(11) 0.00763 446.8 5.9
439(11) 0.00795 446.7 5.8
447(11) 0.00805 446.5 5.6
453(11) 0.00824 446.4 5.5
456(11) 0.00756 446.2 5.4
446(12) 0.00753 446.1 5.4
416(11) 0.00832 445.9 5.3
434(11) 0.00852 445.7 5.2
446(11) 0.00838 445.6 5.1
441(11) 0.00778 445.4 5.0
429(11) 0.00767 445.3 5.0
452(11) 0.00770 445.1 4.9
480(12) 0.00754 445.0 4.8
443(11) 0.00839 444.8 4.7
411(11) 0.00842 444.7 4.6
413(11) 0.00783 444.5 4.5
403(11) 0.00890 444.4 4.6
463(11) 0.00806 444.2 4.5
463(11) 0.00807 444.1 4.4
450(11) 0.00774 443.9 4.4
453(12) 0.00694 443.7 4.3
420(11) 0.00841 443.6 4.2
441(11) 0.00838 443.4 4.2
417(11) 0.00906 443.3 4.1
458(12) 0.00742 443.1 4.1
445(12) 0.00733 443.0 4.0
475(12) 0.00739 442.8 4.5
452(11) 0.00832 442.7 4.5
470(11) 0.00776 442.5 4.5
463(12) 0.00724 442.4 4.4
454(12) 0.00727 442.2 4.4
427(11) 0.00788 442.1 4.3
438(11) 0.00852 441.9 4.3
428(11) 0.00863 441.8 4.3
453(11) 0.00779 441.6 4.2
457(12) 0.00739 441.4 4.2
457(11) 0.00770 441.3 4.2
469(11) 0.00787 441.1 4.2
430(11) 0.00862 441.0 4.1
440(11) 0.00801 440.8 4.1
443(11) 0.00768 440.7 4.1
440(11) 0.00800 440.6 4.1
417(11) 0.00893 440.5 4.0
442(11) 0.00810 440.3 4.0
411(11) 0.00838 440.2 4.0
430(11) 0.00785 440.1 4.0
429(11) 0.00823 440.0 4.0
437(11) 0.00853 439.8 4.0
440(11) 0.00788 439.7 3.9
415(11) 0.00818 439.6 3.9
452(12) 0.00752 439.5 3.9
420(11) 0.00874 439.3 3.9
403(10) 0.00919 439.2 3.9
441(11) 0.00792 439.1 3.9
458(12) 0.00729 438.9 3.9
417(11) 0.00812 438.8 3.9
434(11) 0.00824 438.7 3.9
411(10) 0.00911 438.6 3.9
457(12) 0.00755 438.4 3.9
440(12) 0.00737 438.3 3.9
397(11) 0.00876 438.2 3.9
440(11) 0.00823 438.1 3.9
455(11) 0.00815 437.9 3.9
416(11) 0.00844 437.8 4.0
429(11) 0.00767 437.7 4.0
419(11) 0.00851 437.5 4.0
432(11) 0.00863 437.4 4.1
426(11) 0.00875 437.3 4.1
437(11) 0.00811 437.2 4.1
455(12) 0.00696 437.0 4.1
453(11) 0.00763 436.9 4.2
425(11) 0.00859 436.8 4.2
445(11) 0.00836 436.7 4.2
460(12) 0.00747 436.5 4.3
419(11) 0.00776 436.4 4.3
438(11) 0.00786 436.3 4.4
434(11) 0.00849 436.2 4.5
466(11) 0.00782 436.0 4.5
457(11) 0.00780 435.9 4.6
428(11) 0.00783 435.8 4.7
421(11) 0.00811 435.6 4.8
426(11) 0.00871 435.5 5.0
431(11) 0.00838 435.4 5.1
446(11) 0.00784 435.3 5.3
433(11) 0.00773 435.1 5.5
425(11) 0.00814 435.0 5.7
433(11) 0.00870 434.9 6.0
439(11) 0.00824 434.8 6.3
450(11) 0.00792 434.6 6.7
436(11) 0.00775 434.5 7.3
427(11) 0.00793 434.4 8.0
418(11) 0.00900 434.2 9.1
433(11) 0.00818 434.1 11.0
469(12) 0.00713 434.0 14.1
431(11) 0.00790 433.9 19.5
434(11) 0.00802 433.7 28.3
479(11) 0.00780 433.6 41.5
501(12) 0.00695 433.5 59.2
479(12) 0.00719 433.4 80.3
522(12) 0.00648 433.2 101.7
537(12) 0.00651 433.1 118.2
573(12) 0.00647 433.0 123.8
566(13) 0.00620 432.9 116.0
524(13) 0.00635 432.7 98.2
507(12) 0.00685 432.6 76.5
456(11) 0.00798 432.5 55.9
448(11) 0.00839 432.3 39.0
463(12) 0.00750 432.2 26.8
458(12) 0.00709 432.1 18.8
416(11) 0.00845 432.0 13.9
428(11) 0.00840 431.8 11.1
426(11) 0.00877 431.7 9.5
445(11) 0.00796 431.6 8.5
452(12) 0.00745 431.5 7.9
445(11) 0.00784 431.3 7.4
434(11) 0.00844 431.2 7.1
465(11) 0.00793 431.1 6.8
448(11) 0.00769 431.0 6.6
441(12) 0.00718 430.8 6.5
410(11) 0.00855 430.7 6.4
458(11) 0.00823 430.6 6.3
441(11) 0.00845 430.4 6.2
437(11) 0.00793 430.3 6.2
411(11) 0.00772 430.2 6.1
434(11) 0.00774 430.1 6.1
436(11) 0.00845 429.9 6.1
403(10) 0.00926 429.8 6.1
426(11) 0.00820 429.7 6.1
421(11) 0.00771 429.6 6.2
415(11) 0.00857 429.4 6.2
445(11) 0.00846 429.3 6.3
428(11) 0.00846 429.2 6.3
415(11) 0.00810 429.0 6.4
410(11) 0.00816 428.9 6.3
434(11) 0.00795 428.8 6.4
432(11) 0.00866 428.7 6.5
427(11) 0.00831 428.5 6.6
433(11) 0.00781 428.4 6.7
427(11) 0.00811 428.3 6.9
413(11) 0.00855 428.2 7.0
408(10) 0.00908 428.0 7.2
415(11) 0.00884 427.9 7.3
410(11) 0.00831 427.8 7.5
429(11) 0.00774 427.7 7.7
447(11) 0.00792 427.5 7.8
426(11) 0.00877 427.4 8.1
440(11) 0.00808 427.3 8.3
449(11) 0.00764 427.1 8.5
411(11) 0.00867 427.0 8.8
416(11) 0.00866 426.9 9.1
437(11) 0.00858 426.8 9.4
448(11) 0.00764 426.6 9.7
446(11) 0.00764 426.5 10.1
428(11) 0.00808 426.4 10.4
441(11) 0.00807 426.3 10.9
434(11) 0.00861 426.1 11.3
431(11) 0.00780 426.0 11.9
413(11) 0.00828 425.9 12.4
467(12) 0.00740 425.7 13.0
432(11) 0.00840 425.6 13.7
427(11) 0.00872 425.5 14.5
442(11) 0.00773 425.4 15.4
448(12) 0.00746 425.2 16.4
453(12) 0.00730 425.1 17.6
444(11) 0.00813 425.0 19.0
457(11) 0.00814 424.9 20.7
437(11) 0.00798 424.7 22.8
459(12) 0.00694 424.6 25.4
454(11) 0.00778 424.5 28.8
436(11) 0.00850 424.4 33.1
463(11) 0.00796 424.2 38.7
441(11) 0.00777 424.1 45.7
476(12) 0.00665 424.0 54.7
498(12) 0.00700 423.8 65.7
524(12) 0.00703 423.7 79.0
550(12) 0.00673 423.6 94.6
515(12) 0.00675 423.5 112.2
524(12) 0.00640 423.3 131.5
585(13) 0.00593 423.2 151.3
580(12) 0.00643 423.1 170.2
608(13) 0.00592 423.0 186.0
629(13) 0.00559 422.8 196.3
634(14) 0.00510 422.7 199.0
621(13) 0.00566 422.6 193.8
651(13) 0.00567 422.5 181.8
603(13) 0.00605 422.3 165.2
585(13) 0.00594 422.2 146.6
498(12) 0.00693 422.1 127.7
501(12) 0.00687 421.9 110.0
475(11) 0.00792 421.8 94.1
532(12) 0.00675 421.7 80.5
469(12) 0.00730 421.6 69.3
437(11) 0.00788 421.4 60.4
486(12) 0.00710 421.3 53.6
440(11) 0.00853 421.2 48.7
449(11) 0.00798 421.1 45.4
461(12) 0.00744 420.9 43.4
459(11) 0.00769 420.8 42.5
464(12) 0.00756 420.7 42.6
478(11) 0.00783 420.5 43.6
462(11) 0.00757 420.4 45.4
474(12) 0.00704 420.3 48.0
454(11) 0.00760 420.2 51.3
467(11) 0.00772 420.0 55.5
492(12) 0.00755 419.9 60.5
465(11) 0.00759 419.8 66.4
507(12) 0.00662 419.7 73.2
498(12) 0.00691 419.5 80.9
536(12) 0.00677 419.4 89.5
521(12) 0.00717 419.3 99.0
526(12) 0.00643 419.2 109.2
580(14) 0.00545 419.0 120.0
571(13) 0.00598 418.9 131.2
574(13) 0.00636 418.8 142.5
579(13) 0.00638 418.6 153.5
605(13) 0.00574 418.5 163.6
590(13) 0.00556 418.4 172.2
620(13) 0.00563 418.3 178.7
625(13) 0.00593 418.1 182.6
637(13) 0.00586 418.0 183.4
628(13) 0.00554 417.9 181.1
594(14) 0.00548 417.8 176.0
564(13) 0.00614 417.6 168.4
561(12) 0.00671 417.5 158.9
570(12) 0.00646 417.4 148.3
539(13) 0.00638 417.2 137.0
554(13) 0.00572 417.1 125.5
549(12) 0.00647 417.0 114.2
531(12) 0.00702 416.9 103.4
518(12) 0.00708 416.7 93.3
514(12) 0.00673 416.6 83.9
516(12) 0.00641 416.5 75.4
553(13) 0.00603 416.4 67.7
504(12) 0.00743 416.2 60.9
479(11) 0.00757 416.1 54.9
459(11) 0.00772 416.0 49.7
469(12) 0.00708 415.9 45.2
468(12) 0.00735 415.7 41.3
468(11) 0.00797 415.6 38.0
461(11) 0.00779 415.5 35.2
429(11) 0.00796 415.3 32.9
431(11) 0.00785 415.2 30.9
429(11) 0.00818 415.1 29.3
430(11) 0.00864 415.0 27.9
454(11) 0.00798 414.8 26.8
462(12) 0.00728 414.7 25.9
437(11) 0.00767 414.6 25.1
442(11) 0.00786 414.5 24.5
408(10) 0.00914 414.3 23.9
444(11) 0.00809 414.2 23.5
436(11) 0.00775 414.1 23.2
421(11) 0.00827 413.9 22.9
422(11) 0.00851 413.8 22.8
449(11) 0.00832 413.7 22.7
460(11) 0.00756 413.6 22.6
436(11) 0.00775 413.4 22.7
426(11) 0.00822 413.3 22.8
453(11) 0.00793 413.2 22.9
470(11) 0.00785 413.1 23.2
418(11) 0.00837 412.9 23.5
469(12) 0.00692 412.8 23.9
435(11) 0.00828 412.7 24.3
447(11) 0.00823 412.6 24.9
427(11) 0.00875 412.4 25.6
434(11) 0.00796 412.3 26.4
436(12) 0.00745 412.2 27.3
407(11) 0.00859 412.0 28.4
409(11) 0.00899 411.9 29.6
409(11) 0.00906 411.8 31.0
414(11) 0.00835 411.7 32.5
424(12) 0.00747 411.5 34.2
434(11) 0.00796 411.4 36.0
439(11) 0.00819 411.3 37.9
404(10) 0.00919 411.2 39.8
433(11) 0.00804 411.0 41.7
430(11) 0.00768 410.9 43.4
419(11) 0.00841 410.8 45.0
435(11) 0.00858 410.7 46.2
433(11) 0.00858 410.5 47.1
427(11) 0.00818 410.4 47.7
448(12) 0.00726 410.3 48.1
441(11) 0.00767 410.1 48.2
454(11) 0.00820 410.0 48.3
454(11) 0.00825 409.9 48.4
449(11) 0.00797 409.8 48.5
460(12) 0.00701 409.6 48.7
409(11) 0.00832 409.5 49.1
434(11) 0.00856 409.4 49.6
453(11) 0.00791 409.3 50.3
470(12) 0.00737 409.1 51.2
451(11) 0.00757 409.0 52.3
449(11) 0.00769 408.9 53.7
456(11) 0.00821 408.7 55.4
460(11) 0.00789 408.6 57.5
459(11) 0.00761 408.5 59.8
455(12) 0.00749 408.4 62.6
445(11) 0.00782 408.2 65.8
471(11) 0.00784 408.1 69.5
481(12) 0.00747 408.0 73.9
499(12) 0.00675 407.9 78.9
472(12) 0.00732 407.7 84.7
502(12) 0.00701 407.6 91.4
495(12) 0.00753 407.5 99.2
498(12) 0.00700 407.4 108.1
487(12) 0.00706 407.2 118.4
506(12) 0.00690 407.1 130.2
486(12) 0.00744 407.0 143.6
513(12) 0.00728 406.8 158.8
524(12) 0.00673 406.7 175.9
589(13) 0.00563 406.6 195.1
555(13) 0.00633 406.5 216.4
595(13) 0.00606 406.3 240.0
610(13) 0.00611 406.2 265.8
636(14) 0.00546 406.1 293.8
691(14) 0.00476 406.0 323.9
723(14) 0.00479 405.8 356.0
758(14) 0.00482 405.7 389.7
801(15) 0.00459 405.6 424.5
819(15) 0.00425 405.4 460.0
895(17) 0.00366 405.3 495.3
891(16) 0.00387 405.2 529.5
913(16) 0.00399 405.1 561.4
959(16) 0.00384 404.9 589.8
961(17) 0.00366 404.8 613.1
973(17) 0.003325 404.7 630.2
974(17) 0.00358 404.6 640.0
953(16) 0.00385 404.4 641.8
915(16) 0.00399 404.3 635.7
948(17) 0.00365 404.2 622.1
882(17) 0.00362 404.1 601.9
843(16) 0.00415 403.9 576.3
824(15) 0.00450 403.8 546.9
826(15) 0.00439 403.7 514.8
811(15) 0.00420 403.5 481.4
738(15) 0.00450 403.4 447.5
750(15) 0.00456 403.3 414.2
726(14) 0.00512 403.2 381.9
685(14) 0.00519 403.0 351.2
660(14) 0.00515 402.9 322.4
651(14) 0.00525 402.8 295.8
674(14) 0.00512 402.7 271.4
636(13) 0.00583 402.5 249.3
639(13) 0.00554 402.4 229.5
644(14) 0.00515 402.3 212.1
600(13) 0.00565 402.2 196.8
600(13) 0.00583 402.0 183.7
604(13) 0.00620 401.9 172.5
566(13) 0.00593 401.8 163.3
582(13) 0.00579 401.6 155.7
561(13) 0.00621 401.5 149.8
548(12) 0.00648 401.4 145.4
592(13) 0.00627 401.3 142.3
555(12) 0.00645 401.1 140.4
569(13) 0.00578 401.0 139.6
532(12) 0.00641 400.9 139.8
552(12) 0.00646 400.8 140.9
566(12) 0.00659 400.6 142.7
534(12) 0.00649 400.5 145.1
575(13) 0.00563 400.4 148.0
567(13) 0.00610 400.2 151.3
596(13) 0.00608 400.1 154.6
577(12) 0.00651 400.0 157.9
553(13) 0.00616 399.9 160.8
552(13) 0.00591 399.7 163.0
573(13) 0.00607 399.6 164.3
573(12) 0.00648 399.5 164.4
590(13) 0.00630 399.4 163.1
597(13) 0.00584 399.2 160.4
566(13) 0.00586 399.1 156.3
573(13) 0.00603 399.0 151.1
580(13) 0.00640 398.9 144.8
555(12) 0.00672 398.7 137.9
512(12) 0.00668 398.6 130.6
530(13) 0.00599 398.5 123.1
513(12) 0.00679 398.3 115.6
491(12) 0.00750 398.2 108.3
516(12) 0.00710 398.1 101.2
469(12) 0.00744 398.0 94.5
469(12) 0.00694 397.8 88.2
470(12) 0.00718 397.7 82.3
449(11) 0.00828 397.6 76.8
457(11) 0.00805 397.5 71.8
434(11) 0.00797 397.3 67.1
466(12) 0.00711 397.2 62.9
473(12) 0.00734 397.1 59.0
477(11) 0.00782 396.9 55.4
455(11) 0.00791 396.8 52.2
472(12) 0.00703 396.7 49.3
416(11) 0.00823 396.6 46.6
456(11) 0.00759 396.4 44.1
452(11) 0.00827 396.3 41.8
445(11) 0.00811 396.2 39.7
419(11) 0.00821 396.1 37.8
429(11) 0.00772 395.9 36.0
439(11) 0.00790 395.8 34.3
427(11) 0.00868 395.7 32.8
446(11) 0.00784 395.6 31.3
416(11) 0.00836 395.4 29.9
421(11) 0.00813 395.3 28.6
417(11) 0.00849 395.2 27.4
440(11) 0.00848 395.0 26.3
419(11) 0.00846 394.9 25.2
428(11) 0.00796 394.8 24.2
397(11) 0.00870 394.7 23.2
424(11) 0.00839 394.5 22.3
425(11) 0.00872 394.4 21.5
430(11) 0.00808 394.3 20.6
421(11) 0.00799 394.2 19.9
420(11) 0.00830 394.0 19.2
407(11) 0.00877 393.9 18.5
400(10) 0.00937 393.8 17.8
416(11) 0.00810 393.7 17.2
412(11) 0.00813 393.5 16.6
412(11) 0.00840 393.4 16.1
421(11) 0.00856 393.3 15.6
409(10) 0.00913 393.1 15.1
426(11) 0.00816 393.0 14.6
433(12) 0.00744 392.9 14.2
402(11) 0.00879 392.8 13.8
426(11) 0.00858 392.6 13.4
394(10) 0.00951 392.5 13.0
411(11) 0.00868 392.4 12.6
423(11) 0.00783 392.3 12.3
407(11) 0.00847 392.1 12.0
389(10) 0.00941 392.0 11.7
392(10) 0.00924 391.9 11.4
416(11) 0.00832 391.7 11.1
400(11) 0.00821 391.6 10.8
378(10) 0.00950 391.5 10.5
401(10) 0.00928 391.4 10.3
417(11) 0.00896 391.2 10.1
404(11) 0.00874 391.1 9.8
382(11) 0.00849 391.0 9.6
393(11) 0.00881 390.9 9.4
403(10) 0.00928 390.7 9.2
409(11) 0.00891 390.6 9.0
372(10) 0.00952 390.5 8.8
395(11) 0.00847 390.4 8.6
400(11) 0.00879 390.2 8.4
402(10) 0.00925 390.1 8.3
381(10) 0.00960 390.0 8.1
394(11) 0.00859 389.8 7.9
385(11) 0.00874 389.7 7.8
364(10) 0.00964 389.6 7.6
394(10) 0.00944 389.5 7.5
394(11) 0.00891 389.3 7.4
383(10) 0.00946 389.2 7.2
431(11) 0.00783 389.1 7.1
405(11) 0.00855 389.0 7.0
380(10) 0.00978 388.8 6.8
412(11) 0.00850 388.7 6.7
388(11) 0.00900 388.6 6.6
410(11) 0.00833 388.4 6.5
410(11) 0.00839 388.3 6.4
422(11) 0.00886 388.2 6.3
422(11) 0.00827 388.1 6.2
376(10) 0.00914 387.9 6.1
396(11) 0.00850 387.8 6.0
368(10) 0.00956 387.7 5.9
384(10) 0.00966 387.6 5.8
399(11) 0.00853 387.4 5.7
405(11) 0.00816 387.3 5.6
397(11) 0.00877 387.2 5.5
379(10) 0.00976 387.1 5.4
390(10) 0.00942 386.9 5.3
362(10) 0.00974 386.8 5.3
374(11) 0.00889 386.7 5.2
397(11) 0.00877 386.5 5.1
404(10) 0.00907 386.4 5.0
360(10) 0.01040 386.3 5.0
370(10) 0.00925 386.2 4.9
368(11) 0.00896 386.0 4.8
365(10) 0.00973 385.9 4.7
411(11) 0.00907 385.8 4.7
415(11) 0.00896 385.7 4.6
389(10) 0.00913 385.5 4.5
403(11) 0.00793 385.4 4.5
387(10) 0.00916 385.3 4.4
425(11) 0.00861 385.2 4.4
413(11) 0.00888 385.0 4.3
392(11) 0.00906 384.9 4.2
425(11) 0.00766 384.8 4.2
394(11) 0.00881 384.6 4.1
388(10) 0.00970 384.5 4.1
392(10) 0.00945 384.4 4.0
425(11) 0.00806 384.3 4.0
424(11) 0.00778 384.1 3.9
383(10) 0.00935 384.0 3.9
376(10) 0.00981 383.9 3.8
382(10) 0.00965 383.8 3.8
430(11) 0.00760 383.6 3.7
381(11) 0.00905 383.5 3.7
377(10) 0.00952 383.4 3.6
392(10) 0.00946 383.2 3.6
409(11) 0.00884 383.1 3.6
414(11) 0.00820 383.0 3.5
400(11) 0.00843 382.9 3.5
382(10) 0.00908 382.7 3.4
407(10) 0.00916 382.6 3.4
390(10) 0.00937 382.5 3.4
364(10) 0.00946 382.4 3.3
369(10) 0.00947 382.2 3.3
387(10) 0.00921 382.1 3.2
363(10) 0.01024 382.0 3.2
372(10) 0.00947 381.9 3.2
385(11) 0.00888 381.7 3.1
376(10) 0.00958 381.6 3.1
390(10) 0.00930 381.5 3.1
385(10) 0.00971 381.3 3.0
373(10) 0.00943 381.2 3.0
397(11) 0.00830 381.1 3.0
384(10) 0.00912 381.0 2.9
352(10) 0.01031 380.8 2.9
369(10) 0.01014 380.7 2.9
387(11) 0.00897 380.6 2.8
382(11) 0.00881 380.5 2.8
392(11) 0.00886 380.3 2.8
410(11) 0.00891 380.2 2.8
407(11) 0.00901 380.1 2.7
387(10) 0.00912 379.9 2.7
403(11) 0.00791 379.8 2.7
394(11) 0.00886 379.7 2.7
390(10) 0.00938 379.6 2.6
389(10) 0.00945 379.4 2.6
366(10) 0.00990 379.3 2.6
361(11) 0.00894 379.2 2.6
367(10) 0.00969 379.1 2.5
390(10) 0.00949 378.9 2.6
384(10) 0.00958 378.8 2.5
377(10) 0.00932 378.7 2.5
377(11) 0.00877 378.7 2.5
384(11) 0.00891 378.6 2.5
421(11) 0.00885 378.5 2.4
393(10) 0.00930 378.4 2.4
384(11) 0.00896 378.3 2.4
389(11) 0.00830 378.2 2.4
361(10) 0.00946 378.2 2.4
382(10) 0.00978 378.1 2.3
370(10) 0.00957 378.0 2.3
402(11) 0.00846 377.9 2.3
393(11) 0.00846 377.8 2.3
384(11) 0.00887 377.7 2.3
375(10) 0.00997 377.7 2.2
381(10) 0.00951 377.6 2.2
375(10) 0.00924 377.5 2.2
364(10) 0.00925 377.4 2.2
368(10) 0.00938 377.3 2.2
383(10) 0.00969 377.2 2.2
369(10) 0.00939 377.2 2.2
355(10) 0.00991 377.1 2.1
381(11) 0.00880 377.0 2.1
359(10) 0.00960 376.9 2.1
350(10) 0.01067 376.8 2.1
344(10) 0.01029 376.7 2.1
380(10) 0.00938 376.7 2.1
414(11) 0.00817 376.6 2.0
362(10) 0.01022 376.5 2.0
372(10) 0.00998 376.4 2.0
383(11) 0.00877 376.3 2.0
353(10) 0.00971 376.2 2.0
390(11) 0.00890 376.2 2.0
409(11) 0.00881 376.1 2.0
373(10) 0.01001 376.0 1.9
378(11) 0.00877 375.9 1.9
377(11) 0.00866 375.8 1.9
409(11) 0.00842 375.7 1.9
380(10) 0.00987 375.6 1.9
353(10) 0.01065 375.6 1.9
364(10) 0.00984 375.5 1.9
386(11) 0.00849 375.4 1.9
363(10) 0.00971 375.3 1.8
360(10) 0.01022 375.2 1.8
368(10) 0.01013 375.1 1.8
396(11) 0.00853 375.1 1.8
379(11) 0.00844 375.0 1.8
365(10) 0.00954 374.9 1.8
402(10) 0.00916 374.8 1.8
365(10) 0.01024 374.7 1.8
401(11) 0.00870 374.6 1.8
399(11) 0.00812 374.6 1.8
363(10) 0.00975 374.5 1.7
395(10) 0.00934 374.4 1.7
359(10) 0.01042 374.3 1.7
369(10) 0.00944 374.2 1.7
380(11) 0.00879 374.1 1.7
381(11) 0.00898 374.1 1.7
378(10) 0.00984 374.0 1.7
395(10) 0.00936 373.9 1.7
375(10) 0.00948 373.8 1.7
363(10) 0.00935 373.7 1.7
351(10) 0.00944 373.6 1.7
358(10) 0.01044 373.6 1.7
363(10) 0.00989 373.5 1.7
367(10) 0.00941 373.4 1.6
374(11) 0.00905 373.3 1.6
369(10) 0.00941 373.2 1.6
395(10) 0.00938 373.1 1.6
382(10) 0.00950 373.1 1.6
386(11) 0.00861 373.0 1.6
370(10) 0.00928 372.9 1.6
366(10) 0.00959 372.8 1.6
387(10) 0.00966 372.7 1.6
380(10) 0.00943 372.6 1.6
388(11) 0.00886 372.6 1.6
372(10) 0.00937 372.5 1.6
363(10) 0.00988 372.4 1.6
357(10) 0.01045 372.3 1.6
359(10) 0.01003 372.2 1.6
392(11) 0.00853 372.1 1.6
359(10) 0.00981 372.1 1.6
354(10) 0.01028 372.0 1.6
362(10) 0.01031 371.9 1.6
368(10) 0.00951 371.8 1.5
384(11) 0.00852 371.7 1.5
350(10) 0.00992 371.6 1.5
359(10) 0.01020 371.6 1.5
361(10) 0.01033 371.5 1.5
351(10) 0.00987 371.4 1.5
379(11) 0.00816 371.3 1.5
357(10) 0.00996 371.2 1.5
424(11) 0.00876 371.1 1.5
377(10) 0.00993 371.0 1.5
341(10) 0.01021 371.0 1.5
349(11) 0.00889 370.9 1.5
372(10) 0.00934 370.8 1.5
397(10) 0.00937 370.7 1.5
381(10) 0.00974 370.6 1.5
368(10) 0.00944 370.5 1.5
355(10) 0.00956 370.5 1.5
384(10) 0.00923 370.4 1.5
377(10) 0.00984 370.3 1.5
364(10) 0.01018 370.2 1.5
378(11) 0.00906 370.1 1.5
374(11) 0.00891 370.0 1.5
378(11) 0.00881 370.0 1.5
386(10) 0.00967 369.9 1.5
373(10) 0.00981 369.8 1.5
375(10) 0.00936 369.7 1.5
384(11) 0.00881 369.6 1.5
368(10) 0.00943 369.5 1.6
358(10) 0.01029 369.5 1.6
380(10) 0.00966 369.4 1.6
392(11) 0.00882 369.3 1.6
350(10) 0.00983 369.2 1.6
392(11) 0.00904 369.1 1.6
399(10) 0.00932 369.0 1.6
365(10) 0.00984 369.0 1.6
369(10) 0.00953 368.9 1.6
354(10) 0.00968 368.8 1.7
391(11) 0.00888 368.7 1.7
372(10) 0.01002 368.6 1.7
367(10) 0.00976 368.5 1.7
355(10) 0.00949 368.5 1.8
357(10) 0.00940 368.4 1.8
364(10) 0.00975 368.3 1.8
372(10) 0.01010 368.2 1.9
377(10) 0.00914 368.1 1.9
402(11) 0.00819 368.0 2.0
385(10) 0.00923 368.0 2.1
385(10) 0.00932 367.9 2.2
386(10) 0.00973 367.8 2.3
359(10) 0.00994 367.7 2.5
375(11) 0.00884 367.6 2.7
377(10) 0.00939 367.5 3.2
370(10) 0.01006 367.5 3.9
368(10) 0.01019 367.4 5.0
361(10) 0.00962 367.3 6.6
354(10) 0.00956 367.2 8.9
382(10) 0.00922 367.1 11.9
375(10) 0.00985 367.0 15.2
408(10) 0.00912 367.0 18.5
391(11) 0.00844 366.9 20.8
387(11) 0.00829 366.8 21.4
360(10) 0.00965 366.7 19.9
378(10) 0.00981 366.6 17.1
400(10) 0.00931 366.5 13.7
349(10) 0.01056 366.4 10.6
409(11) 0.00770 366.4 7.9
374(10) 0.00940 366.3 5.9
356(10) 0.01060 366.2 4.6
368(10) 0.00986 366.1 3.7
341(10) 0.01035 366.0 3.2
334(10) 0.01001 365.9 2.9
359(10) 0.00976 365.9 2.7
363(10) 0.01023 365.8 2.6
371(10) 0.00971 365.7 2.5
359(10) 0.00971 365.6 2.4
354(10) 0.00966 365.5 2.4
373(11) 0.00900 365.4 2.4
359(10) 0.01029 365.4 2.4
386(10) 0.00938 365.3 2.4
356(10) 0.00998 365.2 2.4
364(11) 0.00907 365.1 2.4
359(10) 0.00971 365.0 2.4
354(10) 0.01048 364.9 2.5
346(10) 0.01039 364.9 2.5
372(10) 0.00933 364.8 2.6
358(10) 0.00961 364.7 2.6
341(10) 0.01052 364.6 2.7
392(10) 0.00953 364.5 2.7
370(10) 0.00942 364.4 2.8
359(10) 0.00931 364.4 2.9
360(10) 0.00953 364.3 3.0
383(10) 0.00949 364.2 3.1
396(10) 0.00934 364.1 3.2
369(10) 0.00928 364.0 3.3
357(10) 0.00951 363.9 3.4
364(10) 0.00934 363.9 3.5
365(10) 0.00989 363.8 3.6
362(10) 0.01014 363.7 3.7
333(10) 0.01040 363.6 3.9
366(11) 0.00877 363.5 4.0
376(11) 0.00899 363.4 4.2
389(10) 0.00944 363.4 4.3
386(10) 0.00949 363.3 4.5
347(10) 0.01006 363.2 4.6
350(10) 0.00965 363.1 4.8
369(10) 0.00953 363.0 5.0
375(10) 0.00966 362.9 5.2
395(10) 0.00948 362.9 5.4
380(10) 0.00921 362.8 5.5
352(10) 0.00927 362.7 5.7
375(11) 0.00899 362.6 5.9
376(10) 0.00984 362.5 6.1
347(10) 0.01059 362.4 6.3
365(10) 0.00967 362.4 6.5
376(11) 0.00845 362.3 6.7
348(10) 0.00997 362.2 6.9
378(10) 0.00979 362.1 7.1
377(10) 0.00970 362.0 7.3
380(11) 0.00901 361.9 7.5
377(11) 0.00891 361.8 7.6
400(11) 0.00872 361.8 7.8
378(10) 0.00993 361.7 7.9
398(10) 0.00914 361.6 8.0
392(11) 0.00886 361.5 8.1
381(11) 0.00897 361.4 8.2
375(10) 0.00937 361.3 8.3
367(10) 0.01028 361.3 8.3
372(10) 0.00984 361.2 8.3
336(10) 0.01040 361.1 8.3
364(11) 0.00898 361.0 8.3
379(11) 0.00906 360.9 8.2
361(10) 0.01021 360.8 8.2
358(10) 0.01011 360.8 8.1
350(10) 0.00997 360.7 8.0
408(11) 0.00816 360.6 7.9
374(10) 0.00952 360.5 7.8
388(10) 0.00955 360.4 7.7
392(10) 0.00912 360.3 7.5
375(10) 0.00922 360.3 7.4
368(10) 0.00946 360.2 7.2
337(10) 0.01053 360.1 7.1
388(10) 0.00966 360.0 6.9
371(10) 0.00926 359.9 6.8
366(10) 0.00938 359.8 6.7
376(10) 0.00925 359.8 6.5
369(10) 0.00973 359.7 6.4
363(10) 0.01017 359.6 6.3
363(10) 0.00938 359.5 6.2
355(10) 0.00966 359.4 6.1
381(10) 0.00931 359.3 6.1
363(10) 0.00982 359.3 6.1
366(10) 0.01017 359.2 6.1
397(11) 0.00856 359.1 6.1
352(10) 0.00930 359.0 6.2
353(10) 0.00965 358.9 6.4
339(10) 0.01093 358.8 6.6
369(10) 0.00995 358.8 7.0
365(10) 0.00948 358.7 7.4
375(11) 0.00874 358.6 8.0
359(10) 0.00970 358.5 8.8
369(10) 0.01001 358.4 9.7
366(10) 0.01026 358.3 10.7
373(11) 0.00905 358.3 12.0
370(11) 0.00864 358.2 13.4
375(11) 0.00883 358.1 14.8
360(10) 0.01038 358.0 16.4
364(10) 0.00999 357.9 17.8
350(10) 0.01016 357.8 19.1
390(11) 0.00816 357.8 20.1
362(10) 0.00966 357.7 20.6
359(10) 0.01056 357.6 20.5
348(10) 0.01046 357.5 19.9
355(10) 0.01003 357.4 18.9
370(11) 0.00894 357.3 17.5
388(11) 0.00866 357.2 15.9
354(10) 0.01041 357.2 14.3
373(10) 0.01001 357.1 12.8
338(10) 0.01023 357.0 11.4
336(10) 0.01023 356.9 10.1
358(10) 0.00975 356.8 9.0
345(10) 0.01080 356.7 8.0
364(10) 0.00976 356.7 7.2
368(10) 0.00939 356.6 6.6
359(10) 0.00934 356.5 6.1
373(10) 0.00946 356.4 5.7
359(10) 0.01044 356.3 5.5
345(10) 0.01054 356.2 5.3
354(10) 0.00968 356.2 5.2
363(10) 0.00938 356.1 5.2
359(10) 0.00981 356.0 5.2
341(10) 0.01102 355.9 5.3
351(10) 0.01021 355.8 5.4
364(10) 0.00927 355.7 5.6
359(10) 0.00969 355.7 5.8
383(10) 0.00924 355.6 6.1
350(10) 0.01080 355.5 6.4
356(10) 0.01005 355.4 6.7
355(10) 0.00918 355.3 7.1
366(10) 0.00907 355.2 7.5
365(10) 0.00980 355.2 8.0
372(10) 0.01002 355.1 8.5
369(10) 0.00928 355.0 9.0
372(11) 0.00878 354.9 9.6
367(10) 0.00916 354.8 10.1
335(10) 0.01103 354.7 10.7
353(10) 0.01061 354.7 11.3
374(10) 0.00938 354.6 11.8
368(11) 0.00871 354.5 12.3
333(10) 0.01057 354.4 12.8
358(10) 0.01013 354.3 13.1
349(10) 0.01073 354.2 13.4
355(10) 0.00990 354.2 13.5
379(11) 0.00853 354.1 13.6
361(10) 0.00969 354.0 13.5
354(10) 0.01051 353.9 13.3
354(10) 0.01054 353.8 12.9
345(10) 0.01038 353.7 12.5
379(11) 0.00842 353.7 12.0
380(10) 0.00933 353.6 11.5
380(10) 0.00969 353.5 10.9
367(10) 0.01009 353.4 10.3
356(10) 0.00994 353.3 9.7
349(10) 0.00932 353.2 9.1
361(10) 0.00944 353.2 8.5
342(10) 0.01072 353.1 8.0
358(10) 0.01034 353.0 7.5
369(10) 0.00957 352.9 7.0
361(10) 0.00921 352.8 6.5
355(10) 0.00947 352.7 6.1
369(10) 0.01019 352.6 5.7
343(10) 0.01074 352.6 5.3
356(10) 0.00965 352.5 5.0
330(10) 0.01049 352.4 4.7
353(10) 0.01001 352.3 4.4
377(10) 0.00980 352.2 4.2
348(10) 0.01048 352.1 4.0
364(10) 0.00940 352.1 3.8
365(11) 0.00898 352.0 3.6
348(10) 0.01005 351.9 3.5
332(9) 0.01121 351.8 3.4
337(10) 0.01036 351.7 3.3
349(10) 0.00993 351.6 3.2
330(10) 0.01043 351.6 3.1
345(10) 0.01024 351.5 3.1
343(10) 0.01084 351.4 3.0
351(10) 0.00980 351.3 3.0
363(10) 0.00920 351.2 2.9
348(10) 0.00977 351.1 2.9
341(10) 0.01052 351.1 2.9
348(10) 0.01069 351.0 2.9
356(10) 0.00974 350.9 2.8
357(10) 0.00943 350.8 2.8
339(10) 0.01041 350.7 2.8
361(10) 0.01005 350.6 2.8
341(10) 0.01088 350.6 2.8
343(10) 0.01007 350.5 2.9
343(10) 0.00929 350.4 2.9
355(10) 0.00995 350.3 2.9
357(10) 0.01023 350.2 2.9
343(10) 0.01084 350.1 2.9
366(10) 0.00952 350.1 3.0
339(10) 0.00981 350.0 3.0
338(10) 0.01064 349.9 3.0
349(10) 0.01065 349.8 3.1
335(10) 0.01097 349.7 3.1
312(10) 0.01097 349.6 3.2
355(11) 0.00890 349.6 3.3
351(10) 0.01012 349.5 3.3
335(10) 0.01098 349.4 3.4
365(10) 0.01008 349.3 3.5
338(10) 0.01047 349.2 3.6
334(10) 0.01000 349.1 3.7
356(10) 0.00982 349.1 3.8
364(10) 0.01018 349.0 3.9
345(10) 0.01071 349.0 4.0
367(10) 0.00954 348.9 4.1
376(11) 0.00852 348.9 4.2
378(11) 0.00899 348.8 4.3
345(10) 0.01089 348.8 4.5
331(10) 0.01035 348.7 4.6
334(10) 0.01053 348.6 4.8
325(10) 0.01061 348.6 4.9
339(10) 0.01015 348.5 5.1
334(9) 0.01119 348.5 5.3
352(10) 0.01027 348.4 5.4
353(10) 0.00990 348.4 5.6
335(10) 0.01014 348.3 5.8
332(10) 0.01062 348.3 6.0
329(9) 0.01143 348.2 6.2
323(9) 0.01108 348.2 6.4
346(10) 0.00982 348.1 6.5
358(10) 0.00941 348.0 6.7
331(10) 0.01063 348.0 6.9
338(10) 0.01102 347.9 7.1
380(10) 0.00928 347.9 7.3
345(10) 0.00959 347.8 7.4
343(10) 0.00990 347.8 7.6
354(10) 0.01030 347.7 7.7
310(9) 0.01202 347.7 7.9
342(10) 0.00986 347.6 8.0
348(10) 0.00982 347.6 8.1
341(10) 0.01048 347.5 8.1
356(10) 0.01041 347.4 8.2
354(10) 0.01057 347.4 8.2
347(10) 0.01028 347.3 8.3
360(10) 0.00919 347.3 8.3
347(10) 0.00956 347.2 8.3
333(10) 0.01089 347.2 8.3
333(9) 0.01113 347.1 8.3
357(10) 0.00975 347.1 8.2
350(10) 0.00972 347.0 8.2
384(10) 0.00909 347.0 8.2
363(10) 0.01012 346.9 8.2
350(10) 0.01065 346.8 8.1
360(10) 0.00946 346.8 8.1
342(10) 0.00914 346.7 8.1
348(10) 0.00978 346.7 8.1
357(10) 0.01039 346.6 8.1
369(10) 0.01005 346.6 8.0
340(10) 0.01039 346.5 8.0
362(11) 0.00895 346.5 8.1
348(10) 0.01000 346.4 8.1
364(10) 0.01020 346.4 8.1
358(10) 0.01019 346.3 8.1
359(10) 0.00944 346.2 8.2
344(10) 0.00964 346.2 8.3
369(10) 0.00937 346.1 8.4
362(10) 0.01026 346.1 8.5
339(10) 0.01063 346.0 8.7
342(10) 0.01025 346.0 8.8
357(10) 0.00935 345.9 9.0
360(10) 0.00928 345.9 9.2
344(10) 0.01083 345.8 9.5
338(10) 0.01084 345.8 9.8
336(10) 0.01040 345.7 10.1
374(11) 0.00873 345.6 10.5
329(10) 0.01033 345.6 10.9
339(10) 0.01107 345.5 11.4
347(10) 0.00967 345.5 11.9
355(10) 0.00951 345.4 12.5
347(10) 0.00965 345.4 13.1
349(10) 0.00978 345.3 13.9
361(10) 0.01028 345.3 14.7
385(10) 0.00913 345.2 15.6
367(10) 0.00923 345.2 16.6
343(10) 0.01021 345.1 17.7
364(10) 0.00985 345.0 19.0
377(10) 0.00982 345.0 20.3
343(10) 0.01021 344.9 21.8
345(10) 0.01009 344.9 23.5
404(11) 0.00830 344.8 25.3
401(10) 0.00913 344.8 27.3
377(10) 0.00986 344.7 29.4
368(10) 0.00943 344.7 31.8
361(11) 0.00888 344.6 34.3
364(10) 0.00931 344.6 36.9
374(10) 0.00978 344.5 39.8
358(10) 0.01044 344.4 42.9
391(11) 0.00872 344.4 46.1
386(11) 0.00870 344.3 49.4
426(11) 0.00814 344.3 53.0
403(10) 0.00909 344.2 56.6
399(10) 0.00944 344.2 60.3
421(11) 0.00832 344.1 64.1
405(11) 0.00823 344.1 67.9
408(11) 0.00876 344.0 71.7
460(11) 0.00801 343.9 75.3
435(11) 0.00836 343.9 78.7
435(11) 0.00829 343.8 81.9
440(12) 0.00741 343.8 84.8
456(12) 0.00741 343.7 87.2
433(11) 0.00848 343.7 89.1
422(11) 0.00886 343.6 90.5
433(11) 0.00817 343.6 91.3
425(11) 0.00783 343.5 91.5
431(11) 0.00809 343.5 91.1
429(11) 0.00868 343.4 90.2
427(11) 0.00858 343.3 88.7
443(11) 0.00771 343.3 86.9
420(11) 0.00810 343.2 84.8
441(11) 0.00793 343.2 82.3
440(11) 0.00847 343.1 79.7
399(10) 0.00914 343.1 77.0
420(11) 0.00814 343.0 74.2
404(11) 0.00805 343.0 71.4
393(11) 0.00903 342.9 68.6
436(11) 0.00852 342.9 65.8
391(10) 0.00924 342.8 63.2
397(11) 0.00883 342.7 60.5
395(11) 0.00857 342.7 58.0
395(11) 0.00899 342.6 55.5
400(10) 0.00930 342.6 53.1
357(10) 0.01012 342.5 50.9
414(11) 0.00790 342.5 48.7
395(11) 0.00868 342.4 46.5
387(10) 0.00909 342.4 44.5
375(10) 0.00985 342.3 42.5
355(10) 0.00968 342.3 40.6
352(10) 0.00938 342.2 38.8
370(11) 0.00901 342.1 37.0
391(10) 0.00915 342.1 35.3
382(10) 0.00962 342.0 33.7
353(10) 0.00992 342.0 32.1
392(11) 0.00808 341.9 30.6
375(11) 0.00902 341.9 29.0
374(10) 0.00958 341.8 27.6
362(10) 0.01006 341.8 26.3
369(10) 0.00963 341.7 25.0
374(11) 0.00862 341.7 23.8
334(10) 0.01067 341.6 22.6
371(10) 0.01009 341.5 21.5
383(10) 0.00977 341.5 20.5
356(10) 0.00992 341.4 19.5
355(10) 0.00949 341.4 18.5
364(10) 0.00957 341.3 17.6
356(10) 0.01032 341.3 16.7
348(10) 0.01070 341.2 15.9
348(10) 0.01037 341.2 15.1
362(10) 0.00915 341.1 14.4
350(10) 0.00980 341.1 13.7
356(10) 0.01046 341.0 13.0
345(10) 0.01040 340.9 12.4
365(10) 0.00937 340.9 11.8
328(10) 0.01031 340.8 11.2
352(10) 0.00972 340.8 10.7
350(10) 0.01067 340.7 10.2
372(10) 0.00981 340.7 9.7
361(10) 0.00944 340.6 9.2
355(10) 0.00944 340.6 8.8
319(10) 0.01107 340.5 8.4
353(10) 0.01069 340.5 8.0
379(10) 0.00931 340.4 7.7
345(10) 0.01031 340.3 7.3
344(10) 0.00964 340.3 7.0
328(10) 0.01064 340.2 6.7
338(10) 0.01107 340.2 6.5
367(10) 0.00975 340.1 6.2
336(10) 0.01053 340.1 5.9
343(10) 0.01006 340.0 5.7
342(10) 0.01013 340.0 5.5
333(9) 0.01120 339.9 5.3
352(10) 0.01024 339.9 5.1
332(10) 0.01068 339.8 4.9
333(10) 0.01026 339.7 4.8
340(10) 0.01022 339.7 4.6
328(9) 0.01142 339.6 4.5
321(10) 0.01066 339.6 4.3
340(10) 0.00948 339.5 4.2
328(10) 0.01064 339.5 4.1
355(10) 0.01021 339.4 3.9
348(10) 0.01068 339.4 3.8
361(10) 0.00952 339.3 3.7
333(10) 0.01064 339.2 3.6
367(10) 0.00933 339.2 3.5
354(10) 0.01029 339.1 3.4
345(10) 0.01083 339.1 3.3
345(10) 0.01011 339.0 3.2
368(11) 0.00867 339.0 3.2
365(10) 0.00932 338.9 3.1
333(9) 0.01116 338.9 3.0
342(10) 0.01090 338.8 2.9
344(10) 0.01005 338.8 2.9
353(11) 0.00879 338.7 2.8
328(10) 0.01094 338.6 2.7
340(10) 0.01092 338.6 2.7
336(10) 0.01092 338.5 2.6
328(10) 0.01055 338.5 2.6
345(10) 0.00924 338.4 2.5
342(10) 0.01000 338.4 2.5
340(10) 0.01074 338.3 2.4
325(9) 0.01122 338.3 2.4
350(10) 0.00977 338.2 2.3
349(10) 0.00939 338.2 2.3
333(10) 0.01051 338.1 2.2
349(10) 0.01058 338.0 2.2
346(10) 0.01068 338.0 2.1
335(10) 0.01032 337.9 2.1
323(10) 0.01003 337.9 2.1
325(10) 0.01062 337.8 2.0
345(10) 0.01076 337.8 2.0
325(9) 0.01124 337.7 1.9
337(10) 0.01014 337.7 1.9
343(10) 0.00980 337.6 1.9
334(10) 0.01057 337.6 1.8
345(10) 0.01075 337.5 1.8
332(10) 0.01083 337.4 1.8
350(10) 0.00941 337.4 1.7
341(10) 0.01005 337.3 1.7
317(9) 0.01159 337.3 1.7
323(9) 0.01153 337.2 1.7
347(10) 0.01021 337.2 1.6
360(10) 0.00931 337.1 1.6
334(10) 0.01043 337.1 1.6
337(10) 0.01061 337.0 1.6
355(10) 0.01050 337.0 1.5
348(10) 0.01013 336.9 1.5
350(10) 0.00961 336.8 1.5
315(9) 0.01109 336.8 1.5
334(10) 0.01091 336.7 1.4
333(9) 0.01112 336.7 1.4
324(10) 0.01100 336.6 1.4
348(10) 0.00949 336.6 1.4
342(10) 0.01026 336.5 1.4
362(10) 0.00992 336.5 1.3
341(10) 0.01082 336.4 1.3
354(10) 0.00988 336.4 1.3
314(10) 0.01097 336.3 1.3
331(10) 0.01056 336.2 1.3
328(9) 0.01130 336.2 1.3
322(9) 0.01165 336.1 1.2
341(10) 0.01022 336.1 1.7
346(10) 0.00938 336.0 1.7
337(10) 0.01070 336.0 1.7
356(10) 0.01062 335.9 1.6
346(10) 0.01067 335.9 1.6
344(10) 0.01035 335.8 1.6
354(10) 0.00919 335.8 1.6
329(10) 0.01067 335.7 1.6
334(9) 0.01112 335.6 1.6
328(9) 0.01133 335.6 1.6
336(10) 0.01006 335.5 1.6
333(10) 0.00957 335.5 1.6
346(10) 0.01020 335.4 1.6
314(9) 0.01191 335.4 1.6
342(10) 0.01060 335.3 1.6
332(10) 0.01064 335.3 1.5
334(10) 0.01001 335.2 1.5
345(10) 0.01003 335.2 1.5
350(10) 0.01065 335.1 1.5
330(10) 0.01077 335.0 1.5
339(10) 0.01020 335.0 1.5
349(10) 0.00951 334.9 1.5
321(10) 0.01072 334.9 1.5
332(9) 0.01120 334.8 1.5
338(10) 0.01085 334.8 1.5
349(10) 0.01022 334.7 1.5
338(10) 0.01038 334.7 1.5
348(10) 0.00981 334.6 1.5
350(10) 0.01057 334.5 1.5
331(10) 0.01079 334.5 1.5
330(10) 0.01033 334.4 1.5
319(10) 0.01061 334.4 1.5
346(10) 0.01001 334.3 1.5
346(10) 0.01079 334.3 1.5
361(10) 0.00989 334.2 1.5
343(10) 0.00991 334.2 1.5
357(10) 0.00917 334.2 1.5
314(9) 0.01152 334.2 1.5
377(10) 0.00989 334.2 1.5
336(10) 0.01025 334.2 1.5
358(10) 0.00944 334.2 1.5
350(10) 0.01000 334.3 1.5
345(10) 0.01082 334.3 1.5
342(10) 0.01078 334.3 1.5
339(10) 0.00998 334.3 1.5
355(10) 0.00944 334.3 1.5
343(10) 0.01022 334.4 1.5
334(10) 0.01061 334.4 1.5
331(9) 0.01114 334.4 1.5
304(9) 0.01191 334.4 1.5
339(10) 0.00989 334.5 1.5
330(10) 0.01079 334.5 1.5
314(9) 0.01165 334.5 1.5
345(10) 0.01089 334.5 1.5
350(10) 0.00991 334.5 1.5
345(10) 0.00927 334.6 1.5
312(9) 0.01115 334.6 1.5
310(9) 0.01187 334.6 1.5
324(9) 0.01162 334.6 1.5
331(10) 0.00991 334.6 1.5
343(10) 0.00941 334.7 1.5
348(10) 0.01002 334.7 1.6
331(9) 0.01136 334.7 1.6
334(10) 0.01085 334.7 1.6
334(10) 0.01053 334.8 1.6
336(10) 0.00983 334.8 1.6
372(10) 0.00914 334.8 1.6
367(10) 0.01011 334.8 1.6
366(10) 0.00981 334.8 1.6
327(10) 0.01099 334.9 1.6
329(10) 0.00993 334.9 1.6
353(10) 0.00959 334.9 1.6
341(10) 0.01098 334.9 1.6
318(9) 0.01135 335.0 1.7
315(10) 0.01107 335.0 1.7
333(10) 0.01009 335.0 1.7
329(10) 0.01051 335.0 1.7
343(10) 0.01099 335.0 1.7
330(10) 0.01077 335.1 1.7
346(10) 0.00973 335.1 1.7
372(11) 0.00898 335.1 1.8
347(10) 0.00996 335.1 1.8
328(9) 0.01132 335.1 1.8
317(10) 0.01107 335.2 2.8
334(10) 0.01010 335.2 2.8
339(10) 0.00957 335.2 2.9
337(10) 0.01056 335.2 2.9
334(9) 0.01124 335.3 3.0
339(10) 0.01027 335.3 3.0
337(10) 0.01013 335.3 3.1
356(10) 0.00939 335.3 3.1
342(10) 0.01029 335.3 3.2
328(9) 0.01132 335.4 3.2
337(10) 0.01022 335.4 3.3
351(10) 0.00990 335.4 3.4
350(10) 0.00988 335.4 3.5
343(10) 0.01043 335.5 3.6
341(10) 0.01094 335.5 3.7
358(10) 0.00945 335.5 3.7
333(10) 0.00978 335.5 3.8
341(10) 0.01008 335.5 3.9
323(9) 0.01142 335.6 4.0
349(10) 0.01072 335.6 4.2
335(10) 0.01049 335.6 4.3
351(10) 0.00933 335.6 4.4
344(10) 0.01043 335.6 4.6
334(10) 0.01107 335.7 4.7
346(10) 0.01054 335.7 4.9
349(10) 0.00993 335.7 5.0
333(10) 0.01011 335.7 5.2
358(10) 0.00980 335.8 5.3
351(10) 0.01065 335.8 5.5
366(10) 0.01009 335.8 5.7
347(10) 0.01011 335.8 5.9
325(10) 0.01020 335.8 6.1
347(10) 0.01013 335.9 6.3
352(10) 0.01058 335.9 6.4
339(10) 0.01040 335.9 6.6
342(10) 0.01014 335.9 6.8
353(10) 0.00938 336.0 7.0
343(10) 0.01007 336.0 7.2
344(10) 0.01097 336.0 7.3
329(9) 0.01113 336.0 7.5
355(10) 0.00931 336.0 7.6
363(10) 0.00941 336.1 7.8
364(10) 0.00946 336.1 8.0
356(10) 0.01038 336.1 8.1
326(9) 0.01128 336.1 8.3
328(10) 0.01046 336.1 8.5
307(10) 0.01094 336.2 8.6
328(10) 0.01045 336.2 8.9
340(10) 0.01102 336.2 9.1
362(10) 0.00973 336.2 9.3
337(10) 0.01028 336.3 9.6
329(10) 0.01025 336.3 10.0
357(10) 0.00974 336.3 10.3
345(10) 0.01079 336.3 10.8
355(10) 0.00946 336.3 11.3
349(10) 0.00972 336.4 11.8
359(10) 0.00936 336.4 12.3
337(10) 0.01070 336.4 12.9
327(9) 0.01145 336.4 13.6
354(10) 0.00997 336.4 14.4
323(10) 0.01065 336.5 15.2
368(10) 0.00914 336.5 16.2
347(10) 0.01048 336.5 17.3
366(10) 0.01001 336.5 18.5
342(10) 0.01034 336.6 19.9
356(10) 0.00932 336.6 21.5
372(11) 0.00891 336.6 23.4
340(10) 0.01075 336.6 25.5
363(10) 0.01033 336.6 28.0
388(11) 0.00901 336.7 31.0
411(11) 0.00775 336.7 34.5
389(11) 0.00903 336.7 38.8
400(11) 0.00897 336.7 44.1
396(10) 0.00949 336.8 51.1
445(11) 0.00770 336.8 60.9
470(12) 0.00689 336.8 75.9
478(12) 0.00743 336.8 99.9
530(12) 0.00684 336.8 139.4
549(12) 0.00682 336.9 203.1
667(14) 0.00523 336.9 300.7
764(15) 0.00428 336.9 439.5
908(16) 0.00380 336.9 619.2
1126(17) 0.003299 336.9 827.6
1304(19) 0.002796 337.0 1034.5
1517(21) 0.002325 337.0 1191.4
1739(23) 0.001937 337.0 1243.2
1704(22) 0.002036 337.0 1167.2
1420(19) 0.002636 337.1 995.7
1043(17) 0.003432 337.1 785.8
834(16) 0.00410 337.1 582.0
681(14) 0.00501 337.1 410.2
596(13) 0.00584 337.1 280.4
535(12) 0.00693 337.2 190.6
475(11) 0.00763 337.2 132.9
485(12) 0.00728 337.2 97.6
425(11) 0.00812 337.2 76.2
412(11) 0.00854 337.3 62.9
416(11) 0.00904 337.3 54.2
406(11) 0.00845 337.3 48.0
403(11) 0.00827 337.3 43.4
384(10) 0.00916 337.3 39.7
384(10) 0.00921 337.4 36.8
400(10) 0.00935 337.4 34.4
383(10) 0.00931 337.4 32.5
382(11) 0.00895 337.4 30.9
356(10) 0.00981 337.4 29.7
364(10) 0.00997 337.5 28.7
381(10) 0.00977 337.5 27.9
374(10) 0.00953 337.5 27.4
386(11) 0.00865 337.5 27.0
377(11) 0.00889 337.6 26.7
351(10) 0.01058 337.6 26.6
383(10) 0.00976 337.6 26.7
363(10) 0.00970 337.6 26.9
387(11) 0.00854 337.6 27.2
380(10) 0.00921 337.7 27.6
364(10) 0.01018 337.7 28.2
397(10) 0.00923 337.7 28.9
336(10) 0.01038 337.7 29.7
370(11) 0.00843 337.8 30.7
387(11) 0.00872 337.8 31.8
376(10) 0.00987 337.8 33.0
345(10) 0.01085 337.8 34.5
367(10) 0.00924 337.8 36.2
342(10) 0.00966 337.9 38.0
377(10) 0.00932 337.9 40.2
369(10) 0.01010 337.9 42.7
378(10) 0.00994 337.9 45.6
392(11) 0.00872 337.9 48.9
401(11) 0.00819 338.0 52.9
379(10) 0.00921 338.0 57.6
410(11) 0.00906 338.0 63.2
409(10) 0.00912 338.0 70.0
428(11) 0.00820 338.1 78.3
431(11) 0.00771 338.1 88.3
429(11) 0.00816 338.1 100.5
445(11) 0.00817 338.1 115.2
457(11) 0.00799 338.1 132.8
483(12) 0.00726 338.2 153.9
495(12) 0.00686 338.2 178.6
538(12) 0.00642 338.2 207.4
562(12) 0.00665 338.2 240.5
581(13) 0.00620 338.2 277.7
601(13) 0.00591 338.3 318.9
691(14) 0.00499 338.3 363.5
795(15) 0.00430 338.3 410.7
847(15) 0.00442 338.3 458.7
883(16) 0.00404 338.4 505.5
876(16) 0.00403 338.4 548.2
950(17) 0.00358 338.4 583.2
921(16) 0.00390 338.4 607.2
925(16) 0.00401 338.4 617.3
919(16) 0.00385 338.5 612.1
916(16) 0.00370 338.5 592.6
815(15) 0.00426 338.5 561.0
784(15) 0.00459 338.5 520.9
713(14) 0.00519 338.6 475.8
698(14) 0.00503 338.6 428.7
696(14) 0.00488 338.6 382.3
631(13) 0.00574 338.6 338.1
633(13) 0.00572 338.6 297.4
594(13) 0.00624 338.7 261.1
578(13) 0.00590 338.7 229.7
541(12) 0.00640 338.7 204.3
545(12) 0.00665 338.7 185.8
547(12) 0.00666 338.7 176.2
528(12) 0.00704 338.8 178.2
569(13) 0.00590 338.8 194.6
575(13) 0.00577 338.8 227.1
629(13) 0.00555 338.8 274.6
686(14) 0.00532 338.9 331.4
788(15) 0.00475 338.9 385.3
863(16) 0.00408 338.9 418.6
859(16) 0.00381 338.9 414.6
790(15) 0.00455 338.9 372.7
701(14) 0.00537 339.0 308.4
605(13) 0.00603 339.0 239.6
513(12) 0.00700 339.0 178.1
475(12) 0.00702 339.0 129.6
466(12) 0.00732 339.1 94.9
439(11) 0.00840 339.1 71.8
446(11) 0.00813 339.1 57.2
407(11) 0.00852 339.1 48.0
396(11) 0.00847 339.1 41.9
394(11) 0.00899 339.2 37.7
398(10) 0.00930 339.2 34.4
399(10) 0.00915 339.2 31.7
373(10) 0.00936 339.2 29.5
387(11) 0.00848 339.2 27.5
368(10) 0.00966 339.3 25.8
385(10) 0.00954 339.3 24.2
380(10) 0.00951 339.3 22.9
328(9) 0.01111 339.3 21.7
360(10) 0.00912 339.4 20.6
366(10) 0.00953 339.4 19.6
346(10) 0.01088 339.4 18.7
356(10) 0.01001 339.4 17.8
366(10) 0.00957 339.4 17.1
339(10) 0.01014 339.5 16.4
350(10) 0.01004 339.5 15.7
368(10) 0.01009 339.5 15.1
357(10) 0.00998 339.5 14.6
348(10) 0.00993 339.6 14.0
367(10) 0.00929 339.6 13.6
377(10) 0.00925 339.6 13.1
378(10) 0.00983 339.6 12.7
359(10) 0.00974 339.6 12.3
334(10) 0.01035 339.7 12.0
364(10) 0.00927 339.7 11.6
356(10) 0.01010 339.7 11.3
343(10) 0.01064 339.7 11.0
384(11) 0.00885 339.7 10.7
395(11) 0.00849 339.8 10.4
355(10) 0.00988 339.8 10.2
358(10) 0.01028 339.8 10.0
358(10) 0.01036 339.8 9.7
381(11) 0.00881 339.9 9.5
354(10) 0.00962 339.9 9.3
379(10) 0.00944 339.9 9.2
355(10) 0.01025 339.9 9.0
373(10) 0.00994 339.9 8.8
361(10) 0.00969 340.0 8.7
357(10) 0.00924 340.0 8.5
359(10) 0.00973 340.0 8.4
328(9) 0.01135 340.0 8.3
365(10) 0.01017 340.0 8.2
343(10) 0.01020 340.1 8.0
363(11) 0.00829 340.1 7.9
357(10) 0.00957 340.1 7.8
363(10) 0.01005 340.1 7.8
325(9) 0.01151 340.2 7.7
346(10) 0.00988 340.3 7.6
342(10) 0.00944 340.3 7.5
367(10) 0.00946 340.4 7.5
365(10) 0.01022 340.5 7.4
376(10) 0.00988 340.5 7.3
340(10) 0.01028 340.6 7.3
377(11) 0.00883 340.7 7.3
372(10) 0.00933 340.7 7.2
349(10) 0.01043 340.8 7.2
341(10) 0.01073 340.9 7.2
351(10) 0.00979 340.9 7.1
353(10) 0.00932 341.0 7.1
371(10) 0.00907 341.1 7.1
331(9) 0.01114 341.1 7.1
345(10) 0.01041 341.2 7.1
363(10) 0.00943 341.3 7.1
343(10) 0.01010 341.3 7.1
369(10) 0.00923 341.4 7.1
345(10) 0.01064 341.5 7.1
352(10) 0.01018 341.5 7.2
351(10) 0.00965 341.6 7.2
345(10) 0.00991 341.7 7.2
328(10) 0.01070 341.7 7.3
339(10) 0.01101 341.8 7.3
344(10) 0.01025 341.9 7.4
348(10) 0.00952 341.9 7.4
341(10) 0.01019 342.0 7.8
338(10) 0.01075 342.1 7.9
358(10) 0.01033 342.1 7.9
337(10) 0.01026 342.2 8.0
364(11) 0.00903 342.2 8.1
364(10) 0.00943 342.3 8.2
357(10) 0.01020 342.4 8.3
350(10) 0.01052 342.4 8.4
342(10) 0.01012 342.5 8.6
362(11) 0.00904 342.6 8.7
338(10) 0.00995 342.6 8.8
359(10) 0.01014 342.7 9.0
357(10) 0.01039 342.8 9.2
333(10) 0.01055 342.8 9.3
338(10) 0.01001 342.9 9.5
355(10) 0.01001 343.0 9.7
367(10) 0.00990 343.0 9.9
343(10) 0.01086 343.1 10.2
362(10) 0.00966 343.2 10.4
339(10) 0.00966 343.2 10.7
357(10) 0.00975 343.3 11.0
359(10) 0.01048 343.4 11.3
350(10) 0.01065 343.4 11.6
385(10) 0.00935 343.5 12.0
387(11) 0.00854 343.6 12.3
377(10) 0.00943 343.6 12.8
370(10) 0.00995 343.7 13.2
356(10) 0.01033 343.8 13.7
360(10) 0.00971 343.8 14.2
365(10) 0.00934 343.9 14.8
361(10) 0.00971 344.0 15.4
356(10) 0.01039 344.0 16.1
372(10) 0.00974 344.1 16.8
369(10) 0.00954 344.2 17.7
371(11) 0.00906 344.2 18.6
367(10) 0.00955 344.3 19.7
386(10) 0.00962 344.4 20.9
373(10) 0.00945 344.4 22.3
362(10) 0.00919 344.5 23.9
369(10) 0.00945 344.6 25.7
352(10) 0.01017 344.6 27.7
358(10) 0.01021 344.7 30.0
382(10) 0.00927 344.8 32.6
368(10) 0.00929 344.8 35.6
386(11) 0.00866 344.9 38.8
397(11) 0.00871 345.0 42.4
391(10) 0.00954 345.0 46.3
384(10) 0.00930 345.1 50.5
387(11) 0.00848 345.2 55.1
361(10) 0.00958 345.2 59.8
403(11) 0.00869 345.3 64.7
388(10) 0.00959 345.4 69.6
401(11) 0.00847 345.4 74.4
421(11) 0.00789 345.5 78.9
442(11) 0.00774 345.6 82.8
439(11) 0.00833 345.6 86.1
459(11) 0.00819 345.7 88.3
467(12) 0.00738 345.8 89.4
439(11) 0.00783 345.8 89.4
441(11) 0.00802 345.9 88.3
411(11) 0.00895 346.0 86.5
423(11) 0.00886 346.0 84.0
465(12) 0.00738 346.1 81.1
439(12) 0.00747 346.2 78.0
420(11) 0.00843 346.2 74.9
427(11) 0.00863 346.3 71.9
413(11) 0.00887 346.4 69.2
418(11) 0.00836 346.4 66.7
430(12) 0.00742 346.5 65.1
410(11) 0.00873 346.6 63.3
422(11) 0.00879 346.6 61.9
431(11) 0.00859 346.7 60.9
408(11) 0.00866 346.8 60.3
426(12) 0.00732 346.8 60.1
369(10) 0.00971 346.9 60.2
431(11) 0.00844 347.0 60.8
425(11) 0.00871 347.0 61.9
421(11) 0.00812 347.1 63.3
405(11) 0.00775 347.2 65.3
421(11) 0.00783 347.2 67.8
383(10) 0.00978 347.3 70.9
451(11) 0.00773 347.4 74.7
458(12) 0.00743 347.4 79.3
400(11) 0.00862 347.5 84.7
428(11) 0.00787 347.6 91.1
453(11) 0.00821 347.6 98.5
465(11) 0.00791 347.7 107.0
478(12) 0.00710 347.7 116.6
476(12) 0.00732 347.8 127.3
488(12) 0.00722 347.9 139.2
502(12) 0.00736 347.9 152.1
510(12) 0.00705 348.0 165.9
519(12) 0.00659 348.1 180.4
550(13) 0.00626 348.1 195.1
567(13) 0.00619 348.2 209.6
566(12) 0.00663 348.3 223.3
559(12) 0.00649 348.3 235.2
609(14) 0.00547 348.4 244.6
573(13) 0.00610 348.5 250.7
621(13) 0.00582 348.5 252.8
612(13) 0.00613 348.6 250.6
638(14) 0.00538 348.7 244.3
624(13) 0.00555 348.7 234.5
615(13) 0.00576 348.8 221.9
590(13) 0.00621 348.9 207.4
544(12) 0.00677 348.9 191.8
498(12) 0.00694 349.0 175.8
515(13) 0.00619 349.1 160.1
493(12) 0.00713 349.1 144.9
472(11) 0.00775 349.2 130.6
462(11) 0.00801 349.3 117.3
412(11) 0.00872 349.3 105.2
417(11) 0.00808 349.4 94.2
425(11) 0.00841 349.5 84.5
434(11) 0.00852 349.5 75.9
417(11) 0.00879 349.6 68.3
411(11) 0.00829 349.7 61.8
385(11) 0.00871 349.7 56.2
417(11) 0.00837 349.8 51.3
374(10) 0.00993 349.9 47.2
387(10) 0.00958 349.9 43.6
374(10) 0.00940 350.0 40.6
371(11) 0.00852 350.1 38.0
358(10) 0.00962 350.1 35.7
375(10) 0.00987 350.2 33.8
374(10) 0.00997 350.3 32.1
375(10) 0.00910 350.3 30.7
361(10) 0.00913 350.4 29.4
390(11) 0.00880 350.5 28.2
390(10) 0.00951 350.5 27.2
392(10) 0.00926 350.6 26.4
386(11) 0.00890 350.7 25.6
355(10) 0.00963 350.7 24.9
351(10) 0.00993 350.8 24.3
342(10) 0.01091 350.9 23.7
368(10) 0.00965 350.9 23.3
378(11) 0.00891 351.0 22.9
362(10) 0.00946 351.1 22.6
404(11) 0.00853 351.1 22.3
366(10) 0.01027 351.2 22.1
356(10) 0.00990 351.3 22.0
344(10) 0.00989 351.3 22.0
349(10) 0.00981 351.4 22.0
354(10) 0.00951 351.5 22.1
359(10) 0.01041 351.5 22.2
365(10) 0.00986 351.6 22.4
346(10) 0.01033 351.7 22.8
372(10) 0.00911 351.7 23.2
341(10) 0.01042 351.8 23.7
401(10) 0.00937 351.9 24.3
377(10) 0.00947 351.9 25.1
356(10) 0.00945 352.0 26.0
361(10) 0.00967 352.1 27.2
364(10) 0.01011 352.1 28.7
395(10) 0.00942 352.2 30.7
392(11) 0.00870 352.3 33.3
385(11) 0.00864 352.3 36.6
364(10) 0.00984 352.4 40.6
385(10) 0.00957 352.5 45.4
403(10) 0.00930 352.5 50.5
382(11) 0.00891 352.6 55.6
415(11) 0.00772 352.7 60.4
398(11) 0.00887 352.7 65.4
441(11) 0.00827 352.8 71.8
458(11) 0.00826 352.9 81.7
449(11) 0.00780 352.9 95.6
434(11) 0.00763 353.0 115.4
478(12) 0.00743 353.1 142.6
540(12) 0.00677 353.1 178.3
568(12) 0.00645 353.2 223.3
647(14) 0.00537 353.2 277.7
721(15) 0.00461 353.3 340.2
848(16) 0.00409 353.4 408.2
1028(17) 0.00357 353.4 476.9
1084(17) 0.003426 353.5 538.3
1202(19) 0.002857 353.6 582.6
1193(19) 0.002738 353.6 600.0
1116(18) 0.003101 353.7 586.0
1032(17) 0.00362 353.8 544.3
959(16) 0.00376 353.8 484.2
888(16) 0.00388 353.9 415.8
781(15) 0.00425 354.0 347.4
697(14) 0.00507 354.0 284.0
636(13) 0.00578 354.1 228.5
620(13) 0.00584 354.2 182.1
549(13) 0.00631 354.2 144.8
515(12) 0.00659 354.3 115.8
502(12) 0.00676 354.4 93.8
473(11) 0.00773 354.4 77.5
465(11) 0.00775 354.5 65.5
436(11) 0.00806 354.6 56.7
429(11) 0.00794 354.6 50.1
416(11) 0.00850 354.7 45.1
413(11) 0.00893 354.8 41.3
410(11) 0.00869 354.8 38.2
387(11) 0.00898 354.9 35.7
403(11) 0.00864 355.0 33.7
398(11) 0.00881 355.0 32.0
409(10) 0.00912 355.1 30.5
390(10) 0.00914 355.2 29.3
414(11) 0.00812 355.2 28.4
395(11) 0.00880 355.3 27.6
381(10) 0.00954 355.4 27.0
379(10) 0.00978 355.4 26.5
404(11) 0.00834 355.5 26.2
404(11) 0.00802 355.6 26.1
388(10) 0.00942 355.6 26.1
407(11) 0.00889 355.7 26.2
400(10) 0.00934 355.8 26.5
389(11) 0.00900 355.8 26.9
393(11) 0.00861 355.9 27.5
390(11) 0.00896 356.0 28.3
390(10) 0.00940 356.0 29.2
402(10) 0.00929 356.1 30.5
410(11) 0.00840 356.2 32.0
387(11) 0.00858 356.2 34.0
374(10) 0.00931 356.3 36.5
418(11) 0.00883 356.4 39.7
450(11) 0.00826 356.4 43.9
444(11) 0.00777 356.5 49.6
456(12) 0.00709 356.6 57.2
458(12) 0.00756 356.6 67.6
465(11) 0.00804 356.7 81.6
482(11) 0.00768 356.8 100.1
523(12) 0.00673 356.8 124.0
530(13) 0.00621 356.9 154.0
568(13) 0.00618 357.0 190.3
662(13) 0.00560 357.0 232.6
649(13) 0.00563 357.1 279.5
666(14) 0.00537 357.2 328.3
807(16) 0.00407 357.2 374.8
855(16) 0.00410 357.3 412.6
943(16) 0.00392 357.4 434.9
924(16) 0.00394 357.4 436.5
900(16) 0.00386 357.5 417.0
859(16) 0.00387 357.6 381.0
799(15) 0.00434 357.6 335.4
689(14) 0.00543 357.7 286.5
637(13) 0.00557 357.8 239.0
559(13) 0.00628 357.8 195.9
507(12) 0.00678 357.9 158.5
463(12) 0.00755 358.0 127.5
451(11) 0.00831 358.0 102.7
451(11) 0.00790 358.1 83.3
419(11) 0.00832 358.2 68.6
417(11) 0.00785 358.2 57.6
397(11) 0.00877 358.3 49.5
389(10) 0.00963 358.4 43.4
395(11) 0.00842 358.4 38.9
381(11) 0.00881 358.5 35.4
394(11) 0.00890 358.6 32.7
403(11) 0.00884 358.6 30.6
398(10) 0.00939 358.7 28.8
396(11) 0.00862 358.7 27.4
395(11) 0.00838 358.8 26.2
360(10) 0.00972 358.9 25.2
375(10) 0.00978 358.9 24.4
379(10) 0.00987 359.0 23.8
387(11) 0.00899 359.1 23.3
399(11) 0.00807 359.1 22.9
353(10) 0.00962 359.2 22.6
377(10) 0.00949 359.3 22.5
376(10) 0.00986 359.3 22.5
350(10) 0.01023 359.4 22.6
352(10) 0.00935 359.5 22.8
365(10) 0.00909 359.5 23.1
383(10) 0.00945 359.6 23.6
390(10) 0.00942 359.7 24.2
380(10) 0.00909 359.7 25.0
368(11) 0.00868 359.8 25.9
373(10) 0.00921 359.9 27.1
375(10) 0.00975 359.9 28.4
385(10) 0.00973 360.0 30.1
383(11) 0.00885 360.1 32.1
376(11) 0.00848 360.1 34.6
415(11) 0.00837 360.2 37.8
386(10) 0.00961 360.3 41.8
434(11) 0.00856 360.3 47.2
409(11) 0.00862 360.4 54.6
415(11) 0.00791 360.5 64.9
412(11) 0.00838 360.5 79.2
436(11) 0.00854 360.6 98.9
464(11) 0.00789 360.7 125.6
521(12) 0.00684 360.7 160.5
516(12) 0.00667 360.8 204.3
573(13) 0.00598 360.9 256.9
701(14) 0.00532 360.9 316.2
745(14) 0.00488 361.0 378.1
806(15) 0.00426 361.1 435.7
846(16) 0.00398 361.1 478.3
852(16) 0.00409 361.2 495.3
811(15) 0.00459 361.3 481.5
767(15) 0.00453 361.3 441.3
721(15) 0.00472 361.4 384.9
663(14) 0.00507 361.5 323.0
596(13) 0.00606 361.5 263.0
541(12) 0.00686 361.6 209.7
528(12) 0.00669 361.7 164.9
504(12) 0.00661 361.7 129.0
488(12) 0.00694 361.8 101.5
473(12) 0.00755 361.9 81.0
469(11) 0.00803 361.9 66.2
433(11) 0.00790 362.0 55.6
410(11) 0.00826 362.1 47.9
401(11) 0.00847 362.1 42.3
383(10) 0.00945 362.2 38.1
390(10) 0.00956 362.3 34.9
383(11) 0.00894 362.3 32.3
402(11) 0.00829 362.4 30.2
403(11) 0.00880 362.5 28.5
390(10) 0.00954 362.5 27.1
407(10) 0.00912 362.6 26.0
386(11) 0.00893 362.7 25.1
381(10) 0.00911 362.7 24.4
393(10) 0.00912 362.8 23.9
387(10) 0.00954 362.9 23.6
352(10) 0.01050 362.9 23.7
359(10) 0.00973 363.0 24.3
398(11) 0.00814 363.1 25.5
381(10) 0.00922 363.1 27.9
380(10) 0.00970 363.2 31.8
393(10) 0.00945 363.3 37.6
388(11) 0.00904 363.3 45.7
397(11) 0.00817 363.4 55.9
427(11) 0.00801 363.5 67.6
432(11) 0.00854 363.5 79.2
466(11) 0.00783 363.6 88.2
436(11) 0.00801 363.7 91.6
438(11) 0.00763 363.7 88.1
440(11) 0.00801 363.8 78.9
423(11) 0.00891 363.9 66.9
384(10) 0.00955 363.9 54.7
403(11) 0.00873 364.0 44.0
397(11) 0.00848 364.1 35.3
385(11) 0.00891 364.1 28.9
415(11) 0.00900 364.2 24.3
401(10) 0.00908 364.2 21.3
381(11) 0.00899 364.3 19.4
370(11) 0.00889 364.4 18.1
388(11) 0.00880 364.4 17.3
355(10) 0.01045 364.5 16.7
366(10) 0.00967 364.6 16.2
358(10) 0.00962 364.6 15.8
368(11) 0.00899 364.7 15.6
379(10) 0.00933 364.8 15.3
392(10) 0.00951 364.8 15.2
352(10) 0.01028 364.9 15.0
367(10) 0.00946 365.0 14.9
390(11) 0.00882 365.0 14.8
397(11) 0.00901 365.1 14.8
375(10) 0.00997 365.2 14.8
378(10) 0.00918 365.2 14.8
351(10) 0.00957 365.3 14.8
357(10) 0.00960 365.4 14.8
341(10) 0.01068 365.4 14.9
363(10) 0.01028 365.5 14.9
382(11) 0.00904 365.6 15.0
348(10) 0.00979 365.6 15.1
380(10) 0.00925 365.7 15.2
356(10) 0.01019 365.8 15.4
375(10) 0.00999 365.8 15.5
389(11) 0.00893 365.9 15.7
343(10) 0.00975 366.0 15.8
368(10) 0.00961 366.0 16.0
383(10) 0.00971 366.1 16.2
396(10) 0.00939 366.1 16.5
378(10) 0.00929 366.1 16.7
367(11) 0.00885 366.0 16.9
372(10) 0.00908 365.9 17.2
364(10) 0.01024 365.9 17.5
375(10) 0.01002 365.8 17.8
365(10) 0.00959 365.7 18.1
364(11) 0.00905 365.7 18.4
363(10) 0.01003 365.6 18.8
365(10) 0.01020 365.5 19.2
378(10) 0.00989 365.5 19.6
344(10) 0.01017 365.4 20.0
370(11) 0.00894 365.3 20.4
373(10) 0.00922 365.3 20.9
359(10) 0.01024 365.2 21.3
389(10) 0.00941 365.1 21.9
385(11) 0.00880 365.1 22.4
367(11) 0.00895 365.0 23.0
362(10) 0.00936 364.9 23.6
372(10) 0.01002 364.9 24.2
360(10) 0.01018 364.8 24.8
390(11) 0.00881 364.7 25.5
383(11) 0.00868 364.7 26.3
375(11) 0.00900 364.6 27.0
362(10) 0.01019 364.5 27.8
388(10) 0.00928 364.5 28.7
379(11) 0.00886 364.4 29.6
369(11) 0.00896 364.3 30.6
364(10) 0.00973 364.3 31.6
358(10) 0.01039 364.2 32.7
380(10) 0.00916 364.1 33.9
385(11) 0.00886 364.0 35.1
364(10) 0.00936 364.0 36.4
393(11) 0.00876 363.9 37.8
380(10) 0.00988 363.8 39.4
408(11) 0.00851 363.8 41.0
406(11) 0.00827 363.7 42.8
377(10) 0.00930 363.6 44.7
389(10) 0.00911 363.6 46.8
393(10) 0.00947 363.5 49.1
400(11) 0.00822 363.4 51.6
399(11) 0.00821 363.4 54.4
402(11) 0.00852 363.3 57.4
405(11) 0.00903 363.2 60.8
414(10) 0.00909 363.2 64.6
407(11) 0.00840 363.1 68.8
422(11) 0.00775 363.0 73.4
416(11) 0.00858 363.0 78.6
412(11) 0.00891 362.9 84.4
435(11) 0.00838 362.8 90.9
440(11) 0.00787 362.8 98.1
450(12) 0.00724 362.7 106.1
472(12) 0.00743 362.6 115.0
489(12) 0.00744 362.6 124.9
463(11) 0.00810 362.5 135.9
493(12) 0.00697 362.4 148.0
487(12) 0.00674 362.4 161.2
504(12) 0.00694 362.3 175.7
512(12) 0.00731 362.2 191.5
525(12) 0.00691 362.2 208.6
564(13) 0.00633 362.1 227.1
591(13) 0.00552 362.0 247.0
586(13) 0.00613 362.0 268.1
606(13) 0.00616 361.9 290.6
633(13) 0.00587 361.8 314.1
668(14) 0.00519 361.7 338.8
681(14) 0.00492 361.7 364.3
756(15) 0.00468 361.6 390.5
799(15) 0.00469 361.5 417.0
825(15) 0.00438 361.5 443.4
853(16) 0.00405 361.4 469.4
852(16) 0.00391 361.3 494.2
909(16) 0.00377 361.3 517.4
904(16) 0.00411 361.2 538.3
959(16) 0.00379 361.1 556.1
951(17) 0.00355 361.1 570.2
934(17) 0.00359 361.0 580.1
934(16) 0.00372 360.9 585.3
936(16) 0.00399 360.9 585.6
893(16) 0.00405 360.8 580.9
887(16) 0.00390 360.7 571.7
890(16) 0.00377 360.7 558.2
879(16) 0.00397 360.6 541.0
840(15) 0.00444 360.5 520.9
802(15) 0.00442 360.5 498.5
777(15) 0.00428 360.4 474.5
755(15) 0.00447 360.3 449.6
745(15) 0.00469 360.3 424.5
704(14) 0.00532 360.2 399.5
695(14) 0.00496 360.1 375.2
669(14) 0.00497 360.1 351.9
668(14) 0.00529 360.0 329.9
667(14) 0.00542 359.9 309.6
657(13) 0.00568 359.9 291.1
604(13) 0.00581 359.8 274.5
603(13) 0.00556 359.7 259.7
617(13) 0.00554 359.6 246.9
570(13) 0.00638 359.6 235.8
578(12) 0.00646 359.5 226.1
599(13) 0.00569 359.4 217.3
574(13) 0.00587 359.4 208.7
548(12) 0.00647 359.3 199.9
551(12) 0.00661 359.2 190.0
566(12) 0.00657 359.2 179.0
574(13) 0.00599 359.1 167.2
562(13) 0.00564 359.0 154.8
538(12) 0.00641 359.0 142.6
512(12) 0.00733 358.9 130.9
500(12) 0.00750 358.8 120.1
496(12) 0.00721 358.8 110.3
485(12) 0.00660 358.7 101.7
450(12) 0.00754 358.6 94.3
444(11) 0.00827 358.6 88.0
447(11) 0.00822 358.5 82.6
477(12) 0.00752 358.4 78.3
434(11) 0.00782 358.4 74.7
444(11) 0.00775 358.3 71.9
439(11) 0.00854 358.2 69.8
438(11) 0.00835 358.2 68.3
464(12) 0.00741 358.1 67.3
440(11) 0.00763 358.0 66.9
432(11) 0.00801 358.0 67.0
431(11) 0.00857 357.9 67.5
418(11) 0.00866 357.8 68.6
426(11) 0.00805 357.8 70.2
436(11) 0.00779 357.7 72.4
437(11) 0.00796 357.6 75.2
427(11) 0.00873 357.5 78.6
438(11) 0.00810 357.5 82.5
439(11) 0.00796 357.4 87.1
458(12) 0.00741 357.3 92.3
430(11) 0.00836 357.3 98.2
441(11) 0.00852 357.2 104.4
452(11) 0.00793 357.1 111.0
483(12) 0.00701 357.1 117.9
478(12) 0.00731 357.0 124.8
487(12) 0.00734 356.9 131.4
475(11) 0.00784 356.9 137.5
527(12) 0.00655 356.8 142.6
487(12) 0.00684 356.7 146.4
478(12) 0.00716 356.7 148.6
497(12) 0.00710 356.6 148.9
506(12) 0.00738 356.5 147.4
508(12) 0.00667 356.5 144.2
480(12) 0.00685 356.4 139.5
480(12) 0.00714 356.3 133.8
488(11) 0.00759 356.3 127.4
487(12) 0.00749 356.2 120.7
454(12) 0.00753 356.1 113.9
502(13) 0.00633 356.1 107.2
461(11) 0.00783 356.0 100.8
470(11) 0.00792 355.9 94.8
420(11) 0.00892 355.9 89.2
430(11) 0.00832 355.8 84.1
432(11) 0.00756 355.7 79.6
420(11) 0.00851 355.7 75.5
429(11) 0.00869 355.6 71.9
427(11) 0.00857 355.5 68.7
453(11) 0.00769 355.4 65.9
449(12) 0.00718 355.4 63.4
426(11) 0.00837 355.3 61.3
417(10) 0.00908 355.2 59.5
437(11) 0.00844 355.2 57.8
392(11) 0.00901 355.1 56.3
420(11) 0.00802 355.0 54.9
462(12) 0.00755 355.0 53.7
427(11) 0.00871 354.9 52.5
409(11) 0.00878 354.8 51.3
392(11) 0.00875 354.8 50.2
374(11) 0.00861 354.7 49.1
416(11) 0.00810 354.6 48.0
424(11) 0.00875 354.6 46.9
410(11) 0.00899 354.5 45.8
402(11) 0.00861 354.4 44.6
396(11) 0.00840 354.4 43.5
375(10) 0.00927 354.3 42.3
381(10) 0.00970 354.2 41.2
395(11) 0.00875 354.2 40.0
393(11) 0.00844 354.1 38.8
391(11) 0.00856 354.0 37.7
392(10) 0.00922 354.0 36.5
398(10) 0.00929 353.9 35.4
396(11) 0.00895 353.8 34.3
377(10) 0.00924 353.8 33.2
385(11) 0.00896 353.7 32.2
374(10) 0.00964 353.6 31.2
381(10) 0.00975 353.6 30.2
381(10) 0.00908 353.5 29.2
368(10) 0.00910 353.4 28.3
344(10) 0.01009 353.4 27.5
399(10) 0.00911 353.3 26.6
359(10) 0.01037 353.2 25.8
378(11) 0.00905 353.1 25.1
377(11) 0.00887 353.1 24.4
401(11) 0.00832 353.0 23.7
366(10) 0.00993 352.9 23.1
375(10) 0.00986 352.9 22.5
379(11) 0.00887 352.8 22.0
367(11) 0.00898 352.7 21.5
381(11) 0.00905 352.7 21.0
387(10) 0.00949 352.6 20.6
372(10) 0.00998 352.5 20.3
368(10) 0.00952 352.5 19.9
378(11) 0.00851 352.4 19.7
388(11) 0.00886 352.3 19.4
399(10) 0.00920 352.3 19.3
367(10) 0.01012 352.2 19.1
374(10) 0.00929 352.1 19.1
377(11) 0.00831 352.1 19.1
384(11) 0.00898 352.0 19.1
388(10) 0.00941 351.9 19.2
396(10) 0.00936 351.9 19.4
370(10) 0.00951 351.8 19.7
356(10) 0.00917 351.7 20.1
374(10) 0.00926 351.7 20.6
380(10) 0.00975 351.6 21.2
379(10) 0.00972 351.5 22.0
383(11) 0.00903 351.5 22.8
379(11) 0.00896 351.4 23.9
379(10) 0.00913 351.3 25.2
376(10) 0.01004 351.3 26.6
367(10) 0.00975 351.2 28.3
402(11) 0.00862 351.1 30.2
393(11) 0.00887 351.0 32.3
453(12) 0.00750 351.0 34.7
435(11) 0.00859 350.9 37.4
387(10) 0.00915 350.8 40.3
403(11) 0.00836 350.8 43.5
386(11) 0.00857 350.7 47.0
413(11) 0.00836 350.6 50.7
440(11) 0.00843 350.6 54.6
405(11) 0.00895 350.5 58.7
431(11) 0.00786 350.4 62.8
453(12) 0.00716 350.4 67.1
433(11) 0.00816 350.3 71.2
444(11) 0.00835 350.2 75.2
459(11) 0.00788 350.2 78.9
458(11) 0.00762 350.1 82.1
428(11) 0.00809 350.0 84.6
462(11) 0.00783 350.0 86.5
477(11) 0.00784 349.9 87.4
470(12) 0.00729 349.8 87.4
475(12) 0.00706 349.8 86.5
521(12) 0.00647 349.7 84.6
509(12) 0.00716 349.6 82.0
439(11) 0.00854 349.6 78.8
457(12) 0.00740 349.5 75.0
428(11) 0.00783 349.4 71.0
440(11) 0.00778 349.4 66.7
444(11) 0.00820 349.3 62.3
408(10) 0.00921 349.2 58.0
431(11) 0.00814 349.2 53.8
422(11) 0.00776 349.1 49.7
397(11) 0.00884 349.0 45.9
389(10) 0.00957 348.9 42.3
394(10) 0.00960 348.9 38.9
381(11) 0.00890 348.8 35.8
393(11) 0.00798 348.7 32.9
400(11) 0.00876 348.7 30.3
390(10) 0.00951 348.6 28.0
374(10) 0.00996 348.5 26.0
375(10) 0.00907 348.5 24.1
368(11) 0.00862 348.4 22.5
386(11) 0.00871 348.3 21.1
356(10) 0.01058 348.3 19.8
380(10) 0.00958 348.2 18.7
375(11) 0.00885 348.1 17.8
347(10) 0.00921 348.1 17.0
344(10) 0.01026 348.0 16.3
376(10) 0.00982 347.9 15.7
357(10) 0.01019 347.9 15.2
392(11) 0.00858 347.8 14.8
379(11) 0.00886 347.7 14.4
353(10) 0.00992 347.7 14.2
366(10) 0.01005 347.6 13.9
343(10) 0.01067 347.5 13.8
347(10) 0.00992 347.5 13.7
344(10) 0.01041 347.4 13.7
383(10) 0.00950 347.3 13.7
383(10) 0.00973 347.3 13.8
374(10) 0.00940 347.2 13.9
361(10) 0.00957 347.1 14.1
371(10) 0.00950 347.1 14.3
385(10) 0.00953 347.0 14.6
373(10) 0.01003 346.9 15.0
365(10) 0.00939 346.9 15.5
374(11) 0.00895 346.8 16.0
374(10) 0.00929 346.7 16.6
385(10) 0.00948 346.6 17.4
348(10) 0.01075 346.6 18.2
380(11) 0.00896 346.5 19.1
399(11) 0.00841 346.4 20.0
387(10) 0.00921 346.4 21.1
360(10) 0.01003 346.3 22.3
376(10) 0.00977 346.2 23.6
369(10) 0.00925 346.2 25.0
402(11) 0.00836 346.1 26.5
394(11) 0.00902 346.0 28.1
412(11) 0.00882 346.0 29.7
416(11) 0.00888 345.9 31.4
382(10) 0.00909 345.8 33.2
378(11) 0.00859 345.8 35.0
388(11) 0.00902 345.7 36.8
390(10) 0.00945 345.6 38.6
379(10) 0.00994 345.6 40.2
400(11) 0.00861 345.5 41.8
404(11) 0.00781 345.4 43.2
404(11) 0.00831 345.4 44.5
391(10) 0.00951 345.3 45.4
403(10) 0.00928 345.2 46.1
392(11) 0.00901 345.2 46.4
385(11) 0.00843 345.1 46.4
422(11) 0.00826 345.0 46.1
409(10) 0.00913 345.0 45.5
378(10) 0.00970 344.9 44.5
404(11) 0.00856 344.8 43.3
398(11) 0.00815 344.8 41.9
372(10) 0.00958 344.7 40.4
396(10) 0.00932 344.6 38.7
347(10) 0.01055 344.5 36.9
369(10) 0.00949 344.5 35.2
391(11) 0.00838 344.4 33.4
394(11) 0.00884 344.3 31.6
371(10) 0.01003 344.3 29.9
367(10) 0.01001 344.2 28.3
400(11) 0.00837 344.1 26.8
364(10) 0.00949 344.1 25.3
370(11) 0.00906 344.0 24.0
350(10) 0.01063 343.9 22.8
343(10) 0.01075 343.9 21.6
367(10) 0.00949 343.8 20.6
382(11) 0.00892 343.7 19.7
357(10) 0.00978 343.7 18.9
397(10) 0.00940 343.6 18.2
374(10) 0.00931 343.5 17.6
366(11) 0.00907 343.5 17.2
353(10) 0.00983 343.4 16.8
373(10) 0.00949 343.3 16.6
354(10) 0.01056 343.3 16.4
379(10) 0.00908 343.2 16.4
346(10) 0.00957 343.1 16.4
344(10) 0.01022 343.1 16.6
393(11) 0.00897 343.0 17.0
372(10) 0.00996 342.9 17.5
338(10) 0.01019 342.9 18.2
353(10) 0.00970 342.8 19.1
355(10) 0.00988 342.7 20.3
371(10) 0.00963 342.7 21.8
365(10) 0.01029 342.6 23.7
364(10) 0.00958 342.5 26.0
351(10) 0.00940 342.4 28.8
389(11) 0.00902 342.4 32.3
401(11) 0.00896 342.3 36.4
366(10) 0.01021 342.2 41.5
358(10) 0.01032 342.2 47.1
405(11) 0.00800 342.1 53.5
394(11) 0.00898 342.0 60.7
421(11) 0.00888 342.0 68.7
410(11) 0.00900 341.9 77.2
394(10) 0.00908 341.8 86.1
429(12) 0.00735 341.8 95.1
433(11) 0.00799 341.7 103.6
457(11) 0.00813 341.6 111.2
461(11) 0.00799 341.6 117.0
460(12) 0.00748 341.5 120.5
462(12) 0.00696 341.4 121.3
430(11) 0.00812 341.4 119.2
452(11) 0.00825 341.3 114.6
448(11) 0.00826 341.2 108.1
421(11) 0.00829 341.2 100.2
397(11) 0.00846 341.1 91.7
407(11) 0.00836 341.0 83.2
408(10) 0.00915 341.0 74.9
414(11) 0.00884 340.9 67.3
406(11) 0.00870 340.8 60.6
424(11) 0.00787 340.8 54.9
394(11) 0.00879 340.7 50.5
393(10) 0.00946 340.6 47.8
414(11) 0.00880 340.6 47.4
421(11) 0.00829 340.5 50.0
403(11) 0.00902 340.4 56.3
440(11) 0.00806 340.3 67.2
512(12) 0.00727 340.3 82.9
524(12) 0.00695 340.2 102.7
570(13) 0.00599 340.1 124.4
592(13) 0.00582 340.1 144.1
638(13) 0.00562 340.0 156.0
622(13) 0.00602 339.9 155.3
534(12) 0.00656 339.9 141.8
534(13) 0.00636 339.8 120.3
522(12) 0.00676 339.7 96.4
472(11) 0.00769 339.7 74.2
435(11) 0.00851 339.6 55.7
412(11) 0.00834 339.5 41.4
381(11) 0.00896 339.5 31.3
390(11) 0.00883 339.4 24.4
380(10) 0.00976 339.3 19.9
376(10) 0.00988 339.3 16.9
376(10) 0.00909 339.2 14.9
366(10) 0.00909 339.1 13.5
372(10) 0.00936 339.1 12.4
366(10) 0.01004 339.0 11.5
374(10) 0.00979 338.9 10.7
337(10) 0.01033 338.9 10.1
340(10) 0.00951 338.8 9.5
340(10) 0.01037 338.7 9.0
359(10) 0.01041 338.7 8.6
361(10) 0.01026 338.6 8.2
349(10) 0.01032 338.5 7.9
362(11) 0.00900 338.5 7.6
378(10) 0.00919 338.4 7.3
370(10) 0.00987 338.3 7.1
380(10) 0.00984 338.3 6.9
343(10) 0.01024 338.2 6.7
359(10) 0.00925 338.1 6.5
346(10) 0.00974 338.0 6.3
359(10) 0.01038 338.0 6.1
346(10) 0.01064 337.9 6.0
343(10) 0.01019 337.8 5.9
361(11) 0.00886 337.8 5.7
333(10) 0.00997 337.7 5.6
332(9) 0.01121 337.6 5.5
321(9) 0.01121 337.6 5.4
355(10) 0.00974 337.5 5.3
351(10) 0.00919 337.4 5.3
342(10) 0.00977 337.4 5.2
312(9) 0.01201 337.3 5.1
343(10) 0.01059 337.2 5.0
360(10) 0.00917 337.2 5.0
328(10) 0.01026 337.1 5.0
363(10) 0.00972 337.0 4.9
357(10) 0.01033 337.0 4.9
339(10) 0.01037 336.9 4.8
327(10) 0.01048 336.8 4.8
356(10) 0.00933 336.8 4.8
351(10) 0.01013 336.7 4.7
351(10) 0.01062 336.6 4.7
343(10) 0.01000 336.6 4.7
333(10) 0.01031 336.5 4.7
369(10) 0.00919 336.4 4.7
341(10) 0.01056 336.4 4.6
347(10) 0.01079 336.3 4.6
324(10) 0.01043 336.2 4.6
371(11) 0.00893 336.2 4.6
345(10) 0.01015 336.1 4.6
347(10) 0.01054 336.1 4.6
367(10) 0.01018 336.1 4.6
335(10) 0.01034 336.0 4.6
350(10) 0.00932 336.0 4.6
355(10) 0.00984 336.0 4.7
362(10) 0.01011 336.0 4.7
333(9) 0.01128 335.9 4.7
336(10) 0.01041 335.9 4.7
341(10) 0.00954 335.9 4.8
357(10) 0.00963 335.8 4.8
362(10) 0.01007 335.8 4.8
380(10) 0.00986 335.8 4.9
365(10) 0.00942 335.8 4.9
345(10) 0.00920 335.7 5.0
335(10) 0.01018 335.7 5.1
352(10) 0.01047 335.7 5.1
346(10) 0.01062 335.7 5.2
317(9) 0.01112 335.6 5.3
347(10) 0.00920 335.6 5.4
341(10) 0.01056 335.6 5.6
353(10) 0.01040 335.5 5.7
352(10) 0.01046 335.5 5.8
335(10) 0.01031 335.5 6.0
349(10) 0.00948 335.5 6.2
350(10) 0.00966 335.4 6.4
362(10) 0.01012 335.4 6.7
328(10) 0.01108 335.4 7.0
331(10) 0.01057 335.4 7.3
350(10) 0.00987 335.3 7.7
377(11) 0.00891 335.3 8.3
364(10) 0.01005 335.3 8.9
355(10) 0.01025 335.2 9.8
368(10) 0.00929 335.2 10.9
369(11) 0.00881 335.2 12.6
388(11) 0.00885 335.2 14.9
410(11) 0.00907 335.1 18.1
399(11) 0.00889 335.1 22.4
408(11) 0.00862 335.1 28.1
395(11) 0.00888 335.1 35.4
409(11) 0.00861 335.0 44.0
416(11) 0.00900 335.0 53.7
457(12) 0.00746 335.0 63.7
470(12) 0.00737 334.9 72.6
511(12) 0.00664 334.9 78.7
530(12) 0.00686 334.9 80.2
550(12) 0.00661 334.9 76.7
529(13) 0.00626 334.8 69.4
452(12) 0.00751 334.8 59.9
429(11) 0.00790 334.8 50.0
407(11) 0.00881 334.8 40.8
384(10) 0.00965 334.7 32.8
365(10) 0.00969 334.7 26.3
386(11) 0.00845 334.7 21.3
365(10) 0.00975 334.6 17.5
342(10) 0.01050 334.6 14.9
347(10) 0.01074 334.6 13.0
336(10) 0.01042 334.6 11.7
349(10) 0.00957 334.5 10.8
377(10) 0.00936 334.5 10.1
370(10) 0.00990 334.5 9.7
361(10) 0.01037 334.5 9.3
364(11) 0.00902 334.4 9.1
358(11) 0.00842 334.4 8.9
334(10) 0.01050 334.4 8.7
342(10) 0.01096 334.3 8.6
353(10) 0.01044 334.3 8.6
348(10) 0.01007 334.3 8.6
345(10) 0.00917 334.3 8.6
369(10) 0.00957 334.2 8.6
372(10) 0.00982 334.2 8.7
297(9) 0.01260 334.2 8.8
358(10) 0.00944 334.1 8.9
340(10) 0.00978 334.1 9.0
375(10) 0.00945 334.1 9.2
367(10) 0.01018 334.1 9.4
333(9) 0.01116 334.0 9.7
333(10) 0.01091 334.0 9.9
328(10) 0.01034 334.0 10.3
332(10) 0.01058 334.0 10.7
350(10) 0.01075 333.9 11.1
353(10) 0.01040 333.9 11.6
354(10) 0.00978 333.9 12.1
342(10) 0.00996 333.8 12.8
339(10) 0.01035 333.8 13.5
362(10) 0.01031 333.8 14.3
357(10) 0.01018 333.8 15.1
347(10) 0.00993 333.7 16.1
358(10) 0.00951 333.7 17.1
357(10) 0.01016 333.7 18.3
353(10) 0.01064 333.7 19.5
351(10) 0.01009 333.6 20.8
345(10) 0.00996 333.6 22.2
345(10) 0.00990 333.6 23.6
334(10) 0.01091 333.5 25.0
377(10) 0.00968 333.5 26.5
359(10) 0.00989 333.5 27.9
362(10) 0.00959 333.5 29.2
359(10) 0.00990 333.4 30.3
346(10) 0.01036 333.4 31.3
378(10) 0.00987 333.4 32.1
373(11) 0.00906 333.4 32.6
360(10) 0.00933 333.3 32.9
362(10) 0.00983 333.3 32.9
398(10) 0.00926 333.3 32.7
354(10) 0.01058 333.2 32.4
351(10) 0.00986 333.2 32.0
376(11) 0.00856 333.2 31.5
382(10) 0.00913 333.2 31.1
350(10) 0.01052 333.1 30.7
373(10) 0.00993 333.1 30.3
355(10) 0.00996 333.1 30.1
380(11) 0.00847 333.1 30.1
374(10) 0.00938 333.0 30.2
318(9) 0.01182 333.0 30.4
370(10) 0.01003 333.0 30.8
391(11) 0.00894 332.9 31.5
357(10) 0.00927 332.9 32.4
354(10) 0.00999 332.9 33.5
356(10) 0.01058 332.9 34.8
368(10) 0.00995 332.8 36.5
389(11) 0.00874 332.8 38.5
375(11) 0.00851 332.8 41.0
374(10) 0.00913 332.8 44.0
380(10) 0.00972 332.7 47.6
387(10) 0.00910 332.7 52.1
402(11) 0.00832 332.7 57.6
412(11) 0.00788 332.6 64.3
394(11) 0.00885 332.6 72.7
455(11) 0.00821 332.6 83.0
454(11) 0.00802 332.6 95.7
460(11) 0.00771 332.5 111.1
477(12) 0.00698 332.5 129.6
501(12) 0.00675 332.5 151.5
517(12) 0.00719 332.5 177.0
564(13) 0.00636 332.4 206.1
617(13) 0.00575 332.4 238.5
652(14) 0.00537 332.4 273.6
724(14) 0.00491 332.3 310.3
832(15) 0.00445 332.3 346.9
835(15) 0.00429 332.3 380.8
841(16) 0.00407 332.3 409.1
870(16) 0.00393 332.2 428.2
822(15) 0.00435 332.2 435.5
813(15) 0.00460 332.2 430.0
815(15) 0.00426 332.2 412.7
744(15) 0.00460 332.1 386.4
722(14) 0.00477 332.1 354.4
701(14) 0.00516 332.1 319.9
629(13) 0.00591 332.0 285.2
622(13) 0.00565 332.0 252.3
605(13) 0.00556 332.0 222.0
553(13) 0.00638 332.0 195.1
532(12) 0.00696 331.9 171.8
538(12) 0.00693 331.9 152.1
482(12) 0.00711 331.9 135.7
475(12) 0.00695 331.9 122.5
479(12) 0.00738 331.8 112.0
472(11) 0.00782 331.8 103.8
454(11) 0.00826 331.8 97.5
477(12) 0.00728 331.7 92.9
481(12) 0.00688 331.7 89.4
473(12) 0.00740 331.7 86.9
469(11) 0.00788 331.7 85.2
448(11) 0.00833 331.6 84.0
457(12) 0.00755 331.6 83.3
435(12) 0.00753 331.6 82.8
434(11) 0.00828 331.6 82.5
453(11) 0.00824 331.5 82.4
472(11) 0.00790 331.5 82.3
434(11) 0.00821 331.5 82.2
423(11) 0.00787 331.4 82.0
445(11) 0.00795 331.4 81.8
449(11) 0.00824 331.4 81.5
437(11) 0.00837 331.4 81.0
449(11) 0.00775 331.3 80.4
430(11) 0.00766 331.3 79.6
411(11) 0.00858 331.3 78.7
452(11) 0.00829 331.3 77.6
437(11) 0.00824 331.2 76.4
423(11) 0.00820 331.2 75.0
444(12) 0.00746 331.2 73.6
414(11) 0.00837 331.1 72.1
411(10) 0.00914 331.1 70.5
417(11) 0.00847 331.1 68.9
389(10) 0.00911 331.1 67.3
422(11) 0.00804 331.0 65.6
447(11) 0.00787 331.0 64.0
416(11) 0.00898 331.0 62.3
446(11) 0.00809 331.0 60.6
434(11) 0.00807 330.9 59.0
391(11) 0.00891 330.9 57.3
396(11) 0.00901 330.9 55.7
406(10) 0.00928 330.8 54.0
412(11) 0.00853 330.8 52.4
414(11) 0.00809 330.8 50.7
389(11) 0.00903 330.8 49.1
397(10) 0.00911 330.7 47.5
382(10) 0.00969 330.7 45.9
400(11) 0.00861 330.7 44.3
359(10) 0.00977 330.7 42.7
411(11) 0.00843 330.6 41.2
397(10) 0.00930 330.6 39.6
377(10) 0.00985 330.6 38.1
386(10) 0.00918 330.5 36.7
364(10) 0.00968 330.5 35.2
387(10) 0.00922 330.5 33.8
354(10) 0.01055 330.5 32.4
342(10) 0.01084 330.4 31.1
387(11) 0.00896 330.4 29.8
378(11) 0.00893 330.4 28.6
350(10) 0.01019 330.4 27.4
363(10) 0.01017 330.3 26.3
372(10) 0.01012 330.3 25.1
372(10) 0.00938 330.3 24.1
353(10) 0.00912 330.2 23.1
353(10) 0.00997 330.2 22.1
368(10) 0.01009 330.2 21.1
348(10) 0.01067 330.2 20.2
360(10) 0.00981 330.1 19.4
354(11) 0.00900 330.1 18.6
340(10) 0.01018 330.1 17.8
344(10) 0.01074 330.0 17.0
353(10) 0.01033 330.0 16.3
372(10) 0.00919 330.0 15.7
368(11) 0.00884 330.0 15.0
343(10) 0.01007 329.9 14.4
368(10) 0.01015 329.9 13.8
363(10) 0.01015 329.9 13.3
364(10) 0.00945 329.9 12.8
345(10) 0.00975 329.8 12.3
348(10) 0.01004 329.8 11.8
359(10) 0.01038 329.8 11.4
364(10) 0.01009 329.7 10.9
349(10) 0.01041 329.7 10.5
340(10) 0.01004 329.7 10.2
317(10) 0.01099 329.7 9.8
314(9) 0.01179 329.6 9.5
336(10) 0.01060 329.6 9.2
338(10) 0.01044 329.6 8.9
348(10) 0.00980 329.6 8.6
352(10) 0.01012 329.5 8.3
343(10) 0.01091 329.5 8.1
340(10) 0.01033 329.5 7.8
339(10) 0.00990 329.4 7.6
336(10) 0.01031 329.4 7.4
343(10) 0.01040 329.4 7.2
322(9) 0.01158 329.4 7.0
350(10) 0.00961 329.3 6.8
323(10) 0.01056 329.3 6.6
319(10) 0.01093 329.3 6.5
323(9) 0.01147 329.3 6.3
348(10) 0.01072 329.2 6.3
366(10) 0.00923 329.2 6.1
346(10) 0.00980 329.2 6.0
332(10) 0.01090 329.1 5.9
335(10) 0.01084 329.1 5.8
350(10) 0.01074 329.1 5.7
342(10) 0.01028 329.1 5.5
355(10) 0.00935 329.0 5.5
353(10) 0.00974 329.0 5.4
344(10) 0.01054 329.0 5.3
353(10) 0.01035 329.0 5.2
296(9) 0.01180 328.9 5.1
329(10) 0.00998 328.9 5.0
315(9) 0.01123 328.9 4.9
322(9) 0.01143 328.8 4.8
346(10) 0.01078 328.8 4.8
324(10) 0.01097 328.8 4.7
333(10) 0.00954 328.8 4.6
343(10) 0.01029 328.7 4.5
315(9) 0.01185 328.7 4.5
333(10) 0.01086 328.7 4.4
327(10) 0.01096 328.7 4.4
328(10) 0.00992 328.6 4.3
315(9) 0.01129 328.6 4.2
319(9) 0.01173 328.6 4.1
313(9) 0.01171 328.5 4.1
342(10) 0.00993 328.5 4.0
341(10) 0.00949 328.5 4.0
304(9) 0.01137 328.5 3.9
348(10) 0.01074 328.4 3.9
321(9) 0.01139 328.4 3.8
319(10) 0.01082 328.4 3.8
333(10) 0.00984 328.4 3.8
346(10) 0.01014 328.3 3.7
328(9) 0.01127 328.3 3.7
325(9) 0.01124 328.3 3.6
334(10) 0.01044 328.2 3.6
321(10) 0.01066 328.2 3.6
326(10) 0.01071 328.2 3.5
335(9) 0.01111 328.2 3.5
310(9) 0.01176 328.1 3.5
315(9) 0.01111 328.1 3.4
332(10) 0.01020 328.1 3.4
327(10) 0.01086 328.1 3.4
349(10) 0.01057 328.0 3.4
317(10) 0.01089 328.0 3.3
327(10) 0.01014 328.0 3.3
307(9) 0.01171 327.9 3.3
338(10) 0.01089 327.9 3.2
326(9) 0.01143 327.9 3.2
337(10) 0.01049 327.9 3.2
359(10) 0.00915 327.8 3.2
309(9) 0.01132 327.8 3.2
342(10) 0.01048 327.8 3.1
346(10) 0.01068 327.8 3.1
337(10) 0.01003 327.7 3.1
321(10) 0.01011 327.7 3.1
327(10) 0.01081 327.7 3.1
325(9) 0.01139 327.6 3.0
324(9) 0.01140 327.6 3.0
338(10) 0.01062 327.6 3.0
347(10) 0.00940 327.6 3.0
345(10) 0.00985 327.5 3.0
328(9) 0.01129 327.5 3.0
321(9) 0.01161 327.5 3.0
330(10) 0.01071 327.5 2.9
338(10) 0.00942 327.4 2.9
338(10) 0.01026 327.4 2.9
332(9) 0.01123 327.4 2.9
310(9) 0.01159 327.3 2.9
326(10) 0.01081 327.3 2.9
348(10) 0.00939 327.3 2.9
319(9) 0.01132 327.3 2.9
329(9) 0.01136 327.2 2.9
335(10) 0.01087 327.2 2.9
328(10) 0.01050 327.2 2.9
342(10) 0.00969 327.2 2.8
322(10) 0.01105 327.1 2.8
333(9) 0.01127 327.1 2.8
332(10) 0.01102 327.1 2.8
328(10) 0.01034 327.1 2.8
325(10) 0.01026 327.1 2.8
329(10) 0.01043 327.1 2.8
320(9) 0.01156 327.1 2.8
318(9) 0.01136 327.0 2.8
320(10) 0.01094 327.0 2.8
319(9) 0.01118 327.0 2.8
322(10) 0.01090 327.0 2.8
304(9) 0.01212 327.0 2.8
330(10) 0.01092 327.0 2.8
323(10) 0.01079 327.0 2.9
337(10) 0.00985 326.9 2.9
363(10) 0.00969 326.9 2.9
320(9) 0.01164 326.9 2.9
319(10) 0.01072 326.9 2.9
313(10) 0.01107 326.9 2.9
327(10) 0.01080 326.9 2.9
321(9) 0.01134 326.9 2.9
333(9) 0.01122 326.9 2.9
320(10) 0.01099 326.8 2.9
346(10) 0.00946 326.8 2.9
319(10) 0.01087 326.8 3.0
346(10) 0.01025 326.8 3.0
334(9) 0.01118 326.8 3.0
345(10) 0.01025 326.8 3.0
348(10) 0.00983 326.8 3.0
325(10) 0.01096 326.8 3.0
328(10) 0.01107 326.7 3.1
322(9) 0.01156 326.7 3.1
327(10) 0.01085 326.7 3.1
350(10) 0.00923 326.7 3.1
318(9) 0.01123 326.7 3.1
324(9) 0.01155 326.7 3.2
331(9) 0.01112 326.7 3.2
330(10) 0.01055 326.6 3.2
312(10) 0.01031 326.6 3.3
322(10) 0.01054 326.6 3.3
321(9) 0.01159 326.6 3.3
345(10) 0.01077 326.6 3.4
322(10) 0.01102 326.6 3.4
320(10) 0.01026 326.6 3.4
315(9) 0.01115 326.6 3.5
341(10) 0.01082 326.5 3.5
339(10) 0.01094 326.5 3.6
325(10) 0.01059 326.5 3.7
331(10) 0.00970 326.5 3.7
332(10) 0.01053 326.5 3.8
319(9) 0.01170 326.5 3.8
332(10) 0.01107 326.5 3.9
329(10) 0.01088 326.5 3.9
342(10) 0.00991 326.4 4.0
317(10) 0.01076 326.4 4.1
347(10) 0.01076 326.4 4.1
336(10) 0.01082 326.4 4.2
336(10) 0.01033 326.4 4.3
316(10) 0.01048 326.4 4.4
315(10) 0.01052 326.4 4.5
321(9) 0.01164 326.4 4.5
335(10) 0.01051 326.3 4.6
337(10) 0.01035 326.3 4.7
330(10) 0.01047 326.3 4.8
336(10) 0.01049 326.3 5.0
315(9) 0.01182 326.3 5.1
311(10) 0.01106 326.3 5.2
334(10) 0.01017 326.3 5.3
343(10) 0.00980 326.2 5.5
345(10) 0.01050 326.2 5.6
335(10) 0.01101 326.2 5.8
329(10) 0.01079 326.2 6.0
331(10) 0.01027 326.2 6.2
343(10) 0.01008 326.2 6.4
345(10) 0.01050 326.2 6.6
300(9) 0.01248 326.2 6.8
320(10) 0.01086 326.1 7.1
344(10) 0.00951 326.1 7.4
355(10) 0.00958 326.1 7.7
330(9) 0.01111 326.1 8.0
358(10) 0.01060 326.1 8.4
331(10) 0.01033 326.1 8.8
343(10) 0.00946 326.1 9.3
339(10) 0.01045 326.1 9.8
338(10) 0.01076 326.0 10.3
337(9) 0.01114 326.0 10.9
346(10) 0.01004 326.0 11.5
350(11) 0.00888 326.0 12.3
363(10) 0.00932 326.0 13.0
335(9) 0.01111 326.0 13.9
332(9) 0.01109 326.0 14.8
352(10) 0.01017 326.0 15.9
337(10) 0.00971 325.9 17.0
353(10) 0.00949 325.9 18.2
337(10) 0.01087 325.9 19.4
342(10) 0.01099 325.9 20.8
347(10) 0.01002 325.9 22.3
347(10) 0.00970 325.9 23.9
345(10) 0.01031 325.9 25.6
363(10) 0.01038 325.8 27.4
352(10) 0.01017 325.8 29.3
360(10) 0.00962 325.8 31.3
351(10) 0.00969 325.8 33.4
358(10) 0.00974 325.8 35.6
353(10) 0.01058 325.8 37.9
353(10) 0.01041 325.8 40.2
366(10) 0.00930 325.8 42.6
353(10) 0.00959 325.7 45.0
393(11) 0.00842 325.7 47.5
356(10) 0.01053 325.7 49.9
370(10) 0.00972 325.7 52.2
369(10) 0.00959 325.7 54.5
381(11) 0.00885 325.7 56.6
362(10) 0.00958 325.7 58.6
387(10) 0.00962 325.7 60.3
405(11) 0.00872 325.6 61.9
384(11) 0.00899 325.6 63.1
410(11) 0.00820 325.6 64.1
386(10) 0.00939 325.6 64.7
397(10) 0.00936 325.6 65.0
416(11) 0.00846 325.6 65.2
384(10) 0.00925 325.6 65.3
399(11) 0.00875 325.5 65.5
398(10) 0.00915 325.5 66.5
412(11) 0.00899 325.5 68.9
426(11) 0.00820 325.5 73.8
443(11) 0.00758 325.5 81.9
433(11) 0.00801 325.5 93.6
418(11) 0.00893 325.5 107.7
457(11) 0.00811 325.5 122.0
460(11) 0.00756 325.4 132.1
505(12) 0.00640 325.4 133.3
444(11) 0.00807 325.4 124.0
425(11) 0.00884 325.4 107.4
442(11) 0.00831 325.4 88.3
386(11) 0.00906 325.4 70.4
351(10) 0.00948 325.4 55.7
371(10) 0.00947 325.4 44.8
359(10) 0.01018 325.3 37.1
360(10) 0.01032 325.3 32.0
347(10) 0.00999 325.3 28.3
356(11) 0.00882 325.3 25.6
331(10) 0.01101 325.3 23.5
357(10) 0.01041 325.3 21.7
346(10) 0.01055 325.3 20.1
367(10) 0.00942 325.3 18.7
308(10) 0.01106 325.2 17.2
326(10) 0.01055 325.2 16.0
340(10) 0.01100 325.2 15.0
336(10) 0.01087 325.2 14.0
336(10) 0.01043 325.2 13.2
338(10) 0.01001 325.2 12.4
346(10) 0.01027 325.2 11.7
333(9) 0.01121 325.1 11.1
346(10) 0.01028 325.1 10.5
357(10) 0.00938 325.1 10.0
307(9) 0.01118 325.1 9.5
333(10) 0.01024 325.1 9.1
333(10) 0.01105 325.1 8.7
340(10) 0.01058 325.1 8.4
330(10) 0.01058 325.1 8.0
353(10) 0.00951 325.0 7.8
326(10) 0.01080 325.0 7.5
318(9) 0.01174 325.0 7.3
330(10) 0.01081 325.0 7.0
345(10) 0.00961 325.0 6.9
335(10) 0.01030 325.0 6.7
332(10) 0.01072 325.0 6.5
301(9) 0.01239 325.0 6.4
323(10) 0.01083 324.9 6.2
340(10) 0.01000 324.9 6.1
314(9) 0.01121 324.9 6.0
350(10) 0.01032 324.9 5.9
330(9) 0.01124 324.9 5.8
318(10) 0.01099 324.9 5.7
323(10) 0.01042 324.9 5.6
307(9) 0.01177 324.9 5.5
319(9) 0.01115 324.8 5.5
321(9) 0.01169 324.8 5.4
336(10) 0.01043 324.8 5.3
330(10) 0.01024 324.8 5.3
323(10) 0.01099 324.8 5.3
316(9) 0.01173 324.8 5.2
309(9) 0.01211 324.8 5.2
297(9) 0.01185 324.7 5.1
326(10) 0.00991 324.7 5.1
333(10) 0.01058 324.7 5.1
357(10) 0.01040 324.7 5.1
323(9) 0.01146 324.7 5.1
329(10) 0.01078 324.7 5.1
337(10) 0.00941 324.7 5.1
336(10) 0.01038 324.7 5.1
335(10) 0.01097 324.6 5.1
337(10) 0.01085 324.6 5.1
336(10) 0.01008 324.6 5.1
326(10) 0.01040 324.6 5.1
321(10) 0.01091 324.6 5.2
326(9) 0.01136 324.6 5.2
328(9) 0.01112 324.6 5.2
338(10) 0.01025 324.6 5.3
299(9) 0.01136 324.5 5.3
317(10) 0.01019 324.5 5.3
307(9) 0.01204 324.5 5.4
346(10) 0.01064 324.5 5.4
335(10) 0.01058 324.5 5.5
328(10) 0.01003 324.5 5.6
322(10) 0.01095 324.5 5.6
350(10) 0.01055 324.4 5.7
298(9) 0.01226 324.4 5.8
308(9) 0.01120 324.4 5.9
329(10) 0.01057 324.4 6.0
352(10) 0.00995 324.4 6.1
324(9) 0.01156 324.4 6.2
324(10) 0.01060 324.4 6.3
324(10) 0.01052 324.4 6.4
330(10) 0.01047 324.3 6.5
324(10) 0.01076 324.3 6.7
328(9) 0.01134 324.3 6.8
346(10) 0.01002 324.3 6.9
325(10) 0.01033 324.3 7.1
324(10) 0.01081 324.3 7.2
329(10) 0.01094 324.3 7.4
320(9) 0.01163 324.3 7.6
313(9) 0.01116 324.2 7.8
334(10) 0.01021 324.2 7.9
327(10) 0.01078 324.2 8.1
297(9) 0.01219 324.2 8.3
326(9) 0.01139 324.2 8.6
341(10) 0.01015 324.2 8.8
319(10) 0.01073 324.2 9.0
339(10) 0.01040 324.2 9.3
314(9) 0.01147 324.1 9.6
316(9) 0.01173 324.1 9.9
303(9) 0.01187 324.1 10.2
342(10) 0.00954 324.1 10.5
337(10) 0.01065 324.1 10.8
354(10) 0.01033 324.1 11.2
316(9) 0.01171 324.1 11.6
326(10) 0.01017 324.0 12.1
308(10) 0.01013 324.0 12.6
316(10) 0.01099 324.0 13.1
330(9) 0.01124 324.0 13.7
322(9) 0.01140 324.0 14.3
323(10) 0.01102 324.0 15.0
320(10) 0.01015 324.0 15.8
323(10) 0.01070 324.0 16.7
332(9) 0.01110 323.9 17.7
340(10) 0.01073 323.9 18.7
327(9) 0.01113 323.9 19.9
342(10) 0.00979 323.9 21.1
341(10) 0.00992 323.9 22.5
340(10) 0.01085 323.9 24.0
347(10) 0.01048 323.9 25.5
322(10) 0.01054 323.9 27.2
317(10) 0.01062 323.8 28.9
324(10) 0.01065 323.8 30.6
339(10) 0.01092 323.8 32.4
339(10) 0.01092 323.8 34.2
344(10) 0.01026 323.8 35.9
341(10) 0.00980 323.8 37.5
343(10) 0.01004 323.8 38.9
347(10) 0.01060 323.7 40.1
370(10) 0.00985 323.7 41.0
355(10) 0.00989 323.7 41.6
354(10) 0.00950 323.7 42.0
335(10) 0.01051 323.7 42.1
351(10) 0.01064 323.7 42.0
344(10) 0.01033 323.7 41.9
345(10) 0.00985 323.7 41.7
350(10) 0.00990 323.6 41.5
344(10) 0.01044 323.6 41.6
332(9) 0.01113 323.6 41.8
368(10) 0.00943 323.6 42.3
338(10) 0.01005 323.6 43.2
356(10) 0.00961 323.6 44.5
359(10) 0.01034 323.6 46.1
370(10) 0.01007 323.6 48.3
343(10) 0.01045 323.5 51.1
375(11) 0.00889 323.5 54.3
403(11) 0.00822 323.5 58.1
357(10) 0.01015 323.5 62.4
383(10) 0.00965 323.5 67.3
385(10) 0.00920 323.5 72.8
405(11) 0.00830 323.5 78.7
429(11) 0.00809 323.5 85.0
434(11) 0.00863 323.4 91.7
451(11) 0.00821 323.4 98.7
446(11) 0.00773 323.4 105.9
432(11) 0.00783 323.4 113.3
457(11) 0.00769 323.4 120.9
468(11) 0.00789 323.4 128.4
511(12) 0.00729 323.4 136.0
493(12) 0.00700 323.3 143.2
502(12) 0.00641 323.3 149.9
482(12) 0.00733 323.3 155.9
482(11) 0.00768 323.3 160.8
509(12) 0.00725 323.3 164.3
499(12) 0.00698 323.3 166.2
485(12) 0.00684 323.3 166.4
502(12) 0.00695 323.3 164.7
502(12) 0.00745 323.2 161.3
466(11) 0.00773 323.2 156.3
452(11) 0.00795 323.2 150.0
467(12) 0.00718 323.2 142.7
480(12) 0.00713 323.2 134.6
439(11) 0.00848 323.2 126.1
458(11) 0.00769 323.2 117.5
428(11) 0.00801 323.2 108.9
432(11) 0.00790 323.1 100.4
424(11) 0.00826 323.1 92.2
399(10) 0.00924 323.1 84.3
421(11) 0.00836 323.1 77.0
408(11) 0.00847 323.1 70.1
371(10) 0.00915 323.1 63.7
398(11) 0.00831 323.1 57.8
390(10) 0.00964 323.1 52.5
386(10) 0.00913 323.0 47.6
366(10) 0.00937 323.0 43.2
380(11) 0.00866 323.0 39.3
356(10) 0.01014 323.0 35.8
346(10) 0.01071 323.0 32.7
356(10) 0.00937 323.0 29.9
361(10) 0.00915 323.0 27.5
356(10) 0.00925 322.9 25.3
333(10) 0.01046 322.9 23.5
370(10) 0.01003 322.9 21.8
326(10) 0.01062 322.9 20.4
336(10) 0.01003 322.9 19.1
359(10) 0.00953 322.9 17.9
331(9) 0.01126 322.9 16.9
341(10) 0.01078 322.9 15.9
356(10) 0.00990 322.8 15.1
335(10) 0.00996 322.8 14.4
332(10) 0.01043 322.8 13.7
343(10) 0.01074 322.8 13.1
339(10) 0.01098 322.8 12.5
342(10) 0.01037 322.8 12.0
356(11) 0.00902 322.8 11.5
340(10) 0.01046 322.8 11.1
332(10) 0.01108 322.7 10.7
307(9) 0.01229 322.7 10.3
327(10) 0.01080 322.7 10.0
337(10) 0.00941 322.7 9.6
336(10) 0.01057 322.7 9.4
316(9) 0.01161 322.7 9.1
320(9) 0.01153 322.7 8.8
343(10) 0.00992 322.6 8.6
330(10) 0.00978 322.6 8.3
322(10) 0.01073 322.6 8.1
322(9) 0.01155 322.6 7.9
318(9) 0.01138 322.6 7.7
321(10) 0.01066 322.6 7.5
336(10) 0.00960 322.6 7.3
308(10) 0.01095 322.6 7.2
329(9) 0.01130 322.5 7.0
319(9) 0.01149 322.5 6.9
307(9) 0.01137 322.5 6.7
315(10) 0.01026 322.5 6.6
306(9) 0.01138 322.5 6.5
317(9) 0.01167 322.5 6.3
338(10) 0.01061 322.5 6.2
319(10) 0.01068 322.5 6.1
327(10) 0.01034 322.4 6.0
303(9) 0.01143 322.4 5.9
302(9) 0.01233 322.4 5.8
311(9) 0.01185 322.4 5.8
298(9) 0.01201 322.4 5.7
319(9) 0.01109 322.4 5.6
326(10) 0.01073 322.4 5.6
329(9) 0.01129 322.4 5.5
319(10) 0.01096 322.3 5.4
315(10) 0.01107 322.3 5.4
327(10) 0.01023 322.3 5.3
313(9) 0.01161 322.3 5.3
313(9) 0.01185 322.3 5.2
355(10) 0.00949 322.3 5.2
321(10) 0.01082 322.3 5.1
320(10) 0.01068 322.2 5.1
297(9) 0.01233 322.2 5.0
320(9) 0.01179 322.2 5.0
314(10) 0.01102 322.2 5.0
305(9) 0.01110 322.2 4.9
313(9) 0.01114 322.2 4.9
310(9) 0.01189 322.2 4.9
327(9) 0.01135 322.2 4.9
311(9) 0.01138 322.1 4.9
316(10) 0.01050 322.1 4.8
331(10) 0.01083 322.1 4.8
328(9) 0.01138 322.1 4.8
329(9) 0.01109 322.1 4.8
324(10) 0.01078 322.1 4.8
328(10) 0.01025 322.1 4.8
340(10) 0.01061 322.1 4.8
324(9) 0.01167 322.2 4.8
340(10) 0.01059 322.2 4.8
325(10) 0.01106 322.2 4.8
341(10) 0.00951 322.2 4.8
314(10) 0.01075 322.2 4.8
314(9) 0.01187 322.2 4.9
321(9) 0.01118 322.2 4.9
312(9) 0.01123 322.2 4.9
318(10) 0.01052 322.2 4.9
307(9) 0.01134 322.2 5.0
303(9) 0.01235 322.2 5.0
307(9) 0.01191 322.2 5.1
326(10) 0.01058 322.2 5.1
328(10) 0.01013 322.2 5.2
326(10) 0.01029 322.2 5.2
341(10) 0.01082 322.2 5.3
318(9) 0.01148 322.2 5.4
294(9) 0.01198 322.2 5.5
310(10) 0.01073 322.2 5.5
317(10) 0.01091 322.2 5.6
304(9) 0.01217 322.2 5.7
316(9) 0.01129 322.2 5.8
323(10) 0.01080 322.2 6.0
338(10) 0.01020 322.2 6.1
329(10) 0.01083 322.2 6.2
337(9) 0.01109 322.2 6.4
334(10) 0.01050 322.2 6.5
323(10) 0.01002 322.2 6.7
324(10) 0.01070 322.2 6.9
332(9) 0.01123 322.2 7.1
297(9) 0.01257 322.2 7.4
313(10) 0.01076 322.2 7.6
311(10) 0.01091 322.2 7.9
327(10) 0.01070 322.2 8.2
339(10) 0.01067 322.3 8.6
340(10) 0.01098 322.3 9.0
331(10) 0.01043 322.3 9.4
335(10) 0.00990 322.3 9.9
315(10) 0.01095 322.3 10.5
311(9) 0.01191 322.3 11.1
346(10) 0.01067 322.3 11.9
317(10) 0.01098 322.3 12.7
356(10) 0.00923 322.3 13.7
339(10) 0.01043 322.3 15.0
340(10) 0.01108 322.3 16.5
357(10) 0.01045 322.3 18.4
352(10) 0.00990 322.3 21.0
357(10) 0.00919 322.3 24.5
346(10) 0.01009 322.3 28.9
371(10) 0.00985 322.3 34.9
350(10) 0.01060 322.3 42.7
355(10) 0.00981 322.3 52.8
360(10) 0.00908 322.3 65.3
407(11) 0.00879 322.3 80.4
438(11) 0.00845 322.3 97.9
465(11) 0.00795 322.3 117.0
487(12) 0.00725 322.3 136.4
509(12) 0.00648 322.3 154.6
518(12) 0.00698 322.3 169.6
553(12) 0.00673 322.3 179.5
545(12) 0.00671 322.3 182.4
537(12) 0.00647 322.3 177.4
537(13) 0.00602 322.3 165.2
492(12) 0.00697 322.3 148.1
451(11) 0.00829 322.3 129.0
445(11) 0.00822 322.3 110.1
432(11) 0.00798 322.3 93.2
440(12) 0.00748 322.3 79.0
396(11) 0.00882 322.4 68.1
387(10) 0.00969 322.4 60.7
405(11) 0.00872 322.4 56.7
409(11) 0.00843 322.4 56.0
398(11) 0.00874 322.4 58.0
409(11) 0.00866 322.4 62.2
399(10) 0.00939 322.4 67.4
416(11) 0.00830 322.4 72.4
403(11) 0.00842 322.4 75.5
387(11) 0.00886 322.4 75.2
400(11) 0.00902 322.4 71.3
419(11) 0.00886 322.4 64.5
392(11) 0.00856 322.4 56.5
353(10) 0.00956 322.4 48.5
345(10) 0.01005 322.4 41.3
344(10) 0.01044 322.4 35.2
354(10) 0.01060 322.4 30.5
351(10) 0.00980 322.4 26.9
359(10) 0.00916 322.4 24.4
352(10) 0.00951 322.4 22.8
342(10) 0.01078 322.4 21.8
361(10) 0.01030 322.4 21.4
352(10) 0.00995 322.4 21.3
351(10) 0.00989 322.4 21.5
348(10) 0.01003 322.4 22.1
341(10) 0.01080 322.4 23.0
327(9) 0.01133 322.4 24.4
352(10) 0.00944 322.4 26.4
378(11) 0.00867 322.4 29.1
376(10) 0.00944 322.4 32.9
368(10) 0.01007 322.4 38.1
388(10) 0.00966 322.4 45.0
374(10) 0.00958 322.4 53.9
423(11) 0.00772 322.5 65.2
411(11) 0.00870 322.5 79.0
449(11) 0.00827 322.5 95.1
411(11) 0.00897 322.5 113.1
425(11) 0.00824 322.5 132.0
464(12) 0.00702 322.5 150.0
491(12) 0.00712 322.5 164.8
492(11) 0.00759 322.5 173.5
524(12) 0.00688 322.5 174.1
487(12) 0.00702 322.5 166.5
472(12) 0.00710 322.5 152.6
467(12) 0.00747 322.5 135.0
458(11) 0.00809 322.5 116.4
444(11) 0.00816 322.5 98.4
394(11) 0.00869 322.5 82.3
362(10) 0.00937 322.5 68.4
373(10) 0.00934 322.5 57.0
342(10) 0.01088 322.5 48.0
350(10) 0.01030 322.5 41.1
346(10) 0.01009 322.5 35.9
336(10) 0.01025 322.5 32.1
380(10) 0.00912 322.5 29.3
346(10) 0.01089 322.5 27.3
366(10) 0.00944 322.5 25.8
336(10) 0.01030 322.5 24.8
347(10) 0.01000 322.5 24.0
355(10) 0.00986 322.5 23.4
341(10) 0.01088 322.5 23.0
349(10) 0.01022 322.5 22.7
352(10) 0.00979 322.5 22.4
330(10) 0.01074 322.5 22.3
344(10) 0.01071 322.5 22.2
346(10) 0.01076 322.5 22.2
348(10) 0.00981 322.5 22.3
309(9) 0.01119 322.6 22.4
323(10) 0.01104 322.6 22.5
347(10) 0.01041 322.6 22.6
360(10) 0.01043 322.6 22.8
336(10) 0.01027 322.6 23.0
337(10) 0.01004 322.6 23.2
329(10) 0.01060 322.6 23.5
333(10) 0.01066 322.6 23.7
319(9) 0.01156 322.6 24.0
330(10) 0.01071 322.6 24.3
335(10) 0.00959 322.6 24.6
352(10) 0.01003 322.6 25.0
338(9) 0.01109 322.6 25.4
328(9) 0.01130 322.6 25.8
340(10) 0.01079 322.6 26.2
343(10) 0.00960 322.6 26.6
345(10) 0.01003 322.6 27.1
341(10) 0.01100 322.6 27.6
333(9) 0.01110 322.6 28.1
323(10) 0.01052 322.6 28.6
350(10) 0.00938 322.6 29.2
337(10) 0.01060 322.6 29.8
311(9) 0.01201 322.6 30.4
322(9) 0.01130 322.6 31.1
342(10) 0.01014 322.6 31.8
328(10) 0.01012 322.6 32.5
349(10) 0.00978 322.6 33.3
356(10) 0.01045 322.6 34.1
348(10) 0.01067 322.6 35.0
351(10) 0.01004 322.6 35.8
349(10) 0.00985 322.6 36.8
356(10) 0.00963 322.6 37.7
378(10) 0.00986 322.6 38.7
348(10) 0.01014 322.7 39.8
366(10) 0.00933 322.7 40.9
363(10) 0.00930 322.7 42.1
347(10) 0.01010 322.7 43.4
367(10) 0.01007 322.7 44.8
391(10) 0.00914 322.7 46.5
385(11) 0.00893 322.7 48.8
374(10) 0.00915 322.7 51.9
390(10) 0.00909 322.7 56.4
386(10) 0.00960 322.7 62.7
403(11) 0.00872 322.7 71.3
427(11) 0.00784 322.7 82.2
399(11) 0.00890 322.7 94.7
442(11) 0.00811 322.7 107.2
475(11) 0.00774 322.7 117.2
520(12) 0.00658 322.7 121.6
481(12) 0.00708 322.7 118.6
447(11) 0.00776 322.7 109.6
414(11) 0.00895 322.7 97.9
408(11) 0.00906 322.7 85.9
412(11) 0.00851 322.7 75.6
380(11) 0.00857 322.7 67.6
377(10) 0.00920 322.7 61.9
375(10) 0.00952 322.7 58.3
403(10) 0.00927 322.7 56.1
380(10) 0.00916 322.7 55.1
373(11) 0.00862 322.7 54.8
367(10) 0.00934 322.7 55.0
378(10) 0.00974 322.7 55.7
372(10) 0.01011 322.7 56.9
391(11) 0.00901 322.7 58.5
385(11) 0.00858 322.7 60.6
380(10) 0.00910 322.7 63.1
384(10) 0.00964 322.7 65.9
409(10) 0.00909 322.8 69.1
418(11) 0.00846 322.8 72.5
440(12) 0.00731 322.8 75.9
432(11) 0.00816 322.8 79.1
434(11) 0.00864 322.8 81.7
460(11) 0.00809 322.8 83.4
424(11) 0.00840 322.8 83.8
418(11) 0.00782 322.8 82.9
409(11) 0.00824 322.8 80.5
398(10) 0.00937 322.8 77.0
404(11) 0.00882 322.8 72.6
393(11) 0.00883 322.8 67.7
402(11) 0.00857 322.8 62.6
394(11) 0.00876 322.8 57.6
365(10) 0.01018 322.8 52.8
334(10) 0.01101 322.8 48.4
377(11) 0.00881 322.8 44.4
366(10) 0.00916 322.8 40.8
372(10) 0.00936 322.8 37.7
355(10) 0.01056 322.8 35.1
358(10) 0.00980 322.8 32.8
338(10) 0.00992 322.8 30.9
334(10) 0.00982 322.8 29.4
333(10) 0.01041 322.8 28.1
344(10) 0.01096 322.8 27.2
338(10) 0.01032 322.8 26.4
354(10) 0.00966 322.8 25.8
329(10) 0.01052 322.8 25.3
355(10) 0.00951 322.8 25.0
320(9) 0.01175 322.8 24.8
359(10) 0.01009 322.8 24.7
345(10) 0.00976 322.8 24.7
348(10) 0.00983 322.8 24.7
337(10) 0.01081 322.8 24.9
326(9) 0.01146 322.9 25.1
335(10) 0.01040 322.9 25.4
342(10) 0.00990 322.9 25.8
326(10) 0.01082 322.9 26.2
324(9) 0.01130 322.9 26.7
324(9) 0.01150 322.9 27.3
349(10) 0.01004 322.9 28.0
369(10) 0.00918 322.9 28.7
356(10) 0.00998 322.9 29.5
331(9) 0.01124 322.9 30.4
361(10) 0.01041 322.9 31.3
338(10) 0.01005 322.9 32.4
357(11) 0.00876 322.9 33.5
365(10) 0.00921 322.9 34.7
321(9) 0.01174 322.9 36.0
358(10) 0.01031 322.9 37.4
344(10) 0.01041 322.9 38.9
366(11) 0.00890 322.9 40.5
366(10) 0.00926 322.9 42.2
325(9) 0.01149 322.9 44.0
332(9) 0.01120 322.9 46.0
352(10) 0.00980 322.9 48.0
378(11) 0.00852 322.9 50.2
369(10) 0.00951 322.9 52.5
378(10) 0.00981 322.9 55.0
354(10) 0.01034 322.9 57.6
379(11) 0.00895 322.9 60.3
372(10) 0.00930 322.9 63.3
394(11) 0.00870 322.9 66.4
389(10) 0.00959 322.9 69.7
357(10) 0.01030 322.9 73.2
364(10) 0.00955 322.9 76.9
372(11) 0.00906 322.9 80.7
390(11) 0.00881 323.0 84.8
408(10) 0.00914 323.0 89.1
393(11) 0.00895 323.0 93.5
395(11) 0.00848 323.0 98.2
402(11) 0.00845 323.0 103.0
397(10) 0.00913 323.0 107.9
411(11) 0.00903 323.0 113.0
411(11) 0.00855 323.0 118.2
394(11) 0.00867 323.0 123.5
440(11) 0.00774 323.0 128.7
444(11) 0.00804 323.0 134.0
452(11) 0.00821 323.0 139.1
421(11) 0.00846 323.0 144.1
463(12) 0.00715 323.0 148.7
469(12) 0.00727 323.0 152.9
446(11) 0.00833 323.0 156.5
465(11) 0.00795 323.0 159.4
473(12) 0.00735 323.0 161.3
471(12) 0.00728 323.0 162.1
470(12) 0.00744 323.0 161.7
447(11) 0.00836 323.0 160.2
445(11) 0.00834 323.0 157.4
458(12) 0.00755 323.0 153.6
444(12) 0.00729 323.0 148.8
426(11) 0.00804 323.0 143.3
427(11) 0.00874 323.0 137.2
448(11) 0.00829 323.0 130.8
414(11) 0.00876 323.0 124.2
412(11) 0.00803 323.0 117.5
432(11) 0.00797 323.0 111.0
391(10) 0.00958 323.0 104.7
368(10) 0.01006 323.0 98.7
422(11) 0.00834 323.0 93.1
383(11) 0.00887 323.0 87.9
372(10) 0.00967 323.1 83.0
367(10) 0.01009 323.1 78.6
370(10) 0.01020 323.1 74.6
392(11) 0.00900 323.1 71.0
367(10) 0.00915 323.1 67.8
388(11) 0.00875 323.1 64.9
371(10) 0.01012 323.1 62.3
369(10) 0.00998 323.1 59.9
345(10) 0.01049 323.1 57.6
367(10) 0.00921 323.1 55.5
375(10) 0.00912 323.1 53.4
356(10) 0.01053 323.1 51.3
386(10) 0.00948 323.1 49.2
327(10) 0.01080 323.1 47.2
375(11) 0.00902 323.1 45.2
375(10) 0.00935 323.1 43.3
361(10) 0.01035 323.1 41.5
347(10) 0.01027 323.1 39.8
344(10) 0.01012 323.1 38.2
358(10) 0.00950 323.1 36.7
364(10) 0.00967 323.1 35.4
358(10) 0.01039 323.1 34.2
344(10) 0.01025 323.1 33.1
363(10) 0.00914 323.1 32.2
347(10) 0.00983 323.1 31.3
357(10) 0.00974 323.1 30.6
382(10) 0.00978 323.1 29.9
354(10) 0.01011 323.1 29.4
366(10) 0.00960 323.1 28.9
348(10) 0.00977 323.1 28.5
314(9) 0.01123 323.1 28.2
361(10) 0.01038 323.1 27.9
349(10) 0.01024 323.1 27.7
354(10) 0.00941 323.1 27.5
371(10) 0.00944 323.2 27.4
361(10) 0.01009 323.2 27.3
350(10) 0.01059 323.2 27.3
337(10) 0.01072 323.2 27.2
372(11) 0.00886 323.2 27.3
333(10) 0.01039 323.2 27.3
339(10) 0.01104 323.2 27.4
335(10) 0.01089 323.2 27.5
342(10) 0.00967 323.2 27.7
347(11) 0.00899 323.2 27.9
325(9) 0.01109 323.2 28.2
385(10) 0.00940 323.2 28.6
381(10) 0.00983 323.2 29.1
372(10) 0.00981 323.2 29.7
351(10) 0.00951 323.2 30.5
364(10) 0.00954 323.2 31.5
368(10) 0.01008 323.2 32.7
370(10) 0.01005 323.2 34.3
356(10) 0.00991 323.2 36.3
345(10) 0.00971 323.2 38.9
373(10) 0.00961 323.2 42.0
389(10) 0.00959 323.2 45.8
359(10) 0.01034 323.2 50.4
379(11) 0.00905 323.2 55.9
402(11) 0.00835 323.2 62.2
416(11) 0.00810 323.2 69.3
432(11) 0.00855 323.2 77.3
416(11) 0.00886 323.2 85.9
432(11) 0.00780 323.2 95.0
432(11) 0.00768 323.2 104.1
459(12) 0.00712 323.2 112.6
469(11) 0.00798 323.2 120.0
452(11) 0.00798 323.2 125.4
475(12) 0.00720 323.3 128.1
485(12) 0.00710 323.3 127.7
466(11) 0.00772 323.3 124.2
473(11) 0.00792 323.3 118.1
463(12) 0.00746 323.3 110.0
445(11) 0.00772 323.3 100.8
411(11) 0.00842 323.3 91.1
416(11) 0.00850 323.3 81.5
399(10) 0.00928 323.3 72.3
393(11) 0.00898 323.3 63.8
406(11) 0.00822 323.3 56.2
385(11) 0.00868 323.3 49.3
345(10) 0.01048 323.3 43.4
350(10) 0.01049 323.3 38.3
361(10) 0.00995 323.3 34.0
377(11) 0.00904 323.3 30.4
348(10) 0.01001 323.3 27.4
365(10) 0.00997 323.3 24.9
350(10) 0.01056 323.3 22.8
318(10) 0.01103 323.3 21.1
364(11) 0.00885 323.3 19.7
349(10) 0.00995 323.3 18.5
342(10) 0.01052 323.3 17.5
341(10) 0.01085 323.3 16.6
307(10) 0.01099 323.3 15.8
334(10) 0.00986 323.3 15.1
349(10) 0.00996 323.3 14.6
327(9) 0.01116 323.3 14.0
362(10) 0.01018 323.3 13.5
349(10) 0.00956 323.3 13.1
328(10) 0.00975 323.3 12.7
327(10) 0.01035 323.3 12.4
314(9) 0.01189 323.3 12.1
319(9) 0.01163 323.3 11.8
315(10) 0.01043 323.4 11.5
302(10) 0.01057 323.4 11.3
322(10) 0.01094 323.4 11.1
333(9) 0.01134 323.4 10.9
330(9) 0.01115 323.4 10.8
308(9) 0.01135 323.4 10.6
324(10) 0.01030 323.4 10.5
345(10) 0.01022 323.4 10.5
321(9) 0.01173 323.4 10.4
357(10) 0.01014 323.4 10.4
350(10) 0.01029 323.4 10.4
342(10) 0.00989 323.4 10.5
336(10) 0.01045 323.4 10.6
328(9) 0.01129 323.4 10.7
333(10) 0.01066 323.4 10.8
313(10) 0.01095 323.4 11.0
316(10) 0.01085 323.4 11.1
319(9) 0.01115 323.4 11.4
328(9) 0.01131 323.4 11.6
315(10) 0.01106 323.4 11.8
356(10) 0.00914 323.4 12.1
326(10) 0.01027 323.4 12.3
331(10) 0.01054 323.4 12.5
334(9) 0.01117 323.4 12.7
338(10) 0.01043 323.4 12.9
335(10) 0.01030 323.4 13.0
321(10) 0.01046 323.4 13.0
348(10) 0.01000 323.4 13.0
355(10) 0.01052 323.4 12.9
330(10) 0.01083 323.4 12.8
352(10) 0.00953 323.3 12.6
346(10) 0.00999 323.3 12.4
325(10) 0.01101 323.3 12.1
315(9) 0.01176 323.3 11.9
338(10) 0.01063 323.2 11.7
318(10) 0.01044 323.2 11.5
317(10) 0.01091 323.2 11.3
333(9) 0.01109 323.2 11.1
344(10) 0.01088 323.1 11.0
311(9) 0.01136 323.1 10.9
309(10) 0.01077 323.1 10.8
306(9) 0.01181 323.1 10.7
339(10) 0.01087 323.1 10.7
321(9) 0.01127 323.0 10.7
310(9) 0.01136 323.0 10.7
371(11) 0.00856 323.0 10.8
325(10) 0.01041 323.0 10.9
340(10) 0.01091 322.9 11.0
325(9) 0.01143 322.9 11.1
332(10) 0.01054 322.9 11.3
334(10) 0.00986 322.9 11.5
318(10) 0.01081 322.8 11.7
296(9) 0.01263 322.8 11.9
296(9) 0.01253 322.8 12.2
324(10) 0.01025 322.8 12.5
311(10) 0.01050 322.7 12.8
315(9) 0.01124 322.7 13.2
354(10) 0.01037 322.7 13.6
306(9) 0.01203 322.7 14.0
302(9) 0.01171 322.6 14.5
321(10) 0.01047 322.6 15.1
321(10) 0.01085 322.6 15.7
323(9) 0.01157 322.6 16.3
335(10) 0.01070 322.6 17.1
314(9) 0.01112 322.5 17.9
315(10) 0.01044 322.5 18.7
308(9) 0.01116 322.5 19.7
327(9) 0.01144 322.5 20.8
355(10) 0.00964 322.4 22.0
335(10) 0.01027 322.4 23.2
317(10) 0.01089 322.4 24.6
331(10) 0.01062 322.4 26.2
341(10) 0.01093 322.3 27.8
335(10) 0.01063 322.3 29.6
366(11) 0.00901 322.3 31.6
339(10) 0.01012 322.3 33.7
331(10) 0.01077 322.2 36.0
346(10) 0.01080 322.2 38.4
330(10) 0.01085 322.2 41.0
353(10) 0.00948 322.2 43.8
336(10) 0.01040 322.1 46.8
345(10) 0.01059 322.1 49.9
346(10) 0.01070 322.1 53.2
335(10) 0.01042 322.1 56.6
364(11) 0.00906 322.0 60.2
359(10) 0.00946 322.0 63.9
348(10) 0.01048 322.0 67.8
370(10) 0.01003 322.0 71.7
391(11) 0.00882 322.0 75.7
381(11) 0.00851 321.9 79.7
387(11) 0.00887 321.9 83.7
400(11) 0.00903 321.9 87.6
402(10) 0.00936 321.9 91.4
418(11) 0.00802 321.8 95.0
415(12) 0.00753 321.8 98.3
401(11) 0.00871 321.8 101.3
407(10) 0.00922 321.8 103.9
401(10) 0.00924 321.7 106.0
410(11) 0.00863 321.7 107.6
392(11) 0.00819 321.7 108.6
400(11) 0.00857 321.7 108.9
388(10) 0.00958 321.6 108.7
420(11) 0.00892 321.6 107.8
399(11) 0.00889 321.6 106.3
388(11) 0.00841 321.6 104.3
391(11) 0.00877 321.5 101.8
414(11) 0.00892 321.5 98.9
385(10) 0.00961 321.5 95.7
383(10) 0.00925 321.5 92.1
406(11) 0.00837 321.5 88.4
399(11) 0.00875 321.4 84.6
380(10) 0.00979 321.4 80.7
359(10) 0.01005 321.4 76.7
368(10) 0.00932 321.4 72.8
382(11) 0.00876 321.3 68.9
351(10) 0.00988 321.3 65.2
346(10) 0.01067 321.3 61.5
382(10) 0.00935 321.3 58.0
380(11) 0.00885 321.2 54.6
365(10) 0.00909 321.2 51.4
371(10) 0.00926 321.2 48.3
348(10) 0.01072 321.2 45.4
345(10) 0.01017 321.1 42.7
370(11) 0.00879 321.1 40.2
333(10) 0.01030 321.1 37.8
332(10) 0.01081 321.1 35.6
340(10) 0.01105 321.0 33.6
348(10) 0.00989 321.0 31.7
342(10) 0.00990 321.0 30.0
339(10) 0.01016 321.0 28.4
339(10) 0.01054 321.0 27.0
338(9) 0.01113 320.9 25.7
344(10) 0.00964 320.9 24.5
355(10) 0.00949 320.9 23.4
329(10) 0.01089 320.9 22.5
340(10) 0.01060 320.8 21.6
315(9) 0.01184 320.8 20.9
334(10) 0.01030 320.8 20.2
369(11) 0.00882 320.8 19.6
330(10) 0.01055 320.7 19.1
350(10) 0.01031 320.7 18.7
317(9) 0.01170 320.7 18.3
312(10) 0.01094 320.7 18.0
330(10) 0.00973 320.6 17.7
345(10) 0.00993 320.6 17.5
354(10) 0.01043 320.6 17.4
333(9) 0.01122 320.6 17.3
320(10) 0.01105 320.5 17.2
315(10) 0.01010 320.5 17.2
334(10) 0.01027 320.5 17.2
339(10) 0.01088 320.5 17.3
354(10) 0.01049 320.4 17.5
327(10) 0.01081 320.4 17.6
346(10) 0.00948 320.4 17.9
352(10) 0.00955 320.4 18.1
326(9) 0.01127 320.4 18.5
348(10) 0.01063 320.3 18.9
325(10) 0.01074 320.3 19.3
318(10) 0.01014 320.3 19.8
347(10) 0.01017 320.3 20.4
371(10) 0.00999 320.2 21.0
341(10) 0.01067 320.2 21.7
339(10) 0.00997 320.2 22.5
328(10) 0.01026 320.2 23.3
338(10) 0.01007 320.1 24.3
338(10) 0.01100 320.1 25.3
322(9) 0.01119 320.1 26.4
360(10) 0.00969 320.1 27.6
358(10) 0.00955 320.0 28.9
349(10) 0.00950 320.0 30.3
344(10) 0.01078 320.0 31.8
348(10) 0.01027 320.0 33.4
332(10) 0.00991 319.9 35.1
329(10) 0.01030 319.9 36.9
321(10) 0.01107 319.9 38.8
369(10) 0.01019 319.9 40.8
367(10) 0.00952 319.9 42.9
336(10) 0.01008 319.8 45.1
340(10) 0.01017 319.8 47.4
335(10) 0.01069 319.8 49.8
363(10) 0.01016 319.8 52.3
362(10) 0.00945 319.7 54.8
369(11) 0.00890 319.7 57.4
371(10) 0.00914 319.7 60.1
368(10) 0.00991 319.7 62.8
392(10) 0.00954 319.6 65.5
371(10) 0.00930 319.6 68.2
364(11) 0.00904 319.6 70.9
370(10) 0.00938 319.6 73.5
360(10) 0.01031 319.5 76.0
380(10) 0.00979 319.5 78.4
389(11) 0.00895 319.5 80.6
367(10) 0.00919 319.5 82.6
406(11) 0.00871 319.4 84.5
388(10) 0.00954 319.4 86.0
378(10) 0.00984 319.4 87.3
397(11) 0.00852 319.4 88.3
413(11) 0.00770 319.4 89.0
378(11) 0.00902 319.3 89.4
406(10) 0.00916 319.3 89.5
416(11) 0.00877 319.3 89.3
406(11) 0.00878 319.3 88.9
420(11) 0.00774 319.2 88.2
394(11) 0.00891 319.2 87.3
398(10) 0.00938 319.2 86.3
396(11) 0.00900 319.2 85.1
403(11) 0.00868 319.1 83.9
402(11) 0.00840 319.1 82.6
378(10) 0.00965 319.1 81.3
393(10) 0.00947 319.1 80.0
402(10) 0.00913 319.0 78.7
386(10) 0.00912 319.0 77.5
405(11) 0.00792 319.0 76.3
380(10) 0.00925 319.0 75.3
398(10) 0.00925 318.9 74.3
394(10) 0.00914 318.9 73.4
383(10) 0.00911 318.9 72.6
398(11) 0.00861 318.9 71.9
379(11) 0.00888 318.8 71.3
382(10) 0.00959 318.8 70.7
396(11) 0.00903 318.8 70.2
374(10) 0.00926 318.8 69.7
382(11) 0.00886 318.8 69.2
379(10) 0.00925 318.7 68.7
375(10) 0.00990 318.7 68.1
362(10) 0.00997 318.7 67.4
392(11) 0.00874 318.7 66.6
405(11) 0.00831 318.6 65.6
396(11) 0.00873 318.6 64.4
377(10) 0.00996 318.6 63.1
391(11) 0.00880 318.6 61.7
375(11) 0.00903 318.5 60.0
358(10) 0.00967 318.5 58.3
371(10) 0.00969 318.5 56.4
355(10) 0.01053 318.5 54.3
357(10) 0.00969 318.4 52.3
380(11) 0.00858 318.4 50.1
372(11) 0.00905 318.4 47.9
349(10) 0.01063 318.4 45.8
365(10) 0.01025 318.3 43.6
367(10) 0.00945 318.3 41.5
333(10) 0.01032 318.3 39.4
366(10) 0.00954 318.3 37.4
368(10) 0.01014 318.3 35.4
334(9) 0.01116 318.2 33.5
331(10) 0.01016 318.2 31.7
335(10) 0.00967 318.2 30.0
335(10) 0.01045 318.2 28.4
331(10) 0.01108 318.1 26.8
340(10) 0.01093 318.1 25.3
339(10) 0.01036 318.1 24.0
363(11) 0.00889 318.1 22.7
324(10) 0.01103 318.0 21.5
342(10) 0.01093 318.0 20.3
355(10) 0.01029 318.0 19.3
347(10) 0.01010 318.0 18.3
320(10) 0.01048 317.9 17.4
333(10) 0.01054 317.9 16.5
313(9) 0.01195 317.9 15.8
318(9) 0.01167 317.9 15.1
312(10) 0.01107 317.8 14.4
336(10) 0.00976 317.8 13.8
323(10) 0.01092 317.8 13.2
330(9) 0.01121 317.8 12.7
337(10) 0.01083 317.8 12.2
323(9) 0.01114 317.7 11.8
323(10) 0.01053 317.7 11.4
321(10) 0.01082 317.7 11.0
305(9) 0.01226 317.7 10.7
323(9) 0.01123 317.6 10.4
329(10) 0.01036 317.6 10.1
341(10) 0.00980 317.6 9.8
329(10) 0.01088 317.6 9.6
312(9) 0.01194 317.5 9.3
319(9) 0.01110 317.5 9.1
333(10) 0.01057 317.5 8.9
354(10) 0.00973 317.5 8.8
317(9) 0.01157 317.4 8.6
318(9) 0.01161 317.4 8.4
329(10) 0.01068 317.4 8.3
339(10) 0.01025 317.4 8.2
314(9) 0.01109 317.4 8.1
305(9) 0.01158 317.5 7.9
323(9) 0.01142 317.5 7.8
311(9) 0.01122 317.5 7.8
318(10) 0.01053 317.5 7.7
299(9) 0.01163 317.5 7.6
326(9) 0.01126 317.5 7.6
312(9) 0.01206 317.5 7.5
332(10) 0.01068 317.5 7.5
287(9) 0.01207 317.5 7.4
322(10) 0.01064 317.5 7.4
337(10) 0.01086 317.5 7.4
332(9) 0.01125 317.6 7.4
319(10) 0.01102 317.6 7.5
316(10) 0.01023 317.6 7.5
320(10) 0.01080 317.6 7.6
334(10) 0.01097 317.6 7.7
333(10) 0.01087 317.6 7.8
337(10) 0.00971 317.6 8.0
347(11) 0.00889 317.6 8.3
314(9) 0.01126 317.6 8.6
325(9) 0.01133 317.6 9.3
330(9) 0.01110 317.6 10.6
315(9) 0.01110 317.6 13.2
354(10) 0.00958 317.7 18.2
362(10) 0.00985 317.7 27.3
352(10) 0.01054 317.7 41.3
377(10) 0.00992 317.7 60.2
385(10) 0.00926 317.7 81.2
412(11) 0.00793 317.7 98.8
432(11) 0.00793 317.7 106.3
422(11) 0.00886 317.7 100.1
390(10) 0.00911 317.7 83.2
355(10) 0.00991 317.7 62.4
352(10) 0.00976 317.7 43.3
339(10) 0.01037 317.8 28.8
328(9) 0.01129 317.8 19.5
340(10) 0.01047 317.8 14.2
305(9) 0.01127 317.8 11.6
326(10) 0.01038 317.8 10.4
319(10) 0.01087 317.8 9.8
331(9) 0.01135 317.8 9.6
323(10) 0.01089 317.8 9.5
314(9) 0.01143 317.8 9.5
329(10) 0.01098 317.8 9.5
345(10) 0.00996 317.8 9.7
327(9) 0.01148 317.8 9.8
321(10) 0.01105 317.9 10.0
339(10) 0.00957 317.9 10.2
309(10) 0.01104 317.9 10.5
308(9) 0.01172 317.9 10.8
355(10) 0.01043 317.9 11.2
348(10) 0.01000 317.9 11.5
339(10) 0.00986 317.9 12.0
336(10) 0.01057 317.9 12.4
339(10) 0.01086 317.9 13.0
322(9) 0.01162 317.9 13.5
321(10) 0.01068 317.9 14.1
310(10) 0.01071 317.9 14.8
318(10) 0.01107 318.0 15.5
312(9) 0.01185 318.0 16.2
320(9) 0.01147 318.0 17.0
336(10) 0.01023 318.0 17.8
321(10) 0.00993 318.0 18.7
344(10) 0.00998 318.0 19.7
345(10) 0.01072 318.0 20.7
351(10) 0.01071 318.0 21.7
362(10) 0.00974 318.0 22.8
332(10) 0.00999 318.0 23.9
364(10) 0.00961 318.0 25.1
351(10) 0.01061 318.1 26.4
328(9) 0.01133 318.1 27.6
366(10) 0.00923 318.1 28.9
353(10) 0.00916 318.1 30.3
375(10) 0.00952 318.1 31.6
384(10) 0.00978 318.1 33.1
372(10) 0.00979 318.1 34.5
358(10) 0.00965 318.1 35.8
351(10) 0.00941 318.1 37.2
381(10) 0.00909 318.1 38.5
379(10) 0.00986 318.1 39.8
409(11) 0.00895 318.1 41.0
372(10) 0.00935 318.2 42.1
366(10) 0.00917 318.2 43.2
382(11) 0.00907 318.2 44.1
364(10) 0.01019 318.2 44.9
396(11) 0.00900 318.2 45.5
372(10) 0.00938 318.2 46.0
387(11) 0.00869 318.2 46.3
366(10) 0.00948 318.2 46.5
366(10) 0.01016 318.2 46.4
379(10) 0.00961 318.2 46.2
383(11) 0.00884 318.2 45.8
388(11) 0.00886 318.3 45.3
377(10) 0.00953 318.3 44.6
370(10) 0.01011 318.3 43.7
373(10) 0.00944 318.3 42.7
351(10) 0.00949 318.3 41.6
382(11) 0.00892 318.3 40.4
382(10) 0.00950 318.3 39.2
344(10) 0.01068 318.3 37.9
374(10) 0.00930 318.3 36.5
356(10) 0.00934 318.3 35.1
352(10) 0.00955 318.3 33.8
344(10) 0.01069 318.3 32.4
370(10) 0.01006 318.4 31.0
356(10) 0.00958 318.4 29.6
345(10) 0.01005 318.4 28.3
341(10) 0.01030 318.4 27.0
366(10) 0.00993 318.4 25.7
329(9) 0.01142 318.4 24.5
341(10) 0.01005 318.4 23.3
320(10) 0.01033 318.4 22.2
344(10) 0.01050 318.4 21.1
347(10) 0.01077 318.4 20.0
355(10) 0.01041 318.4 19.1
322(10) 0.01106 318.5 18.1
352(10) 0.00911 318.5 17.2
317(10) 0.01103 318.5 16.4
318(9) 0.01166 318.5 15.6
339(10) 0.01076 318.5 14.9
331(10) 0.01039 318.5 14.2
334(10) 0.00940 318.5 13.6
310(9) 0.01167 318.5 13.0
335(10) 0.01077 318.5 12.5
344(10) 0.01102 318.5 12.0
334(10) 0.01030 318.5 11.5
329(10) 0.00986 318.5 11.1
323(10) 0.01053 318.6 10.7
328(9) 0.01143 318.6 10.4
307(9) 0.01173 318.6 10.0
333(10) 0.01067 318.6 9.8
326(10) 0.01036 318.6 9.5
302(9) 0.01152 318.6 9.3
315(9) 0.01188 318.6 9.1
313(9) 0.01146 318.6 8.9
329(10) 0.01071 318.6 8.8
323(10) 0.01040 318.6 8.7
339(10) 0.01017 318.6 8.6
323(9) 0.01140 318.6 8.5
316(9) 0.01147 318.7 8.4
311(9) 0.01139 318.7 8.4
330(10) 0.01044 318.7 8.4
312(9) 0.01154 318.7 8.4
327(9) 0.01137 318.7 8.5
342(10) 0.01032 318.7 8.7
334(10) 0.01010 318.7 8.9
335(10) 0.01053 318.7 9.2
335(10) 0.01085 318.7 9.6
358(10) 0.01045 318.7 10.3
354(10) 0.00985 318.7 11.3
342(10) 0.00997 318.8 13.1
367(10) 0.00912 318.8 16.4
357(10) 0.01022 318.8 22.0
355(10) 0.01043 318.8 31.4
389(10) 0.00922 318.8 45.7
418(11) 0.00807 318.8 65.4
447(11) 0.00799 318.8 89.4
525(12) 0.00693 318.8 114.0
535(12) 0.00692 318.8 133.4
514(12) 0.00683 318.8 140.1
520(13) 0.00623 318.8 131.1
450(11) 0.00802 318.8 110.4
420(11) 0.00882 318.9 85.4
383(10) 0.00974 318.9 61.8
384(11) 0.00898 318.9 42.7
336(10) 0.00966 318.9 28.9
334(10) 0.01039 318.9 20.0
342(10) 0.01083 318.9 14.6
333(9) 0.01123 318.9 11.4
338(10) 0.01033 318.9 9.6
340(10) 0.00943 318.9 8.4
330(10) 0.01027 318.9 7.7
321(9) 0.01160 318.9 7.1
317(9) 0.01154 319.0 6.6
321(10) 0.01093 319.0 6.2
333(10) 0.00952 319.0 5.9
338(10) 0.01005 319.0 5.7
335(10) 0.01101 319.0 5.5
341(10) 0.01079 319.0 5.3
315(9) 0.01113 319.0 5.1
335(10) 0.00960 319.0 5.0
315(10) 0.01098 319.0 4.9
311(9) 0.01199 319.0 4.8
340(10) 0.01062 319.0 4.7
325(10) 0.01074 319.0 4.6
329(10) 0.01041 319.1 4.6
333(10) 0.01054 319.1 4.5
329(9) 0.01119 319.1 4.5
333(9) 0.01110 319.1 4.5
326(10) 0.01055 319.1 4.5
322(10) 0.01068 319.1 4.5
343(10) 0.01024 319.1 4.5
327(9) 0.01155 319.1 4.5
333(10) 0.01059 319.1 4.5
314(10) 0.01089 319.1 4.5
316(10) 0.01062 319.1 4.6
291(9) 0.01197 319.2 4.6
310(9) 0.01213 319.2 4.7
298(9) 0.01173 319.2 4.7
321(10) 0.01073 319.2 4.8
316(9) 0.01132 319.2 4.9
332(10) 0.01096 319.2 5.0
309(9) 0.01206 319.2 5.1
324(10) 0.01081 319.2 5.2
350(10) 0.00935 319.2 5.3
347(10) 0.00978 319.2 5.5
337(10) 0.01092 319.2 5.6
332(9) 0.01120 319.2 5.8
327(10) 0.01051 319.3 6.0
323(10) 0.01005 319.3 6.3
321(10) 0.01085 319.3 6.7
334(9) 0.01109 319.3 7.2
351(10) 0.01064 319.3 8.0
355(10) 0.00947 319.3 9.3
346(10) 0.00934 319.3 11.1
340(10) 0.00979 319.3 13.7
345(10) 0.01078 319.3 16.9
372(10) 0.00986 319.3 20.5
364(10) 0.00969 319.3 23.7
375(11) 0.00893 319.4 25.6
364(10) 0.00959 319.4 25.5
361(10) 0.01024 319.4 23.6
364(10) 0.01019 319.4 20.7
370(10) 0.00915 319.4 17.7
373(11) 0.00873 319.4 15.2
340(10) 0.01037 319.4 13.4
345(10) 0.01073 319.4 12.2
367(10) 0.00998 319.4 11.6
332(10) 0.01069 319.4 11.4
311(10) 0.01077 319.4 11.5
311(10) 0.01080 319.4 11.6
332(9) 0.01113 319.5 11.9
331(9) 0.01114 319.5 12.1
339(10) 0.01019 319.5 12.4
354(10) 0.00959 319.5 12.7
316(10) 0.01100 319.5 13.0
321(9) 0.01163 319.5 13.3
353(10) 0.01023 319.5 13.6
338(10) 0.01060 319.5 13.8
341(10) 0.01027 319.5 14.0
333(10) 0.01068 319.5 14.2
340(10) 0.01092 319.5 14.4
342(10) 0.01038 319.5 14.5
329(10) 0.01055 319.6 14.5
335(10) 0.01009 319.6 14.5
321(9) 0.01111 319.6 14.5
335(9) 0.01111 319.6 14.4
331(10) 0.01058 319.6 14.3
311(9) 0.01128 319.6 14.1
354(10) 0.00959 319.6 13.9
328(10) 0.01105 319.6 13.6
336(9) 0.01117 319.6 13.3
351(10) 0.00977 319.6 13.0
361(10) 0.00932 319.6 12.7
352(10) 0.00961 319.7 12.3
326(10) 0.01101 319.7 12.0
337(10) 0.01101 319.7 11.7
325(10) 0.01071 319.7 11.4
334(10) 0.00994 319.7 11.0
357(10) 0.00974 319.7 10.7
319(9) 0.01165 319.7 10.4
328(9) 0.01133 319.7 10.2
331(10) 0.01067 319.7 9.9
301(10) 0.01070 319.7 9.7
305(9) 0.01138 319.7 9.5
320(9) 0.01153 319.7 9.3
307(9) 0.01216 319.8 9.1
323(10) 0.01085 319.8 9.0
326(10) 0.01027 319.8 8.9
312(10) 0.01101 319.8 8.9
335(10) 0.01105 319.8 8.8
312(9) 0.01186 319.8 8.8
340(10) 0.01008 319.8 8.8
337(10) 0.00942 319.8 8.9
296(9) 0.01195 319.8 9.0
333(9) 0.01115 319.8 9.1
335(10) 0.01098 319.8 9.2
338(10) 0.00987 319.9 9.4
323(10) 0.01021 319.9 9.6
330(10) 0.01055 319.9 9.9
335(9) 0.01118 319.9 10.2
329(10) 0.01106 319.9 10.5
352(10) 0.00968 319.9 10.8
335(10) 0.01020 319.9 11.2
351(10) 0.00980 319.9 11.6
335(10) 0.01100 319.9 12.0
319(9) 0.01108 319.9 12.5
317(10) 0.01103 319.9 12.9
333(10) 0.01037 319.9 13.4
337(10) 0.00989 320.0 13.9
293(9) 0.01280 320.0 14.4
331(10) 0.01071 320.0 14.9
339(10) 0.00978 320.0 15.5
315(10) 0.01107 320.0 16.0
347(10) 0.01001 320.0 16.5
325(9) 0.01150 320.0 16.9
323(10) 0.01085 320.0 17.4
344(10) 0.00987 320.0 17.8
359(10) 0.00983 320.0 18.1
337(10) 0.01059 320.0 18.4
327(9) 0.01133 320.1 18.7
314(10) 0.01098 320.1 18.8
318(10) 0.01087 320.1 18.9
315(9) 0.01125 320.1 18.9
320(9) 0.01113 320.1 18.9
354(10) 0.01054 320.1 18.7
337(10) 0.01024 320.1 18.5
334(10) 0.00961 320.1 18.2
306(9) 0.01164 320.1 17.9
363(10) 0.01005 320.1 17.5
352(10) 0.01072 320.1 17.1
320(10) 0.01094 320.1 16.6
319(10) 0.01005 320.2 16.1
338(10) 0.01016 320.2 15.7
327(9) 0.01136 320.2 15.1
317(9) 0.01166 320.2 14.6
316(10) 0.01078 320.2 14.1
322(10) 0.01041 320.2 13.5
326(10) 0.01096 320.2 13.0
327(9) 0.01133 320.2 12.5
338(9) 0.01116 320.2 12.0
328(10) 0.01075 320.2 11.5
320(10) 0.01011 320.2 11.1
312(9) 0.01144 320.2 10.7
337(10) 0.01095 320.3 10.3
330(9) 0.01119 320.3 10.0
315(9) 0.01143 320.3 9.7
328(10) 0.01001 320.3 9.5
339(10) 0.00997 320.3 9.3
316(9) 0.01163 320.3 9.2
322(9) 0.01137 320.3 9.1
310(9) 0.01146 320.3 9.1
336(10) 0.00983 320.3 9.2
327(10) 0.01080 320.3 9.4
303(9) 0.01228 320.3 9.7
323(10) 0.01102 320.4 10.3
314(9) 0.01113 320.4 11.2
308(10) 0.01079 320.4 12.7
304(9) 0.01119 320.4 15.1
356(10) 0.01045 320.4 18.6
353(10) 0.00998 320.4 23.8
338(10) 0.01022 320.4 31.1
347(10) 0.00997 320.4 40.4
344(10) 0.01061 320.4 51.5
344(10) 0.01087 320.4 63.7
356(10) 0.00979 320.4 75.1
346(10) 0.00992 320.4 83.4
373(10) 0.00930 320.5 85.9
396(10) 0.00908 320.5 81.8
377(10) 0.00979 320.5 72.9
374(10) 0.00946 320.5 61.9
379(11) 0.00883 320.5 51.0
356(10) 0.00981 320.5 41.5
364(10) 0.00979 320.5 33.9
362(10) 0.01030 320.5 28.0
359(10) 0.00964 320.5 23.5
360(10) 0.00932 320.5 19.9
349(10) 0.01017 320.5 17.0
341(10) 0.01098 320.6 14.5
337(10) 0.01100 320.6 12.5
337(10) 0.01024 320.6 10.9
342(10) 0.00986 320.6 9.6
344(10) 0.00996 320.6 8.6
329(9) 0.01115 320.6 7.8
318(9) 0.01170 320.6 7.2
323(10) 0.01070 320.6 6.7
355(11) 0.00900 320.6 6.4
338(10) 0.01072 320.6 6.2
320(9) 0.01144 320.6 6.0
321(9) 0.01169 320.6 5.9
321(10) 0.01100 320.7 5.8
314(10) 0.01043 320.7 5.8
322(10) 0.01076 320.7 5.8
297(9) 0.01254 320.7 5.8
320(9) 0.01164 320.7 5.9
316(10) 0.01086 320.7 6.0
319(10) 0.00995 320.7 6.1
329(10) 0.01041 320.7 6.3
334(9) 0.01111 320.7 6.6
309(9) 0.01182 320.7 6.9
332(10) 0.01072 320.7 7.4
348(10) 0.00957 320.8 7.9
314(9) 0.01142 320.8 8.6
330(9) 0.01118 320.8 9.5
338(10) 0.01080 320.8 10.6
339(10) 0.01017 320.8 12.0
335(10) 0.00984 320.8 13.6
338(10) 0.00999 320.8 15.5
331(9) 0.01127 320.8 17.7
325(9) 0.01108 320.8 20.3
341(10) 0.00980 320.8 23.0
339(10) 0.00992 320.8 25.9
332(10) 0.01078 320.8 28.8
324(9) 0.01144 320.9 31.6
339(10) 0.01042 320.9 33.8
343(10) 0.00985 320.9 35.4
337(10) 0.01020 320.9 35.9
345(10) 0.00975 320.9 35.4
325(9) 0.01134 320.9 34.0
350(10) 0.01018 320.9 31.8
343(10) 0.01008 320.9 29.1
335(10) 0.01034 320.9 26.3
340(10) 0.01075 320.9 23.5
308(9) 0.01214 320.9 20.9
321(10) 0.01074 321.0 18.5
333(10) 0.01008 321.0 16.4
323(10) 0.01078 321.0 14.6
325(9) 0.01112 321.0 13.1
346(10) 0.01078 321.0 11.9
325(10) 0.01067 321.0 10.9
338(10) 0.00960 321.0 10.2
319(9) 0.01130 321.0 9.5
316(9) 0.01175 321.0 9.1
329(9) 0.01149 321.0 8.8
331(10) 0.00987 321.0 8.6
323(10) 0.01098 321.0 8.4
349(10) 0.01032 321.1 8.2
331(9) 0.01127 321.1 8.2
321(10) 0.01094 321.1 8.1
325(10) 0.00999 321.1 8.0
304(9) 0.01148 321.1 8.0
329(9) 0.01124 321.1 8.0
321(9) 0.01166 321.1 8.0
328(10) 0.01088 321.1 8.0
347(10) 0.00961 321.1 8.0
345(10) 0.01000 321.1 8.1
357(10) 0.01038 321.1 8.1
338(10) 0.01081 321.1 8.1
316(9) 0.01114 321.2 8.1
360(11) 0.00875 321.2 8.1
346(10) 0.00970 321.2 8.1
336(10) 0.01083 321.2 8.1
324(9) 0.01118 321.2 8.1
311(10) 0.01073 321.2 8.1
321(10) 0.00992 321.2 8.1
352(10) 0.01005 321.2 8.1
341(10) 0.01086 321.2 8.0
322(9) 0.01125 321.2 8.0
325(10) 0.01061 321.2 8.0
326(10) 0.01027 321.3 7.9
330(10) 0.01064 321.3 7.8
348(10) 0.01067 321.3 7.8
346(10) 0.01034 321.3 7.7
333(10) 0.01011 321.3 7.6
298(9) 0.01121 321.3 7.5
329(10) 0.01052 321.3 7.4
348(10) 0.01065 321.3 7.4
312(9) 0.01136 321.3 7.3
335(10) 0.01030 321.3 7.2
317(10) 0.01087 321.3 7.1
321(10) 0.01107 321.3 7.0
313(9) 0.01193 321.4 6.9
330(10) 0.01045 321.4 6.8
321(10) 0.01078 321.4 6.7
332(10) 0.01038 321.4 6.6
338(10) 0.01037 321.4 6.5
300(9) 0.01226 321.4 6.4
354(10) 0.00969 321.4 6.3
347(10) 0.00962 321.4 6.2
331(10) 0.01032 321.4 6.1
333(10) 0.01100 321.4 6.0
305(9) 0.01212 321.5 5.9
308(9) 0.01141 321.5 5.8
304(10) 0.01060 321.5 5.7
326(10) 0.01071 321.5 5.6
309(9) 0.01190 321.5 5.5
337(10) 0.01107 321.5 5.4
313(9) 0.01131 321.5 5.3
339(10) 0.00948 321.6 5.3
339(10) 0.01025 321.6 5.2
323(9) 0.01146 321.6 5.1
322(9) 0.01154 321.6 5.1
305(9) 0.01129 321.6 5.0
316(10) 0.01024 321.6 5.0
318(9) 0.01114 321.7 4.9
330(10) 0.01106 321.7 4.9
315(9) 0.01169 321.7 4.9
323(10) 0.01069 321.7 4.8
322(10) 0.01029 321.7 4.8
312(9) 0.01112 321.7 4.8
319(9) 0.01178 321.7 4.8
332(10) 0.01041 321.8 4.8
333(10) 0.01013 321.8 4.8
329(10) 0.01010 321.8 4.8
325(10) 0.01060 321.8 4.8
329(9) 0.01123 321.8 4.8
321(9) 0.01132 321.8 4.8
322(10) 0.01044 321.9 4.9
310(10) 0.01083 321.9 4.9
314(10) 0.01059 321.9 4.9
341(10) 0.01095 321.9 5.0
312(9) 0.01151 321.9 5.0
318(10) 0.01043 321.9 5.1
319(10) 0.01065 321.9 5.2
329(10) 0.01074 322.0 5.3
327(9) 0.01133 322.0 5.4
322(10) 0.01103 322.0 5.5
316(9) 0.01140 322.0 5.6
329(10) 0.01069 322.0 5.7
324(9) 0.01121 322.0 5.9
315(9) 0.01170 322.1 6.0
316(10) 0.01051 322.1 6.2
321(10) 0.01050 322.1 6.4
327(10) 0.01097 322.1 6.6
344(10) 0.01050 322.1 6.8
332(9) 0.01124 322.1 7.1
362(10) 0.00932 322.2 7.4
336(10) 0.01018 322.2 7.7
341(10) 0.01023 322.2 8.0
321(9) 0.01154 322.2 8.3
336(10) 0.01106 322.2 8.7
355(10) 0.00947 322.2 9.1
346(10) 0.00939 322.2 9.6
358(10) 0.00945 322.3 10.1
338(10) 0.01069 322.3 10.7
350(10) 0.01043 322.3 11.4
321(9) 0.01119 322.3 12.1
316(10) 0.01028 322.3 13.0
344(10) 0.01017 322.3 14.0
342(10) 0.01097 322.4 15.2
343(10) 0.01078 322.4 16.6
348(10) 0.00998 322.4 18.4
345(10) 0.00957 322.4 20.7
395(11) 0.00875 322.4 24.1
359(10) 0.01044 322.4 29.0
376(10) 0.00975 322.4 36.1
389(10) 0.00922 322.5 46.2
367(11) 0.00905 322.5 60.0
356(10) 0.00971 322.5 77.5
435(11) 0.00862 322.5 97.9
447(11) 0.00812 322.5 119.5
445(11) 0.00773 322.5 139.1
499(12) 0.00648 322.6 153.6
469(12) 0.00753 322.6 162.6
464(11) 0.00803 322.6 169.6
487(12) 0.00744 322.6 178.9
483(12) 0.00714 322.6 193.2
489(12) 0.00689 322.6 211.7
525(12) 0.00653 322.6 231.1
530(12) 0.00698 322.7 245.3
485(12) 0.00730 322.7 248.9
493(12) 0.00676 322.7 242.0
479(12) 0.00702 322.7 228.6
489(12) 0.00705 322.7 214.2
494(11) 0.00758 322.7 202.4
493(12) 0.00717 322.8 194.9
473(12) 0.00729 322.8 191.5
509(12) 0.00667 322.8 190.9
515(12) 0.00688 322.8 190.6
518(12) 0.00713 322.8 188.3
508(12) 0.00682 322.8 182.4
519(12) 0.00658 322.8 172.4
487(12) 0.00738 322.9 159.3
480(12) 0.00747 322.9 144.1
437(11) 0.00854 322.9 128.4
429(11) 0.00813 322.9 112.9
419(11) 0.00777 322.9 98.3
388(11) 0.00896 322.9 85.0
395(10) 0.00912 323.0 73.3
360(10) 0.01030 323.0 63.2
376(10) 0.00908 323.0 54.5
363(11) 0.00901 323.0 47.1
349(10) 0.00975 323.0 41.0
344(10) 0.01058 323.0 35.8
319(9) 0.01172 323.0 31.6
335(10) 0.01064 323.1 28.1
356(10) 0.00964 323.1 25.2
353(10) 0.01026 323.1 22.9
347(10) 0.01051 323.1 20.9
354(10) 0.01035 323.1 19.3
361(10) 0.00982 323.1 18.0
364(11) 0.00903 323.2 16.8
366(10) 0.00961 323.2 15.9
348(10) 0.01075 323.2 15.1
338(10) 0.01072 323.2 14.3
354(10) 0.00987 323.2 13.7
362(10) 0.00907 323.2 13.1
368(10) 0.00945 323.3 12.6
354(10) 0.01055 323.3 12.2
335(10) 0.01073 323.3 11.8
339(10) 0.01048 323.3 11.4
352(10) 0.00921 323.3 11.1
327(10) 0.01050 323.3 10.8
356(10) 0.01027 323.3 10.5
346(10) 0.01081 323.4 10.2
342(10) 0.01043 323.4 10.0
355(10) 0.00915 323.4 9.8
356(10) 0.00931 323.4 9.6
343(10) 0.01072 323.4 9.4
328(10) 0.01101 323.4 9.2
319(10) 0.01100 323.5 9.2
324(10) 0.01069 323.5 9.0
344(10) 0.01007 323.5 8.9
325(9) 0.01130 323.5 8.8
349(10) 0.01034 323.5 8.7
358(10) 0.00966 323.5 8.6
333(10) 0.01033 323.5 8.5
339(10) 0.01035 323.6 8.4
330(9) 0.01129 323.6 8.3
337(10) 0.01031 323.6 8.3
334(10) 0.00995 323.6 8.3
340(10) 0.00988 323.6 8.3
353(10) 0.01005 323.6 8.4
349(10) 0.01064 323.7 8.5
313(10) 0.01059 323.7 8.7
305(10) 0.01068 323.7 8.9
336(10) 0.01006 323.7 9.3
338(10) 0.01059 323.7 9.9
352(10) 0.01055 323.7 10.6
338(10) 0.01025 323.7 11.5
343(10) 0.00979 323.8 12.5
350(10) 0.01008 323.8 13.8
345(10) 0.01033 323.8 15.2
348(10) 0.01067 323.8 16.7
354(10) 0.00999 323.8 18.2
324(10) 0.01002 323.8 19.6
329(10) 0.01066 323.9 20.6
367(10) 0.01028 323.9 21.1
336(10) 0.01083 323.9 20.9
340(10) 0.01043 323.9 20.2
319(10) 0.01007 323.9 18.9
330(10) 0.01047 323.9 17.3
343(10) 0.01089 323.9 15.7
353(10) 0.01030 324.0 14.0
348(10) 0.00968 324.0 12.5
346(10) 0.00917 324.0 11.2
348(10) 0.00991 324.0 10.0
347(10) 0.01076 324.0 9.1
310(9) 0.01197 324.0 8.3
338(10) 0.01049 324.1 7.7
332(10) 0.01033 324.1 7.2
349(10) 0.00948 324.1 6.8
319(9) 0.01178 324.1 6.5
331(10) 0.01060 324.1 6.3
354(10) 0.00956 324.1 6.1
324(10) 0.01085 324.1 5.9
353(10) 0.00978 324.2 5.8
338(10) 0.01086 324.2 5.7
318(9) 0.01149 324.2 5.6
341(10) 0.01003 324.2 5.6
339(10) 0.00991 324.2 5.5
335(10) 0.01071 324.2 5.5
373(10) 0.01003 324.3 5.4
345(10) 0.01019 324.3 5.4
322(10) 0.01092 324.3 5.5
328(10) 0.01002 324.3 5.4
322(10) 0.01075 324.3 5.4
327(9) 0.01133 324.3 5.4
328(10) 0.01098 324.3 5.5
349(10) 0.00961 324.4 5.5
339(10) 0.01023 324.4 5.5
334(10) 0.01098 324.4 5.5
338(10) 0.01078 324.4 5.5
350(10) 0.00950 324.4 5.6
342(10) 0.01003 324.5 5.6
328(10) 0.01073 324.5 5.7
340(10) 0.01041 324.6 5.7
334(9) 0.01117 324.6 5.8
338(10) 0.01041 324.6 5.8
328(10) 0.01028 324.7 5.9
318(9) 0.01143 324.7 6.0
336(10) 0.01087 324.8 6.1
334(10) 0.01092 324.8 6.2
333(10) 0.01077 324.9 6.3
330(10) 0.01015 324.9 6.4
321(10) 0.01060 324.9 6.5
320(9) 0.01144 325.0 6.6
327(9) 0.01126 325.0 6.7
334(10) 0.01029 325.1 6.9
318(10) 0.01032 325.1 7.0
332(10) 0.01020 325.2 7.2
319(9) 0.01149 325.2 7.4
336(10) 0.01090 325.2 7.6
346(10) 0.00998 325.3 7.8
347(10) 0.00953 325.3 8.0
330(10) 0.01039 325.4 8.2
327(9) 0.01132 325.4 8.4
336(10) 0.01102 325.5 8.7
319(10) 0.01084 325.5 9.0
336(10) 0.00990 325.6 9.3
354(10) 0.00999 325.6 9.6
357(10) 0.01042 325.6 9.9
350(10) 0.01014 325.7 10.3
329(10) 0.01068 325.7 10.6
346(10) 0.00954 325.8 11.0
333(10) 0.01041 325.8 11.4
324(9) 0.01154 325.9 11.9
332(10) 0.01092 325.9 12.3
347(10) 0.00970 325.9 12.8
340(10) 0.00967 326.0 13.3
311(9) 0.01119 326.0 13.8
325(9) 0.01140 326.1 14.3
369(10) 0.00962 326.1 14.9
349(10) 0.00964 326.2 15.5
355(10) 0.00956 326.2 16.1
367(10) 0.00955 326.3 16.8
355(10) 0.01052 326.3 17.6
340(10) 0.01066 326.3 18.3
362(10) 0.00949 326.4 19.2
362(10) 0.00952 326.4 20.2
355(10) 0.01012 326.5 21.4
350(10) 0.01062 326.5 22.7
371(10) 0.00936 326.6 24.2
350(10) 0.00970 326.6 26.1
366(10) 0.00954 326.6 28.4
387(10) 0.00926 326.7 31.5
346(10) 0.01073 326.7 35.9
390(11) 0.00885 326.8 42.2
396(11) 0.00839 326.8 51.3
410(11) 0.00842 326.9 64.6
421(11) 0.00849 326.9 83.1
431(11) 0.00871 326.9 107.9
469(12) 0.00731 327.0 138.9
491(12) 0.00667 327.0 175.2
492(12) 0.00707 327.1 213.4
544(12) 0.00672 327.1 248.0
600(13) 0.00618 327.2 271.1
611(13) 0.00567 327.2 275.5
547(13) 0.00595 327.3 259.9
524(12) 0.00663 327.3 230.5
510(12) 0.00723 327.3 195.5
449(11) 0.00813 327.4 161.2
416(11) 0.00858 327.4 131.6
391(11) 0.00884 327.5 108.4
395(11) 0.00880 327.5 91.9
421(11) 0.00876 327.6 81.5
398(10) 0.00923 327.6 76.1
416(11) 0.00824 327.6 74.5
399(11) 0.00819 327.7 75.8
390(11) 0.00875 327.7 79.3
399(10) 0.00910 327.8 84.5
421(11) 0.00848 327.8 91.1
423(11) 0.00830 327.9 98.8
468(12) 0.00728 327.9 107.5
473(12) 0.00723 327.9 116.7
433(11) 0.00852 328.0 125.9
467(12) 0.00752 328.0 134.6
446(12) 0.00749 328.1 141.9
481(12) 0.00709 328.1 146.9
462(11) 0.00770 328.2 148.9
445(11) 0.00834 328.2 147.5
455(11) 0.00776 328.3 142.8
455(12) 0.00748 328.3 135.4
433(11) 0.00801 328.3 126.0
453(12) 0.00744 328.4 115.7
411(11) 0.00902 328.4 105.2
400(11) 0.00877 328.5 94.8
415(11) 0.00813 328.5 85.2
412(11) 0.00828 328.6 76.4
373(10) 0.00967 328.6 68.6
395(10) 0.00943 328.6 61.8
409(11) 0.00861 328.7 56.0
384(11) 0.00887 328.7 51.3
368(10) 0.00924 328.8 47.4
388(10) 0.00949 328.8 44.3
380(10) 0.00955 328.9 41.9
363(10) 0.00957 328.9 40.2
373(11) 0.00902 328.9 39.0
376(11) 0.00874 329.0 38.4
345(10) 0.01062 329.0 38.3
387(10) 0.00952 329.1 38.9
368(10) 0.00948 329.1 40.3
380(11) 0.00868 329.2 42.7
355(10) 0.00996 329.2 46.2
375(10) 0.00921 329.3 51.1
387(10) 0.00964 329.3 57.5
379(10) 0.00928 329.3 65.4
377(11) 0.00861 329.4 74.5
386(11) 0.00888 329.4 84.3
384(10) 0.00980 329.5 93.5
410(11) 0.00891 329.5 100.6
421(11) 0.00829 329.6 103.9
386(11) 0.00841 329.6 102.4
373(10) 0.00973 329.6 96.7
390(10) 0.00931 329.7 88.5
370(10) 0.01001 329.7 79.5
389(11) 0.00833 329.8 70.9
402(11) 0.00785 329.8 63.5
349(10) 0.01037 329.9 57.5
381(10) 0.00972 329.9 53.2
394(10) 0.00921 329.9 50.3
390(11) 0.00887 330.0 48.7
363(10) 0.00918 330.0 48.2
373(10) 0.00959 330.1 48.7
406(10) 0.00915 330.1 49.8
386(10) 0.00953 330.2 51.6
421(11) 0.00817 330.2 53.9
402(11) 0.00814 330.3 56.7
394(11) 0.00863 330.3 59.7
417(11) 0.00883 330.3 62.9
422(11) 0.00857 330.4 66.1
408(11) 0.00826 330.4 69.0
416(11) 0.00779 330.5 71.3
434(11) 0.00813 330.5 72.7
403(10) 0.00922 330.6 72.9
438(11) 0.00817 330.6 72.0
393(11) 0.00866 330.6 70.0
408(11) 0.00810 330.7 67.3
389(10) 0.00910 330.7 64.2
374(10) 0.00992 330.8 60.9
369(10) 0.00958 330.8 57.6
398(11) 0.00817 330.9 54.6
393(11) 0.00852 330.9 51.7
401(11) 0.00883 331.0 49.1
362(10) 0.01018 331.0 46.8
399(11) 0.00885 331.0 44.8
372(10) 0.00913 331.1 42.9
397(11) 0.00849 331.1 41.3
391(10) 0.00929 331.2 39.8
362(10) 0.01033 331.2 38.5
340(10) 0.01040 331.3 37.3
361(10) 0.00924 331.3 36.1
359(10) 0.00989 331.3 35.0
361(10) 0.00979 331.4 34.0
370(10) 0.00997 331.4 33.0
358(10) 0.00981 331.5 32.0
365(11) 0.00899 331.5 31.0
384(11) 0.00864 331.6 30.0
346(10) 0.01075 331.6 29.1
384(10) 0.00975 331.6 28.2
350(10) 0.01012 331.7 27.3
353(11) 0.00889 331.7 26.4
384(11) 0.00879 331.8 25.5
336(9) 0.01118 331.8 24.7
357(10) 0.01024 331.9 23.9
357(10) 0.00985 331.9 23.1
344(10) 0.00943 332.0 22.3
359(10) 0.00952 332.0 21.5
339(10) 0.01094 332.0 20.8
352(10) 0.01030 332.1 20.1
351(10) 0.01004 332.1 19.4
373(11) 0.00873 332.2 18.7
336(10) 0.01047 332.2 18.1
374(10) 0.00993 332.3 17.4
355(10) 0.01031 332.3 16.8
375(10) 0.00937 332.3 16.3
375(11) 0.00886 332.4 15.7
376(10) 0.00935 332.4 15.2
367(10) 0.01015 332.5 14.7
370(10) 0.00982 332.5 14.2
350(10) 0.00991 332.6 13.7
346(10) 0.00987 332.6 13.3
350(10) 0.00982 332.6 12.9
348(10) 0.01071 332.7 12.5
374(10) 0.00941 332.7 12.1
341(10) 0.01031 332.8 11.7
345(10) 0.00954 332.8 11.4
336(10) 0.01071 332.9 11.1
343(10) 0.01079 332.9 10.8
355(10) 0.00986 333.0 10.5
325(10) 0.01013 333.0 10.2
360(10) 0.00925 333.0 10.0
346(10) 0.01000 333.1 9.7
328(9) 0.01113 333.1 9.5
339(10) 0.01023 333.2 9.3
342(10) 0.00980 333.2 9.1
347(10) 0.00985 333.3 8.9
341(10) 0.01084 333.3 8.7
350(10) 0.01055 333.3 8.5
363(10) 0.00941 333.4 8.4
378(11) 0.00880 333.4 8.2
364(10) 0.00938 333.5 8.1
347(10) 0.01059 333.5 8.0
349(10) 0.01075 333.6 7.9
376(10) 0.00920 333.6 7.8
324(10) 0.01023 333.6 7.7
340(10) 0.01006 333.7 7.6
350(10) 0.01052 333.7 7.5
346(10) 0.01069 333.8 7.4
353(10) 0.00997 333.8 7.4
346(10) 0.00947 333.9 7.3
322(10) 0.01084 333.9 7.2
343(10) 0.01076 334.0 7.2
366(10) 0.01019 334.0 7.1
350(10) 0.01027 334.0 7.1
345(10) 0.00914 334.1 7.1
337(10) 0.01032 334.1 7.0
328(9) 0.01120 334.2 7.0
358(10) 0.01019 334.2 7.0
333(10) 0.01049 334.3 7.0
345(10) 0.00954 334.3 7.0
343(10) 0.00989 334.3 7.0
340(10) 0.01089 334.4 7.0
367(10) 0.00990 334.4 7.0
344(10) 0.01012 334.5 7.0
320(10) 0.01027 334.5 7.0
340(10) 0.00999 334.5 7.0
339(10) 0.01090 334.5 7.0
346(10) 0.01034 334.5 7.1
348(10) 0.01006 334.5 7.1
332(10) 0.01020 334.5 7.1
356(10) 0.00990 334.5 7.2
333(10) 0.01107 334.6 7.2
357(10) 0.01003 334.6 7.3
370(10) 0.00920 334.6 7.3
346(10) 0.01007 334.6 7.4
373(10) 0.00957 334.6 7.5
361(10) 0.01023 334.6 7.5
355(10) 0.01008 334.6 7.6
363(10) 0.00938 334.7 7.7
347(10) 0.00961 334.7 7.8
357(10) 0.00963 334.7 7.9
354(10) 0.01059 334.7 8.1
354(10) 0.00973 334.7 8.2
358(10) 0.00931 334.7 8.3
340(10) 0.01016 334.7 8.5
338(10) 0.01071 334.7 8.7
337(10) 0.01099 334.8 8.8
360(10) 0.00967 334.8 9.0
362(11) 0.00885 334.8 9.2
314(10) 0.01086 334.8 9.5
331(10) 0.01056 334.8 9.7
325(9) 0.01145 334.8 10.0
370(11) 0.00892 334.8 10.3
347(10) 0.00939 334.8 10.6
350(10) 0.00969 334.9 11.0
337(10) 0.01095 334.9 11.4
358(10) 0.01040 334.9 11.9
342(10) 0.01002 334.9 12.4
331(10) 0.00989 334.9 12.9
331(10) 0.01043 334.9 13.5
347(10) 0.01029 334.9 14.2
335(9) 0.01111 335.0 15.0
343(10) 0.00967 335.0 15.8
366(11) 0.00848 335.0 16.7
377(11) 0.00905 335.0 17.6
340(10) 0.01099 335.0 18.7
351(10) 0.01036 335.0 19.9
335(10) 0.01024 335.0 21.1
347(10) 0.00951 335.0 22.4
350(10) 0.01028 335.1 23.7
350(10) 0.01068 335.1 25.2
355(10) 0.01044 335.1 26.6
381(11) 0.00900 335.1 28.1
372(11) 0.00868 335.1 29.6
375(10) 0.00915 335.1 31.0
376(10) 0.00987 335.1 32.3
379(10) 0.00951 335.2 33.6
380(10) 0.00919 335.2 34.8
360(10) 0.00928 335.2 35.8
355(10) 0.00939 335.2 36.8
393(10) 0.00937 335.2 37.7
399(11) 0.00894 335.2 38.6
373(10) 0.00913 335.2 39.5
404(11) 0.00811 335.2 40.4
380(10) 0.00925 335.3 41.4
325(9) 0.01135 335.3 42.5
342(10) 0.01019 335.3 43.6
391(11) 0.00875 335.3 44.9
383(11) 0.00903 335.3 46.2
386(10) 0.00938 335.3 47.6
386(10) 0.00969 335.3 49.1
390(11) 0.00881 335.4 50.6
407(11) 0.00813 335.4 52.1
392(11) 0.00875 335.4 53.7
369(10) 0.00969 335.4 55.3
388(10) 0.00958 335.4 56.9
392(11) 0.00875 335.4 58.4
396(11) 0.00858 335.4 59.9
392(11) 0.00891 335.4 61.3
407(11) 0.00883 335.5 62.6
395(10) 0.00948 335.5 63.8
398(11) 0.00855 335.5 64.8
401(11) 0.00833 335.5 65.7
412(11) 0.00840 335.5 66.4
394(10) 0.00946 335.5 67.0
411(11) 0.00902 335.5 67.4
408(11) 0.00859 335.6 67.6
373(11) 0.00860 335.6 67.6
422(11) 0.00806 335.6 67.6
393(10) 0.00943 335.6 67.5
440(11) 0.00830 335.6 67.2
419(11) 0.00826 335.6 66.8
393(11) 0.00820 335.6 66.5
401(11) 0.00856 335.6 66.1
389(10) 0.00936 335.7 65.7
407(10) 0.00907 335.7 65.4
385(10) 0.00932 335.7 65.2
387(11) 0.00860 335.7 65.1
417(11) 0.00803 335.7 65.1
391(10) 0.00951 335.7 65.3
422(11) 0.00861 335.7 65.6
398(11) 0.00849 335.8 66.1
390(11) 0.00845 335.8 66.8
398(11) 0.00865 335.8 67.6
403(10) 0.00919 335.8 68.7
400(11) 0.00888 335.8 70.0
436(11) 0.00785 335.8 71.4
381(11) 0.00882 335.8 73.0
386(11) 0.00894 335.8 74.8
419(11) 0.00890 335.9 76.7
416(11) 0.00848 335.9 78.7
428(11) 0.00789 335.9 80.8
401(11) 0.00847 335.9 83.0
386(10) 0.00931 335.9 85.2
417(11) 0.00888 335.9 87.3
407(11) 0.00882 335.9 89.5
456(12) 0.00746 336.0 91.5
425(11) 0.00809 336.0 93.3
430(11) 0.00819 336.0 94.9
409(11) 0.00898 336.0 96.2
401(11) 0.00885 336.0 97.1
431(11) 0.00773 336.0 97.6
417(11) 0.00817 336.0 97.5
399(10) 0.00908 336.0 97.0
397(10) 0.00932 336.1 95.9
422(11) 0.00779 336.1 94.3
384(11) 0.00844 336.1 92.2
391(11) 0.00848 336.1 89.7
371(10) 0.00995 336.1 86.9
403(10) 0.00922 336.1 83.7
380(10) 0.00920 336.1 80.3
359(10) 0.00945 336.2 76.8
390(11) 0.00869 336.2 73.2
394(10) 0.00933 336.2 69.5
362(10) 0.01024 336.2 66.0
389(11) 0.00889 336.2 62.5
400(11) 0.00799 336.2 59.4
386(10) 0.00912 336.2 57.1
401(10) 0.00923 336.2 57.0
399(10) 0.00927 336.3 61.4
400(11) 0.00851 336.3 72.6
433(12) 0.00729 336.3 90.4
441(11) 0.00761 336.3 108.8
381(10) 0.00976 336.3 117.6
404(11) 0.00907 336.3 109.4
412(11) 0.00842 336.3 88.1
379(11) 0.00877 336.4 64.3
379(10) 0.00910 336.4 45.7
372(10) 0.01002 336.4 34.4
372(10) 0.00988 336.4 28.4
345(10) 0.01009 336.4 25.3
358(11) 0.00880 336.4 23.4
347(10) 0.01012 336.4 21.9
364(10) 0.01013 336.4 20.7
365(10) 0.01004 336.5 19.6
347(10) 0.01009 336.5 18.7
350(10) 0.00932 336.5 17.8
363(10) 0.00942 336.5 17.0
359(10) 0.01033 336.5 16.4
346(10) 0.01057 336.5 15.8
366(10) 0.00952 336.5 15.3
368(10) 0.00918 336.6 14.8
358(10) 0.00953 336.6 14.4
359(10) 0.01025 336.6 14.0
376(10) 0.00970 336.6 13.7
332(10) 0.01036 336.6 13.4
337(10) 0.00954 336.6 13.2
337(10) 0.01034 336.6 13.0
346(10) 0.01070 336.6 12.9
339(10) 0.01055 336.7 12.7
366(10) 0.00916 336.7 12.7
375(11) 0.00859 336.7 12.6
366(10) 0.00952 336.7 12.6
365(10) 0.01029 336.7 12.6
366(10) 0.00940 336.7 12.7
357(10) 0.00960 336.7 12.8
359(10) 0.00964 336.8 13.0
340(10) 0.01091 336.8 13.2
357(10) 0.01038 336.8 13.5
370(11) 0.00903 336.8 13.9
360(11) 0.00906 336.8 14.4
345(10) 0.01037 336.8 14.9
381(10) 0.00953 336.8 15.7
371(10) 0.01005 336.8 16.7
371(10) 0.00949 336.9 18.2
366(10) 0.00933 336.9 20.2
407(11) 0.00824 336.9 23.3
391(10) 0.00942 336.9 28.2
395(10) 0.00945 336.9 35.7
448(11) 0.00777 336.9 46.8
447(12) 0.00746 336.9 62.2
478(12) 0.00728 337.0 82.0
488(12) 0.00745 337.0 105.3
569(12) 0.00650 337.0 129.5
637(13) 0.00550 337.0 149.8
596(14) 0.00527 337.0 160.5
536(13) 0.00638 337.0 157.1
500(12) 0.00743 337.0 141.4
497(12) 0.00750 337.0 118.8
464(12) 0.00735 337.1 95.1
421(11) 0.00765 337.1 73.6
400(11) 0.00874 337.1 56.4
382(10) 0.00974 337.1 43.5
418(11) 0.00856 337.1 34.7
365(10) 0.00976 337.1 29.1
374(11) 0.00881 337.1 25.6
370(10) 0.00918 337.1 23.5
361(10) 0.01023 337.2 22.4
401(11) 0.00892 337.2 21.7
391(11) 0.00869 337.2 21.5
399(11) 0.00855 337.2 21.4
359(10) 0.01006 337.2 21.6
364(10) 0.01015 337.2 22.0
341(10) 0.01035 337.2 22.5
371(10) 0.00924 337.3 23.1
353(10) 0.00971 337.3 23.9
342(10) 0.01018 337.3 24.9
363(10) 0.01018 337.3 26.0
355(10) 0.01006 337.3 27.2
401(11) 0.00869 337.3 28.5
364(10) 0.00982 337.3 30.0
386(10) 0.00918 337.3 31.5
374(10) 0.00998 337.4 33.0
377(10) 0.00951 337.4 34.5
417(11) 0.00787 337.4 36.0
400(11) 0.00842 337.4 37.3
409(11) 0.00890 337.4 38.3
391(10) 0.00953 337.4 39.1
376(11) 0.00870 337.4 39.6
383(11) 0.00844 337.5 39.6
387(11) 0.00869 337.5 39.3
384(10) 0.00951 337.5 38.7
386(10) 0.00968 337.5 37.8
411(11) 0.00843 337.5 36.7
399(11) 0.00844 337.5 35.5
387(11) 0.00894 337.5 34.3
393(10) 0.00931 337.5 33.1
377(10) 0.00980 337.6 31.9
374(10) 0.00942 337.6 30.8
346(10) 0.00959 337.6 29.8
357(10) 0.00966 337.6 29.0
367(10) 0.00992 337.6 28.4
402(10) 0.00927 337.6 27.9
363(10) 0.00970 337.6 27.6
353(10) 0.00924 337.7 27.4
364(10) 0.00953 337.7 27.5
396(10) 0.00940 337.7 27.7
356(10) 0.01046 337.7 28.2
377(10) 0.00919 337.7 28.9
378(11) 0.00874 337.7 29.8
367(10) 0.00943 337.7 31.1
368(10) 0.01008 337.7 32.9
408(11) 0.00891 337.8 35.2
406(11) 0.00870 337.8 38.2
391(11) 0.00855 337.8 42.2
410(11) 0.00831 337.8 47.4
379(10) 0.00977 337.8 54.2
444(11) 0.00830 337.8 62.8
441(11) 0.00770 337.8 73.3
461(12) 0.00730 337.9 85.8
466(12) 0.00750 337.9 100.3
505(12) 0.00732 337.9 116.2
501(12) 0.00706 337.9 132.7
514(12) 0.00675 337.9 148.2
504(12) 0.00678 337.9 160.6
515(12) 0.00692 337.9 167.7
521(12) 0.00714 337.9 167.8
526(12) 0.00670 338.0 160.7
514(12) 0.00665 338.0 148.1
462(11) 0.00758 338.0 132.4
460(11) 0.00774 338.0 115.5
464(11) 0.00802 338.0 99.1
433(11) 0.00782 338.0 84.1
401(11) 0.00876 338.0 71.0
452(12) 0.00750 338.1 60.0
415(11) 0.00868 338.1 50.9
390(10) 0.00951 338.1 43.7
360(10) 0.00950 338.1 38.0
385(11) 0.00860 338.1 33.6
384(11) 0.00885 338.1 30.2
364(10) 0.01007 338.1 27.5
380(10) 0.00966 338.1 25.4
392(11) 0.00879 338.2 23.7
391(11) 0.00859 338.2 22.4
371(10) 0.00982 338.2 21.2
349(10) 0.01058 338.2 20.3
365(10) 0.01024 338.2 19.5
384(11) 0.00892 338.2 18.8
367(11) 0.00895 338.2 18.3
363(10) 0.00960 338.3 17.8
352(10) 0.01052 338.3 17.4
370(10) 0.00998 338.3 17.0
344(10) 0.00997 338.3 16.7
362(11) 0.00879 338.3 16.4
380(11) 0.00896 338.3 16.1
378(10) 0.00985 338.3 15.7
380(10) 0.00966 338.3 15.3
376(10) 0.00908 338.4 14.8
379(11) 0.00830 338.4 14.3
351(10) 0.01007 338.4 13.7
361(10) 0.01031 338.4 13.0
323(9) 0.01131 338.4 12.4
347(10) 0.00995 338.4 11.8
352(10) 0.00923 338.4 11.2
349(10) 0.01019 338.5 10.6
329(9) 0.01138 338.5 10.1
355(10) 0.01010 338.5 9.6
369(11) 0.00897 338.5 9.2
354(10) 0.00933 338.5 8.8
364(10) 0.00955 338.5 8.5
329(9) 0.01124 338.5 8.2
351(10) 0.01006 338.5 7.9
339(10) 0.01014 338.6 7.7
354(10) 0.00985 338.6 7.5
351(10) 0.01006 338.6 7.3
366(10) 0.01015 338.6 7.2
364(10) 0.00965 338.6 7.1
348(10) 0.00988 338.6 7.0
347(10) 0.00980 338.6 6.9
343(10) 0.01061 338.7 6.9
334(10) 0.01106 338.7 6.8
343(10) 0.01033 338.7 6.8
350(10) 0.00948 338.7 6.8
338(10) 0.01023 338.7 6.8
364(10) 0.01001 338.7 6.8
338(10) 0.01091 338.7 6.9
337(10) 0.01027 338.7 6.9
376(11) 0.00862 338.8 7.0
339(10) 0.01047 338.8 7.1
345(10) 0.01058 338.8 7.2
331(9) 0.01130 338.8 7.3
355(10) 0.00975 338.8 7.5
338(10) 0.00986 338.8 7.7
347(10) 0.00991 338.8 7.9
329(10) 0.01068 338.9 8.1
350(10) 0.01058 338.9 8.4
349(10) 0.01009 338.9 8.7
328(10) 0.01004 338.9 9.0
360(10) 0.00959 338.9 9.4
350(10) 0.01044 338.9 9.9
358(10) 0.01023 338.9 10.4
351(10) 0.00974 338.9 11.0
361(11) 0.00893 339.0 11.7
373(10) 0.00944 339.0 12.5
368(10) 0.00994 339.0 13.5
352(10) 0.01048 339.0 14.6
356(10) 0.00991 339.0 16.1
368(11) 0.00857 339.0 18.0
353(10) 0.00980 339.0 20.4
389(10) 0.00963 339.1 23.7
373(10) 0.00991 339.1 28.1
376(10) 0.00950 339.1 33.9
392(11) 0.00851 339.1 41.5
401(11) 0.00853 339.1 51.4
393(10) 0.00944 339.1 63.8
424(11) 0.00848 339.1 78.9
417(11) 0.00842 339.1 96.5
448(12) 0.00737 339.2 116.3
475(12) 0.00740 339.2 137.2
472(11) 0.00791 339.2 157.3
496(12) 0.00733 339.2 174.1
503(12) 0.00681 339.2 184.4
541(13) 0.00627 339.2 185.9
519(12) 0.00681 339.2 178.2
474(11) 0.00786 339.3 163.2
451(11) 0.00778 339.3 143.8
451(12) 0.00731 339.3 123.1
431(11) 0.00776 339.3 102.9
397(11) 0.00895 339.3 84.6
385(10) 0.00968 339.3 68.8
387(11) 0.00902 339.3 55.7
412(11) 0.00812 339.3 45.2
375(10) 0.00920 339.4 37.0
356(10) 0.01018 339.4 30.9
400(10) 0.00933 339.4 26.3
372(10) 0.00940 339.4 23.0
382(11) 0.00859 339.4 20.6
389(11) 0.00814 339.4 18.8
349(10) 0.01019 339.4 17.6
329(9) 0.01123 339.4 16.8
386(11) 0.00899 339.5 16.2
389(11) 0.00866 339.5 15.9
361(10) 0.00974 339.5 15.8
332(10) 0.01105 339.5 15.9
350(10) 0.01052 339.5 16.1
363(10) 0.00929 339.5 16.5
352(10) 0.00935 339.5 17.1
382(10) 0.00908 339.6 17.8
380(10) 0.00960 339.6 18.6
357(10) 0.01036 339.6 19.5
367(10) 0.00969 339.6 20.4
365(11) 0.00878 339.6 21.4
355(10) 0.00940 339.6 22.5
349(10) 0.01053 339.6 23.5
359(10) 0.01034 339.6 24.3
342(10) 0.01033 339.7 25.1
369(11) 0.00859 339.7 25.6
381(11) 0.00904 339.7 25.8
391(10) 0.00943 339.7 25.7
372(10) 0.00987 339.7 25.4
326(10) 0.01103 339.7 24.7
354(10) 0.00931 339.7 23.8
339(10) 0.01039 339.8 22.6
358(10) 0.01059 339.8 21.4
375(10) 0.00955 339.8 20.1
331(10) 0.01074 339.8 18.7
363(11) 0.00885 339.8 17.4
349(10) 0.01009 339.8 16.0
357(10) 0.01022 339.8 14.8
350(10) 0.01064 339.8 13.6
351(10) 0.01016 339.9 12.6
349(10) 0.00986 339.9 11.6
347(10) 0.01031 339.9 10.7
337(10) 0.01101 339.9 9.8
364(10) 0.00980 339.9 9.1
339(10) 0.01043 339.9 8.5
349(10) 0.00964 339.9 7.9
365(10) 0.00971 340.0 7.4
322(9) 0.01159 340.0 7.0
349(10) 0.01010 340.0 6.6
357(10) 0.00986 340.0 6.3
348(10) 0.00998 340.0 6.0
355(10) 0.00955 340.0 5.8
340(10) 0.01091 340.0 5.6
344(10) 0.01043 340.0 5.4
349(10) 0.00952 340.1 5.2
352(10) 0.00995 340.1 5.1
363(10) 0.01018 340.1 4.9
364(10) 0.01007 340.1 4.8
358(10) 0.00957 340.1 4.7
336(10) 0.01000 340.1 4.7
335(10) 0.01049 340.1 4.6
372(10) 0.00975 340.2 4.5
352(10) 0.01044 340.2 4.5
338(10) 0.00999 340.2 4.4
362(11) 0.00904 340.2 4.4
355(10) 0.00931 340.2 4.3
333(10) 0.01085 340.2 4.3
373(10) 0.00994 340.2 4.3
378(10) 0.00910 340.2 4.2
362(11) 0.00874 340.3 4.2
374(10) 0.00915 340.3 4.2
344(10) 0.01069 340.3 4.2
359(10) 0.01031 340.3 4.2
328(10) 0.01083 340.3 4.2
348(10) 0.00932 340.3 4.1
372(10) 0.00926 340.3 4.1
354(10) 0.01048 340.4 4.1
340(10) 0.01090 340.4 4.1
358(10) 0.00949 340.4 4.1
378(11) 0.00824 340.4 4.2
369(11) 0.00890 340.4 4.2
351(10) 0.01054 340.4 4.2
365(10) 0.01008 340.4 4.2
325(10) 0.01105 340.5 4.2
351(11) 0.00897 340.5 4.2
366(10) 0.00927 340.6 4.3
362(10) 0.01012 340.6 4.3
358(10) 0.01025 340.7 4.3
352(10) 0.01002 340.7 4.4
371(11) 0.00897 340.8 4.4
348(10) 0.00977 340.8 4.4
365(10) 0.01024 340.9 4.5
348(10) 0.01054 340.9 4.5
372(10) 0.00910 341.0 4.6
351(10) 0.00967 341.0 4.6
352(10) 0.00993 341.1 4.7
351(10) 0.01063 341.1 4.8
310(9) 0.01136 341.2 4.8
333(10) 0.01001 341.2 4.9
344(10) 0.00952 341.3 5.0
352(10) 0.00981 341.3 5.1
336(10) 0.01106 341.4 5.2
381(10) 0.00908 341.4 5.3
351(10) 0.00988 341.5 5.4
348(10) 0.01008 341.5 5.5
333(10) 0.01102 341.6 5.6
342(10) 0.01087 341.6 5.7
357(10) 0.00945 341.7 5.9
369(11) 0.00863 341.7 6.0
335(10) 0.01018 341.8 6.2
335(10) 0.01077 341.8 6.4
357(10) 0.01036 341.9 6.6
384(10) 0.00920 341.9 6.8
374(11) 0.00887 342.0 7.0
358(10) 0.00946 342.0 7.3
352(10) 0.01050 342.1 7.5
356(10) 0.01047 342.1 7.8
330(10) 0.01033 342.2 8.1
332(10) 0.01005 342.2 8.4
372(10) 0.00957 342.3 8.8
361(10) 0.01023 342.3 9.1
349(10) 0.01053 342.4 9.5
364(10) 0.00954 342.4 9.9
376(11) 0.00828 342.5 10.3
340(10) 0.01037 342.5 10.8
375(10) 0.00979 342.6 11.2
345(10) 0.01078 342.6 11.7
372(10) 0.00912 342.7 12.2
370(11) 0.00848 342.7 12.7
372(10) 0.00944 342.8 13.2
365(10) 0.01010 342.8 13.7
376(10) 0.00962 342.9 14.2
377(10) 0.00908 342.9 14.7
361(10) 0.00949 343.0 15.2
376(10) 0.00913 343.0 15.7
353(10) 0.01045 343.1 16.2
363(10) 0.00983 343.1 16.6
349(10) 0.01026 343.2 17.1
375(11) 0.00903 343.2 17.5
383(11) 0.00900 343.3 17.9
371(10) 0.00998 343.3 18.3
353(10) 0.00987 343.4 18.8
363(10) 0.00958 343.4 19.2
378(11) 0.00896 343.5 19.7
379(10) 0.00924 343.5 20.2
361(10) 0.01027 343.6 20.7
378(10) 0.00940 343.6 21.3
377(10) 0.00908 343.7 21.9
371(10) 0.00926 343.8 22.7
362(10) 0.01005 343.8 23.4
386(10) 0.00962 343.9 24.2
366(10) 0.00950 343.9 25.1
363(10) 0.00914 344.0 26.1
376(10) 0.00909 344.0 27.1
367(10) 0.00936 344.1 28.2
358(10) 0.01039 344.1 29.3
381(11) 0.00895 344.2 30.5
366(11) 0.00904 344.2 31.8
377(11) 0.00895 344.3 33.1
341(10) 0.01070 344.3 34.5
373(10) 0.00991 344.4 36.0
371(10) 0.00974 344.4 37.5
378(10) 0.00916 344.5 39.0
355(10) 0.01018 344.5 40.5
410(11) 0.00872 344.6 42.0
400(10) 0.00918 344.6 43.6
380(10) 0.00934 344.7 45.1
374(11) 0.00894 344.7 46.5
393(11) 0.00861 344.8 48.0
399(10) 0.00911 344.8 49.3
390(10) 0.00940 344.9 50.5
408(11) 0.00848 344.9 51.7
395(11) 0.00828 345.0 52.7
378(10) 0.00923 345.0 53.6
386(10) 0.00957 345.1 54.3
417(11) 0.00879 345.1 54.9
399(11) 0.00854 345.2 55.3
398(11) 0.00801 345.2 55.7
404(11) 0.00863 345.3 55.9
400(10) 0.00918 345.3 56.0
398(10) 0.00930 345.4 56.0
378(10) 0.00929 345.4 56.1
371(11) 0.00905 345.5 56.1
384(11) 0.00877 345.5 56.1
382(10) 0.00964 345.6 56.2
396(10) 0.00928 345.6 56.4
413(11) 0.00837 345.7 56.6
405(11) 0.00832 345.7 57.0
391(11) 0.00877 345.8 57.6
392(10) 0.00939 345.8 58.2
402(11) 0.00905 345.9 59.0
408(11) 0.00842 345.9 59.8
403(11) 0.00833 346.0 60.7
448(11) 0.00763 346.0 61.5
436(11) 0.00847 346.1 62.2
411(11) 0.00882 346.1 62.7
435(11) 0.00785 346.2 62.9
410(11) 0.00824 346.2 62.8
408(11) 0.00832 346.3 62.2
451(11) 0.00817 346.3 61.3
400(11) 0.00887 346.4 60.2
399(11) 0.00845 346.4 58.8
415(11) 0.00829 346.5 57.5
417(11) 0.00865 346.5 56.1
410(11) 0.00906 346.6 54.8
418(11) 0.00836 346.6 53.5
391(11) 0.00880 346.7 51.9
399(11) 0.00844 346.7 50.1
403(11) 0.00885 346.8 47.9
393(10) 0.00946 346.8 45.5
404(11) 0.00827 346.9 43.2
400(11) 0.00839 346.9 41.1
407(11) 0.00844 347.0 39.3
398(11) 0.00904 347.0 37.8
390(10) 0.00942 347.1 36.7
394(11) 0.00852 347.1 35.8
410(11) 0.00801 347.2 35.2
383(10) 0.00925 347.2 34.8
393(10) 0.00930 347.3 34.6
385(10) 0.00973 347.3 34.5
383(10) 0.00910 347.4 34.6
390(11) 0.00804 347.4 34.7
368(10) 0.00957 347.5 34.9
390(10) 0.00941 347.5 35.2
406(11) 0.00904 347.6 35.6
399(11) 0.00848 347.6 36.0
411(11) 0.00770 347.7 36.4
369(10) 0.00976 347.7 36.9
415(11) 0.00900 347.8 37.5
401(10) 0.00934 347.8 38.0
389(11) 0.00891 347.9 38.6
385(11) 0.00836 347.9 39.1
422(11) 0.00786 348.0 39.7
375(10) 0.00984 348.0 40.2
378(10) 0.00964 348.1 40.8
391(11) 0.00874 348.1 41.3
440(12) 0.00721 348.2 41.7
406(11) 0.00866 348.2 42.1
426(11) 0.00880 348.3 42.5
412(11) 0.00868 348.3 42.8
392(11) 0.00895 348.4 43.0
405(11) 0.00840 348.5 43.1
394(11) 0.00874 348.5 43.1
390(10) 0.00952 348.6 43.1
403(11) 0.00862 348.6 43.0
408(11) 0.00859 348.7 42.7
392(11) 0.00869 348.7 42.4
400(11) 0.00885 348.8 42.1
416(11) 0.00897 348.8 41.6
398(11) 0.00886 348.9 41.1
389(11) 0.00838 348.9 40.5
386(11) 0.00862 349.0 39.8
394(11) 0.00898 349.0 39.1
383(10) 0.00972 349.1 38.3
375(10) 0.00970 349.1 37.6
404(11) 0.00843 349.2 36.7
370(10) 0.00951 349.2 35.9
403(10) 0.00908 349.3 35.1
373(10) 0.00996 349.3 34.2
393(11) 0.00865 349.4 33.4
386(11) 0.00863 349.4 32.5
400(11) 0.00877 349.5 31.7
383(10) 0.00957 349.5 30.9
413(11) 0.00907 349.6 30.0
402(11) 0.00854 349.6 29.2
366(10) 0.00922 349.7 28.5
378(11) 0.00894 349.7 27.7
381(10) 0.00934 349.8 27.0
375(10) 0.00995 349.8 26.3
372(10) 0.00947 349.9 25.6
369(10) 0.00915 349.9 24.9
368(10) 0.00960 350.0 24.3
377(10) 0.00952 350.0 23.6
377(10) 0.00996 350.1 23.1
381(10) 0.00915 350.1 22.5
378(11) 0.00837 350.2 22.0
370(10) 0.00949 350.2 21.5
393(10) 0.00928 350.3 21.0
370(10) 0.00996 350.3 20.5
356(10) 0.00984 350.4 20.1
396(11) 0.00821 350.4 19.7
398(11) 0.00864 350.5 19.3
347(10) 0.01066 350.5 19.0
388(10) 0.00945 350.6 18.6
362(10) 0.00941 350.6 18.3
336(10) 0.00963 350.7 18.1
337(10) 0.01048 350.7 17.8
374(10) 0.00977 350.8 17.6
384(10) 0.00954 350.8 17.4
365(10) 0.00960 350.9 17.2
374(11) 0.00887 350.9 17.1
370(11) 0.00890 351.0 17.0
341(10) 0.01093 351.0 16.9
368(10) 0.00976 351.1 16.8
351(10) 0.01000 351.1 16.8
365(10) 0.00932 351.2 16.7
388(11) 0.00898 351.2 16.7
371(10) 0.00996 351.3 16.7
371(10) 0.00973 351.3 16.7
400(11) 0.00869 351.4 16.8
393(11) 0.00886 351.4 16.8
394(11) 0.00885 351.5 16.8
377(10) 0.00987 351.5 16.9
374(10) 0.00931 351.6 16.9
382(11) 0.00875 351.6 17.0
340(10) 0.01037 351.7 17.0
349(10) 0.01027 351.7 17.0
368(10) 0.01013 351.8 17.0
354(10) 0.00980 351.8 17.0
376(10) 0.00911 351.9 17.0
392(11) 0.00872 351.9 17.0
373(10) 0.00967 352.0 17.0
372(10) 0.00992 352.0 17.0
350(10) 0.00971 352.1 17.0
360(10) 0.00919 352.1 17.1
400(11) 0.00875 352.2 17.3
395(11) 0.00900 352.2 17.7
349(10) 0.01059 352.3 18.2
370(10) 0.00928 352.3 18.9
366(10) 0.00917 352.4 19.9
372(10) 0.00934 352.4 21.1
359(10) 0.01020 352.5 22.7
383(10) 0.00977 352.5 24.6
375(10) 0.00953 352.6 26.8
403(11) 0.00804 352.6 29.3
397(11) 0.00872 352.7 32.1
372(10) 0.00987 352.7 35.0
417(11) 0.00879 352.8 37.9
417(11) 0.00809 352.8 40.5
359(11) 0.00891 352.9 42.5
378(10) 0.00922 352.9 43.7
431(11) 0.00849 353.0 43.8
408(11) 0.00900 353.1 42.8
369(10) 0.00949 353.1 40.8
371(11) 0.00876 353.2 38.1
373(10) 0.00919 353.2 35.0
415(11) 0.00897 353.3 31.8
379(10) 0.00982 353.3 28.6
383(11) 0.00900 353.4 25.6
369(10) 0.00918 353.4 22.8
376(10) 0.00917 353.5 20.4
363(10) 0.01020 353.5 18.3
390(11) 0.00894 353.6 16.6
364(10) 0.00971 353.6 15.1
390(11) 0.00815 353.7 13.9
351(10) 0.00997 353.7 12.9
375(10) 0.00995 353.8 12.2
380(10) 0.00934 353.8 11.6
361(10) 0.00970 353.9 11.1
342(10) 0.01043 353.9 10.8
373(10) 0.00932 354.0 10.6
377(10) 0.00990 354.0 10.4
344(10) 0.01009 354.1 10.3
381(11) 0.00857 354.1 10.2
372(10) 0.00929 354.2 10.3
389(10) 0.00918 354.2 10.3
363(10) 0.01016 354.3 10.4
351(10) 0.00974 354.3 10.5
382(11) 0.00896 354.4 10.7
360(10) 0.00977 354.4 11.0
381(10) 0.00930 354.5 11.3
387(10) 0.00975 354.5 11.6
383(11) 0.00872 354.6 12.1
380(11) 0.00844 354.6 12.6
360(10) 0.00935 354.7 13.2
369(10) 0.00957 354.7 14.0
371(10) 0.01012 354.8 15.0
404(11) 0.00846 354.8 16.2
405(11) 0.00796 354.9 17.8
382(11) 0.00900 354.9 19.6
389(10) 0.00932 355.0 22.0
403(10) 0.00917 355.0 24.9
403(11) 0.00814 355.1 28.4
398(11) 0.00812 355.1 32.7
403(11) 0.00876 355.2 37.7
423(11) 0.00860 355.2 43.6
414(10) 0.00908 355.3 50.4
422(11) 0.00845 355.3 58.0
405(11) 0.00819 355.4 66.3
437(11) 0.00772 355.4 75.0
422(11) 0.00889 355.5 83.8
438(11) 0.00840 355.5 92.2
466(11) 0.00760 355.6 99.5
474(12) 0.00693 355.6 104.8
480(12) 0.00732 355.7 107.5
489(12) 0.00755 355.7 107.1
468(11) 0.00790 355.8 103.7
495(12) 0.00692 355.8 97.9
476(12) 0.00681 355.9 90.4
415(11) 0.00844 355.9 81.9
408(11) 0.00905 356.0 73.2
431(11) 0.00832 356.0 64.6
454(12) 0.00752 356.1 56.6
438(11) 0.00757 356.1 49.4
417(11) 0.00817 356.2 42.9
390(10) 0.00959 356.2 37.4
387(10) 0.00936 356.3 32.6
381(11) 0.00900 356.3 28.7
400(11) 0.00859 356.4 25.5
380(10) 0.00943 356.4 22.8
395(10) 0.00941 356.5 20.7
366(10) 0.00972 356.5 19.1
384(11) 0.00894 356.6 17.7
378(11) 0.00901 356.6 16.7
365(10) 0.00965 356.7 15.9
378(10) 0.00985 356.7 15.2
377(10) 0.00941 356.8 14.7
383(11) 0.00881 356.8 14.3
355(10) 0.00972 356.9 14.0
380(10) 0.00959 356.9 13.7
377(10) 0.00980 357.0 13.5
360(10) 0.00993 357.0 13.4
375(10) 0.00918 357.1 13.2
399(11) 0.00867 357.1 13.2
372(10) 0.00957 357.2 13.1
354(10) 0.01052 357.2 13.1
367(10) 0.00957 357.3 13.1
386(11) 0.00875 357.3 13.1
366(10) 0.00959 357.4 13.2
384(10) 0.00941 357.4 13.2
350(10) 0.01049 357.5 13.3
376(10) 0.00936 357.5 13.4
359(10) 0.00908 357.6 13.5
372(10) 0.00932 357.6 13.6
351(10) 0.01073 357.7 13.8
372(10) 0.00990 357.8 13.9
357(10) 0.00983 357.8 14.0
342(10) 0.00928 357.9 14.2
353(10) 0.01006 357.9 14.4
358(10) 0.01032 358.0 14.5
374(10) 0.01000 358.0 14.7
366(10) 0.00948 358.1 14.9
368(11) 0.00879 358.1 15.0
377(10) 0.00916 358.2 15.2
372(10) 0.01005 358.2 15.4
383(10) 0.00975 358.3 15.6
378(10) 0.00909 358.3 15.8
323(10) 0.01041 358.4 15.9
358(10) 0.00924 358.4 16.1
322(9) 0.01146 358.5 16.3
366(10) 0.00994 358.5 16.4
353(10) 0.00980 358.5 16.6
358(10) 0.00953 358.5 16.7
386(11) 0.00897 358.5 16.9
388(10) 0.00962 358.5 17.0
379(10) 0.00965 358.5 17.2
390(11) 0.00893 358.5 17.3
362(10) 0.00939 358.5 17.4
353(10) 0.00977 358.5 17.5
357(10) 0.01039 358.5 17.6
389(10) 0.00928 358.5 17.7
371(10) 0.00945 358.5 17.8
362(10) 0.00930 358.5 17.9
379(10) 0.00923 358.5 17.9
374(10) 0.00984 358.5 18.0
380(11) 0.00888 358.5 18.0
378(11) 0.00882 358.5 18.1
389(11) 0.00861 358.5 18.1
374(10) 0.00954 358.5 18.1
352(10) 0.01048 358.5 18.2
376(10) 0.00926 358.5 18.2
377(11) 0.00879 358.5 18.2
387(11) 0.00888 358.5 18.2
394(10) 0.00917 358.5 18.2
380(10) 0.00979 358.5 18.2
385(11) 0.00892 358.5 18.1
370(11) 0.00897 358.5 18.1
364(10) 0.00947 358.5 18.1
363(10) 0.01029 358.5 18.0
350(10) 0.01064 358.5 18.0
359(10) 0.00914 358.5 17.9
323(10) 0.01028 358.5 17.9
375(11) 0.00896 358.5 17.8
385(10) 0.00928 358.5 17.7
360(10) 0.01044 358.6 17.7
376(10) 0.00917 358.6 17.6
392(11) 0.00808 358.6 17.5
374(10) 0.00931 358.6 17.4
349(10) 0.01063 358.6 17.4
357(10) 0.01028 358.6 17.3
357(10) 0.00996 358.6 17.2
368(11) 0.00866 358.6 17.1
345(10) 0.00987 358.6 17.0
362(10) 0.01023 358.6 16.9
341(10) 0.01086 358.6 16.8
382(10) 0.00914 358.6 16.7
352(10) 0.00927 358.6 16.6
332(10) 0.01035 358.6 16.6
386(10) 0.00961 358.6 16.5
371(10) 0.00952 358.6 16.4
370(10) 0.00934 358.6 16.3
373(10) 0.00913 358.6 16.2
372(10) 0.00933 358.6 16.2
363(10) 0.01015 358.6 16.1
368(10) 0.00982 358.6 16.1
405(11) 0.00871 358.6 16.0
379(11) 0.00895 358.6 16.0
382(10) 0.00940 358.6 15.9
384(10) 0.00963 358.6 15.9
378(10) 0.00957 358.6 15.9
348(10) 0.00973 358.6 15.8
356(10) 0.00954 358.6 15.8
371(10) 0.00952 358.6 15.8
347(10) 0.01067 358.6 15.8
368(10) 0.00977 358.6 15.8
366(10) 0.00919 358.6 15.9
364(10) 0.00940 358.6 15.9
367(10) 0.00963 358.6 15.9
382(10) 0.00980 358.7 16.0
369(10) 0.00924 358.7 16.0
360(10) 0.00915 358.7 16.0
384(11) 0.00858 358.7 16.1
376(10) 0.00963 358.7 16.2
368(10) 0.01002 358.7 16.2
386(11) 0.00893 358.7 16.3
360(10) 0.00948 358.7 16.4
371(10) 0.00911 358.7 16.5
367(10) 0.00994 358.7 16.5
395(10) 0.00942 358.7 16.6
371(10) 0.00911 358.7 16.7
363(11) 0.00879 358.7 16.8
365(10) 0.00936 358.7 16.8
382(10) 0.00958 358.7 16.9
350(10) 0.01080 358.7 17.0
372(10) 0.00926 358.7 17.0
409(12) 0.00747 358.7 17.1
365(10) 0.00939 358.7 17.1
370(10) 0.01004 358.7 17.1
374(10) 0.00981 358.7 17.1
394(11) 0.00838 358.7 17.1
377(11) 0.00856 358.7 17.1
351(10) 0.00980 358.7 17.1
352(10) 0.01053 358.7 17.0
335(10) 0.01100 358.7 17.0
349(10) 0.00987 358.7 16.9
383(11) 0.00845 358.7 16.8
405(11) 0.00855 358.7 16.7
366(10) 0.01019 358.7 16.5
344(10) 0.01027 358.7 16.4
363(10) 0.00984 358.7 16.2
390(11) 0.00851 358.7 16.0
379(11) 0.00899 358.7 15.8
367(10) 0.00999 358.7 15.6
349(10) 0.01024 358.8 15.4
353(10) 0.00971 358.8 15.2
365(10) 0.00934 358.8 15.0
355(10) 0.00970 358.8 14.7
342(10) 0.01082 358.8 14.5
332(10) 0.01087 358.8 14.3
361(10) 0.00927 358.8 14.0
363(10) 0.00923 358.8 13.8
374(10) 0.00961 358.8 13.6
409(11) 0.00905 358.8 13.4
402(11) 0.00879 358.8 13.3
368(10) 0.00940 358.8 13.1
359(10) 0.00950 358.8 13.0
342(10) 0.01012 358.8 12.9
385(10) 0.00967 358.8 12.8
386(11) 0.00903 358.8 12.9
372(11) 0.00899 358.8 13.0
388(11) 0.00877 358.8 13.3
381(10) 0.00932 358.8 13.8
353(10) 0.01050 358.8 14.7
352(10) 0.00999 358.8 16.1
397(11) 0.00825 358.8 18.3
388(11) 0.00892 358.8 21.3
398(10) 0.00924 358.8 25.3
383(10) 0.00969 358.8 30.1
398(11) 0.00850 358.8 35.5
408(11) 0.00821 358.8 40.7
417(11) 0.00818 358.8 44.8
428(11) 0.00859 358.8 46.5
395(10) 0.00935 358.8 45.1
420(11) 0.00820 358.8 41.2
379(11) 0.00873 358.8 35.9
385(10) 0.00911 358.8 30.3
398(10) 0.00921 358.8 25.1
402(10) 0.00930 358.9 20.8
400(11) 0.00886 358.9 17.4
397(11) 0.00829 358.9 15.0
378(11) 0.00892 358.9 13.2
398(10) 0.00934 358.9 12.1
360(10) 0.01004 358.9 11.3
380(10) 0.00911 358.9 10.9
385(11) 0.00844 358.9 10.6
393(11) 0.00871 358.9 10.4
376(10) 0.00989 358.9 10.3
360(10) 0.01008 358.9 10.2
356(10) 0.00986 358.9 10.2
356(10) 0.00960 358.9 10.3
366(10) 0.00946 358.9 10.3
399(10) 0.00933 358.9 10.4
358(10) 0.01014 358.9 10.6
356(10) 0.00962 358.9 10.7
363(11) 0.00902 358.9 10.9
360(10) 0.00951 358.9 11.1
376(10) 0.00985 358.9 11.3
353(10) 0.01033 358.9 11.5
380(11) 0.00904 358.9 11.8
393(11) 0.00851 358.9 12.0
371(10) 0.00950 358.9 12.3
375(10) 0.00992 358.9 12.6
377(10) 0.00958 358.9 12.9
341(10) 0.01026 358.9 13.2
390(11) 0.00862 358.9 13.5
365(10) 0.01000 358.9 13.8
385(10) 0.00963 358.9 14.1
350(10) 0.01008 358.9 14.5
360(10) 0.00939 358.9 14.8
365(10) 0.00946 358.9 15.1
370(10) 0.00991 358.9 15.4
381(10) 0.00974 359.0 15.7
367(10) 0.00937 359.0 16.0
394(11) 0.00838 359.0 16.3
372(10) 0.00958 359.0 16.5
373(10) 0.00992 359.0 16.8
391(10) 0.00949 359.0 17.0
376(10) 0.00926 359.0 17.2
387(11) 0.00818 359.0 17.4
367(10) 0.00956 359.0 17.6
361(10) 0.01016 359.0 17.7
351(10) 0.01037 359.0 17.9
372(10) 0.00951 359.0 18.0
370(11) 0.00865 359.0 18.1
369(10) 0.00951 359.0 18.2
380(10) 0.00972 359.0 18.3
373(10) 0.00989 359.0 18.4
354(10) 0.00994 359.0 18.5
389(11) 0.00853 359.0 18.6
376(10) 0.00964 359.0 18.7
374(10) 0.00990 359.0 18.7
361(10) 0.01021 359.0 18.8
378(11) 0.00901 359.0 18.9
346(10) 0.00912 359.0 19.0
382(11) 0.00837 359.0 19.0
384(10) 0.00960 359.0 19.1
381(10) 0.00969 359.0 19.1
393(11) 0.00851 359.0 19.2
359(10) 0.00931 359.0 19.2
382(11) 0.00878 359.0 19.2
398(10) 0.00932 359.0 19.1
364(10) 0.00989 359.0 19.1
335(10) 0.01044 359.0 19.0
364(11) 0.00903 359.0 18.9
381(11) 0.00881 359.0 18.8
383(10) 0.00968 359.0 18.7
359(10) 0.01007 359.1 18.5
336(10) 0.01005 359.1 18.4
376(11) 0.00877 359.1 18.2
342(10) 0.01032 359.1 18.1
356(10) 0.01036 359.1 18.1
384(10) 0.00932 359.1 18.1
360(10) 0.00970 359.1 18.2
382(11) 0.00870 359.1 18.4
370(10) 0.00950 359.1 18.7
365(10) 0.01017 359.1 19.4
372(10) 0.00930 359.1 20.3
380(11) 0.00874 359.1 21.7
370(10) 0.00930 359.1 23.6
367(10) 0.00987 359.1 26.3
402(10) 0.00921 359.1 29.8
372(10) 0.00939 359.1 34.3
363(10) 0.00929 359.1 39.9
394(11) 0.00850 359.1 46.6
397(10) 0.00911 359.1 54.2
380(10) 0.00986 359.1 62.4
390(11) 0.00890 359.1 70.6
432(11) 0.00768 359.1 77.9
448(11) 0.00790 359.1 83.0
423(11) 0.00876 359.1 85.0
409(10) 0.00916 359.1 83.3
397(11) 0.00873 359.1 78.4
384(11) 0.00851 359.1 71.3
379(11) 0.00892 359.1 63.3
398(10) 0.00926 359.1 55.2
398(10) 0.00922 359.1 47.7
419(11) 0.00795 359.1 41.1
404(11) 0.00781 359.1 35.6
378(10) 0.00942 359.1 31.3
375(10) 0.00987 359.1 28.1
379(10) 0.00975 359.2 25.8
377(10) 0.00931 359.2 24.4
401(11) 0.00804 359.2 23.7
377(10) 0.00919 359.2 23.6
405(10) 0.00908 359.2 24.1
381(10) 0.00946 359.2 25.1
385(11) 0.00874 359.2 26.5
382(11) 0.00837 359.2 28.3
373(10) 0.00927 359.2 30.5
385(10) 0.00951 359.2 33.1
395(11) 0.00907 359.2 35.9
418(11) 0.00826 359.2 38.9
421(11) 0.00793 359.2 42.0
418(11) 0.00816 359.2 45.0
399(10) 0.00940 359.2 47.7
380(10) 0.00941 359.2 49.9
431(11) 0.00791 359.2 51.3
410(11) 0.00828 359.2 51.8
422(11) 0.00836 359.2 51.6
424(11) 0.00870 359.2 50.6
397(10) 0.00916 359.2 49.1
401(11) 0.00860 359.2 47.4
389(11) 0.00874 359.2 45.6
388(10) 0.00911 359.2 44.0
401(10) 0.00936 359.2 42.5
397(11) 0.00893 359.2 41.3
374(10) 0.00913 359.2 40.3
400(11) 0.00833 359.2 39.7
372(10) 0.00949 359.2 39.3
403(10) 0.00919 359.2 39.1
403(11) 0.00852 359.2 39.1
415(11) 0.00807 359.2 39.3
389(11) 0.00901 359.2 39.5
387(10) 0.00921 359.2 39.7
391(10) 0.00955 359.2 39.8
362(10) 0.00960 359.3 39.9
405(11) 0.00817 359.3 39.8
371(10) 0.00951 359.3 39.5
395(10) 0.00913 359.3 39.0
407(11) 0.00885 359.3 38.3
378(11) 0.00873 359.3 37.4
364(11) 0.00888 359.3 36.3
409(11) 0.00821 359.3 35.1
381(10) 0.00980 359.3 33.7
388(10) 0.00943 359.3 32.3
376(10) 0.00912 359.3 30.8
364(11) 0.00904 359.3 29.3
372(10) 0.00966 359.3 27.8
404(11) 0.00900 359.3 26.3
344(10) 0.01076 359.3 24.8
387(11) 0.00879 359.3 23.3
364(11) 0.00894 359.3 22.0
343(10) 0.01011 359.3 20.7
372(10) 0.00998 359.3 19.4
377(10) 0.00988 359.3 18.2
390(11) 0.00870 359.3 17.1
386(11) 0.00842 359.3 16.1
343(10) 0.01015 359.3 15.2
376(10) 0.00982 359.3 14.3
361(10) 0.01023 359.3 13.5
355(10) 0.00958 359.3 12.8
364(11) 0.00906 359.3 12.1
366(10) 0.00937 359.3 11.5
332(9) 0.01132 359.3 10.9
353(10) 0.01008 359.3 10.5
330(10) 0.01067 359.3 10.0
360(10) 0.00942 359.3 9.6
367(10) 0.00960 359.3 9.3
370(10) 0.01003 359.3 9.0
350(10) 0.01026 359.4 8.8
347(10) 0.00980 359.4 8.5
355(10) 0.00919 359.4 8.3
369(10) 0.00965 359.4 8.2
356(10) 0.01039 359.4 8.0
348(10) 0.01029 359.4 7.9
360(10) 0.00932 359.4 7.8
343(10) 0.01019 359.4 7.7
343(10) 0.01046 359.4 7.6
367(10) 0.00986 359.4 7.6
348(10) 0.00958 359.4 7.6
332(10) 0.01022 359.4 7.6
366(11) 0.00904 359.4 7.6
352(10) 0.01036 359.4 7.6
359(10) 0.01031 359.4 7.9
350(10) 0.00936 359.4 8.0
369(11) 0.00901 359.4 8.1
349(10) 0.00995 359.4 8.2
362(10) 0.01005 359.4 8.3
385(10) 0.00962 359.4 8.4
364(10) 0.00977 359.4 8.6
347(10) 0.00973 359.4 8.7
388(11) 0.00895 359.4 8.9
380(10) 0.00975 359.4 9.1
376(10) 0.00980 359.4 9.3
349(10) 0.00995 359.4 9.5
363(11) 0.00877 359.4 9.8
376(10) 0.00925 359.4 10.0
348(10) 0.01068 359.4 10.3
356(10) 0.01053 359.4 10.5
369(10) 0.00928 359.4 10.8
335(10) 0.00959 359.4 11.1
352(10) 0.00963 359.4 11.4
339(10) 0.01080 359.4 11.7
356(10) 0.01039 359.4 11.9
361(10) 0.00991 359.4 12.2
378(11) 0.00855 359.4 12.5
357(10) 0.00979 359.4 12.8
383(10) 0.00950 359.3 13.0
355(10) 0.01034 359.3 13.2
344(10) 0.01026 359.3 13.5
385(11) 0.00838 359.2 13.6
353(10) 0.00985 359.2 13.8
374(10) 0.00986 359.2 13.9
366(10) 0.00977 359.1 14.0
362(10) 0.00931 359.1 14.0
355(10) 0.00959 359.1 14.0
327(10) 0.01079 359.0 14.0
374(10) 0.01000 359.0 13.9
345(10) 0.01024 359.0 13.8
346(10) 0.00970 358.9 13.7
369(11) 0.00903 358.9 13.6
372(10) 0.00957 358.9 13.4
367(10) 0.01012 358.8 13.2
365(10) 0.00951 358.8 13.1
349(10) 0.01011 358.8 12.9
365(10) 0.00960 358.7 12.7
385(11) 0.00893 358.7 12.5
357(10) 0.01029 358.7 12.3
369(10) 0.00966 358.6 12.1
381(11) 0.00874 358.6 12.0
376(10) 0.00915 358.6 11.8
376(10) 0.00961 358.5 11.7
344(10) 0.01071 358.5 11.6
353(10) 0.00943 358.5 11.5
365(10) 0.00909 358.5 11.5
365(10) 0.00928 358.4 11.4
358(10) 0.01010 358.4 11.4
367(10) 0.01015 358.4 11.5
342(10) 0.01027 358.3 11.5
356(11) 0.00907 358.3 11.7
364(10) 0.00938 358.3 11.8
405(11) 0.00895 358.2 12.1
358(10) 0.01032 358.2 12.4
379(10) 0.00925 358.2 12.8
365(10) 0.00908 358.1 13.3
375(10) 0.00950 358.1 14.0
391(10) 0.00931 358.1 14.7
367(10) 0.01036 358.0 15.7
372(10) 0.00944 358.0 16.8
394(11) 0.00795 358.0 18.1
414(11) 0.00835 357.9 19.8
400(10) 0.00913 357.9 21.7
370(10) 0.00984 357.9 23.9
365(10) 0.00941 357.8 26.6
407(11) 0.00777 357.8 29.7
411(11) 0.00839 357.8 33.4
367(10) 0.01006 357.7 37.7
411(11) 0.00881 357.7 42.7
450(11) 0.00764 357.7 48.9
413(11) 0.00817 357.6 57.3
423(11) 0.00814 357.6 69.1
447(11) 0.00829 357.6 86.7
483(12) 0.00735 357.5 112.4
540(13) 0.00635 357.5 148.0
564(13) 0.00607 357.5 193.2
645(14) 0.00528 357.4 244.1
676(13) 0.00549 357.4 292.7
679(14) 0.00525 357.4 325.8
666(14) 0.00513 357.3 330.9
626(14) 0.00534 357.3 305.1
559(13) 0.00638 357.3 258.6
510(12) 0.00728 357.3 204.9
492(12) 0.00708 357.2 154.4
472(12) 0.00722 357.2 112.5
446(11) 0.00770 357.2 80.9
422(11) 0.00839 357.1 59.2
430(11) 0.00861 357.1 45.1
390(10) 0.00911 357.1 36.5
415(11) 0.00802 357.0 31.3
402(11) 0.00852 357.0 28.1
376(10) 0.00971 357.0 26.1
393(10) 0.00936 356.9 24.8
417(11) 0.00807 356.9 24.0
424(11) 0.00758 356.9 23.4
369(10) 0.00915 356.8 23.1
345(10) 0.01043 356.8 23.0
372(10) 0.00976 356.8 23.0
407(11) 0.00832 356.7 23.2
364(11) 0.00906 356.7 23.5
384(11) 0.00882 356.7 23.9
365(10) 0.00999 356.6 24.4
347(10) 0.01070 356.6 25.0
399(11) 0.00876 356.6 25.7
388(11) 0.00852 356.5 26.5
381(11) 0.00883 356.5 27.3
376(10) 0.00967 356.5 28.3
391(10) 0.00938 356.4 29.3
393(11) 0.00830 356.4 30.3
397(11) 0.00805 356.4 31.4
387(11) 0.00899 356.3 32.6
424(11) 0.00873 356.3 33.9
392(10) 0.00951 356.3 35.1
371(10) 0.00914 356.2 36.4
393(11) 0.00832 356.2 37.8
415(11) 0.00824 356.2 39.2
391(10) 0.00950 356.2 40.6
384(10) 0.00953 356.1 42.0
390(10) 0.00941 356.1 43.4
423(11) 0.00784 356.1 44.8
410(11) 0.00856 356.0 46.2
374(10) 0.01007 356.0 47.5
403(10) 0.00908 356.0 48.8
367(10) 0.00941 355.9 50.1
380(11) 0.00861 355.9 51.2
412(11) 0.00826 355.9 52.3
409(10) 0.00910 355.8 53.4
407(11) 0.00875 355.8 54.3
373(10) 0.00934 355.8 55.2
425(11) 0.00794 355.7 55.9
414(11) 0.00845 355.7 56.7
412(11) 0.00907 355.7 57.3
411(11) 0.00858 355.6 58.0
427(11) 0.00792 355.6 58.6
387(10) 0.00913 355.6 59.2
423(11) 0.00826 355.5 59.9
385(10) 0.00963 355.5 60.8
398(11) 0.00888 355.5 61.7
439(11) 0.00776 355.4 62.9
426(11) 0.00823 355.4 64.3
428(11) 0.00835 355.4 65.9
449(11) 0.00824 355.3 67.9
430(11) 0.00818 355.3 70.2
433(11) 0.00781 355.3 73.0
447(11) 0.00766 355.2 76.1
440(11) 0.00839 355.2 79.7
454(11) 0.00809 355.2 83.7
472(12) 0.00737 355.1 88.1
474(12) 0.00712 355.1 92.8
478(12) 0.00734 355.1 97.9
488(11) 0.00758 355.0 103.1
485(11) 0.00769 355.0 108.4
493(12) 0.00688 355.0 113.5
487(12) 0.00662 355.0 118.2
484(12) 0.00716 354.9 122.2
508(12) 0.00731 354.9 125.2
488(11) 0.00758 354.9 127.0
498(12) 0.00698 354.8 127.3
497(13) 0.00630 354.8 126.2
494(12) 0.00682 354.8 123.6
466(11) 0.00807 354.7 119.8
466(11) 0.00802 354.7 115.0
472(12) 0.00732 354.7 109.5
446(12) 0.00713 354.6 103.5
433(11) 0.00815 354.6 97.4
479(11) 0.00777 354.6 91.3
447(11) 0.00828 354.5 85.4
464(12) 0.00752 354.5 79.7
465(12) 0.00723 354.5 74.4
451(11) 0.00766 354.4 69.4
446(11) 0.00837 354.4 64.9
424(11) 0.00853 354.4 60.7
425(11) 0.00780 354.3 57.0
385(11) 0.00855 354.3 53.6
433(11) 0.00787 354.3 50.7
419(11) 0.00887 354.2 48.0
399(11) 0.00874 354.2 45.7
401(11) 0.00866 354.2 43.6
396(11) 0.00845 354.1 41.8
406(11) 0.00815 354.1 40.2
362(10) 0.01036 354.1 38.8
390(10) 0.00937 354.0 37.5
408(11) 0.00839 354.0 36.4
385(11) 0.00888 354.0 35.4
431(11) 0.00813 353.9 34.6
402(10) 0.00919 353.9 33.8
392(11) 0.00862 353.9 33.2
395(11) 0.00868 353.9 32.6
384(11) 0.00900 353.8 32.1
381(10) 0.00938 353.8 31.8
391(10) 0.00955 353.8 31.5
406(11) 0.00861 353.7 31.3
385(11) 0.00906 353.7 31.2
394(11) 0.00888 353.7 31.3
388(10) 0.00931 353.6 31.5
411(11) 0.00896 353.6 31.9
384(11) 0.00901 353.6 32.5
412(11) 0.00807 353.5 33.4
398(11) 0.00894 353.5 34.7
419(11) 0.00842 353.5 36.2
379(10) 0.00983 353.4 38.3
382(10) 0.00913 353.4 40.9
409(11) 0.00819 353.4 44.1
430(11) 0.00808 353.3 48.0
426(11) 0.00871 353.3 52.6
439(11) 0.00849 353.3 58.1
477(12) 0.00702 353.2 64.4
423(11) 0.00791 353.2 71.6
461(12) 0.00732 353.2 79.6
447(11) 0.00827 353.1 88.4
475(11) 0.00779 353.1 97.8
479(12) 0.00749 353.1 107.6
520(13) 0.00607 353.0 117.3
505(12) 0.00682 353.0 126.5
516(12) 0.00726 353.0 134.7
515(12) 0.00715 352.9 141.1
521(12) 0.00676 352.9 145.1
534(13) 0.00613 352.9 146.4
522(12) 0.00673 352.8 144.7
558(12) 0.00668 352.8 140.3
562(12) 0.00646 352.8 133.6
528(12) 0.00643 352.7 125.1
487(12) 0.00661 352.7 115.4
490(12) 0.00699 352.7 105.2
471(11) 0.00792 352.7 94.9
503(12) 0.00715 352.6 84.8
427(11) 0.00821 352.6 75.4
442(12) 0.00750 352.6 66.7
419(11) 0.00840 352.5 58.8
403(10) 0.00914 352.5 51.7
403(11) 0.00887 352.5 45.5
399(11) 0.00841 352.4 40.1
387(11) 0.00857 352.4 35.5
403(11) 0.00867 352.4 31.6
374(10) 0.00989 352.3 28.3
388(10) 0.00911 352.3 25.5
366(10) 0.00928 352.3 23.1
373(10) 0.00932 352.2 21.1
383(10) 0.00937 352.2 19.5
340(10) 0.01096 352.2 18.1
344(10) 0.00981 352.1 16.9
360(10) 0.00921 352.1 15.9
365(10) 0.00948 352.1 15.0
372(10) 0.00963 352.0 14.3
364(10) 0.01029 352.0 13.6
358(10) 0.00932 352.0 13.1
360(10) 0.00963 351.9 12.6
359(10) 0.00991 351.9 12.1
362(10) 0.01022 351.9 11.7
395(10) 0.00939 351.8 11.4
347(10) 0.01018 351.8 11.1
363(11) 0.00894 351.8 10.8
353(10) 0.00995 351.7 10.6
356(10) 0.00998 351.7 10.5
380(10) 0.00970 351.7 10.3
354(10) 0.00962 351.6 10.2
373(11) 0.00856 351.6 10.1
352(10) 0.00993 351.6 10.1
362(10) 0.01012 351.6 10.0
362(10) 0.01005 351.5 10.0
359(10) 0.00938 351.5 10.0
364(11) 0.00860 351.5 10.1
339(10) 0.01048 351.4 10.1
386(10) 0.00945 351.4 10.2
369(10) 0.01005 351.4 10.2
371(10) 0.00913 351.3 10.3
377(11) 0.00860 351.3 10.3
359(10) 0.00981 351.3 10.4
352(10) 0.01052 351.2 10.4
351(10) 0.01041 351.2 10.4
376(10) 0.00928 351.2 10.3
369(11) 0.00904 351.1 10.2
356(10) 0.00969 351.1 10.2
345(10) 0.01085 351.1 10.0
353(10) 0.01050 351.0 9.9
341(10) 0.00989 351.0 9.7
344(10) 0.00976 351.0 9.6
339(10) 0.01022 350.9 9.4
371(10) 0.00999 350.9 9.2
367(10) 0.01000 350.9 9.0
361(10) 0.00927 350.8 8.9
344(10) 0.00970 350.8 8.7
364(10) 0.00908 350.8 8.5
346(10) 0.01082 350.7 8.3
375(10) 0.00915 350.7 8.2
379(11) 0.00907 350.7 8.0
362(10) 0.00935 350.6 7.8
337(10) 0.01023 350.6 7.6
337(9) 0.01109 350.6 7.5
356(10) 0.00971 350.5 7.3
344(10) 0.00981 350.5 7.1
384(11) 0.00870 350.5 6.9
356(10) 0.01018 350.4 6.7
362(10) 0.01024 350.4 6.6
347(10) 0.00985 350.4 6.4
369(11) 0.00897 350.4 6.2
385(11) 0.00880 350.3 6.0
349(10) 0.01043 350.3 5.8
346(10) 0.01079 350.3 5.6
360(10) 0.00989 350.2 5.5
335(10) 0.00992 350.2 5.3
337(10) 0.00988 350.2 5.1
346(10) 0.01041 350.1 5.0
346(10) 0.01084 350.1 4.8
357(10) 0.00939 350.1 4.7
372(11) 0.00873 350.0 4.6
364(10) 0.00979 350.0 4.5
349(10) 0.01063 350.0 4.4
361(10) 0.01030 349.9 4.3
361(10) 0.00964 349.9 4.2
329(10) 0.01011 349.9 4.1
352(10) 0.00956 349.8 4.0
369(10) 0.01001 349.8 3.9
342(10) 0.01078 349.8 3.9
349(10) 0.00981 349.7 3.8
363(11) 0.00872 349.7 3.8
347(10) 0.01026 349.7 3.7
359(10) 0.01043 349.6 3.7
341(10) 0.01094 349.6 3.6
366(10) 0.00990 349.6 3.6
368(11) 0.00885 349.5 3.5
345(10) 0.01034 349.5 3.5
376(10) 0.00979 349.5 3.5
358(10) 0.01036 349.4 3.4
339(10) 0.01025 349.4 3.4
362(10) 0.00920 349.4 3.4
358(10) 0.00955 349.4 3.4
340(10) 0.01091 349.4 3.4
357(10) 0.00991 349.4 3.3
366(11) 0.00904 349.4 3.3
347(10) 0.00969 349.4 3.3
369(10) 0.00959 349.4 3.3
363(10) 0.01026 349.4 3.3
337(10) 0.01055 349.4 3.3
339(10) 0.01030 349.4 3.3
359(10) 0.00958 349.4 3.3
345(10) 0.01064 349.4 3.2
332(9) 0.01110 349.4 3.2
347(10) 0.01011 349.4 3.2
338(10) 0.00991 349.4 3.2
332(10) 0.01084 349.4 3.2
346(10) 0.01033 349.4 3.2
352(10) 0.01044 349.4 3.2
353(10) 0.00953 349.4 3.2
364(11) 0.00900 349.4 3.2
353(10) 0.00965 349.4 3.2
377(10) 0.00949 349.4 3.2
360(10) 0.01040 349.4 3.2
350(10) 0.01004 349.4 3.3
352(10) 0.00934 349.4 3.3
360(10) 0.00941 349.4 3.3
345(10) 0.01053 349.4 3.3
322(9) 0.01150 349.4 3.3
327(10) 0.01056 349.3 3.3
332(10) 0.01027 349.3 3.3
362(10) 0.00950 349.3 3.3
341(10) 0.01081 349.3 3.4
366(10) 0.01021 349.3 3.4
364(11) 0.00895 349.3 3.4
343(10) 0.00919 349.3 3.4
366(10) 0.00930 349.3 3.5
337(10) 0.01099 349.3 3.5
334(10) 0.01093 349.3 3.5
364(10) 0.00931 349.3 3.5
353(11) 0.00900 349.3 3.6
334(10) 0.01040 349.3 3.6
352(10) 0.01064 349.3 3.6
363(10) 0.01021 349.3 3.7
380(11) 0.00883 349.3 3.7
340(10) 0.00968 349.3 3.8
366(10) 0.00942 349.3 3.8
358(10) 0.01044 349.3 3.9
346(10) 0.01066 349.3 3.9
358(10) 0.00930 349.3 4.0
325(10) 0.01006 349.3 4.0
364(10) 0.00937 349.3 4.1
359(10) 0.01031 349.3 4.1
352(10) 0.01064 349.3 4.2
347(10) 0.00968 349.3 4.3
335(10) 0.00999 349.3 4.3
342(10) 0.01019 349.3 4.4
339(10) 0.01089 349.3 4.5
382(10) 0.00918 349.3 4.6
339(10) 0.01047 349.2 4.7
322(10) 0.01046 349.2 4.8
306(9) 0.01127 349.2 4.9
327(9) 0.01149 349.2 5.0
328(10) 0.01088 349.2 5.1
356(10) 0.00955 349.2 5.2
355(10) 0.00975 349.2 5.3
375(10) 0.00939 349.2 5.4
325(9) 0.01134 349.2 5.5
345(10) 0.01004 349.2 5.7
347(10) 0.00969 349.2 5.8
377(11) 0.00899 349.2 5.9
351(10) 0.01041 349.2 6.1
379(10) 0.00988 349.2 6.3
349(10) 0.00947 349.2 6.4
340(10) 0.00949 349.2 6.6
351(10) 0.00986 349.2 6.8
361(10) 0.01008 349.2 7.0
356(10) 0.01041 349.2 7.2
359(10) 0.00974 349.2 7.4
340(10) 0.01020 349.2 7.7
347(10) 0.01053 349.2 7.9
361(10) 0.01002 349.2 8.2
335(10) 0.01088 349.2 8.5
358(10) 0.00967 349.2 8.8
345(10) 0.00989 349.2 9.2
358(10) 0.00968 349.2 9.5
383(10) 0.00960 349.2 9.9
364(10) 0.01023 349.2 10.3
343(10) 0.01021 349.1 10.8
366(11) 0.00858 349.1 11.3
357(10) 0.00991 349.1 11.8
358(10) 0.01030 349.1 12.4
350(10) 0.01065 349.1 13.0
338(10) 0.01029 349.1 13.6
346(10) 0.00974 349.1 14.4
359(10) 0.00986 349.1 15.1
360(10) 0.01028 349.1 16.0
367(10) 0.00984 349.1 16.9
362(10) 0.00973 349.1 17.8
364(11) 0.00905 349.1 18.9
340(10) 0.01011 349.1 20.0
369(10) 0.01013 349.1 21.2
367(10) 0.00988 349.1 22.4
380(10) 0.00912 349.1 23.8
386(11) 0.00872 349.1 25.2
361(10) 0.00953 349.1 26.7
372(10) 0.00995 349.1 28.2
381(10) 0.00954 349.1 29.9
401(11) 0.00834 349.1 31.6
360(10) 0.00979 349.1 33.4
386(11) 0.00907 349.1 35.2
367(10) 0.01012 349.1 37.1
390(10) 0.00918 349.1 39.0
402(11) 0.00856 349.1 41.0
436(11) 0.00786 349.1 42.9
398(10) 0.00925 349.1 44.9
411(10) 0.00911 349.1 46.8
404(11) 0.00879 349.1 48.7
410(11) 0.00854 349.0 50.6
408(11) 0.00886 349.0 52.3
411(11) 0.00884 349.0 53.9
361(10) 0.01031 349.0 55.4
410(11) 0.00844 349.0 56.7
367(10) 0.00928 349.0 57.8
374(11) 0.00907 349.0 58.6
389(10) 0.00931 349.0 59.2
402(10) 0.00914 349.0 59.5
389(10) 0.00915 349.0 59.6
375(10) 0.00957 349.0 59.3
412(11) 0.00863 349.0 58.9
382(10) 0.00962 349.0 58.1
402(10) 0.00923 349.0 57.2
368(10) 0.00921 349.0 56.0
404(11) 0.00785 349.0 54.7
401(11) 0.00857 349.0 53.2
378(10) 0.00978 349.0 51.5
375(10) 0.00987 349.0 49.8
369(10) 0.00942 349.0 48.0
395(11) 0.00828 349.0 46.1
393(11) 0.00877 349.0 44.2
404(10) 0.00909 349.0 42.2
382(10) 0.00943 349.0 40.3
358(10) 0.00977 349.0 38.4
362(10) 0.00916 349.0 36.4
386(10) 0.00916 349.0 34.6
378(10) 0.00978 349.0 32.8
356(10) 0.01037 349.0 31.0
356(10) 0.00989 349.0 29.3
371(11) 0.00873 348.9 27.6
371(10) 0.00937 348.9 26.1
356(10) 0.01039 348.9 24.5
395(10) 0.00914 348.9 23.1
375(10) 0.00930 348.9 21.8
359(10) 0.00960 348.9 20.5
380(10) 0.00929 348.9 19.3
376(10) 0.00987 348.9 18.2
352(10) 0.01036 348.9 17.1
347(10) 0.00995 348.9 16.1
345(10) 0.00941 348.9 15.2
328(10) 0.01056 348.9 14.4
375(10) 0.00988 348.9 13.6
337(10) 0.01071 348.9 12.9
350(10) 0.00967 348.9 12.2
363(10) 0.00935 348.9 11.6
383(10) 0.00919 348.9 11.1
359(10) 0.01039 348.9 10.5
354(10) 0.00989 348.9 10.1
356(10) 0.00974 348.9 9.6
364(10) 0.00993 348.9 9.2
361(10) 0.01006 348.9 8.9
389(10) 0.00953 348.9 8.6
358(10) 0.00972 348.9 8.3
353(10) 0.00959 348.9 8.0
335(10) 0.01041 348.9 7.7
371(10) 0.00944 348.9 7.5
368(10) 0.01009 348.9 7.3
344(10) 0.01037 348.9 7.1
352(10) 0.00952 348.9 6.9
354(10) 0.00986 348.8 6.8
343(10) 0.01032 348.8 6.6
344(10) 0.01078 348.8 6.5
314(9) 0.01144 348.8 6.4
353(10) 0.00941 348.8 6.3
345(10) 0.00982 348.8 6.2
404(10) 0.00920 348.8 6.1
365(10) 0.00987 348.8 6.0
335(10) 0.00999 348.8 5.9
368(11) 0.00849 348.8 5.9
349(10) 0.01005 348.8 5.8
364(10) 0.01016 348.8 5.7
348(10) 0.01072 348.8 5.7
372(10) 0.00922 348.8 5.7
362(11) 0.00886 348.8 5.6
343(10) 0.01018 348.8 5.6
345(10) 0.01070 348.8 5.6
375(10) 0.00992 348.8 5.6
352(10) 0.01026 348.8 5.6
360(10) 0.00926 348.8 5.6
357(10) 0.00975 348.8 5.6
343(10) 0.01070 348.8 5.6
340(10) 0.01076 348.8 5.6
360(10) 0.00963 348.8 5.7
368(10) 0.00924 348.8 5.7
351(10) 0.00982 348.8 5.8
353(10) 0.01057 348.8 5.9
348(10) 0.01024 348.8 5.9
345(10) 0.00988 348.8 6.0
353(10) 0.00944 348.7 6.1
363(10) 0.00976 348.7 6.3
352(10) 0.01062 348.7 6.4
361(10) 0.00996 348.7 6.6
355(10) 0.00950 348.7 6.8
338(10) 0.01023 348.7 7.0
363(10) 0.00976 348.7 7.3
345(10) 0.01070 348.7 7.6
328(10) 0.01070 348.7 7.9
342(10) 0.00987 348.7 8.4
354(10) 0.00972 348.7 8.9
366(10) 0.00985 348.7 9.5
361(10) 0.01038 348.7 10.2
373(10) 0.00945 348.7 11.2
368(10) 0.00938 348.7 12.6
357(10) 0.01013 348.7 14.9
374(10) 0.00963 348.7 18.6
370(10) 0.00988 348.7 24.6
347(10) 0.01017 348.7 33.9
423(11) 0.00788 348.7 47.5
425(11) 0.00817 348.7 65.0
482(12) 0.00747 348.7 85.1
470(11) 0.00785 348.7 104.0
463(12) 0.00747 348.7 116.4
457(12) 0.00713 348.7 117.4
465(12) 0.00747 348.7 106.8
410(11) 0.00892 348.7 89.4
416(11) 0.00901 348.7 70.7
408(11) 0.00836 348.7 54.4
393(11) 0.00828 348.7 42.1
406(11) 0.00845 348.6 34.0
373(10) 0.00996 348.6 29.2
374(10) 0.00989 348.6 26.9
384(11) 0.00905 348.6 25.9
387(11) 0.00799 348.6 25.7
392(11) 0.00843 348.6 25.9
361(10) 0.01016 348.6 26.1
380(10) 0.00978 348.6 26.3
370(10) 0.00964 348.6 26.4
401(11) 0.00801 348.6 26.3
368(10) 0.00966 348.6 26.1
398(10) 0.00919 348.6 25.7
391(10) 0.00927 348.6 25.2
372(10) 0.00923 348.6 24.7
366(11) 0.00866 348.6 24.0
366(10) 0.00936 348.6 23.2
375(10) 0.00993 348.6 22.4
376(10) 0.00972 348.6 21.5
382(11) 0.00903 348.6 20.6
380(11) 0.00879 348.6 19.6
395(11) 0.00844 348.6 18.7
407(10) 0.00929 348.6 17.8
386(10) 0.00926 348.6 16.8
371(10) 0.00922 348.6 15.9
380(11) 0.00883 348.6 15.1
359(10) 0.01004 348.6 14.2
395(10) 0.00930 348.6 13.5
382(10) 0.00920 348.6 12.7
359(10) 0.00926 348.6 12.0
362(10) 0.00964 348.6 11.4
351(10) 0.00986 348.5 10.8
362(10) 0.01036 348.5 10.2
347(10) 0.01021 348.5 9.7
358(10) 0.00941 348.5 9.2
345(10) 0.00997 348.5 8.8
343(10) 0.01061 348.5 8.4
368(10) 0.00999 348.5 8.1
359(10) 0.00936 348.5 7.8
320(10) 0.01049 348.5 7.5
364(10) 0.00950 348.5 7.3
331(9) 0.01118 348.5 7.0
349(10) 0.01049 348.5 6.9
350(10) 0.01001 348.5 6.7
352(10) 0.00968 348.5 6.6
355(10) 0.00971 348.5 6.4
342(10) 0.01052 348.5 6.3
360(10) 0.01034 348.5 6.2
356(10) 0.01003 348.5 6.2
341(10) 0.00948 348.5 6.1
349(10) 0.01004 348.5 6.1
357(10) 0.01019 348.5 6.1
351(10) 0.01059 348.5 6.0
344(10) 0.01016 348.5 6.0
342(11) 0.00900 348.5 6.1
347(10) 0.01002 348.5 6.1
345(10) 0.01073 348.5 6.1
348(10) 0.01032 348.5 6.2
344(10) 0.00987 348.5 6.2
365(11) 0.00878 348.5 6.3
361(10) 0.00960 348.4 6.4
355(10) 0.01046 348.4 6.5
346(10) 0.01075 348.4 6.6
374(10) 0.00924 348.4 6.7
344(10) 0.00955 348.4 6.9
350(10) 0.01017 348.4 7.0
370(10) 0.01017 348.4 7.2
336(10) 0.01058 348.4 7.4
345(10) 0.01009 348.4 7.6
317(10) 0.01091 348.4 7.9
349(10) 0.00992 348.4 8.1
372(10) 0.01003 348.4 8.4
351(10) 0.01005 348.4 8.8
369(10) 0.00930 348.4 9.1
350(10) 0.00966 348.3 9.6
359(10) 0.00970 348.3 10.1
364(10) 0.01017 348.3 10.6
366(10) 0.00975 348.3 11.3
364(11) 0.00897 348.3 12.0
371(11) 0.00890 348.3 12.8
365(10) 0.00963 348.3 13.8
360(10) 0.01038 348.3 14.8
357(10) 0.00994 348.3 15.9
373(11) 0.00907 348.3 17.1
374(11) 0.00878 348.3 18.3
373(10) 0.00941 348.3 19.4
365(10) 0.01019 348.3 20.4
375(10) 0.00928 348.2 21.2
374(11) 0.00895 348.2 21.7
401(11) 0.00842 348.2 22.0
373(10) 0.00971 348.2 21.9
381(10) 0.00978 348.2 21.7
390(11) 0.00866 348.2 21.4
335(10) 0.01013 348.2 21.0
356(10) 0.00968 348.2 20.7
382(10) 0.00965 348.2 20.4
366(10) 0.01006 348.2 20.1
339(10) 0.01011 348.2 19.9
360(10) 0.00923 348.2 19.7
372(10) 0.00926 348.2 19.6
351(10) 0.01056 348.1 19.6
345(10) 0.01075 348.1 19.6
363(10) 0.00958 348.1 19.6
337(10) 0.00982 348.1 19.7
371(10) 0.00928 348.1 19.8
377(10) 0.00983 348.1 19.9
365(10) 0.01002 348.1 20.0
343(10) 0.01049 348.1 20.2
369(11) 0.00864 348.1 20.3
360(10) 0.00957 348.1 20.3
362(10) 0.01030 348.1 20.3
356(10) 0.01003 348.1 20.1
369(10) 0.00925 348.1 19.9
347(10) 0.00942 348.0 19.6
346(10) 0.01020 348.0 19.3
359(10) 0.01023 348.0 19.0
348(10) 0.01046 348.0 18.7
348(10) 0.00988 348.0 18.5
356(10) 0.00934 348.0 18.4
353(10) 0.00980 348.0 18.3
362(10) 0.01030 348.0 18.3
377(10) 0.00939 348.0 18.3
362(10) 0.00932 348.0 18.4
365(10) 0.00932 348.0 18.5
357(10) 0.00951 348.0 18.7
349(10) 0.01069 348.0 18.9
390(10) 0.00909 348.0 19.1
339(10) 0.01056 347.9 19.4
348(10) 0.00980 347.9 19.7
353(10) 0.01006 347.9 20.0
380(10) 0.00972 347.9 20.4
349(10) 0.01009 347.9 20.7
334(10) 0.01005 347.9 21.2
365(10) 0.00930 347.9 21.6
370(10) 0.00977 347.9 22.1
366(10) 0.01000 347.9 22.7
359(10) 0.00952 347.9 23.2
375(11) 0.00874 347.9 23.9
362(10) 0.00941 347.9 24.6
344(10) 0.01032 347.9 25.4
375(10) 0.00988 347.8 26.4
368(10) 0.00922 347.8 27.8
389(11) 0.00841 347.8 29.9
384(10) 0.00920 347.8 33.1
390(10) 0.00960 347.8 37.8
381(10) 0.00980 347.8 44.4
368(10) 0.00915 347.8 52.8
418(11) 0.00785 347.8 62.3
410(11) 0.00843 347.8 71.2
413(11) 0.00857 347.8 77.0
416(11) 0.00896 347.8 77.7
418(11) 0.00837 347.8 73.2
431(12) 0.00754 347.8 66.0
396(11) 0.00872 347.7 58.4
398(10) 0.00925 347.7 52.0
392(10) 0.00945 347.7 47.6
390(11) 0.00870 347.7 45.2
417(12) 0.00739 347.7 44.3
391(11) 0.00892 347.7 44.4
412(10) 0.00908 347.7 44.8
393(10) 0.00911 347.7 45.2
394(11) 0.00860 347.7 45.4
390(11) 0.00823 347.7 45.5
401(11) 0.00841 347.7 45.5
365(10) 0.01033 347.7 45.7
422(11) 0.00817 347.7 46.0
411(11) 0.00827 347.6 46.4
412(11) 0.00785 347.6 47.0
404(11) 0.00886 347.6 47.5
395(10) 0.00933 347.6 48.0
405(11) 0.00867 347.6 48.5
397(11) 0.00882 347.6 48.9
385(11) 0.00879 347.6 49.2
400(11) 0.00875 347.6 49.4
407(11) 0.00907 347.6 49.4
419(11) 0.00853 347.6 49.3
396(11) 0.00889 347.6 48.9
393(11) 0.00886 347.6 48.3
386(10) 0.00910 347.6 47.4
390(10) 0.00952 347.6 46.2
388(11) 0.00896 347.5 44.9
370(10) 0.00917 347.5 43.5
381(10) 0.00921 347.5 42.1
433(11) 0.00835 347.5 40.7
346(10) 0.01068 347.5 39.6
356(10) 0.00958 347.5 38.7
386(11) 0.00838 347.5 38.3
387(11) 0.00861 347.5 38.4
390(11) 0.00900 347.5 39.2
392(10) 0.00952 347.5 40.6
375(10) 0.00924 347.5 42.8
383(11) 0.00882 347.5 45.6
364(10) 0.00963 347.5 48.8
394(10) 0.00929 347.4 52.0
376(10) 0.00993 347.4 54.7
416(11) 0.00804 347.4 56.2
391(11) 0.00879 347.4 55.8
385(10) 0.00939 347.4 53.5
358(10) 0.01041 347.4 49.7
392(10) 0.00939 347.4 45.0
377(10) 0.00938 347.4 40.1
385(11) 0.00842 347.4 35.4
355(10) 0.00969 347.4 31.2
367(10) 0.01014 347.4 27.7
373(10) 0.00988 347.4 24.8
344(10) 0.01021 347.4 22.4
374(11) 0.00832 347.3 20.6
380(11) 0.00876 347.3 19.3
369(10) 0.00985 347.3 18.2
350(10) 0.01076 347.3 17.5
338(10) 0.01024 347.3 16.9
343(10) 0.00955 347.3 16.4
358(10) 0.00984 347.3 16.1
347(10) 0.01080 347.3 15.9
354(10) 0.01035 347.3 15.7
365(10) 0.00945 347.3 15.6
364(11) 0.00902 347.3 15.6
383(11) 0.00892 347.3 15.6
367(10) 0.01001 347.3 15.7
351(10) 0.01036 347.2 15.8
357(10) 0.00973 347.2 16.1
373(10) 0.00935 347.2 16.4
379(10) 0.00951 347.2 17.0
385(10) 0.00960 347.2 17.8
383(10) 0.00914 347.2 19.1
346(10) 0.00996 347.2 20.9
388(11) 0.00843 347.2 23.3
353(10) 0.00990 347.2 26.6
411(11) 0.00904 347.2 30.7
371(10) 0.00948 347.2 35.6
397(11) 0.00849 347.2 40.7
410(11) 0.00848 347.2 45.4
407(11) 0.00898 347.2 48.8
412(11) 0.00897 347.1 49.8
382(10) 0.00918 347.1 48.1
366(10) 0.00943 347.1 44.5
366(10) 0.00965 347.1 40.1
383(10) 0.00919 347.1 35.7
370(10) 0.00998 347.1 31.9
389(11) 0.00854 347.1 28.8
372(11) 0.00889 347.1 26.5
357(10) 0.01004 347.1 25.0
373(10) 0.00953 347.1 24.1
369(10) 0.01020 347.1 23.7
371(10) 0.00954 347.1 23.5
370(11) 0.00905 347.1 23.6
358(10) 0.00969 347.0 23.8
375(10) 0.00947 347.0 24.1
368(10) 0.00997 347.0 24.4
365(11) 0.00885 347.0 24.7
357(11) 0.00899 347.0 25.0
381(10) 0.00913 347.0 25.4
368(10) 0.00999 347.0 25.7
374(10) 0.00990 347.0 26.0
390(11) 0.00885 347.0 26.3
376(11) 0.00835 347.0 26.6
346(10) 0.01023 347.0 26.8
369(10) 0.00996 347.0 27.0
363(10) 0.01026 347.0 27.1
392(11) 0.00867 346.9 27.2
367(11) 0.00868 346.9 27.3
364(10) 0.00943 346.9 27.3
346(10) 0.01084 346.9 27.3
341(10) 0.01058 346.9 27.2
363(10) 0.00967 346.9 27.1
375(11) 0.00887 346.9 27.0
364(10) 0.00943 346.9 26.8
358(10) 0.01034 346.9 26.6
375(10) 0.00987 346.9 26.4
369(10) 0.00947 346.9 26.2
394(11) 0.00841 346.9 26.0
374(10) 0.00926 346.9 25.7
364(10) 0.01027 346.8 25.5
385(10) 0.00940 346.8 25.2
361(10) 0.00972 346.8 25.0
360(10) 0.00933 346.8 24.7
336(10) 0.01031 346.8 24.5
383(10) 0.00966 346.8 24.3
372(10) 0.00948 346.8 24.0
358(10) 0.00948 346.8 23.8
359(10) 0.00919 346.8 23.6
343(10) 0.01050 346.8 23.4
392(10) 0.00950 346.8 23.2
369(10) 0.00985 346.8 23.0
375(11) 0.00884 346.8 22.9
344(10) 0.00978 346.8 22.7
348(10) 0.01024 346.7 22.5
327(9) 0.01128 346.7 22.4
362(10) 0.00984 346.7 22.3
353(10) 0.00983 346.7 22.2
383(10) 0.00909 346.7 22.1
382(10) 0.00965 346.7 22.0
357(10) 0.01045 346.7 21.9
336(10) 0.01070 346.7 21.8
365(11) 0.00901 346.7 21.7
358(10) 0.00968 346.7 21.7
344(10) 0.01039 346.7 21.6
314(9) 0.01190 346.7 21.6
376(10) 0.00918 346.7 21.5
350(10) 0.00974 346.6 21.5
370(10) 0.00970 346.6 21.5
393(10) 0.00927 346.6 21.4
426(11) 0.00884 346.6 21.4
342(10) 0.01049 346.6 21.4
377(11) 0.00853 346.6 21.5
376(10) 0.00935 346.6 21.5
361(10) 0.01017 346.6 21.6
364(10) 0.01028 346.6 21.6
369(10) 0.00942 346.6 21.8
377(11) 0.00887 346.6 21.9
365(10) 0.00983 346.6 22.1
355(10) 0.01037 346.6 22.3
363(10) 0.01013 346.5 22.6
370(10) 0.00949 346.5 22.9
366(10) 0.00912 346.5 23.2
343(10) 0.01043 346.5 23.7
354(10) 0.01048 346.5 24.1
369(10) 0.00961 346.5 24.7
385(11) 0.00892 346.5 25.3
368(11) 0.00893 346.5 26.0
376(10) 0.00945 346.5 26.8
376(10) 0.00984 346.5 27.6
368(10) 0.01015 346.5 28.5
385(10) 0.00919 346.5 29.4
403(11) 0.00832 346.5 30.4
364(10) 0.00924 346.4 31.4
381(10) 0.00975 346.4 32.5
395(11) 0.00904 346.4 33.5
408(11) 0.00824 346.4 34.5
406(11) 0.00808 346.4 35.4
376(10) 0.00923 346.4 36.2
379(10) 0.00982 346.4 36.9
402(11) 0.00871 346.4 37.4
384(11) 0.00893 346.4 37.7
383(11) 0.00872 346.4 37.9
357(10) 0.00970 346.4 37.9
373(10) 0.00989 346.4 37.9
380(11) 0.00896 346.4 37.7
378(11) 0.00887 346.4 37.5
379(11) 0.00901 346.3 37.2
375(10) 0.00955 346.3 37.0
398(10) 0.00932 346.3 36.7
373(10) 0.00947 346.3 36.4
379(11) 0.00901 346.3 36.1
422(11) 0.00825 346.3 35.9
422(11) 0.00871 346.3 35.6
370(10) 0.01009 346.3 35.4
379(10) 0.00910 346.3 35.2
406(11) 0.00791 346.3 35.1
383(10) 0.00907 346.3 34.9
346(10) 0.01070 346.3 34.8
383(10) 0.00966 346.3 34.7
413(11) 0.00851 346.2 34.6
396(11) 0.00799 346.2 34.6
361(10) 0.00950 346.2 34.5
387(10) 0.00952 346.2 34.5
419(11) 0.00876 346.2 34.5
380(10) 0.00933 346.2 34.6
395(11) 0.00838 346.2 34.6
386(10) 0.00925 346.2 34.7
381(10) 0.00967 346.2 34.9
359(10) 0.01035 346.2 35.0
399(11) 0.00868 346.2 35.2
387(11) 0.00822 346.2 35.4
392(11) 0.00880 346.2 35.6
407(10) 0.00915 346.1 35.8
386(10) 0.00942 346.1 36.0
370(10) 0.00969 346.1 36.3
384(11) 0.00875 346.1 36.6
412(11) 0.00837 346.1 36.9
411(10) 0.00909 346.1 37.1
399(11) 0.00893 346.1 37.4
396(11) 0.00871 346.1 37.7
391(11) 0.00860 346.1 38.0
398(11) 0.00857 346.1 38.2
388(10) 0.00960 346.1 38.4
402(10) 0.00917 346.1 38.6
438(11) 0.00803 346.1 38.8
389(11) 0.00889 346.0 38.9
378(10) 0.00947 346.0 39.0
368(10) 0.01015 346.0 39.0
388(10) 0.00930 346.0 39.0
381(11) 0.00898 346.0 39.0
364(10) 0.00944 346.0 38.9
365(10) 0.00978 346.0 38.8
363(10) 0.01025 346.0 38.7
385(10) 0.00912 346.0 38.5
374(11) 0.00905 346.0 38.3
387(11) 0.00890 346.0 38.0
406(11) 0.00893 346.0 37.7
377(10) 0.00984 346.0 37.4
349(10) 0.01015 346.0 37.1
358(10) 0.00964 345.9 36.7
380(11) 0.00899 345.9 36.3
366(10) 0.00995 345.9 35.9
390(10) 0.00934 345.9 35.5
367(10) 0.00932 345.9 35.0
357(10) 0.00929 345.9 34.6
373(10) 0.00935 345.9 34.1
369(10) 0.01002 345.9 33.7
363(10) 0.01030 345.9 33.2
361(10) 0.00986 345.9 32.7
393(11) 0.00802 345.9 32.3
379(11) 0.00897 345.9 31.9
395(10) 0.00933 345.9 31.4
389(10) 0.00950 345.8 31.0
381(11) 0.00895 345.8 30.7
363(11) 0.00877 345.8 30.3
386(11) 0.00901 345.8 30.0
384(10) 0.00971 345.8 29.7
370(10) 0.01006 345.8 29.5
395(11) 0.00874 345.8 29.3
391(11) 0.00856 345.8 29.2
386(11) 0.00875 345.8 29.1
377(10) 0.00987 345.8 29.1
361(10) 0.00996 345.8 29.2
377(10) 0.00912 345.8 29.3
389(11) 0.00840 345.8 29.6
372(10) 0.00936 345.7 30.0
387(10) 0.00960 345.7 30.6
435(11) 0.00818 345.7 31.3
399(11) 0.00876 345.7 32.3
377(11) 0.00884 345.7 33.4
366(10) 0.00946 345.7 34.9
396(10) 0.00926 345.7 36.6
392(10) 0.00935 345.7 38.6
398(11) 0.00842 345.7 40.9
365(11) 0.00904 345.7 43.6
357(10) 0.00969 345.7 46.6
381(10) 0.00977 345.7 49.9
397(10) 0.00908 345.7 53.5
413(11) 0.00843 345.6 57.3
432(11) 0.00811 345.6 61.4
447(11) 0.00817 345.6 65.4
441(11) 0.00842 345.6 69.4
413(11) 0.00847 345.6 73.1
406(11) 0.00836 345.6 76.3
439(11) 0.00788 345.6 78.7
426(11) 0.00831 345.6 80.0
419(11) 0.00891 345.6 80.2
427(11) 0.00794 345.6 79.2
401(11) 0.00845 345.6 77.0
417(11) 0.00846 345.6 73.8
399(10) 0.00922 345.6 69.8
432(11) 0.00862 345.6 65.5
429(11) 0.00808 345.5 61.0
410(11) 0.00810 345.5 56.4
382(10) 0.00928 345.5 52.0
379(10) 0.00972 345.5 47.9
371(10) 0.01007 345.5 44.1
396(11) 0.00856 345.5 40.6
368(11) 0.00882 345.5 37.5
365(10) 0.00954 345.5 34.8
377(10) 0.00963 345.5 32.4
367(10) 0.00995 345.5 30.4
359(10) 0.01019 345.5 28.7
355(10) 0.00950 345.5 27.2
388(11) 0.00906 345.5 26.0
376(10) 0.00988 345.4 25.0
372(10) 0.00999 345.4 24.2
388(11) 0.00884 345.4 23.5
362(10) 0.00915 345.4 22.9
349(10) 0.01001 345.4 22.5
381(10) 0.00970 345.4 22.1
356(10) 0.01046 345.4 21.8
376(10) 0.00930 345.4 21.5
367(10) 0.00933 345.4 21.3
346(10) 0.00978 345.4 21.1
371(10) 0.00987 345.4 20.9
374(10) 0.00959 345.4 20.7
352(10) 0.00956 345.4 20.6
372(11) 0.00879 345.3 20.4
361(10) 0.00955 345.3 20.2
361(10) 0.01029 345.3 20.1
369(10) 0.00987 345.3 19.9
372(10) 0.00909 345.3 19.7
358(10) 0.00923 345.3 19.5
359(10) 0.00948 345.3 19.3
344(10) 0.01078 345.3 19.1
373(10) 0.00935 345.3 18.8
383(11) 0.00864 345.3 18.6
376(10) 0.00932 345.3 18.3
378(10) 0.00948 345.3 18.1
363(10) 0.01014 345.3 17.8
381(11) 0.00906 345.2 17.5
346(10) 0.00993 345.2 17.2
352(10) 0.00950 345.2 16.9
321(9) 0.01115 345.2 16.5
341(10) 0.01082 345.2 16.2
373(10) 0.00925 345.2 15.9
363(10) 0.00925 345.2 15.6
352(10) 0.00980 345.2 15.3
367(10) 0.00988 345.2 15.0
381(10) 0.00973 345.2 14.7
360(10) 0.00951 345.2 14.4
352(10) 0.00933 345.2 14.1
349(10) 0.00996 345.2 13.8
340(10) 0.01062 345.2 13.5
358(10) 0.01045 345.1 13.3
342(10) 0.00983 345.1 13.0
356(10) 0.00909 345.1 12.8
361(10) 0.00974 345.1 12.6
360(10) 0.01034 345.1 12.4
366(10) 0.01010 345.1 12.1
387(11) 0.00876 345.1 11.9
371(11) 0.00852 345.1 11.8
342(10) 0.01039 345.1 11.6
332(9) 0.01112 345.1 11.4
361(10) 0.01029 345.1 11.3
327(10) 0.01032 345.1 11.2
348(10) 0.00922 345.1 11.1
355(10) 0.00939 345.0 11.0
352(10) 0.01062 345.0 10.9
351(10) 0.01050 345.0 10.9
343(10) 0.01043 345.0 10.9
349(10) 0.00941 345.0 10.9
339(10) 0.01009 345.0 10.9
345(10) 0.01055 345.0 11.0
360(10) 0.01024 345.0 11.1
350(10) 0.00956 345.0 11.2
338(10) 0.00991 345.0 11.4
344(10) 0.01006 345.0 11.5
363(10) 0.01015 345.0 11.8
342(10) 0.01042 345.0 12.0
342(10) 0.01011 344.9 12.4
355(10) 0.00962 344.9 12.9
372(11) 0.00899 344.9 13.6
387(10) 0.00956 344.9 14.6
386(10) 0.00930 344.9 16.2
374(10) 0.00915 344.9 18.6
410(11) 0.00803 344.9 22.1
387(10) 0.00920 344.9 26.7
394(10) 0.00947 344.9 32.6
372(10) 0.00933 344.9 39.3
381(10) 0.00922 344.9 46.1
408(11) 0.00797 344.9 51.5
385(10) 0.00910 344.9 54.0
365(10) 0.01019 344.8 52.6
375(10) 0.00939 344.8 48.2
386(11) 0.00832 344.8 42.2
387(11) 0.00876 344.8 36.2
380(10) 0.00944 344.8 30.9
368(10) 0.01013 344.8 26.9
369(10) 0.00923 344.8 24.0
377(11) 0.00862 344.8 22.2
393(11) 0.00871 344.8 21.2
358(10) 0.01009 344.8 20.8
352(10) 0.01056 344.8 20.8
406(11) 0.00819 344.8 20.9
366(11) 0.00905 344.8 21.2
370(10) 0.00943 344.8 21.5
384(10) 0.00954 344.7 21.8
358(10) 0.01037 344.7 22.2
338(10) 0.01036 344.7 22.6
366(11) 0.00876 344.7 22.9
358(10) 0.00987 344.7 23.2
349(10) 0.01064 344.7 23.5
369(10) 0.00999 344.7 23.7
363(10) 0.00977 344.7 23.9
375(11) 0.00852 344.7 24.0
361(10) 0.00954 344.7 24.0
350(10) 0.01047 344.7 23.9
331(9) 0.01121 344.7 23.8
348(10) 0.00987 344.7 23.6
367(11) 0.00875 344.6 23.3
388(11) 0.00893 344.6 23.0
405(10) 0.00912 344.6 22.6
349(10) 0.01051 344.6 22.2
365(10) 0.00920 344.6 21.7
370(10) 0.00911 344.6 21.2
379(11) 0.00905 344.6 20.6
380(10) 0.00972 344.6 20.1
362(10) 0.01001 344.6 19.5
359(10) 0.00989 344.6 18.9
388(11) 0.00852 344.6 18.3
354(10) 0.00958 344.6 17.8
373(10) 0.00996 344.6 17.2
369(10) 0.00975 344.5 16.7
353(10) 0.00940 344.5 16.1
365(10) 0.00933 344.5 15.6
380(10) 0.00925 344.5 15.2
343(10) 0.01088 344.5 14.7
346(10) 0.01026 344.5 14.3
368(10) 0.00920 344.5 13.9
369(10) 0.00933 344.5 13.5
343(10) 0.01046 344.5 13.2
364(10) 0.01023 344.5 12.9
357(10) 0.00975 344.5 12.7
328(10) 0.01026 344.5 12.5
337(10) 0.00991 344.5 12.3
345(10) 0.01049 344.4 12.1
347(10) 0.01061 344.4 12.0
351(10) 0.00962 344.4 12.0
361(10) 0.00934 344.4 11.9
331(10) 0.01084 344.4 11.9
343(10) 0.01050 344.4 11.9
325(9) 0.01146 344.4 12.0
339(10) 0.01023 344.4 12.1
357(11) 0.00882 344.4 12.3
352(10) 0.00969 344.4 12.5
366(10) 0.01008 344.4 12.8
339(10) 0.01081 344.4 13.1
330(10) 0.01089 344.4 13.4
373(11) 0.00845 344.4 13.7
354(10) 0.00975 344.3 14.0
351(10) 0.01030 344.3 14.3
356(10) 0.01051 344.3 14.4
337(10) 0.01070 344.3 14.5
357(11) 0.00888 344.3 14.6
354(10) 0.00980 344.3 14.6
349(10) 0.01057 344.3 14.7
357(10) 0.01033 344.3 14.8
379(10) 0.00908 344.3 14.8
367(11) 0.00895 344.3 14.9
368(10) 0.00955 344.3 14.9
345(10) 0.01064 344.3 14.9
367(10) 0.00994 344.3 14.8
334(10) 0.01047 344.2 14.8
337(10) 0.00961 344.2 14.7
344(10) 0.01023 344.2 14.5
333(9) 0.01120 344.2 14.3
339(10) 0.01072 344.2 14.1
345(10) 0.01005 344.2 13.8
312(10) 0.01082 344.2 13.5
334(10) 0.01023 344.2 13.2
338(10) 0.01087 344.2 12.8
346(10) 0.01015 344.2 12.5
339(10) 0.01021 344.2 12.1
352(10) 0.00967 344.2 11.7
354(10) 0.00975 344.2 11.3
341(10) 0.01091 344.1 11.0
336(10) 0.01051 344.1 10.6
332(10) 0.01019 344.1 10.2
339(10) 0.00959 344.1 9.8
334(10) 0.01068 344.1 9.5
348(10) 0.01062 344.1 9.1
338(10) 0.01036 344.1 8.8
330(10) 0.01018 344.1 8.5
348(10) 0.00990 344.1 8.2
359(10) 0.00990 344.1 7.9
373(10) 0.00987 344.1 7.6
349(10) 0.01003 344.1 7.3
321(10) 0.01002 344.1 7.1
335(10) 0.01024 344.0 6.9
385(11) 0.00904 344.0 6.6
338(10) 0.01105 344.0 6.5
352(10) 0.00958 344.0 6.3
368(11) 0.00903 344.0 6.1
336(10) 0.01062 344.0 6.0
340(10) 0.01082 344.0 5.9
356(10) 0.01049 344.0 5.8
339(10) 0.01031 344.0 5.7
334(10) 0.00981 344.0 5.7
354(10) 0.01012 344.0 5.6
331(9) 0.01128 344.0 5.7
350(10) 0.01056 344.0 5.7
352(10) 0.01000 344.0 5.8
332(10) 0.01004 343.9 6.0
354(10) 0.00949 343.9 6.3
351(10) 0.01056 343.9 6.7
344(10) 0.01084 343.9 7.3
362(10) 0.00964 343.9 8.0
349(10) 0.00981 343.9 9.0
348(10) 0.01018 343.9 10.2
370(10) 0.01004 343.9 11.7
357(10) 0.01033 343.9 13.5
348(10) 0.01010 343.9 15.4
379(11) 0.00846 343.9 17.5
344(10) 0.00989 343.9 19.6
336(10) 0.01097 343.9 21.4
356(10) 0.01040 343.8 22.6
345(10) 0.01006 343.8 23.0
372(11) 0.00879 343.8 22.6
376(11) 0.00900 343.8 21.3
356(10) 0.01029 343.8 19.4
358(10) 0.00997 343.8 17.3
349(10) 0.01008 343.8 15.1
334(10) 0.01049 343.8 13.1
335(10) 0.01047 343.8 11.2
342(10) 0.01086 343.8 9.7
368(10) 0.00969 343.8 8.3
358(10) 0.00983 343.8 7.3
349(10) 0.00959 343.8 6.4
336(10) 0.01048 343.7 5.8
354(10) 0.01043 343.7 5.3
362(10) 0.00971 343.7 4.9
371(10) 0.00942 343.7 4.6
346(10) 0.01030 343.7 4.4
326(10) 0.01092 343.7 4.2
337(10) 0.01108 343.7 4.1
354(10) 0.00927 343.7 3.9
371(11) 0.00902 343.7 3.8
347(10) 0.00980 343.7 3.8
329(10) 0.01102 343.7 3.7
344(10) 0.01078 343.7 3.6
345(10) 0.00996 343.7 3.6
347(10) 0.00935 343.7 3.6
355(10) 0.00949 343.6 3.5
338(10) 0.01078 343.6 3.5
331(9) 0.01139 343.6 3.5
337(10) 0.01058 343.6 3.4
319(10) 0.01016 343.6 3.4
355(10) 0.00913 343.6 3.4
351(10) 0.01047 343.6 3.4
349(10) 0.01054 343.6 3.4
340(10) 0.00991 343.6 3.3
376(11) 0.00842 343.6 3.3
349(10) 0.01017 343.6 3.3
331(9) 0.01128 343.6 3.3
343(10) 0.01071 343.6 3.2
325(10) 0.01102 343.5 3.2
342(10) 0.00916 343.5 3.2
339(10) 0.01016 343.5 3.1
345(10) 0.01074 343.5 3.1
351(10) 0.01067 343.5 3.1
332(10) 0.01104 343.5 3.0
349(10) 0.00968 343.5 3.0
354(10) 0.00964 343.5 3.0
332(10) 0.01090 343.5 2.9
339(10) 0.01091 343.5 2.9
329(10) 0.01070 343.5 2.9
322(10) 0.01047 343.5 2.9
332(10) 0.01046 343.5 2.8
345(10) 0.01063 343.4 2.8
333(10) 0.01101 343.4 2.8
351(10) 0.00936 343.4 2.8
329(10) 0.01016 343.4 2.8
348(10) 0.00979 343.4 2.8
331(9) 0.01129 343.4 2.8
351(10) 0.00990 343.4 2.7
314(10) 0.01106 343.4 2.7
326(10) 0.01054 343.4 2.7
359(10) 0.01010 343.4 2.7
342(10) 0.01086 343.4 2.7
350(10) 0.01001 343.4 2.8
347(10) 0.00942 343.4 2.8
359(10) 0.00965 343.4 2.8
359(10) 0.01001 343.3 2.8
350(10) 0.01053 343.3 2.8
349(10) 0.00989 343.3 2.8
344(10) 0.00952 343.3 2.8
333(10) 0.01043 343.3 2.8
341(10) 0.01028 343.3 2.8
323(9) 0.01148 343.3 2.9
353(10) 0.00998 343.3 2.9
332(10) 0.01011 343.3 2.9
318(10) 0.01084 343.3 2.9
328(10) 0.01104 343.3 2.9
362(10) 0.01027 343.3 3.0
346(10) 0.00991 343.3 3.0
346(10) 0.00928 343.3 3.0
347(10) 0.01006 343.2 3.0
339(10) 0.01063 343.2 3.0
335(10) 0.01108 343.2 3.1
341(10) 0.01063 343.2 3.1
353(10) 0.00920 343.2 3.1
355(10) 0.00962 343.2 3.1
379(10) 0.00972 343.2 3.1
340(10) 0.01075 343.2 3.2
338(10) 0.00997 343.2 3.2
359(11) 0.00896 343.2 3.2
352(10) 0.01024 343.2 3.2
338(10) 0.01087 343.2 3.2
322(9) 0.01158 343.2 3.2
357(10) 0.00910 343.2 3.2
318(10) 0.01006 343.2 3.2
335(10) 0.00997 343.1 3.2
337(10) 0.01092 343.1 3.2
349(10) 0.01038 343.1 3.2
357(10) 0.00941 343.1 3.2
334(10) 0.00977 343.1 3.2
331(10) 0.01045 343.1 3.2
314(9) 0.01160 343.1 3.2
325(10) 0.01104 343.1 3.2
348(10) 0.00987 343.1 3.2
338(10) 0.01013 343.1 3.2
337(10) 0.00990 343.1 3.2
336(10) 0.01084 343.1 3.2
332(10) 0.01058 343.1 3.2
363(10) 0.00928 343.1 3.1
353(10) 0.00967 343.0 3.1
361(10) 0.00974 343.0 3.1
356(10) 0.01043 343.0 3.1
339(10) 0.01058 343.0 3.1
350(10) 0.01007 343.0 3.1
350(10) 0.01000 343.0 3.0
371(10) 0.00962 343.0 3.0
328(9) 0.01135 343.0 3.0
325(10) 0.01091 343.0 3.0
325(10) 0.01050 343.0 3.0
314(9) 0.01124 343.0 2.9
353(10) 0.01025 343.0 2.9
341(10) 0.01074 343.0 2.9
351(10) 0.00954 343.0 2.9
326(10) 0.01008 342.9 2.9
330(10) 0.01053 342.9 2.9
348(10) 0.01057 342.9 2.9
342(10) 0.01082 342.9 2.9
317(9) 0.01125 342.9 2.9
344(10) 0.00945 342.9 2.9
348(10) 0.00974 342.9 2.8
333(10) 0.01092 342.9 2.8
358(10) 0.01032 342.9 2.9
355(10) 0.00943 342.9 2.9
366(11) 0.00861 342.9 2.9
343(10) 0.01049 342.9 2.9
334(10) 0.01103 342.9 2.9
321(9) 0.01159 342.9 2.9
360(10) 0.00945 342.9 2.9
369(11) 0.00875 342.8 2.9
357(10) 0.00982 342.8 3.0
361(10) 0.01029 342.8 3.0
341(10) 0.01084 342.8 3.0
343(10) 0.00945 342.8 3.1
327(10) 0.00977 342.8 3.1
349(10) 0.00959 342.8 3.2
365(10) 0.01001 342.8 3.2
383(10) 0.00949 342.8 3.3
352(10) 0.01004 342.8 3.4
324(10) 0.01055 342.8 3.4
339(10) 0.01024 342.8 3.5
349(10) 0.01063 342.8 3.6
350(10) 0.01031 342.8 3.7
327(10) 0.01042 342.7 3.8
346(10) 0.00958 342.7 3.9
334(10) 0.01037 342.7 4.0
350(10) 0.01064 342.7 4.1
348(10) 0.01015 342.7 4.2
352(10) 0.00992 342.7 4.4
339(10) 0.01031 342.7 4.5
353(10) 0.00974 342.7 4.7
359(10) 0.01024 342.7 4.9
356(10) 0.00999 342.7 5.0
326(10) 0.01092 342.7 5.2
331(10) 0.01049 342.7 5.4
347(10) 0.01037 342.7 5.6
348(10) 0.01058 342.7 5.9
348(10) 0.01002 342.6 6.1
342(10) 0.00996 342.6 6.3
343(10) 0.01008 342.6 6.6
332(10) 0.01073 342.6 6.9
344(10) 0.01060 342.6 7.2
334(10) 0.01016 342.6 7.4
344(10) 0.00952 342.6 7.8
343(10) 0.01012 342.6 8.1
315(9) 0.01147 342.6 8.4
366(10) 0.01011 342.6 8.8
347(10) 0.00967 342.6 9.2
382(11) 0.00813 342.6 9.5
350(10) 0.01014 342.6 9.9
333(10) 0.01103 342.6 10.4
357(10) 0.01039 342.5 10.8
366(10) 0.00938 342.5 11.3
367(11) 0.00891 342.5 11.8
354(10) 0.00997 342.5 12.3
363(10) 0.01009 342.5 12.9
368(10) 0.01004 342.5 13.5
388(11) 0.00858 342.5 14.2
363(11) 0.00884 342.5 14.9
350(10) 0.00998 342.5 15.6
361(10) 0.01039 342.5 16.5
366(10) 0.01007 342.5 17.4
354(10) 0.00979 342.5 18.3
361(11) 0.00879 342.5 19.4
371(10) 0.00938 342.5 20.6
369(10) 0.01005 342.5 21.8
375(10) 0.00967 342.4 23.2
374(10) 0.00935 342.4 24.6
367(11) 0.00906 342.4 26.2
380(11) 0.00842 342.4 27.8
343(10) 0.01083 342.4 29.5
377(10) 0.00954 342.4 31.2
364(10) 0.00983 342.4 32.9
370(11) 0.00900 342.4 34.7
366(10) 0.00950 342.4 36.3
372(10) 0.00994 342.4 37.9
389(10) 0.00918 342.4 39.3
392(11) 0.00887 342.4 40.5
403(11) 0.00820 342.4 41.4
388(11) 0.00892 342.4 41.9
375(10) 0.00989 342.3 42.2
395(11) 0.00874 342.3 42.1
390(11) 0.00863 342.3 41.7
370(10) 0.00933 342.3 41.0
384(10) 0.00934 342.3 40.1
414(11) 0.00891 342.3 39.0
372(10) 0.00951 342.3 37.7
383(11) 0.00888 342.3 36.4
360(10) 0.00984 342.3 35.0
346(10) 0.01043 342.3 33.6
340(10) 0.01095 342.3 32.1
381(11) 0.00906 342.3 30.7
377(10) 0.00940 342.3 29.3
364(10) 0.00957 342.3 27.9
354(10) 0.01013 342.2 26.5
329(9) 0.01130 342.2 25.2
363(10) 0.00947 342.2 23.9
352(10) 0.00923 342.2 22.6
343(10) 0.01047 342.2 21.4
365(10) 0.01028 342.2 20.2
339(10) 0.01099 342.2 19.1
353(10) 0.00971 342.2 18.0
319(10) 0.01061 342.2 17.0
374(10) 0.00908 342.2 16.0
349(10) 0.01052 342.2 15.1
353(10) 0.01048 342.2 14.2
350(10) 0.00987 342.2 13.4
373(11) 0.00835 342.2 12.6
332(10) 0.01065 342.1 11.9
348(10) 0.01031 342.1 11.3
349(10) 0.01057 342.1 10.7
346(10) 0.01018 342.1 10.1
348(10) 0.00944 342.1 9.6
332(10) 0.01070 342.1 9.1
351(10) 0.01046 342.1 8.6
379(10) 0.00955 342.1 8.2
347(10) 0.01035 342.1 7.8
347(10) 0.00976 342.1 7.5
333(10) 0.01018 342.1 7.1
344(10) 0.01084 342.1 6.8
331(10) 0.01092 342.1 6.6
321(9) 0.01114 342.1 6.3
336(10) 0.00994 342.1 6.1
347(10) 0.00980 342.0 5.9
326(9) 0.01151 342.0 5.7
327(10) 0.01099 342.0 5.6
335(10) 0.01037 342.0 5.4
328(10) 0.01011 342.0 5.3
353(10) 0.00928 342.0 5.2
357(10) 0.01048 342.0 5.1
337(10) 0.01058 342.0 5.0
356(10) 0.00977 342.0 5.0
360(10) 0.00923 342.0 4.9
332(10) 0.01067 342.0 4.9
347(10) 0.01073 342.0 4.9
348(10) 0.01011 342.0 4.9
324(10) 0.01076 342.0 4.8
323(10) 0.01064 341.9 4.9
320(9) 0.01123 341.9 4.9
342(10) 0.01078 341.9 4.9
361(10) 0.00967 341.9 4.9
369(11) 0.00905 341.9 5.0
345(10) 0.01014 341.9 5.0
348(10) 0.01025 341.9 5.1
357(10) 0.01049 341.9 5.2
353(10) 0.00990 341.9 5.3
372(11) 0.00891 341.9 5.4
336(10) 0.01078 341.9 5.5
366(10) 0.01005 341.9 5.6
365(10) 0.01038 341.9 5.7
328(10) 0.01098 341.9 5.9
351(10) 0.00942 341.8 6.0
342(10) 0.00996 341.8 6.2
343(10) 0.01058 341.8 6.4
348(10) 0.01077 341.8 6.5
353(10) 0.01000 341.8 6.8
361(10) 0.00927 341.8 7.0
338(10) 0.01049 341.8 7.2
342(10) 0.01076 341.8 7.5
356(10) 0.01017 341.8 7.9
337(10) 0.01046 341.8 8.3
370(11) 0.00844 341.8 8.8
347(10) 0.01003 341.8 9.4
325(9) 0.01128 341.8 10.3
318(9) 0.01180 341.8 11.3
350(10) 0.00985 341.7 12.6
335(10) 0.01008 341.7 14.1
366(10) 0.00949 341.7 15.8
368(10) 0.01025 341.7 17.6
349(10) 0.01044 341.7 19.4
367(11) 0.00894 341.7 21.0
362(11) 0.00896 341.7 21.9
341(10) 0.00990 341.7 22.0
341(10) 0.01076 341.7 21.4
355(10) 0.01030 341.7 20.1
374(10) 0.00924 341.7 18.6
352(10) 0.00966 341.7 17.0
377(10) 0.00940 341.7 15.5
375(10) 0.00990 341.7 14.2
335(10) 0.01061 341.7 13.2
341(10) 0.01028 341.6 12.4
355(10) 0.00980 341.6 11.7
371(10) 0.00959 341.6 11.3
340(10) 0.01107 341.6 10.9
350(10) 0.01003 341.6 10.7
331(10) 0.01040 341.6 10.5
336(10) 0.00983 341.6 10.4
356(10) 0.00967 341.6 10.2
348(10) 0.01083 341.6 10.1
358(10) 0.01010 341.6 10.0
359(10) 0.00968 341.6 9.9
376(11) 0.00901 341.6 9.8
339(10) 0.01055 341.6 9.7
304(9) 0.01201 341.6 9.7
334(10) 0.01035 341.5 9.6
339(10) 0.01010 341.5 9.5
354(10) 0.01009 341.5 9.5
345(10) 0.01077 341.5 9.4
365(10) 0.01029 341.5 9.4
344(10) 0.01014 341.5 9.4
341(10) 0.01012 341.5 9.3
352(10) 0.00986 341.5 9.3
311(9) 0.01198 341.5 9.3
332(9) 0.01111 341.5 9.2
352(10) 0.00967 341.5 9.2
350(10) 0.00928 341.5 9.2
340(10) 0.01041 341.5 9.1
366(10) 0.01000 341.5 9.1
350(10) 0.01064 341.4 9.1
328(10) 0.01065 341.4 9.0
382(11) 0.00818 341.4 9.0
358(10) 0.00957 341.4 9.0
369(10) 0.00995 341.4 9.0
345(10) 0.01078 341.4 9.0
361(10) 0.00962 341.4 9.0
372(11) 0.00866 341.4 9.0
360(10) 0.00968 341.4 9.0
356(10) 0.01051 341.4 9.0
361(10) 0.01008 341.4 9.1
356(10) 0.00980 341.4 9.1
359(10) 0.00922 341.4 9.2
371(10) 0.00941 341.4 9.3
333(9) 0.01114 341.4 9.3
374(10) 0.00982 341.3 9.4
366(10) 0.00968 341.3 9.5
362(11) 0.00904 341.3 9.6
348(10) 0.01034 341.3 9.8
357(10) 0.01044 341.3 9.9
355(10) 0.01006 341.3 10.0
352(10) 0.00953 341.3 10.2
342(10) 0.00980 341.3 10.5
326(10) 0.01083 341.3 10.9
355(10) 0.01040 341.3 11.5
370(10) 0.00967 341.3 12.7
375(11) 0.00900 341.3 14.4
376(11) 0.00906 341.3 16.6
369(10) 0.00934 341.3 18.7
363(10) 0.01029 341.2 20.1
381(11) 0.00892 341.2 20.0
360(10) 0.00916 341.2 18.8
367(10) 0.00932 341.2 17.1
377(10) 0.00973 341.2 15.6
336(10) 0.01105 341.2 14.7
348(10) 0.01002 341.2 14.3
361(10) 0.00939 341.2 14.3
337(10) 0.01024 341.2 14.4
344(10) 0.01039 341.2 14.5
356(10) 0.01049 341.2 14.7
337(10) 0.01028 341.2 14.7
345(10) 0.00955 341.2 14.8
343(10) 0.01036 341.2 14.8
398(11) 0.00885 341.1 14.7
359(10) 0.01043 341.1 14.7
341(10) 0.01067 341.1 14.7
347(10) 0.00954 341.1 14.7
330(10) 0.01078 341.1 14.7
353(10) 0.01057 341.1 14.7
388(10) 0.00949 341.1 14.7
377(10) 0.00922 341.1 14.7
367(11) 0.00890 341.1 14.7
365(10) 0.00961 341.1 14.7
335(9) 0.01112 341.1 14.8
329(9) 0.01115 341.1 14.8
337(10) 0.01027 341.1 14.8
370(11) 0.00876 341.1 14.8
348(10) 0.00982 341.0 14.8
354(10) 0.01065 341.0 14.8
374(10) 0.00987 341.0 14.8
359(10) 0.00968 341.0 14.8
351(10) 0.00937 341.0 14.8
328(10) 0.01088 341.0 14.8
363(10) 0.01017 341.0 14.8
355(10) 0.01021 341.0 14.8
356(10) 0.00980 341.0 14.8
337(10) 0.01004 341.0 14.9
353(10) 0.00989 341.0 14.9
346(10) 0.01080 341.0 15.0
354(10) 0.01006 341.0 15.1
337(10) 0.01045 341.0 15.2
356(10) 0.00942 341.0 15.3
325(10) 0.01032 340.9 15.4
372(10) 0.00987 340.9 15.5
372(10) 0.00961 340.9 15.7
360(10) 0.00917 340.9 15.8
373(11) 0.00899 340.9 16.0
375(10) 0.00936 340.9 16.1
357(10) 0.01048 340.9 16.2
378(11) 0.00906 340.9 16.3
382(11) 0.00877 340.9 16.3
345(10) 0.01010 340.9 16.3
341(10) 0.01026 340.9 16.2
378(10) 0.00989 340.9 16.1
350(10) 0.00986 340.9 16.0
385(11) 0.00868 340.9 15.9
353(10) 0.00978 340.8 15.8
348(10) 0.01057 340.8 15.8
364(10) 0.01018 340.8 15.8
342(10) 0.01018 340.8 15.9
340(10) 0.00984 340.8 16.2
362(10) 0.00936 340.8 16.7
365(10) 0.01014 340.8 17.6
399(10) 0.00938 340.8 19.1
365(10) 0.00972 340.8 21.3
378(11) 0.00882 340.8 24.5
402(11) 0.00884 340.8 29.0
405(11) 0.00900 340.8 34.7
386(10) 0.00969 340.8 41.7
409(11) 0.00808 340.8 49.8
403(11) 0.00789 340.7 58.4
398(11) 0.00891 340.7 66.3
408(10) 0.00911 340.7 72.2
394(10) 0.00938 340.7 74.3
400(11) 0.00870 340.7 72.1
392(11) 0.00841 340.7 66.2
412(11) 0.00858 340.7 58.2
399(10) 0.00934 340.7 49.7
367(10) 0.01007 340.7 41.9
374(11) 0.00897 340.7 35.4
337(10) 0.01002 340.7 30.6
371(10) 0.00923 340.7 27.5
349(10) 0.01061 340.7 26.0
391(10) 0.00929 340.7 26.0
400(11) 0.00869 340.6 26.9
414(11) 0.00816 340.6 28.3
408(11) 0.00852 340.6 29.4
381(10) 0.00969 340.6 29.4
370(10) 0.00988 340.6 28.0
373(10) 0.00929 340.6 25.5
374(11) 0.00883 340.6 22.3
368(10) 0.00937 340.6 19.1
347(10) 0.01083 340.6 16.1
379(10) 0.00946 340.6 13.5
330(10) 0.01060 340.6 11.5
356(10) 0.00953 340.6 9.9
367(10) 0.00937 340.6 8.7
337(10) 0.01106 340.6 7.9
327(10) 0.01077 340.6 7.3
343(10) 0.01001 340.5 6.8
352(10) 0.00984 340.5 6.5
355(10) 0.01010 340.5 6.3
359(10) 0.01032 340.5 6.1
320(10) 0.01072 340.5 5.9
323(10) 0.01048 340.5 5.8
361(10) 0.00933 340.5 5.6
341(10) 0.01076 340.5 5.6
343(10) 0.01085 340.5 5.5
360(10) 0.00945 340.5 5.4
385(11) 0.00857 340.5 5.3
343(10) 0.01023 340.5 5.3
340(10) 0.01093 340.5 5.2
317(9) 0.01175 340.5 5.2
317(10) 0.01101 340.4 5.2
333(10) 0.00996 340.4 5.1
346(10) 0.01013 340.4 5.1
349(10) 0.01046 340.4 5.1
328(9) 0.01125 340.4 5.0
334(10) 0.01087 340.4 5.0
364(11) 0.00879 340.4 5.0
330(10) 0.01072 340.4 4.9
352(10) 0.01044 340.4 4.9
375(10) 0.00999 340.4 4.9
354(10) 0.00995 340.4 4.8
327(10) 0.00994 340.4 4.8
350(10) 0.00975 340.4 4.7
339(10) 0.01083 340.4 4.7
360(10) 0.01008 340.4 4.6
324(10) . . .
341(10) . . .
347(10) . . .
355(10) . . .
354(10) . . .
361(10) . . .
335(10) . . .
347(10) . . .
331(9) . . .
342(10) . . .
321(10) . . .
330(10) . . .
330(10) . . .
337(10) . . .
353(10) . . .
323(10) . . .
335(10) . . .
345(10) . . .
349(10) . . .
332(10) . . .
338(10) . . .
356(10) . . .
359(10) . . .
350(10) . . .
335(10) . . .
358(10) . . .
346(10) . . .
337(10) . . .
311(9) . . .
344(10) . . .
360(10) . . .
330(10) . . .
331(10) . . .
323(9) . . .
366(10) . . .
372(11) . . .
295(9) . . .
331(10) . . .
356(10) . . .
332(10) . . .
333(10) . . .
338(10) . . .
346(10) . . .
361(10) . . .
323(10) . . .
328(10) . . .
352(10) . . .
349(10) . . .
337(10) . . .
342(10) . . .
340(10) . . .
338(10) . . .
334(9) . . .
333(10) . . .
361(10) . . .
336(10) . . .
361(10) . . .
355(10) . . .
335(10) . . .
333(10) . . .
344(10) . . .
330(10) . . .
333(9) . . .
350(10) . . .
335(10) . . .
342(10) . . .
352(10) . . .
330(9) . . .
327(9) . . .
337(10) . . .
347(10) . . .
340(10) . . .
347(10) . . .
349(10) . . .
323(10) . . .
343(10) . . .
341(10) . . .
340(10) . . .
356(10) . . .
355(10) . . .
331(10) . . .
350(10) . . .
313(9) . . .
350(10) . . .
347(10) . . .
342(10) . . .
346(10) . . .
332(9) . . .
369(10) . . .
346(10) . . .
325(10) . . .
350(10) . . .
334(9) . . .
358(10) . . .
353(10) . . .
336(10) . . .
335(10) . . .
392(10) . . .
371(10) . . .
369(11) . . .
355(10) . . .
322(9) . . .
336(9) . . .
356(10) . . .
354(10) . . .
326(10) . . .
385(10) . . .
353(10) . . .
370(10) . . .
360(10) . . .
350(10) . . .
348(10) . . .
351(10) . . .
361(10) . . .
348(10) . . .
331(10) . . .
337(10) . . .
375(10) . . .
359(10) . . .
406(11) . . .
400(11) . . .
379(10) . . .
332(10) . . .
363(11) . . .
351(10) . . .
339(10) . . .
335(10) . . .
380(10) . . .
337(10) . . .
364(10) . . .
357(10) . . .
352(10) . . .
331(10) . . .
337(10) . . .
334(10) . . .
344(10) . . .
354(10) . . .
355(10) . . .
338(10) . . .
360(10) . . .
360(10) . . .
351(10) . . .
348(10) . . .
350(10) . . .
357(10) . . .
336(10) . . .
347(10) . . .
346(10) . . .
339(10) . . .
317(9) . . .
361(10) . . .
325(10) . . .
341(10) . . .
365(11) . . .
350(10) . . .
325(9) . . .
376(10) . . .
348(10) . . .
337(10) . . .
343(10) . . .
367(10) . . .
379(10) . . .
344(10) . . .
356(10) . . .
349(10) . . .
357(10) . . .
342(10) . . .
327(10) . . .
324(10) . . .
343(10) . . .
334(9) . . .
315(9) . . .
347(10) . . .
327(10) . . .
332(10) . . .
350(10) . . .
341(10) . . .
331(10) . . .
357(10) . . .
334(10) . . .
322(9) . . .
343(10) . . .
343(10) . . .
335(10) . . .
344(10) . . .
342(10) . . .
347(10) . . .
355(11) . . .
341(10) . . .
329(9) . . .
342(10) . . .
328(10) . . .
325(10) . . .
341(10) . . .
331(9) . . .
342(10) . . .
356(10) . . .
353(11) . . .
335(10) . . .
325(9) . . .
338(10) . . .
344(10) . . .
327(10) . . .
355(10) . . .
359(10) . . .
353(10) . . .
359(10) . . .
355(10) . . .
342(10) . . .
343(10) . . .
349(10) . . .
314(10) . . .
348(10) . . .
344(10) . . .
355(10) . . .
332(10) . . .
368(10) . . .
342(10) . . .
331(10) . . .
354(10) . . .
349(10) . . .
328(10) . . .
355(10) . . .
352(10) . . .
340(10) . . .
324(10) . . .
324(10) . . .
327(10) . . .
323(10) . . .
310(9) . . .
342(10) . . .
325(10) . . .
317(10) . . .
350(10) . . .
347(10) . . .
350(10) . . .
344(10) . . .
332(10) . . .
321(9) . . .
336(9) . . .
339(10) . . .
343(10) . . .
306(9) . . .
352(10) . . .
335(9) . . .
351(10) . . .
330(10) . . .
323(10) . . .
351(10) . . .
355(10) . . .
331(10) . . .
350(11) . . .
346(10) . . .
361(10) . . .
352(10) . . .
322(10) . . .
357(11) . . .
342(10) . . .
372(10) . . .
334(10) . . .
353(10) . . .
352(10) . . .
355(10) . . .
347(10) . . .
380(10) . . .
397(11) . . .
377(10) . . .
400(11) . . .
409(10) . . .
426(11) . . .
412(11) . . .
435(11) . . .
407(11) . . .
422(11) . . .
421(11) . . .
412(11) . . .
385(10) . . .
416(11) . . .
371(10) . . .
417(11) . . .
389(11) . . .
370(10) . . .
373(10) . . .
362(10) . . .
346(10) . . .
347(10) . . .
346(10) . . .
370(10) . . .
336(10) . . .
330(10) . . .
356(10) . . .
342(10) . . .
357(10) . . .
353(10) . . .
342(10) . . .
315(10) . . .
330(10) . . .
324(9) . . .
339(10) . . .
345(10) . . .
346(10) . . .
347(10) . . .
357(10) . . .
338(10) . . .
341(10) . . .
351(10) . . .
354(10) . . .
318(9) . . .
331(10) . . .
334(10) . . .
328(10) . . .
327(10) . . .
342(10) . . .
356(10) . . .
324(10) . . .
310(9) . . .
349(10) . . .
333(10) . . .
353(10) . . .
323(10) . . .
329(10) . . .
354(10) . . .
340(10) . . .
322(10) . . .
351(10) . . .
368(11) . . .
339(10) . . .
336(9) . . .
363(10) . . .
323(10) . . .
314(9) . . .
333(9) . . .
353(10) . . .
346(10) . . .
354(10) . . .
356(10) . . .
344(10) . . .
365(10) . . .
339(10) . . .
308(9) . . .
339(10) . . .
356(10) . . .
351(10) . . .
325(10) . . .
355(10) . . .
340(10) . . .
327(9) . . .
328(9) . . .
305(9) . . .
330(10) . . .
316(10) . . .
332(10) . . .
365(10) . . .
325(10) . . .
318(10) . . .
338(10) . . .
337(10) . . .
335(10) . . .
340(10) . . .
321(10) . . .
343(10) . . .
338(9) . . .
299(9) . . .
316(9) . . .
312(10) . . .
308(10) . . .
315(9) . . .
306(9) . . .
330(10) . . .
329(10) . . .
321(10) . . .
316(9) . . .
317(10) . . .
343(10) . . .
285(9) . . .
329(10) . . .
353(10) . . .
316(9) . . .
338(10) . . .
321(10) . . .
331(10) . . .
344(10) . . .
315(10) . . .
293(9) . . .
316(10) . . .
322(9) . . .
284(9) . . .
316(9) . . .
310(10) . . .
319(10) . . .
301(9) . . .
310(9) . . .
322(10) . . .
340(10) . . .
351(10) . . .
306(9) . . .
302(9) . . .
320(10) . . .
337(10) . . .
299(9) . . .
330(9) . . .
328(9) . . .
317(9) . . .
305(10) . . .
343(10) . . .
311(9) . . .
347(10) . . .
315(9) . . .
305(9) . . .
290(9) . . .
323(9) . . .
331(10) . . .
311(9) . . .
322(10) . . .
303(9) . . .
316(9) . . .
330(10) . . .
295(9) . . .
309(10) . . .
334(10) . . .
298(9) . . .
315(9) . . .
315(10) . . .
320(10) . . .
313(9) . . .
314(9) . . .
324(10) . . .
339(10) . . .
310(10) . . .
329(10) . . .
342(10) . . .
321(10) . . .
333(10) . . .
334(10) . . .
351(10) . . .
317(9) . . .
338(10) . . .
328(10) . . .
319(9) . . .
335(10) . . .
309(9) . . .
337(10) . . .
338(10) . . .
328(10) . . .
326(9) . . .
325(9) . . .
346(10) . . .
327(10) . . .
322(10) . . .
350(10) . . .
342(10) . . .
375(10) . . .
377(11) . . .
376(10) . . .
352(10) . . .
346(10) . . .
379(11) . . .
363(10) . . .
362(10) . . .
381(10) . . .
389(10) . . .
402(11) . . .
394(11) . . .
397(11) . . .
392(10) . . .
394(10) . . .
398(11) . . .
398(11) . . .
409(11) . . .
394(10) . . .
375(10) . . .
382(11) . . .
392(11) . . .
380(10) . . .
372(10) . . .
371(10) . . .
357(10) . . .
370(10) . . .
359(10) . . .
356(10) . . .
338(10) . . .
322(10) . . .
330(10) . . .
331(9) . . .
313(9) . . .
299(9) . . .
303(10) . . .
310(9) . . .
353(10) . . .
331(9) . . .
333(10) . . .
347(11) . . .
312(10) . . .
308(9) . . .
322(9) . . .
328(10) . . .
291(10) . . .
332(10) . . .
346(10) . . .
319(9) . . .
334(10) . . .
298(9) . . .
308(9) . . .
316(9) . . .
329(9) . . .
317(10) . . .
307(10) . . .
340(10) . . .
341(10) . . .
320(9) . . .
316(10) . . .
317(10) . . .
307(10) . . .
308(9) . . .
337(10) . . .
305(9) . . .
338(10) . . .
315(10) . . .
315(9) . . .
283(9) . . .
317(10) . . .
273(9) . . .
291(9) . . .
309(9) . . .
303(9) . . .
286(9) . . .
310(10) . . .
286(9) . . .
283(9) . . .
301(9) . . .
289(9) . . .
310(10) . . .
302(9) . . .
305(9) . . .
301(9) . . .
313(10) . . .
327(10) . . .
296(9) . . .
317(9) . . .
301(9) . . .
299(10) . . .
342(10) . . .
300(9) . . .
304(9) . . .
295(9) . . .
333(10) . . .
315(9) . . .
318(9) . . .
289(9) . . .
299(9) . . .
300(10) . . .
298(9) . . .
296(9) . . .
316(9) . . .
302(9) . . .
317(10) . . .
302(9) . . .
279(9) . . .
338(10) . . .
305(9) . . .
296(9) . . .
306(10) . . .
305(9) . . .
302(9) . . .
310(9) . . .
316(10) . . .
324(10) . . .
305(9) . . .
312(9) . . .
310(10) . . .
284(9) . . .
298(9) . . .
306(9) . . .
332(10) . . .
325(10) . . .
330(10) . . .
318(9) . . .
304(9) . . .
290(9) . . .
321(10) . . .
291(9) . . .
302(9) . . .
305(9) . . .
316(10) . . .
309(10) . . .
313(10) . . .
319(9) . . .
310(9) . . .
320(10) . . .
320(10) . . .
312(10) . . .
297(9) . . .
304(9) . . .
320(9) . . .
321(10) . . .
303(9) . . .
310(9) . . .
296(9) . . .
322(10) . . .
300(10) . . .
292(9) . . .
295(9) . . .
299(9) . . .
293(9) . . .
310(10) . . .
284(9) . . .
289(9) . . .
298(9) . . .
301(9) . . .
288(9) . . .
286(9) . . .
309(9) . . .
300(9) . . .
288(9) . . .
286(9) . . .
291(9) . . .
293(9) . . .
293(9) . . .
304(9) . . .
305(9) . . .
306(9) . . .
328(9) . . .
294(9) . . .
314(10) . . .
300(9) . . .
319(10) . . .
275(9) . . .
313(9) . . .
310(9) . . .
309(9) . . .
303(9) . . .
292(9) . . .
312(9) . . .
313(10) . . .
286(9) . . .
284(9) . . .
286(9) . . .
292(9) . . .
316(10) . . .
303(9) . . .
309(9) . . .
316(9) . . .
313(9) . . .
305(10) . . .
298(9) . . .
298(9) . . .
307(9) . . .
333(10) . . .
311(10) . . .
296(9) . . .
332(9) . . .
327(9) . . .
332(10) . . .
353(10) . . .
336(10) . . .
326(9) . . .
306(9) . . .
321(9) . . .
334(10) . . .
309(9) . . .
287(9) . . .
313(9) . . .
288(9) . . .
319(10) . . .
297(9) . . .
289(9) . . .
310(9) . . .
307(9) . . .
293(9) . . .
277(9) . . .
293(9) . . .
296(9) . . .
295(9) . . .
303(9) . . .
306(9) . . .
301(9) . . .
299(9) . . .
333(10) . . .
304(9) . . .
302(9) . . .
335(10) . . .
378(10) . . .
338(10) . . .
309(10) . . .
319(9) . . .
324(9) . . .
336(10) . . .
343(10) . . .
348(10) . . .
354(10) . . .
330(9) . . .
340(10) . . .
357(11) . . .
325(10) . . .
337(10) . . .
310(9) . . .
319(10) . . .
314(10) . . .
298(9) . . .
298(9) . . .
281(9) . . .
326(10) . . .
318(10) . . .
287(9) . . .
298(9) . . .
291(9) . . .
327(10) . . .
293(9) . . .
284(9) . . .
286(9) . . .
304(9) . . .
287(9) . . .
289(9) . . .
291(9) . . .
266(8) . . .
268(8) . . .
292(9) . . .
289(9) . . .
291(9) . . .
288(9) . . .
294(9) . . .
285(9) . . .
307(9) . . .
308(9) . . .
295(9) . . .
283(9) . . .
306(10) . . .
319(10) . . .
278(9) . . .
295(9) . . .
294(9) . . .
288(9) . . .
304(9) . . .
293(9) . . .
302(9) . . .
280(9) . . .
265(9) . . .
290(9) . . .
276(9) . . .
281(9) . . .
264(9) . . .
284(9) . . .
306(9) . . .
289(9) . . .
292(9) . . .
277(9) . . .
269(9) . . .
293(9) . . .
296(9) . . .
281(9) . . .
266(9) . . .
282(9) . . .
315(10) . . .
273(9) . . .
286(9) . . .
289(9) . . .
281(9) . . .
258(9) . . .
293(9) . . .
280(9) . . .
293(9) . . .
269(9) . . .
287(9) . . .
310(9) . . .
292(9) . . .
301(9) . . .
302(10) . . .
294(9) . . .
276(9) . . .
268(9) . . .
284(9) . . .
302(9) . . .
277(9) . . .
264(8) . . .
281(9) . . .
292(9) . . .
300(9) . . .
277(9) . . .
301(9) . . .
277(9) . . .
276(9) . . .
320(10) . . .
278(9) . . .
285(9) . . .
285(9) . . .
289(9) . . .
285(9) . . .
311(9) . . .
279(9) . . .
287(9) . . .
271(9) . . .
275(9) . . .
284(9) . . .
300(9) . . .
298(9) . . .
297(10) . . .
314(10) . . .
330(9) . . .
306(9) . . .
289(9) . . .
305(10) . . .
307(10) . . .
305(9) . . .
299(9) . . .
310(9) . . .
303(10) . . .
317(10) . . .
314(9) . . .
320(9) . . .
285(9) . . .
296(9) . . .
298(9) . . .
327(9) . . .
309(9) . . .
303(10) . . .
299(10) . . .
277(9) . . .
287(9) . . .
303(9) . . .
313(9) . . .
304(10) . . .
320(10) . . .
326(9) . . .
328(10) . . .
315(9) . . .
326(10) . . .
318(10) . . .
299(9) . . .
300(9) . . .
292(9) . . .
317(10) . . .
308(9) . . .
305(9) . . .
330(10) . . .
329(10) . . .
332(10) . . .
319(9) . . .
319(9) . . .
320(10) . . .
337(10) . . .
306(9) . . .
309(9) . . .
312(9) . . .
333(10) . . .
343(10) . . .
364(10) . . .
347(10) . . .
320(9) . . .
324(10) . . .
316(10) . . .
324(10) . . .
327(9) . . .
323(9) . . .
325(10) . . .
355(10) . . .
327(10) . . .
312(9) . . .
319(9) . . .
306(9) . . .
318(10) . . .
313(9) . . .
304(9) . . .
298(9) . . .
317(10) . . .
309(10) . . .
298(9) . . .
308(9) . . .
263(9) . . .
268(9) . . .
312(10) . . .
274(9) . . .
274(9) . . .
286(9) . . .
289(9) . . .
269(9) . . .
270(9) . . .
271(9) . . .
269(9) . . .
280(9) . . .
289(9) . . .
311(9) . . .
263(8) . . .
297(9) . . .
300(10) . . .
285(9) . . .
284(9) . . .
294(9) . . .
321(10) . . .
287(9) . . .
267(9) . . .
284(9) . . .
288(9) . . .
256(9) . . .
266(9) . . .
245(8) . . .
273(9) . . .
260(8) . . .
269(9) . . .
291(10) . . .
272(9) . . .
267(9) . . .
252(8) . . .
248(8) . . .
278(9) . . .
282(9) . . .
263(8) . . .
262(8) . . .
260(9) . . .
256(9) . . .
271(9) . . .
260(8) . . .
265(8) . . .
269(9) . . .
275(9) . . .
258(9) . . .
285(9) . . .
249(8) . . .
264(9) . . .
266(9) . . .
249(8) . . .
254(8) . . .
269(9) . . .
247(8) . . .
249(8) . . .
289(9) . . .
278(9) . . .
283(9) . . .
265(9) . . .
257(9) . . .
276(9) . . .
267(9) . . .
280(9) . . .
234(8) . . .
249(9) . . .
260(8) . . .
278(9) . . .
297(10) . . .
280(9) . . .
270(9) . . .
276(9) . . .
293(9) . . .
257(8) . . .
263(9) . . .
263(9) . . .
274(9) . . .
254(8) . . .
252(9) . . .
251(9) . . .
254(9) . . .
266(8) . . .
255(8) . . .
263(9) . . .
254(9) . . .
275(9) . . .
263(8) . . .
243(8) . . .
260(9) . . .
246(9) . . .
274(9) . . .
268(9) . . .
263(8) . . .
237(8) . . .
264(9) . . .
259(9) . . .
261(8) . . .
249(8) . . .
246(8) . . .
248(9) . . .
252(9) . . .
228(8) . . .
277(9) . . .
257(9) . . .
249(9) . . .
265(9) . . .
280(9) . . .
262(8) . . .
275(9) . . .
261(9) . . .
258(9) . . .
264(8) . . .
256(9) . . .
252(9) . . .
235(8) . . .
279(9) . . .
259(8) . . .
274(9) . . .
252(9) . . .
268(9) . . .
288(9) . . .
272(9) . . .
254(8) . . .
260(9) . . .
267(9) . . .
251(8) . . .
252(8) . . .
274(9) . . .
272(9) . . .
268(9) . . .
251(8) . . .
276(9) . . .
282(9) . . .
297(10) . . .
260(9) . . .
271(9) . . .
268(9) . . .
239(8) . . .
259(9) . . .
266(9) . . .
279(9) . . .
264(8) . . .
273(9) . . .
271(9) . . .
261(9) . . .
272(9) . . .
274(9) . . .
285(9) . . .
285(9) . . .
267(9) . . .
272(9) . . .
258(9) . . .
252(8) . . .
273(9) . . .
258(9) . . .
282(9) . . .
237(8) . . .
256(9) . . .
265(9) . . .
273(9) . . .
291(9) . . .
258(9) . . .
275(9) . . .
259(9) . . .
281(9) . . .
271(9) . . .
245(8) . . .
257(9) . . .
284(9) . . .
260(8) . . .
264(8) . . .
261(9) . . .
246(9) . . .
250(9) . . .
241(8) . . .
236(8) . . .
267(9) . . .
242(9) . . .
239(8) . . .
241(8) . . .
260(8) . . .
279(9) . . .
251(9) . . .
249(8) . . .
235(8) . . .
237(8) . . .
236(8) . . .
255(9) . . .
272(9) . . .
237(8) . . .
279(9) . . .
261(9) . . .
263(9) . . .
259(9) . . .
252(8) . . .
278(9) . . .
263(9) . . .
242(8) . . .
265(9) . . .
254(8) . . .
272(9) . . .
273(9) . . .
260(9) . . .
250(8) . . .
265(8) . . .
257(9) . . .
260(9) . . .
253(9) . . .
251(8) . . .
260(8) . . .
248(9) . . .
247(9) . . .
243(8) . . .
254(8) . . .
261(8) . . .
251(9) . . .
246(8) . . .
270(9) . . .
241(8) . . .
253(8) . . .
261(9) . . .
249(8) . . .
248(8) . . .
243(8) . . .
251(8) . . .
251(9) . . .
254(9) . . .
241(8) . . .
260(8) . . .
253(8) . . .
252(9) . . .
252(9) . . .
242(8) . . .
229(8) . . .
228(8) . . .
252(9) . . .
257(9) . . .
241(8) . . .
229(8) . . .
234(8) . . .
268(9) . . .
256(9) . . .
255(8) . . .
267(8) . . .
263(8) . . .
256(9) . . .
251(9) . . .
240(8) . . .
235(8) . . .
289(9) . . .
238(8) . . .
234(8) . . .
252(8) . . .
254(8) . . .
258(8) . . .
252(8) . . .
254(9) . . .
234(8) . . .
269(9) . . .
243(8) . . .
245(9) . . .
237(8) . . .
246(8) . . .
256(8) . . .
265(9) . . .
236(8) . . .
267(9) . . .
253(8) . . .
278(9) . . .
272(9) . . .
244(8) . . .
256(9) . . .
235(8) . . .
222(8) . . .
240(8) . . .
270(9) . . .
251(8) . . .
255(8) . . .
246(8) . . .
237(8) . . .
237(9) . . .
244(8) . . .
251(8) . . .
264(8) . . .
272(9) . . .
238(8) . . .
273(9) . . .
262(8) . . .
247(8) . . .
234(8) . . .
239(9) . . .
265(9) . . .
281(9) . . .
245(8) . . .
234(8) . . .
259(9) . . .
231(8) . . .
241(8) . . .
229(8) . . .
229(8) . . .
245(9) . . .
240(8) . . .
261(8) . . .
236(8) . . .
247(8) . . .
241(8) . . .
246(8) . . .
246(8) . . .
251(8) . . .
251(9) . . .
234(8) . . .
227(8) . . .
224(8) . . .
233(8) . . .
239(8) . . .
266(9) . . .
252(8) . . .
238(8) . . .
216(8) . . .
248(9) . . .
256(9) . . .
235(8) . . .
256(8) . . .
221(8) . . .
253(9) . . .
238(8) . . .
247(8) . . .
251(8) . . .
250(8) . . .
256(9) . . .
266(9) . . .
259(8) . . .
231(8) . . .
252(8) . . .
266(9) . . .
238(8) . . .
218(8) . . .
230(8) . . .
237(8) . . .
236(9) . . .
235(8) . . .
238(8) . . .
239(8) . . .
232(8) . . .
256(9) . . .
227(8) . . .
228(8) . . .
221(8) . . .
234(8) . . .
267(9) . . .
237(8) . . .
250(8) . . .
245(8) . . .
253(8) . . .
254(9) . . .
248(8) . . .
254(8) . . .
222(8) . . .
244(8) . . .
252(9) . . .
247(8) . . .
229(8) . . .
262(9) . . .
246(9) . . .
243(8) . . .
241(8) . . .
252(8) . . .
237(9) . . .
242(9) . . .
272(9) . . .
265(9) . . .
237(8) . . .
229(8) . . .
264(9) . . .
207(8) . . .
241(8) . . .
224(8) . . .
235(8) . . .
205(8) . . .
235(8) . . .
234(8) . . .
241(8) . . .
261(9) . . .
223(8) . . .
217(8) . . .
228(8) . . .
247(8) . . .
258(9) . . .
231(8) . . .
235(8) . . .
245(8) . . .
243(8) . . .
221(8) . . .
241(8) . . .
257(9) . . .
231(8) . . .
226(8) . . .
249(9) . . .
252(9) . . .
224(8) . . .
221(8) . . .
245(8) . . .
222(8) . . .
232(8) . . .
243(8) . . .
231(8) . . .
245(8) . . .
247(9) . . .
252(9) . . .
246(8) . . .
224(8) . . .
238(8) . . .
247(9) . . .
248(9) . . .
251(8) . . .
243(8) . . .
256(9) . . .
256(9) . . .
246(8) . . .
246(8) . . .
247(8) . . .
261(9) . . .
286(9) . . .
282(9) . . .
288(9) . . .
309(9) . . .
275(9) . . .
271(9) . . .
281(9) . . .
237(8) . . .
251(8) . . .
249(8) . . .
243(9) . . .
246(8) . . .
257(8) . . .
265(8) . . .
254(8) . . .
246(9) . . .
235(8) . . .
249(8) . . .
264(8) . . .
246(8) . . .
237(8) . . .
255(8) . . .
260(8) . . .
269(9) . . .
243(8) . . .
258(9) . . .
274(9) . . .
268(8) . . .
246(8) . . .
260(9) . . .
246(9) . . .
267(9) . . .
286(9) . . .
253(8) . . .
248(8) . . .
244(8) . . .
234(8) . . .
249(8) . . .
259(8) . . .
251(9) . . .
233(8) . . .
236(8) . . .
232(8) . . .
236(8) . . .
238(8) . . .
233(8) . . .
250(8) . . .
256(8) . . .
243(8) . . .
233(8) . . .
251(8) . . .
250(8) . . .
249(8) . . .
251(9) . . .
236(8) . . .
257(9) . . .
226(8) . . .
212(8) . . .
241(8) . . .
254(9) . . .
238(8) . . .
237(8) . . .
244(8) . . .
225(8) . . .
254(9) . . .
233(8) . . .
255(8) . . .
261(8) . . .
238(8) . . .
267(9) . . .
247(8) . . .
227(8) . . .
229(8) . . .
249(8) . . .
238(8) . . .
236(8) . . .
250(8) . . .
246(8) . . .
241(8) . . .
245(9) . . .
252(9) . . .
256(8) . . .
256(8) . . .
231(8) . . .
251(9) . . .
254(8) . . .
271(9) . . .
267(9) . . .
248(8) . . .
267(9) . . .
249(8) . . .
277(9) . . .
300(9) . . .
278(9) . . .
257(9) . . .
259(9) . . .
276(9) . . .
269(9) . . .
268(9) . . .
273(9) . . .
255(8) . . .
247(8) . . .
264(9) . . .
252(9) . . .
276(9) . . .
257(8) . . .
241(8) . . .
271(9) . . .
262(9) . . .
268(9) . . .
261(8) . . .
243(8) . . .
258(8) . . .
290(10) . . .
249(9) . . .
262(9) . . .
253(8) . . .
261(9) . . .
281(9) . . .
259(9) . . .
262(8) . . .
231(8) . . .
258(9) . . .
261(9) . . .
253(9) . . .
261(8) . . .
255(8) . . .
230(8) . . .
247(8) . . .
249(8) . . .
250(8) . . .
241(8) . . .
241(8) . . .
268(9) . . .
250(8) . . .
237(8) . . .
256(9) . . .
255(9) . . .
246(8) . . .
260(9) . . .
226(8) . . .
213(8) . . .
228(9) . . .
237(9) . . .
215(8) . . .
222(8) . . .
236(8) . . .
247(9) . . .
221(8) . . .
250(8) . . .
246(8) . . .
239(8) . . .
245(9) . . .
246(8) . . .
233(8) . . .
230(8) . . .
241(8) . . .
237(9) . . .
219(8) . . .
218(8) . . .
249(8) . . .
254(9) . . .
236(9) . . .
233(8) . . .
228(8) . . .
256(8) . . .
241(8) . . .
231(8) . . .
222(8) . . .
212(7) . . .
231(8) . . .
245(8) . . .
229(8) . . .
227(8) . . .
212(8) . . .
218(8) . . .
235(8) . . .
240(8) . . .
226(8) . . .
244(8) . . .
235(8) . . .
237(8) . . .
269(9) . . .
239(8) . . .
222(8) . . .
252(8) . . .
244(8) . . .
237(8) . . .
225(8) . . .
229(8) . . .
222(8) . . .
227(8) . . .
238(8) . . .
249(8) . . .
231(8) . . .
223(8) . . .
232(8) . . .
232(8) . . .
241(8) . . .
250(8) . . .
250(9) . . .
226(8) . . .
223(8) . . .
229(8) . . .
209(7) . . .
232(8) . . .
227(8) . . .
213(8) . . .
233(8) . . .
231(8) . . .
217(8) . . .
209(8) . . .
233(8) . . .
216(8) . . .
211(8) . . .
256(9) . . .
230(8) . . .
224(8) . . .
236(8) . . .
234(8) . . .
236(8) . . .
238(9) . . .
233(8) . . .
246(8) . . .
234(8) . . .
217(8) . . .
220(8) . . .
235(8) . . .
237(8) . . .
258(9) . . .
247(9) . . .
236(8) . . .
243(8) . . .
235(8) . . .
225(8) . . .
245(8) . . .
227(8) . . .
221(8) . . .
212(8) . . .
219(8) . . .
250(9) . . .
247(9) . . .
226(8) . . .
221(8) . . .
237(8) . . .
239(8) . . .
228(8) . . .
228(8) . . .
229(8) . . .
223(8) . . .
217(8) . . .
240(8) . . .
235(8) . . .
228(8) . . .
228(8) . . .
236(8) . . .
229(8) . . .
227(8) . . .
214(8) . . .
228(8) . . .
234(8) . . .
220(8) . . .
228(8) . . .
239(8) . . .
230(8) . . .
233(8) . . .
235(8) . . .
216(8) . . .
235(8) . . .
228(8) . . .
220(8) . . .
210(8) . . .
227(8) . . .
210(8) . . .
237(8) . . .
217(8) . . .
225(8) . . .
224(8) . . .
241(8) . . .
204(8) . . .
223(8) . . .
233(8) . . .
212(8) . . .
204(8) . . .
234(8) . . .
234(8) . . .
224(8) . . .
209(8) . . .
212(8) . . .
232(8) . . .
235(8) . . .
252(8) . . .
231(8) . . .
213(8) . . .
240(8) . . .
225(8) . . .
227(8) . . .
218(8) . . .
247(8) . . .
219(8) . . .
215(8) . . .
238(8) . . .
226(8) . . .
235(8) . . .
222(8) . . .
244(8) . . .
237(8) . . .
224(8) . . .
207(8) . . .
220(8) . . .
221(8) . . .
223(8) . . .
236(8) . . .
233(8) . . .
219(8) . . .
219(8) . . .
221(8) . . .
211(8) . . .
222(8) . . .
208(8) . . .
214(8) . . .
245(8) . . .
219(8) . . .
222(8) . . .
233(8) . . .
230(8) . . .
212(8) . . .
218(8) . . .
229(8) . . .
214(8) . . .
232(8) . . .
215(8) . . .
225(8) . . .
228(8) . . .
244(9) . . .
234(8) . . .
229(8) . . .
218(8) . . .
220(8) . . .
224(8) . . .
213(8) . . .
234(8) . . .
241(8) . . .
226(8) . . .
246(9) . . .
222(8) . . .
234(8) . . .
223(8) . . .
237(9) . . .
216(8) . . .
206(7) . . .
223(8) . . .
234(8) . . .
232(8) . . .
227(8) . . .
247(8) . . .
270(9) . . .
248(8) . . .
239(9) . . .
228(8) . . .
248(8) . . .
236(8) . . .
248(8) . . .
222(8) . . .
225(8) . . .
223(8) . . .
209(7) . . .
234(8) . . .
225(8) . . .
212(8) . . .
223(8) . . .
219(8) . . .
243(8) . . .
220(8) . . .
215(8) . . .
212(8) . . .
198(7) . . .
217(8) . . .
221(8) . . .
221(8) . . .
215(8) . . .
220(8) . . .
226(8) . . .
247(9) . . .
234(8) . . .
214(8) . . .
208(8) . . .
211(8) . . .
198(8) . . .
224(8) . . .
231(8) . . .
207(8) . . .
206(8) . . .
235(8) . . .
224(8) . . .
207(7) . . .
230(8) . . .
213(8) . . .
199(8) . . .
210(8) . . .
217(8) . . .
192(7) . . .
208(8) . . .
212(8) . . .
213(8) . . .
235(8) . . .
225(8) . . .
207(8) . . .
228(8) . . .
226(8) . . .
191(7) . . .
230(8) . . .
241(9) . . .
225(8) . . .
214(8) . . .
205(7) . . .
201(8) . . .
222(9) . . .
219(8) . . .
196(7) . . .
217(8) . . .
234(8) . . .
208(8) . . .
211(8) . . .
208(7) . . .
213(8) . . .
216(8) . . .
219(8) . . .
210(8) . . .
216(8) . . .
205(8) . . .
211(8) . . .
204(8) . . .
223(8) . . .
203(7) . . .
205(8) . . .
221(8) . . .
242(9) . . .
204(8) . . .
208(7) . . .
210(8) . . .
221(8) . . .
235(8) . . .
222(8) . . .
208(7) . . .
208(8) . . .
212(8) . . .
210(8) . . .
198(7) . . .
218(8) . . .
228(8) . . .
228(8) . . .
210(8) . . .
220(8) . . .
217(8) . . .
207(8) . . .
215(8) . . .
201(8) . . .
215(8) . . .
210(7) . . .
222(8) . . .
227(8) . . .
246(8) . . .
216(8) . . .
215(8) . . .
185(7) . . .
196(8) . . .
203(8) . . .
218(8) . . .
224(8) . . .
208(8) . . .
222(8) . . .
224(8) . . .
213(8) . . .
224(8) . . .
224(8) . . .
219(8) . . .
208(8) . . .
204(7) . . .
209(8) . . .
213(8) . . .
218(8) . . .
217(8) . . .
233(8) . . .
229(8) . . .
205(8) . . .
213(8) . . .
220(8) . . .
216(8) . . .
201(7) . . .
195(8) . . .
203(8) . . .
232(8) . . .
226(8) . . .
205(8) . . .
222(8) . . .
205(8) . . .
218(8) . . .
213(8) . . .
210(8) . . .
206(8) . . .
228(8) . . .
225(8) . . .
228(8) . . .
196(7) . . .
209(8) . . .
215(8) . . .
210(8) . . .
223(8) . . .
226(8) . . .
227(8) . . .
222(8) . . .
223(8) . . .
223(8) . . .
238(8) . . .
243(9) . . .
234(8) . . .
246(8) . . .
222(8) . . .
226(8) . . .
242(9) . . .
239(8) . . .
223(8) . . .
235(8) . . .
221(8) . . .
209(8) . . .
214(8) . . .
224(8) . . .
223(8) . . .
244(8) . . .
239(8) . . .
238(8) . . .
246(8) . . .
241(8) . . .
272(9) . . .
256(9) . . .
254(8) . . .
245(8) . . .
236(8) . . .
222(8) . . .
231(8) . . .
246(8) . . .
241(8) . . .
281(9) . . .
255(9) . . .
240(8) . . .
267(9) . . .
268(8) . . .
245(9) . . .
262(9) . . .
247(8) . . .
237(8) . . .
222(8) . . .
222(8) . . .
242(9) . . .
243(8) . . .
230(8) . . .
216(8) . . .
217(8) . . .
217(8) . . .
241(8) . . .
217(8) . . .
225(8) . . .
228(8) . . .
217(8) . . .
226(8) . . .
221(8) . . .
207(7) . . .
200(8) . . .
210(8) . . .
202(8) . . .
223(8) . . .
225(8) . . .
224(8) . . .
228(8) . . .
220(8) . . .
208(7) . . .
222(8) . . .
211(8) . . .
215(8) . . .
224(8) . . .
219(8) . . .
225(8) . . .
229(8) . . .
212(8) . . .
228(8) . . .
214(8) . . .
205(8) . . .
228(8) . . .
206(8) . . .
226(8) . . .
193(7) . . .
223(8) . . .
208(8) . . .
226(8) . . .
211(7) . . .
205(7) . . .
200(8) . . .
203(8) . . .
189(7) . . .
209(8) . . .
202(7) . . .
205(8) . . .
210(8) . . .
207(8) . . .
192(7) . . .
212(8) . . .
195(7) . . .
197(8) . . .
187(7) . . .
206(8) . . .
209(8) . . .
221(8) . . .
197(8) . . .
195(7) . . .
206(7) . . .
200(7) . . .
217(8) . . .
225(9) . . .
214(8) . . .
223(8) . . .
213(8) . . .
201(8) . . .
208(8) . . .
188(7) . . .
227(8) . . .
228(8) . . .
199(7) . . .
203(8) . . .
209(8) . . .
197(7) . . .
197(7) . . .
206(8) . . .
211(8) . . .
208(8) . . .
206(7) . . .
225(8) . . .
208(8) . . .
196(7) . . .
213(8) . . .
218(8) . . .
204(8) . . .
231(8) . . .
225(8) . . .
210(8) . . .
210(7) . . .
205(8) . . .
211(8) . . .
184(7) . . .
200(8) . . .
211(8) . . .
200(8) . . .
215(8) . . .
210(8) . . .
205(8) . . .
222(8) . . .
213(8) . . .
175(7) . . .
208(8) . . .
226(8) . . .
214(8) . . .
213(8) . . .
209(8) . . .
203(8) . . .
213(8) . . .
214(8) . . .
197(8) . . .
226(9) . . .
209(8) . . .
205(7) . . .
210(7) . . .
236(8) . . .
237(9) . . .
206(8) . . .
200(7) . . .
235(8) . . .
219(8) . . .
219(8) . . .
212(8) . . .
211(8) . . .
210(8) . . .
206(8) . . .
211(8) . . .
199(7) . . .
197(7) . . .
193(7) . . .
216(8) . . .
219(8) . . .
210(8) . . .
216(8) . . .
205(8) . . .
216(8) . . .
219(8) . . .
202(8) . . .
204(7) . . .
214(8) . . .
197(8) . . .
237(8) . . .
221(8) . . .
206(7) . . .
203(8) . . .
217(8) . . .
218(8) . . .
209(8) . . .
199(7) . . .
208(8) . . .
205(8) . . .
211(8) . . .
216(8) . . .
233(8) . . .
200(8) . . .
234(9) . . .
207(8) . . .
225(8) . . .
225(8) . . .
197(8) . . .
197(8) . . .
227(8) . . .
220(8) . . .
200(7) . . .
196(7) . . .
216(8) . . .
216(8) . . .
246(8) . . .
221(8) . . .
204(8) . . .
196(8) . . .
216(8) . . .
218(8) . . .
211(8) . . .
219(8) . . .
211(8) . . .
233(8) . . .
218(8) . . .
211(8) . . .
206(8) . . .
206(8) . . .
214(8) . . .
211(8) . . .
228(8) . . .
231(8) . . .
219(8) . . .
199(8) . . .
211(8) . . .
204(8) . . .
221(8) . . .
236(8) . . .
257(8) . . .
236(8) . . .
229(8) . . .
241(8) . . .
244(8) . . .
244(8) . . .
244(8) . . .
240(8) . . .
262(9) . . .
251(8) . . .
244(8) . . .
239(8) . . .
235(8) . . .
220(8) . . .
220(8) . . .
221(8) . . .
211(8) . . .
237(8) . . .
228(8) . . .
220(8) . . .
218(8) . . .
227(8) . . .
241(8) . . .
216(8) . . .
221(8) . . .
212(8) . . .
207(8) . . .
223(8) . . .
226(8) . . .
236(8) . . .
212(8) . . .
206(8) . . .
219(8) . . .
243(9) . . .
231(8) . . .
220(8) . . .
230(8) . . .
216(8) . . .
207(8) . . .
214(8) . . .
214(8) . . .
197(7) . . .
218(8) . . .
210(8) . . .
219(8) . . .
207(7) . . .
212(8) . . .
232(8) . . .
207(8) . . .
197(7) . . .
201(7) . . .
230(8) . . .
244(9) . . .
214(8) . . .
218(8) . . .
235(8) . . .
212(8) . . .
218(8) . . .
209(8) . . .
214(8) . . .
216(8) . . .
216(8) . . .
220(8) . . .
216(8) . . .
229(8) . . .
222(8) . . .
227(8) . . .
209(8) . . .
247(8) . . .
209(7) . . .
230(8) . . .
232(8) . . .
207(8) . . .
200(8) . . .
219(8) . . .
221(8) . . .
232(8) . . .
225(8) . . .
242(8) . . .
218(8) . . .
222(8) . . .
235(8) . . .
231(8) . . .
212(8) . . .
200(7) . . .
217(8) . . .
248(8) . . .
226(8) . . .
213(8) . . .
206(7) . . .
225(8) . . .
234(8) . . .
235(8) . . .
233(8) . . .
217(8) . . .
234(8) . . .
225(8) . . .
232(8) . . .
232(8) . . .
224(8) . . .
213(8) . . .
207(8) . . .
222(8) . . .
232(8) . . .
244(8) . . .
206(8) . . .
205(8) . . .
204(8) . . .
224(8) . . .
221(8) . . .
224(8) . . .
210(8) . . .
221(8) . . .
215(8) . . .
224(8) . . .
212(8) . . .
225(8) . . .
218(8) . . .
241(8) . . .
219(8) . . .
231(8) . . .
214(8) . . .
227(8) . . .
226(8) . . .
249(8) . . .
237(8) . . .
241(9) . . .
277(9) . . .
247(8) . . .
245(8) . . .
251(9) . . .
237(9) . . .
238(8) . . .
256(8) . . .
238(8) . . .
215(8) . . .
234(9) . . .
222(8) . . .
243(8) . . .
242(8) . . .
223(8) . . .
220(8) . . .
240(8) . . .
243(8) . . .
219(8) . . .
218(8) . . .
228(8) . . .
224(8) . . .
210(8) . . .
220(8) . . .
228(8) . . .
255(9) . . .
219(8) . . .
207(7) . . .
218(8) . . .
216(8) . . .
228(8) . . .
227(8) . . .
231(8) . . .
229(8) . . .
221(8) . . .
237(8) . . .
224(8) . . .
227(8) . . .
229(8) . . .
213(8) . . .
199(8) . . .
215(8) . . .
218(8) . . .
218(8) . . .
199(8) . . .
200(8) . . .
217(8) . . .
231(8) . . .
213(8) . . .
220(8) . . .
223(8) . . .
214(8) . . .
206(8) . . .
182(7) . . .
208(8) . . .
195(8) . . .
212(8) . . .
219(8) . . .
220(8) . . .
206(8) . . .
220(8) . . .
214(8) . . .
204(7) . . .
200(8) . . .
203(8) . . .
199(8) . . .
200(7) . . .
203(8) . . .
207(8) . . .
188(7) . . .
209(8) . . .
204(7) . . .
203(8) . . .
220(8) . . .
231(8) . . .
209(8) . . .
216(8) . . .
216(8) . . .
217(8) . . .
242(9) . . .
225(8) . . .
219(8) . . .
226(8) . . .
220(8) . . .
210(8) . . .
201(7) . . .
209(8) . . .
193(7) . . .
210(8) . . .
213(8) . . .
197(7) . . .
193(7) . . .
224(8) . . .
200(8) . . .
218(8) . . .
249(8) . . .
206(7) . . .
203(8) . . .
213(8) . . .
224(8) . . .
220(8) . . .
204(8) . . .
215(8) . . .
206(8) . . .
204(8) . . .
216(8) . . .
222(8) . . .
201(8) . . .
217(8) . . .
229(8) . . .
191(7) . . .
219(8) . . .
195(8) . . .
189(7) . . .
205(8) . . .
216(8) . . .
191(7) . . .
212(8) . . .
225(8) . . .
199(8) . . .
203(7) . . .
205(8) . . .
212(8) . . .
218(8) . . .
211(8) . . .
183(7) . . .
207(8) . . .
214(8) . . .
237(8) . . .
214(8) . . .
216(8) . . .
228(8) . . .
212(8) . . .
206(8) . . .
215(8) . . .
232(8) . . .
204(8) . . .
202(8) . . .
206(8) . . .
231(8) . . .
204(7) . . .
237(8) . . .
217(8) . . .
218(8) . . .
215(8) . . .
240(8) . . .
235(8) . . .
213(8) . . .
211(8) . . .
230(8) . . .
255(8) . . .
255(9) . . .
258(9) . . .
240(8) . . .
281(9) . . .
275(9) . . .
263(9) . . .
233(9) . . .
254(8) . . .
261(8) . . .
270(9) . . .
234(8) . . .
257(9) . . .
245(9) . . .
227(8) . . .
212(8) . . .
224(8) . . .
228(8) . . .
220(8) . . .
227(8) . . .
214(8) . . .
210(8) . . .
215(8) . . .
217(8) . . .
211(8) . . .
221(8) . . .
196(8) . . .
207(8) . . .
225(8) . . .
217(8) . . .
213(8) . . .
210(8) . . .
212(8) . . .
204(8) . . .
194(7) . . .
190(7) . . .
204(8) . . .
220(8) . . .
215(8) . . .
215(8) . . .
228(8) . . .
229(8) . . .
223(8) . . .
201(7) . . .
206(7) . . .
214(8) . . .
204(8) . . .
208(8) . . .
191(7) . . .
203(7) . . .
203(8) . . .
197(8) . . .
219(8) . . .
216(8) . . .
200(7) . . .
237(8) . . .
214(8) . . .
215(8) . . .
220(8) . . .
213(8) . . .
206(8) . . .
213(8) . . .
201(8) . . .
192(7) . . .
204(8) . . .
207(8) . . .
193(7) . . .
191(7) . . .
199(7) . . .
207(8) . . .
230(8) . . .
205(8) . . .
196(8) . . .
215(8) . . .
218(8) . . .
209(8) . . .
220(8) . . .
225(8) . . .
211(8) . . .
198(7) . . .
210(8) . . .
218(8) . . .
231(8) . . .
226(8) . . .
214(8) . . .
200(8) . . .
209(8) . . .
224(8) . . .
233(8) . . .
211(8) . . .
210(8) . . .
222(8) . . .
200(7) . . .
213(8) . . .
216(8) . . .
200(8) . . .
213(8) . . .
204(7) . . .
224(8) . . .
214(8) . . .
201(8) . . .
218(8) . . .
203(7) . . .
205(7) . . .
208(8) . . .
220(8) . . .
204(8) . . .
212(8) . . .
185(7) . . .
202(8) . . .
216(8) . . .
212(8) . . .
186(7) . . .
197(7) . . .
204(8) . . .
202(8) . . .
217(8) . . .
202(7) . . .
190(7) . . .
214(8) . . .
206(8) . . .
200(8) . . .
215(8) . . .
200(8) . . .
217(8) . . .
217(8) . . .
207(8) . . .
195(7) . . .
217(8) . . .
216(8) . . .
196(7) . . .
201(7) . . .
189(7) . . .
220(8) . . .
225(8) . . .
228(8) . . .
228(8) . . .
216(8) . . .
218(8) . . .
217(8) . . .
209(8) . . .
242(8) . . .
233(8) . . .
222(8) . . .
221(8) . . .
245(8) . . .
240(8) . . .
239(8) . . .
250(9) . . .
260(9) . . .
254(9) . . .
250(8) . . .
231(8) . . .
247(9) . . .
240(9) . . .
227(8) . . .
254(8) . . .
233(8) . . .
215(8) . . .
218(8) . . .
230(8) . . .
233(8) . . .
210(8) . . .
222(8) . . .
235(8) . . .
218(8) . . .
203(7) . . .
231(8) . . .
218(8) . . .
239(8) . . .
224(8) . . .
212(8) . . .
192(7) . . .
217(8) . . .
206(8) . . .
216(8) . . .
206(8) . . .
221(8) . . .
214(8) . . .
206(8) . . .
210(8) . . .
223(8) . . .
219(8) . . .
203(8) . . .
209(8) . . .
202(8) . . .
213(7) . . .
208(8) . . .
212(8) . . .
209(8) . . .
206(7) . . .
221(8) . . .
204(8) . . .
215(8) . . .
214(8) . . .
221(8) . . .
189(7) . . .
228(8) . . .
222(8) . . .
194(7) . . .
212(8) . . .
212(8) . . .
203(8) . . .
223(8) . . .
220(8) . . .
185(7) . . .
216(8) . . .
224(8) . . .
210(8) . . .
212(8) . . .
209(7) . . .
212(8) . . .
209(8) . . .
206(8) . . .
206(8) . . .
210(7) . . .
214(8) . . .
202(8) . . .
205(8) . . .
211(8) . . .
217(8) . . .
209(8) . . .
212(8) . . .
231(8) . . .
201(7) . . .
202(7) . . .
222(8) . . .
208(8) . . .
208(8) . . .
198(7) . . .
192(7) . . .
194(7) . . .
214(8) . . .
221(8) . . .
240(8) . . .
216(8) . . .
206(8) . . .
227(8) . . .
208(8) . . .
196(7) . . .
206(7) . . .
230(8) . . .
216(8) . . .
202(8) . . .
224(8) . . .
214(8) . . .
210(8) . . .
202(8) . . .
224(8) . . .
193(7) . . .
194(7) . . .
181(8) . . .
186(8) . . .
204(8) . . .
216(8) . . .
188(7) . . .
201(8) . . .
198(8) . . .
191(8) . . .
200(7) . . .
188(7) . . .
201(8) . . .
199(8) . . .
185(7) . . .
171(7) . . .
202(8) . . .
201(8) . . .
173(7) . . .
203(8) . . .
207(7) . . .
218(8) . . .
206(8) . . .
208(8) . . .
203(7) . . .
229(8) . . .
198(7) . . .
220(8) . . .
180(7) . . .
219(8) . . .
215(8) . . .
232(8) . . .
220(8) . . .
192(8) . . .
198(7) . . .
219(8) . . .
215(8) . . .
212(8) . . .
222(8) . . .
236(8) . . .
213(8) . . .
224(8) . . .
220(8) . . .
211(8) . . .
237(8) . . .
217(8) . . .
203(8) . . .
204(8) . . .
196(7) . . .
209(7) . . .
225(8) . . .
229(8) . . .
211(8) . . .
214(8) . . .
191(7) . . .
180(7) . . .
195(8) . . .
199(8) . . .
215(8) . . .
213(8) . . .
198(7) . . .
196(8) . . .
214(8) . . .
193(8) . . .
190(7) . . .
213(8) . . .
210(8) . . .
211(8) . . .
189(7) . . .
195(7) . . .
208(8) . . .
208(8) . . .
216(8) . . .
210(8) . . .
207(7) . . .
205(8) . . .
176(7) . . .
208(8) . . .
185(7) . . .
207(8) . . .
205(8) . . .
209(8) . . .
219(8) . . .
193(7) . . .
209(8) . . .
194(7) . . .
195(8) . . .
203(8) . . .
223(8) . . .
215(8) . . .
216(8) . . .
209(8) . . .
227(8) . . .
237(8) . . .
222(8) . . .
219(8) . . .
199(8) . . .
215(8) . . .
209(7) . . .
188(7) . . .
222(8) . . .
218(8) . . .
213(8) . . .
212(8) . . .
181(7) . . .
199(8) . . .
210(8) . . .
221(8) . . .
234(8) . . .
243(8) . . .
244(8) . . .
224(8) . . .
243(8) . . .
240(8) . . .
223(8) . . .
218(8) . . .
242(9) . . .
217(8) . . .
220(8) . . .
213(8) . . .
225(8) . . .
227(8) . . .
212(8) . . .
199(7) . . .
226(8) . . .
253(9) . . .
216(8) . . .
229(8) . . .
221(8) . . .
226(8) . . .
247(8) . . .
233(8) . . .
230(8) . . .
252(8) . . .
243(8) . . .
267(9) . . .
257(9) . . .
251(8) . . .
227(8) . . .
227(8) . . .
239(9) . . .
271(9) . . .
239(8) . . .
230(8) . . .
257(9) . . .
256(9) . . .
240(8) . . .
235(8) . . .
232(8) . . .
259(9) . . .
239(8) . . .
253(8) . . .
231(8) . . .
236(8) . . .
254(9) . . .
241(9) . . .
242(9) . . .
246(8) . . .
228(8) . . .
225(8) . . .
219(8) . . .
240(8) . . .
222(8) . . .
227(8) . . .
225(8) . . .
213(8) . . .
231(8) . . .
241(8) . . .
222(8) . . .
209(8) . . .
208(8) . . .
217(8) . . .
214(8) . . .
212(8) . . .
189(7) . . .
223(8) . . .
197(7) . . .
192(7) . . .
191(7) . . .
221(8) . . .
200(8) . . .
206(8) . . .
211(8) . . .
210(8) . . .
204(8) . . .
186(7) . . .
195(7) . . .
202(7) . . .
194(7) . . .
209(8) . . .
222(8) . . .
223(8) . . .
215(8) . . .
217(8) . . .
216(8) . . .
228(8) . . .
226(8) . . .
215(8) . . .
219(8) . . .
211(8) . . .
203(8) . . .
198(7) . . .
220(8) . . .
226(8) . . .
216(8) . . .
227(8) . . .
215(8) . . .
199(7) . . .
208(8) . . .
221(8) . . .
225(8) . . .
225(8) . . .
215(8) . . .
194(7) . . .
207(8) . . .
215(8) . . .
202(7) . . .
201(7) . . .
214(8) . . .
222(8) . . .
217(8) . . .
214(8) . . .
212(8) . . .
220(8) . . .
205(8) . . .
208(8) . . .
195(7) . . .
191(7) . . .
194(8) . . .
203(8) . . .
192(7) . . .
205(7) . . .
205(8) . . .
209(8) . . .
195(8) . . .
194(7) . . .
198(7) . . .
191(7) . . .
195(8) . . .
215(8) . . .
205(7) . . .
187(7) . . .
207(8) . . .
216(8) . . .
207(8) . . .
209(8) . . .
219(8) . . .
204(8) . . .
214(8) . . .
218(8) . . .
196(7) . . .
206(7) . . .
190(7) . . .
183(8) . . .
202(8) . . .
198(7) . . .
200(7) . . .
201(8) . . .
212(8) . . .
214(8) . . .
206(7) . . .
208(8) . . .
207(8) . . .
205(8) . . .
196(7) . . .
199(7) . . .
221(8) . . .
214(8) . . .
218(8) . . .
204(8) . . .
206(7) . . .
204(8) . . .
224(8) . . .
194(7) . . .
193(7) . . .
192(7) . . .
184(7) . . .
234(8) . . .
209(8) . . .
202(8) . . .
204(7) . . .
230(8) . . .
236(8) . . .
207(8) . . .
191(7) . . .
197(7) . . .
192(7) . . .
222(8) . . .
197(7) . . .
211(8) . . .
205(7) . . .
212(8) . . .
223(8) . . .
231(8) . . .
218(8) . . .
217(8) . . .
227(8) . . .
224(8) . . .
221(8) . . .
197(7) . . .
225(8) . . .
190(7) . . .
206(8) . . .
212(8) . . .
189(7) . . .
230(8) . . .
224(8) . . .
255(9) . . .
231(8) . . .
226(8) . . .
230(8) . . .
231(8) . . .
211(8) . . .
205(8) . . .
209(7) . . .
214(8) . . .
224(8) . . .
231(8) . . .
231(8) . . .
197(7) . . .
239(8) . . .
236(9) . . .
234(8) . . .
210(8) . . .
230(8) . . .
193(7) . . .
221(8) . . .
204(8) . . .
209(8) . . .
197(7) . . .
199(8) . . .
211(8) . . .
217(8) . . .
206(8) . . .
215(8) . . .
201(7) . . .
197(8) . . .
204(8) . . .
207(8) . . .
218(8) . . .
206(8) . . .
206(8) . . .
203(8) . . .
193(7) . . .
200(7) . . .
222(8) . . .
236(8) . . .
235(8) . . .
215(8) . . .
221(8) . . .
206(8) . . .
221(8) . . .
248(9) . . .
248(8) . . .
244(8) . . .
254(8) . . .
239(8) . . .
221(8) . . .
238(8) . . .
234(8) . . .
223(8) . . .
246(9) . . .
209(8) . . .
209(8) . . .
224(8) . . .
208(8) . . .
218(8) . . .
203(8) . . .
200(7) . . .
213(8) . . .
225(8) . . .
202(8) . . .
214(8) . . .
220(8) . . .
207(8) . . .
224(8) . . .
200(8) . . .
214(8) . . .
228(8) . . .
196(7) . . .
197(7) . . .
222(8) . . .
225(8) . . .
228(8) . . .
210(8) . . .
208(8) . . .
227(8) . . .
210(8) . . .
220(8) . . .
225(8) . . .
199(7) . . .
226(8) . . .
223(8) . . .
227(8) . . .
192(7) . . .
236(9) . . .
199(7) . . .
231(8) . . .
223(8) . . .
217(8) . . .
232(8) . . .
212(8) . . .
242(8) . . .
207(7) . . .
211(8) . . .
206(8) . . .
205(8) . . .
217(8) . . .
215(8) . . .
209(8) . . .
233(8) . . .
212(8) . . .
198(7) . . .
220(8) . . .
193(7) . . .
200(8) . . .
201(8) . . .
201(7) . . .
202(7) . . .
210(8) . . .
191(7) . . .
215(8) . . .
207(7) . . .
208(8) . . .
228(8) . . .
220(8) . . .
206(8) . . .
200(7) . . .
208(8) . . .
205(8) . . .
201(8) . . .
226(8) . . .
200(7) . . .
226(8) . . .
213(8) . . .
219(8) . . .
207(8) . . .
216(8) . . .
199(8) . . .
204(8) . . .
210(8) . . .
215(8) . . .
205(7) . . .
210(8) . . .
198(8) . . .
195(7) . . .
203(7) . . .
212(8) . . .
213(8) . . .
231(9) . . .
206(8) . . .
192(7) . . .
211(8) . . .
196(7) . . .
203(8) . . .
202(8) . . .
204(7) . . .
203(7) . . .
213(8) . . .
189(8) . . .
200(8) . . .
215(8) . . .
195(7) . . .
197(7) . . .
202(8) . . .
207(8) . . .
204(7) . . .
191(7) . . .
208(8) . . .
202(8) . . .
218(8) . . .
204(7) . . .
193(7) . . .
207(8) . . .
210(8) . . .
205(8) . . .
216(8) . . .
212(8) . . .
213(8) . . .
182(7) . . .
202(8) . . .
188(7) . . .
201(8) . . .
208(8) . . .
191(7) . . .
216(8) . . .
199(7) . . .
223(8) . . .
206(8) . . .
210(8) . . .
203(7) . . .
200(7) . . .
207(8) . . .
215(8) . . .
199(7) . . .
223(8) . . .
203(7) . . .
209(8) . . .
190(7) . . .
217(8) . . .
205(7) . . .
211(8) . . .
213(8) . . .
207(8) . . .
203(8) . . .
214(8) . . .
223(8) . . .
226(8) . . .
227(8) . . .
217(8) . . .
215(8) . . .
234(8) . . .
227(8) . . .
212(8) . . .
217(8) . . .
207(7) . . .
197(7) . . .
226(8) . . .
220(8) . . .
216(8) . . .
233(8) . . .
229(8) . . .
230(8) . . .
238(8) . . .
205(8) . . .
210(8) . . .
196(7) . . .
223(8) . . .
240(8) . . .
203(8) . . .
211(8) . . .
218(8) . . .
208(8) . . .
219(8) . . .
232(8) . . .
204(7) . . .
212(8) . . .
202(8) . . .
204(7) . . .
230(8) . . .
197(7) . . .
199(8) . . .
197(8) . . .
204(8) . . .
221(8) . . .
209(7) . . .
215(8) . . .
232(9) . . .
224(8) . . .
200(7) . . .
206(7) . . .
212(8) . . .
184(7) . . .
231(8) . . .
228(8) . . .
193(7) . . .
189(7) . . .
201(8) . . .
209(8) . . .
221(8) . . .
192(7) . . .
185(7) . . .
215(8) . . .
202(8) . . .
222(8) . . .
211(8) . . .
213(8) . . .
211(8) . . .
206(8) . . .
204(7) . . .
221(8) . . .
215(8) . . .
208(8) . . .
207(8) . . .
205(7) . . .
200(7) . . .
206(8) . . .
185(7) . . .
188(7) . . .
197(7) . . .
209(8) . . .
203(7) . . .
207(8) . . .
209(8) . . .
195(7) . . .
201(8) . . .
196(8) . . .
192(7) . . .
195(7) . . .
194(7) . . .
210(8) . . .
201(8) . . .
195(8) . . .
211(8) . . .
207(7) . . .
204(8) . . .
189(7) . . .
209(8) . . .
202(7) . . .
200(7) . . .
217(8) . . .
199(8) . . .
204(8) . . .
202(7) . . .
198(7) . . .
202(8) . . .
206(8) . . .
220(8) . . .
222(8) . . .
187(7) . . .
204(8) . . .
201(8) . . .
196(7) . . .
202(7) . . .
217(8) . . .
204(8) . . .
201(8) . . .
200(8) . . .
204(7) . . .
209(8) . . .
214(8) . . .
214(8) . . .
206(8) . . .
185(7) . . .
197(7) . . .
190(8) . . .
194(8) . . .
218(8) . . .
195(7) . . .
202(8) . . .
215(8) . . .
210(8) . . .
213(8) . . .
197(7) . . .
202(8) . . .
200(8) . . .
187(7) . . .
208(8) . . .
203(7) . . .
213(8) . . .
195(8) . . .
201(8) . . .
214(8) . . .
209(8) . . .
215(8) . . .
201(8) . . .
198(8) . . .
184(7) . . .
199(7) . . .
200(7) . . .
209(8) . . .
186(7) . . .
208(8) . . .
203(7) . . .
197(8) . . .
219(8) . . .
225(8) . . .
217(8) . . .
198(7) . . .
193(7) . . .
196(8) . . .
201(8) . . .
198(7) . . .
205(8) . . .
191(7) . . .
203(8) . . .
200(8) . . .
188(7) . . .
188(7) . . .
198(7) . . .
230(8) . . .
208(8) . . .
226(8) . . .
213(8) . . .
195(8) . . .
202(8) . . .
210(8) . . .
219(8) . . .
212(8) . . .
192(8) . . .
222(8) . . .
212(8) . . .
206(7) . . .
207(8) . . .
213(8) . . .
196(8) . . .
206(8) . . .
211(8) . . .
202(8) . . .
192(7) . . .
222(8) . . .
217(8) . . .
192(7) . . .
178(7) . . .
197(8) . . .
206(8) . . .
209(8) . . .
186(7) . . .
208(8) . . .
224(8) . . .
208(8) . . .
203(7) . . .
202(7) . . .
197(7) . . .
209(8) . . .
217(8) . . .
222(8) . . .
230(8) . . .
205(8) . . .
212(8) . . .
208(8) . . .
183(7) . . .
191(7) . . .
217(8) . . .
222(8) . . .
192(7) . . .
194(7) . . .
196(8) . . .
195(8) . . .
198(8) . . .
212(8) . . .
222(8) . . .
218(8) . . .
201(8) . . .
196(8) . . .
201(8) . . .
215(8) . . .
216(8) . . .
202(8) . . .
197(8) . . .
210(8) . . .
184(7) . . .
184(7) . . .
187(7) . . .
181(7) . . .
195(7) . . .
203(7) . . .
200(8) . . .
199(8) . . .
190(7) . . .
187(7) . . .
208(8) . . .
198(8) . . .
212(8) . . .
213(8) . . .
225(8) . . .
210(8) . . .
217(8) . . .
215(8) . . .
201(7) . . .
218(8) . . .
200(7) . . .
195(8) . . .
213(8) . . .
211(8) . . .
229(8) . . .
211(8) . . .
200(7) . . .
194(7) . . .
217(8) . . .
204(7) . . .
201(7) . . .
188(7) . . .
207(8) . . .
204(8) . . .
207(8) . . .
206(7) . . .
195(7) . . .
204(8) . . .
187(7) . . .
199(7) . . .
195(7) . . .
214(8) . . .
204(8) . . .
195(8) . . .
208(8) . . .
200(7) . . .
206(8) . . .
204(8) . . .
217(8) . . .
199(7) . . .
195(7) . . .
182(7) . . .
205(8) . . .
202(8) . . .
187(7) . . .
196(8) . . .
191(7) . . .
173(7) . . .
205(8) . . .
183(7) . . .
175(7) . . .
196(8) . . .
197(7) . . .
182(7) . . .
207(7) . . .
208(8) . . .
201(8) . . .
199(7) . . .
214(8) . . .
188(7) . . .
202(8) . . .
198(8) . . .
188(7) . . .
197(7) . . .
207(8) . . .
180(7) . . .
199(8) . . .
213(8) . . .
235(8) . . .
207(7) . . .
192(8) . . .
213(8) . . .
202(8) . . .
200(7) . . .
206(8) . . .
219(8) . . .
194(8) . . .
206(8) . . .
209(7) . . .
221(8) . . .
207(8) . . .
204(8) . . .
216(8) . . .
215(8) . . .
207(8) . . .
202(8) . . .
200(8) . . .
194(7) . . .
210(8) . . .
186(7) . . .
204(8) . . .
215(8) . . .
198(7) . . .
193(7) . . .
196(7) . . .
228(8) . . .
206(8) . . .
203(7) . . .
224(8) . . .
202(8) . . .
211(8) . . .
199(8) . . .
191(7) . . .
203(7) . . .
204(8) . . .
199(8) . . .
188(7) . . .
192(7) . . .
200(7) . . .
193(7) . . .
199(8) . . .
208(8) . . .
215(8) . . .
213(8) . . .
200(8) . . .
207(8) . . .
201(8) . . .
199(7) . . .
192(7) . . .
196(8) . . .
202(8) . . .
184(7) . . .
184(7) . . .
184(7) . . .
191(7) . . .
200(8) . . .
215(8) . . .
198(7) . . .
191(7) . . .
186(7) . . .
193(8) . . .
195(8) . . .
205(7) . . .
203(7) . . .
218(8) . . .
220(8) . . .
194(7) . . .
203(7) . . .
194(7) . . .
221(8) . . .
214(8) . . .
204(7) . . .
206(7) . . .
196(7) . . .
196(8) . . .
198(7) . . .
195(7) . . .
193(7) . . .
211(8) . . .
202(8) . . .
185(7) . . .
200(7) . . .
173(7) . . .
194(8) . . .
182(7) . . .
175(7) . . .
195(7) . . .
183(7) . . .
176(7) . . .
191(7) . . .
183(7) . . .
193(7) . . .
216(8) . . .
199(8) . . .
173(7) . . .
187(7) . . .
186(7) . . .
191(7) . . .
183(7) . . .
183(7) . . .
210(8) . . .
189(7) . . .
188(7) . . .
195(8) . . .
179(7) . . .
191(8) . . .
167(7) . . .
193(7) . . .
190(7) . . .
188(7) . . .
192(7) . . .
202(7) . . .
198(7) . . .
196(8) . . .
199(8) . . .
192(7) . . .
207(7) . . .
195(7) . . .
186(7) . . .
190(7) . . .
186(7) . . .
205(7) . . .
203(8) . . .
192(7) . . .
192(8) . . .
188(7) . . .
198(7) . . .
191(7) . . .
170(7) . . .
198(7) . . .
187(7) . . .
213(8) . . .
197(8) . . .
179(7) . . .
187(7) . . .
219(8) . . .
197(7) . . .
187(7) . . .
181(7) . . .
190(8) . . .
197(7) . . .
194(7) . . .
195(7) . . .
207(8) . . .
217(8) . . .
211(8) . . .
193(7) . . .
190(8) . . .
218(8) . . .
203(8) . . .
183(7) . . .
200(7) . . .
181(7) . . .
186(8) . . .
205(8) . . .
208(7) . . .
200(7) . . .
194(7) . . .
189(8) . . .
188(7) . . .
197(7) . . .
193(7) . . .
186(7) . . .
166(7) . . .
178(7) . . .
188(7) . . .
185(7) . . .
178(7) . . .
211(8) . . .
197(7) . . .
206(7) . . .
195(7) . . .
196(7) . . .
214(8) . . .
193(7) . . .
203(7) . . .
195(7) . . .
192(8) . . .
194(8) . . .
208(8) . . .
178(7) . . .
179(7) . . .
203(8) . . .
192(7) . . .
185(7) . . .
189(7) . . .
188(7) . . .
200(8) . . .
192(7) . . .
195(7) . . .
172(7) . . .
195(8) . . .
187(8) . . .
193(8) . . .
182(7) . . .
200(7) . . .
193(7) . . .
193(8) . . .
192(7) . . .
187(7) . . .
180(7) . . .
193(8) . . .
177(8) . . .
179(7) . . .
195(7) . . .
199(7) . . .
201(8) . . .
200(8) . . .
192(7) . . .
213(7) . . .
200(7) . . .
201(8) . . .
187(7) . . .
189(7) . . .
199(7) . . .
214(8) . . .
192(8) . . .
191(8) . . .
201(7) . . .
181(7) . . .
183(7) . . .
189(7) . . .
189(7) . . .
197(7) . . .
190(7) . . .
189(8) . . .
203(8) . . .
186(7) . . .
198(7) . . .
200(7) . . .
191(8) . . .
194(8) . . .
193(8) . . .
201(7) . . .
206(7) . . .
184(7) . . .
190(8) . . .
193(7) . . .
178(7) . . .
183(7) . . .
198(8) . . .
213(8) . . .
211(8) . . .
182(7) . . .
194(7) . . .
197(8) . . .
189(8) . . .
216(8) . . .
196(7) . . .
190(7) . . .
202(8) . . .
197(8) . . .
193(7) . . .
196(7) . . .
183(7) . . .
193(8) . . .
189(8) . . .
181(7) . . .
205(7) . . .
168(7) . . .
174(7) . . .
200(8) . . .
194(8) . . .
186(7) . . .
187(7) . . .
193(8) . . .
204(8) . . .
193(7) . . .
180(7) . . .
205(8) . . .
197(8) . . .
186(7) . . .
193(7) . . .
216(8) . . .
184(7) . . .
199(8) . . .
182(7) . . .
179(7) . . .
213(8) . . .
169(7) . . .
194(8) . . .
194(7) . . .
190(7) . . .
195(7) . . .
204(8) . . .
187(8) . . .
181(7) . . .
198(7) . . .
207(7) . . .
217(8) . . .
193(8) . . .
203(8) . . .
214(8) . . .
187(7) . . .
189(7) . . .
214(8) . . .
195(8) . . .
187(7) . . .
191(7) . . .
202(8) . . .
188(8) . . .
191(7) . . .
203(7) . . .
192(7) . . .
189(7) . . .
204(8) . . .
197(8) . . .
190(7) . . .
199(7) . . .
211(8) . . .
195(8) . . .
177(7) . . .
203(7) . . .
199(7) . . .
192(7) . . .
192(8) . . .
176(7) . . .
191(7) . . .
177(7) . . .
182(7) . . .
190(7) . . .
210(8) . . .
192(7) . . .
185(7) . . .
184(7) . . .
193(8) . . .
207(8) . . .
203(7) . . .
216(8) . . .
217(8) . . .
175(7) . . .
187(7) . . .
194(7) . . .
171(7) . . .
206(8) . . .
188(7) . . .
176(7) . . .
186(7) . . .
204(8) . . .
194(8) . . .
183(7) . . .
197(7) . . .
194(7) . . .
173(7) . . .
207(8) . . .
183(7) . . .
205(7) . . .
189(7) . . .
187(7) . . .
180(7) . . .
196(8) . . .
190(7) . . .
218(8) . . .
204(8) . . .
189(7) . . .
199(7) . . .
191(7) . . .
211(8) . . .
187(7) . . .
176(7) . . .
185(7) . . .
202(7) . . .
195(7) . . .
207(8) . . .
193(8) . . .
189(7) . . .
187(7) . . .
194(7) . . .
199(8) . . .
201(8) . . .
202(7) . . .
211(8) . . .
213(8) . . .
198(7) . . .
226(8) . . .
202(7) . . .
202(7) . . .
194(7) . . .
185(7) . . .
170(7) . . .
203(8) . . .
202(7) . . .
209(8) . . .
178(7) . . .
196(7) . . .
199(8) . . .
198(7) . . .
186(7) . . .
203(8) . . .
172(7) . . .
202(7) . . .
208(7) . . .
212(8) . . .
202(8) . . .
200(8) . . .
179(7) . . .
191(7) . . .
187(7) . . .
194(8) . . .
207(8) . . .
199(7) . . .
193(7) . . .
227(8) . . .
195(8) . . .
199(8) . . .
182(7) . . .
188(7) . . .
196(8) . . .
208(8) . . .
203(8) . . .
186(7) . . .
173(7) . . .
179(7) . . .
177(7) . . .
202(8) . . .
195(7) . . .
183(7) . . .
186(7) . . .
202(8) . . .
194(8) . . .
202(7) . . .
182(7) . . .
189(8) . . .
176(7) . . .
190(7) . . .
193(7) . . .
201(8) . . .
195(8) . . .
188(7) . . .
182(7) . . .
197(7) . . .
201(8) . . .
205(8) . . .
203(8) . . .
219(8) . . .
196(7) . . .
199(8) . . .
200(8) . . .
189(7) . . .
184(7) . . .
180(7) . . .
192(8) . . .
176(7) . . .
173(7) . . .
175(7) . . .
184(7) . . .
189(8) . . .
192(8) . . .
181(7) . . .
188(7) . . .
195(7) . . .
181(7) . . .
181(7) . . .
190(7) . . .
171(7) . . .
189(7) . . .
189(7) . . .
191(8) . . .
177(7) . . .
183(7) . . .
187(7) . . .
189(7) . . .
190(8) . . .
200(7) . . .
194(7) . . .
205(8) . . .
202(8) . . .
185(7) . . .
183(7) . . .
174(7) . . .
183(7) . . .
168(7) . . .
198(8) . . .
182(7) . . .
184(7) . . .
183(7) . . .
186(7) . . .
190(7) . . .
188(7) . . .
194(7) . . .
197(8) . . .
201(8) . . .
189(7) . . .
192(7) . . .
197(7) . . .
183(7) . . .
191(8) . . .
192(7) . . .
175(7) . . .
198(7) . . .
186(7) . . .
214(8) . . .
193(7) . . .
201(7) . . .
211(8) . . .
206(8) . . .
200(8) . . .
203(8) . . .
202(7) . . .
204(7) . . .
195(7) . . .
201(8) . . .
196(7) . . .
201(7) . . .
189(7) . . .
188(7) . . .
211(8) . . .
208(8) . . .
189(7) . . .
179(7) . . .
203(8) . . .
197(8) . . .
186(7) . . .
200(7) . . .
217(8) . . .
199(8) . . .
178(7) . . .
179(7) . . .
194(7) . . .
189(7) . . .
188(7) . . .
200(8) . . .
194(7) . . .
199(7) . . .
178(7) . . .
196(8) . . .
197(8) . . .
179(7) . . .
194(7) . . .
205(8) . . .
204(8) . . .
209(8) . . .
199(8) . . .
175(7) . . .
177(7) . . .
200(8) . . .
189(7) . . .
209(8) . . .
199(7) . . .
200(8) . . .
205(8) . . .
186(7) . . .
187(7) . . .
192(7) . . .
219(8) . . .
212(8) . . .
198(7) . . .
203(7) . . .
213(8) . . .
211(8) . . .
203(8) . . .
182(7) . . .
198(7) . . .
183(7) . . .
195(8) . . .
197(8) . . .
192(7) . . .
189(7) . . .
198(7) . . .
203(8) . . .
199(8) . . .
205(8) . . .
200(7) . . .
200(7) . . .
178(7) . . .
180(7) . . .
186(7) . . .
212(8) . . .
210(8) . . .
208(8) . . .
211(8) . . .
210(8) . . .
211(7) . . .
189(7) . . .
208(8) . . .
198(8) . . .
192(7) . . .
195(7) . . .
197(7) . . .
209(8) . . .
190(7) . . .
217(8) . . .
221(8) . . .
212(8) . . .
192(7) . . .
191(7) . . .
199(7) . . .
189(7) . . .
191(7) . . .
205(8) . . .
200(8) . . .
186(7) . . .
213(8) . . .
225(8) . . .
203(8) . . .
206(8) . . .
218(8) . . .
224(8) . . .
208(8) . . .
193(8) . . .
196(8) . . .
198(7) . . .
182(7) . . .
217(8) . . .
199(8) . . .
175(7) . . .
201(7) . . .
230(8) . . .
198(8) . . .
191(7) . . .
232(8) . . .
218(8) . . .
202(7) . . .
189(7) . . .
185(8) . . .
171(7) . . .
200(7) . . .
200(7) . . .
188(7) . . .
190(7) . . .
191(7) . . .
182(7) . . .
198(7) . . .
214(8) . . .
179(7) . . .
201(8) . . .
195(7) . . .
202(8) . . .
196(8) . . .
197(7) . . .
190(7) . . .
183(7) . . .
167(7) . . .
189(7) . . .
216(8) . . .
199(7) . . .
188(7) . . .
188(7) . . .
191(8) . . .
181(7) . . .
194(7) . . .
204(7) . . .
183(7) . . .
175(7) . . .
205(8) . . .
215(8) . . .
198(7) . . .
187(7) . . .
182(8) . . .
189(7) . . .
188(7) . . .
211(8) . . .
180(7) . . .
185(8) . . .
200(8) . . .
194(7) . . .
191(7) . . .
198(8) . . .
198(8) . . .
213(8) . . .
193(7) . . .
198(7) . . .
189(7) . . .
173(7) . . .
197(8) . . .
186(7) . . .
169(7) . . .
186(7) . . .
184(7) . . .
191(8) . . .
186(7) . . .
200(8) . . .
176(7) . . .
180(7) . . .
190(7) . . .
169(7) . . .
177(7) . . .
198(8) . . .
185(7) . . .
182(7) . . .
184(7) . . .
196(8) . . .
180(7) . . .
178(7) . . .
179(7) . . .
187(7) . . .
188(7) . . .
181(7) . . .
175(7) . . .
181(7) . . .
174(7) . . .
181(7) . . .
200(8) . . .
194(8) . . .
200(7) . . .
186(7) . . .
183(7) . . .
184(7) . . .
192(7) . . .
190(7) . . .
192(7) . . .
187(7) . . .
178(7) . . .
178(7) . . .
166(7) . . .
199(7) . . .
212(8) . . .
184(7) . . .
185(7) . . .
179(7) . . .
210(8) . . .
181(7) . . .
181(7) . . .
183(7) . . .
176(7) . . .
191(7) . . .
210(8) . . .
191(8) . . .
200(8) . . .
185(7) . . .
196(8) . . .
182(7) . . .
174(7) . . .
168(7) . . .
192(7) . . .
180(7) . . .
178(7) . . .
189(8) . . .
187(7) . . .
170(7) . . .
196(8) . . .
189(7) . . .
187(7) . . .
185(7) . . .
201(7) . . .
187(7) . . .
180(7) . . .
174(7) . . .
184(7) . . .
190(7) . . .
198(8) . . .
205(8) . . .
195(7) . . .
202(7) . . .
177(7) . . .
190(7) . . .
206(8) . . .
175(7) . . .
196(7) . . .
208(7) . . .
207(8) . . .
186(7) . . .
187(7) . . .
192(7) . . .
195(7) . . .
194(8) . . .
190(8) . . .
190(7) . . .
182(7) . . .
192(7) . . .
196(8) . . .
185(7) . . .
184(7) . . .
177(7) . . .
207(8) . . .
204(8) . . .
200(8) . . .
195(8) . . .
172(7) . . .
189(7) . . .
191(7) . . .
194(8) . . .
188(7) . . .
201(7) . . .
179(7) . . .
204(8) . . .
190(7) . . .
185(7) . . .
183(7) . . .
180(7) . . .
199(8) . . .
198(7) . . .
188(7) . . .
205(7) . . .
195(7) . . .
186(8) . . .
197(8) . . .
180(7) . . .
183(7) . . .
216(8) . . .
201(8) . . .
209(8) . . .
186(7) . . .
179(7) . . .
197(7) . . .
198(8) . . .
192(7) . . .
195(7) . . .
207(7) . . .
198(7) . . .
209(8) . . .
161(7) . . .
190(7) . . .
177(7) . . .
195(8) . . .
180(8) . . .
179(7) . . .
183(7) . . .
178(7) . . .
191(7) . . .
179(7) . . .
170(7) . . .
172(7) . . .
179(7) . . .
194(8) . . .
178(7) . . .
180(7) . . .
180(7) . . .
189(7) . . .
192(7) . . .
184(7) . . .
195(8) . . .
178(7) . . .
197(7) . . .
167(7) . . .
175(7) . . .
187(7) . . .
187(7) . . .
187(7) . . .
182(7) . . .
181(7) . . .
192(7) . . .
200(7) . . .
204(8) . . .
173(7) . . .
221(8) . . .
190(7) . . .
187(7) . . .
185(7) . . .
173(7) . . .
206(8) . . .
188(7) . . .
190(7) . . .
192(7) . . .
195(8) . . .
198(8) . . .
181(7) . . .
208(8) . . .
199(8) . . .
188(8) . . .
186(7) . . .
178(7) . . .
169(7) . . .
184(7) . . .
184(8) . . .
173(7) . . .
194(7) . . .
189(7) . . .
198(8) . . .
191(8) . . .
184(7) . . .
181(7) . . .
170(7) . . .
167(7) . . .
197(8) . . .
200(8) . . .
199(7) . . .
203(7) . . .
189(7) . . .
186(7) . . .
179(7) . . .
186(7) . . .
195(8) . . .
187(7) . . .
190(8) . . .
178(7) . . .
202(7) . . .
178(7) . . .
190(8) . . .
200(8) . . .
181(7) . . .
180(7) . . .
198(7) . . .
192(7) . . .
190(7) . . .
184(7) . . .
182(7) . . .
186(7) . . .
183(7) . . .
200(8) . . .
178(7) . . .
186(7) . . .
195(7) . . .
167(7) . . .
178(7) . . .
190(7) . . .
197(7) . . .
186(7) . . .
184(8) . . .
197(8) . . .
201(7) . . .
187(7) . . .
194(8) . . .
187(8) . . .
173(7) . . .
191(7) . . .
180(7) . . .
206(8) . . .
177(7) . . .
185(7) . . .
188(7) . . .
188(7) . . .
187(7) . . .
191(8) . . .
182(7) . . .
180(7) . . .
200(7) . . .
200(8) . . .
186(7) . . .
171(7) . . .
188(7) . . .
182(7) . . .
176(7) . . .
166(7) . . .
169(7) . . .
181(7) . . .
197(7) . . .
197(7) . . .
184(7) . . .
185(7) . . .
184(7) . . .
183(7) . . .
174(7) . . .
171(7) . . .
183(7) . . .
198(7) . . .
173(7) . . .
169(7) . . .
170(7) . . .
197(7) . . .
189(7) . . .
196(7) . . .
199(8) . . .
169(7) . . .
188(7) . . .
187(7) . . .
207(8) . . .
203(8) . . .
187(7) . . .
169(7) . . .
198(7) . . .
180(7) . . .
171(7) . . .
177(7) . . .
205(7) . . .
184(7) . . .
189(8) . . .
195(8) . . .
198(8) . . .
177(7) . . .
187(7) . . .
195(8) . . .
184(7) . . .
176(7) . . .
178(7) . . .
208(8) . . .
190(7) . . .
200(8) . . .
187(7) . . .
175(7) . . .
174(7) . . .
185(7) . . .
190(7) . . .
189(7) . . .
201(7) . . .
157(7) . . .
178(7) . . .
171(7) . . .
204(8) . . .
218(8) . . .
187(7) . . .
192(8) . . .
169(7) . . .
184(7) . . .
207(7) . . .
189(7) . . .
169(7) . . .
186(7) . . .
180(7) . . .
167(7) . . .
180(7) . . .
176(7) . . .
188(7) . . .
193(7) . . .
180(7) . . .
191(7) . . .
196(8) . . .
214(8) . . .
200(7) . . .
181(7) . . .
202(8) . . .
196(8) . . .
182(7) . . .
168(7) . . .
200(7) . . .
200(8) . . .
187(7) . . .
185(7) . . .
178(7) . . .
200(8) . . .
192(7) . . .
199(8) . . .
176(7) . . .
163(7) . . .
184(7) . . .
174(7) . . .
197(8) . . .
190(8) . . .
195(7) . . .
187(7) . . .
169(7) . . .
181(8) . . .
181(7) . . .
176(7) . . .
201(7) . . .
214(8) . . .
193(7) . . .
205(8) . . .
185(7) . . .
204(8) . . .
176(7) . . .
195(8) . . .
189(7) . . .
190(7) . . .
196(8) . . .
183(7) . . .
178(7) . . .
184(7) . . .
206(7) . . .
189(7) . . .
208(8) . . .
196(7) . . .
199(7) . . .
181(7) . . .
199(8) . . .
191(8) . . .
193(7) . . .
191(7) . . .
181(7) . . .
188(7) . . .
196(8) . . .
164(7) . . .
192(7) . . .
189(7) . . .
204(8) . . .
201(8) . . .
196(8) . . .
206(8) . . .
221(8) . . .
198(7) . . .
192(7) . . .
212(8) . . .
206(7) . . .
194(7) . . .
186(7) . . .
194(8) . . .
190(7) . . .
196(7) . . .
176(7) . . .
175(7) . . .
188(7) . . .
198(7) . . .
198(7) . . .
175(7) . . .
189(8) . . .
197(8) . . .
177(7) . . .
197(7) . . .
182(7) . . .
195(8) . . .
165(7) . . .
169(7) . . .
194(7) . . .
182(7) . . .
181(8) . . .
159(7) . . .
175(7) . . .
188(7) . . .
170(7) . . .
206(8) . . .
181(7) . . .
172(7) . . .
191(7) . . .
197(8) . . .
169(7) . . .
174(7) . . .
176(7) . . .
180(7) . . .
185(7) . . .
158(7) . . .
196(8) . . .
189(7) . . .
177(7) . . .
177(7) . . .
165(7) . . .
185(7) . . .
190(7) . . .
192(7) . . .
198(8) . . .
178(7) . . .
199(8) . . .
177(7) . . .
193(7) . . .
184(7) . . .
185(7) . . .
184(7) . . .
198(7) . . .
184(7) . . .
203(8) . . .
186(7) . . .
199(7) . . .
179(7) . . .
189(7) . . .
193(7) . . .
188(7) . . .
194(7) . . .
191(7) . . .
163(7) . . .
189(7) . . .
195(8) . . .
195(7) . . .
206(7) . . .
177(7) . . .
174(7) . . .
181(7) . . .
193(7) . . .
172(7) . . .
185(7) . . .
181(7) . . .
182(7) . . .
179(7) . . .
213(8) . . .
181(7) . . .
202(8) . . .
212(8) . . .
196(7) . . .
189(7) . . .
186(7) . . .
192(8) . . .
196(8) . . .
176(7) . . .
203(7) . . .
211(8) . . .
194(8) . . .
200(7) . . .
187(7) . . .
199(7) . . .
204(8) . . .
187(7) . . .
185(7) . . .
169(7) . . .
173(7) . . .
166(7) . . .
186(8) . . .
180(7) . . .
164(7) . . .
197(7) . . .
207(8) . . .
191(7) . . .
192(7) . . .
178(7) . . .
182(7) . . .
163(7) . . .
168(7) . . .
164(7) . . .
179(7) . . .
182(7) . . .
175(7) . . .
170(7) . . .
176(7) . . .
191(7) . . .
196(7) . . .
180(7) . . .
169(7) . . .
172(7) . . .
186(7) . . .
185(7) . . .
195(8) . . .
184(7) . . .
202(7) . . .
197(7) . . .
202(8) . . .
177(7) . . .
175(7) . . .
191(7) . . .
171(7) . . .
168(7) . . .
183(8) . . .
201(8) . . .
180(7) . . .
178(7) . . .
200(7) . . .
199(8) . . .
194(7) . . .
190(7) . . .
194(7) . . .
208(8) . . .
203(8) . . .
191(7) . . .
193(7) . . .
182(7) . . .
192(8) . . .
197(8) . . .
191(7) . . .
201(7) . . .
188(7) . . .
181(7) . . .
172(7) . . .
175(7) . . .
192(7) . . .
177(7) . . .
188(7) . . .
183(8) . . .
185(7) . . .
187(7) . . .
198(7) . . .
174(7) . . .
188(7) . . .
193(8) . . .
180(7) . . .
190(7) . . .
167(7) . . .
162(7) . . .
172(7) . . .
174(7) . . .
179(7) . . .
182(7) . . .
172(7) . . .
183(7) . . .
173(7) . . .
184(7) . . .
186(7) . . .
201(8) . . .
188(7) . . .
175(7) . . .
171(7) . . .
181(7) . . .
185(7) . . .
172(7) . . .
185(7) . . .
179(7) . . .
189(8) . . .
170(7) . . .
179(7) . . .
168(7) . . .
192(8) . . .
211(8) . . .
180(7) . . .
175(7) . . .
170(7) . . .
177(7) . . .
161(7) . . .
183(7) . . .
190(7) . . .
190(7) . . .
170(7) . . .
183(7) . . .
178(7) . . .
190(7) . . .
185(7) . . .
191(7) . . .
189(7) . . .
179(7) . . .
170(7) . . .
162(7) . . .
191(8) . . .
188(7) . . .
198(7) . . .
199(7) . . .
187(7) . . .
195(8) . . .
173(7) . . .
196(8) . . .
187(7) . . .
183(7) . . .
186(7) . . .
172(7) . . .
196(8) . . .
193(7) . . .
189(7) . . .
182(7) . . .
188(7) . . .
188(7) . . .
179(7) . . .
188(7) . . .
189(8) . . .
174(7) . . .
186(7) . . .
162(7) . . .
186(7) . . .
196(8) . . .
175(7) . . .
183(7) . . .
161(7) . . .
173(7) . . .
195(8) . . .
185(7) . . .
182(7) . . .
191(7) . . .
182(8) . . .
175(7) . . .
156(7) . . .
190(7) . . .
178(7) . . .
178(7) . . .
190(8) . . .
206(8) . . .
181(7) . . .
191(7) . . .
180(7) . . .
170(7) . . .
177(7) . . .
194(7) . . .
195(7) . . .
199(8) . . .
173(7) . . .
177(7) . . .
177(7) . . .
208(8) . . .
174(7) . . .
191(8) . . .
177(7) . . .
169(7) . . .
173(7) . . .
179(7) . . .
188(7) . . .
181(7) . . .
181(7) . . .
190(7) . . .
179(7) . . .
168(7) . . .
175(7) . . .
189(7) . . .
181(7) . . .
172(7) . . .
198(8) . . .
169(7) . . .
164(7) . . .
177(7) . . .
205(8) . . .
192(7) . . .
166(7) . . .
205(7) . . .
177(7) . . .
170(7) . . .
173(7) . . .
179(7) . . .
187(7) . . .
180(7) . . .
190(8) . . .
178(7) . . .
191(7) . . .
169(7) . . .
194(7) . . .
192(8) . . .
172(7) . . .
175(7) . . .
179(7) . . .
187(7) . . .
193(8) . . .
175(7) . . .
176(7) . . .
179(7) . . .
171(7) . . .
182(7) . . .
207(8) . . .
178(7) . . .
189(7) . . .
184(7) . . .
193(7) . . .
204(8) . . .
179(7) . . .
162(7) . . .
171(7) . . .
173(7) . . .
195(7) . . .
166(7) . . .
206(8) . . .
186(7) . . .
189(7) . . .
177(7) . . .
161(7) . . .
172(7) . . .
187(8) . . .
176(7) . . .
187(7) . . .
212(8) . . .
187(7) . . .
171(7) . . .
196(8) . . .
188(7) . . .
177(7) . . .
190(7) . . .
204(8) . . .
191(7) . . .
185(7) . . .
179(7) . . .
201(8) . . .
177(7) . . .
177(7) . . .
170(7) . . .
166(7) . . .
182(7) . . .
167(7) . . .
179(7) . . .
177(7) . . .
168(7) . . .
152(7) . . .
172(7) . . .
201(8) . . .
176(7) . . .
177(7) . . .
171(7) . . .
179(7) . . .
198(8) . . .
189(7) . . .
190(7) . . .
164(7) . . .
185(7) . . .
173(7) . . .
197(7) . . .
165(7) . . .
172(7) . . .
175(7) . . .
183(7) . . .
161(7) . . .
176(7) . . .
173(7) . . .
183(7) . . .
175(7) . . .
175(7) . . .
197(8) . . .
173(7) . . .
168(7) . . .
189(7) . . .
185(7) . . .
176(7) . . .
185(8) . . .
167(7) . . .
169(7) . . .
195(7) . . .
173(7) . . .
172(7) . . .
170(7) . . .
182(7) . . .
173(7) . . .
184(7) . . .
159(7) . . .
178(7) . . .
176(7) . . .
181(7) . . .
167(7) . . .
169(7) . . .
171(7) . . .
172(7) . . .
172(7) . . .
157(7) . . .
165(7) . . .
184(7) . . .
169(7) . . .
172(7) . . .
159(7) . . .
186(8) . . .
164(7) . . .
160(7) . . .
162(7) . . .
165(7) . . .
170(7) . . .
160(7) . . .
186(7) . . .
187(7) . . .
160(7) . . .
190(8) . . .
177(7) . . .
184(7) . . .
164(7) . . .
176(7) . . .
179(7) . . .
172(7) . . .
192(7) . . .
167(7) . . .
171(7) . . .
174(7) . . .
177(7) . . .
180(7) . . .
162(7) . . .
155(7) . . .
183(8) . . .
169(7) . . .
180(7) . . .
169(7) . . .
161(7) . . .
171(7) . . .
166(7) . . .
170(7) . . .
153(7) . . .
167(7) . . .
166(7) . . .
170(7) . . .
172(7) . . .
164(7) . . .
160(7) . . .
175(7) . . .
186(7) . . .
157(7) . . .
165(7) . . .
175(7) . . .
160(7) . . .
176(7) . . .
170(7) . . .
174(7) . . .
184(7) . . .
168(7) . . .
162(7) . . .
173(7) . . .
171(7) . . .
174(7) . . .
159(7) . . .
153(7) . . .
168(7) . . .
167(7) . . .
164(7) . . .
181(7) . . .
160(7) . . .
166(7) . . .
161(7) . . .
164(7) . . .
173(7) . . .
149(6) . . .
170(7) . . .
176(7) . . .
175(7) . . .
176(7) . . .
186(7) . . .
175(7) . . .
175(7) . . .
169(7) . . .
149(6) . . .
166(7) . . .
169(7) . . .
174(7) . . .
163(7) . . .
161(7) . . .
168(7) . . .
162(7) . . .
162(7) . . .
155(7) . . .
170(7) . . .
149(6) . . .
156(7) . . .
178(8) . . .
164(7) . . .
171(7) . . .
176(7) . . .
161(7) . . .
176(7) . . .
181(7) . . .
166(7) . . .
195(7) . . .
162(7) . . .
170(7) . . .
174(7) . . .
168(7) . . .
168(7) . . .
171(7) . . .
175(7) . . .
156(7) . . .
162(7) . . .
153(7) . . .
160(7) . . .
161(7) . . .
171(7) . . .
149(6) . . .
156(7) . . .
178(7) . . .
163(7) . . .
173(7) . . .
168(7) . . .
166(7) . . .
156(7) . . .
150(7) . . .
152(6) . . .
160(7) . . .
177(7) . . .
166(7) . . .
168(7) . . .
166(7) . . .
176(7) . . .
192(8) . . .
177(7) . . .
164(7) . . .
163(7) . . .
156(7) . . .
165(7) . . .
163(7) . . .
153(7) . . .
169(7) . . .
170(7) . . .
155(6) . . .
178(8) . . .
177(7) . . .
159(6) . . .
159(7) . . .
167(7) . . .
166(7) . . .
173(7) . . .
177(7) . . .
160(7) . . .
173(7) . . .
170(7) . . .
161(7) . . .
179(7) . . .
186(7) . . .
174(7) . . .
152(7) . . .
154(7) . . .
154(6) . . .
161(7) . . .
178(7) . . .
177(7) . . .
181(7) . . .
178(7) . . .
188(7) . . .
183(7) . . .
155(7) . . .
157(7) . . .
184(7) . . .
179(7) . . .
162(7) . . .
164(7) . . .
189(7) . . .
156(7) . . .
176(7) . . .
166(7) . . .
186(7) . . .
172(7) . . .
152(6) . . .
156(7) . . .
157(7) . . .
177(7) . . .
166(7) . . .
161(7) . . .
174(7) . . .
163(7) . . .
154(7) . . .
172(7) . . .
174(7) . . .
171(7) . . .
176(8) . . .
177(7) . . .
174(7) . . .
184(7) . . .
173(7) . . .
168(7) . . .
176(7) . . .
165(7) . . .
148(6) . . .
161(7) . . .
155(7) . . .
147(6) . . .
179(7) . . .
193(7) . . .
170(7) . . .
160(7) . . .
174(7) . . .
181(7) . . .
168(7) . . .
171(7) . . .
167(7) . . .
161(7) . . .
176(7) . . .
170(7) . . .
176(7) . . .
159(7) . . .
163(7) . . .
176(7) . . .
176(7) . . .
175(7) . . .
165(7) . . .
167(7) . . .
164(7) . . .
174(7) . . .
155(7) . . .
165(7) . . .
195(7) . . .
187(7) . . .
176(7) . . .
171(7) . . .
175(7) . . .
178(7) . . .
168(7) . . .
175(7) . . .
169(7) . . .
172(7) . . .
181(7) . . .
174(7) . . .
176(7) . . .
170(7) . . .
188(7) . . .
182(7) . . .
178(7) . . .
168(7) . . .
173(7) . . .
166(7) . . .
172(7) . . .
175(7) . . .
162(7) . . .
175(7) . . .
162(7) . . .
147(6) . . .
179(7) . . .
183(7) . . .
173(7) . . .
170(7) . . .
170(7) . . .
157(6) . . .
167(7) . . .
170(7) . . .
173(7) . . .
177(7) . . .
183(7) . . .
180(7) . . .
171(7) . . .
167(7) . . .
176(7) . . .
180(7) . . .
165(7) . . .
171(7) . . .
169(7) . . .
180(7) . . .
176(7) . . .
180(7) . . .
168(7) . . .
178(7) . . .
183(7) . . .
182(7) . . .
186(8) . . .
168(7) . . .
176(7) . . .
190(7) . . .
173(7) . . .
173(7) . . .
158(7) . . .
170(7) . . .
170(7) . . .
191(7) . . .
150(7) . . .
167(7) . . .
176(7) . . .
166(7) . . .
175(7) . . .
172(7) . . .
175(7) . . .
170(7) . . .
172(7) . . .
183(7) . . .
175(7) . . .
169(7) . . .
162(7) . . .
174(7) . . .
195(8) . . .
166(7) . . .
173(7) . . .
164(7) . . .
176(7) . . .
173(7) . . .
167(7) . . .
170(7) . . .
185(7) . . .
187(7) . . .
161(7) . . .
177(7) . . .
172(7) . . .
173(7) . . .
186(7) . . .
171(7) . . .
181(7) . . .
167(7) . . .
166(7) . . .
161(7) . . .
177(7) . . .
162(7) . . .
167(7) . . .
162(7) . . .
163(7) . . .
193(8) . . .
188(7) . . .
204(8) . . .
167(7) . . .
176(7) . . .
174(7) . . .
185(8) . . .
178(7) . . .
169(7) . . .
179(7) . . .
171(7) . . .
159(7) . . .
164(7) . . .
168(7) . . .
179(7) . . .
174(8) . . .
176(7) . . .
176(7) . . .
195(7) . . .
176(7) . . .
172(7) . . .
183(7) . . .
164(7) . . .
176(7) . . .
156(7) . . .
159(7) . . .
186(7) . . .
184(7) . . .
179(7) . . .
175(7) . . .
180(7) . . .
170(7) . . .
170(7) . . .
172(7) . . .
198(8) . . .
190(7) . . .
175(7) . . .
173(7) . . .
178(7) . . .
174(7) . . .
174(7) . . .
178(7) . . .
169(7) . . .
174(7) . . .
165(7) . . .
147(6) . . .
150(7) . . .
148(6) . . .
177(7) . . .
168(7) . . .
160(7) . . .
173(7) . . .
172(7) . . .
173(7) . . .
175(7) . . .
170(7) . . .
159(6) . . .
154(6) . . .
163(7) . . .
168(7) . . .
173(7) . . .
159(7) . . .
158(6) . . .
158(7) . . .
158(7) . . .
155(7) . . .
162(7) . . .
183(7) . . .
165(7) . . .
184(8) . . .
157(7) . . .
144(6) . . .
167(7) . . .
175(7) . . .
176(7) . . .
178(7) . . .
183(7) . . .
165(7) . . .
157(7) . . .
170(7) . . .
177(7) . . .
169(7) . . .
160(7) . . .
156(7) . . .
155(7) . . .
165(7) . . .
161(7) . . .
165(7) . . .
158(7) . . .
149(7) . . .
165(7) . . .
166(7) . . .
172(7) . . .
166(7) . . .
160(7) . . .
157(7) . . .
162(7) . . .
150(6) . . .
163(7) . . .
160(7) . . .
160(7) . . .
171(7) . . .
151(7) . . .
145(7) . . .
173(7) . . .
170(7) . . .
173(7) . . .
173(7) . . .
166(7) . . .
174(7) . . .
158(7) . . .
161(7) . . .
159(7) . . .
164(7) . . .
174(7) . . .
143(6) . . .
152(6) . . .
165(7) . . .
157(7) . . .
152(7) . . .
154(6) . . .
156(6) . . .
173(7) . . .
161(7) . . .
154(7) . . .
176(7) . . .
156(6) . . .
149(6) . . .
173(7) . . .
153(7) . . .
154(6) . . .
156(7) . . .
158(7) . . .
169(7) . . .
151(7) . . .
158(6) . . .
161(7) . . .
177(7) . . .
172(7) . . .
168(7) . . .
144(6) . . .
172(7) . . .
147(7) . . .
166(7) . . .
163(7) . . .
175(7) . . .
174(7) . . .
157(7) . . .
169(7) . . .
164(7) . . .
173(7) . . .
167(7) . . .
173(7) . . .
193(8) . . .
180(7) . . .
171(7) . . .
160(7) . . .
153(7) . . .
148(6) . . .
151(6) . . .
150(6) . . .
159(7) . . .
174(7) . . .
194(8) . . .
158(7) . . .
151(6) . . .
161(7) . . .
165(7) . . .
155(7) . . .
169(7) . . .
167(7) . . .
162(7) . . .
182(8) . . .
149(7) . . .
153(6) . . .
166(7) . . .
170(7) . . .
156(7) . . .
160(7) . . .
166(7) . . .
177(7) . . .
176(7) . . .
158(7) . . .
150(7) . . .
168(7) . . .
157(7) . . .
173(7) . . .
153(7) . . .
167(7) . . .
159(7) . . .
165(7) . . .
167(7) . . .
178(7) . . .
164(7) . . .
156(6) . . .
163(7) . . .
161(7) . . .
176(7) . . .
171(7) . . .
151(6) . . .
171(7) . . .
164(7) . . .
173(7) . . .
180(7) . . .
174(7) . . .
185(7) . . .
189(8) . . .
185(7) . . .
162(7) . . .
162(7) . . .
181(7) . . .
184(8) . . .
170(7) . . .
161(7) . . .
159(7) . . .
169(7) . . .
169(7) . . .
167(7) . . .
180(7) . . .
175(7) . . .
164(7) . . .
147(7) . . .
193(8) . . .
158(7) . . .
171(7) . . .
138(6) . . .
186(8) . . .
169(7) . . .
159(7) . . .
162(7) . . .
157(7) . . .
184(7) . . .
190(7) . . .
183(7) . . .
203(7) . . .
168(7) . . .
154(7) . . .
163(7) . . .
158(6) . . .
185(7) . . .
171(7) . . .
167(7) . . .
186(7) . . .
158(7) . . .
163(7) . . .
174(7) . . .
173(7) . . .
171(7) . . .
165(7) . . .
153(7) . . .
165(7) . . .
172(7) . . .
172(7) . . .
169(7) . . .
152(7) . . .
161(7) . . .
156(7) . . .
151(6) . . .
180(7) . . .
174(7) . . .
167(7) . . .
169(7) . . .
167(7) . . .
159(7) . . .
161(7) . . .
165(7) . . .
170(7) . . .
154(6) . . .
176(7) . . .
176(7) . . .
173(7) . . .
166(7) . . .
164(7) . . .
164(7) . . .
171(7) . . .
144(6) . . .
172(7) . . .
169(7) . . .
172(7) . . .
167(7) . . .
164(7) . . .
176(7) . . .
162(7) . . .
165(7) . . .
169(7) . . .
153(7) . . .
153(6) . . .
153(6) . . .
153(6) . . .
157(7) . . .
147(7) . . .
168(7) . . .
169(7) . . .
158(7) . . .
166(7) . . .
156(7) . . .
172(7) . . .
160(7) . . .
187(7) . . .
173(7) . . .
167(7) . . .
151(7) . . .
155(6) . . .
167(7) . . .
168(7) . . .
170(7) . . .
155(7) . . .
159(7) . . .
149(6) . . .
165(7) . . .
178(7) . . .
165(7) . . .
161(7) . . .
171(7) . . .
167(7) . . .
183(7) . . .
175(7) . . .
169(7) . . .
156(7) . . .
153(7) . . .
152(7) . . .
151(6) . . .
157(7) . . .
160(7) . . .
173(7) . . .
152(7) . . .
151(6) . . .
163(7) . . .
167(7) . . .
158(7) . . .
155(7) . . .
143(6) . . .
162(7) . . .
168(7) . . .
169(7) . . .
142(6) . . .
163(7) . . .
168(7) . . .
162(7) . . .
153(7) . . .
146(6) . . .
165(7) . . .
165(7) . . .
145(6) . . .
150(6) . . .
164(7) . . .
170(7) . . .
148(7) . . .
150(7) . . .
162(7) . . .
160(7) . . .
170(7) . . .
161(7) . . .
175(7) . . .
169(7) . . .
166(7) . . .
157(6) . . .
150(7) . . .
164(7) . . .
178(7) . . .
189(7) . . .
172(7) . . .
141(6) . . .
145(7) . . .
155(7) . . .
164(7) . . .
163(7) . . .
156(7) . . .
178(8) . . .
157(7) . . .
157(6) . . .
164(7) . . .
157(7) . . .
157(7) . . .
153(7) . . .
146(6) . . .
145(6) . . .
182(7) . . .
178(7) . . .
168(7) . . .
150(6) . . .
170(7) . . .
161(7) . . .
157(7) . . .
140(6) . . .
155(6) . . .
153(6) . . .
166(7) . . .
144(6) . . .
168(7) . . .
158(7) . . .
161(7) . . .
151(7) . . .
164(7) . . .
159(7) . . .
156(6) . . .
146(6) . . .
163(7) . . .
139(6) . . .
151(6) . . .
144(6) . . .
147(6) . . .
168(7) . . .
167(7) . . .
168(7) . . .
160(7) . . .
151(7) . . .
148(7) . . .
159(7) . . .
162(7) . . .
155(6) . . .
183(7) . . .
161(7) . . .
160(7) . . .
153(6) . . .
159(7) . . .
144(6) . . .
182(8) . . .
159(7) . . .
141(6) . . .
163(7) . . .
166(7) . . .
162(7) . . .
169(7) . . .
160(7) . . .
157(7) . . .
165(7) . . .
156(7) . . .
160(7) . . .
167(7) . . .
171(7) . . .
153(7) . . .
149(7) . . .
150(7) . . .
144(6) . . .
152(7) . . .
166(7) . . .
166(7) . . .
156(7) . . .
156(7) . . .
149(7) . . .
148(7) . . .
173(7) . . .
162(7) . . .
159(7) . . .
154(6) . . .
166(7) . . .
160(7) . . .
146(6) . . .
152(6) . . .
168(7) . . .
165(7) . . .
187(7) . . .
190(7) . . .
173(7) . . .
165(7) . . .
172(7) . . .
158(7) . . .
168(7) . . .
166(7) . . .
160(7) . . .
150(7) . . .
162(7) . . .
170(7) . . .
166(7) . . .
140(6) . . .
148(7) . . .
140(6) . . .
161(7) . . .
162(7) . . .
162(7) . . .
167(7) . . .
170(7) . . .
162(7) . . .
181(7) . . .
155(7) . . .
158(7) . . .
159(7) . . .
163(7) . . .
167(7) . . .
182(7) . . .
148(6) . . .
156(7) . . .
147(6) . . .
163(7) . . .
167(7) . . .
172(7) . . .
168(7) . . .
170(7) . . .
151(7) . . .
150(7) . . .
149(7) . . .
150(6) . . .
165(7) . . .
175(7) . . .
178(7) . . .
161(7) . . .
157(7) . . .
148(6) . . .
177(7) . . .
154(7) . . .
151(7) . . .
179(7) . . .
165(7) . . .
192(8) . . .
166(7) . . .
164(7) . . .
160(7) . . .
172(7) . . .
171(7) . . .
158(7) . . .
171(7) . . .
177(7) . . .
165(7) . . .
166(7) . . .
164(7) . . .
163(7) . . .
155(7) . . .
148(6) . . .
173(7) . . .
165(7) . . .
176(7) . . .
156(6) . . .
141(6) . . .
174(7) . . .
171(7) . . .
176(7) . . .
187(7) . . .
189(7) . . .
176(7) . . .
172(7) . . .
178(7) . . .
186(7) . . .
163(7) . . .
163(7) . . .
163(7) . . .
161(7) . . .
180(7) . . .
160(7) . . .
181(8) . . .
154(7) . . .
153(6) . . .
163(7) . . .
143(6) . . .
151(7) . . .
174(7) . . .
184(7) . . .
164(7) . . .
158(7) . . .
173(7) . . .
176(7) . . .
160(7) . . .
173(7) . . .
165(7) . . .
180(7) . . .
167(7) . . .
183(7) . . .
172(7) . . .
147(6) . . .
161(7) . . .
181(7) . . .
166(7) . . .
174(7) . . .
172(7) . . .
153(7) . . .
166(7) . . .
166(7) . . .
175(7) . . .
138(6) . . .
159(7) . . .
166(7) . . .
151(6) . . .
165(7) . . .
196(8) . . .
156(7) . . .
171(7) . . .
170(7) . . .
152(6) . . .
166(7) . . .
159(7) . . .
155(7) . . .
156(6) . . .
150(6) . . .
151(7) . . .
190(8) . . .
155(7) . . .
146(6) . . .
178(7) . . .
164(7) . . .
171(7) . . .
150(7) . . .
138(6) . . .
145(7) . . .
151(7) . . .
161(7) . . .
163(7) . . .
165(7) . . .
165(7) . . .
154(7) . . .
165(7) . . .
150(6) . . .
160(7) . . .
156(7) . . .
169(7) . . .
150(7) . . .
159(7) . . .
158(7) . . .
171(7) . . .
155(7) . . .
148(6) . . .
144(6) . . .
142(6) . . .
164(7) . . .
162(7) . . .
160(7) . . .
183(7) . . .
154(6) . . .
155(7) . . .
140(7) . . .
152(7) . . .
158(6) . . .
144(6) . . .
159(7) . . .
160(7) . . .
156(7) . . .
167(7) . . .
168(7) . . .
155(7) . . .
153(7) . . .
153(7) . . .
152(6) . . .
151(6) . . .
157(7) . . .
143(7) . . .
164(7) . . .
159(7) . . .
153(6) . . .
153(7) . . .
159(7) . . .
175(7) . . .
172(7) . . .
176(7) . . .
182(7) . . .
164(7) . . .
184(7) . . .
154(6) . . .
145(6) . . .
156(7) . . .
161(7) . . .
163(7) . . .
156(6) . . .
160(7) . . .
174(7) . . .
142(6) . . .
155(6) . . .
151(6) . . .
155(7) . . .
158(7) . . .
150(7) . . .
164(7) . . .
136(6) . . .
155(7) . . .
154(7) . . .
163(7) . . .
149(6) . . .
154(6) . . .
150(7) . . .
160(7) . . .
151(7) . . .
163(7) . . .
162(7) . . .
151(7) . . .
169(7) . . .
156(7) . . .
166(7) . . .
150(6) . . .
164(7) . . .
164(7) . . .
169(7) . . .
148(6) . . .
145(6) . . .
151(7) . . .
152(7) . . .
151(7) . . .
154(6) . . .
139(6) . . .
158(7) . . .
171(7) . . .
161(7) . . .
149(6) . . .
153(7) . . .
145(6) . . .
146(7) . . .
157(7) . . .
148(6) . . .
138(6) . . .
138(6) . . .
169(7) . . .
146(6) . . .
151(6) . . .
158(7) . . .
145(7) . . .
162(7) . . .
158(7) . . .
143(6) . . .
149(7) . . .
140(6) . . .
150(6) . . .
168(7) . . .
164(7) . . .
156(7) . . .
165(7) . . .
151(7) . . .
144(6) . . .
151(6) . . .
160(7) . . .
162(7) . . .
145(7) . . .
141(6) . . .
158(7) . . .
157(7) . . .
158(7) . . .
151(7) . . .
160(7) . . .
148(6) . . .
139(6) . . .
162(7) . . .
173(7) . . .
137(6) . . .
165(7) . . .
158(7) . . .
169(7) . . .
143(7) . . .
159(7) . . .
157(7) . . .
171(7) . . .
154(7) . . .
151(7) . . .
158(7) . . .
168(7) . . .
161(7) . . .
149(7) . . .
156(7) . . .
158(6) . . .
157(7) . . .
162(7) . . .
179(7) . . .
145(6) . . .
145(6) . . .
161(7) . . .
145(7) . . .
162(7) . . .
156(7) . . .
149(6) . . .
151(7) . . .
154(7) . . .
162(7) . . .
155(7) . . .
149(6) . . .
170(7) . . .
147(7) . . .
163(7) . . .
156(6) . . .
162(7) . . .
175(7) . . .
156(7) . . .
152(7) . . .
165(7) . . .
146(6) . . .
151(7) . . .
156(7) . . .
168(7) . . .
156(7) . . .
172(7) . . .
167(7) . . .
151(7) . . .
157(7) . . .
163(7) . . .
156(7) . . .
170(7) . . .
183(8) . . .
166(7) . . .
153(6) . . .
166(7) . . .
147(6) . . .
157(7) . . .
160(7) . . .
174(7) . . .
185(7) . . .
147(7) . . .
152(7) . . .
174(7) . . .
168(7) . . .
169(7) . . .
157(7) . . .
149(6) . . .
161(7) . . .
150(6) . . .
153(7) . . .
144(6) . . .
163(7) . . .
144(6) . . .
160(7) . . .
147(6) . . .
144(7) . . .
147(7) . . .
150(7) . . .
164(7) . . .
159(7) . . .
150(7) . . .
152(6) . . .
165(7) . . .
176(7) . . .
145(6) . . .
169(7) . . .
161(7) . . .
168(7) . . .
159(7) . . .
154(7) . . .
162(7) . . .
171(7) . . .
155(6) . . .
147(6) . . .
147(7) . . .
177(8) . . .
163(7) . . .
150(6) . . .
141(6) . . .
131(6) . . .
121(6) . . .
141(6) . . .
154(6) . . .
166(7) . . .
161(7) . . .
150(7) . . .
152(7) . . .
170(7) . . .
145(6) . . .
156(7) . . .
151(7) . . .
137(6) . . .
140(6) . . .
148(7) . . .
158(7) . . .
145(6) . . .
133(6) . . .
149(6) . . .
169(7) . . .
133(6) . . .
145(6) . . .
153(6) . . .
179(7) . . .
171(7) . . .
151(7) . . .
169(7) . . .
163(7) . . .
167(7) . . .
140(6) . . .
157(7) . . .
151(6) . . .
156(7) . . .
161(7) . . .
157(7) . . .
143(6) . . .
158(7) . . .
140(6) . . .
153(6) . . .
144(6) . . .
143(7) . . .
146(6) . . .
155(6) . . .
150(6) . . .
153(7) . . .
183(8) . . .
162(7) . . .
146(6) . . .
163(7) . . .
154(7) . . .
151(7) . . .
163(7) . . .
145(6) . . .
151(7) . . .
164(7) . . .
159(7) . . .
168(7) . . .
145(6) . . .
169(7) . . .
173(7) . . .
162(7) . . .
163(7) . . .
148(6) . . .
140(6) . . .
170(7) . . .
178(7) . . .
170(7) . . .
174(7) . . .
172(7) . . .
159(7) . . .
180(7) . . .
160(7) . . .
159(7) . . .
175(7) . . .
155(7) . . .
154(7) . . .
170(7) . . .
172(7) . . .
170(7) . . .
144(6) . . .
179(7) . . .
185(7) . . .
157(7) . . .
184(7) . . .
156(7) . . .
151(7) . . .
145(6) . . .
147(6) . . .
142(6) . . .
168(7) . . .
147(7) . . .
154(6) . . .
155(7) . . .
169(7) . . .
144(6) . . .
175(7) . . .
147(6) . . .
187(7) . . .
175(7) . . .
160(7) . . .
149(6) . . .
170(7) . . .
166(7) . . .
157(7) . . .
146(7) . . .
174(7) . . .
160(7) . . .
166(7) . . .
177(7) . . .
160(7) . . .
165(7) . . .
161(7) . . .
162(7) . . .
160(7) . . .
193(8) . . .
174(7) . . .
151(6) . . .
175(7) . . .
185(8) . . .
200(8) . . .
175(7) . . .
168(7) . . .
172(7) . . .
166(7) . . .
158(7) . . .
166(7) . . .
164(7) . . .
190(8) . . .
176(7) . . .
185(7) . . .
205(7) . . .
184(7) . . .
173(7) . . .
185(7) . . .
171(7) . . .
166(7) . . .
173(7) . . .
164(7) . . .
175(7) . . .
176(7) . . .
187(7) . . .
179(7) . . .
187(7) . . .
178(7) . . .
170(7) . . .
167(7) . . .
168(7) . . .
159(7) . . .
194(8) . . .
176(7) . . .
179(7) . . .
158(7) . . .
153(7) . . .
159(7) . . .
160(7) . . .
189(7) . . .
163(7) . . .
167(7) . . .
181(7) . . .
189(7) . . .
182(7) . . .
181(7) . . .
177(7) . . .
183(7) . . .
205(8) . . .
184(7) . . .
188(7) . . .
168(7) . . .
167(7) . . .
164(7) . . .
162(7) . . .
177(7) . . .
187(7) . . .
195(8) . . .
187(7) . . .
177(7) . . .
163(7) . . .
183(8) . . .
176(7) . . .
174(7) . . .
171(7) . . .
182(7) . . .
187(8) . . .
179(7) . . .
182(7) . . .
191(7) . . .
187(7) . . .
177(7) . . .
182(7) . . .
177(7) . . .
169(7) . . .
181(7) . . .
188(8) . . .
178(7) . . .
178(7) . . .
166(7) . . .
169(7) . . .
165(7) . . .
164(7) . . .
158(7) . . .
165(7) . . .
171(7) . . .
175(7) . . .
146(7) . . .
172(7) . . .
172(7) . . .
169(7) . . .
179(7) . . .
163(7) . . .
173(7) . . .
177(7) . . .
158(7) . . .
166(7) . . .
164(7) . . .
160(7) . . .
160(7) . . .
169(7) . . .
166(7) . . .
157(7) . . .
196(7) . . .
153(7) . . .
175(7) . . .
162(7) . . .
167(7) . . .
169(7) . . .
162(7) . . .
168(7) . . .
162(7) . . .
170(7) . . .
163(7) . . .
168(7) . . .
173(7) . . .
162(7) . . .
164(7) . . .
178(7) . . .
155(7) . . .
175(8) . . .
158(7) . . .
170(7) . . .
144(6) . . .
169(7) . . .
159(7) . . .
166(7) . . .
149(6) . . .
162(7) . . .
170(7) . . .
162(7) . . .
161(7) . . .
152(6) . . .
161(7) . . .
165(7) . . .
164(7) . . .
166(7) . . .
160(7) . . .
167(7) . . .
156(7) . . .
156(7) . . .
154(7) . . .
163(7) . . .
138(6) . . .
155(7) . . .
139(6) . . .
147(6) . . .
158(7) . . .
168(7) . . .
159(7) . . .
164(7) . . .
164(7) . . .
156(6) . . .
167(7) . . .
157(7) . . .
164(7) . . .
165(7) . . .
152(6) . . .
155(7) . . .
148(7) . . .
145(7) . . .
150(6) . . .
148(6) . . .
159(7) . . .
173(7) . . .
144(6) . . .
164(7) . . .
169(7) . . .
169(7) . . .
160(7) . . .
163(7) . . .
155(6) . . .
175(7) . . .
171(7) . . .
157(7) . . .
141(6) . . .
148(6) . . .
164(7) . . .
151(6) . . .
178(7) . . .
144(6) . . .
160(7) . . .
152(6) . . .
154(7) . . .
162(7) . . .
155(7) . . .
161(7) . . .
154(6) . . .
147(6) . . .
149(6) . . .
151(7) . . .
163(7) . . .
176(7) . . .
153(7) . . .
174(7) . . .
176(7) . . .
165(7) . . .
170(7) . . .
166(7) . . .
156(7) . . .
146(7) . . .
164(7) . . .
174(7) . . .
179(7) . . .
175(7) . . .
163(7) . . .
167(7) . . .
165(7) . . .
170(7) . . .
147(7) . . .
163(7) . . .
147(6) . . .
150(7) . . .
176(8) . . .
154(7) . . .
167(7) . . .
169(7) . . .
163(7) . . .
144(7) . . .
144(6) . . .
160(7) . . .
161(7) . . .
168(7) . . .
138(6) . . .
160(7) . . .
175(7) . . .
145(6) . . .
160(7) . . .
179(8) . . .
153(7) . . .
144(6) . . .
160(7) . . .
159(7) . . .
151(7) . . .
157(7) . . .
172(7) . . .
151(6) . . .
161(7) . . .
165(7) . . .
161(7) . . .
165(7) . . .
142(6) . . .
142(6) . . .
155(7) . . .
164(7) . . .
148(6) . . .
144(6) . . .
160(7) . . .
151(7) . . .
151(7) . . .
148(6) . . .
153(7) . . .
153(7) . . .
168(7) . . .
166(7) . . .
162(7) . . .
164(7) . . .
157(7) . . .
148(6) . . .
171(7) . . .
163(7) . . .
166(7) . . .
150(7) . . .
162(7) . . .
149(7) . . .
151(6) . . .
169(7) . . .
188(8) . . .
157(7) . . .
175(7) . . .
153(6) . . .
174(7) . . .
171(7) . . .
164(7) . . .
156(7) . . .
165(7) . . .
160(7) . . .
174(7) . . .
156(7) . . .
169(7) . . .
174(7) . . .
174(7) . . .
172(7) . . .
153(7) . . .
163(7) . . .
155(6) . . .
171(7) . . .
154(7) . . .
157(7) . . .
165(7) . . .
167(7) . . .
168(7) . . .
160(7) . . .
171(7) . . .
181(7) . . .
165(7) . . .
158(7) . . .
155(7) . . .
158(7) . . .
161(7) . . .
134(6) . . .
177(7) . . .
158(7) . . .
167(7) . . .
161(7) . . .
171(7) . . .
161(7) . . .
154(7) . . .
156(7) . . .
161(7) . . .
168(7) . . .
173(7) . . .
147(6) . . .
142(6) . . .
147(6) . . .
149(6) . . .
173(7) . . .
161(7) . . .
148(6) . . .
167(7) . . .
167(7) . . .
167(7) . . .
157(7) . . .
157(7) . . .
147(6) . . .
156(7) . . .
178(8) . . .
153(7) . . .
150(6) . . .
156(6) . . .
145(7) . . .
155(7) . . .
151(7) . . .
157(7) . . .
155(7) . . .
145(6) . . .
151(7) . . .
147(6) . . .
150(6) . . .
150(6) . . .
148(6) . . .
151(7) . . .
143(6) . . .
156(6) . . .
163(7) . . .
176(7) . . .
154(7) . . .
150(7) . . .
164(7) . . .
167(7) . . .
152(6) . . .
160(7) . . .
167(7) . . .
141(6) . . .
163(7) . . .
160(7) . . .
154(7) . . .
145(6) . . .
149(6) . . .
136(6) . . .
155(7) . . .
159(7) . . .
148(7) . . .
154(6) . . .
155(7) . . .
167(7) . . .
159(7) . . .
157(7) . . .
156(6) . . .
159(7) . . .
172(7) . . .
135(6) . . .
166(7) . . .
168(7) . . .
155(7) . . .
153(7) . . .
140(6) . . .
144(6) . . .
137(6) . . .
148(7) . . .
142(7) . . .
158(7) . . .
153(6) . . .
156(6) . . .
152(7) . . .
153(7) . . .
151(7) . . .
165(7) . . .
142(6) . . .
146(7) . . .
162(7) . . .
160(7) . . .
152(6) . . .
152(7) . . .
159(7) . . .
149(7) . . .
155(7) . . .
167(7) . . .
134(6) . . .
162(7) . . .
151(7) . . .
145(6) . . .
154(6) . . .
153(7) . . .
161(7) . . .
176(7) . . .
148(6) . . .
156(6) . . .
154(7) . . .
163(7) . . .
143(6) . . .
143(6) . . .
150(6) . . .
144(6) . . .
142(7) . . .
160(7) . . .
180(7) . . .
134(6) . . .
158(7) . . .
137(6) . . .
166(7) . . .
162(7) . . .
175(7) . . .
157(7) . . .
155(7) . . .
157(7) . . .
140(6) . . .
162(7) . . .
162(7) . . .
168(7) . . .
156(7) . . .
144(6) . . .
139(6) . . .
137(6) . . .
164(7) . . .
157(7) . . .
154(6) . . .
152(7) . . .
146(6) . . .
156(7) . . .
136(6) . . .
161(7) . . .
173(7) . . .
153(7) . . .
163(7) . . .
139(6) . . .
159(7) . . .
147(6) . . .
145(6) . . .
145(7) . . .
142(6) . . .
146(6) . . .
160(7) . . .
138(6) . . .
167(7) . . .
155(7) . . .
159(7) . . .
152(7) . . .
156(7) . . .
166(7) . . .
151(7) . . .
151(6) . . .
174(7) . . .
160(7) . . .
152(7) . . .
146(6) . . .
151(6) . . .
154(7) . . .
146(7) . . .
147(6) . . .
140(6) . . .
156(6) . . .
148(6) . . .
159(7) . . .
151(6) . . .
167(7) . . .
160(7) . . .
166(7) . . .
151(7) . . .
158(7) . . .
176(7) . . .
154(6) . . .
144(6) . . .
161(7) . . .
167(7) . . .
157(7) . . .
154(7) . . .
155(7) . . .
148(7) . . .
147(7) . . .
165(7) . . .
163(7) . . .
155(7) . . .
151(7) . . .
167(7) . . .
159(6) . . .
156(7) . . .
164(7) . . .
148(7) . . .
167(7) . . .
157(7) . . .
153(7) . . .
165(7) . . .
164(7) . . .
156(7) . . .
167(7) . . .
172(7) . . .
159(7) . . .
156(7) . . .
164(7) . . .
160(7) . . .
135(6) . . .
154(7) . . .
160(7) . . .
158(7) . . .
172(7) . . .
148(6) . . .
139(6) . . .
145(6) . . .
151(6) . . .
162(7) . . .
157(7) . . .
156(7) . . .
161(7) . . .
150(6) . . .
165(7) . . .
157(7) . . .
151(7) . . .
164(7) . . .
162(7) . . .
160(6) . . .
174(7) . . .
163(7) . . .
142(6) . . .
165(7) . . .
163(7) . . .
144(6) . . .
166(7) . . .
180(7) . . .
157(7) . . .
175(7) . . .
157(7) . . .
177(7) . . .
168(7) . . .
182(7) . . .
164(7) . . .
157(7) . . .
175(7) . . .
168(7) . . .
167(7) . . .
149(6) . . .
157(7) . . .
179(7) . . .
156(7) . . .
145(7) . . .
153(7) . . .
141(6) . . .
137(6) . . .
148(7) . . .
142(6) . . .
141(6) . . .
161(7) . . .
149(7) . . .
143(7) . . .
137(6) . . .
122(6) . . .
150(6) . . .
140(7) . . .
128(6) . . .
159(7) . . .
155(7) . . .
146(6) . . .
128(6) . . .
139(7) . . .
145(6) . . .
145(6) . . .
144(6) . . .
151(7) . . .
160(7) . . .
143(6) . . .
149(6) . . .
158(7) . . .
136(6) . . .
152(7) . . .
142(6) . . .
133(6) . . .
134(6) . . .
130(6) . . .
146(7) . . .
157(7) . . .
138(6) . . .
140(6) . . .
152(7) . . .
142(7) . . .
127(6) . . .
140(6) . . .
130(6) . . .
160(7) . . .
143(6) . . .
152(7) . . .
129(6) . . .
153(7) . . .
154(7) . . .
149(6) . . .
139(6) . . .
139(6) . . .
145(6) . . .
144(6) . . .
130(6) . . .
138(6) . . .
132(6) . . .
163(7) . . .
153(7) . . .
135(6) . . .
153(7) . . .
157(7) . . .
145(6) . . .
146(7) . . .
151(7) . . .
149(6) . . .
144(6) . . .
143(6) . . .
172(8) . . .
149(7) . . .
161(7) . . .
157(7) . . .
152(7) . . .
144(7) . . .
151(7) . . .
143(6) . . .
146(6) . . .
150(7) . . .
137(6) . . .
146(7) . . .
150(6) . . .
146(6) . . .
158(7) . . .
154(7) . . .
144(7) . . .
165(7) . . .
137(6) . . .
159(7) . . .
124(6) . . .
138(6) . . .
145(6) . . .
146(6) . . .
144(6) . . .
145(7) . . .
140(6) . . .
138(6) . . .
124(6) . . .
140(7) . . .
143(6) . . .
151(7) . . .
142(6) . . .
137(6) . . .
137(6) . . .
144(6) . . .
177(7) . . .
161(7) . . .
149(6) . . .
155(7) . . .
153(7) . . .
149(6) . . .
151(6) . . .
133(6) . . .
149(7) . . .
154(7) . . .
152(6) . . .
150(6) . . .
157(7) . . .
142(7) . . .
150(7) . . .
173(7) . . .
143(6) . . .
156(7) . . .
152(7) . . .
158(7) . . .
164(7) . . .
143(6) . . .
141(6) . . .
149(7) . . .
150(7) . . .
142(6) . . .
163(7) . . .
149(6) . . .
151(7) . . .
138(6) . . .
137(6) . . .
148(6) . . .
154(7) . . .
155(7) . . .
136(6) . . .
147(6) . . .
138(6) . . .
147(6) . . .
163(7) . . .
155(7) . . .
152(6) . . .
153(7) . . .
151(7) . . .
169(7) . . .
174(7) . . .
168(7) . . .
147(6) . . .
157(7) . . .
160(7) . . .
150(6) . . .
153(6) . . .
149(6) . . .
147(7) . . .
164(7) . . .
142(6) . . .
157(7) . . .
157(7) . . .
150(7) . . .
140(6) . . .
135(6) . . .
142(6) . . .
154(7) . . .
142(7) . . .
161(7) . . .
154(6) . . .
161(7) . . .
158(7) . . .
152(7) . . .
150(6) . . .
151(6) . . .
145(6) . . .
144(6) . . .
153(7) . . .
166(7) . . .
165(7) . . .
155(7) . . .
158(7) . . .
145(7) . . .
148(7) . . .
167(7) . . .
159(7) . . .
148(6) . . .
137(6) . . .
137(7) . . .
155(7) . . .
149(6) . . .
142(6) . . .
144(7) . . .
143(7) . . .
154(6) . . .
165(7) . . .
154(7) . . .
144(7) . . .
153(7) . . .
166(7) . . .
151(6) . . .
148(7) . . .
144(6) . . .
164(7) . . .
146(6) . . .
158(7) . . .
147(6) . . .
162(7) . . .
159(7) . . .
143(6) . . .
167(7) . . .
160(7) . . .
152(7) . . .
160(7) . . .
153(6) . . .
163(7) . . .
128(6) . . .
156(7) . . .
160(7) . . .
163(7) . . .
140(6) . . .
133(6) . . .
144(6) . . .
150(6) . . .
150(6) . . .
149(7) . . .
151(7) . . .
155(7) . . .
140(6) . . .
133(6) . . .
151(7) . . .
135(6) . . .
165(7) . . .
142(6) . . .
144(6) . . .
156(7) . . .
135(6) . . .
135(6) . . .
162(7) . . .
148(6) . . .
140(6) . . .
135(6) . . .
162(7) . . .
149(6) . . .
150(6) . . .
156(7) . . .
165(7) . . .
157(7) . . .
147(6) . . .
144(6) . . .
160(7) . . .
159(7) . . .
154(7) . . .
162(7) . . .
136(6) . . .
146(7) . . .
153(7) . . .
138(6) . . .
151(6) . . .
153(7) . . .
131(6) . . .
148(7) . . .
152(7) . . .
140(6) . . .
153(7) . . .
143(6) . . .
142(6) . . .
135(6) . . .
122(6) . . .
152(7) . . .
145(7) . . .
140(6) . . .
143(6) . . .
148(6) . . .
150(7) . . .
150(7) . . .
159(7) . . .
147(6) . . .
137(6) . . .
153(7) . . .
159(7) . . .
144(7) . . .
153(6) . . .
148(6) . . .
151(7) . . .
145(7) . . .
147(7) . . .
153(6) . . .
154(7) . . .
159(7) . . .
142(6) . . .
147(7) . . .
138(6) . . .
133(6) . . .
145(6) . . .
125(6) . . .
143(6) . . .
136(6) . . .
144(6) . . .
136(6) . . .
154(7) . . .
148(6) . . .
145(6) . . .
126(6) . . .
140(6) . . .
152(7) . . .
143(6) . . .
153(6) . . .
147(7) . . .
156(7) . . .
154(7) . . .
159(7) . . .
148(6) . . .
126(6) . . .
153(7) . . .
132(6) . . .
151(7) . . .
139(6) . . .
145(6) . . .
141(6) . . .
155(7) . . .
148(6) . . .
144(6) . . .
139(6) . . .
155(7) . . .
142(6) . . .
141(6) . . .
146(6) . . .
138(6) . . .
144(7) . . .
147(6) . . .
148(6) . . .
146(6) . . .
153(7) . . .
151(7) . . .
139(6) . . .
175(7) . . .
140(6) . . .
145(6) . . .
142(6) . . .
125(6) . . .
137(6) . . .
139(6) . . .
151(7) . . .
149(7) . . .
144(7) . . .
147(6) . . .
132(6) . . .
136(6) . . .
156(7) . . .
149(7) . . .
146(6) . . .
162(7) . . .
162(7) . . .
153(7) . . .
138(6) . . .
149(6) . . .
144(6) . . .
155(7) . . .
138(6) . . .
150(6) . . .
140(6) . . .
149(7) . . .
151(7) . . .
155(7) . . .
154(7) . . .
161(7) . . .
155(7) . . .
136(6) . . .
141(6) . . .
138(6) . . .
149(6) . . .
132(6) . . .
153(7) . . .
162(7) . . .
146(6) . . .
131(6) . . .
147(6) . . .
162(7) . . .
156(7) . . .
146(6) . . .
138(6) . . .
146(6) . . .
158(7) . . .
139(6) . . .
126(6) . . .
134(6) . . .
131(6) . . .
137(6) . . .
145(6) . . .
149(6) . . .
160(7) . . .
140(6) . . .
139(6) . . .
143(6) . . .
144(6) . . .
150(6) . . .
138(6) . . .
144(6) . . .
118(6) . . .
147(6) . . .
147(6) . . .
143(6) . . .
137(6) . . .
141(6) . . .
145(6) . . .
138(6) . . .
148(7) . . .
138(6) . . .
136(6) . . .
144(6) . . .
146(6) . . .
141(6) . . .
140(6) . . .
142(6) . . .
159(7) . . .
139(6) . . .
166(7) . . .
151(7) . . .
153(6) . . .
147(6) . . .
160(7) . . .
149(7) . . .
156(7) . . .
145(6) . . .
147(6) . . .
138(6) . . .
147(7) . . .
148(7) . . .
138(6) . . .
139(6) . . .
166(7) . . .
162(7) . . .
139(6) . . .
144(6) . . .
152(6) . . .
159(7) . . .
137(6) . . .
155(7) . . .
151(6) . . .
147(6) . . .
139(6) . . .
156(7) . . .
140(6) . . .
143(6) . . .
147(6) . . .
147(7) . . .
149(7) . . .
147(7) . . .
159(7) . . .
148(6) . . .
138(6) . . .
159(7) . . .
158(7) . . .
158(7) . . .
150(6) . . .
147(7) . . .
151(7) . . .
141(6) . . .
138(6) . . .
148(7) . . .
147(7) . . .
150(7) . . .
155(7) . . .
147(6) . . .
129(6) . . .
145(7) . . .
154(7) . . .
158(7) . . .
152(6) . . .
155(7) . . .
157(7) . . .
151(7) . . .
142(6) . . .
156(6) . . .
145(6) . . .
138(7) . . .
138(6) . . .
148(6) . . .
143(6) . . .
133(6) . . .
165(7) . . .
142(6) . . .
145(6) . . .
154(6) . . .
163(7) . . .
163(7) . . .
142(7) . . .
142(6) . . .
133(6) . . .
151(7) . . .
170(7) . . .
155(7) . . .
155(6) . . .
137(6) . . .
142(6) . . .
151(7) . . .
142(6) . . .
145(6) . . .
147(6) . . .
139(6) . . .
144(7) . . .
159(7) . . .
151(6) . . .
151(7) . . .
167(7) . . .
166(7) . . .
169(7) . . .
166(7) . . .
165(7) . . .
139(6) . . .
146(6) . . .
163(7) . . .
141(6) . . .
155(7) . . .
140(7) . . .
150(7) . . .
159(7) . . .
158(7) . . .
162(7) . . .
157(7) . . .
159(7) . . .
163(7) . . .
149(6) . . .
170(7) . . .
162(7) . . .
159(7) . . .
177(7) . . .
164(7) . . .
164(7) . . .
176(8) . . .
160(7) . . .
178(7) . . .
156(7) . . .
138(6) . . .
147(7) . . .
135(6) . . .
159(7) . . .
143(6) . . .
158(7) . . .
152(7) . . .
166(7) . . .
163(7) . . .
157(7) . . .
153(7) . . .
159(7) . . .
143(6) . . .
145(6) . . .
154(7) . . .
150(7) . . .
153(7) . . .
158(7) . . .
156(6) . . .
153(7) . . .
154(7) . . .
163(7) . . .
159(7) . . .
145(6) . . .
144(7) . . .
132(6) . . .
147(6) . . .
155(7) . . .
155(6) . . .
156(7) . . .
149(7) . . .
169(7) . . .
159(7) . . .
152(6) . . .
153(7) . . .
167(7) . . .
167(7) . . .
153(7) . . .
159(7) . . .
163(7) . . .
159(7) . . .
140(6) . . .
154(6) . . .
157(7) . . .
151(7) . . .
156(7) . . .
157(7) . . .
145(6) . . .
170(7) . . .
149(7) . . .
151(7) . . .
149(7) . . .
135(6) . . .
152(7) . . .
140(6) . . .
147(7) . . .
153(7) . . .
140(6) . . .
158(7) . . .
150(7) . . .
149(7) . . .
166(7) . . .
151(6) . . .
142(6) . . .
138(6) . . .
138(6) . . .
156(7) . . .
156(6) . . .
138(6) . . .
136(6) . . .
159(7) . . .
160(7) . . .
175(7) . . .
160(7) . . .
163(7) . . .
128(6) . . .
166(7) . . .
161(7) . . .
176(7) . . .
153(7) . . .
138(6) . . .
145(6) . . .
154(6) . . .
162(7) . . .
154(7) . . .
162(7) . . .
156(7) . . .
149(6) . . .
160(7) . . .
166(7) . . .
148(7) . . .
176(7) . . .
171(7) . . .
168(7) . . .
158(7) . . .
150(7) . . .
155(6) . . .
173(7) . . .
165(7) . . .
171(7) . . .
156(7) . . .
171(7) . . .
167(7) . . .
166(7) . . .
171(7) . . .
165(7) . . .
151(6) . . .
150(7) . . .
169(7) . . .
172(7) . . .
172(7) . . .
145(6) . . .
156(7) . . .
153(7) . . .
164(7) . . .
148(7) . . .
157(6) . . .
141(6) . . .
147(7) . . .
154(7) . . .
145(6) . . .
149(6) . . .
156(7) . . .
161(7) . . .
151(6) . . .
152(6) . . .
175(7) . . .
160(7) . . .
154(7) . . .
154(7) . . .
153(7) . . .
138(6) . . .
134(6) . . .
144(7) . . .
150(6) . . .
157(7) . . .
166(7) . . .
170(7) . . .
144(7) . . .
143(6) . . .
147(6) . . .
135(6) . . .
148(6) . . .
178(8) . . .
155(7) . . .
142(6) . . .
155(6) . . .
154(7) . . .
148(7) . . .
150(7) . . .
144(6) . . .
152(6) . . .
155(7) . . .
153(7) . . .
162(7) . . .
162(7) . . .
164(7) . . .
144(6) . . .
162(7) . . .
153(6) . . .
156(6) . . .
146(6) . . .
159(7) . . .
150(7) . . .
137(6) . . .
144(6) . . .
156(7) . . .
134(6) . . .
141(6) . . .
151(6) . . .
139(6) . . .
173(7) . . .
172(7) . . .
139(6) . . .
161(7) . . .
151(6) . . .
146(6) . . .
147(6) . . .
147(7) . . .
139(6) . . .
155(6) . . .
143(7) . . .
151(7) . . .
156(7) . . .
147(6) . . .
151(6) . . .
154(7) . . .
156(7) . . .
131(6) . . .
158(7) . . .
154(7) . . .
141(6) . . .
149(7) . . .
153(7) . . .
145(6) . . .
152(6) . . .
137(6) . . .
155(7) . . .
148(7) . . .
150(6) . . .
158(7) . . .
144(6) . . .
165(7) . . .
147(6) . . .
147(6) . . .
154(7) . . .
139(6) . . .
153(7) . . .
157(7) . . .
149(6) . . .
149(6) . . .
146(7) . . .
144(7) . . .
165(7) . . .
159(7) . . .
149(6) . . .
141(6) . . .
152(7) . . .
176(7) . . .
169(7) . . .
162(7) . . .
158(7) . . .
171(7) . . .
166(7) . . .
146(6) . . .
149(7) . . .
146(6) . . .
148(6) . . .
153(7) . . .
159(7) . . .
140(6) . . .
137(6) . . .
143(6) . . .
153(7) . . .
152(6) . . .
161(7) . . .
143(7) . . .
144(6) . . .
153(6) . . .
151(7) . . .
149(7) . . .
142(7) . . .
150(7) . . .
157(6) . . .
148(6) . . .
150(6) . . .
165(7) . . .
152(7) . . .
158(7) . . .
146(6) . . .
157(7) . . .
157(7) . . .
152(7) . . .
158(7) . . .
172(7) . . .
149(7) . . .
135(6) . . .
150(7) . . .
145(6) . . .
171(7) . . .
157(7) . . .
153(7) . . .
158(7) . . .
166(7) . . .
150(6) . . .
140(6) . . .
149(7) . . .
156(7) . . .
148(6) . . .
152(7) . . .
141(6) . . .
151(7) . . .
155(7) . . .
153(6) . . .
170(7) . . .
150(7) . . .
156(7) . . .
140(6) . . .
147(6) . . .
144(7) . . .
147(7) . . .
148(6) . . .
154(7) . . .
140(6) . . .
143(7) . . .
126(6) . . .
175(8) . . .
148(6) . . .
162(7) . . .
150(6) . . .
159(7) . . .
158(7) . . .
149(6) . . .
146(6) . . .
144(6) . . .
149(7) . . .
147(6) . . .
163(7) . . .
170(7) . . .
144(6) . . .
151(7) . . .
147(6) . . .
132(6) . . .
147(6) . . .
159(7) . . .
151(7) . . .
148(6) . . .
139(6) . . .
162(7) . . .
166(7) . . .
150(6) . . .
155(7) . . .
160(7) . . .
143(6) . . .
142(6) . . .
165(7) . . .
156(7) . . .
158(6) . . .
165(7) . . .
158(7) . . .
140(6) . . .
159(7) . . .
136(6) . . .
153(7) . . .
144(6) . . .
144(6) . . .
161(7) . . .
142(6) . . .
162(7) . . .
166(7) . . .
148(7) . . .
161(7) . . .
159(7) . . .
157(7) . . .
163(7) . . .
168(7) . . .
155(6) . . .
156(6) . . .
158(7) . . .
141(6) . . .
157(7) . . .
168(7) . . .
168(7) . . .
168(7) . . .
149(7) . . .
160(7) . . .
159(7) . . .
159(7) . . .
163(7) . . .
140(7) . . .
148(7) . . .
162(7) . . .
145(6) . . .
155(7) . . .
146(7) . . .
146(6) . . .
152(6) . . .
164(7) . . .
162(7) . . .
150(7) . . .
152(6) . . .
178(7) . . .
148(6) . . .
157(7) . . .
158(7) . . .
137(6) . . .
154(6) . . .
154(7) . . .
151(7) . . .
151(7) . . .
138(6) . . .
150(6) . . .
163(7) . . .
143(6) . . .
166(7) . . .
152(7) . . .
138(6) . . .
168(7) . . .
144(7) . . .
149(6) . . .
154(6) . . .
156(7) . . .
156(7) . . .
144(7) . . .
145(7) . . .
153(7) . . .
146(6) . . .
155(7) . . .
144(7) . . .
157(7) . . .
137(6) . . .
149(6) . . .
156(7) . . .
154(7) . . .
139(6) . . .
141(6) . . .
140(6) . . .
139(6) . . .
136(6) . . .
144(6) . . .
148(6) . . .
138(6) . . .
156(7) . . .
143(6) . . .
153(7) . . .
141(6) . . .
134(6) . . .
148(6) . . .
133(6) . . .
120(6) . . .
127(6) . . .
139(6) . . .
164(7) . . .
169(7) . . .
138(6) . . .
155(6) . . .
153(7) . . .
142(6) . . .
159(7) . . .
164(7) . . .
165(7) . . .
151(7) . . .
144(6) . . .
150(7) . . .
135(6) . . .
147(6) . . .
137(6) . . .
150(7) . . .
164(7) . . .
148(6) . . .
160(7) . . .
143(6) . . .
123(6) . . .
156(7) . . .
158(7) . . .
144(6) . . .
136(6) . . .
142(6) . . .
151(7) . . .
125(6) . . .
131(6) . . .
143(6) . . .
151(7) . . .
151(7) . . .
155(7) . . .
157(6) . . .
144(6) . . .
140(7) . . .
159(7) . . .
158(7) . . .
144(6) . . .
145(6) . . .
161(7) . . .
136(6) . . .
155(6) . . .
140(6) . . .
144(6) . . .
164(7) . . .
165(7) . . .
158(6) . . .
158(7) . . .
139(6) . . .
148(7) . . .
146(6) . . .
149(6) . . .
138(6) . . .
164(7) . . .
151(7) . . .
159(7) . . .
148(6) . . .
151(7) . . .
161(7) . . .
140(6) . . .
135(6) . . .
138(6) . . .
149(7) . . .
140(6) . . .
150(7) . . .
146(6) . . .
138(6) . . .
134(6) . . .
144(7) . . .
141(6) . . .
147(6) . . .
155(6) . . .
155(7) . . .
138(6) . . .
144(6) . . .
142(6) . . .
121(6) . . .
141(6) . . .
153(7) . . .
146(6) . . .
149(6) . . .
141(6) . . .
153(7) . . .
153(7) . . .
149(6) . . .
161(7) . . .
159(7) . . .
147(7) . . .
149(7) . . .
150(7) . . .
141(6) . . .
159(7) . . .
136(6) . . .
138(6) . . .
151(7) . . .
156(6) . . .
142(6) . . .
146(7) . . .
142(7) . . .
139(6) . . .
160(7) . . .
152(6) . . .
142(6) . . .
156(7) . . .
142(7) . . .
155(6) . . .
147(6) . . .
151(7) . . .
155(7) . . .
140(6) . . .
146(6) . . .
141(6) . . .
142(6) . . .
154(7) . . .
159(7) . . .
128(6) . . .
153(7) . . .
171(7) . . .
154(7) . . .
148(6) . . .
151(6) . . .
143(7) . . .
167(7) . . .
152(7) . . .
150(6) . . .
147(6) . . .
158(7) . . .
159(7) . . .
152(7) . . .
153(6) . . .
160(7) . . .
148(6) . . .
161(7) . . .
166(7) . . .
128(6) . . .
154(6) . . .
153(7) . . .
158(7) . . .
157(7) . . .
153(6) . . .
156(7) . . .
152(7) . . .
144(6) . . .
145(6) . . .
147(6) . . .
145(6) . . .
162(7) . . .
145(7) . . .
141(7) . . .
171(7) . . .
158(7) . . .
148(7) . . .
154(7) . . .
161(7) . . .
156(6) . . .
135(6) . . .
158(7) . . .
169(7) . . .
155(7) . . .
168(7) . . .
160(7) . . .
149(6) . . .
145(6) . . .
149(6) . . .
156(6) . . .
157(7) . . .
146(6) . . .
155(7) . . .
145(6) . . .
136(6) . . .
165(7) . . .
149(7) . . .
160(7) . . .
141(6) . . .
160(7) . . .
154(7) . . .
163(7) . . .
138(6) . . .
155(7) . . .
144(6) . . .
136(6) . . .
153(7) . . .
146(6) . . .
162(7) . . .
156(6) . . .
148(6) . . .
162(7) . . .
155(7) . . .
149(6) . . .
146(6) . . .
148(7) . . .
132(6) . . .
135(6) . . .
144(6) . . .
140(6) . . .
134(6) . . .
144(7) . . .
149(7) . . .
174(7) . . .
155(7) . . .
144(6) . . .
161(7) . . .
143(6) . . .
165(7) . . .
151(6) . . .
150(7) . . .
149(7) . . .
154(7) . . .
157(7) . . .
134(6) . . .
140(7) . . .
146(7) . . .
149(6) . . .
159(7) . . .
145(6) . . .
130(6) . . .
157(7) . . .
151(6) . . .
158(7) . . .
153(7) . . .
137(6) . . .
161(7) . . .
167(7) . . .
149(6) . . .
148(6) . . .
162(7) . . .
153(7) . . .
137(6) . . .
157(7) . . .
146(7) . . .
151(7) . . .
136(6) . . .
141(6) . . .
143(6) . . .
143(6) . . .
137(7) . . .
143(6) . . .
152(6) . . .
152(7) . . .
126(6) . . .
158(7) . . .
152(7) . . .
151(6) . . .
150(7) . . .
155(7) . . .
150(7) . . .
154(7) . . .
140(6) . . .
157(7) . . .
156(7) . . .
162(7) . . .
157(7) . . .
146(6) . . .
136(6) . . .
166(7) . . .
168(7) . . .
154(7) . . .
136(6) . . .
154(7) . . .
142(6) . . .
151(7) . . .
148(6) . . .
149(6) . . .
159(7) . . .
156(7) . . .
161(7) . . .
152(7) . . .
142(6) . . .
154(7) . . .
143(6) . . .
156(7) . . .
158(7) . . .
147(6) . . .
150(7) . . .
141(6) . . .
162(7) . . .
174(7) . . .
157(7) . . .
146(6) . . .
151(7) . . .
137(6) . . .
146(6) . . .
162(7) . . .
150(7) . . .
152(7) . . .
137(6) . . .
142(6) . . .
148(6) . . .
160(7) . . .
154(7) . . .
132(6) . . .
150(6) . . .
136(6) . . .
138(6) . . .
143(7) . . .
172(7) . . .
167(7) . . .
142(6) . . .
156(7) . . .
170(7) . . .
161(7) . . .
160(7) . . .
162(7) . . .
177(7) . . .
162(7) . . .
159(7) . . .
142(6) . . .
160(7) . . .
160(7) . . .
173(7) . . .
140(6) . . .
168(7) . . .
156(7) . . .
154(7) . . .
157(7) . . .
139(6) . . .
148(6) . . .
156(7) . . .
170(7) . . .
169(7) . . .
146(6) . . .
148(6) . . .
137(6) . . .
144(7) . . .
148(7) . . .
143(6) . . .
154(6) . . .
153(7) . . .
136(7) . . .
157(7) . . .
141(6) . . .
131(6) . . .
149(7) . . .
123(6) . . .
171(7) . . .
170(7) . . .
157(7) . . .
156(7) . . .
148(7) . . .
139(6) . . .
146(6) . . .
133(6) . . .
134(6) . . .
141(7) . . .
136(6) . . .
160(7) . . .
143(6) . . .
154(7) . . .
141(7) . . .
143(7) . . .
153(6) . . .
147(6) . . .
151(7) . . .
151(7) . . .
145(7) . . .
138(6) . . .
150(7) . . .
160(7) . . .
149(6) . . .
153(7) . . .
159(7) . . .
137(6) . . .
138(6) . . .
166(7) . . .
161(7) . . .
164(7) . . .
147(6) . . .
157(7) . . .
145(6) . . .
141(6) . . .
154(6) . . .
152(7) . . .
155(7) . . .
161(7) . . .
146(6) . . .
156(6) . . .
143(6) . . .
147(7) . . .
148(7) . . .
129(6) . . .
153(6) . . .
153(7) . . .
143(7) . . .
144(6) . . .
137(6) . . .
147(6) . . .
165(7) . . .
146(7) . . .
161(7) . . .
133(6) . . .
140(6) . . .
148(7) . . .
150(7) . . .
152(7) . . .
152(6) . . .
128(6) . . .
160(7) . . .
152(7) . . .
161(7) . . .
153(6) . . .
143(6) . . .
154(7) . . .
163(7) . . .
176(7) . . .
156(7) . . .
149(6) . . .
163(7) . . .
160(7) . . .
147(6) . . .
149(6) . . .
133(6) . . .
137(6) . . .
154(7) . . .
117(6) . . .
145(6) . . .
147(6) . . .
171(7) . . .
141(6) . . .
161(7) . . .
158(7) . . .
151(7) . . .
157(7) . . .
146(7) . . .
152(7) . . .
143(6) . . .
159(7) . . .
141(7) . . .
158(7) . . .
161(7) . . .
149(6) . . .
145(6) . . .
135(6) . . .
157(7) . . .
142(6) . . .
134(6) . . .
149(7) . . .
140(7) . . .
141(6) . . .
145(6) . . .
160(7) . . .
140(6) . . .
164(7) . . .
165(7) . . .
149(6) . . .
141(6) . . .
143(6) . . .
132(6) . . .
152(7) . . .
149(6) . . .
149(6) . . .
148(7) . . .
150(7) . . .
145(7) . . .
154(6) . . .
158(7) . . .
159(7) . . .
160(7) . . .
162(7) . . .
160(7) . . .
168(7) . . .
166(7) . . .
166(7) . . .
154(7) . . .
157(7) . . .
157(7) . . .
139(6) . . .
139(6) . . .
151(6) . . .
168(7) . . .
157(7) . . .
149(7) . . .
144(7) . . .
137(6) . . .
158(7) . . .
155(7) . . .
171(7) . . .
160(7) . . .
161(7) . . .
143(6) . . .
148(6) . . .
165(7) . . .
167(7) . . .
142(6) . . .
149(6) . . .
142(6) . . .
134(6) . . .
163(7) . . .
145(6) . . .
151(6) . . .
139(7) . . .
139(7) . . .
148(7) . . .
153(6) . . .
140(6) . . .
155(7) . . .
149(7) . . .
152(6) . . .
146(6) . . .
137(6) . . .
147(7) . . .
144(6) . . .
149(7) . . .
157(7) . . .
142(6) . . .
145(6) . . .
135(6) . . .
136(6) . . .
159(7) . . .
154(6) . . .
145(6) . . .
147(7) . . .
153(7) . . .
140(6) . . .
136(6) . . .
155(7) . . .
152(7) . . .
144(6) . . .
143(6) . . .
132(6) . . .
145(7) . . .
141(6) . . .
155(7) . . .
145(6) . . .
134(6) . . .
149(7) . . .
142(6) . . .
139(6) . . .
142(6) . . .
151(7) . . .
139(7) . . .
164(7) . . .
157(6) . . .
128(6) . . .
147(6) . . .
142(6) . . .
145(7) . . .
130(6) . . .
149(6) . . .
157(7) . . .
149(7) . . .
154(7) . . .
130(6) . . .
136(6) . . .
139(6) . . .
126(6) . . .
134(6) . . .
147(6) . . .
139(6) . . .
151(7) . . .
151(7) . . .
147(7) . . .
137(6) . . .
138(6) . . .
139(6) . . .
138(6) . . .
146(6) . . .
128(6) . . .
142(6) . . .
144(7) . . .
140(6) . . .
150(6) . . .
151(6) . . .
167(7) . . .
137(6) . . .
144(7) . . .
141(6) . . .
158(7) . . .
134(6) . . .
141(7) . . .
151(7) . . .
151(6) . . .
145(6) . . .
140(6) . . .
129(6) . . .
151(7) . . .
148(6) . . .
154(6) . . .
144(6) . . .
149(7) . . .
144(6) . . .
165(7) . . .
153(6) . . .
152(7) . . .
141(6) . . .
159(7) . . .
147(6) . . .
149(6) . . .
144(6) . . .
138(6) . . .
137(6) . . .
155(7) . . .
145(6) . . .
141(7) . . .
136(7) . . .
134(6) . . .
158(7) . . .
156(6) . . .
153(7) . . .
149(7) . . .
147(7) . . .
141(6) . . .
163(7) . . .
161(7) . . .
157(7) . . .
168(7) . . .
154(6) . . .
150(7) . . .
137(6) . . .
129(6) . . .
140(6) . . .
151(6) . . .
132(6) . . .
143(6) . . .
145(6) . . .
131(6) . . .
150(6) . . .
150(7) . . .
134(6) . . .
140(6) . . .
143(6) . . .
145(6) . . .
155(7) . . .
162(7) . . .
152(7) . . .
144(6) . . .
148(6) . . .
156(7) . . .
136(6) . . .
150(7) . . .
151(6) . . .
140(6) . . .
135(6) . . .
146(7) . . .
134(6) . . .
153(6) . . .
139(6) . . .
137(6) . . .
137(6) . . .
136(6) . . .
139(6) . . .
141(6) . . .
155(7) . . .
140(6) . . .
155(7) . . .
141(6) . . .
175(7) . . .
161(7) . . .
126(6) . . .
145(6) . . .
163(7) . . .
147(6) . . .
136(6) . . .
165(7) . . .
139(6) . . .
154(7) . . .
139(6) . . .
153(7) . . .
159(7) . . .
149(7) . . .
145(6) . . .
143(6) . . .
144(6) . . .
132(6) . . .
132(6) . . .
143(6) . . .
145(7) . . .
159(7) . . .
155(7) . . .
141(6) . . .
146(6) . . .
156(7) . . .
148(7) . . .
144(6) . . .
155(7) . . .
144(6) . . .
154(7) . . .
143(6) . . .
146(7) . . .
149(6) . . .
141(6) . . .
119(6) . . .
159(7) . . .
144(6) . . .
148(6) . . .
152(6) . . .
153(7) . . .
162(7) . . .
151(7) . . .
155(7) . . .
161(7) . . .
143(6) . . .
139(6) . . .
143(6) . . .
153(6) . . .
147(6) . . .
158(7) . . .
150(7) . . .
121(6) . . .
136(6) . . .
157(7) . . .
144(7) . . .
155(7) . . .
144(6) . . .
153(6) . . .
147(7) . . .
132(6) . . .
151(7) . . .
135(6) . . .
139(6) . . .
150(7) . . .
138(6) . . .
148(7) . . .
128(6) . . .
142(6) . . .
126(6) . . .
126(6) . . .
136(6) . . .
139(6) . . .
154(6) . . .
144(6) . . .
149(7) . . .
145(6) . . .
158(7) . . .
160(7) . . .
135(6) . . .
143(7) . . .
158(7) . . .
144(6) . . .
148(6) . . .
173(7) . . .
139(6) . . .
148(7) . . .
135(6) . . .
152(6) . . .
148(6) . . .
153(7) . . .
163(7) . . .
154(6) . . .
136(6) . . .
125(6) . . .
135(7) . . .
125(6) . . .
133(6) . . .
142(6) . . .
144(6) . . .
152(7) . . .
148(7) . . .
142(6) . . .
150(6) . . .
156(7) . . .
140(6) . . .
150(7) . . .
149(6) . . .
144(6) . . .
148(6) . . .
134(6) . . .
141(6) . . .
146(6) . . .
151(6) . . .
145(7) . . .
145(7) . . .
147(6) . . .
127(6) . . .
143(6) . . .
160(7) . . .
161(7) . . .
125(6) . . .
139(6) . . .
139(6) . . .
147(6) . . .
158(7) . . .
142(6) . . .
153(6) . . .
150(7) . . .
144(6) . . .
153(7) . . .
142(6) . . .
150(6) . . .
138(6) . . .
145(7) . . .
139(6) . . .
167(7) . . .
140(6) . . .
146(6) . . .
127(6) . . .
145(6) . . .
157(7) . . .
156(7) . . .
154(7) . . .
139(6) . . .
157(7) . . .
143(6) . . .
153(6) . . .
146(7) . . .
142(7) . . .
145(7) . . .
129(6) . . .
134(6) . . .
153(7) . . .
142(6) . . .
157(7) . . .
144(6) . . .
149(6) . . .
139(6) . . .
137(6) . . .
134(6) . . .
143(6) . . .
144(6) . . .
137(6) . . .
140(6) . . .
148(7) . . .
168(7) . . .
135(6) . . .
143(7) . . .
145(7) . . .
148(7) . . .
141(6) . . .
130(6) . . .
144(7) . . .
163(7) . . .
148(6) . . .
145(6) . . .
145(6) . . .
149(7) . . .
159(7) . . .
144(6) . . .
148(6) . . .
142(6) . . .
157(7) . . .
156(7) . . .
150(6) . . .
135(6) . . .
139(6) . . .
162(7) . . .
149(6) . . .
155(7) . . .
155(7) . . .
144(7) . . .
138(7) . . .
141(6) . . .
153(6) . . .
148(6) . . .
169(7) . . .
160(7) . . .
143(6) . . .
141(6) . . .
146(6) . . .
165(7) . . .
141(7) . . .
151(7) . . .
147(6) . . .
155(6) . . .
136(6) . . .
153(7) . . .
147(7) . . .
148(6) . . .
145(6) . . .
141(6) . . .
133(6) . . .
142(7) . . .
155(6) . . .
150(7) . . .
128(6) . . .
126(6) . . .
153(7) . . .
146(6) . . .
136(6) . . .
157(7) . . .
136(6) . . .
149(7) . . .
160(7) . . .
146(6) . . .
134(6) . . .
150(7) . . .
140(6) . . .
132(6) . . .
152(7) . . .
145(7) . . .
142(6) . . .
141(6) . . .
140(6) . . .
153(7) . . .
146(7) . . .
145(7) . . .
150(6) . . .
154(6) . . .
137(6) . . .
147(7) . . .
149(6) . . .
137(6) . . .
124(6) . . .
149(7) . . .
150(7) . . .
152(6) . . .
141(6) . . .
145(6) . . .
137(6) . . .
146(7) . . .
131(6) . . .
148(6) . . .
141(6) . . .
133(6) . . .
144(7) . . .
168(7) . . .
127(6) . . .
127(6) . . .
152(7) . . .
149(7) . . .
150(6) . . .
173(7) . . .
165(7) . . .
155(7) . . .
150(7) . . .
137(6) . . .
149(6) . . .
175(7) . . .
137(6) . . .
141(7) . . .
146(6) . . .
146(6) . . .
152(7) . . .
147(7) . . .
162(7) . . .
154(7) . . .
139(6) . . .
144(7) . . .
155(7) . . .
152(7) . . .
152(6) . . .
142(6) . . .
159(7) . . .
155(7) . . .
145(6) . . .
159(7) . . .
156(6) . . .
138(6) . . .
130(6) . . .
136(6) . . .
152(6) . . .
152(6) . . .
164(7) . . .
152(7) . . .
136(6) . . .
139(6) . . .
130(6) . . .
146(6) . . .
152(7) . . .
138(6) . . .
129(6) . . .
126(6) . . .
151(7) . . .
153(7) . . .
161(7) . . .
147(6) . . .
153(7) . . .
140(6) . . .
140(7) . . .
150(7) . . .
142(6) . . .
148(6) . . .
167(7) . . .
150(7) . . .
148(7) . . .
148(6) . . .
152(7) . . .
140(6) . . .
137(6) . . .
155(7) . . .
142(6) . . .
123(6) . . .
153(7) . . .
133(6) . . .
132(6) . . .
137(6) . . .
140(6) . . .
136(6) . . .
145(6) . . .
147(7) . . .
148(6) . . .
142(6) . . .
125(6) . . .
154(7) . . .
163(7) . . .
140(6) . . .
138(6) . . .
145(7) . . .
141(6) . . .
162(7) . . .
147(6) . . .
130(6) . . .
138(7) . . .
159(7) . . .
147(6) . . .
146(6) . . .
149(6) . . .
145(7) . . .
155(7) . . .
153(6) . . .
135(6) . . .
151(7) . . .
146(6) . . .
132(6) . . .
138(6) . . .
144(6) . . .
144(6) . . .
150(7) . . .
137(6) . . .
138(6) . . .
153(7) . . .
137(6) . . .
155(7) . . .
153(7) . . .
160(7) . . .
158(7) . . .
149(7) . . .
132(6) . . .
134(6) . . .
143(6) . . .
140(6) . . .
153(7) . . .
147(7) . . .
139(6) . . .
146(6) . . .
151(7) . . .
144(7) . . .
153(7) . . .
148(6) . . .
145(6) . . .
154(7) . . .
152(7) . . .
148(6) . . .
142(6) . . .
152(6) . . .
161(7) . . .
153(7) . . .
149(7) . . .
162(7) . . .
161(7) . . .
139(6) . . .
153(7) . . .
161(7) . . .
150(6) . . .
140(6) . . .
137(6) . . .
149(7) . . .
143(6) . . .
148(6) . . .
158(7) . . .
151(7) . . .
152(7) . . .
135(6) . . .
134(6) . . .
144(6) . . .
138(6) . . .
142(6) . . .
149(7) . . .
145(6) . . .
156(7) . . .
142(6) . . .
147(7) . . .
133(6) . . .
155(6) . . .
135(6) . . .
133(6) . . .
162(7) . . .
136(6) . . .
146(6) . . .
138(6) . . .
140(6) . . .
132(6) . . .
133(6) . . .
133(6) . . .
128(6) . . .
139(6) . . .
135(6) . . .
137(6) . . .
143(6) . . .
140(6) . . .
145(7) . . .
144(7) . . .
159(7) . . .
136(6) . . .
131(6) . . .
147(7) . . .
136(6) . . .
133(6) . . .
136(6) . . .
142(6) . . .
134(6) . . .
139(6) . . .
147(6) . . .
129(6) . . .
152(7) . . .
158(7) . . .
144(6) . . .
138(6) . . .
131(6) . . .
135(6) . . .
145(7) . . .
147(6) . . .
144(6) . . .
155(7) . . .
132(6) . . .
135(6) . . .
154(7) . . .
145(6) . . .
138(6) . . .
146(7) . . .
146(7) . . .
147(6) . . .
156(6) . . .
130(6) . . .
152(7) . . .
139(6) . . .
145(7) . . .
143(6) . . .
164(7) . . .
134(6) . . .
134(6) . . .
137(6) . . .
142(6) . . .
146(6) . . .
153(7) . . .
138(6) . . .
150(7) . . .
133(6) . . .
135(6) . . .
147(7) . . .
143(7) . . .
134(6) . . .
144(6) . . .
155(7) . . .
158(7) . . .
153(7) . . .
154(7) . . .
136(6) . . .
134(6) . . .
133(6) . . .
137(6) . . .
141(6) . . .
139(6) . . .
132(6) . . .
163(7) . . .
144(6) . . .
129(6) . . .
140(6) . . .
152(7) . . .
143(7) . . .
142(6) . . .
151(6) . . .
133(6) . . .
143(6) . . .
145(7) . . .
127(6) . . .
145(6) . . .
152(7) . . .
147(7) . . .
138(6) . . .
148(7) . . .
148(6) . . .
135(6) . . .
153(7) . . .
150(7) . . .
132(6) . . .
145(6) . . .
150(7) . . .
135(6) . . .
153(7) . . .
140(6) . . .
143(6) . . .
138(6) . . .
114(6) . . .
125(6) . . .
138(6) . . .
132(6) . . .
142(6) . . .
157(7) . . .
134(6) . . .
132(6) . . .
146(6) . . .
148(6) . . .
132(6) . . .
140(6) . . .
151(6) . . .
135(6) . . .
138(6) . . .
152(7) . . .
143(6) . . .
146(6) . . .
145(6) . . .
130(6) . . .
137(7) . . .
136(6) . . .
139(6) . . .
142(6) . . .
145(7) . . .
132(6) . . .
118(6) . . .
138(6) . . .
145(6) . . .
149(6) . . .
140(7) . . .
123(6) . . .
132(6) . . .
135(6) . . .
166(7) . . .
172(7) . . .
148(7) . . .
158(7) . . .
124(6) . . .
133(6) . . .
148(7) . . .
137(6) . . .
136(6) . . .
134(6) . . .
134(6) . . .
134(6) . . .
118(6) . . .
135(6) . . .
141(6) . . .
151(7) . . .
139(6) . . .
123(6) . . .
138(6) . . .
159(7) . . .
140(6) . . .
153(7) . . .
141(6) . . .
148(6) . . .
139(6) . . .
154(7) . . .
159(7) . . .
139(6) . . .
133(6) . . .
134(6) . . .
118(6) . . .
129(6) . . .
133(6) . . .
145(6) . . .
133(6) . . .
148(7) . . .
141(6) . . .
152(6) . . .
122(6) . . .
126(6) . . .
140(7) . . .
150(7) . . .
142(6) . . .
131(6) . . .
139(6) . . .
138(7) . . .
121(6) . . .
147(6) . . .
145(6) . . .
151(7) . . .
145(6) . . .
151(6) . . .
138(6) . . .
140(6) . . .
144(6) . . .
136(6) . . .
132(6) . . .
137(6) . . .
149(7) . . .
130(6) . . .
146(7) . . .
128(6) . . .
121(6) . . .
143(7) . . .
143(7) . . .
133(6) . . .
140(6) . . .
145(6) . . .
141(6) . . .
134(6) . . .
134(6) . . .
128(6) . . .
141(6) . . .
144(7) . . .
123(6) . . .
147(7) . . .
159(7) . . .
127(6) . . .
127(6) . . .
141(7) . . .
138(6) . . .
141(6) . . .
131(6) . . .
118(6) . . .
116(6) . . .
152(7) . . .
141(6) . . .
131(6) . . .
155(7) . . .
152(7) . . .
149(7) . . .
135(6) . . .
134(6) . . .
137(6) . . .
145(7) . . .
150(6) . . .
160(7) . . .
141(6) . . .
126(6) . . .
132(6) . . .
133(6) . . .
132(6) . . .
142(6) . . .
115(6) . . .
131(6) . . .
132(6) . . .
134(6) . . .
139(6) . . .
138(6) . . .
130(6) . . .
139(6) . . .
143(6) . . .
157(7) . . .
134(6) . . .
156(7) . . .
131(6) . . .
131(6) . . .
141(7) . . .
136(6) . . .
127(6) . . .
142(6) . . .
132(6) . . .
124(6) . . .
127(6) . . .
134(6) . . .
143(6) . . .
141(6) . . .
153(7) . . .
143(7) . . .
134(6) . . .
150(6) . . .
135(6) . . .
130(6) . . .
133(6) . . .
150(7) . . .
131(6) . . .
140(6) . . .
155(7) . . .
145(7) . . .
124(6) . . .
151(6) . . .
142(6) . . .
135(6) . . .
143(7) . . .
140(6) . . .
140(6) . . .
145(6) . . .
128(6) . . .
135(6) . . .
140(6) . . .
153(6) . . .
151(6) . . .
132(6) . . .
139(7) . . .
142(7) . . .
135(6) . . .
150(6) . . .
140(6) . . .
151(7) . . .
128(6) . . .
124(6) . . .
131(6) . . .
142(6) . . .
147(6) . . .
138(6) . . .
123(6) . . .
134(6) . . .
120(6) . . .
144(7) . . .
135(6) . . .
133(6) . . .
119(6) . . .
129(6) . . .
159(7) . . .
144(6) . . .
120(6) . . .
135(6) . . .
133(6) . . .
137(6) . . .
154(7) . . .
142(6) . . .
140(6) . . .
138(7) . . .
156(7) . . .
138(6) . . .
139(6) . . .
143(6) . . .
141(7) . . .
145(7) . . .
127(6) . . .
130(6) . . .
133(6) . . .
135(7) . . .
141(6) . . .
142(6) . . .
149(6) . . .
133(6) . . .
148(7) . . .
142(6) . . .
138(6) . . .
129(6) . . .
115(6) . . .
132(6) . . .
129(6) . . .
137(6) . . .
127(6) . . .
140(6) . . .
137(6) . . .
129(6) . . .
148(6) . . .
137(6) . . .
135(6) . . .
140(6) . . .
136(6) . . .
150(6) . . .
146(6) . . .
136(6) . . .
138(6) . . .
121(6) . . .
140(6) . . .
128(6) . . .
115(6) . . .
131(6) . . .
132(6) . . .
136(6) . . .
137(6) . . .
137(6) . . .
135(6) . . .
135(6) . . .
136(6) . . .
149(7) . . .
138(6) . . .
133(6) . . .
136(6) . . .
109(5) . . .
130(6) . . .
120(6) . . .
142(6) . . .
118(6) . . .
137(6) . . .
128(6) . . .
139(7) . . .
119(6) . . .
131(6) . . .
134(6) . . .
150(6) . . .
145(6) . . .
154(7) . . .
132(6) . . .
135(6) . . .
133(6) . . .
139(6) . . .
131(6) . . .
142(6) . . .
130(6) . . .
122(6) . . .
127(6) . . .
135(6) . . .
138(6) . . .
129(6) . . .
144(7) . . .
131(6) . . .
132(6) . . .
143(6) . . .
134(6) . . .
137(6) . . .
131(6) . . .
138(6) . . .
146(6) . . .
136(6) . . .
136(6) . . .
162(7) . . .
150(7) . . .
137(6) . . .
123(6) . . .
132(6) . . .
147(7) . . .
139(6) . . .
141(6) . . .
146(6) . . .
150(7) . . .
138(6) . . .
140(6) . . .
133(6) . . .
129(6) . . .
152(7) . . .
138(6) . . .
131(6) . . .
137(6) . . .
142(6) . . .
124(6) . . .
128(6) . . .
128(6) . . .
132(6) . . .
139(6) . . .
138(6) . . .
139(6) . . .
127(6) . . .
148(6) . . .
130(6) . . .
124(6) . . .
141(6) . . .
135(6) . . .
144(6) . . .
132(6) . . .
135(6) . . .
128(6) . . .
145(6) . . .
139(6) . . .
138(6) . . .
140(7) . . .
138(6) . . .
145(6) . . .
146(6) . . .
137(6) . . .
148(7) . . .
132(6) . . .
146(6) . . .
130(6) . . .
133(6) . . .
133(6) . . .
145(6) . . .
137(6) . . .
140(7) . . .
136(6) . . .
146(7) . . .
136(6) . . .
138(6) . . .
149(7) . . .
135(6) . . .
130(6) . . .
122(6) . . .
120(6) . . .
125(6) . . .
113(6) . . .
119(6) . . .
135(6) . . .
129(6) . . .
151(7) . . .
126(6) . . .
147(7) . . .
131(6) . . .
127(6) . . .
129(6) . . .
149(7) . . .
135(6) . . .
138(6) . . .
138(6) . . .
131(6) . . .
129(6) . . .
144(6) . . .
133(6) . . .
135(6) . . .
145(6) . . .
133(6) . . .
127(6) . . .
137(6) . . .
136(6) . . .
131(6) . . .
134(7) . . .
137(6) . . .
135(6) . . .
149(7) . . .
132(6) . . .
149(7) . . .
141(6) . . .
122(6) . . .
121(6) . . .
135(6) . . .
135(6) . . .
135(6) . . .
128(6) . . .
134(6) . . .
125(6) . . .
154(7) . . .
141(6) . . .
136(6) . . .
139(6) . . .
128(6) . . .
135(6) . . .
151(6) . . .
124(6) . . .
138(6) . . .
147(7) . . .
151(7) . . .
117(6) . . .
132(6) . . .
136(6) . . .
135(6) . . .
146(6) . . .
131(6) . . .
132(6) . . .
124(6) . . .
138(7) . . .
135(6) . . .
132(6) . . .
141(6) . . .
144(6) . . .
147(7) . . .
137(6) . . .
124(6) . . .
145(6) . . .
137(6) . . .
140(7) . . .
128(6) . . .
136(6) . . .
130(6) . . .
115(6) . . .
126(6) . . .
137(6) . . .
130(6) . . .
139(6) . . .
133(6) . . .
130(6) . . .
136(6) . . .
147(6) . . .
135(6) . . .
117(6) . . .
132(6) . . .
119(6) . . .
132(6) . . .
142(6) . . .
132(6) . . .
134(6) . . .
126(6) . . .
142(6) . . .
137(6) . . .
116(6) . . .
126(6) . . .
128(6) . . .
129(6) . . .
137(6) . . .
137(6) . . .
124(6) . . .
127(6) . . .
147(6) . . .
130(6) . . .
129(6) . . .
129(6) . . .
119(6) . . .
149(6) . . .
134(6) . . .
144(7) . . .
144(6) . . .
143(6) . . .
145(6) . . .
146(7) . . .
134(6) . . .
153(7) . . .
123(6) . . .
142(6) . . .
140(6) . . .
143(6) . . .
141(6) . . .
144(6) . . .
139(6) . . .
128(6) . . .
137(6) . . .
124(6) . . .
124(6) . . .
138(6) . . .
132(6) . . .
144(7) . . .
138(6) . . .
126(6) . . .
138(6) . . .
141(6) . . .
132(6) . . .
129(6) . . .
134(6) . . .
114(6) . . .
132(6) . . .
149(7) . . .
138(6) . . .
138(6) . . .
139(6) . . .
149(7) . . .
133(6) . . .
119(6) . . .
138(6) . . .
108(5) . . .
116(6) . . .
137(6) . . .
139(6) . . .
138(6) . . .
143(7) . . .
147(7) . . .
141(6) . . .
137(6) . . .
117(6) . . .
130(6) . . .
125(6) . . .
116(6) . . .
142(6) . . .
141(6) . . .
128(6) . . .
146(7) . . .
154(7) . . .
132(6) . . .
134(6) . . .
126(6) . . .
118(6) . . .
127(6) . . .
123(6) . . .
141(6) . . .
129(6) . . .
130(6) . . .
128(6) . . .
128(6) . . .
115(6) . . .
133(6) . . .
149(7) . . .
129(6) . . .
134(6) . . .
138(6) . . .
152(7) . . .
137(6) . . .
145(6) . . .
130(6) . . .
132(6) . . .
136(7) . . .
127(6) . . .
137(6) . . .
145(6) . . .
133(6) . . .
130(6) . . .
138(6) . . .
131(6) . . .
142(6) . . .
130(6) . . .
124(6) . . .
128(6) . . .
134(6) . . .
145(6) . . .
135(6) . . .
126(6) . . .
124(6) . . .
121(6) . . .
147(6) . . .
133(6) . . .
143(7) . . .
140(6) . . .
148(6) . . .
134(6) . . .
142(6) . . .
139(6) . . .
136(6) . . .
135(6) . . .
130(6) . . .
120(6) . . .
148(7) . . .
151(7) . . .
138(6) . . .
127(6) . . .
133(6) . . .
130(6) . . .
138(6) . . .
148(6) . . .
126(6) . . .
124(6) . . .
123(6) . . .
134(6) . . .
120(6) . . .
137(6) . . .
139(6) . . .
145(7) . . .
144(6) . . .
125(6) . . .
121(6) . . .
132(6) . . .
146(7) . . .
135(6) . . .
167(7) . . .
142(7) . . .
122(6) . . .
134(6) . . .
125(6) . . .
153(6) . . .
133(6) . . .
142(7) . . .
140(6) . . .
145(6) . . .
140(6) . . .
118(6) . . .
125(6) . . .
131(6) . . .
142(6) . . .
147(6) . . .
135(6) . . .
140(7) . . .
138(6) . . .
145(6) . . .
136(6) . . .
135(6) . . .
139(7) . . .
129(6) . . .
130(6) . . .
139(6) . . .
133(6) . . .
136(6) . . .
139(6) . . .
146(6) . . .
143(6) . . .
131(6) . . .
130(6) . . .
126(6) . . .
138(6) . . .
143(6) . . .
123(6) . . .
133(6) . . .
151(7) . . .
132(6) . . .
135(6) . . .
123(6) . . .
139(6) . . .
153(7) . . .
141(6) . . .
127(6) . . .
125(6) . . .
130(6) . . .
129(6) . . .
138(6) . . .
133(6) . . .
150(7) . . .
122(6) . . .
129(6) . . .
125(6) . . .
141(6) . . .
147(7) . . .
133(6) . . .
143(6) . . .
142(6) . . .
122(6) . . .
123(6) . . .
116(6) . . .
120(6) . . .
142(6) . . .
126(6) . . .
131(6) . . .
119(6) . . .
140(6) . . .
134(6) . . .
114(6) . . .
123(6) . . .
142(6) . . .
131(6) . . .
119(6) . . .
138(6) . . .
136(7) . . .
132(6) . . .
127(6) . . .
135(6) . . .
144(6) . . .
123(6) . . .
130(6) . . .
138(6) . . .
152(6) . . .
141(6) . . .
131(6) . . .
131(6) . . .
136(6) . . .
134(6) . . .
134(6) . . .
143(7) . . .
135(6) . . .
127(6) . . .
127(6) . . .
127(6) . . .
132(6) . . .
131(6) . . .
137(6) . . .
125(6) . . .
129(6) . . .
125(6) . . .
131(6) . . .
118(6) . . .
145(7) . . .
140(6) . . .
123(6) . . .
124(6) . . .
132(6) . . .
113(6) . . .
116(6) . . .
149(7) . . .
135(6) . . .
135(6) . . .
137(6) . . .
129(6) . . .
125(6) . . .
137(6) . . .
145(6) . . .
139(6) . . .
147(7) . . .
139(6) . . .
132(6) . . .
168(7) . . .
143(6) . . .
125(6) . . .
115(6) . . .
129(6) . . .
136(6) . . .
131(6) . . .
123(6) . . .
134(6) . . .
133(6) . . .
125(6) . . .
101(5) . . .
139(7) . . .
134(6) . . .
114(6) . . .
124(6) . . .
135(6) . . .
126(6) . . .
136(6) . . .
129(6) . . .
127(6) . . .
124(6) . . .
105(6) . . .
128(6) . . .
135(6) . . .
117(6) . . .
125(6) . . .
128(6) . . .
128(6) . . .
129(6) . . .
140(6) . . .
120(6) . . .
140(7) . . .
154(7) . . .
137(6) . . .
148(6) . . .
142(7) . . .
158(7) . . .
125(6) . . .
126(6) . . .
128(6) . . .
115(6) . . .
116(6) . . .
135(6) . . .
145(6) . . .
119(6) . . .
126(6) . . .
134(6) . . .
139(6) . . .
141(6) . . .
137(6) . . .
135(6) . . .
119(6) . . .
107(5) . . .
116(6) . . .
124(6) . . .
133(6) . . .
122(6) . . .
128(6) . . .
119(6) . . .
136(6) . . .
128(6) . . .
119(6) . . .
120(6) . . .
134(6) . . .
116(6) . . .
115(6) . . .
123(6) . . .
136(6) . . .
126(6) . . .
136(6) . . .
158(7) . . .
136(6) . . .
126(6) . . .
141(6) . . .
134(6) . . .
117(6) . . .
121(6) . . .
134(6) . . .
138(6) . . .
142(6) . . .
140(6) . . .
130(6) . . .
122(6) . . .
125(6) . . .
137(6) . . .
137(6) . . .
142(6) . . .
124(6) . . .
146(7) . . .
128(6) . . .
122(6) . . .
122(6) . . .
137(6) . . .
151(7) . . .
152(7) . . .
130(6) . . .
126(6) . . .
128(6) . . .
132(6) . . .
133(6) . . .
118(6) . . .
138(6) . . .
151(6) . . .
158(7) . . .
131(6) . . .
137(6) . . .
122(6) . . .
120(6) . . .
125(6) . . .
137(7) . . .
123(6) . . .
119(6) . . .
133(6) . . .
134(6) . . .
123(6) . . .
112(5) . . .
130(6) . . .
130(6) . . .
116(6) . . .
126(6) . . .
126(6) . . .
133(6) . . .
120(6) . . .
141(6) . . .
132(6) . . .
142(6) . . .
135(6) . . .
109(6) . . .
117(6) . . .
131(6) . . .
143(6) . . .
124(6) . . .
115(6) . . .
143(7) . . .
140(6) . . .
133(6) . . .
123(6) . . .
127(6) . . .
140(7) . . .
120(6) . . .
130(6) . . .
138(6) . . .
140(6) . . .
132(6) . . .
142(7) . . .
137(6) . . .
125(6) . . .
136(6) . . .
129(6) . . .
130(6) . . .
129(6) . . .
133(6) . . .
117(6) . . .
129(6) . . .
125(6) . . .
136(6) . . .
131(6) . . .
123(6) . . .
145(7) . . .
130(6) . . .
136(6) . . .
125(6) . . .
122(6) . . .
141(7) . . .
126(6) . . .
125(6) . . .
129(6) . . .
124(6) . . .
131(6) . . .
123(6) . . .
142(6) . . .
136(6) . . .
124(6) . . .
141(7) . . .
137(6) . . .
131(6) . . .
128(6) . . .
130(6) . . .
123(6) . . .
121(6) . . .
131(6) . . .
131(6) . . .
132(6) . . .
134(6) . . .
130(6) . . .
118(6) . . .
107(5) . . .
142(7) . . .
131(6) . . .
125(6) . . .
128(6) . . .
133(6) . . .
128(6) . . .
127(6) . . .
140(6) . . .
128(6) . . .
138(6) . . .
148(7) . . .
131(6) . . .
133(6) . . .
139(6) . . .
130(6) . . .
128(6) . . .
132(6) . . .
129(6) . . .
140(6) . . .
129(6) . . .
141(6) . . .
154(7) . . .
128(6) . . .
129(6) . . .
138(7) . . .
123(6) . . .
126(6) . . .
121(6) . . .
116(6) . . .
138(6) . . .
141(6) . . .
129(6) . . .
129(6) . . .
135(6) . . .
132(6) . . .
125(6) . . .
112(6) . . .
129(6) . . .
131(6) . . .
116(6) . . .
119(6) . . .
129(6) . . .
124(6) . . .
131(6) . . .
129(6) . . .
142(7) . . .
130(6) . . .
123(6) . . .
117(6) . . .
136(6) . . .
140(6) . . .
135(6) . . .
138(6) . . .
127(6) . . .
151(7) . . .
135(6) . . .
144(6) . . .
121(6) . . .
119(6) . . .
122(6) . . .
135(6) . . .
137(6) . . .
124(6) . . .
133(6) . . .
125(6) . . .
129(6) . . .
130(6) . . .
131(6) . . .
133(6) . . .
120(6) . . .
132(6) . . .
129(6) . . .
125(6) . . .
136(7) . . .
116(6) . . .
119(6) . . .
138(6) . . .
130(6) . . .
124(6) . . .
124(6) . . .
139(6) . . .
126(6) . . .
128(6) . . .
141(6) . . .
144(6) . . .
148(6) . . .
141(6) . . .
130(6) . . .
130(6) . . .
141(6) . . .
131(6) . . .
135(6) . . .
139(6) . . .
139(6) . . .
130(6) . . .
139(6) . . .
130(6) . . .
140(6) . . .
123(6) . . .
142(6) . . .
138(6) . . .
134(6) . . .
135(6) . . .
129(6) . . .
128(6) . . .
123(6) . . .
111(6) . . .
123(6) . . .
121(6) . . .
131(6) . . .
132(6) . . .
135(6) . . .
140(6) . . .
137(6) . . .
137(6) . . .
131(6) . . .
127(6) . . .
133(6) . . .
130(7) . . .
130(6) . . .
139(6) . . .
126(6) . . .
145(6) . . .
132(6) . . .
136(6) . . .
132(6) . . .
117(6) . . .
119(6) . . .
119(6) . . .
129(6) . . .
141(6) . . .
157(7) . . .
142(6) . . .
129(6) . . .
155(7) . . .
132(6) . . .
141(6) . . .
127(6) . . .
130(6) . . .
113(6) . . .
128(6) . . .
126(6) . . .
127(6) . . .
130(6) . . .
136(6) . . .
122(6) . . .
140(6) . . .
137(7) . . .
137(7) . . .
131(6) . . .
143(6) . . .
133(6) . . .
135(6) . . .
138(6) . . .
145(7) . . .
129(6) . . .
129(6) . . .
137(7) . . .
138(6) . . .
142(6) . . .
141(6) . . .
129(6) . . .
144(7) . . .
127(6) . . .
142(6) . . .
128(6) . . .
142(7) . . .
128(6) . . .
128(6) . . .
136(6) . . .
136(6) . . .
141(6) . . .
137(7) . . .
118(6) . . .
140(6) . . .
136(6) . . .
129(6) . . .
143(6) . . .
134(6) . . .
128(6) . . .
136(6) . . .
128(6) . . .
137(6) . . .
132(6) . . .
150(6) . . .
122(6) . . .
123(6) . . .
132(6) . . .
125(6) . . .
132(6) . . .
138(6) . . .
119(6) . . .
133(6) . . .
134(6) . . .
119(6) . . .
136(6) . . .
133(6) . . .
128(6) . . .
114(6) . . .
135(6) . . .
142(6) . . .
130(6) . . .
119(6) . . .
136(6) . . .
137(6) . . .
140(7) . . .
125(6) . . .
136(6) . . .
125(6) . . .
121(6) . . .
124(6) . . .
123(6) . . .
123(6) . . .
145(6) . . .
136(6) . . .
154(7) . . .
141(7) . . .
137(6) . . .
117(6) . . .
136(6) . . .
126(6) . . .
136(7) . . .
126(6) . . .
125(6) . . .
136(6) . . .
127(6) . . .
127(6) . . .
131(6) . . .
129(6) . . .
123(6) . . .
118(6) . . .
136(7) . . .
128(6) . . .
139(6) . . .
109(6) . . .
113(6) . . .
124(6) . . .
110(5) . . .
129(6) . . .
116(6) . . .
118(6) . . .
111(6) . . .
136(6) . . .
119(6) . . .
114(6) . . .
125(6) . . .
136(6) . . .
126(6) . . .
116(6) . . .
133(6) . . .
132(6) . . .
123(6) . . .
109(5) . . .
118(6) . . .
119(6) . . .
127(6) . . .
144(7) . . .
126(6) . . .
112(5) . . .
117(6) . . .
129(6) . . .
132(6) . . .
115(6) . . .
128(6) . . .
140(6) . . .
132(7) . . .
125(6) . . .
130(6) . . .
129(6) . . .
131(6) . . .
115(6) . . .
122(6) . . .
124(6) . . .
122(6) . . .
123(6) . . .
133(6) . . .
128(6) . . .
129(6) . . .
141(6) . . .
107(5) . . .
106(6) . . .
107(5) . . .
146(6) . . .
130(6) . . .
126(6) . . .
129(7) . . .
111(6) . . .
122(6) . . .
125(6) . . .
125(6) . . .
127(6) . . .
128(6) . . .
125(6) . . .
140(6) . . .
120(6) . . .
124(6) . . .
130(6) . . .
137(6) . . .
111(6) . . .
122(6) . . .
112(6) . . .
117(6) . . .
132(6) . . .
134(6) . . .
120(6) . . .
135(6) . . .
112(6) . . .
117(6) . . .
128(6) . . .
131(6) . . .
133(6) . . .
122(6) . . .
126(6) . . .
116(6) . . .
136(7) . . .
131(6) . . .
122(6) . . .
122(6) . . .
122(6) . . .
128(6) . . .
144(6) . . .
129(6) . . .
121(6) . . .
145(7) . . .
114(6) . . .
119(6) . . .
132(6) . . .
131(6) . . .
121(6) . . .
129(6) . . .
124(6) . . .
146(6) . . .
128(6) . . .
108(5) . . .
127(6) . . .
133(6) . . .
134(6) . . .
117(6) . . .
132(6) . . .
137(6) . . .
136(6) . . .
124(6) . . .
133(6) . . .
137(6) . . .
123(6) . . .
121(6) . . .
138(6) . . .
132(6) . . .
127(6) . . .
148(7) . . .
135(6) . . .
150(6) . . .
116(6) . . .
120(6) . . .
123(6) . . .
126(6) . . .
132(6) . . .
117(6) . . .
122(6) . . .
114(6) . . .
122(6) . . .
123(6) . . .
110(6) . . .
116(6) . . .
121(6) . . .
145(6) . . .
117(6) . . .
132(6) . . .
131(6) . . .
132(6) . . .
110(5) . . .
126(6) . . .
139(6) . . .
121(6) . . .
139(6) . . .
125(6) . . .
121(6) . . .
113(6) . . .
136(7) . . .
126(6) . . .
126(6) . . .
129(6) . . .
137(7) . . .
128(6) . . .
146(7) . . .
145(6) . . .
143(6) . . .
121(6) . . .
123(6) . . .
141(6) . . .
138(6) . . .
126(6) . . .
123(6) . . .
130(6) . . .
139(6) . . .
134(6) . . .
140(7) . . .
122(6) . . .
108(6) . . .
119(6) . . .
125(6) . . .
154(7) . . .
137(7) . . .
136(6) . . .
126(6) . . .
138(6) . . .
123(6) . . .
139(7) . . .
138(7) . . .
114(6) . . .
117(6) . . .
115(6) . . .
123(6) . . .
123(6) . . .
136(6) . . .
142(6) . . .
134(6) . . .
127(6) . . .
124(6) . . .
132(6) . . .
121(6) . . .
127(6) . . .
136(7) . . .
140(6) . . .
123(6) . . .
108(5) . . .
131(6) . . .
141(7) . . .
120(6) . . .
124(6) . . .
127(6) . . .
138(7) . . .
118(6) . . .
128(6) . . .
130(6) . . .
112(6) . . .
120(6) . . .
139(7) . . .
114(6) . . .
116(6) . . .
118(6) . . .
125(6) . . .
121(6) . . .
136(6) . . .
141(6) . . .
128(6) . . .
130(6) . . .
129(6) . . .
121(6) . . .
124(6) . . .
123(6) . . .
112(6) . . .
130(6) . . .
125(6) . . .
126(6) . . .
135(6) . . .
138(7) . . .
118(6) . . .
120(6) . . .
147(6) . . .
142(6) . . .
123(6) . . .
126(6) . . .
139(6) . . .
128(6) . . .
133(6) . . .
137(7) . . .
129(6) . . .
130(6) . . .
139(6) . . .
120(6) . . .
125(6) . . .
134(6) . . .
121(6) . . .
118(6) . . .
121(6) . . .
123(6) . . .
136(6) . . .
131(6) . . .
124(6) . . .
114(6) . . .
120(6) . . .
126(6) . . .
135(6) . . .
113(6) . . .
102(5) . . .
115(6) . . .
126(6) . . .
146(6) . . .
133(6) . . .
139(6) . . .
126(6) . . .
129(6) . . .
120(6) . . .
122(6) . . .
124(6) . . .
126(6) . . .
119(6) . . .
134(6) . . .
136(6) . . .
110(6) . . .
113(6) . . .
132(6) . . .
124(6) . . .
121(6) . . .
120(6) . . .
110(5) . . .
135(6) . . .
128(6) . . .
123(6) . . .
124(6) . . .
121(6) . . .
128(6) . . .
118(6) . . .
114(6) . . .
116(6) . . .
123(6) . . .
115(6) . . .
126(6) . . .
114(6) . . .
124(6) . . .
117(6) . . .
120(6) . . .
118(6) . . .
134(6) . . .
121(6) . . .
136(6) . . .
129(6) . . .
118(6) . . .
114(6) . . .
110(6) . . .
133(6) . . .
129(6) . . .
106(6) . . .
114(6) . . .
122(6) . . .
134(6) . . .
118(6) . . .
117(6) . . .
111(6) . . .
119(6) . . .
125(6) . . .
115(6) . . .
117(6) . . .
120(6) . . .
121(6) . . .
121(6) . . .
125(6) . . .
119(6) . . .
124(6) . . .
127(6) . . .
117(6) . . .
124(6) . . .
118(6) . . .
114(6) . . .
117(6) . . .
111(5) . . .
113(6) . . .
109(6) . . .
140(7) . . .
121(6) . . .
115(6) . . .
122(6) . . .
131(6) . . .
134(7) . . .
119(6) . . .
107(5) . . .
116(6) . . .
126(6) . . .
130(6) . . .
120(6) . . .
135(6) . . .
111(5) . . .
125(6) . . .
119(6) . . .
126(6) . . .
128(6) . . .
129(6) . . .
140(6) . . .
121(6) . . .
132(6) . . .
118(6) . . .
130(6) . . .
128(6) . . .
133(6) . . .
119(6) . . .
116(6) . . .
106(5) . . .
136(6) . . .
126(6) . . .
117(6) . . .
119(6) . . .
129(6) . . .
132(6) . . .
116(6) . . .
118(6) . . .
124(6) . . .
133(6) . . .
129(6) . . .
133(6) . . .
127(6) . . .
110(5) . . .
119(6) . . .
110(6) . . .
122(6) . . .
133(6) . . .
137(6) . . .
137(6) . . .
123(6) . . .
109(6) . . .
118(6) . . .
118(6) . . .
124(6) . . .
126(6) . . .
122(6) . . .
128(6) . . .
126(6) . . .
114(6) . . .
118(6) . . .
124(6) . . .
117(6) . . .
123(6) . . .
130(6) . . .
120(6) . . .
109(6) . . .
120(6) . . .
109(6) . . .
112(6) . . .
124(6) . . .
125(6) . . .
128(6) . . .
125(6) . . .
124(6) . . .
126(6) . . .
120(6) . . .
121(6) . . .
128(6) . . .
115(6) . . .
121(6) . . .
127(6) . . .
134(6) . . .
108(5) . . .
116(6) . . .
136(6) . . .
125(6) . . .
124(6) . . .
122(6) . . .
126(6) . . .
123(6) . . .
115(6) . . .
123(6) . . .
138(6) . . .
127(6) . . .
127(6) . . .
114(6) . . .
114(6) . . .
121(6) . . .
130(7) . . .
120(6) . . .
125(6) . . .
142(6) . . .
125(6) . . .
113(6) . . .
126(6) . . .
117(6) . . .
122(6) . . .
124(6) . . .
119(6) . . .
114(6) . . .
124(6) . . .
119(6) . . .
111(6) . . .
133(6) . . .
126(6) . . .
129(6) . . .
116(6) . . .
111(6) . . .
120(6) . . .
127(6) . . .
124(6) . . .
116(6) . . .
127(6) . . .
119(6) . . .
133(6) . . .
113(5) . . .
131(6) . . .
117(6) . . .
114(6) . . .
117(6) . . .
130(6) . . .
150(7) . . .
119(6) . . .
117(6) . . .
125(6) . . .
110(5) . . .
119(6) . . .
110(6) . . .
125(6) . . .
104(5) . . .
124(6) . . .
120(6) . . .
128(6) . . .
113(6) . . .
132(6) . . .
125(6) . . .
131(6) . . .
124(6) . . .
119(6) . . .
121(6) . . .
121(6) . . .
127(6) . . .
128(6) . . .
101(5) . . .
123(6) . . .
123(6) . . .
117(6) . . .
115(6) . . .
112(5) . . .
117(6) . . .
111(5) . . .
112(6) . . .
129(6) . . .
126(6) . . .
124(6) . . .
124(6) . . .
114(6) . . .
124(6) . . .
131(6) . . .
129(6) . . .
142(6) . . .
116(6) . . .
123(6) . . .
135(6) . . .
126(6) . . .
116(6) . . .
108(5) . . .
117(6) . . .
120(6) . . .
116(6) . . .
103(5) . . .
107(6) . . .
113(6) . . .
129(6) . . .
134(6) . . .
125(6) . . .
118(6) . . .
131(6) . . .
128(6) . . .
113(5) . . .
103(5) . . .
126(6) . . .
118(6) . . .
141(6) . . .
134(6) . . .
132(6) . . .
128(6) . . .
121(6) . . .
125(6) . . .
120(6) . . .
112(6) . . .
124(6) . . .
128(6) . . .
127(6) . . .
126(6) . . .
114(6) . . .
129(6) . . .
140(6) . . .
114(6) . . .
110(5) . . .
122(6) . . .
129(6) . . .
136(6) . . .
124(6) . . .
128(6) . . .
122(6) . . .
136(7) . . .
112(6) . . .
130(6) . . .
125(6) . . .
124(6) . . .
133(6) . . .
101(6) . . .
111(6) . . .
132(6) . . .
118(6) . . .
126(6) . . .
123(6) . . .
108(5) . . .
122(6) . . .
110(6) . . .
124(6) . . .
114(6) . . .
125(6) . . .
117(6) . . .
109(5) . . .
122(6) . . .
125(6) . . .
112(5) . . .
121(6) . . .
128(6) . . .
119(6) . . .
118(6) . . .
125(6) . . .
126(6) . . .
125(6) . . .
124(6) . . .
113(6) . . .
118(6) . . .
129(6) . . .
111(6) . . .
116(6) . . .
107(5) . . .
118(6) . . .
134(6) . . .
120(6) . . .
134(6) . . .
116(6) . . .
111(5) . . .
128(6) . . .
118(6) . . .
127(6) . . .
125(6) . . .
123(6) . . .
129(6) . . .
115(6) . . .
107(5) . . .
140(6) . . .
125(6) . . .
118(6) . . .
104(5) . . .
111(6) . . .
120(6) . . .
124(6) . . .
112(6) . . .
131(6) . . .
125(6) . . .
139(6) . . .
118(6) . . .
129(6) . . .
120(6) . . .
121(6) . . .
123(6) . . .
128(6) . . .
115(6) . . .
130(6) . . .
120(6) . . .
115(6) . . .
121(6) . . .
121(6) . . .
124(6) . . .
105(6) . . .
115(6) . . .
121(6) . . .
104(6) . . .
111(6) . . .
120(6) . . .
121(6) . . .
123(6) . . .
115(6) . . .
121(6) . . .
132(6) . . .
116(6) . . .
114(6) . . .
115(6) . . .
128(6) . . .
114(6) . . .
109(6) . . .
122(6) . . .
118(6) . . .
122(6) . . .
106(5) . . .
112(5) . . .
111(6) . . .
120(6) . . .
129(6) . . .
129(6) . . .
110(6) . . .
129(6) . . .
130(6) . . .
117(6) . . .
111(6) . . .
119(6) . . .
117(6) . . .
113(6) . . .
124(6) . . .
103(5) . . .
109(6) . . .
127(6) . . .
114(6) . . .
119(6) . . .
111(5) . . .
101(6) . . .
117(6) . . .
119(6) . . .
108(6) . . .
123(6) . . .
121(6) . . .
122(6) . . .
119(6) . . .
134(6) . . .
124(6) . . .
126(6) . . .
117(6) . . .
95(5) . . .
128(6) . . .
122(6) . . .
98(5) . . .
118(6) . . .
116(6) . . .
133(6) . . .
120(6) . . .
115(6) . . .
131(6) . . .
114(6) . . .
112(6) . . .
110(5) . . .
115(6) . . .
122(6) . . .
114(6) . . .
103(5) . . .
113(6) . . .
123(6) . . .
119(6) . . .
127(6) . . .
104(5) . . .
116(6) . . .
126(6) . . .
112(6) . . .
102(6) . . .
108(5) . . .
117(6) . . .
119(6) . . .
114(6) . . .
123(6) . . .
101(5) . . .
119(6) . . .
115(6) . . .
121(6) . . .
118(6) . . .
114(6) . . .
110(6) . . .
102(5) . . .
108(6) . . .
133(6) . . .
118(6) . . .
111(6) . . .
102(5) . . .
132(6) . . .
127(6) . . .
118(6) . . .
121(6) . . .
105(5) . . .
112(6) . . .
126(6) . . .
127(6) . . .
115(6) . . .
114(6) . . .
112(6) . . .
114(6) . . .
115(6) . . .
117(6) . . .
120(6) . . .
114(6) . . .
118(6) . . .
113(6) . . .
124(6) . . .
121(6) . . .
122(6) . . .
120(6) . . .
100(5) . . .
109(6) . . .
111(6) . . .
112(6) . . .
113(6) . . .
110(6) . . .
121(6) . . .
107(6) . . .
114(6) . . .
130(6) . . .
118(6) . . .
122(6) . . .
124(6) . . .
127(6) . . .
124(6) . . .
108(5) . . .
117(6) . . .
124(6) . . .
112(6) . . .
115(6) . . .
111(6) . . .
122(6) . . .
121(6) . . .
124(6) . . .
127(6) . . .
129(6) . . .
117(6) . . .
125(6) . . .
120(6) . . .
128(6) . . .
125(6) . . .
124(6) . . .
115(6) . . .
127(6) . . .
119(6) . . .
114(6) . . .
131(6) . . .
134(6) . . .
142(6) . . .
145(6) . . .
121(6) . . .
134(7) . . .
128(6) . . .
128(6) . . .
114(6) . . .
117(6) . . .
112(6) . . .
116(6) . . .
124(6) . . .
120(6) . . .
131(6) . . .
129(6) . . .
116(6) . . .
117(6) . . .
124(6) . . .
123(6) . . .
114(6) . . .
113(6) . . .
124(6) . . .
123(6) . . .
121(6) . . .
117(6) . . .
129(6) . . .
119(6) . . .
110(5) . . .
111(6) . . .
124(6) . . .
115(6) . . .
121(6) . . .
126(6) . . .
124(6) . . .
119(6) . . .
118(6) . . .
128(6) . . .
108(5) . . .
133(6) . . .
140(6) . . .
145(6) . . .
122(6) . . .
135(6) . . .
128(6) . . .
118(6) . . .
121(6) . . .
116(6) . . .
124(6) . . .
110(6) . . .
118(6) . . .
110(6) . . .
125(6) . . .
111(6) . . .
119(6) . . .
116(6) . . .
121(6) . . .
120(6) . . .
124(6) . . .
128(6) . . .
134(6) . . .
119(6) . . .
120(6) . . .
125(6) . . .
110(6) . . .
101(5) . . .
123(6) . . .
117(6) . . .
121(6) . . .
116(6) . . .
130(6) . . .
119(6) . . .
124(6) . . .
126(6) . . .
129(6) . . .
131(6) . . .
123(6) . . .
124(6) . . .
132(6) . . .
131(6) . . .
107(6) . . .
122(6) . . .
121(6) . . .
118(6) . . .
130(6) . . .
136(6) . . .
128(6) . . .
133(6) . . .
116(6) . . .
120(6) . . .
113(6) . . .
124(6) . . .
118(6) . . .
106(5) . . .
111(6) . . .
108(5) . . .
118(6) . . .
115(6) . . .
108(6) . . .
124(6) . . .
128(6) . . .
126(6) . . .
121(6) . . .
109(6) . . .
113(6) . . .
127(6) . . .
109(6) . . .
108(5) . . .
128(6) . . .
116(6) . . .
121(6) . . .
127(6) . . .
106(6) . . .
106(6) . . .
119(6) . . .
104(5) . . .
114(6) . . .
118(6) . . .
123(6) . . .
121(6) . . .
124(6) . . .
114(6) . . .
111(6) . . .
112(6) . . .
115(6) . . .
121(6) . . .
106(5) . . .
112(6) . . .
121(6) . . .
119(6) . . .
125(6) . . .
120(6) . . .
100(5) . . .
122(6) . . .
110(6) . . .
100(5) . . .
125(6) . . .
121(6) . . .
132(6) . . .
112(6) . . .
115(6) . . .
115(6) . . .
114(6) . . .
117(6) . . .
117(6) . . .
100(5) . . .
113(6) . . .
105(6) . . .
120(6) . . .
128(6) . . .
119(6) . . .
110(6) . . .
118(6) . . .
106(5) . . .
111(6) . . .
118(6) . . .
114(6) . . .
110(6) . . .
119(6) . . .
126(6) . . .
117(6) . . .
120(6) . . .
106(6) . . .
106(5) . . .
114(6) . . .
99(5) . . .
118(6) . . .
131(6) . . .
112(6) . . .
117(6) . . .
125(6) . . .
124(6) . . .
113(6) . . .
116(6) . . .
122(6) . . .
119(6) . . .
120(6) . . .
122(6) . . .
106(6) . . .
122(6) . . .
118(6) . . .
116(6) . . .
119(6) . . .
112(6) . . .
128(6) . . .
105(5) . . .
121(6) . . .
112(6) . . .
104(5) . . .
112(5) . . .
130(6) . . .
129(6) . . .
116(6) . . .
115(6) . . .
112(6) . . .
111(6) . . .
113(6) . . .
119(6) . . .
108(5) . . .
115(6) . . .
106(6) . . .
102(5) . . .
117(6) . . .
120(6) . . .
116(6) . . .
108(6) . . .
102(6) . . .
103(5) . . .
125(6) . . .
124(6) . . .
108(6) . . .
103(6) . . .
110(6) . . .
121(6) . . .
101(5) . . .
123(6) . . .
126(6) . . .
124(6) . . .
126(6) . . .
116(6) . . .
113(6) . . .
122(6) . . .
114(6) . . .
110(5) . . .
111(5) . . .
109(6) . . .
121(6) . . .
119(6) . . .
126(6) . . .
126(6) . . .
129(6) . . .
107(6) . . .
105(6) . . .
105(5) . . .
102(5) . . .
140(6) . . .
117(6) . . .
122(6) . . .
129(6) . . .
118(6) . . .
125(6) . . .
121(6) . . .
120(6) . . .
115(6) . . .
112(6) . . .
112(6) . . .
113(6) . . .
102(5) . . .
105(5) . . .
110(6) . . .
105(5) . . .
118(6) . . .
116(6) . . .
121(6) . . .
107(6) . . .
96(5) . . .
120(6) . . .
103(5) . . .
116(6) . . .
111(5) . . .
114(6) . . .
114(6) . . .
115(6) . . .
114(5) . . .
107(5) . . .
102(6) . . .
120(6) . . .
127(6) . . .
118(6) . . .
130(6) . . .
112(6) . . .
111(6) . . .
119(6) . . .
123(6) . . .
112(6) . . .
117(6) . . .
111(6) . . .
108(5) . . .
126(6) . . .
112(6) . . .
123(6) . . .
106(6) . . .
103(5) . . .
101(5) . . .
111(6) . . .
114(6) . . .
116(6) . . .
113(5) . . .
117(6) . . .
123(6) . . .
105(5) . . .
111(6) . . .
118(6) . . .
110(6) . . .
101(5) . . .
113(6) . . .
133(6) . . .
125(6) . . .
118(6) . . .
114(6) . . .
103(5) . . .
119(6) . . .
101(5) . . .
113(6) . . .
119(6) . . .
124(6) . . .
108(5) . . .
114(6) . . .
111(6) . . .
115(6) . . .
115(6) . . .
119(6) . . .
114(5) . . .
112(6) . . .
122(6) . . .
119(6) . . .
120(6) . . .
115(6) . . .
115(6) . . .
108(6) . . .
119(6) . . .
118(6) . . .
129(6) . . .
121(6) . . .
117(6) . . .
110(6) . . .
125(6) . . .
109(5) . . .
110(6) . . .
120(6) . . .
105(6) . . .
112(5) . . .
103(5) . . .
119(6) . . .
107(6) . . .
94(5) . . .
117(6) . . .
113(6) . . .
127(6) . . .
110(6) . . .
111(6) . . .
108(5) . . .
102(5) . . .
109(6) . . .
128(6) . . .
97(5) . . .
100(5) . . .
105(5) . . .
121(6) . . .
106(5) . . .
108(5) . . .
108(5) . . .
112(6) . . .
107(6) . . .
121(6) . . .
110(5) . . .
115(6) . . .
111(6) . . .
112(6) . . .
123(6) . . .
115(6) . . .
120(6) . . .
117(6) . . .
123(6) . . .
106(5) . . .
103(5) . . .
97(5) . . .
100(5) . . .
120(6) . . .
107(5) . . .
111(5) . . .
113(6) . . .
109(6) . . .
122(6) . . .
111(6) . . .
109(5) . . .
91(5) . . .
112(6) . . .
111(6) . . .
119(6) . . .
109(5) . . .
113(6) . . .
123(6) . . .
104(5) . . .
99(5) . . .
121(6) . . .
104(5) . . .
106(5) . . .
98(5) . . .
122(6) . . .
110(5) . . .
121(6) . . .
113(6) . . .
105(6) . . .
109(6) . . .
97(5) . . .
109(6) . . .
105(6) . . .
100(5) . . .
112(6) . . .
128(6) . . .
118(6) . . .
121(6) . . .
113(6) . . .
112(6) . . .
114(6) . . .
107(6) . . .
110(6) . . .
121(6) . . .
104(5) . . .
107(5) . . .
115(6) . . .
131(6) . . .
113(6) . . .
99(5) . . .
120(6) . . .
112(6) . . .
106(6) . . .
115(6) . . .
116(6) . . .
109(5) . . .
106(5) . . .
109(6) . . .
118(6) . . .
104(5) . . .
113(6) . . .
124(6) . . .
102(5) . . .
123(6) . . .
118(6) . . .
122(6) . . .
112(6) . . .
111(6) . . .
109(6) . . .
95(5) . . .
99(5) . . .
120(6) . . .
111(6) . . .
121(6) . . .
112(6) . . .
124(6) . . .
119(6) . . .
90(5) . . .
118(6) . . .
112(6) . . .
106(5) . . .
109(6) . . .
93(5) . . .
130(6) . . .
106(5) . . .
110(6) . . .
103(5) . . .
110(5) . . .
120(6) . . .
117(6) . . .
111(6) . . .
112(6) . . .
101(5) . . .
105(5) . . .
104(5) . . .
107(6) . . .
96(5) . . .
127(6) . . .
116(6) . . .
110(6) . . .
110(6) . . .
99(5) . . .
116(6) . . .
109(5) . . .
127(6) . . .
113(6) . . .
103(6) . . .
112(6) . . .
118(6) . . .
115(6) . . .
127(6) . . .
102(5) . . .
108(6) . . .
113(6) . . .
121(6) . . .
113(6) . . .
112(6) . . .
96(5) . . .
116(6) . . .
98(5) . . .
100(6) . . .
117(6) . . .
131(6) . . .
107(5) . . .
110(6) . . .
110(6) . . .
116(6) . . .
114(6) . . .
118(6) . . .
127(6) . . .
115(6) . . .
98(5) . . .
107(5) . . .
110(5) . . .
110(6) . . .
100(5) . . .
120(6) . . .
129(6) . . .
112(6) . . .
125(6) . . .
131(6) . . .
126(6) . . .
119(6) . . .
93(5) . . .
106(5) . . .
104(5) . . .
114(6) . . .
113(5) . . .
118(6) . . .
117(6) . . .
112(6) . . .
120(6) . . .
116(6) . . .
117(6) . . .
118(6) . . .
111(6) . . .
94(5) . . .
120(6) . . .
111(5) . . .
105(6) . . .
122(6) . . .
104(5) . . .
105(5) . . .
111(5) . . .
110(6) . . .
115(6) . . .
115(6) . . .
116(6) . . .
115(6) . . .
118(6) . . .
110(6) . . .
121(6) . . .
120(6) . . .
108(6) . . .
102(5) . . .
104(5) . . .
104(5) . . .
123(6) . . .
115(6) . . .
122(6) . . .
121(6) . . .
113(6) . . .
106(5) . . .
108(6) . . .
111(6) . . .
94(5) . . .
105(5) . . .
102(5) . . .
121(6) . . .
114(6) . . .
112(6) . . .
120(6) . . .
109(5) . . .
106(6) . . .
117(6) . . .
101(5) . . .
112(6) . . .
119(6) . . .
120(6) . . .
106(6) . . .
107(5) . . .
117(6) . . .
124(6) . . .
111(6) . . .
130(6) . . .
132(6) . . .
117(6) . . .
118(6) . . .
111(6) . . .
121(6) . . .
115(6) . . .
94(5) . . .
124(6) . . .
116(6) . . .
88(5) . . .
109(6) . . .
126(6) . . .
116(6) . . .
113(6) . . .
117(6) . . .
112(6) . . .
103(5) . . .
109(6) . . .
105(6) . . .
108(6) . . .
102(5) . . .
118(6) . . .
117(6) . . .
105(6) . . .
113(6) . . .
108(5) . . .
108(5) . . .
101(5) . . .
108(6) . . .
106(6) . . .
122(6) . . .
99(5) . . .
105(6) . . .
125(6) . . .
119(6) . . .
121(6) . . .
109(5) . . .
96(5) . . .
104(6) . . .
107(6) . . .
107(5) . . .
114(6) . . .
106(5) . . .
106(6) . . .
101(5) . . .
116(6) . . .
99(5) . . .
112(6) . . .
121(6) . . .
112(6) . . .
105(5) . . .
107(5) . . .
114(6) . . .
113(6) . . .
118(6) . . .
116(6) . . .
110(5) . . .
122(6) . . .
109(6) . . .
108(6) . . .
108(5) . . .
116(6) . . .
114(6) . . .
112(6) . . .
117(6) . . .
105(5) . . .
114(6) . . .
107(6) . . .
96(5) . . .
118(6) . . .
114(6) . . .
116(6) . . .
114(6) . . .
102(6) . . .
111(6) . . .
103(5) . . .
124(6) . . .
122(6) . . .
101(5) . . .
110(5) . . .
109(5) . . .
123(6) . . .
102(6) . . .
120(6) . . .
117(6) . . .
107(5) . . .
124(6) . . .
111(6) . . .
100(5) . . .
115(6) . . .
116(6) . . .
102(5) . . .
102(6) . . .
110(6) . . .
105(5) . . .
114(6) . . .
120(6) . . .
113(6) . . .
117(6) . . .
106(5) . . .
101(5) . . .
109(5) . . .
118(6) . . .
119(6) . . .
111(6) . . .
114(6) . . .
110(6) . . .
101(5) . . .
121(6) . . .
108(5) . . .
110(6) . . .
109(5) . . .
119(6) . . .
112(6) . . .
106(5) . . .
105(5) . . .
105(6) . . .
110(6) . . .
104(6) . . .
112(6) . . .
112(6) . . .
122(6) . . .
96(5) . . .
116(6) . . .
113(6) . . .
113(6) . . .
118(6) . . .
107(5) . . .
121(6) . . .
108(5) . . .
104(6) . . .
110(6) . . .
85(5) . . .
89(5) . . .
99(5) . . .
112(6) . . .
117(6) . . .
97(5) . . .
113(6) . . .
114(6) . . .
106(6) . . .
99(5) . . .
117(6) . . .
110(5) . . .
112(6) . . .
112(6) . . .
106(6) . . .
106(6) . . .
115(6) . . .
95(5) . . .
104(6) . . .
107(6) . . .
112(6) . . .
111(6) . . .
96(5) . . .
103(5) . . .
111(6) . . .
117(6) . . .
112(6) . . .
118(6) . . .
99(5) . . .
100(6) . . .
101(6) . . .
93(5) . . .
114(6) . . .
117(6) . . .
107(6) . . .
100(5) . . .
99(5) . . .
92(5) . . .
94(5) . . .
112(6) . . .
127(6) . . .
117(6) . . .
110(6) . . .
119(6) . . .
108(6) . . .
111(6) . . .
102(5) . . .
109(6) . . .
94(5) . . .
108(6) . . .
105(5) . . .
108(5) . . .
98(5) . . .
107(6) . . .
117(6) . . .
113(6) . . .
103(5) . . .
109(6) . . .
104(6) . . .
93(5) . . .
93(5) . . .
104(5) . . .
111(6) . . .
106(6) . . .
92(5) . . .
115(6) . . .
136(6) . . .
108(5) . . .
121(6) . . .
110(5) . . .
114(5) . . .
102(5) . . .
97(5) . . .
113(6) . . .
118(6) . . .
100(5) . . .
101(5) . . .
104(6) . . .
103(6) . . .
128(6) . . .
109(5) . . .
113(6) . . .
103(6) . . .
104(6) . . .
123(6) . . .
103(5) . . .
108(6) . . .
121(6) . . .
105(6) . . .
123(6) . . .
108(5) . . .
102(5) . . .
98(5) . . .
108(6) . . .
101(5) . . .
122(6) . . .
115(6) . . .
111(6) . . .
104(5) . . .
109(5) . . .
100(5) . . .
101(5) . . .
110(6) . . .
110(6) . . .
99(5) . . .
89(5) . . .
110(6) . . .
109(6) . . .
107(5) . . .
108(5) . . .
119(6) . . .
100(5) . . .
106(6) . . .
99(5) . . .
106(5) . . .
105(5) . . .
105(5) . . .
116(6) . . .
113(6) . . .
103(5) . . .
118(6) . . .
112(6) . . .
100(6) . . .
104(6) . . .
113(6) . . .
124(6) . . .
107(6) . . .
112(6) . . .
110(6) . . .
99(5) . . .
98(5) . . .
110(6) . . .
102(6) . . .
110(6) . . .
118(6) . . .
122(6) . . .
114(6) . . .
112(6) . . .
113(6) . . .
103(5) . . .
102(5) . . .
109(6) . . .
109(6) . . .
102(5) . . .
104(5) . . .
113(6) . . .
98(5) . . .
96(5) . . .
118(6) . . .
116(6) . . .
116(6) . . .
113(6) . . .
117(6) . . .
120(6) . . .
92(5) . . .
103(6) . . .
96(5) . . .
104(6) . . .
107(5) . . .
110(6) . . .
118(6) . . .
112(6) . . .
99(5) . . .
89(5) . . .
113(6) . . .
102(5) . . .
99(6) . . .
100(6) . . .
118(6) . . .
106(5) . . .
105(5) . . .
96(5) . . .
106(6) . . .
104(5) . . .
105(5) . . .
99(5) . . .
110(6) . . .
105(5) . . .
113(5) . . .
117(6) . . .
106(6) . . .
106(6) . . .
117(6) . . .
114(6) . . .
123(6) . . .
91(5) . . .
89(5) . . .
100(6) . . .
99(5) . . .
113(6) . . .
97(5) . . .
128(6) . . .
115(6) . . .
105(5) . . .
106(6) . . .
102(6) . . .
107(6) . . .
94(5) . . .
105(5) . . .
106(6) . . .
106(6) . . .
118(6) . . .
104(5) . . .
90(5) . . .
108(6) . . .
116(6) . . .
102(5) . . .
107(6) . . .
110(5) . . .
112(6) . . .
107(6) . . .
107(6) . . .
109(6) . . .
113(6) . . .
97(5) . . .
98(5) . . .
101(5) . . .
111(5) . . .
117(6) . . .
99(5) . . .
106(6) . . .
99(5) . . .
120(6) . . .
98(5) . . .
95(5) . . .
108(6) . . .
118(6) . . .
109(5) . . .
106(5) . . .
98(5) . . .
102(5) . . .
115(6) . . .
108(5) . . .
111(6) . . .
107(6) . . .
101(5) . . .
112(6) . . .
114(6) . . .
102(6) . . .
109(6) . . .
113(6) . . .
101(5) . . .
113(5) . . .
103(5) . . .
113(6) . . .
103(5) . . .
95(5) . . .
109(5) . . .
100(5) . . .
99(6) . . .
99(5) . . .
102(5) . . .
106(5) . . .
102(5) . . .
107(6) . . .
100(5) . . .
102(5) . . .
102(5) . . .
95(5) . . .
102(6) . . .
119(6) . . .
109(5) . . .
117(6) . . .
115(6) . . .
102(6) . . .
95(5) . . .
107(5) . . .
102(5) . . .
108(5) . . .
101(6) . . .
98(5) . . .
108(5) . . .
126(6) . . .
110(6) . . .
124(6) . . .
116(6) . . .
114(6) . . .
115(6) . . .
123(6) . . .
115(6) . . .
102(6) . . .
103(5) . . .
88(5) . . .
86(5) . . .
106(5) . . .
121(6) . . .
99(5) . . .
96(5) . . .
104(5) . . .
109(6) . . .
101(5) . . .
96(5) . . .
109(6) . . .
102(6) . . .
115(6) . . .
91(5) . . .
116(6) . . .
101(5) . . .
103(6) . . .
107(5) . . .
104(5) . . .
98(5) . . .
104(5) . . .
100(5) . . .
111(6) . . .
129(6) . . .
99(5) . . .
99(5) . . .
117(6) . . .
103(5) . . .
110(5) . . .
108(5) . . .
113(6) . . .
107(6) . . .
103(5) . . .
111(6) . . .
106(5) . . .
111(6) . . .
107(6) . . .
106(6) . . .
107(5) . . .
103(5) . . .
109(6) . . .
118(6) . . .
114(6) . . .
103(5) . . .
111(6) . . .
117(6) . . .
111(6) . . .
119(6) . . .
94(5) . . .
98(5) . . .
105(6) . . .
88(5) . . .
105(5) . . .
92(5) . . .
106(6) . . .
100(5) . . .
109(6) . . .
110(5) . . .
113(6) . . .
111(6) . . .
103(5) . . .
99(5) . . .
102(6) . . .
96(5) . . .
97(5) . . .
114(6) . . .
107(5) . . .
121(6) . . .
109(5) . . .
104(5) . . .
106(6) . . .
112(6) . . .
116(6) . . .
106(5) . . .
102(5) . . .
111(6) . . .
103(6) . . .
116(6) . . .
103(5) . . .
92(5) . . .
116(6) . . .
100(5) . . .
98(5) . . .
112(6) . . .
111(6) . . .
117(6) . . .
115(6) . . .
101(5) . . .
105(5) . . .
111(6) . . .
110(6) . . .
103(5) . . .
107(5) . . .
99(5) . . .
100(6) . . .
97(5) . . .
107(5) . . .
107(5) . . .
107(5) . . .
118(6) . . .
96(5) . . .
110(6) . . .
122(6) . . .
108(6) . . .
94(5) . . .
82(5) . . .
100(5) . . .
96(5) . . .
105(6) . . .
97(5) . . .
106(6) . . .
102(5) . . .
94(5) . . .
105(5) . . .
94(5) . . .
111(6) . . .
101(5) . . .
94(5) . . .
92(5) . . .
110(6) . . .
99(5) . . .
94(5) . . .
99(5) . . .
119(6) . . .
103(6) . . .
95(5) . . .
106(5) . . .
115(6) . . .
101(5) . . .
112(6) . . .
97(5) . . .
96(5) . . .
104(5) . . .
99(5) . . .
118(6) . . .
109(6) . . .
110(6) . . .
119(6) . . .
95(5) . . .
97(5) . . .
104(5) . . .
103(5) . . .
98(5) . . .
106(5) . . .
99(5) . . .
115(6) . . .
108(5) . . .
106(5) . . .
108(6) . . .
96(5) . . .
105(5) . . .
109(6) . . .
108(5) . . .
100(5) . . .
100(6) . . .
107(6) . . .
93(5) . . .
100(5) . . .
105(5) . . .
98(5) . . .
96(5) . . .
109(5) . . .
101(5) . . .
99(5) . . .
111(6) . . .
105(5) . . .
108(5) . . .
106(5) . . .
102(6) . . .
111(6) . . .
99(5) . . .
105(5) . . .
103(5) . . .
95(5) . . .
105(6) . . .
101(5) . . .
99(5) . . .
108(6) . . .
96(5) . . .
107(6) . . .
99(5) . . .
108(6) . . .
95(5) . . .
98(6) . . .
123(6) . . .
95(5) . . .
102(5) . . .
110(6) . . .
116(6) . . .
101(6) . . .
96(5) . . .
110(6) . . .
110(6) . . .
91(5) . . .
91(5) . . .
83(5) . . .
105(5) . . .
113(6) . . .
94(5) . . .
102(5) . . .
93(5) . . .
118(6) . . .
106(6) . . .
106(6) . . .
107(6) . . .
114(6) . . .
128(6) . . .
91(5) . . .
108(6) . . .
98(5) . . .
103(5) . . .
104(5) . . .
93(5) . . .
97(5) . . .
101(5) . . .
86(5) . . .
91(5) . . .
105(6) . . .
107(6) . . .
98(5) . . .
113(5) . . .
113(6) . . .
108(6) . . .
85(5) . . .
92(5) . . .
112(6) . . .
95(5) . . .
98(6) . . .
106(5) . . .
106(5) . . .
91(5) . . .
101(5) . . .
98(5) . . .
90(5) . . .
103(5) . . .
89(5) . . .
88(5) . . .
95(6) . . .
99(5) . . .
101(5) . . .
93(5) . . .
82(5) . . .
87(5) . . .
97(5) . . .
97(5) . . .
112(6) . . .
104(5) . . .
95(5) . . .
112(6) . . .
109(5) . . .
94(5) . . .
103(6) . . .
93(5) . . .
111(6) . . .
107(5) . . .
109(6) . . .
104(6) . . .
96(5) . . .
99(5) . . .
98(5) . . .
108(6) . . .
95(5) . . .
107(6) . . .
104(5) . . .
104(5) . . .
95(5) . . .
101(5) . . .
94(5) . . .
94(5) . . .
97(5) . . .
96(5) . . .
110(6) . . .
100(5) . . .
105(5) . . .
99(5) . . .
108(6) . . .
111(6) . . .
120(6) . . .
88(5) . . .
98(5) . . .
101(5) . . .
93(5) . . .
109(6) . . .
115(6) . . .
100(5) . . .
102(5) . . .
89(5) . . .
105(5) . . .
104(5) . . .
102(5) . . .
101(5) . . .
101(6) . . .
97(5) . . .
111(5) . . .
95(5) . . .
92(5) . . .
87(5) . . .
88(5) . . .
109(5) . . .
104(5) . . .
104(5) . . .
104(6) . . .
89(5) . . .
88(5) . . .
113(6) . . .
103(6) . . .
103(6) . . .
106(5) . . .
97(5) . . .
111(5) . . .
117(6) . . .
98(5) . . .
96(5) . . .
101(5) . . .
108(5) . . .
96(5) . . .
98(6) . . .
102(5) . . .
96(5) . . .
96(5) . . .
98(6) . . .
99(5) . . .
105(5) . . .
102(5) . . .
100(5) . . .
108(6) . . .
105(6) . . .
97(5) . . .
102(5) . . .
98(5) . . .
102(6) . . .
100(5) . . .
99(5) . . .
108(5) . . .
105(6) . . .
95(5) . . .
95(5) . . .
92(5) . . .
105(5) . . .
96(5) . . .
109(6) . . .
113(6) . . .
114(6) . . .
101(5) . . .
103(5) . . .
96(5) . . .
105(6) . . .
91(5) . . .
90(5) . . .
95(5) . . .
106(6) . . .
114(6) . . .
94(5) . . .
96(5) . . .
101(5) . . .
95(5) . . .
106(5) . . .
82(5) . . .
112(6) . . .
111(6) . . .
97(5) . . .
105(5) . . .
107(5) . . .
100(5) . . .
89(5) . . .
88(5) . . .
101(5) . . .
98(5) . . .
101(5) . . .
102(5) . . .
103(5) . . .
103(5) . . .
102(5) . . .
110(6) . . .
97(5) . . .
109(6) . . .
108(5) . . .
99(5) . . .
96(5) . . .
102(6) . . .
102(6) . . .
105(5) . . .
114(6) . . .
104(5) . . .
101(6) . . .
97(5) . . .
91(5) . . .
106(5) . . .
94(5) . . .
99(5) . . .
102(5) . . .
108(6) . . .
105(5) . . .
105(6) . . .
91(5) . . .
93(5) . . .
93(5) . . .
110(6) . . .
109(6) . . .
106(5) . . .
110(5) . . .
89(5) . . .
96(5) . . .
95(5) . . .
104(5) . . .
92(5) . . .
97(5) . . .
111(6) . . .
115(6) . . .
97(5) . . .
104(5) . . .
99(5) . . .
100(5) . . .
110(6) . . .
91(5) . . .
90(5) . . .
93(5) . . .
117(6) . . .
98(5) . . .
106(6) . . .
97(5) . . .
88(5) . . .
99(5) . . .
96(5) . . .
100(5) . . .
96(5) . . .
103(5) . . .
111(6) . . .
103(6) . . .
89(5) . . .
100(5) . . .
112(6) . . .
97(5) . . .
106(6) . . .
100(5) . . .
85(5) . . .
102(5) . . .
100(5) . . .
113(6) . . .
101(5) . . .
101(5) . . .
101(5) . . .
106(6) . . .
107(6) . . .
100(5) . . .
105(5) . . .
89(5) . . .
98(5) . . .
100(5) . . .
109(6) . . .
91(5) . . .
94(5) . . .
93(5) . . .
98(5) . . .
93(5) . . .
84(5) . . .
110(5) . . .
90(5) . . .
101(6) . . .
103(6) . . .
83(5) . . .
102(5) . . .
106(6) . . .
106(6) . . .
104(5) . . .
102(5) . . .
87(5) . . .
108(6) . . .
95(5) . . .
115(6) . . .
83(5) . . .
93(5) . . .
109(6) . . .
97(5) . . .
112(6) . . .
87(5) . . .
113(6) . . .
91(5) . . .
106(6) . . .
98(5) . . .
101(5) . . .
96(5) . . .
114(6) . . .
100(5) . . .
101(5) . . .
104(5) . . .
100(5) . . .
99(6) . . .
97(5) . . .
105(5) . . .
98(5) . . .
96(5) . . .
98(6) . . .
100(6) . . .
100(5) . . .
94(5) . . .
96(5) . . .
105(6) . . .
88(5) . . .
106(5) . . .
111(5) . . .
100(5) . . .
116(6) . . .
103(5) . . .
91(5) . . .
100(5) . . .
108(6) . . .
107(6) . . .
110(6) . . .
101(5) . . .
84(5) . . .
105(6) . . .
100(6) . . .
101(5) . . .
104(5) . . .
95(5) . . .
99(5) . . .
107(6) . . .
88(5) . . .
94(5) . . .
104(6) . . .
98(5) . . .
99(5) . . .
106(5) . . .
111(5) . . .
113(6) . . .
95(5) . . .
97(5) . . .
116(6) . . .
107(5) . . .
110(6) . . .
116(6) . . .
111(6) . . .
96(5) . . .
89(5) . . .
94(5) . . .
95(5) . . .
86(5) . . .
93(5) . . .
92(5) . . .
89(5) . . .
101(6) . . .
99(5) . . .
92(5) . . .
94(5) . . .
118(6) . . .
106(6) . . .
101(5) . . .
93(5) . . .
96(5) . . .
98(5) . . .
97(5) . . .
98(5) . . .
111(6) . . .
108(5) . . .
108(6) . . .
85(5) . . .
91(5) . . .
103(5) . . .
93(5) . . .
77(5) . . .
100(6) . . .
94(5) . . .
84(5) . . .
94(5) . . .
91(5) . . .
102(5) . . .
110(6) . . .
94(5) . . .
94(5) . . .
96(5) . . .
105(5) . . .
98(5) . . .
98(5) . . .
93(5) . . .
89(5) . . .
95(5) . . .
110(5) . . .
98(5) . . .
94(5) . . .
79(5) . . .
105(6) . . .
98(5) . . .
98(5) . . .
100(5) . . .
94(5) . . .
100(5) . . .
100(5) . . .
91(5) . . .
97(5) . . .
89(5) . . .
85(5) . . .
106(5) . . .
110(5) . . .
100(5) . . .
95(6) . . .
101(5) . . .
89(5) . . .
90(5) . . .
95(5) . . .
101(6) . . .
96(5) . . .
89(5) . . .
101(5) . . .
105(6) . . .
105(6) . . .
106(6) . . .
94(5) . . .
87(5) . . .
93(5) . . .
96(5) . . .
91(5) . . .
96(5) . . .
84(5) . . .
98(5) . . .
89(5) . . .
94(5) . . .
90(5) . . .
91(5) . . .
107(6) . . .
96(5) . . .
108(5) . . .
106(5) . . .
102(6) . . .
93(5) . . .
90(5) . . .
96(5) . . .
104(5) . . .
104(5) . . .
109(6) . . .
99(5) . . .
80(5) . . .
95(5) . . .
89(5) . . .
108(6) . . .
94(5) . . .
98(5) . . .
98(5) . . .
85(5) . . .
84(5) . . .
110(6) . . .
101(5) . . .
94(5) . . .
100(5) . . .
104(6) . . .
92(5) . . .
90(5) . . .
101(5) . . .
92(5) . . .
101(6) . . .
106(6) . . .
106(5) . . .
106(5) . . .
103(6) . . .
91(5) . . .
93(5) . . .
97(5) . . .
91(5) . . .
108(6) . . .
94(5) . . .
104(5) . . .
99(5) . . .
95(5) . . .
108(6) . . .
97(5) . . .
100(5) . . .
92(5) . . .
97(5) . . .
93(5) . . .
92(5) . . .
102(5) . . .
94(5) . . .
87(5) . . .
94(5) . . .
96(5) . . .
117(6) . . .
101(5) . . .
106(6) . . .
116(6) . . .
113(6) . . .
105(5) . . .
98(5) . . .
104(5) . . .
100(5) . . .
100(5) . . .
108(5) . . .
102(5) . . .
116(6) . . .
87(5) . . .
88(5) . . .
107(5) . . .
92(5) . . .
94(5) . . .
80(5) . . .
94(5) . . .
99(5) . . .
92(5) . . .
102(6) . . .
89(5) . . .
106(6) . . .
102(5) . . .
87(5) . . .
91(5) . . .
99(6) . . .
97(5) . . .
93(5) . . .
97(5) . . .
111(6) . . .
92(5) . . .
96(5) . . .
89(5) . . .
96(5) . . .
102(6) . . .
95(5) . . .
105(6) . . .
112(5) . . .
85(5) . . .
99(5) . . .
103(6) . . .
93(5) . . .
87(5) . . .
92(5) . . .
114(6) . . .
100(5) . . .
82(5) . . .
90(5) . . .
96(5) . . .
89(5) . . .
91(5) . . .
104(5) . . .
95(5) . . .
109(6) . . .
103(6) . . .
117(6) . . .
103(5) . . .
102(5) . . .
101(5) . . .
86(5) . . .
97(5) . . .
94(5) . . .
95(5) . . .
98(5) . . .
107(6) . . .
97(5) . . .
103(5) . . .
101(5) . . .
104(5) . . .
93(5) . . .
92(5) . . .
99(5) . . .
94(5) . . .
96(5) . . .
93(5) . . .
97(6) . . .
88(5) . . .
99(5) . . .
106(6) . . .
101(5) . . .
88(5) . . .
84(5) . . .
108(6) . . .
92(5) . . .
93(5) . . .
84(5) . . .
103(5) . . .
101(5) . . .
109(6) . . .
93(5) . . .
89(5) . . .
112(5) . . .
104(5) . . .
92(5) . . .
102(5) . . .
98(5) . . .
94(5) . . .
107(6) . . .
92(5) . . .
96(5) . . .
96(5) . . .
100(5) . . .
110(6) . . .
104(6) . . .
93(5) . . .
91(5) . . .
99(5) . . .
95(5) . . .
104(6) . . .
99(5) . . .
102(5) . . .
115(6) . . .
100(5) . . .
97(6) . . .
99(5) . . .
101(5) . . .
90(5) . . .
100(5) . . .
85(5) . . .
93(5) . . .
110(5) . . .
95(5) . . .
87(5) . . .
80(5) . . .
98(5) . . .
86(5) . . .
107(5) . . .
104(5) . . .
105(5) . . .
113(6) . . .
90(5) . . .
89(5) . . .
91(5) . . .
96(5) . . .
89(5) . . .
91(5) . . .
107(6) . . .
101(6) . . .
87(5) . . .
94(5) . . .
91(5) . . .
97(5) . . .
104(6) . . .
103(6) . . .
93(5) . . .
99(5) . . .
94(5) . . .
99(6) . . .
88(5) . . .
102(5) . . .
102(5) . . .
104(5) . . .
93(5) . . .
101(5) . . .
92(5) . . .
99(5) . . .
99(5) . . .
105(6) . . .
92(5) . . .
96(5) . . .
98(5) . . .
89(5) . . .
93(5) . . .
102(5) . . .
99(5) . . .
91(5) . . .
105(6) . . .
109(6) . . .
93(5) . . .
105(5) . . .
91(5) . . .
73(5) . . .
83(5) . . .
106(6) . . .
87(5) . . .
87(5) . . .
104(5) . . .
101(5) . . .
100(5) . . .
95(5) . . .
88(5) . . .
102(6) . . .
89(5) . . .
93(5) . . .
98(5) . . .
90(5) . . .
87(5) . . .
88(5) . . .
96(5) . . .
106(5) . . .
98(5) . . .
97(5) . . .
92(5) . . .
95(5) . . .
105(5) . . .
88(5) . . .
95(5) . . .
97(5) . . .
92(5) . . .
109(5) . . .
96(5) . . .
110(6) . . .
114(6) . . .
98(5) . . .
101(5) . . .
117(6) . . .
102(6) . . .
87(5) . . .
100(5) . . .
77(5) . . .
87(5) . . .
93(5) . . .
99(5) . . .
92(5) . . .
109(5) . . .
115(6) . . .
106(6) . . .
100(5) . . .
106(5) . . .
109(5) . . .
93(5) . . .
90(5) . . .
96(5) . . .
104(5) . . .
103(5) . . .
96(5) . . .
96(5) . . .
96(5) . . .
113(6) . . .
90(5) . . .
82(5) . . .
96(5) . . .
96(5) . . .
98(5) . . .
98(5) . . .
87(5) . . .
97(5) . . .
101(5) . . .
99(5) . . .
102(5) . . .
91(5) . . .
95(5) . . .
104(5) . . .
95(5) . . .
93(5) . . .
97(6) . . .
91(5) . . .
85(5) . . .
95(5) . . .
83(5) . . .
90(5) . . .
83(5) . . .
82(5) . . .
81(5) . . .
96(5) . . .
108(6) . . .
90(5) . . .
72(4) . . .
80(5) . . .
94(5) . . .
87(5) . . .
85(5) . . .
84(5) . . .
95(5) . . .
76(5) . . .
96(6) . . .
90(5) . . .
92(5) . . .
105(5) . . .
101(6) . . .
92(5) . . .
104(6) . . .
89(5) . . .
98(5) . . .
85(5) . . .
79(5) . . .
92(5) . . .
94(5) . . .
84(5) . . .
107(6) . . .
102(5) . . .
89(5) . . .
80(5) . . .
89(5) . . .
110(6) . . .
86(5) . . .
98(5) . . .
98(5) . . .
96(5) . . .
97(5) . . .
91(5) . . .
86(5) . . .
90(5) . . .
91(5) . . .
103(5) . . .
106(6) . . .
103(5) . . .
95(5) . . .
100(5) . . .
89(5) . . .
102(5) . . .
109(6) . . .
115(6) . . .
110(6) . . .
98(6) . . .
96(5) . . .
107(5) . . .
95(5) . . .
85(5) . . .
87(5) . . .
89(5) . . .
87(5) . . .
88(5) . . .
93(5) . . .
101(6) . . .
94(5) . . .
88(5) . . .
92(5) . . .
107(6) . . .
106(6) . . .
88(5) . . .
106(5) . . .
108(6) . . .
90(5) . . .
101(6) . . .
85(5) . . .
94(5) . . .
105(5) . . .
85(5) . . .
94(5) . . .
88(5) . . .
88(5) . . .
81(5) . . .
89(5) . . .
89(5) . . .
97(5) . . .
92(5) . . .
94(5) . . .
90(5) . . .
93(5) . . .
96(5) . . .
92(5) . . .
100(5) . . .
88(5) . . .
80(5) . . .
97(5) . . .
88(5) . . .
93(5) . . .
96(5) . . .
92(5) . . .
95(5) . . .
99(5) . . .
90(5) . . .
93(5) . . .
107(6) . . .
86(5) . . .
87(5) . . .
98(6) . . .
84(5) . . .
98(5) . . .
90(5) . . .
84(5) . . .
90(5) . . .
94(5) . . .
97(5) . . .
96(5) . . .
103(5) . . .
89(5) . . .
90(5) . . .
95(5) . . .
94(5) . . .
95(5) . . .
97(5) . . .
98(6) . . .
101(5) . . .
92(5) . . .
101(5) . . .
97(5) . . .
101(5) . . .
93(5) . . .
91(5) . . .
87(5) . . .
93(5) . . .
88(5) . . .
82(5) . . .
100(5) . . .
88(5) . . .
94(5) . . .
110(6) . . .
105(6) . . .
93(5) . . .
102(5) . . .
85(5) . . .
100(6) . . .
89(5) . . .
97(5) . . .
94(5) . . .
103(6) . . .
90(5) . . .
86(5) . . .
97(5) . . .
90(5) . . .
84(5) . . .
80(5) . . .
90(5) . . .
91(5) . . .
92(5) . . .
104(6) . . .
91(5) . . .
98(5) . . .
95(5) . . .
105(6) . . .
86(5) . . .
84(5) . . .
96(5) . . .
114(5) . . .
108(6) . . .
92(5) . . .
91(5) . . .
91(5) . . .
83(5) . . .
84(5) . . .
82(5) . . .
91(5) . . .
93(5) . . .
98(5) . . .
98(5) . . .
99(5) . . .
93(5) . . .
98(5) . . .
102(5) . . .
85(5) . . .
101(5) . . .
94(5) . . .
90(5) . . .
101(5) . . .
87(5) . . .
91(5) . . .
86(5) . . .
95(5) . . .
91(5) . . .
95(5) . . .
104(5) . . .
99(5) . . .
93(5) . . .
96(5) . . .
91(5) . . .
86(5) . . .
92(5) . . .
98(5) . . .
92(5) . . .
98(6) . . .
85(5) . . .
84(5) . . .
86(5) . . .
92(5) . . .
90(5) . . .
90(5) . . .
108(5) . . .
98(5) . . .
95(5) . . .
101(5) . . .
85(5) . . .
94(5) . . .
97(5) . . .
83(5) . . .
107(6) . . .
90(5) . . .
93(5) . . .
100(5) . . .
88(5) . . .
85(5) . . .
91(5) . . .
114(5) . . .
102(6) . . .
83(5) . . .
103(6) . . .
94(5) . . .
91(5) . . .
100(5) . . .
88(5) . . .
105(6) . . .
106(6) . . .
97(5) . . .
112(6) . . .
125(6) . . .
96(5) . . .
102(5) . . .
95(5) . . .
102(6) . . .
94(5) . . .
85(5) . . .
96(5) . . .
90(5) . . .
85(5) . . .
87(5) . . .
98(5) . . .
91(5) . . .
99(5) . . .
99(5) . . .
89(5) . . .
92(5) . . .
94(5) . . .
85(5) . . .
101(5) . . .
93(5) . . .
103(5) . . .
98(5) . . .
100(5) . . .
99(5) . . .
97(5) . . .
111(6) . . .
104(5) . . .
98(5) . . .
104(5) . . .
91(5) . . .
77(5) . . .
79(5) . . .
81(5) . . .
85(5) . . .
108(6) . . .
115(6) . . .
87(5) . . .
96(5) . . .
96(5) . . .
103(6) . . .
89(5) . . .
106(5) . . .
92(5) . . .
96(5) . . .
94(5) . . .
92(5) . . .
93(5) . . .
115(6) . . .
86(5) . . .
95(6) . . .
95(5) . . .
97(5) . . .
78(5) . . .
93(5) . . .
88(5) . . .
95(5) . . .
104(5) . . .
102(6) . . .
94(5) . . .
98(5) . . .
95(5) . . .
91(5) . . .
104(6) . . .
86(5) . . .
95(5) . . .
89(5) . . .
93(5) . . .
93(5) . . .
86(5) . . .
97(5) . . .
99(5) . . .
81(5) . . .
86(5) . . .
94(5) . . .
104(6) . . .
97(5) . . .
86(5) . . .
87(5) . . .
100(6) . . .
95(5) . . .
97(5) . . .
88(5) . . .
98(5) . . .
89(5) . . .
98(5) . . .
100(5) . . .
79(5) . . .
106(5) . . .
110(6) . . .
93(5) . . .
91(5) . . .
93(5) . . .
98(5) . . .
100(6) . . .
104(5) . . .
97(5) . . .
85(5) . . .
85(5) . . .
110(6) . . .
102(5) . . .
97(5) . . .
100(5) . . .
96(5) . . .
94(5) . . .
113(6) . . .
100(5) . . .
105(6) . . .
102(5) . . .
106(6) . . .
108(6) . . .
109(5) . . .
110(6) . . .
93(5) . . .
92(5) . . .
98(5) . . .
97(5) . . .
110(6) . . .
106(6) . . .
103(6) . . .
95(5) . . .
111(6) . . .
94(5) . . .
83(5) . . .
98(5) . . .
91(5) . . .
98(5) . . .
89(5) . . .
98(5) . . .
101(5) . . .
113(5) . . .
100(5) . . .
116(6) . . .
90(5) . . .
97(5) . . .
94(5) . . .
94(5) . . .
100(5) . . .
100(6) . . .
98(5) . . .
99(5) . . .
79(5) . . .
87(5) . . .
96(5) . . .
87(5) . . .
88(5) . . .
77(5) . . .
96(5) . . .
91(5) . . .
89(5) . . .
87(5) . . .
88(5) . . .
92(5) . . .
108(6) . . .
91(5) . . .
104(5) . . .
104(5) . . .
90(5) . . .
102(5) . . .
97(5) . . .
89(5) . . .
86(5) . . .
89(5) . . .
95(5) . . .
84(5) . . .
95(5) . . .
101(5) . . .
90(5) . . .
100(5) . . .
100(5) . . .
87(5) . . .
97(5) . . .
84(5) . . .
77(5) . . .
86(5) . . .
95(5) . . .
90(5) . . .
95(5) . . .
92(5) . . .
93(5) . . .
92(5) . . .
83(5) . . .
86(5) . . .
94(5) . . .
101(5) . . .
100(5) . . .
86(5) . . .
77(5) . . .
84(5) . . .
98(5) . . .
94(5) . . .
88(5) . . .
97(5) . . .
96(5) . . .
110(5) . . .
78(5) . . .
84(5) . . .
83(5) . . .
94(5) . . .
81(5) . . .
93(5) . . .
113(6) . . .
96(5) . . .
93(5) . . .
102(5) . . .
92(5) . . .
92(5) . . .
87(5) . . .
81(5) . . .
92(5) . . .
93(5) . . .
89(5) . . .
84(5) . . .
88(5) . . .
99(5) . . .
92(5) . . .
99(6) . . .
89(5) . . .
82(5) . . .
82(5) . . .
87(5) . . .
107(6) . . .
90(5) . . .
79(5) . . .
90(5) . . .
98(5) . . .
90(5) . . .
95(5) . . .
82(5) . . .
93(5) . . .
84(5) . . .
98(6) . . .
104(5) . . .
96(5) . . .
98(5) . . .
86(5) . . .
106(6) . . .
94(5) . . .
96(5) . . .
89(5) . . .
93(5) . . .
88(5) . . .
81(5) . . .
100(5) . . .
90(5) . . .
86(5) . . .
99(6) . . .
90(5) . . .
85(5) . . .
85(5) . . .
86(5) . . .
99(5) . . .
95(5) . . .
86(5) . . .
92(5) . . .
111(6) . . .
106(6) . . .
89(5) . . .
93(5) . . .
87(5) . . .
88(5) . . .
90(5) . . .
92(5) . . .
85(5) . . .
88(5) . . .
94(5) . . .
101(5) . . .
90(5) . . .
92(5) . . .
96(5) . . .
91(5) . . .
85(5) . . .
84(5) . . .
88(5) . . .
90(5) . . .
83(5) . . .
86(5) . . .
102(5) . . .
79(5) . . .
90(5) . . .
89(5) . . .
89(5) . . .
83(5) . . .
86(5) . . .
85(5) . . .
89(5) . . .
99(6) . . .
96(5) . . .
100(5) . . .
103(5) . . .
85(5) . . .
96(5) . . .
100(5) . . .
87(5) . . .
90(5) . . .
92(5) . . .
90(5) . . .
91(5) . . .
78(5) . . .
93(5) . . .
101(6) . . .
79(5) . . .
88(5) . . .
92(5) . . .
93(5) . . .
87(5) . . .
93(5) . . .
95(5) . . .
96(5) . . .
99(6) . . .
85(5) . . .
94(5) . . .
96(5) . . .
81(5) . . .
85(5) . . .
112(6) . . .
105(5) . . .
93(5) . . .
91(5) . . .
92(5) . . .
88(5) . . .
99(5) . . .
100(5) . . .
92(5) . . .
100(6) . . .
84(5) . . .
94(5) . . .
93(5) . . .
95(5) . . .
105(6) . . .
95(5) . . .
95(5) . . .
92(5) . . .
98(5) . . .
89(5) . . .
98(5) . . .
81(5) . . .
88(5) . . .
98(6) . . .
89(5) . . .
81(5) . . .
93(5) . . .
95(5) . . .
88(5) . . .
79(5) . . .
93(5) . . .
90(5) . . .
89(5) . . .
111(6) . . .
97(5) . . .
85(5) . . .
88(5) . . .
96(5) . . .
95(5) . . .
90(5) . . .
91(5) . . .
95(5) . . .
84(5) . . .
80(5) . . .
86(5) . . .
87(5) . . .
89(5) . . .
80(5) . . .
103(6) . . .
89(5) . . .
92(5) . . .
86(5) . . .
86(5) . . .
106(6) . . .
93(5) . . .
90(5) . . .
94(5) . . .
87(5) . . .
88(5) . . .
94(5) . . .
92(5) . . .
109(5) . . .
88(5) . . .
96(6) . . .
106(6) . . .
87(5) . . .
89(5) . . .
106(6) . . .
86(5) . . .
104(6) . . .
94(5) . . .
109(5) . . .
88(5) . . .
88(5) . . .
105(6) . . .
100(5) . . .
98(5) . . .
100(5) . . .
85(5) . . .
89(5) . . .
74(4) . . .
89(5) . . .
84(5) . . .
85(5) . . .
90(5) . . .
101(5) . . .
91(5) . . .
95(5) . . .
92(5) . . .
105(6) . . .
98(5) . . .
92(5) . . .
88(5) . . .
80(5) . . .
92(5) . . .
95(5) . . .
89(5) . . .
91(5) . . .
94(5) . . .
85(5) . . .
79(5) . . .
89(5) . . .
107(6) . . .
93(5) . . .
93(5) . . .
86(5) . . .
89(5) . . .
89(5) . . .
96(5) . . .
89(5) . . .
88(5) . . .
86(5) . . .
85(5) . . .
86(5) . . .
84(5) . . .
85(5) . . .
86(5) . . .
77(5) . . .
84(5) . . .
94(5) . . .
88(5) . . .
75(4) . . .
99(6) . . .
102(5) . . .
94(5) . . .
98(5) . . .
90(5) . . .
95(5) . . .
101(6) . . .
101(5) . . .
92(5) . . .
79(5) . . .
92(5) . . .
96(5) . . .
91(5) . . .
103(5) . . .
102(5) . . .
88(5) . . .
91(5) . . .
84(5) . . .
94(5) . . .
88(5) . . .
99(6) . . .
91(5) . . .
98(5) . . .
76(5) . . .
107(6) . . .
110(6) . . .
99(5) . . .
87(5) . . .
89(5) . . .
78(5) . . .
92(5) . . .
87(5) . . .
98(5) . . .
87(5) . . .
85(5) . . .
92(5) . . .
98(5) . . .
90(5) . . .
90(5) . . .
74(5) . . .
82(5) . . .
79(5) . . .
110(5) . . .
98(5) . . .
91(5) . . .
95(5) . . .
95(5) . . .
82(5) . . .
82(5) . . .
102(6) . . .
83(5) . . .
78(5) . . .
86(5) . . .
94(5) . . .
94(5) . . .
88(5) . . .
88(5) . . .
84(5) . . .
88(5) . . .
79(5) . . .
98(5) . . .
99(5) . . .
83(5) . . .
91(5) . . .
78(5) . . .
89(5) . . .
95(5) . . .
89(5) . . .
83(5) . . .
96(6) . . .
81(5) . . .
91(5) . . .
103(5) . . .
89(5) . . .
81(5) . . .
84(5) . . .
82(5) . . .
84(5) . . .
81(5) . . .
82(5) . . .
90(5) . . .
89(5) . . .
93(5) . . .
86(5) . . .
75(5) . . .
84(5) . . .
95(5) . . .
92(5) . . .
89(5) . . .
93(5) . . .
74(4) . . .
95(5) . . .
85(5) . . .
85(5) . . .
99(5) . . .
87(5) . . .
86(5) . . .
85(5) . . .
86(5) . . .
93(5) . . .
88(5) . . .
80(5) . . .
86(5) . . .
88(5) . . .
77(5) . . .
86(5) . . .
98(5) . . .
93(5) . . .
97(6) . . .
94(5) . . .
88(5) . . .
82(5) . . .
89(5) . . .
83(5) . . .
86(5) . . .
93(5) . . .
82(5) . . .
85(5) . . .
85(5) . . .
78(5) . . .
91(5) . . .
94(5) . . .
95(5) . . .
89(5) . . .
71(5) . . .
81(5) . . .
79(5) . . .
77(5) . . .
86(5) . . .
90(5) . . .
78(5) . . .
80(5) . . .
83(5) . . .
86(5) . . .
93(5) . . .
83(5) . . .
85(5) . . .
86(5) . . .
84(5) . . .
83(5) . . .
93(5) . . .
84(5) . . .
86(5) . . .
89(5) . . .
81(5) . . .
90(5) . . .
84(5) . . .
83(5) . . .
77(5) . . .
86(5) . . .
93(5) . . .
95(5) . . .
69(4) . . .
91(5) . . .
89(5) . . .
81(5) . . .
88(5) . . .
83(5) . . .
78(5) . . .
80(5) . . .
77(5) . . .
82(5) . . .
79(5) . . .
88(5) . . .
94(5) . . .
83(5) . . .
79(5) . . .
79(5) . . .
92(5) . . .
90(5) . . .
73(5) . . .
90(5) . . .
89(5) . . .
102(5) . . .
74(4) . . .
67(4) . . .
73(5) . . .
85(5) . . .
81(5) . . .
89(5) . . .
104(6) . . .
87(5) . . .
94(5) . . .
94(5) . . .
88(5) . . .
85(5) . . .
99(6) . . .
91(5) . . .
90(5) . . .
92(5) . . .
92(5) . . .
91(5) . . .
96(5) . . .
91(5) . . .
93(5) . . .
86(5) . . .
82(5) . . .
81(5) . . .
90(5) . . .
83(5) . . .
80(5) . . .
92(5) . . .
88(5) . . .
74(4) . . .
88(5) . . .
83(5) . . .
90(5) . . .
98(5) . . .
86(5) . . .
95(5) . . .
90(5) . . .
89(5) . . .
89(5) . . .
90(5) . . .
91(5) . . .
91(5) . . .
87(5) . . .
81(5) . . .
81(5) . . .
78(5) . . .
82(5) . . .
96(5) . . .
86(5) . . .
79(5) . . .
98(5) . . .
97(5) . . .
90(5) . . .
90(5) . . .
86(5) . . .
82(5) . . .
85(5) . . .
84(5) . . .
92(5) . . .
81(5) . . .
78(5) . . .
88(5) . . .
88(5) . . .
84(5) . . .
90(5) . . .
91(5) . . .
98(6) . . .
97(5) . . .
81(5) . . .
88(5) . . .
89(5) . . .
87(5) . . .
86(5) . . .
88(5) . . .
88(5) . . .
81(5) . . .
84(5) . . .
84(5) . . .
86(5) . . .
84(5) . . .
84(5) . . .
84(5) . . .
87(5) . . .
86(5) . . .
99(5) . . .
94(5) . . .
90(5) . . .
86(5) . . .
89(5) . . .
103(5) . . .
84(5) . . .
84(5) . . .
93(5) . . .
109(5) . . .
103(5) . . .
92(5) . . .
88(5) . . .
89(5) . . .
101(5) . . .
94(5) . . .
86(5) . . .
78(5) . . .
93(5) . . .
107(5) . . .
98(5) . . .
92(5) . . .
93(5) . . .
84(5) . . .
85(5) . . .
93(5) . . .
91(5) . . .
96(5) . . .
93(5) . . .
100(5) . . .
94(5) . . .
93(5) . . .
90(5) . . .
76(4) . . .
98(5) . . .
86(5) . . .
86(5) . . .
89(5) . . .
78(5) . . .
91(5) . . .
104(6) . . .
91(5) . . .
91(5) . . .
92(5) . . .
88(5) . . .
85(5) . . .
104(6) . . .
97(5) . . .
95(5) . . .
91(5) . . .
91(5) . . .
90(5) . . .
81(5) . . .
90(5) . . .
95(5) . . .
86(5) . . .
98(6) . . .
98(5) . . .
83(5) . . .
93(5) . . .
99(5) . . .
100(6) . . .
91(5) . . .
97(5) . . .
93(5) . . .
87(5) . . .
97(5) . . .
97(5) . . .
85(5) . . .
92(5) . . .
99(5) . . .
95(5) . . .
87(5) . . .
87(5) . . .
99(6) . . .
81(5) . . .
101(6) . . .
92(5) . . .
88(5) . . .
86(5) . . .
106(6) . . .
94(5) . . .
82(5) . . .
85(5) . . .
80(5) . . .
96(6) . . .
75(5) . . .
88(5) . . .
81(5) . . .
94(6) . . .
90(5) . . .
89(5) . . .
79(5) . . .
80(5) . . .
81(5) . . .
70(5) . . .
83(5) . . .
89(5) . . .
86(5) . . .
86(5) . . .
79(5) . . .
92(5) . . .
85(5) . . .
87(5) . . .
89(5) . . .
95(5) . . .
92(5) . . .
92(5) . . .
105(5) . . .
93(5) . . .
90(5) . . .
82(5) . . .
85(5) . . .
87(5) . . .
84(5) . . .
90(5) . . .
96(5) . . .
94(5) . . .
87(5) . . .
96(5) . . .
78(5) . . .
77(5) . . .
82(5) . . .
96(5) . . .
73(5) . . .
82(5) . . .
77(5) . . .
90(5) . . .
84(5) . . .
92(5) . . .
101(5) . . .
99(5) . . .
100(5) . . .
92(5) . . .
90(5) . . .
93(5) . . .
76(5) . . .
82(5) . . .
82(5) . . .
79(5) . . .
92(5) . . .
90(5) . . .
89(5) . . .
85(5) . . .
92(5) . . .
96(5) . . .
96(5) . . .
92(5) . . .
77(5) . . .
83(5) . . .
73(5) . . .
79(5) . . .
82(5) . . .
84(5) . . .
83(5) . . .
85(5) . . .
90(5) . . .
90(5) . . .
95(5) . . .
100(5) . . .
98(5) . . .
93(5) . . .
87(5) . . .
83(5) . . .
93(5) . . .
81(5) . . .
82(5) . . .
74(4) . . .
93(5) . . .
99(5) . . .
90(5) . . .
93(5) . . .
90(5) . . .
78(5) . . .
82(5) . . .
83(5) . . .
86(5) . . .
89(5) . . .
82(5) . . .
89(5) . . .
89(5) . . .
76(5) . . .
74(5) . . .
85(5) . . .
90(5) . . .
79(5) . . .
97(5) . . .
78(5) . . .
90(5) . . .
78(5) . . .
81(5) . . .
81(5) . . .
77(5) . . .
73(5) . . .
83(5) . . .
73(4) . . .
82(5) . . .
87(5) . . .
88(5) . . .
94(5) . . .
89(5) . . .
94(5) . . .
88(5) . . .
75(5) . . .
96(5) . . .
81(5) . . .
86(5) . . .
96(5) . . .
96(5) . . .
82(5) . . .
88(5) . . .
91(5) . . .
78(5) . . .
88(5) . . .
80(5) . . .
83(5) . . .
91(5) . . .
89(5) . . .
94(5) . . .
81(5) . . .
82(5) . . .
84(5) . . .
81(5) . . .
85(5) . . .
87(5) . . .
86(5) . . .
93(5) . . .
77(5) . . .
84(5) . . .
83(5) . . .
74(4) . . .
87(5) . . .
82(5) . . .
79(5) . . .
81(5) . . .
92(5) . . .
90(5) . . .
78(5) . . .
86(5) . . .
76(5) . . .
75(5) . . .
84(5) . . .
82(5) . . .
100(5) . . .
86(5) . . .
71(4) . . .
90(5) . . .
84(5) . . .
89(5) . . .
84(5) . . .
77(5) . . .
75(5) . . .
80(5) . . .
77(5) . . .
80(5) . . .
83(5) . . .
72(4) . . .
80(5) . . .
86(5) . . .
80(5) . . .
81(5) . . .
85(5) . . .
73(5) . . .
77(5) . . .
90(5) . . .
94(5) . . .
84(5) . . .
78(5) . . .
86(5) . . .
90(5) . . .
82(5) . . .
77(5) . . .
70(4) . . .
79(5) . . .
94(5) . . .
89(5) . . .
98(6) . . .
88(5) . . .
81(5) . . .
94(5) . . .
77(5) . . .
78(5) . . .
74(5) . . .
75(5) . . .
82(5) . . .
74(5) . . .
78(5) . . .
92(5) . . .
93(5) . . .
83(5) . . .
75(5) . . .
73(5) . . .
77(5) . . .
92(5) . . .
78(5) . . .
91(5) . . .
86(5) . . .
70(4) . . .
82(5) . . .
87(5) . . .
85(5) . . .
97(5) . . .
91(5) . . .
84(5) . . .
93(5) . . .
77(5) . . .
78(5) . . .
81(5) . . .
86(5) . . .
100(5) . . .
86(5) . . .
77(5) . . .
91(5) . . .
73(4) . . .
83(5) . . .
78(5) . . .
89(5) . . .
87(5) . . .
74(5) . . .
87(5) . . .
87(5) . . .
90(5) . . .
82(5) . . .
96(5) . . .
91(5) . . .
87(5) . . .
82(5) . . .
85(5) . . .
84(5) . . .
86(5) . . .
74(5) . . .
75(5) . . .
84(5) . . .
82(5) . . .
83(5) . . .
86(5) . . .
84(5) . . .
92(5) . . .
90(5) . . .
89(5) . . .
87(5) . . .
90(5) . . .
89(5) . . .
86(5) . . .
97(5) . . .
74(5) . . .
80(5) . . .
103(5) . . .
83(5) . . .
92(5) . . .
87(5) . . .
72(5) . . .
86(5) . . .
89(5) . . .
89(5) . . .
89(5) . . .
92(5) . . .
86(5) . . .
82(5) . . .
91(5) . . .
85(5) . . .
78(5) . . .
83(5) . . .
81(5) . . .
66(4) . . .
90(5) . . .
87(5) . . .
95(5) . . .
77(5) . . .
95(5) . . .
82(5) . . .
81(5) . . .
83(5) . . .
86(5) . . .
90(5) . . .
91(5) . . .
85(5) . . .
77(5) . . .
77(5) . . .
76(5) . . .
81(5) . . .
90(5) . . .
94(5) . . .
82(5) . . .
82(5) . . .
71(4) . . .
83(5) . . .
83(5) . . .
85(5) . . .
75(5) . . .
79(5) . . .
73(4) . . .
81(5) . . .
81(5) . . .
86(5) . . .
82(5) . . .
76(5) . . .
69(4) . . .
83(5) . . .
69(4) . . .
80(5) . . .
86(5) . . .
93(5) . . .
74(5) . . .
77(5) . . .
82(5) . . .
79(5) . . .
75(5) . . .
75(5) . . .
84(5) . . .
82(5) . . .
81(5) . . .
81(5) . . .
65(4) . . .
79(5) . . .
87(5) . . .
81(5) . . .
88(5) . . .
81(5) . . .
78(5) . . .
70(4) . . .
85(5) . . .
102(6) . . .
85(5) . . .
95(5) . . .
91(5) . . .
93(5) . . .
82(5) . . .
72(5) . . .
72(4) . . .
87(5) . . .
79(5) . . .
75(5) . . .
83(5) . . .
94(5) . . .
78(5) . . .
63(4) . . .
93(5) . . .
90(5) . . .
74(4) . . .
82(5) . . .
82(5) . . .
83(5) . . .
87(5) . . .
77(5) . . .
90(5) . . .
86(5) . . .
75(5) . . .
88(5) . . .
81(5) . . .
66(4) . . .
70(4) . . .
76(5) . . .
81(5) . . .
80(5) . . .
85(5) . . .
80(5) . . .
82(5) . . .
88(5) . . .
81(5) . . .
76(5) . . .
80(5) . . .
74(5) . . .
74(5) . . .
77(5) . . .
86(5) . . .
92(5) . . .
91(5) . . .
77(5) . . .
84(5) . . .
84(5) . . .
90(5) . . .
82(5) . . .
84(5) . . .
81(5) . . .
74(4) . . .
82(5) . . .
75(5) . . .
80(5) . . .
80(5) . . .
86(5) . . .
82(5) . . .
89(5) . . .
76(5) . . .
86(5) . . .
92(5) . . .
91(5) . . .
88(5) . . .
80(5) . . .
83(5) . . .
89(5) . . .
83(5) . . .
87(5) . . .
72(5) . . .
75(5) . . .
71(5) . . .
78(5) . . .
85(5) . . .
78(5) . . .
79(5) . . .
80(5) . . .
82(5) . . .
78(5) . . .
76(5) . . .
70(4) . . .
80(5) . . .
75(5) . . .
82(5) . . .
78(5) . . .
81(5) . . .
89(5) . . .
71(4) . . .
85(5) . . .
78(5) . . .
67(4) . . .
81(5) . . .
70(4) . . .
69(5) . . .
78(5) . . .
71(4) . . .
81(5) . . .
69(5) . . .
79(5) . . .
93(5) . . .
77(5) . . .
89(5) . . .
83(5) . . .
86(5) . . .
83(5) . . .
74(4) . . .
77(5) . . .
83(5) . . .
91(5) . . .
77(5) . . .
85(5) . . .
91(5) . . .
81(5) . . .
73(4) . . .
89(5) . . .
99(5) . . .
86(5) . . .
85(5) . . .
83(5) . . .
82(5) . . .
72(4) . . .
76(5) . . .
89(5) . . .
92(5) . . .
75(4) . . .
79(5) . . .
79(5) . . .
70(4) . . .
80(5) . . .
81(5) . . .
77(5) . . .
82(5) . . .
88(5) . . .
80(5) . . .
89(5) . . .
78(5) . . .
86(5) . . .
83(5) . . .
89(5) . . .
85(5) . . .
64(4) . . .
101(6) . . .
77(5) . . .
80(5) . . .
72(4) . . .
81(5) . . .
78(5) . . .
80(5) . . .
88(5) . . .
84(5) . . .
90(5) . . .
83(5) . . .
78(5) . . .
67(4) . . .
76(5) . . .
82(5) . . .
85(5) . . .
70(4) . . .
71(4) . . .
72(4) . . .
82(5) . . .
75(5) . . .
71(4) . . .
78(5) . . .
75(5) . . .
91(5) . . .
98(6) . . .
70(4) . . .
72(4) . . .
73(5) . . .
73(4) . . .
75(5) . . .
80(5) . . .
84(5) . . .
87(5) . . .
80(5) . . .
89(5) . . .
78(5) . . .
74(4) . . .
85(5) . . .
86(5) . . .
71(5) . . .
80(5) . . .
81(5) . . .
73(4) . . .
79(5) . . .
69(5) . . .
77(5) . . .
88(5) . . .
91(5) . . .
88(5) . . .
93(5) . . .
84(5) . . .
79(5) . . .
83(5) . . .
93(5) . . .
87(5) . . .
77(5) . . .
70(4) . . .
74(5) . . .
80(5) . . .
77(5) . . .
72(5) . . .
80(5) . . .
62(4) . . .
85(5) . . .
82(5) . . .
73(5) . . .
85(5) . . .
73(5) . . .
68(4) . . .
87(5) . . .
87(5) . . .
86(5) . . .
86(5) . . .
82(5) . . .
73(5) . . .
84(5) . . .
83(5) . . .
73(4) . . .
87(5) . . .
89(5) . . .
88(5) . . .
80(5) . . .
78(5) . . .
73(5) . . .
83(5) . . .
83(5) . . .
79(5) . . .
82(5) . . .
89(5) . . .
76(5) . . .
66(4) . . .
91(5) . . .
73(4) . . .
81(5) . . .
81(5) . . .
80(5) . . .
91(5) . . .
86(5) . . .
67(5) . . .
78(5) . . .
85(5) . . .
81(5) . . .
72(5) . . .
83(5) . . .
73(5) . . .
81(5) . . .
84(5) . . .
74(5) . . .
86(5) . . .
92(5) . . .
74(5) . . .
79(5) . . .
79(5) . . .
76(5) . . .
77(5) . . .
79(5) . . .
82(5) . . .
87(5) . . .
87(5) . . .
73(4) . . .
96(5) . . .
75(5) . . .
75(5) . . .
80(5) . . .
66(4) . . .
77(5) . . .
71(4) . . .
75(5) . . .
70(4) . . .
70(4) . . .
80(5) . . .
85(5) . . .
80(5) . . .
69(4) . . .
81(5) . . .
82(5) . . .
99(6) . . .
68(4) . . .
80(5) . . .
86(5) . . .
87(5) . . .
90(5) . . .
85(5) . . .
67(4) . . .
79(5) . . .
88(5) . . .
82(5) . . .
77(5) . . .
69(4) . . .
89(5) . . .
90(5) . . .
75(5) . . .
82(5) . . .
87(5) . . .
77(5) . . .
74(5) . . .
82(5) . . .
81(5) . . .
94(5) . . .
91(5) . . .
68(4) . . .
82(5) . . .
75(5) . . .
78(5) . . .
83(5) . . .
86(5) . . .
72(5) . . .
73(4) . . .
84(5) . . .
77(5) . . .
73(5) . . .
80(5) . . .
74(5) . . .
81(5) . . .
97(5) . . .
74(5) . . .
76(5) . . .
77(5) . . .
62(4) . . .
79(5) . . .
77(5) . . .
71(4) . . .
72(4) . . .
78(5) . . .
69(4) . . .
80(5) . . .
73(5) . . .
77(5) . . .
79(5) . . .
64(4) . . .
85(5) . . .
87(5) . . .
77(5) . . .
76(5) . . .
75(4) . . .
85(5) . . .
69(4) . . .
77(5) . . .
78(5) . . .
70(4) . . .
81(5) . . .
84(5) . . .
90(5) . . .
78(5) . . .
82(5) . . .
73(5) . . .
83(5) . . .
78(5) . . .
76(5) . . .
88(5) . . .
89(5) . . .
68(4) . . .
80(5) . . .
88(5) . . .
71(4) . . .
75(5) . . .
89(5) . . .
91(5) . . .
78(5) . . .
76(5) . . .
68(4) . . .
73(5) . . .
67(4) . . .
70(4) . . .
83(5) . . .
81(5) . . .
79(5) . . .
74(4) . . .
84(5) . . .
79(5) . . .
73(5) . . .
68(4) . . .
80(5) . . .
75(5) . . .
76(5) . . .
96(6) . . .
96(5) . . .
75(5) . . .
69(4) . . .
88(5) . . .
92(5) . . .
74(5) . . .
79(5) . . .
79(5) . . .
76(5) . . .
76(5) . . .
87(5) . . .
87(5) . . .
82(5) . . .
96(5) . . .
80(5) . . .
77(5) . . .
82(5) . . .
87(5) . . .
86(5) . . .
78(5) . . .
87(5) . . .
89(5) . . .
77(5) . . .
83(5) . . .
86(5) . . .
81(5) . . .
86(5) . . .
73(5) . . .
75(5) . . .
85(5) . . .
84(5) . . .
82(5) . . .
82(5) . . .
87(5) . . .
82(5) . . .
73(5) . . .
82(5) . . .
71(4) . . .
88(5) . . .
90(5) . . .
83(5) . . .
68(4) . . .
79(5) . . .
76(5) . . .
79(5) . . .
85(5) . . .
78(5) . . .
79(5) . . .
70(5) . . .
79(5) . . .
79(5) . . .
73(5) . . .
72(5) . . .
85(5) . . .
87(5) . . .
84(5) . . .
77(5) . . .
72(4) . . .
89(5) . . .
84(5) . . .
68(4) . . .
74(5) . . .
77(5) . . .
83(5) . . .
83(5) . . .
82(5) . . .
83(5) . . .
84(5) . . .
85(5) . . .
94(5) . . .
89(5) . . .
73(5) . . .
72(4) . . .
93(5) . . .
86(5) . . .
78(5) . . .
71(5) . . .
71(5) . . .
74(5) . . .
72(4) . . .
83(5) . . .
78(5) . . .
74(5) . . .
87(5) . . .
74(5) . . .
80(5) . . .
86(5) . . .
79(5) . . .
71(4) . . .
77(5) . . .
85(5) . . .
89(5) . . .
84(5) . . .
76(5) . . .
86(5) . . .
89(5) . . .
97(6) . . .
79(5) . . .
75(5) . . .
73(4) . . .
70(4) . . .
70(5) . . .
80(5) . . .
89(5) . . .
75(5) . . .
72(4) . . .
72(5) . . .
79(5) . . .
88(5) . . .
79(5) . . .
82(5) . . .
87(5) . . .
80(5) . . .
81(5) . . .
84(5) . . .
71(4) . . .
68(5) . . .
77(5) . . .
79(5) . . .
76(4) . . .
92(5) . . .
93(5) . . .
89(5) . . .
71(4) . . .
82(5) . . .
90(5) . . .
81(5) . . .
79(5) . . .
79(5) . . .
75(4) . . .
78(5) . . .
90(5) . . .
85(5) . . .
90(5) . . .
91(5) . . .
78(5) . . .
94(6) . . .
80(5) . . .
87(5) . . .
75(4) . . .
68(4) . . .
76(5) . . .
78(5) . . .
75(5) . . .
80(5) . . .
79(5) . . .
72(5) . . .
79(5) . . .
84(5) . . .
78(5) . . .
83(5) . . .
72(5) . . .
78(5) . . .
68(4) . . .
77(5) . . .
79(5) . . .
90(5) . . .
85(5) . . .
94(5) . . .
92(5) . . .
88(5) . . .
85(5) . . .
97(5) . . .
85(5) . . .
89(5) . . .
87(5) . . .
73(5) . . .
76(5) . . .
87(5) . . .
92(5) . . .
94(5) . . .
76(5) . . .
83(5) . . .
74(4) . . .
87(5) . . .
75(5) . . .
78(5) . . .
83(5) . . .
85(5) . . .
85(5) . . .
81(5) . . .
71(4) . . .
68(4) . . .
75(4) . . .
88(5) . . .
84(5) . . .
82(5) . . .
70(4) . . .
80(5) . . .
85(5) . . .
93(5) . . .
77(5) . . .
82(5) . . .
89(5) . . .
78(5) . . .
79(5) . . .
86(5) . . .
85(5) . . .
79(5) . . .
90(5) . . .
84(5) . . .
81(5) . . .
90(5) . . .
89(5) . . .
76(5) . . .
73(5) . . .
72(5) . . .
73(4) . . .
72(4) . . .
81(5) . . .
84(5) . . .
86(5) . . .
75(4) . . .
84(5) . . .
75(5) . . .
81(5) . . .
83(5) . . .
84(5) . . .
88(5) . . .
78(5) . . .
90(5) . . .
69(4) . . .
76(5) . . .
80(5) . . .
93(5) . . .
85(5) . . .
90(5) . . .
83(5) . . .
83(5) . . .
74(5) . . .
79(5) . . .
75(5) . . .
82(5) . . .
81(5) . . .
76(5) . . .
78(5) . . .
83(5) . . .
80(5) . . .
88(5) . . .
81(5) . . .
88(5) . . .
85(5) . . .
86(5) . . .
79(5) . . .
81(5) . . .
64(4) . . .
83(5) . . .
73(4) . . .
80(5) . . .
77(5) . . .
83(5) . . .
88(5) . . .
78(5) . . .
72(5) . . .
69(4) . . .
76(5) . . .
89(5) . . .
70(4) . . .
86(5) . . .
81(5) . . .
68(4) . . .
86(5) . . .
82(5) . . .
73(5) . . .
71(5) . . .
85(5) . . .
76(5) . . .
91(5) . . .
76(5) . . .
82(5) . . .
75(4) . . .
85(5) . . .
83(5) . . .
78(5) . . .
62(4) . . .
90(5) . . .
80(5) . . .
81(5) . . .
69(4) . . .
93(5) . . .
69(4) . . .
65(4) . . .
72(5) . . .
75(5) . . .
78(5) . . .
75(5) . . .
79(5) . . .
85(5) . . .
94(5) . . .
77(5) . . .
83(5) . . .
79(5) . . .
74(5) . . .
89(5) . . .
71(5) . . .
65(4) . . .
66(4) . . .
69(4) . . .
76(5) . . .
71(4) . . .
78(5) . . .
85(5) . . .
77(5) . . .
77(5) . . .
85(5) . . .
82(5) . . .
72(4) . . .
77(5) . . .
87(5) . . .
76(5) . . .
73(4) . . .
85(5) . . .
77(5) . . .
95(5) . . .
81(5) . . .
73(4) . . .
73(5) . . .
74(5) . . .
75(5) . . .
76(5) . . .
85(5) . . .
64(4) . . .
83(5) . . .
79(5) . . .
84(5) . . .
70(4) . . .
85(5) . . .
77(5) . . .
83(5) . . .
91(5) . . .
69(4) . . .
83(5) . . .
71(5) . . .
80(5) . . .
76(5) . . .
83(5) . . .
83(5) . . .
87(5) . . .
78(5) . . .
87(5) . . .
71(4) . . .
74(5) . . .
89(6) . . .
73(5) . . .
70(4) . . .
69(4) . . .
78(5) . . .
77(5) . . .
78(5) . . .
75(4) . . .
82(5) . . .
92(5) . . .
89(5) . . .
77(5) . . .
84(5) . . .
81(5) . . .
62(4) . . .
71(5) . . .
85(5) . . .
81(5) . . .
83(5) . . .
73(4) . . .
81(5) . . .
74(5) . . .
71(4) . . .
86(5) . . .
77(5) . . .
79(5) . . .
79(5) . . .
85(5) . . .
87(5) . . .
69(4) . . .
87(5) . . .
70(4) . . .
71(4) . . .
80(5) . . .
75(5) . . .
75(5) . . .
80(5) . . .
70(4) . . .
85(5) . . .
90(5) . . .
77(5) . . .
82(5) . . .
77(5) . . .
78(5) . . .
70(5) . . .
63(4) . . .
83(5) . . .
84(5) . . .
79(5) . . .
66(4) . . .
76(5) . . .
87(5) . . .
74(4) . . .
85(5) . . .
82(5) . . .
87(5) . . .
80(5) . . .
90(5) . . .
75(5) . . .
79(5) . . .
85(5) . . .
92(5) . . .
81(5) . . .
81(5) . . .
78(5) . . .
79(5) . . .
81(5) . . .
75(4) . . .
69(4) . . .
76(5) . . .
78(5) . . .
78(5) . . .
70(4) . . .
65(4) . . .
82(5) . . .
76(5) . . .
92(5) . . .
78(5) . . .
77(5) . . .
88(5) . . .
80(5) . . .
65(4) . . .
83(5) . . .
72(5) . . .
78(5) . . .
69(4) . . .
82(5) . . .
84(5) . . .
76(5) . . .
78(5) . . .
80(5) . . .
99(5) . . .
80(5) . . .
61(4) . . .
61(4) . . .
80(5) . . .
84(5) . . .
79(5) . . .
84(5) . . .
76(5) . . .
87(5) . . .
82(5) . . .
76(5) . . .
75(5) . . .
82(5) . . .
77(5) . . .
66(4) . . .
77(5) . . .
73(5) . . .
82(5) . . .
72(4) . . .
78(5) . . .
74(5) . . .
88(5) . . .
81(5) . . .
87(5) . . .
84(5) . . .
73(5) . . .
79(5) . . .
68(4) . . .
74(5) . . .
67(4) . . .
71(4) . . .
86(5) . . .
71(4) . . .
86(5) . . .
79(5) . . .
74(5) . . .
74(5) . . .
73(5) . . .
81(5) . . .
65(4) . . .
72(5) . . .
83(5) . . .
81(5) . . .
76(5) . . .
83(5) . . .
81(5) . . .
80(5) . . .
78(5) . . .
81(5) . . .
78(5) . . .
80(5) . . .
85(5) . . .
81(5) . . .
80(5) . . .
85(5) . . .
73(5) . . .
72(4) . . .
80(5) . . .
80(5) . . .
77(5) . . .
76(5) . . .
73(4) . . .
83(5) . . .
77(5) . . .
79(5) . . .
67(4) . . .
87(5) . . .
84(5) . . .
81(5) . . .
75(5) . . .
74(5) . . .
64(5) . . .
71(4) . . .
68(4) . . .
72(5) . . .
82(5) . . .
77(5) . . .
93(5) . . .
73(5) . . .
71(5) . . .
77(5) . . .
78(5) . . .
86(5) . . .
76(5) . . .
75(5) . . .
93(5) . . .
72(5) . . .
83(5) . . .
87(5) . . .
82(5) . . .
80(5) . . .
76(5) . . .
77(5) . . .
80(5) . . .
87(5) . . .
85(5) . . .
78(5) . . .
80(5) . . .
75(5) . . .
74(5) . . .
70(5) . . .
76(5) . . .
79(5) . . .
76(5) . . .
83(5) . . .
82(5) . . .
76(5) . . .
89(5) . . .
81(5) . . .
70(5) . . .
81(5) . . .
73(4) . . .
74(5) . . .
64(4) . . .
73(5) . . .
72(4) . . .
71(4) . . .
84(5) . . .
76(5) . . .
75(5) . . .
87(5) . . .
88(5) . . .
89(5) . . .
78(5) . . .
86(5) . . .
84(5) . . .
74(5) . . .
80(5) . . .
80(5) . . .
76(5) . . .
82(5) . . .
76(5) . . .
82(5) . . .
91(5) . . .
83(5) . . .
79(5) . . .
76(5) . . .
69(4) . . .
71(5) . . .
68(5) . . .
63(4) . . .
82(5) . . .
88(5) . . .
79(5) . . .
79(5) . . .
77(4) . . .
80(5) . . .
71(5) . . .
77(5) . . .
68(4) . . .
82(5) . . .
84(5) . . .
77(5) . . .
77(5) . . .
85(5) . . .
86(5) . . .
92(5) . . .
74(5) . . .
86(5) . . .
81(5) . . .
75(4) . . .
66(4) . . .
78(5) . . .
80(5) . . .
73(5) . . .
78(5) . . .
86(5) . . .
80(5) . . .
84(5) . . .
85(5) . . .
70(4) . . .
87(5) . . .
66(4) . . .
80(5) . . .
75(5) . . .
82(5) . . .
60(4) . . .
79(5) . . .
79(5) . . .
81(5) . . .
79(5) . . .
86(5) . . .
71(4) . . .
69(4) . . .
60(4) . . .
69(4) . . .
87(5) . . .
76(5) . . .
76(5) . . .
80(5) . . .
79(5) . . .
85(5) . . .
82(5) . . .
74(5) . . .
84(5) . . .
86(5) . . .
88(5) . . .
86(5) . . .
69(4) . . .
81(5) . . .
66(4) . . .
69(5) . . .
67(4) . . .
73(5) . . .
83(5) . . .
78(5) . . .
84(5) . . .
79(5) . . .
66(4) . . .
70(4) . . .
81(5) . . .
73(4) . . .
90(5) . . .
68(4) . . .
77(5) . . .
83(5) . . .
80(5) . . .
83(5) . . .
76(5) . . .
68(4) . . .
78(5) . . .
72(5) . . .
59(4) . . .
68(4) . . .
77(4) . . .
78(5) . . .
74(4) . . .
81(5) . . .
56(4) . . .
76(5) . . .
89(5) . . .
80(5) . . .
71(5) . . .
83(5) . . .
82(5) . . .
72(4) . . .
79(5) . . .
75(5) . . .
68(4) . . .
69(4) . . .
77(5) . . .
70(4) . . .
88(5) . . .
88(5) . . .
80(5) . . .
66(4) . . .
68(4) . . .
82(5) . . .
73(4) . . .
67(4) . . .
70(4) . . .
74(5) . . .
76(5) . . .
76(5) . . .
74(4) . . .
75(5) . . .
64(4) . . .
69(4) . . .
66(4) . . .
82(5) . . .
80(5) . . .
76(5) . . .
65(4) . . .
76(5) . . .
78(5) . . .
75(5) . . .
76(5) . . .
73(5) . . .
82(5) . . .
74(4) . . .
69(4) . . .
74(5) . . .
72(5) . . .
74(4) . . .
69(4) . . .
67(4) . . .
82(5) . . .
79(5) . . .
80(5) . . .
73(4) . . .
81(5) . . .
71(4) . . .
72(4) . . .
81(5) . . .
74(5) . . .
66(4) . . .
78(5) . . .
80(5) . . .
86(5) . . .
78(5) . . .
78(5) . . .
82(5) . . .
78(5) . . .
67(4) . . .
84(5) . . .
69(5) . . .
77(5) . . .
76(5) . . .
70(4) . . .
56(4) . . .
70(5) . . .
74(5) . . .
73(4) . . .
72(4) . . .
77(5) . . .
80(5) . . .
86(5) . . .
66(4) . . .
78(5) . . .
77(5) . . .
78(5) . . .
76(5) . . .
73(4) . . .
63(4) . . .
63(4) . . .
76(5) . . .
76(5) . . .
92(5) . . .
90(5) . . .
76(5) . . .
71(5) . . .
73(4) . . .
76(5) . . .
86(5) . . .
83(5) . . .
85(5) . . .
72(4) . . .
95(5) . . .
79(5) . . .
71(5) . . .
87(5) . . .
82(5) . . .
83(5) . . .
74(5) . . .
73(5) . . .
72(5) . . .
91(5) . . .
77(5) . . .
88(5) . . .
84(5) . . .
82(5) . . .
71(4) . . .
75(5) . . .
66(4) . . .
70(4) . . .
72(4) . . .
76(5) . . .
71(4) . . .
73(5) . . .
79(5) . . .
70(4) . . .
68(4) . . .
73(4) . . .
86(5) . . .
69(5) . . .
79(5) . . .
74(4) . . .
82(5) . . .
72(5) . . .
67(4) . . .
68(5) . . .
67(4) . . .
70(4) . . .
63(4) . . .
85(5) . . .
72(5) . . .
74(4) . . .
76(5) . . .
71(4) . . .
67(5) . . .
76(5) . . .
69(4) . . .
78(5) . . .
74(5) . . .
74(5) . . .
78(5) . . .
64(4) . . .
61(4) . . .
79(5) . . .
76(5) . . .
80(5) . . .
72(4) . . .
79(5) . . .
69(4) . . .
72(4) . . .
78(5) . . .
75(4) . . .
71(4) . . .
67(4) . . .
74(5) . . .
82(5) . . .
75(5) . . .
83(5) . . .
77(5) . . .
82(5) . . .
75(5) . . .
69(4) . . .
75(5) . . .
81(5) . . .
61(4) . . .
75(4) . . .
79(5) . . .
69(4) . . .
67(4) . . .
81(5) . . .
69(4) . . .
84(5) . . .
74(4) . . .
85(5) . . .
76(5) . . .
101(5) . . .
81(5) . . .
72(5) . . .
84(5) . . .
70(5) . . .
68(4) . . .
69(4) . . .
77(5) . . .
74(5) . . .
88(5) . . .
76(5) . . .
70(4) . . .
78(5) . . .
82(5) . . .
70(4) . . .
60(4) . . .
74(5) . . .
74(4) . . .
73(5) . . .
77(5) . . .
69(4) . . .
78(5) . . .
66(4) . . .
64(4) . . .
79(5) . . .
74(4) . . .
74(5) . . .
79(5) . . .
76(5) . . .
77(5) . . .
78(5) . . .
85(5) . . .
71(4) . . .
84(5) . . .
84(5) . . .
75(5) . . .
84(5) . . .
70(5) . . .
54(4) . . .
76(5) . . .
68(4) . . .
69(4) . . .
70(5) . . .
75(4) . . .
71(4) . . .
75(4) . . .
77(5) . . .
69(5) . . .
77(5) . . .
73(4) . . .
72(4) . . .
70(4) . . .
81(5) . . .
68(4) . . .
71(5) . . .
69(4) . . .
73(5) . . .
79(5) . . .
70(4) . . .
83(5) . . .
76(5) . . .
63(4) . . .
84(5) . . .
67(4) . . .
80(5) . . .
71(4) . . .
69(4) . . .
76(5) . . .
82(5) . . .
81(5) . . .
75(4) . . .
70(4) . . .
81(5) . . .
75(5) . . .
69(4) . . .
68(4) . . .
81(5) . . .
79(5) . . .
86(5) . . .
74(4) . . .
75(5) . . .
68(5) . . .
71(5) . . .
63(4) . . .
71(4) . . .
62(4) . . .
70(4) . . .
83(5) . . .
78(5) . . .
77(5) . . .
72(5) . . .
75(5) . . .
74(5) . . .
71(4) . . .
75(4) . . .
81(5) . . .
66(4) . . .
73(5) . . .
73(4) . . .
69(4) . . .
75(5) . . .
75(5) . . .
82(5) . . .
66(4) . . .
69(4) . . .
80(5) . . .
80(5) . . .
79(5) . . .
66(4) . . .
75(5) . . .
77(5) . . .
81(5) . . .
86(5) . . .
76(4) . . .
85(5) . . .
81(5) . . .
70(4) . . .
87(5) . . .
83(5) . . .
80(5) . . .
77(5) . . .
74(5) . . .
82(5) . . .
65(4) . . .
85(5) . . .
77(5) . . .
66(4) . . .
86(5) . . .
85(5) . . .
70(4) . . .
76(5) . . .
71(4) . . .
83(5) . . .
93(5) . . .
69(4) . . .
78(5) . . .
69(4) . . .
67(4) . . .
69(4) . . .
75(5) . . .
80(5) . . .
83(5) . . .
71(4) . . .
75(5) . . .
73(5) . . .
74(5) . . .
64(4) . . .
83(5) . . .
70(4) . . .
67(4) . . .
87(5) . . .
72(5) . . .
79(5) . . .
75(4) . . .
92(5) . . .
84(5) . . .
79(5) . . .
76(5) . . .
75(5) . . .
87(5) . . .
67(4) . . .
80(5) . . .
74(4) . . .
76(5) . . .
73(4) . . .
70(5) . . .
70(5) . . .
81(5) . . .
81(5) . . .
73(5) . . .
69(5) . . .
76(5) . . .
80(5) . . .
70(4) . . .
62(4) . . .
78(5) . . .
72(4) . . .
68(4) . . .
75(5) . . .
83(5) . . .
82(5) . . .
78(5) . . .
68(4) . . .
70(5) . . .
72(5) . . .
72(5) . . .
88(5) . . .
70(4) . . .
78(5) . . .
78(5) . . .
75(5) . . .
71(4) . . .
77(5) . . .
66(5) . . .
67(5) . . .
71(4) . . .
74(4) . . .
84(5) . . .
91(5) . . .
80(5) . . .
63(4) . . .
76(5) . . .
66(4) . . .
75(5) . . .
76(5) . . .
66(4) . . .
68(4) . . .
81(5) . . .
60(4) . . .
65(5) . . .
79(5) . . .
69(4) . . .
72(4) . . .
72(4) . . .
79(5) . . .
76(5) . . .
72(4) . . .
82(5) . . .
77(5) . . .
65(4) . . .
83(5) . . .
78(5) . . .
72(4) . . .
64(4) . . .
77(5) . . .
75(5) . . .
71(4) . . .
72(5) . . .
73(5) . . .
71(5) . . .
76(5) . . .
67(4) . . .
70(5) . . .
81(5) . . .
83(5) . . .
65(4) . . .
78(5) . . .
82(5) . . .
80(5) . . .
84(5) . . .
69(4) . . .
73(5) . . .
68(4) . . .
69(4) . . .
69(4) . . .
80(5) . . .
75(5) . . .
78(5) . . .
66(4) . . .
71(5) . . .
83(5) . . .
70(4) . . .
69(4) . . .
73(5) . . .
71(5) . . .
69(4) . . .
70(4) . . .
80(5) . . .
63(4) . . .
64(4) . . .
75(5) . . .
80(5) . . .
73(5) . . .
72(5) . . .
74(5) . . .
68(4) . . .
87(5) . . .
82(5) . . .
72(5) . . .
60(4) . . .
84(5) . . .
72(5) . . .
79(5) . . .
77(5) . . .
78(5) . . .
86(5) . . .
66(4) . . .
84(5) . . .
69(4) . . .
71(4) . . .
79(5) . . .
76(5) . . .
73(5) . . .
73(5) . . .
72(4) . . .
81(5) . . .
77(5) . . .
71(5) . . .
70(5) . . .
66(4) . . .
80(5) . . .
73(5) . . .
84(5) . . .
69(4) . . .
81(5) . . .
74(4) . . .
62(4) . . .
78(5) . . .
74(5) . . .
71(4) . . .
70(4) . . .
66(4) . . .
61(4) . . .
81(5) . . .
75(4) . . .
74(4) . . .
67(4) . . .
66(4) . . .
68(4) . . .
71(4) . . .
65(4) . . .
79(5) . . .
67(5) . . .
70(5) . . .
76(4) . . .
74(4) . . .
61(4) . . .
65(4) . . .
82(5) . . .
79(5) . . .
82(5) . . .
77(5) . . .
76(5) . . .
71(4) . . .
72(4) . . .
67(4) . . .
72(5) . . .
71(5) . . .
74(5) . . .
82(5) . . .
78(5) . . .
74(5) . . .
72(5) . . .
74(5) . . .
63(4) . . .
71(5) . . .
69(5) . . .
72(5) . . .
66(4) . . .
71(4) . . .
78(5) . . .
96(5) . . .
77(5) . . .
71(4) . . .
85(5) . . .
72(4) . . .
70(4) . . .
73(5) . . .
77(5) . . .
67(4) . . .
79(5) . . .
71(5) . . .
83(5) . . .
86(5) . . .
77(5) . . .
66(4) . . .
63(5) . . .
75(5) . . .
68(4) . . .
74(5) . . .
78(5) . . .
71(5) . . .
70(5) . . .
70(4) . . .
67(4) . . .
66(4) . . .
75(5) . . .
70(5) . . .
80(5) . . .
76(5) . . .
76(5) . . .
78(5) . . .
77(5) . . .
75(5) . . .
70(4) . . .
93(5) . . .
67(5) . . .
72(5) . . .
75(4) . . .
79(5) . . .
74(5) . . .
71(5) . . .
80(5) . . .
72(4) . . .
69(4) . . .
80(5) . . .
79(5) . . .
58(4) . . .
76(5) . . .
71(4) . . .
70(5) . . .
75(5) . . .
78(5) . . .
81(5) . . .
76(5) . . .
59(4) . . .
73(5) . . .
86(5) . . .
78(5) . . .
69(4) . . .
75(5) . . .
65(4) . . .
70(4) . . .
68(4) . . .
70(5) . . .
73(5) . . .
68(4) . . .
92(5) . . .
67(4) . . .
65(4) . . .
76(5) . . .
76(5) . . .
84(5) . . .
70(4) . . .
72(5) . . .
68(5) . . .
77(5) . . .
71(4) . . .
75(5) . . .
66(5) . . .
74(5) . . .
77(5) . . .
74(4) . . .
70(4) . . .
71(4) . . .
70(5) . . .
68(4) . . .
63(4) . . .
73(4) . . .
65(4) . . .
75(5) . . .
75(5) . . .
74(5) . . .
68(4) . . .
69(5) . . .
79(5) . . .
72(4) . . .
66(4) . . .
61(4) . . .
62(4) . . .
70(5) . . .
65(4) . . .
69(4) . . .
69(5) . . .
67(4) . . .
73(5) . . .
75(4) . . .
82(5) . . .
68(4) . . .
70(5) . . .
61(4) . . .
73(5) . . .
75(4) . . .
70(4) . . .
76(5) . . .
76(5) . . .
79(5) . . .
80(5) . . .
65(5) . . .
71(5) . . .
74(5) . . .
73(4) . . .
69(4) . . .
78(5) . . .
82(5) . . .
64(4) . . .
74(4) . . .
71(4) . . .
68(4) . . .
62(4) . . .
77(5) . . .
72(4) . . .
68(4) . . .
74(5) . . .
71(5) . . .
67(5) . . .
67(4) . . .
74(4) . . .
82(5) . . .
67(4) . . .
82(5) . . .
80(5) . . .
84(5) . . .
82(5) . . .
68(4) . . .
73(5) . . .
73(4) . . .
65(5) . . .
78(5) . . .
79(5) . . .
59(4) . . .
75(5) . . .
79(5) . . .
70(5) . . .
71(4) . . .
78(5) . . .
76(4) . . .
80(5) . . .
80(5) . . .
72(5) . . .
69(4) . . .
81(5) . . .
74(5) . . .
82(5) . . .
78(5) . . .
75(4) . . .
82(5) . . .
78(5) . . .
75(5) . . .
76(5) . . .
81(5) . . .
80(5) . . .
75(5) . . .
87(5) . . .
80(5) . . .
70(4) . . .
75(4) . . .
81(5) . . .
70(5) . . .
66(4) . . .
74(5) . . .
62(4) . . .
73(5) . . .
68(4) . . .
80(5) . . .
68(4) . . .
70(4) . . .
58(4) . . .
84(5) . . .
74(5) . . .
74(4) . . .
75(5) . . .
72(5) . . .
72(5) . . .
71(5) . . .
80(5) . . .
60(4) . . .
88(5) . . .
76(5) . . .
80(5) . . .
58(4) . . .
75(5) . . .
74(5) . . .
70(4) . . .
72(5) . . .
72(4) . . .
77(5) . . .
81(5) . . .
73(5) . . .
68(4) . . .
79(5) . . .
77(5) . . .
76(5) . . .
70(5) . . .
71(4) . . .
63(4) . . .
70(5) . . .
74(5) . . .
66(4) . . .
71(4) . . .
67(4) . . .
76(5) . . .
73(5) . . .
76(5) . . .
69(4) . . .
73(4) . . .
74(5) . . .
65(4) . . .
76(5) . . .
69(4) . . .
72(4) . . .
75(5) . . .
86(5) . . .
84(5) . . .
73(4) . . .
62(4) . . .
74(5) . . .
73(5) . . .
65(4) . . .
83(5) . . .
74(5) . . .
74(5) . . .
81(5) . . .
76(5) . . .
69(4) . . .
58(4) . . .
71(4) . . .
76(5) . . .
60(4) . . .
65(4) . . .
77(5) . . .
71(4) . . .
85(5) . . .
77(5) . . .
83(5) . . .
66(4) . . .
88(5) . . .
84(5) . . .
75(5) . . .
75(5) . . .
77(5) . . .
67(5) . . .
67(4) . . .
60(4) . . .
77(5) . . .
63(4) . . .
70(5) . . .
69(4) . . .
67(4) . . .
72(4) . . .
74(5) . . .
66(5) . . .
63(4) . . .
78(5) . . .
66(4) . . .
59(4) . . .
69(4) . . .
72(4) . . .
68(4) . . .
71(4) . . .
72(5) . . .
66(4) . . .
75(5) . . .
63(4) . . .
74(5) . . .
68(4) . . .
79(5) . . .
81(5) . . .
73(4) . . .
75(5) . . .
70(5) . . .
73(5) . . .
84(5) . . .
76(5) . . .
70(4) . . .
88(5) . . .
76(5) . . .
69(4) . . .
63(4) . . .
64(4) . . .
88(5) . . .
75(5) . . .
77(5) . . .
86(5) . . .
79(5) . . .
68(4) . . .
82(5) . . .
66(4) . . .
75(5) . . .
69(4) . . .
66(5) . . .
77(5) . . .
68(4) . . .
65(4) . . .
65(4) . . .
56(4) . . .
68(5) . . .
61(4) . . .
60(4) . . .
72(5) . . .
57(4) . . .
73(5) . . .
76(5) . . .
70(4) . . .
65(4) . . .
64(4) . . .
73(5) . . .
78(5) . . .
73(4) . . .
70(4) . . .
81(5) . . .
62(4) . . .
72(4) . . .
69(4) . . .
65(4) . . .
81(5) . . .
76(5) . . .
73(4) . . .
64(4) . . .
64(5) . . .
67(4) . . .
79(5) . . .
74(4) . . .
78(5) . . .
72(5) . . .
63(4) . . .
78(5) . . .
70(4) . . .
72(5) . . .
61(4) . . .
70(5) . . .
67(4) . . .
65(4) . . .
69(5) . . .
82(5) . . .
81(5) . . .
72(5) . . .
76(5) . . .
78(5) . . .
64(4) . . .
71(5) . . .
60(4) . . .
72(4) . . .
74(5) . . .
76(5) . . .
64(4) . . .
88(5) . . .
69(4) . . .
82(5) . . .
82(5) . . .
71(4) . . .
68(4) . . .
58(4) . . .
63(4) . . .
81(5) . . .
84(5) . . .
79(5) . . .
84(5) . . .
70(4) . . .
60(4) . . .
66(4) . . .
72(4) . . .
79(5) . . .
73(5) . . .
68(4) . . .
69(4) . . .
66(4) . . .
66(4) . . .
61(4) . . .
68(4) . . .
71(4) . . .
57(4) . . .
76(5) . . .
67(4) . . .
74(5) . . .
71(4) . . .
67(4) . . .
74(5) . . .
72(4) . . .
72(5) . . .
72(5) . . .
64(4) . . .
76(5) . . .
71(5) . . .
68(4) . . .
67(4) . . .
74(4) . . .
81(5) . . .
62(4) . . .
75(5) . . .
67(4) . . .
64(4) . . .
69(4) . . .
66(4) . . .
68(4) . . .
64(4) . . .
71(4) . . .
67(5) . . .
63(5) . . .
74(5) . . .
78(5) . . .
71(4) . . .
64(4) . . .
69(5) . . .
71(4) . . .
72(4) . . .
69(4) . . .
73(5) . . .
60(4) . . .
88(5) . . .
75(5) . . .
55(4) . . .
82(5) . . .
72(5) . . .
71(4) . . .
74(4) . . .
59(4) . . .
68(4) . . .
68(4) . . .
76(5) . . .
79(5) . . .
67(4) . . .
71(5) . . .
70(4) . . .
80(5) . . .
77(5) . . .
67(4) . . .
69(5) . . .
72(5) . . .
79(5) . . .
78(5) . . .
78(5) . . .
60(4) . . .
75(5) . . .
72(4) . . .
62(4) . . .
62(4) . . .
66(4) . . .
66(5) . . .
60(4) . . .
63(4) . . .
63(4) . . .
66(4) . . .
67(4) . . .
71(4) . . .
70(4) . . .
74(5) . . .
73(5) . . .
67(4) . . .
67(4) . . .
70(4) . . .
79(5) . . .
79(5) . . .
76(5) . . .
71(4) . . .
84(5) . . .
67(5) . . .
72(5) . . .
69(4) . . .
82(5) . . .
77(5) . . .
74(5) . . .
56(4) . . .
66(4) . . .
74(5) . . .
71(4) . . .
78(5) . . .
80(5) . . .
75(5) . . .
89(5) . . .
79(5) . . .
71(5) . . .
77(5) . . .
78(5) . . .
81(5) . . .
86(5) . . .
77(5) . . .
68(5) . . .
70(4) . . .
66(4) . . .
70(4) . . .
72(5) . . .
74(5) . . .
62(4) . . .
72(4) . . .
73(5) . . .
66(4) . . .
77(5) . . .
74(4) . . .
71(4) . . .
65(4) . . .
64(4) . . .
77(5) . . .
73(5) . . .
76(5) . . .
64(4) . . .
74(5) . . .
76(5) . . .
85(5) . . .
72(4) . . .
68(4) . . .
72(5) . . .
72(5) . . .
91(5) . . .
79(5) . . .
85(5) . . .
62(4) . . .
70(4) . . .
74(4) . . .
75(5) . . .
66(4) . . .
63(4) . . .
78(5) . . .
86(5) . . .
73(5) . . .
67(4) . . .
76(5) . . .
71(4) . . .
69(4) . . .
76(5) . . .
76(5) . . .
83(5) . . .
68(4) . . .
67(4) . . .
71(4) . . .
77(5) . . .
75(5) . . .
85(5) . . .
69(4) . . .
79(5) . . .
72(5) . . .
72(5) . . .
75(5) . . .
71(4) . . .
74(4) . . .
77(5) . . .
70(4) . . .
72(4) . . .
77(5) . . .
79(5) . . .
84(5) . . .
85(5) . . .
65(4) . . .
88(5) . . .
91(5) . . .
65(4) . . .
73(5) . . .
80(5) . . .
72(4) . . .
77(5) . . .
97(6) . . .
76(5) . . .
69(4) . . .
77(5) . . .
78(5) . . .
69(5) . . .
60(4) . . .
65(4) . . .
84(5) . . .
71(4) . . .
84(5) . . .
84(5) . . .
82(5) . . .
78(5) . . .
87(5) . . .
84(5) . . .
78(5) . . .
71(4) . . .
65(4) . . .
76(5) . . .
75(5) . . .
72(4) . . .
62(4) . . .
66(4) . . .
79(5) . . .
71(4) . . .
65(4) . . .
67(4) . . .
68(4) . . .
78(5) . . .
68(4) . . .
80(5) . . .
72(4) . . .
75(5) . . .
86(5) . . .
79(5) . . .
75(5) . . .
64(4) . . .
65(4) . . .
84(5) . . .
83(5) . . .
76(5) . . .
68(4) . . .
74(5) . . .
79(5) . . .
81(5) . . .
79(5) . . .
76(4) . . .
76(5) . . .
74(5) . . .
72(5) . . .
74(4) . . .
75(5) . . .
64(4) . . .
69(5) . . .
69(4) . . .
76(5) . . .
69(4) . . .
82(5) . . .
78(5) . . .
68(4) . . .
72(4) . . .
68(4) . . .
62(4) . . .
69(5) . . .
76(5) . . .
76(5) . . .
64(4) . . .
80(5) . . .
70(4) . . .
71(5) . . .
69(4) . . .
63(4) . . .
69(5) . . .
72(5) . . .
76(5) . . .
71(4) . . .
74(5) . . .
75(5) . . .
68(5) . . .
70(4) . . .
69(4) . . .
67(4) . . .
60(4) . . .
64(4) . . .
71(4) . . .
73(4) . . .
75(5) . . .
73(5) . . .
74(5) . . .
73(4) . . .
76(5) . . .
67(4) . . .
72(5) . . .
78(5) . . .
77(5) . . .
74(5) . . .
67(4) . . .
69(5) . . .
74(5) . . .
71(5) . . .
70(4) . . .
71(5) . . .
78(5) . . .
78(5) . . .
74(4) . . .
69(4) . . .
67(4) . . .
63(4) . . .
73(5) . . .
79(5) . . .
68(4) . . .
70(5) . . .
69(5) . . .
75(5) . . .
82(5) . . .
80(5) . . .
67(5) . . .
74(5) . . .
76(5) . . .
74(4) . . .
76(5) . . .
63(4) . . .
72(5) . . .
75(5) . . .
81(5) . . .
70(5) . . .
65(4) . . .
69(4) . . .
75(5) . . .
72(4) . . .
83(5) . . .
76(5) . . .
66(4) . . .
65(4) . . .
77(5) . . .
79(5) . . .
75(5) . . .
70(5) . . .
72(5) . . .
68(4) . . .
69(4) . . .
75(5) . . .
67(4) . . .
74(4) . . .
74(4) . . .
64(4) . . .
74(5) . . .
71(4) . . .
75(5) . . .
68(4) . . .
79(5) . . .
76(5) . . .
76(5) . . .
68(4) . . .
75(4) . . .
65(4) . . .
81(5) . . .
80(5) . . .
73(4) . . .
75(4) . . .
79(5) . . .
80(5) . . .
78(5) . . .
70(4) . . .
75(5) . . .
69(4) . . .
67(4) . . .
72(5) . . .
86(5) . . .
67(4) . . .
68(4) . . .
71(5) . . .
68(5) . . .
61(4) . . .
68(4) . . .
74(5) . . .
77(5) . . .
82(5) . . .
59(4) . . .
64(4) . . .
66(4) . . .
68(5) . . .
59(4) . . .
62(4) . . .
69(5) . . .
67(5) . . .
75(5) . . .
64(4) . . .
70(4) . . .
64(4) . . .
62(4) . . .
67(4) . . .
66(4) . . .
77(5) . . .
73(5) . . .
70(5) . . .
60(4) . . .
71(5) . . .
65(4) . . .
71(5) . . .
70(5) . . .
63(4) . . .
80(5) . . .
73(4) . . .
79(5) . . .
72(5) . . .
63(4) . . .
69(4) . . .
68(4) . . .
76(5) . . .
72(5) . . .
66(4) . . .
79(5) . . .
81(5) . . .
75(5) . . .
73(5) . . .
82(5) . . .
83(5) . . .
71(4) . . .
62(4) . . .
71(5) . . .
69(5) . . .
65(4) . . .
72(5) . . .
62(4) . . .
71(5) . . .
65(5) . . .
73(4) . . .
74(5) . . .
75(5) . . .
70(5) . . .
65(4) . . .
69(4) . . .
64(4) . . .
72(5) . . .
72(5) . . .
77(5) . . .
69(4) . . .
71(4) . . .
80(5) . . .
75(5) . . .
69(4) . . .
83(5) . . .
74(5) . . .
57(4) . . .
84(5) . . .
69(4) . . .
79(5) . . .
59(4) . . .
62(5) . . .
63(4) . . .
77(5) . . .
81(5) . . .
67(4) . . .
71(5) . . .
71(5) . . .
73(4) . . .
74(4) . . .
71(4) . . .
82(5) . . .
68(4) . . .
74(4) . . .
75(4) . . .
85(5) . . .
70(4) . . .
66(4) . . .
77(5) . . .
75(5) . . .
69(4) . . .
65(4) . . .
76(5) . . .
70(4) . . .
81(5) . . .
76(5) . . .
74(5) . . .
72(5) . . .
68(4) . . .
81(5) . . .
79(5) . . .
72(5) . . .
68(4) . . .
73(4) . . .
74(5) . . .
67(4) . . .
73(5) . . .
69(4) . . .
73(4) . . .
66(4) . . .
63(4) . . .
67(4) . . .
76(5) . . .
65(4) . . .
86(5) . . .
75(5) . . .
79(5) . . .
66(4) . . .
70(4) . . .
72(5) . . .
77(5) . . .
67(4) . . .
57(4) . . .
74(4) . . .
64(4) . . .
76(5) . . .
74(5) . . .
80(5) . . .
69(4) . . .
72(4) . . .
85(5) . . .
75(5) . . .
76(5) . . .
73(4) . . .
70(5) . . .
69(5) . . .
65(4) . . .
64(4) . . .
69(4) . . .
72(5) . . .
62(4) . . .
70(5) . . .
71(4) . . .
62(4) . . .
64(4) . . .
63(4) . . .
58(4) . . .
71(4) . . .
75(5) . . .
71(5) . . .
56(4) . . .
83(5) . . .
69(4) . . .
64(4) . . .
65(4) . . .
71(5) . . .
61(4) . . .
70(4) . . .
75(4) . . .
74(5) . . .
65(4) . . .
70(5) . . .
68(4) . . .
70(4) . . .
73(5) . . .
71(5) . . .
69(4) . . .
72(4) . . .
76(5) . . .
76(5) . . .
75(5) . . .
79(5) . . .
74(4) . . .
76(5) . . .
64(4) . . .
63(4) . . .
68(4) . . .
67(4) . . .
74(5) . . .
73(5) . . .
80(5) . . .
64(4) . . .
65(4) . . .
67(5) . . .
65(4) . . .
76(5) . . .
72(4) . . .
66(4) . . .
72(5) . . .
67(5) . . .
69(5) . . .
79(5) . . .
66(4) . . .
60(4) . . .
70(5) . . .
72(5) . . .
69(4) . . .
62(4) . . .
62(4) . . .
71(5) . . .
73(5) . . .
63(4) . . .
60(4) . . .
72(5) . . .
63(4) . . .
67(4) . . .
59(4) . . .
65(4) . . .
66(4) . . .
65(4) . . .
68(4) . . .
63(4) . . .
57(4) . . .
60(4) . . .
68(4) . . .
70(4) . . .
77(5) . . .
62(4) . . .
69(5) . . .
73(5) . . .
73(4) . . .
70(4) . . .
81(5) . . .
73(5) . . .
68(4) . . .
67(4) . . .
76(4) . . .
67(4) . . .
67(4) . . .
68(5) . . .
66(4) . . .
61(4) . . .
63(4) . . .
71(5) . . .
75(5) . . .
61(4) . . .
68(4) . . .
62(4) . . .
67(5) . . .
74(5) . . .
76(5) . . .
71(4) . . .
66(4) . . .
62(4) . . .
68(5) . . .
68(4) . . .
62(4) . . .
74(5) . . .
64(4) . . .
72(4) . . .
68(4) . . .
76(5) . . .
71(5) . . .
77(5) . . .
65(4) . . .
66(4) . . .
76(5) . . .
66(4) . . .
59(4) . . .
59(4) . . .
73(4) . . .
75(5) . . .
71(5) . . .
72(5) . . .
66(4) . . .
72(4) . . .
76(5) . . .
73(5) . . .
74(5) . . .
68(4) . . .
59(4) . . .
69(4) . . .
68(5) . . .
70(5) . . .
69(4) . . .
61(4) . . .
68(4) . . .
66(5) . . .
72(5) . . .
69(4) . . .
72(4) . . .
62(4) . . .
67(4) . . .
79(5) . . .
66(4) . . .
84(5) . . .
76(5) . . .
71(5) . . .
62(4) . . .
69(4) . . .
80(5) . . .
68(4) . . .
67(5) . . .
61(4) . . .
75(4) . . .
64(4) . . .
77(5) . . .
55(4) . . .
67(4) . . .
61(4) . . .
66(4) . . .
64(4) . . .
66(4) . . .
79(5) . . .
64(4) . . .
69(5) . . .
74(5) . . .
64(4) . . .
82(5) . . .
70(4) . . .
71(5) . . .
67(5) . . .
68(4) . . .
77(5) . . .
67(4) . . .
68(4) . . .
63(4) . . .
64(4) . . .
71(4) . . .
73(4) . . .
67(4) . . .
67(5) . . .
61(4) . . .
66(4) . . .
65(4) . . .
78(5) . . .
63(4) . . .
55(4) . . .
67(4) . . .
70(4) . . .
78(5) . . .
74(5) . . .
69(4) . . .
67(4) . . .
71(4) . . .
70(5) . . .
65(5) . . .
63(4) . . .
66(4) . . .
60(4) . . .
63(4) . . .
77(5) . . .
70(5) . . .
70(4) . . .
67(4) . . .
76(5) . . .
64(4) . . .
50(4) . . .
64(4) . . .
72(5) . . .
75(5) . . .
70(5) . . .
70(4) . . .
66(4) . . .
63(4) . . .
76(5) . . .
62(4) . . .
67(5) . . .
59(4) . . .
69(4) . . .
71(5) . . .
69(5) . . .
55(4) . . .
68(4) . . .
72(4) . . .
65(4) . . .
71(5) . . .
70(4) . . .
68(4) . . .
61(4) . . .
75(5) . . .
69(4) . . .
54(4) . . .
74(5) . . .
65(4) . . .
61(4) . . .
79(5) . . .
73(4) . . .
72(4) . . .
67(4) . . .
68(5) . . .
63(4) . . .
79(5) . . .
59(4) . . .
73(5) . . .
65(4) . . .
73(4) . . .
71(5) . . .
65(4) . . .
77(5) . . .
75(4) . . .
60(4) . . .
63(4) . . .
68(4) . . .
61(4) . . .
75(4) . . .
70(5) . . .
54(4) . . .
67(5) . . .
81(5) . . .
77(5) . . .
73(5) . . .
64(4) . . .
69(5) . . .
70(4) . . .
77(5) . . .
70(5) . . .
64(4) . . .
78(5) . . .
69(4) . . .
76(5) . . .
70(5) . . .
69(5) . . .
67(5) . . .
70(4) . . .
79(5) . . .
64(4) . . .
63(5) . . .
66(4) . . .
71(4) . . .
74(4) . . .
72(5) . . .
62(4) . . .
69(5) . . .
71(4) . . .
79(5) . . .
71(4) . . .
68(4) . . .
74(5) . . .
66(4) . . .
78(5) . . .
81(5) . . .
68(5) . . .
64(4) . . .
72(4) . . .
68(4) . . .
61(4) . . .
70(5) . . .
68(4) . . .
70(4) . . .
78(5) . . .
73(5) . . .
75(5) . . .
73(5) . . .
75(4) . . .
74(4) . . .
72(4) . . .
72(5) . . .
64(4) . . .
70(4) . . .
78(5) . . .
75(5) . . .
63(4) . . .
72(5) . . .
70(4) . . .
63(4) . . .
57(4) . . .
72(5) . . .
69(4) . . .
72(4) . . .
74(5) . . .
70(5) . . .
66(4) . . .
71(4) . . .
82(5) . . .
73(4) . . .
73(5) . . .
68(4) . . .
64(4) . . .
74(5) . . .
66(4) . . .
65(5) . . .
68(4) . . .
65(4) . . .
74(4) . . .
70(4) . . .
62(4) . . .
75(5) . . .
71(4) . . .
62(4) . . .
66(4) . . .
55(4) . . .
63(4) . . .
80(5) . . .
70(4) . . .
77(5) . . .
63(4) . . .
70(4) . . .
73(4) . . .
68(4) . . .
60(4) . . .
66(4) . . .
73(5) . . .
75(5) . . .
72(4) . . .
72(5) . . .
64(4) . . .
72(5) . . .
62(4) . . .
71(5) . . .
77(5) . . .
77(5) . . .
68(4) . . .
73(4) . . .
65(4) . . .
59(4) . . .
57(4) . . .
57(4) . . .
70(4) . . .
62(4) . . .
70(5) . . .
69(4) . . .
77(5) . . .
67(4) . . .
67(4) . . .
68(5) . . .
56(4) . . .
66(4) . . .
72(4) . . .
62(4) . . .
61(4) . . .
64(4) . . .
78(5) . . .
65(4) . . .
71(5) . . .
68(5) . . .
56(4) . . .
62(4) . . .
66(4) . . .
56(4) . . .
60(4) . . .
63(4) . . .
62(4) . . .
70(4) . . .
71(5) . . .
69(5) . . .
71(5) . . .
74(5) . . .
66(4) . . .
61(4) . . .
59(4) . . .
78(5) . . .
74(4) . . .
74(5) . . .
77(5) . . .
68(5) . . .
69(5) . . .
62(4) . . .
54(4) . . .
66(4) . . .
72(5) . . .
62(4) . . .
61(4) . . .
66(4) . . .
73(5) . . .
79(5) . . .
67(4) . . .
68(4) . . .
68(4) . . .
74(5) . . .
65(4) . . .
67(4) . . .
64(4) . . .
69(4) . . .
66(4) . . .
74(5) . . .
74(4) . . .
57(4) . . .
60(4) . . .
76(5) . . .
74(5) . . .
68(4) . . .
65(4) . . .
65(4) . . .
72(5) . . .
69(4) . . .
67(4) . . .
57(4) . . .
70(5) . . .
67(5) . . .
60(4) . . .
68(4) . . .
63(4) . . .
70(5) . . .
54(4) . . .
60(4) . . .
58(4) . . .
67(4) . . .
66(4) . . .
75(5) . . .
59(4) . . .
54(4) . . .
74(5) . . .
70(5) . . .
68(5) . . .
65(4) . . .
59(4) . . .
71(4) . . .
63(4) . . .
71(5) . . .
69(5) . . .
86(5) . . .
70(5) . . .
74(5) . . .
73(5) . . .
67(4) . . .
66(4) . . .
59(4) . . .
68(4) . . .
85(5) . . .
60(4) . . .
63(4) . . .
74(5) . . .
63(4) . . .
73(4) . . .
86(5) . . .
78(5) . . .
69(5) . . .
72(5) . . .
67(4) . . .
61(4) . . .
70(4) . . .
73(4) . . .
74(5) . . .
68(4) . . .
61(4) . . .
69(4) . . .
75(5) . . .
59(4) . . .
57(4) . . .
67(4) . . .
71(4) . . .
69(5) . . .
71(5) . . .
77(5) . . .
64(4) . . .
75(5) . . .
81(5) . . .
64(4) . . .
82(5) . . .
75(4) . . .
80(5) . . .
72(4) . . .
77(5) . . .
65(5) . . .
72(4) . . .
69(4) . . .
65(4) . . .
59(4) . . .
62(4) . . .
75(5) . . .
65(4) . . .
63(4) . . .
64(4) . . .
60(4) . . .
66(4) . . .
60(4) . . .
67(4) . . .
70(5) . . .
70(4) . . .
64(4) . . .
69(5) . . .
59(4) . . .
72(4) . . .
72(4) . . .
73(4) . . .
61(4) . . .
78(5) . . .
77(5) . . .
71(4) . . .
68(4) . . .
67(5) . . .
63(4) . . .
70(4) . . .
60(4) . . .
63(4) . . .
65(4) . . .
66(5) . . .
67(4) . . .
63(4) . . .
63(4) . . .
55(4) . . .
57(4) . . .
59(4) . . .
62(4) . . .
62(4) . . .
76(5) . . .
70(4) . . .
67(4) . . .
63(4) . . .
59(4) . . .
76(5) . . .
73(5) . . .
77(5) . . .
72(4) . . .
76(5) . . .
72(5) . . .
71(5) . . .
67(4) . . .
56(4) . . .
69(5) . . .
75(5) . . .
60(4) . . .
69(5) . . .
61(4) . . .
64(4) . . .
63(5) . . .
66(5) . . .
59(4) . . .
73(4) . . .
68(5) . . .
69(5) . . .
70(5) . . .
64(4) . . .
63(4) . . .
64(4) . . .
67(5) . . .
58(4) . . .
70(4) . . .
69(4) . . .
81(5) . . .
76(5) . . .
72(5) . . .
65(4) . . .
64(4) . . .
75(5) . . .
78(5) . . .
71(5) . . .
70(4) . . .
71(5) . . .
57(4) . . .
66(5) . . .
70(4) . . .
69(4) . . .
82(5) . . .
73(5) . . .
77(5) . . .
68(4) . . .
78(5) . . .
70(4) . . .
63(4) . . .
72(5) . . .
74(5) . . .
72(4) . . .
66(4) . . .
70(4) . . .
59(4) . . .
65(4) . . .
78(5) . . .
66(4) . . .
64(4) . . .
77(5) . . .
61(4) . . .
61(4) . . .
69(4) . . .
69(5) . . .
66(4) . . .
65(4) . . .
75(5) . . .
65(4) . . .
62(4) . . .
74(5) . . .
64(4) . . .
71(4) . . .
58(4) . . .
65(4) . . .
70(5) . . .
65(4) . . .
63(4) . . .
68(5) . . .
70(5) . . .
71(5) . . .
62(4) . . .
64(4) . . .
72(5) . . .
70(5) . . .
79(5) . . .
78(5) . . .
71(4) . . .
59(4) . . .
73(5) . . .
72(5) . . .
68(4) . . .
70(4) . . .
68(4) . . .
73(5) . . .
83(5) . . .
69(4) . . .
63(4) . . .
65(4) . . .
70(5) . . .
71(5) . . .
59(4) . . .
76(5) . . .
75(5) . . .
78(5) . . .
64(4) . . .
75(5) . . .
66(4) . . .
75(5) . . .
72(4) . . .
70(4) . . .
70(4) . . .
70(4) . . .
74(5) . . .
69(4) . . .
54(4) . . .
75(5) . . .
71(5) . . .
74(5) . . .
59(4) . . .
71(4) . . .
71(4) . . .
70(5) . . .
58(4) . . .
70(5) . . .
81(5) . . .
69(4) . . .
64(4) . . .
76(5) . . .
67(4) . . .
67(4) . . .
69(4) . . .
64(4) . . .
74(5) . . .
63(4) . . .
69(4) . . .
71(4) . . .
69(4) . . .
65(4) . . .
77(5) . . .
56(4) . . .
67(4) . . .
71(5) . . .
68(5) . . .
65(4) . . .
68(4) . . .
63(4) . . .
73(5) . . .
76(5) . . .
67(4) . . .
64(4) . . .
60(4) . . .
73(5) . . .
80(5) . . .
72(4) . . .
61(4) . . .
71(5) . . .
73(5) . . .
82(5) . . .
68(4) . . .
70(4) . . .
70(4) . . .
77(5) . . .
74(5) . . .
68(5) . . .
69(4) . . .
71(5) . . .
65(4) . . .
75(5) . . .
67(4) . . .
64(4) . . .
55(4) . . .
66(4) . . .
64(4) . . .
75(5) . . .
66(4) . . .
70(4) . . .
70(5) . . .
69(4) . . .
70(4) . . .
69(4) . . .
70(5) . . .
62(4) . . .
78(5) . . .
68(4) . . .
64(4) . . .
67(4) . . .
74(5) . . .
72(5) . . .
69(4) . . .
61(4) . . .
69(4) . . .
63(4) . . .
77(5) . . .
63(4) . . .
63(4) . . .
62(4) . . .
65(4) . . .
68(4) . . .
66(4) . . .
72(4) . . .
75(5) . . .
66(5) . . .
70(4) . . .
83(5) . . .
62(4) . . .
72(5) . . .
62(4) . . .
74(5) . . .
77(5) . . .
69(5) . . .
68(4) . . .
72(5) . . .
54(4) . . .
62(4) . . .
67(4) . . .
59(4) . . .
54(4) . . .
68(4) . . .
68(4) . . .
63(4) . . .
72(5) . . .
74(5) . . .
76(5) . . .
62(4) . . .
66(4) . . .
67(4) . . .
68(5) . . .
71(4) . . .
72(4) . . .
63(4) . . .
61(4) . . .
67(4) . . .
75(4) . . .
66(4) . . .
76(5) . . .
63(5) . . .
64(4) . . .
65(4) . . .
65(4) . . .
58(4) . . .
68(5) . . .
65(4) . . .
67(4) . . .
67(4) . . .
61(4) . . .
63(4) . . .
62(4) . . .
64(4) . . .
66(4) . . .
54(4) . . .
56(4) . . .
69(5) . . .
69(4) . . .
70(4) . . .
66(4) . . .
74(5) . . .
64(4) . . .
61(4) . . .
64(4) . . .
70(5) . . .
62(4) . . .
61(4) . . .
73(4) . . .
67(5) . . .
66(4) . . .
65(4) . . .
68(4) . . .
55(4) . . .
76(5) . . .
73(5) . . .
73(5) . . .
69(4) . . .
62(4) . . .
74(5) . . .
80(5) . . .
67(5) . . .
61(4) . . .
54(4) . . .
60(4) . . .
61(4) . . .
67(4) . . .
73(5) . . .
65(4) . . .
69(4) . . .
61(4) . . .
69(4) . . .
69(4) . . .
69(4) . . .
75(5) . . .
72(5) . . .
69(5) . . .
64(4) . . .
59(4) . . .
73(5) . . .
73(5) . . .
70(4) . . .
61(4) . . .
64(4) . . .
63(4) . . .
64(4) . . .
70(5) . . .
69(4) . . .
76(5) . . .
68(5) . . .
70(5) . . .
63(4) . . .
65(4) . . .
69(4) . . .
65(4) . . .
66(4) . . .
63(4) . . .
65(4) . . .
67(4) . . .
69(5) . . .
72(5) . . .
76(5) . . .
71(4) . . .
62(4) . . .
65(4) . . .
60(4) . . .
70(4) . . .
56(4) . . .
63(4) . . .
62(4) . . .
76(5) . . .
74(5) . . .
65(4) . . .
78(5) . . .
63(4) . . .
74(5) . . .
65(4) . . .
64(4) . . .
67(4) . . .
69(5) . . .
60(4) . . .
79(5) . . .
70(4) . . .
63(4) . . .
67(4) . . .
69(4) . . .
68(4) . . .
63(4) . . .
67(4) . . .
70(5) . . .
65(5) . . .
70(4) . . .
66(4) . . .
69(4) . . .
69(5) . . .
65(4) . . .
67(4) . . .
69(4) . . .
75(5) . . .
69(5) . . .
59(4) . . .
66(4) . . .
72(4) . . .
76(5) . . .
57(4) . . .
79(5) . . .
68(4) . . .
60(4) . . .
65(4) . . .
69(4) . . .
65(4) . . .
62(4) . . .
65(4) . . .
77(5) . . .
64(4) . . .
69(4) . . .
59(4) . . .
59(4) . . .
70(5) . . .
68(4) . . .
66(4) . . .
62(4) . . .
59(4) . . .
54(4) . . .
74(5) . . .
64(4) . . .
64(4) . . .
67(4) . . .
69(5) . . .
69(4) . . .
67(4) . . .
65(4) . . .
73(5) . . .
64(4) . . .
54(4) . . .
67(4) . . .
72(4) . . .
61(4) . . .
74(5) . . .
62(4) . . .
66(4) . . .
51(4) . . .
58(4) . . .
61(4) . . .
77(5) . . .
82(5) . . .
67(4) . . .
62(4) . . .
79(5) . . .
72(4) . . .
61(4) . . .
64(4) . . .
64(4) . . .
65(5) . . .
68(4) . . .
69(4) . . .
61(4) . . .
64(4) . . .
67(5) . . .
68(5) . . .
70(4) . . .
60(4) . . .
57(4) . . .
62(4) . . .
72(5) . . .
60(4) . . .
59(4) . . .
72(5) . . .
67(4) . . .
61(4) . . .
76(5) . . .
65(4) . . .
78(5) . . .
73(5) . . .
67(4) . . .
73(4) . . .
64(4) . . .
78(5) . . .
72(5) . . .
71(4) . . .
64(4) . . .
62(4) . . .
70(5) . . .
61(4) . . .
68(4) . . .
68(4) . . .
73(5) . . .
61(4) . . .
68(5) . . .
65(4) . . .
63(4) . . .
68(4) . . .
66(5) . . .
69(5) . . .
66(4) . . .
77(5) . . .
65(4) . . .
61(4) . . .
56(4) . . .
68(4) . . .
70(4) . . .
67(4) . . .
59(4) . . .
69(5) . . .
68(4) . . .
73(5) . . .
63(4) . . .
69(5) . . .
60(4) . . .
77(5) . . .
79(5) . . .
58(4) . . .
72(5) . . .
71(5) . . .
67(4) . . .
82(5) . . .
70(5) . . .
67(4) . . .
59(4) . . .
60(4) . . .
66(4) . . .
65(4) . . .
65(4) . . .
66(4) . . .
68(4) . . .
56(4) . . .
70(5) . . .
81(5) . . .
80(5) . . .
72(4) . . .
63(4) . . .
68(5) . . .
63(4) . . .
55(4) . . .
66(4) . . .
66(5) . . .
62(4) . . .
63(4) . . .
63(4) . . .
67(4) . . .
74(5) . . .
65(5) . . .
60(4) . . .
75(5) . . .
65(4) . . .
57(4) . . .
64(4) . . .
67(5) . . .
58(4) . . .
71(5) . . .
70(4) . . .
64(4) . . .
59(4) . . .
62(4) . . .
59(4) . . .
66(4) . . .
66(4) . . .
64(4) . . .
62(4) . . .
66(4) . . .
68(5) . . .
56(4) . . .
67(4) . . .
75(5) . . .
61(4) . . .
60(4) . . .
69(4) . . .
68(4) . . .
68(4) . . .
63(4) . . .
66(4) . . .
80(5) . . .
76(5) . . .
71(4) . . .
68(4) . . .
69(5) . . .
68(4) . . .
65(4) . . .
55(4) . . .
71(5) . . .
63(4) . . .
67(4) . . .
55(4) . . .
73(4) . . .
71(5) . . .
61(4) . . .
61(4) . . .
74(4) . . .
73(4) . . .
64(4) . . .
64(4) . . .
62(4) . . .
68(4) . . .
66(4) . . .
76(5) . . .
66(4) . . .
67(4) . . .
68(4) . . .
62(4) . . .
66(4) . . .
63(4) . . .
62(5) . . .
42.5(34) . . .
63(4) . . .
70(4) . . .
72(5) . . .
62(4) . . .
68(4) . . .
68(4) . . .
60(4) . . .
66(4) . . .
79(5) . . .
73(4) . . .
59(4) . . .
67(5) . . .
55(4) . . .
45.0(35) . . .
62(4) . . .
69(4) . . .
66(4) . . .
61(4) . . .
62(4) . . .
58(4) . . .
43.8(35) . . .
59(4) . . .
70(5) . . .
80(5) . . .
60(4) . . .
67(5) . . .
63(4) . . .
56(4) . . .
68(4) . . .
82(5) . . .
72(5) . . .
62(4) . . .
61(4) . . .
76(4) . . .
67(4) . . .
68(5) . . .
63(5) . . .
63(4) . . .
62(4) . . .
58(4) . . .
64(4) . . .
54(4) . . .
68(4) . . .
72(4) . . .
66(4) . . .
59(4) . . .
57(4) . . .
53(4) . . .
61(4) . . .
65(4) . . .
69(5) . . .
69(5) . . .
60(4) . . .
66(4) . . .
72(5) . . .
67(4) . . .
76(5) . . .
70(4) . . .
68(4) . . .
79(5) . . .
75(5) . . .
50(4) . . .
54(4) . . .
60(4) . . .
56(4) . . .
68(5) . . .
54(4) . . .
55(4) . . .
72(4) . . .
80(5) . . .
70(5) . . .
62(4) . . .
54(4) . . .
66(4) . . .
60(4) . . .
80(5) . . .
60(4) . . .
60(4) . . .
70(4) . . .
68(5) . . .
62(4) . . .
67(5) . . .
63(4) . . .
72(4) . . .
67(4) . . .
67(5) . . .
74(5) . . .
63(4) . . .
67(4) . . .
62(4) . . .
62(4) . . .
60(4) . . .
57(4) . . .
58(4) . . .
54(4) . . .
71(5) . . .
59(4) . . .
64(4) . . .
61(4) . . .
72(5) . . .
65(4) . . .
61(4) . . .
53(4) . . .
59(4) . . .
82(5) . . .
61(4) . . .
69(4) . . .
59(4) . . .
63(4) . . .
53(4) . . .
64(4) . . .
77(5) . . .
53(4) . . .
61(4) . . .
74(5) . . .
68(4) . . .
66(4) . . .
61(4) . . .
62(4) . . .
64(5) . . .
61(4) . . .
50(4) . . .
70(4) . . .
68(5) . . .
68(4) . . .
62(4) . . .
60(4) . . .
67(4) . . .
69(5) . . .
62(4) . . .
63(4) . . .
66(4) . . .
64(4) . . .
65(4) . . .
62(4) . . .
70(4) . . .
57(4) . . .
53(4) . . .
65(4) . . .
55(4) . . .
61(4) . . .
66(4) . . .
70(4) . . .
53(4) . . .
68(5) . . .
63(4) . . .
61(4) . . .
52(4) . . .
63(4) . . .
65(4) . . .
64(4) . . .
65(4) . . .
66(4) . . .
65(4) . . .
55(4) . . .
57(4) . . .
66(4) . . .
57(4) . . .
61(4) . . .
70(5) . . .
64(4) . . .
66(4) . . .
56(4) . . .
53(4) . . .
60(4) . . .
64(4) . . .
68(4) . . .
61(4) . . .
65(4) . . .
67(4) . . .
64(4) . . .
66(4) . . .
67(4) . . .
63(4) . . .
72(5) . . .
47(4) . . .
57(4) . . .
64(4) . . .
65(4) . . .
78(5) . . .
68(4) . . .
65(4) . . .
55(4) . . .
70(5) . . .
56(4) . . .
63(4) . . .
62(4) . . .
50(4) . . .
59(4) . . .
56(4) . . .
58(4) . . .
71(4) . . .
64(4) . . .
54(4) . . .
62(4) . . .
63(4) . . .
68(4) . . .
58(4) . . .
58(4) . . .
79(5) . . .
70(4) . . .
71(4) . . .
71(5) . . .
63(4) . . .
65(4) . . .
71(4) . . .
61(4) . . .
54(4) . . .
66(4) . . .
61(4) . . .
68(4) . . .
62(4) . . .
63(4) . . .
59(4) . . .
67(5) . . .
64(4) . . .
72(5) . . .
61(4) . . .
68(4) . . .
64(4) . . .
56(4) . . .
70(5) . . .
65(4) . . .
66(4) . . .
53(4) . . .
57(4) . . .
65(4) . . .
86(5) . . .
67(4) . . .
57(4) . . .
53(4) . . .
70(4) . . .
63(5) . . .
53(4) . . .
62(4) . . .
68(4) . . .
79(5) . . .
70(5) . . .
72(5) . . .
69(4) . . .
65(4) . . .
52(4) . . .
63(5) . . .
47(4) . . .
63(4) . . .
69(5) . . .
65(4) . . .
68(4) . . .
77(5) . . .
48(4) . . .
67(4) . . .
75(5) . . .
63(4) . . .
63(4) . . .
74(5) . . .
72(5) . . .
65(4) . . .
73(4) . . .
67(4) . . .
79(5) . . .
71(4) . . .
55(4) . . .
53(4) . . .
59(4) . . .
64(4) . . .
63(4) . . .
73(5) . . .
55(4) . . .
69(4) . . .
68(4) . . .
68(4) . . .
62(4) . . .
55(4) . . .
68(4) . . .
64(4) . . .
76(5) . . .
66(4) . . .
66(4) . . .
66(4) . . .
66(4) . . .
50(4) . . .
57(4) . . .
62(4) . . .
65(4) . . .
71(4) . . .
67(4) . . .
56(4) . . .
64(4) . . .
61(4) . . .
59(4) . . .
65(4) . . .
55(4) . . .
59(4) . . .
62(4) . . .
57(4) . . .
70(4) . . .
62(4) . . .
61(4) . . .
59(4) . . .
61(4) . . .
58(4) . . .
58(4) . . .
63(4) . . .
60(4) . . .
68(4) . . .
62(4) . . .
70(5) . . .
64(4) . . .
60(4) . . .
53(4) . . .
71(5) . . .
67(4) . . .
76(5) . . .
63(4) . . .
75(5) . . .
59(4) . . .
57(4) . . .
56(4) . . .
60(4) . . .
69(5) . . .
63(5) . . .
57(4) . . .
67(4) . . .
60(4) . . .
63(4) . . .
73(5) . . .
50(4) . . .
48(4) . . .
56(4) . . .
70(5) . . .
57(4) . . .
59(4) . . .
66(4) . . .
64(4) . . .
67(5) . . .
59(4) . . .
60(4) . . .
60(4) . . .
57(4) . . .
53(4) . . .
73(5) . . .
64(4) . . .
57(4) . . .
77(5) . . .
62(4) . . .
68(5) . . .
64(4) . . .
63(4) . . .
62(4) . . .
67(4) . . .
65(4) . . .
75(5) . . .
53(4) . . .
49(4) . . .
51(4) . . .
66(4) . . .
63(4) . . .
57(4) . . .
73(5) . . .
65(4) . . .
62(4) . . .
63(4) . . .
65(4) . . .
60(4) . . .
71(5) . . .
62(4) . . .
68(4) . . .
66(4) . . .
69(4) . . .
62(4) . . .
59(4) . . .
63(4) . . .
58(4) . . .
65(4) . . .
67(4) . . .
58(4) . . .
67(4) . . .
66(4) . . .
71(4) . . .
59(4) . . .
58(4) . . .
56(4) . . .
61(4) . . .
58(4) . . .
67(5) . . .
70(4) . . .
63(4) . . .
64(4) . . .
50(4) . . .
65(5) . . .
52(4) . . .
76(5) . . .
68(4) . . .
63(4) . . .
63(4) . . .
62(4) . . .
63(4) . . .
62(4) . . .
56(4) . . .
62(5) . . .
70(4) . . .
69(4) . . .
63(4) . . .
66(4) . . .
59(4) . . .
65(4) . . .
58(4) . . .
73(5) . . .
70(5) . . .
64(4) . . .
62(4) . . .
60(4) . . .
66(4) . . .
78(5) . . .
63(4) . . .
60(4) . . .
60(4) . . .
68(4) . . .
63(4) . . .
69(5) . . .
53(4) . . .
75(4) . . .
60(4) . . .
67(4) . . .
73(5) . . .
66(4) . . .
63(4) . . .
58(4) . . .
55(4) . . .
63(4) . . .
57(4) . . .
70(4) . . .
63(4) . . .
63(4) . . .
67(4) . . .
52(4) . . .
56(4) . . .
52(4) . . .
55(4) . . .
62(4) . . .
60(4) . . .
64(4) . . .
68(5) . . .
56(4) . . .
50(4) . . .
56(4) . . .
71(4) . . .
53(4) . . .
62(4) . . .
65(4) . . .
62(4) . . .
64(4) . . .
59(4) . . .
59(4) . . .
65(4) . . .
69(4) . . .
56(4) . . .
64(4) . . .
57(4) . . .
50(4) . . .
59(4) . . .
55(4) . . .
56(4) . . .
55(4) . . .
68(4) . . .
70(4) . . .
65(4) . . .
62(4) . . .
59(4) . . .
73(5) . . .
71(4) . . .
71(5) . . .
60(4) . . .
69(4) . . .
74(5) . . .
71(4) . . .
67(5) . . .
63(5) . . .
70(5) . . .
53(4) . . .
71(4) . . .
64(4) . . .
61(4) . . .
62(4) . . .
62(4) . . .
63(4) . . .
56(4) . . .
58(4) . . .
58(4) . . .
68(4) . . .
72(4) . . .
66(4) . . .
74(5) . . .
66(4) . . .
71(4) . . .
64(4) . . .
66(4) . . .
59(4) . . .
70(5) . . .
63(4) . . .
65(4) . . .
55(4) . . .
60(4) . . .
55(4) . . .
50(4) . . .
64(4) . . .
61(4) . . .
56(4) . . .
51(4) . . .
61(4) . . .
63(4) . . .
62(4) . . .
58(4) . . .
58(4) . . .
68(4) . . .
55(4) . . .
57(4) . . .
58(5) . . .
60(4) . . .
59(4) . . .
56(4) . . .
62(5) . . .
60(4) . . .
61(4) . . .
62(4) . . .
70(5) . . .
65(5) . . .
72(5) . . .
60(4) . . .
65(4) . . .
54(4) . . .
66(5) . . .
69(5) . . .
68(4) . . .
67(4) . . .
58(4) . . .
56(4) . . .
61(4) . . .
60(4) . . .
65(4) . . .
56(4) . . .
70(5) . . .
61(4) . . .
68(4) . . .
59(4) . . .
55(4) . . .
66(5) . . .
66(4) . . .
68(4) . . .
70(4) . . .
62(4) . . .
62(4) . . .
62(4) . . .
71(4) . . .
66(4) . . .
64(4) . . .
63(4) . . .
66(4) . . .
62(4) . . .
52(4) . . .
66(4) . . .
60(4) . . .
56(4) . . .
60(4) . . .
56(4) . . .
67(4) . . .
55(4) . . .
50(4) . . .
64(4) . . .
52(4) . . .
51(4) . . .
52(4) . . .
64(4) . . .
67(4) . . .
59(4) . . .
63(4) . . .
62(4) . . .
67(4) . . .
62(4) . . .
59(4) . . .
61(4) . . .
64(4) . . .
59(4) . . .
67(4) . . .
62(4) . . .
63(4) . . .
58(4) . . .
61(4) . . .
67(4) . . .
63(4) . . .
70(5) . . .
59(4) . . .
73(5) . . .
60(4) . . .
55(4) . . .
60(4) . . .
62(4) . . .
54(4) . . .
64(4) . . .
60(4) . . .
62(4) . . .
62(4) . . .
71(4) . . .
64(4) . . .
53(4) . . .
64(4) . . .
68(4) . . .
59(4) . . .
57(4) . . .
67(5) . . .
57(4) . . .
54(4) . . .
58(4) . . .
65(4) . . .
63(4) . . .
64(4) . . .
61(4) . . .
51(4) . . .
69(4) . . .
62(4) . . .
66(4) . . .
63(4) . . .
66(4) . . .
68(4) . . .
60(4) . . .
56(4) . . .
65(4) . . .
57(4) . . .
60(4) . . .
59(4) . . .
55(4) . . .
67(4) . . .
71(4) . . .
58(4) . . .
63(4) . . .
74(5) . . .
64(4) . . .
64(4) . . .
63(4) . . .
54(4) . . .
58(4) . . .
64(4) . . .
61(4) . . .
55(4) . . .
57(4) . . .
64(4) . . .
54(4) . . .
69(4) . . .
71(5) . . .
46(4) . . .
57(4) . . .
64(4) . . .
64(4) . . .
66(4) . . .
62(4) . . .
60(4) . . .
72(4) . . .
60(4) . . .
71(5) . . .
65(4) . . .
62(4) . . .
60(4) . . .
68(4) . . .
63(4) . . .
69(5) . . .
62(4) . . .
62(4) . . .
70(5) . . .
63(4) . . .
71(5) . . .
55(4) . . .
59(4) . . .
60(4) . . .
65(5) . . .
66(4) . . .
65(4) . . .
64(4) . . .
71(5) . . .
71(5) . . .
73(5) . . .
58(4) . . .
59(4) . . .
63(4) . . .
67(5) . . .
58(4) . . .
67(4) . . .
50(4) . . .
55(4) . . .
59(4) . . .
59(4) . . .
54(4) . . .
58(4) . . .
64(4) . . .
70(5) . . .
57(4) . . .
56(4) . . .
62(4) . . .
59(4) . . .
60(4) . . .
58(4) . . .
57(4) . . .
67(4) . . .
71(5) . . .
54(4) . . .
66(5) . . .
70(4) . . .
66(4) . . .
72(5) . . .
58(4) . . .
69(5) . . .
64(4) . . .
61(4) . . .
59(4) . . .
66(4) . . .
65(4) . . .
62(4) . . .
59(4) . . .
64(4) . . .
56(4) . . .
59(4) . . .
65(4) . . .
61(4) . . .
63(4) . . .
60(4) . . .
56(4) . . .
58(4) . . .
56(4) . . .
56(4) . . .
68(4) . . .
62(4) . . .
54(4) . . .
61(4) . . .
66(5) . . .
67(4) . . .
59(4) . . .
68(4) . . .
68(4) . . .
69(5) . . .
56(4) . . .
67(4) . . .
47(4) . . .
61(4) . . .
74(5) . . .
62(4) . . .
60(4) . . .
61(4) . . .
57(4) . . .
55(4) . . .
54(4) . . .
61(4) . . .
69(4) . . .
59(4) . . .
66(4) . . .
57(4) . . .
53(4) . . .
54(4) . . .
60(4) . . .
60(4) . . .
60(4) . . .
74(4) . . .
70(5) . . .
61(4) . . .
69(5) . . .
64(4) . . .
53(4) . . .
65(4) . . .
70(5) . . .
65(4) . . .
64(4) . . .
56(4) . . .
57(4) . . .
56(4) . . .
74(5) . . .
66(4) . . .
64(4) . . .
60(4) . . .
55(4) . . .
59(4) . . .
58(4) . . .
58(4) . . .
62(4) . . .
53(4) . . .
63(4) . . .
62(4) . . .
67(4) . . .
60(4) . . .
66(5) . . .
73(5) . . .
64(4) . . .
55(4) . . .
59(4) . . .
66(5) . . .
64(4) . . .
61(4) . . .
61(4) . . .
58(4) . . .
63(4) . . .
66(4) . . .
63(4) . . .
55(4) . . .
52(4) . . .
62(4) . . .
62(4) . . .
61(4) . . .
60(4) . . .
65(5) . . .
69(5) . . .
65(4) . . .
63(4) . . .
60(4) . . .
71(4) . . .
60(4) . . .
64(4) . . .
53(4) . . .
70(4) . . .
59(4) . . .
71(5) . . .
62(4) . . .
58(4) . . .
64(4) . . .
81(5) . . .
60(4) . . .
58(4) . . .
53(4) . . .
57(4) . . .
66(4) . . .
66(4) . . .
62(4) . . .
65(4) . . .
46(4) . . .
62(5) . . .
63(4) . . .
53(4) . . .
57(4) . . .
69(5) . . .
72(5) . . .
67(4) . . .
55(4) . . .
64(4) . . .
59(4) . . .
56(4) . . .
57(4) . . .
59(4) . . .
64(4) . . .
66(4) . . .
64(5) . . .
62(4) . . .
66(4) . . .
69(4) . . .
76(5) . . .
63(4) . . .
60(4) . . .
73(4) . . .
57(4) . . .
53(4) . . .
57(4) . . .
70(4) . . .
62(4) . . .
59(4) . . .
53(4) . . .
62(4) . . .
63(4) . . .
70(4) . . .
56(4) . . .
60(4) . . .
54(4) . . .
53(4) . . .
66(4) . . .
65(4) . . .
59(4) . . .
60(4) . . .
56(4) . . .
66(4) . . .
58(4) . . .
56(4) . . .
59(4) . . .
63(4) . . .
60(4) . . .
63(4) . . .
55(4) . . .
47(4) . . .
58(4) . . .
56(4) . . .
56(4) . . .
62(4) . . .
63(4) . . .
67(4) . . .
53(4) . . .
63(4) . . .
63(4) . . .
61(4) . . .
61(4) . . .
63(4) . . .
64(5) . . .
61(4) . . .
59(4) . . .
63(4) . . .
49(4) . . .
66(4) . . .
61(4) . . .
70(4) . . .
59(4) . . .
61(4) . . .
63(4) . . .
52(4) . . .
66(4) . . .
52(4) . . .
59(4) . . .
58(4) . . .
60(4) . . .
55(4) . . .
55(4) . . .
63(4) . . .
63(4) . . .
57(4) . . .
68(5) . . .
55(4) . . .
58(4) . . .
69(5) . . .
53(4) . . .
66(4) . . .
60(4) . . .
67(4) . . .
52(4) . . .
59(4) . . .
59(4) . . .
65(4) . . .
53(4) . . .
61(4) . . .
59(4) . . .
60(4) . . .
53(4) . . .
56(4) . . .
54(4) . . .
53(4) . . .
54(4) . . .
57(4) . . .
60(4) . . .
58(4) . . .
53(4) . . .
60(4) . . .
53(4) . . .
64(4) . . .
51(4) . . .
56(4) . . .
64(4) . . .
61(4) . . .
66(5) . . .
63(4) . . .
65(4) . . .
65(4) . . .
64(4) . . .
63(4) . . .
47(4) . . .
65(4) . . .
56(4) . . .
57(4) . . .
60(4) . . .
58(4) . . .
56(4) . . .
57(4) . . .
62(4) . . .
71(5) . . .
70(5) . . .
61(4) . . .
56(4) . . .
68(5) . . .
53(4) . . .
61(4) . . .
58(4) . . .
67(4) . . .
54(4) . . .
59(4) . . .
64(4) . . .
65(4) . . .
61(4) . . .
66(4) . . .
58(4) . . .
59(4) . . .
64(4) . . .
67(4) . . .
65(4) . . .
64(5) . . .
64(4) . . .
55(4) . . .
56(4) . . .
55(4) . . .
56(4) . . .
50(4) . . .
62(4) . . .
67(4) . . .
58(4) . . .
57(4) . . .
65(4) . . .
49(4) . . .
64(4) . . .
54(4) . . .
60(4) . . .
61(4) . . .
61(4) . . .
59(4) . . .
62(4) . . .
57(4) . . .
64(4) . . .
73(4) . . .
65(4) . . .
54(4) . . .
53(4) . . .
65(4) . . .
60(4) . . .
61(4) . . .
58(4) . . .
62(4) . . .
55(4) . . .
65(4) . . .
52(4) . . .
66(5) . . .
56(4) . . .
52(4) . . .
55(4) . . .
60(4) . . .
53(4) . . .
54(4) . . .
57(4) . . .
48(4) . . .
64(4) . . .
60(4) . . .
61(4) . . .
54(4) . . .
66(4) . . .
68(5) . . .
67(4) . . .
51(4) . . .
56(4) . . .
55(4) . . .
47(4) . . .
62(4) . . .
68(4) . . .
60(4) . . .
61(4) . . .
62(4) . . .
62(5) . . .
55(4) . . .
56(4) . . .
53(4) . . .
55(4) . . .
71(5) . . .
73(5) . . .
58(4) . . .
61(4) . . .
60(4) . . .
63(4) . . .
50(4) . . .
52(4) . . .
64(4) . . .
61(4) . . .
62(4) . . .
56(4) . . .
50(4) . . .
59(4) . . .
56(4) . . .
58(4) . . .
62(4) . . .
69(4) . . .
60(4) . . .
58(4) . . .
61(4) . . .
56(4) . . .
67(4) . . .
61(4) . . .
65(4) . . .
56(4) . . .
56(4) . . .
62(4) . . .
61(5) . . .
52(4) . . .
60(4) . . .
62(4) . . .
58(4) . . .
57(4) . . .
73(5) . . .
52(4) . . .
54(4) . . .
60(4) . . .
67(4) . . .
57(4) . . .
57(4) . . .
63(4) . . .
65(4) . . .
56(4) . . .
60(4) . . .
59(4) . . .
64(4) . . .
52(4) . . .
63(4) . . .
63(4) . . .
58(4) . . .
61(4) . . .
56(4) . . .
52(4) . . .
62(4) . . .
57(4) . . .
56(4) . . .
65(4) . . .
57(4) . . .
54(4) . . .
60(4) . . .
63(4) . . .
62(4) . . .
68(4) . . .
60(4) . . .
58(4) . . .
44.6(34) . . .
65(4) . . .
65(4) . . .
66(4) . . .
71(5) . . .
61(4) . . .
65(4) . . .
58(4) . . .
55(4) . . .
63(4) . . .
55(4) . . .
63(4) . . .
72(5) . . .
63(4) . . .
63(4) . . .
57(4) . . .
61(4) . . .
63(4) . . .
60(4) . . .
54(4) . . .
60(4) . . .
69(4) . . .
57(4) . . .
67(4) . . .
66(4) . . .
57(4) . . .
57(4) . . .
60(4) . . .
60(4) . . .
58(4) . . .
58(4) . . .
61(4) . . .
62(4) . . .
65(4) . . .
63(4) . . .
54(4) . . .
64(4) . . .
69(5) . . .
56(4) . . .
51(4) . . .
70(4) . . .
55(4) . . .
60(4) . . .
68(5) . . .
59(4) . . .
47(4) . . .
50(4) . . .
51(4) . . .
45.4(35) . . .
60(4) . . .
53(4) . . .
57(4) . . .
62(4) . . .
62(4) . . .
56(4) . . .
64(4) . . .
58(4) . . .
65(4) . . .
54(4) . . .
69(4) . . .
66(4) . . .
66(4) . . .
59(4) . . .
59(4) . . .
60(4) . . .
61(4) . . .
55(4) . . .
65(4) . . .
66(4) . . .
57(4) . . .
56(4) . . .
62(5) . . .
53(4) . . .
55(4) . . .
42.1(34) . . .
56(4) . . .
59(4) . . .
59(4) . . .
62(4) . . .
53(4) . . .
60(4) . . .
66(5) . . .
61(4) . . .
56(4) . . .
64(4) . . .
62(4) . . .
60(4) . . .
71(5) . . .
66(4) . . .
65(4) . . .
68(5) . . .
56(4) . . .
64(4) . . .
54(4) . . .
63(4) . . .
56(4) . . .
58(4) . . .
72(5) . . .
65(4) . . .
52(4) . . .
55(4) . . .
69(5) . . .
60(4) . . .
66(4) . . .
60(4) . . .
59(4) . . .
64(4) . . .
54(4) . . .
53(4) . . .
53(4) . . .
69(5) . . .
60(4) . . .
71(5) . . .
60(4) . . .
58(4) . . .
59(4) . . .
53(4) . . .
59(4) . . .
63(4) . . .
64(4) . . .
65(4) . . .
57(4) . . .
57(4) . . .
54(4) . . .
49(4) . . .
64(4) . . .
69(4) . . .
68(4) . . .
47(4) . . .
54(4) . . .
54(4) . . .
50(4) . . .
59(4) . . .
57(4) . . .
67(4) . . .
66(5) . . .
55(4) . . .
64(4) . . .
74(5) . . .
60(4) . . .
68(4) . . .
58(4) . . .
59(4) . . .
67(4) . . .
60(4) . . .
55(4) . . .
58(4) . . .
60(4) . . .
61(4) . . .
59(4) . . .
51(4) . . .
65(4) . . .
62(4) . . .
63(4) . . .
70(5) . . .
63(4) . . .
68(4) . . .
63(4) . . .
61(4) . . .
63(4) . . .
57(4) . . .
65(4) . . .
60(4) . . .
61(4) . . .
61(4) . . .
60(4) . . .
66(4) . . .
52(4) . . .
56(4) . . .
51(4) . . .
55(4) . . .
53(4) . . .
56(4) . . .
68(5) . . .
59(4) . . .
56(4) . . .
61(4) . . .
58(4) . . .
60(4) . . .
70(5) . . .
57(4) . . .
55(4) . . .
66(4) . . .
64(4) . . .
61(4) . . .
54(4) . . .
52(4) . . .
50(4) . . .
58(4) . . .
53(4) . . .
60(4) . . .
65(4) . . .
62(4) . . .
57(4) . . .
56(4) . . .
61(4) . . .
58(4) . . .
58(4) . . .
67(4) . . .
67(4) . . .
72(5) . . .
60(4) . . .
68(5) . . .
58(4) . . .
59(4) . . .
58(4) . . .
65(4) . . .
56(4) . . .
64(4) . . .
64(4) . . .
56(4) . . .
63(4) . . .
64(4) . . .
57(4) . . .
65(4) . . .
62(4) . . .
72(4) . . .
65(4) . . .
64(4) . . .
50(4) . . .
51(4) . . .
55(4) . . .
62(4) . . .
56(4) . . .
62(4) . . .
55(4) . . .
66(4) . . .
63(4) . . .
58(4) . . .
66(4) . . .
68(4) . . .
63(4) . . .
63(4) . . .
63(4) . . .
67(4) . . .
52(4) . . .
60(4) . . .
65(4) . . .
73(5) . . .
62(4) . . .
64(4) . . .
55(4) . . .
55(4) . . .
62(4) . . .
60(4) . . .
53(4) . . .
68(4) . . .
61(4) . . .
62(4) . . .
68(5) . . .
58(4) . . .
58(4) . . .
55(4) . . .
51(4) . . .
53(4) . . .
50(4) . . .
63(4) . . .
58(4) . . .
60(4) . . .
58(4) . . .
69(4) . . .
66(4) . . .
62(4) . . .
71(5) . . .
61(4) . . .
59(4) . . .
66(4) . . .
69(5) . . .
69(5) . . .
62(4) . . .
60(4) . . .
51(4) . . .
52(4) . . .
52(4) . . .
58(4) . . .
62(4) . . .
50(4) . . .
56(4) . . .
51(4) . . .
54(4) . . .
64(4) . . .
62(4) . . .
58(4) . . .
62(4) . . .
69(4) . . .
66(4) . . .
65(4) . . .
72(5) . . .
65(4) . . .
68(4) . . .
53(4) . . .
55(4) . . .
55(4) . . .
66(4) . . .
62(4) . . .
62(4) . . .
59(4) . . .
53(4) . . .
50(4) . . .
55(4) . . .
63(4) . . .
56(4) . . .
66(4) . . .
66(4) . . .
69(4) . . .
62(4) . . .
57(4) . . .
60(4) . . .
53(4) . . .
64(4) . . .
56(4) . . .
61(4) . . .
61(4) . . .
55(4) . . .
51(4) . . .
67(5) . . .
53(4) . . .
57(4) . . .
64(4) . . .
57(4) . . .
67(4) . . .
62(4) . . .
67(4) . . .
66(4) . . .
61(4) . . .
62(4) . . .
75(5) . . .
59(4) . . .
67(4) . . .
62(4) . . .
62(4) . . .
54(4) . . .
56(4) . . .
58(4) . . .
62(4) . . .
58(4) . . .
61(4) . . .
73(5) . . .
51(4) . . .
53(4) . . .
51(4) . . .
72(5) . . .
67(4) . . .
52(4) . . .
61(4) . . .
52(4) . . .
63(4) . . .
51(4) . . .
64(4) . . .
59(4) . . .
66(4) . . .
65(4) . . .
59(4) . . .
57(4) . . .
64(4) . . .
58(4) . . .
66(4) . . .
61(4) . . .
69(4) . . .
55(4) . . .
65(4) . . .
60(4) . . .
58(4) . . .
56(4) . . .
60(4) . . .
54(4) . . .
61(4) . . .
64(4) . . .
65(4) . . .
60(4) . . .
65(5) . . .
64(4) . . .
60(4) . . .
69(4) . . .
59(4) . . .
67(5) . . .
62(4) . . .
61(4) . . .
71(4) . . .
62(4) . . .
62(4) . . .
52(4) . . .
58(4) . . .
66(4) . . .
65(4) . . .
60(4) . . .
66(4) . . .
53(4) . . .
54(4) . . .
58(4) . . .
54(4) . . .
61(4) . . .
72(4) . . .
49(4) . . .
59(4) . . .
61(4) . . .
53(4) . . .
66(4) . . .
60(4) . . .
50(4) . . .
56(4) . . .
55(4) . . .
64(4) . . .
63(4) . . .
62(4) . . .
64(4) . . .
55(4) . . .
58(4) . . .
58(4) . . .
56(4) . . .
54(4) . . .
59(4) . . .
69(4) . . .
57(4) . . .
71(5) . . .
65(4) . . .
56(4) . . .
60(4) . . .
74(5) . . .
65(4) . . .
69(4) . . .
73(4) . . .
52(4) . . .
58(4) . . .
53(4) . . .
62(4) . . .
54(4) . . .
60(4) . . .
56(4) . . .
49(4) . . .
59(4) . . .
63(4) . . .
60(4) . . .
56(4) . . .
61(5) . . .
59(4) . . .
65(4) . . .
64(4) . . .
50(4) . . .
58(4) . . .
62(4) . . .
56(4) . . .
64(4) . . .
61(4) . . .
63(4) . . .
64(4) . . .
64(4) . . .
52(4) . . .
60(4) . . .
56(4) . . .
56(4) . . .
57(4) . . .
67(4) . . .
54(4) . . .
62(4) . . .
50(4) . . .
64(4) . . .
66(4) . . .
55(4) . . .
61(4) . . .
48(4) . . .
62(4) . . .
63(4) . . .
53(4) . . .
59(4) . . .
54(4) . . .
64(4) . . .
70(4) . . .
69(5) . . .
66(4) . . .
59(4) . . .
59(4) . . .
61(4) . . .
58(4) . . .
47(4) . . .
43.6(34) . . .
60(4) . . .
62(4) . . .
60(4) . . .
55(4) . . .
52(4) . . .
59(4) . . .
50(4) . . .
59(5) . . .
58(4) . . .
58(4) . . .
63(4) . . .
51(4) . . .
52(4) . . .
57(4) . . .
64(4) . . .
63(4) . . .
59(4) . . .
56(4) . . .
54(4) . . .
50(4) . . .
67(4) . . .
64(4) . . .
62(4) . . .
56(4) . . .
69(4) . . .
58(4) . . .
59(4) . . .
60(4) . . .
68(4) . . .
56(4) . . .
51(4) . . .
56(4) . . .
49(4) . . .
71(5) . . .
73(4) . . .
59(4) . . .
60(4) . . .
69(4) . . .
62(4) . . .
67(4) . . .
60(4) . . .
62(4) . . .
67(4) . . .
61(4) . . .
60(4) . . .
60(4) . . .
53(4) . . .
56(4) . . .
65(4) . . .
58(4) . . .
52(4) . . .
66(5) . . .
71(5) . . .
58(4) . . .
54(4) . . .
61(4) . . .
59(4) . . .
62(4) . . .
67(4) . . .
54(4) . . .
61(4) . . .
59(4) . . .
55(4) . . .
56(4) . . .
69(4) . . .
54(4) . . .
61(4) . . .
60(4) . . .
40.9(34) . . .
47(4) . . .
59(4) . . .
59(4) . . .
69(5) . . .
55(4) . . .
47(4) . . .
53(4) . . .
63(4) . . .
60(4) . . .
49(4) . . .
61(4) . . .
58(4) . . .
71(5) . . .
62(4) . . .
62(4) . . .
46(4) . . .
58(4) . . .
57(4) . . .
49(4) . . .
62(4) . . .
68(5) . . .
52(4) . . .
60(4) . . .
52(4) . . .
51(4) . . .
57(4) . . .
63(4) . . .
64(4) . . .
60(4) . . .
64(4) . . .
55(4) . . .
46(4) . . .
54(4) . . .
66(4) . . .
56(4) . . .
65(4) . . .
69(5) . . .
59(4) . . .
50(4) . . .
62(4) . . .
63(4) . . .
59(4) . . .
51(4) . . .
50(4) . . .
56(4) . . .
50(4) . . .
51(4) . . .
58(4) . . .
51(4) . . .
53(4) . . .
61(4) . . .
59(4) . . .
61(4) . . .
55(4) . . .
48(4) . . .
59(4) . . .
62(4) . . .
67(4) . . .
60(4) . . .
52(4) . . .
60(4) . . .
55(4) . . .
52(4) . . .
55(4) . . .
61(4) . . .
73(5) . . .
58(4) . . .
63(4) . . .
50(4) . . .
57(4) . . .
60(4) . . .
51(4) . . .
54(4) . . .
57(4) . . .
56(4) . . .
62(4) . . .
55(4) . . .
58(4) . . .
57(4) . . .
57(4) . . .
59(4) . . .
50(4) . . .
58(4) . . .
71(4) . . .
68(4) . . .
68(5) . . .
64(4) . . .
43.9(34) . . .
47(4) . . .
54(4) . . .
62(5) . . .
54(4) . . .
62(4) . . .
63(4) . . .
58(4) . . .
56(4) . . .
48(4) . . .
47(4) . . .
55(4) . . .
53(4) . . .
59(4) . . .
56(4) . . .
58(4) . . .
62(4) . . .
54(4) . . .
64(4) . . .
58(4) . . .
52(4) . . .
53(4) . . .
66(5) . . .
68(4) . . .
68(4) . . .
64(4) . . .
65(4) . . .
61(4) . . .
67(4) . . .
57(4) . . .
52(4) . . .
45(4) . . .
61(4) . . .
59(4) . . .
53(4) . . .
68(4) . . .
52(4) . . .
58(4) . . .
55(4) . . .
59(4) . . .
46(4) . . .
53(4) . . .
54(4) . . .
53(4) . . .
65(4) . . .
51(4) . . .
55(4) . . .
57(4) . . .
57(4) . . .
51(4) . . .
55(4) . . .
59(4) . . .
58(4) . . .
50(4) . . .
51(4) . . .
46.1(35) . . .
68(5) . . .
61(4) . . .
61(4) . . .
57(4) . . .
56(4) . . .
45(4) . . .
52(4) . . .
56(4) . . .
65(4) . . .
59(4) . . .
59(4) . . .
65(4) . . .
62(4) . . .
57(4) . . .
61(4) . . .
53(4) . . .
61(4) . . .
67(4) . . .
54(4) . . .
63(4) . . .
63(4) . . .
65(4) . . .
60(4) . . .
55(4) . . .
54(4) . . .
56(4) . . .
52(4) . . .
55(4) . . .
60(4) . . .
61(4) . . .
58(4) . . .
63(4) . . .
56(4) . . .
72(4) . . .
60(4) . . .
59(4) . . .
64(4) . . .
63(4) . . .
53(4) . . .
62(4) . . .
60(4) . . .
55(4) . . .
63(4) . . .
62(4) . . .
62(4) . . .
63(5) . . .
60(4) . . .
48(4) . . .
50(4) . . .
53(4) . . .
50(4) . . .
54(4) . . .
58(4) . . .
63(4) . . .
53(4) . . .
49(4) . . .
56(4) . . .
49(4) . . .
51(4) . . .
55(4) . . .
63(4) . . .
56(4) . . .
53(4) . . .
57(4) . . .
53(4) . . .
64(5) . . .
51(4) . . .
51(4) . . .
65(4) . . .
55(4) . . .
50(4) . . .
56(4) . . .
62(4) . . .
62(4) . . .
48(4) . . .
52(4) . . .
56(4) . . .
51(4) . . .
57(4) . . .
55(4) . . .
50(4) . . .
53(4) . . .
61(4) . . .
60(4) . . .
75(5) . . .
50(4) . . .
55(4) . . .
60(4) . . .
68(5) . . .
62(4) . . .
66(4) . . .
70(4) . . .
63(4) . . .
69(5) . . .
61(4) . . .
58(4) . . .
67(4) . . .
58(4) . . .
56(4) . . .
59(4) . . .
54(4) . . .
45.7(34) . . .
53(4) . . .
58(4) . . .
63(4) . . .
48(4) . . .
61(4) . . .
66(4) . . .
60(4) . . .
58(4) . . .
67(5) . . .
62(4) . . .
61(4) . . .
63(4) . . .
59(4) . . .
57(4) . . .
55(4) . . .
52(4) . . .
59(4) . . .
51(4) . . .
66(4) . . .
61(4) . . .
53(4) . . .
59(4) . . .
59(4) . . .
54(4) . . .
58(4) . . .
52(4) . . .
52(4) . . .
65(4) . . .
66(4) . . .
66(4) . . .
53(4) . . .
58(4) . . .
56(4) . . .
68(4) . . .
62(4) . . .
50(4) . . .
63(4) . . .
60(4) . . .
54(4) . . .
61(4) . . .
59(4) . . .
60(4) . . .
66(4) . . .
68(4) . . .
54(4) . . .
59(4) . . .
53(4) . . .
65(4) . . .
60(4) . . .
60(4) . . .
63(4) . . .
55(4) . . .
64(4) . . .
58(4) . . .
66(4) . . .
61(4) . . .
71(5) . . .
58(4) . . .
53(4) . . .
62(4) . . .
61(4) . . .
50(4) . . .
60(4) . . .
57(4) . . .
56(4) . . .
58(4) . . .
52(4) . . .
55(4) . . .
59(4) . . .
49(4) . . .
56(4) . . .
54(4) . . .
66(4) . . .
58(4) . . .
53(4) . . .
51(4) . . .
46(4) . . .
59(4) . . .
64(4) . . .
60(4) . . .
56(4) . . .
54(4) . . .
59(4) . . .
67(4) . . .
55(4) . . .
54(4) . . .
59(4) . . .
54(4) . . .
53(4) . . .
59(4) . . .
56(4) . . .
51(4) . . .
63(4) . . .
61(4) . . .
51(4) . . .
59(4) . . .
66(4) . . .
62(4) . . .
54(4) . . .
44(4) . . .
51(4) . . .
59(4) . . .
59(4) . . .
54(4) . . .
56(4) . . .
49(4) . . .
58(4) . . .
56(4) . . .
52(4) . . .
48(4) . . .
52(4) . . .
63(4) . . .
55(4) . . .
65(4) . . .
69(5) . . .
67(4) . . .
62(4) . . .
62(4) . . .
62(4) . . .
55(4) . . .
70(5) . . .
48(4) . . .
59(4) . . .
63(4) . . .
48(4) . . .
66(4) . . .
52(4) . . .
63(4) . . .
62(4) . . .
54(4) . . .
64(4) . . .
67(4) . . .
68(4) . . .
60(4) . . .
51(4) . . .
52(4) . . .
51(4) . . .
60(4) . . .
59(4) . . .
75(5) . . .
61(4) . . .
50(4) . . .
56(4) . . .
53(4) . . .
57(4) . . .
64(4) . . .
56(4) . . .
53(4) . . .
52(4) . . .
61(4) . . .
51(4) . . .
55(4) . . .
55(4) . . .
56(4) . . .
65(5) . . .
64(4) . . .
53(4) . . .
71(4) . . .
49(4) . . .
52(4) . . .
51(4) . . .
56(4) . . .
54(4) . . .
55(4) . . .
63(4) . . .
78(5) . . .
62(4) . . .
56(4) . . .
53(4) . . .
55(4) . . .
67(4) . . .
46(4) . . .
50(4) . . .
48(4) . . .
66(4) . . .
61(4) . . .
64(4) . . .
56(4) . . .
62(4) . . .
65(4) . . .
57(4) . . .
50(4) . . .
57(4) . . .
65(4) . . .
62(4) . . .
55(4) . . .
53(4) . . .
50(4) . . .
67(4) . . .
65(4) . . .
57(4) . . .
67(4) . . .
68(4) . . .
52(4) . . .
65(4) . . .
48(4) . . .
58(4) . . .
57(4) . . .
57(4) . . .
52(4) . . .
52(4) . . .
58(4) . . .
61(4) . . .
63(4) . . .
60(4) . . .
58(4) . . .
56(4) . . .
60(4) . . .
53(4) . . .
57(4) . . .
55(4) . . .
47(4) . . .
55(4) . . .
56(4) . . .
56(4) . . .
58(4) . . .
58(4) . . .
52(4) . . .
54(4) . . .
59(4) . . .
62(4) . . .
55(4) . . .
61(4) . . .
52(4) . . .
51(4) . . .
55(4) . . .
52(4) . . .
52(4) . . .
43.9(35) . . .
42.7(33) . . .
61(4) . . .
55(4) . . .
57(4) . . .
52(4) . . .
58(4) . . .
57(4) . . .
51(4) . . .
56(4) . . .
65(4) . . .
60(4) . . .
60(4) . . .
65(4) . . .
53(4) . . .
52(4) . . .
64(4) . . .
67(4) . . .
67(4) . . .
64(4) . . .
60(4) . . .
56(4) . . .
54(4) . . .
62(4) . . .
62(5) . . .
55(4) . . .
61(4) . . .
58(4) . . .
62(4) . . .
55(4) . . .
60(4) . . .
59(4) . . .
56(4) . . .
49(4) . . .
50(4) . . .
55(4) . . .
51(4) . . .
51(4) . . .
57(4) . . .
55(4) . . .
65(4) . . .
62(4) . . .
58(4) . . .
60(4) . . .
56(4) . . .
68(4) . . .
58(4) . . .
56(4) . . .
62(4) . . .
55(4) . . .
52(4) . . .
61(4) . . .
47(4) . . .
57(4) . . .
48(4) . . .
55(4) . . .
64(4) . . .
48(4) . . .
48(4) . . .
54(4) . . .
50(4) . . .
63(4) . . .
55(4) . . .
68(5) . . .
52(4) . . .
53(4) . . .
50(4) . . .
51(4) . . .
51(4) . . .
55(4) . . .
46.8(35) . . .
54(4) . . .
60(4) . . .
63(4) . . .
50(4) . . .
61(4) . . .
65(4) . . .
62(4) . . .
58(4) . . .
59(4) . . .
67(4) . . .
60(4) . . .
51(4) . . .
49(4) . . .
53(4) . . .
54(4) . . .
53(4) . . .
53(4) . . .
57(4) . . .
56(4) . . .
46(4) . . .
53(4) . . .
61(4) . . .
52(4) . . .
55(4) . . .
56(4) . . .
54(4) . . .
59(4) . . .
54(4) . . .
61(4) . . .
57(4) . . .
53(4) . . .
52(4) . . .
45(4) . . .
52(4) . . .
53(4) . . .
52(4) . . .
62(4) . . .
68(4) . . .
62(4) . . .
72(5) . . .
61(4) . . .
61(4) . . .
58(4) . . .
51(4) . . .
56(4) . . .
54(4) . . .
65(5) . . .
55(4) . . .
63(4) . . .
59(4) . . .
66(5) . . .
64(4) . . .
63(4) . . .
53(4) . . .
52(4) . . .
50(4) . . .
55(4) . . .
53(4) . . .
68(4) . . .
61(4) . . .
51(4) . . .
62(4) . . .
62(4) . . .
61(4) . . .
45(4) . . .
63(4) . . .
51(4) . . .
61(4) . . .
51(4) . . .
57(4) . . .
53(4) . . .
59(4) . . .
59(4) . . .
59(4) . . .
70(4) . . .
60(4) . . .
59(4) . . .
62(4) . . .
51(4) . . .
46(4) . . .
55(4) . . .
63(4) . . .
57(4) . . .
56(4) . . .
61(4) . . .
56(4) . . .
59(4) . . .
58(4) . . .
59(4) . . .
57(4) . . .
63(4) . . .
67(5) . . .
55(4) . . .
67(4) . . .
52(4) . . .
51(4) . . .
50(4) . . .
42.6(34) . . .
58(4) . . .
52(4) . . .
61(4) . . .
61(4) . . .
57(4) . . .
58(4) . . .
71(5) . . .
65(5) . . .
56(4) . . .
64(4) . . .
56(4) . . .
47(4) . . .
55(4) . . .
56(4) . . .
58(4) . . .
54(4) . . .
67(4) . . .
60(4) . . .
69(5) . . .
53(4) . . .
57(4) . . .
51(4) . . .
57(4) . . .
60(4) . . .
58(4) . . .
63(4) . . .
66(4) . . .
57(4) . . .
49(4) . . .
52(4) . . .
61(4) . . .
65(5) . . .
55(4) . . .
62(4) . . .
48(4) . . .
49(4) . . .
57(4) . . .
54(4) . . .
58(4) . . .
58(4) . . .
57(4) . . .
47(4) . . .
66(5) . . .
61(4) . . .
65(4) . . .
55(4) . . .
45(4) . . .
47(4) . . .
47(4) . . .
48(4) . . .
58(4) . . .
72(5) . . .
53(4) . . .
53(4) . . .
61(4) . . .
46(4) . . .
50(4) . . .
47(4) . . .
52(4) . . .
58(4) . . .
44(4) . . .
42(4) . . .
53(4) . . .
62(4) . . .
51(4) . . .
52(4) . . .
52(4) . . .
59(4) . . .
56(4) . . .
56(4) . . .
69(5) . . .
51(4) . . .
52(4) . . .
63(4) . . .
51(4) . . .
58(4) . . .
62(4) . . .
52(4) . . .
61(4) . . .
62(4) . . .
66(4) . . .
53(4) . . .
47(4) . . .
58(4) . . .
58(4) . . .
60(4) . . .
63(4) . . .
52(4) . . .
59(4) . . .
57(4) . . .
54(4) . . .
55(4) . . .
54(4) . . .
61(4) . . .
55(4) . . .
61(4) . . .
55(4) . . .
62(4) . . .
52(4) . . .
59(4) . . .
54(4) . . .
64(4) . . .
56(4) . . .
54(4) . . .
59(4) . . .
53(4) . . .
49(4) . . .
66(4) . . .
62(4) . . .
59(4) . . .
61(4) . . .
62(4) . . .
56(4) . . .
55(4) . . .
54(4) . . .
63(4) . . .
56(4) . . .
70(4) . . .
56(4) . . .
62(4) . . .
67(4) . . .
54(4) . . .
50(4) . . .
59(4) . . .
61(4) . . .
46(4) . . .
51(4) . . .
69(4) . . .
45(4) . . .
65(5) . . .
58(4) . . .
52(4) . . .
57(4) . . .
57(4) . . .
60(4) . . .
53(4) . . .
60(4) . . .
55(4) . . .
68(5) . . .
56(4) . . .
56(4) . . .
51(4) . . .
51(4) . . .
57(4) . . .
51(4) . . .
50(4) . . .
57(4) . . .
61(4) . . .
43(4) . . .
59(4) . . .
59(4) . . .
61(4) . . .
45.7(35) . . .
52(4) . . .
70(5) . . .
60(4) . . .
55(4) . . .
58(4) . . .
64(4) . . .
62(4) . . .
68(4) . . .
59(4) . . .
52(4) . . .
50(4) . . .
64(5) . . .
54(4) . . .
55(4) . . .
58(4) . . .
53(4) . . .
48(4) . . .
50(4) . . .
55(4) . . .
53(4) . . .
61(4) . . .
49(4) . . .
59(4) . . .
64(4) . . .
57(4) . . .
44.5(35) . . .
54(4) . . .
53(4) . . .
53(4) . . .
54(4) . . .
60(4) . . .
53(4) . . .
47(4) . . .
54(4) . . .
54(4) . . .
50(4) . . .
46(4) . . .
57(4) . . .
66(4) . . .
60(4) . . .
61(5) . . .
55(4) . . .
51(4) . . .
52(4) . . .
44(4) . . .
44(4) . . .
55(4) . . .
58(4) . . .
41.1(33) . . .
47(4) . . .
49(4) . . .
56(4) . . .
52(4) . . .
53(4) . . .
61(4) . . .
57(4) . . .
57(4) . . .
40.3(33) . . .
54(4) . . .
57(4) . . .
53(4) . . .
55(4) . . .
66(4) . . .
49(4) . . .
57(4) . . .
63(4) . . .
55(4) . . .
59(4) . . .
61(4) . . .
57(4) . . .
54(4) . . .
49(4) . . .
56(4) . . .
59(4) . . .
62(4) . . .
66(5) . . .
58(4) . . .
62(4) . . .
57(4) . . .
48(4) . . .
56(4) . . .
55(4) . . .
59(4) . . .
59(4) . . .
67(4) . . .
53(4) . . .
51(4) . . .
41.8(33) . . .
61(4) . . .
53(4) . . .
56(4) . . .
56(4) . . .
59(4) . . .
58(4) . . .
52(4) . . .
60(4) . . .
56(4) . . .
71(4) . . .
57(4) . . .
53(4) . . .
52(4) . . .
62(4) . . .
66(4) . . .
52(4) . . .
51(4) . . .
53(4) . . .
46(4) . . .
47(4) . . .
49(4) . . .
55(4) . . .
55(4) . . .
54(4) . . .
51(4) . . .
59(4) . . .
58(4) . . .
49(4) . . .
58(4) . . .
54(4) . . .
59(4) . . .
59(4) . . .
52(4) . . .
50(4) . . .
54(4) . . .
61(4) . . .
51(4) . . .
55(4) . . .
67(4) . . .
65(4) . . .
67(4) . . .
66(4) . . .
62(4) . . .
58(4) . . .
48(4) . . .
47(4) . . .
61(4) . . .
61(4) . . .
51(4) . . .
65(5) . . .
60(4) . . .
65(4) . . .
52(4) . . .
48(4) . . .
46(4) . . .
58(4) . . .
49(4) . . .
45.5(35) . . .
45(4) . . .
52(4) . . .
45(4) . . .
56(4) . . .
53(4) . . .
55(4) . . .
56(4) . . .
55(4) . . .
53(4) . . .
57(4) . . .
53(4) . . .
61(4) . . .
62(4) . . .
66(4) . . .
63(4) . . .
44.5(35) . . .
53(4) . . .
60(4) . . .
61(4) . . .
48(4) . . .
63(4) . . .
63(4) . . .
60(4) . . .
64(4) . . .
49(4) . . .
53(4) . . .
59(4) . . .
53(4) . . .
60(4) . . .
67(4) . . .
53(4) . . .
51(4) . . .
58(4) . . .
51(4) . . .
47(4) . . .
64(4) . . .
62(4) . . .
54(4) . . .
59(4) . . .
49(4) . . .
60(4) . . .
74(5) . . .
59(4) . . .
58(4) . . .
61(4) . . .
67(5) . . .
73(5) . . .
60(4) . . .
59(4) . . .
50(4) . . .
50(4) . . .
58(4) . . .
61(4) . . .
56(4) . . .
60(4) . . .
56(4) . . .
53(4) . . .
60(4) . . .
58(4) . . .
57(4) . . .
54(4) . . .
50(4) . . .
54(4) . . .
60(4) . . .
59(4) . . .
60(4) . . .
54(4) . . .
48(4) . . .
59(4) . . .
50(4) . . .
51(4) . . .
62(4) . . .
59(4) . . .
55(4) . . .
71(4) . . .
66(4) . . .
62(4) . . .
50(4) . . .
51(4) . . .
46(4) . . .
50(4) . . .
59(4) . . .
51(4) . . .
50(4) . . .
58(4) . . .
68(5) . . .
52(4) . . .
58(4) . . .
60(4) . . .
59(4) . . .
50(4) . . .
63(4) . . .
54(4) . . .
55(4) . . .
56(4) . . .
56(4) . . .
51(4) . . .
49(4) . . .
54(4) . . .
60(4) . . .
58(4) . . .
66(4) . . .
63(4) . . .
60(4) . . .
55(4) . . .
47(4) . . .
51(4) . . .
49(4) . . .
46(4) . . .
57(4) . . .
58(4) . . .
58(4) . . .
47(4) . . .
54(4) . . .
62(4) . . .
55(4) . . .
55(4) . . .
47(4) . . .
47(4) . . .
49(4) . . .
52(4) . . .
58(4) . . .
58(4) . . .
58(4) . . .
58(4) . . .
60(4) . . .
57(4) . . .
55(4) . . .
52(4) . . .
52(4) . . .
52(4) . . .
54(4) . . .
58(4) . . .
69(4) . . .
54(4) . . .
53(4) . . .
51(4) . . .
60(4) . . .
56(4) . . .
68(5) . . .
61(4) . . .
53(4) . . .
58(4) . . .
62(4) . . .
51(4) . . .
60(4) . . .
53(4) . . .
59(4) . . .
58(4) . . .
54(4) . . .
54(4) . . .
57(4) . . .
58(4) . . .
59(4) . . .
58(4) . . .
61(4) . . .
64(4) . . .
61(4) . . .
50(4) . . .
62(5) . . .
45(4) . . .
43.6(34) . . .
56(4) . . .
62(4) . . .
62(4) . . .
51(4) . . .
56(4) . . .
59(4) . . .
57(4) . . .
51(4) . . .
52(4) . . .
46(4) . . .
55(4) . . .
58(4) . . .
61(4) . . .
62(4) . . .
57(4) . . .
60(4) . . .
54(4) . . .
51(4) . . .
57(4) . . .
58(4) . . .
66(4) . . .
54(4) . . .
68(4) . . .
58(4) . . .
61(4) . . .
51(4) . . .
50(4) . . .
56(4) . . .
52(4) . . .
64(4) . . .
55(4) . . .
53(4) . . .
49(4) . . .
53(4) . . .
56(4) . . .
53(4) . . .
54(4) . . .
57(4) . . .
59(4) . . .
49(4) . . .
66(4) . . .
57(4) . . .
66(4) . . .
65(4) . . .
68(4) . . .
48(4) . . .
50(4) . . .
55(4) . . .
51(4) . . .
62(4) . . .
60(4) . . .
58(4) . . .
59(4) . . .
66(4) . . .
58(4) . . .
48(4) . . .
54(4) . . .
55(4) . . .
63(4) . . .
51(4) . . .
58(4) . . .
60(4) . . .
49(4) . . .
53(4) . . .
46(4) . . .
51(4) . . .
69(5) . . .
54(4) . . .
49(4) . . .
52(4) . . .
61(4) . . .
63(4) . . .
56(4) . . .
48(4) . . .
50(4) . . .
54(4) . . .
53(4) . . .
55(4) . . .
64(4) . . .
57(4) . . .
55(4) . . .
60(4) . . .
48(4) . . .
58(4) . . .
58(4) . . .
63(5) . . .
55(4) . . .
61(4) . . .
59(4) . . .
52(4) . . .
56(4) . . .
53(4) . . .
51(4) . . .
57(4) . . .
66(4) . . .
65(4) . . .
55(4) . . .
67(4) . . .
61(4) . . .
58(4) . . .
50(4) . . .
49(4) . . .
61(4) . . .
45(4) . . .
53(4) . . .
65(5) . . .
68(5) . . .
66(4) . . .
57(4) . . .
62(4) . . .
53(4) . . .
59(4) . . .
49(4) . . .
65(4) . . .
48(4) . . .
50(4) . . .
55(4) . . .
55(4) . . .
57(4) . . .
52(4) . . .
44(4) . . .
42.3(34) . . .
64(4) . . .
51(4) . . .
49(4) . . .
42(4) . . .
48(4) . . .
55(4) . . .
44(4) . . .
56(4) . . .
63(4) . . .
63(4) . . .
47(4) . . .
51(4) . . .
58(4) . . .
63(4) . . .
58(4) . . .
57(4) . . .
59(4) . . .
58(4) . . .
62(4) . . .
49(4) . . .
57(4) . . .
50(4) . . .
61(4) . . .
62(4) . . .
57(4) . . .
60(4) . . .
61(4) . . .
63(4) . . .
59(4) . . .
57(4) . . .
59(4) . . .
57(4) . . .
54(4) . . .
58(4) . . .
60(4) . . .
64(4) . . .
61(4) . . .
59(4) . . .
60(4) . . .
69(4) . . .
53(4) . . .
53(4) . . .
51(4) . . .
56(4) . . .
60(4) . . .
58(4) . . .
57(4) . . .
50(4) . . .
62(4) . . .
55(4) . . .
62(4) . . .
48(4) . . .
63(4) . . .
58(4) . . .
63(4) . . .
59(4) . . .
62(4) . . .
54(4) . . .
57(4) . . .
69(4) . . .
56(4) . . .
60(4) . . .
59(4) . . .
59(4) . . .
56(4) . . .
55(4) . . .
53(4) . . .
55(4) . . .
70(4) . . .
63(4) . . .
64(4) . . .
65(4) . . .
71(5) . . .
53(4) . . .
65(4) . . .
73(5) . . .
67(5) . . .
72(5) . . .
54(4) . . .
70(5) . . .
49(4) . . .
59(4) . . .
52(4) . . .
60(4) . . .
60(4) . . .
62(4) . . .
56(4) . . .
61(4) . . .
45.0(35) . . .
56(4) . . .
54(4) . . .
60(4) . . .
44(4) . . .
47(4) . . .
58(4) . . .
53(4) . . .
49(4) . . .
58(4) . . .
62(4) . . .
52(4) . . .
56(4) . . .
57(4) . . .
58(4) . . .
54(4) . . .
61(4) . . .
63(5) . . .
56(4) . . .
57(4) . . .
52(4) . . .
58(4) . . .
68(5) . . .
55(4) . . .
55(4) . . .
63(4) . . .
53(4) . . .
57(4) . . .
57(4) . . .
65(4) . . .
55(4) . . .
47(4) . . .
48(4) . . .
48(4) . . .
54(4) . . .
61(4) . . .
49(4) . . .
57(4) . . .
56(4) . . .
58(4) . . .
52(4) . . .
60(4) . . .
58(4) . . .
63(4) . . .
61(4) . . .
54(4) . . .
53(4) . . .
61(4) . . .
53(4) . . .
60(4) . . .
56(4) . . .
57(4) . . .
55(4) . . .
60(4) . . .
58(4) . . .
57(4) . . .
50(4) . . .
62(4) . . .
51(4) . . .
47(4) . . .
64(4) . . .
51(4) . . .
58(4) . . .
49(4) . . .
53(4) . . .
59(4) . . .
55(4) . . .
62(4) . . .
59(4) . . .
58(4) . . .
60(4) . . .
58(4) . . .
60(4) . . .
53(4) . . .
51(4) . . .
68(4) . . .
59(4) . . .
48(4) . . .
42.4(35) . . .
53(4) . . .
55(4) . . .
52(4) . . .
48(4) . . .
51(4) . . .
60(4) . . .
62(4) . . .
56(4) . . .
59(4) . . .
62(4) . . .
61(4) . . .
55(4) . . .
48(4) . . .
53(4) . . .
63(4) . . .
46(4) . . .
57(4) . . .
66(5) . . .
58(4) . . .
55(4) . . .
63(4) . . .
45.7(34) . . .
53(4) . . .
55(4) . . .
58(4) . . .
52(4) . . .
54(4) . . .
54(4) . . .
49(4) . . .
58(4) . . .
58(4) . . .
52(4) . . .
63(4) . . .
45(4) . . .
46(4) . . .
61(4) . . .
50(4) . . .
60(4) . . .
56(4) . . .
48(4) . . .
58(4) . . .
55(4) . . .
49(4) . . .
49(4) . . .
50(4) . . .
55(4) . . .
50(4) . . .
56(4) . . .
58(4) . . .
45.0(35) . . .
51(4) . . .
41.4(34) . . .
60(4) . . .
57(4) . . .
53(4) . . .
49(4) . . .
68(5) . . .
64(4) . . .
50(4) . . .
49(4) . . .
53(4) . . .
56(4) . . .
51(4) . . .
64(4) . . .
66(4) . . .
59(4) . . .
58(4) . . .
64(4) . . .
61(4) . . .
46(4) . . .
51(4) . . .
50(4) . . .
59(4) . . .
57(4) . . .
60(4) . . .
53(4) . . .
52(4) . . .
62(4) . . .
48(4) . . .
53(4) . . .
54(4) . . .
57(4) . . .
47(4) . . .
58(4) . . .
60(4) . . .
55(4) . . .
51(4) . . .
55(4) . . .
60(4) . . .
52(4) . . .
55(4) . . .
54(4) . . .
62(4) . . .
57(4) . . .
56(4) . . .
60(4) . . .
51(4) . . .
53(4) . . .
55(4) . . .
59(4) . . .
56(4) . . .
51(4) . . .
58(4) . . .
62(4) . . .
49(4) . . .
56(4) . . .
46(4) . . .
60(4) . . .
52(4) . . .
48(4) . . .
53(4) . . .
51(4) . . .
57(4) . . .
47(4) . . .
51(4) . . .
56(4) . . .
54(4) . . .
44.2(35) . . .
56(4) . . .
53(4) . . .
61(4) . . .
55(4) . . .
57(4) . . .
57(4) . . .
50(4) . . .
63(4) . . .
59(4) . . .
50(4) . . .
57(4) . . .
62(4) . . .
58(4) . . .
49(4) . . .
67(4) . . .
65(4) . . .
50(4) . . .
56(4) . . .
57(4) . . .
61(4) . . .
61(4) . . .
52(4) . . .
49(4) . . .
58(4) . . .
64(4) . . .
61(4) . . .
59(4) . . .
44.3(34) . . .
49(4) . . .
60(4) . . .
52(4) . . .
58(4) . . .
65(4) . . .
60(4) . . .
58(4) . . .
59(4) . . .
49(4) . . .
49(4) . . .
46(4) . . .
52(4) . . .
58(4) . . .
62(4) . . .
50(4) . . .
54(4) . . .
52(4) . . .
50(4) . . .
59(4) . . .
54(4) . . .
49(4) . . .
53(4) . . .
56(4) . . .
49(4) . . .
64(4) . . .
47(4) . . .
58(4) . . .
59(4) . . .
66(4) . . .
61(4) . . .
56(4) . . .
62(4) . . .
49(4) . . .
52(4) . . .
56(4) . . .
59(4) . . .
60(4) . . .
53(4) . . .
58(4) . . .
64(4) . . .
59(4) . . .
59(4) . . .
61(4) . . .
48(4) . . .
44.1(35) . . .
53(4) . . .
58(4) . . .
53(4) . . .
55(4) . . .
57(4) . . .
57(4) . . .
52(4) . . .
63(5) . . .
51(4) . . .
53(4) . . .
41.9(34) . . .
53(4) . . .
43(4) . . .
52(4) . . .
58(4) . . .
58(4) . . .
62(4) . . .
54(4) . . .
62(4) . . .
70(4) . . .
65(4) . . .
51(4) . . .
50(4) . . .
50(4) . . .
56(4) . . .
59(4) . . .
62(4) . . .
59(4) . . .
54(4) . . .
49(4) . . .
57(4) . . .
63(4) . . .
57(4) . . .
56(4) . . .
67(4) . . .
49(4) . . .
57(4) . . .
56(4) . . .
59(4) . . .
63(4) . . .
56(4) . . .
57(4) . . .
52(4) . . .
62(4) . . .
54(4) . . .
61(4) . . .
50(4) . . .
59(4) . . .
51(4) . . .
47(4) . . .
55(4) . . .
49(4) . . .
53(4) . . .
48(4) . . .
53(4) . . .
59(4) . . .
52(4) . . .
48(4) . . .
55(4) . . .
51(4) . . .
50(4) . . .
48(4) . . .
55(4) . . .
59(4) . . .
58(4) . . .
53(4) . . .
46(4) . . .
59(4) . . .
59(4) . . .
59(4) . . .
58(4) . . .
58(4) . . .
50(4) . . .
57(4) . . .
51(4) . . .
49(4) . . .
58(4) . . .
61(4) . . .
63(4) . . .
52(4) . . .
57(4) . . .
51(4) . . .
65(4) . . .
54(4) . . .
51(4) . . .
46(4) . . .
58(4) . . .
53(4) . . .
63(4) . . .
58(4) . . .
63(4) . . .
54(4) . . .
59(4) . . .
58(4) . . .
52(4) . . .
60(4) . . .
63(4) . . .
62(4) . . .
56(4) . . .
42.3(35) . . .
64(5) . . .
54(4) . . .
60(4) . . .
47(4) . . .
48(4) . . .
50(4) . . .
52(4) . . .
49(4) . . .
54(4) . . .
59(4) . . .
56(4) . . .
54(4) . . .
60(4) . . .
62(4) . . .
56(4) . . .
54(4) . . .
57(4) . . .
60(4) . . .
60(4) . . .
50(4) . . .
48(4) . . .
65(4) . . .
54(4) . . .
51(4) . . .
63(4) . . .
55(4) . . .
53(4) . . .
52(4) . . .
63(4) . . .
59(4) . . .
56(4) . . .
53(4) . . .
65(4) . . .
58(4) . . .
50(4) . . .
64(5) . . .
42.4(35) . . .
60(4) . . .
52(4) . . .
57(4) . . .
62(4) . . .
63(5) . . .
61(4) . . .
52(4) . . .
58(4) . . .
60(4) . . .
55(4) . . .
54(4) . . .
63(4) . . .
67(4) . . .
55(4) . . .
53(4) . . .
60(4) . . .
62(4) . . .
59(4) . . .
57(4) . . .
56(4) . . .
56(4) . . .
56(4) . . .
52(4) . . .
47(4) . . .
50(4) . . .
70(4) . . .
57(4) . . .
50(4) . . .
43.5(34) . . .
60(4) . . .
53(4) . . .
58(4) . . .
68(5) . . .
56(4) . . .
57(4) . . .
57(4) . . .
52(4) . . .
49(4) . . .
55(4) . . .
54(4) . . .
62(4) . . .
62(4) . . .
61(4) . . .
56(4) . . .
57(4) . . .
54(4) . . .
65(4) . . .
55(4) . . .
52(4) . . .
55(4) . . .
63(4) . . .
56(4) . . .
51(4) . . .
57(4) . . .
46(4) . . .
48(4) . . .
48(4) . . .
49(4) . . .
55(4) . . .
59(4) . . .
58(4) . . .
57(4) . . .
57(4) . . .
59(4) . . .
54(4) . . .
57(4) . . .
52(4) . . .
47(4) . . .
64(4) . . .
60(4) . . .
55(4) . . .
61(4) . . .
50(4) . . .
60(4) . . .
51(4) . . .
65(4) . . .
60(4) . . .
59(4) . . .
48(4) . . .
51(4) . . .
53(4) . . .
56(4) . . .
51(4) . . .
55(4) . . .
53(4) . . .
53(4) . . .
56(4) . . .
61(4) . . .
60(4) . . .
54(4) . . .
51(4) . . .
55(4) . . .
46(4) . . .
54(4) . . .
59(4) . . .
48(4) . . .
65(4) . . .
48(4) . . .
56(4) . . .
54(4) . . .
63(4) . . .
53(4) . . .
48(4) . . .
51(4) . . .
55(4) . . .
52(4) . . .
61(4) . . .
66(4) . . .
58(4) . . .
59(4) . . .
53(4) . . .
55(4) . . .
58(4) . . .
62(4) . . .
57(4) . . .
52(4) . . .
52(4) . . .
41.5(34) . . .
54(4) . . .
56(4) . . .
51(4) . . .
53(4) . . .
57(4) . . .
61(4) . . .
52(4) . . .
51(4) . . .
59(4) . . .
62(4) . . .
65(4) . . .
52(4) . . .
55(4) . . .
56(4) . . .
58(4) . . .
57(4) . . .
57(4) . . .
59(4) . . .
54(4) . . .
47(4) . . .
48(4) . . .
63(5) . . .
51(4) . . .
55(4) . . .
64(4) . . .
50(4) . . .
63(4) . . .
54(4) . . .
57(4) . . .
54(4) . . .
62(4) . . .
59(4) . . .
49(4) . . .
44(4) . . .
59(4) . . .
55(4) . . .
48(4) . . .
53(4) . . .
65(4) . . .
42.7(35) . . .
61(4) . . .
63(4) . . .
55(4) . . .
68(4) . . .
60(4) . . .
55(4) . . .
46(4) . . .
55(4) . . .
57(4) . . .
59(4) . . .
56(4) . . .
58(4) . . .
50(4) . . .
64(4) . . .
55(4) . . .
63(4) . . .
55(4) . . .
56(4) . . .
55(4) . . .
59(4) . . .
59(4) . . .
59(4) . . .
54(4) . . .
52(4) . . .
63(4) . . .
59(4) . . .
58(4) . . .
54(4) . . .
59(4) . . .
63(4) . . .
69(5) . . .
61(4) . . .
52(4) . . .
66(4) . . .
67(4) . . .
64(4) . . .
61(4) . . .
58(4) . . .
52(4) . . .
53(4) . . .
58(4) . . .
59(4) . . .
61(4) . . .
57(4) . . .
55(4) . . .
59(4) . . .
61(4) . . .
61(4) . . .
67(4) . . .
56(4) . . .
56(4) . . .
50(4) . . .
53(4) . . .
55(4) . . .
67(4) . . .
61(4) . . .
56(4) . . .
62(4) . . .
61(4) . . .
60(4) . . .
66(5) . . .
53(4) . . .
54(4) . . .
51(4) . . .
53(4) . . .
60(4) . . .
57(4) . . .
53(4) . . .
56(4) . . .
53(4) . . .
62(5) . . .
55(4) . . .
59(4) . . .
64(4) . . .
60(4) . . .
59(4) . . .
49(4) . . .
64(4) . . .
54(4) . . .
53(4) . . .
44(4) . . .
56(4) . . .
65(4) . . .
59(4) . . .
54(4) . . .
52(4) . . .
55(4) . . .
58(4) . . .
56(4) . . .
58(4) . . .
51(4) . . .
56(4) . . .
62(4) . . .
56(4) . . .
52(4) . . .
60(5) . . .
54(4) . . .
59(4) . . .
58(4) . . .
50(4) . . .
49(4) . . .
54(4) . . .
56(4) . . .
56(4) . . .
54(4) . . .
54(4) . . .
57(4) . . .
51(4) . . .
55(4) . . .
52(4) . . .
58(4) . . .
52(4) . . .
71(4) . . .
61(4) . . .
57(4) . . .
49(4) . . .
48(4) . . .
57(4) . . .
64(4) . . .
56(4) . . .
58(4) . . .
57(4) . . .
47(4) . . .
65(5) . . .
64(5) . . .
54(4) . . .
59(4) . . .
54(4) . . .
54(4) . . .
59(4) . . .
47(4) . . .
53(4) . . .
58(4) . . .
49(4) . . .
49(4) . . .
60(4) . . .
51(4) . . .
57(4) . . .
60(4) . . .
67(4) . . .
55(4) . . .
56(4) . . .
48(4) . . .
58(4) . . .
58(4) . . .
64(4) . . .
52(4) . . .
62(4) . . .
60(4) . . .
66(4) . . .
64(4) . . .
59(4) . . .
54(4) . . .
66(4) . . .
66(5) . . .
55(4) . . .
68(4) . . .
53(4) . . .
52(4) . . .
62(4) . . .
54(4) . . .
57(4) . . .
56(4) . . .
58(4) . . .
52(4) . . .
60(4) . . .
58(4) . . .
58(4) . . .
57(4) . . .
54(4) . . .
57(4) . . .
56(4) . . .
62(4) . . .
60(4) . . .
59(4) . . .
56(4) . . .
53(4) . . .
63(4) . . .
68(5) . . .
55(4) . . .
66(4) . . .
65(4) . . .
55(4) . . .
58(4) . . .
52(4) . . .
56(4) . . .
51(4) . . .
53(4) . . .
51(4) . . .
62(4) . . .
50(4) . . .
55(4) . . .
59(4) . . .
58(4) . . .
63(4) . . .
60(4) . . .
56(4) . . .
59(4) . . .
58(4) . . .
60(4) . . .
57(4) . . .
56(4) . . .
49(4) . . .
53(4) . . .
52(4) . . .
59(4) . . .
55(4) . . .
57(4) . . .
60(4) . . .
46(4) . . .
54(4) . . .
61(4) . . .
57(4) . . .
65(4) . . .
55(4) . . .
53(4) . . .
57(4) . . .
52(4) . . .
49(4) . . .
50(4) . . .
59(4) . . .
66(4) . . .
54(4) . . .
56(4) . . .
54(4) . . .
52(4) . . .
55(4) . . .
70(5) . . .
65(4) . . .
54(4) . . .
48(4) . . .
52(4) . . .
56(4) . . .
58(4) . . .
57(4) . . .
52(4) . . .
53(4) . . .
54(4) . . .
52(4) . . .
61(4) . . .
50(4) . . .
55(4) . . .
57(4) . . .
62(4) . . .
58(4) . . .
56(4) . . .
51(4) . . .
47(4) . . .
58(4) . . .
65(4) . . .
60(4) . . .
58(4) . . .
56(4) . . .
60(4) . . .
59(4) . . .
55(4) . . .
62(4) . . .
64(4) . . .
55(4) . . .
56(4) . . .
48(4) . . .
54(4) . . .
61(4) . . .
51(4) . . .
46(4) . . .
56(4) . . .
53(4) . . .
60(4) . . .
58(4) . . .
65(4) . . .
58(4) . . .
52(4) . . .
51(4) . . .
51(4) . . .
60(4) . . .
57(4) . . .
65(4) . . .
64(4) . . .
53(4) . . .
53(4) . . .
60(4) . . .
48(4) . . .
54(4) . . .
61(4) . . .
65(4) . . .
56(4) . . .
59(4) . . .
56(4) . . .
56(4) . . .
50(4) . . .
57(4) . . .
59(4) . . .
58(4) . . .
52(4) . . .
58(4) . . .
71(5) . . .
58(4) . . .
58(4) . . .
50(4) . . .
56(4) . . .
56(4) . . .
57(4) . . .
56(4) . . .
56(4) . . .
63(4) . . .
60(4) . . .
53(4) . . .
56(4) . . .
45.3(35) . . .
49(4) . . .
52(4) . . .
52(4) . . .
52(4) . . .
48(4) . . .
62(4) . . .
63(5) . . .
54(4) . . .
55(4) . . .
60(4) . . .
61(4) . . .
60(4) . . .
48(4) . . .
54(4) . . .
62(4) . . .
60(4) . . .
46(4) . . .
64(4) . . .
54(4) . . .
55(4) . . .
50(4) . . .
64(5) . . .
61(4) . . .
55(4) . . .
60(4) . . .
61(4) . . .
53(4) . . .
61(4) . . .
57(4) . . .
44(4) . . .
56(4) . . .
54(4) . . .
53(4) . . .
54(4) . . .
57(4) . . .
49(4) . . .
55(4) . . .
67(4) . . .
52(4) . . .
56(4) . . .
64(4) . . .
52(4) . . .
52(4) . . .
58(4) . . .
62(5) . . .
56(4) . . .
54(4) . . .
49(4) . . .
49(4) . . .
59(4) . . .
54(4) . . .
58(4) . . .
55(4) . . .
53(4) . . .
50(4) . . .
60(4) . . .
69(5) . . .
58(4) . . .
54(4) . . .
50(4) . . .
56(4) . . .
49(4) . . .
54(4) . . .
53(4) . . .
64(5) . . .
56(4) . . .
59(4) . . .
54(4) . . .
58(4) . . .
59(4) . . .
60(4) . . .
59(4) . . .
56(4) . . .
48(4) . . .
57(4) . . .
70(5) . . .
57(4) . . .
57(4) . . .
53(4) . . .
45(4) . . .
59(4) . . .
55(4) . . .
65(4) . . .
62(4) . . .
62(4) . . .
51(4) . . .
58(4) . . .
62(4) . . .
63(4) . . .
58(4) . . .
61(4) . . .
46(4) . . .
43.1(34) . . .
56(4) . . .
62(4) . . .
62(4) . . .
52(4) . . .
59(4) . . .
55(4) . . .
56(4) . . .
57(4) . . .
59(4) . . .
47(4) . . .
67(4) . . .
49(4) . . .
43(4) . . .
48(4) . . .
53(4) . . .
50(4) . . .
54(4) . . .
66(4) . . .
67(4) . . .
62(4) . . .
54(4) . . .
54(4) . . .
64(4) . . .
56(4) . . .
55(4) . . .
44.5(34) . . .
54(4) . . .
61(4) . . .
52(4) . . .
57(4) . . .
61(4) . . .
69(5) . . .
54(4) . . .
49(4) . . .
53(4) . . .
51(4) . . .
60(4) . . .
62(4) . . .
65(4) . . .
48(4) . . .
56(4) . . .
61(4) . . .
53(4) . . .
50(4) . . .
57(4) . . .
63(4) . . .
54(4) . . .
43(4) . . .
54(4) . . .
62(4) . . .
57(4) . . .
70(4) . . .
65(4) . . .
52(4) . . .
63(4) . . .
55(4) . . .
55(4) . . .
66(4) . . .
63(4) . . .
53(4) . . .
56(4) . . .
53(4) . . .
54(4) . . .
52(4) . . .
59(4) . . .
58(4) . . .
56(4) . . .
54(4) . . .
63(4) . . .
47(4) . . .
61(5) . . .
62(4) . . .
52(4) . . .
55(4) . . .
54(4) . . .
52(4) . . .
50(4) . . .
52(4) . . .
66(4) . . .
51(4) . . .
45(4) . . .
58(4) . . .
56(4) . . .
52(4) . . .
57(4) . . .
51(4) . . .
58(4) . . .
63(4) . . .
57(4) . . .
55(4) . . .
46(4) . . .
53(4) . . .
55(4) . . .
47(4) . . .
49(4) . . .
59(4) . . .
55(4) . . .
52(4) . . .
57(4) . . .
57(4) . . .
57(4) . . .
47(4) . . .
56(4) . . .
53(4) . . .
49(4) . . .
64(4) . . .
50(4) . . .
51(4) . . .
57(4) . . .
46(4) . . .
55(4) . . .
59(4) . . .
66(4) . . .
59(4) . . .
49(4) . . .
57(4) . . .
52(4) . . .
50(4) . . .
63(4) . . .
66(5) . . .
58(4) . . .
59(4) . . .
51(4) . . .
57(4) . . .
51(4) . . .
56(4) . . .
50(4) . . .
47(4) . . .
63(4) . . .
55(4) . . .
55(4) . . .
63(4) . . .
60(4) . . .
68(5) . . .
49(4) . . .
54(4) . . .
58(4) . . .
64(4) . . .
57(4) . . .
50(4) . . .
58(4) . . .
45.1(35) . . .
47(4) . . .
59(4) . . .
58(4) . . .
52(4) . . .
54(4) . . .
55(4) . . .
56(4) . . .
57(4) . . .
49(4) . . .
55(4) . . .
65(4) . . .
58(4) . . .
44(4) . . .
55(4) . . .
59(4) . . .
51(4) . . .
56(4) . . .
62(4) . . .
57(4) . . .
55(4) . . .
60(4) . . .
54(4) . . .
54(4) . . .
55(4) . . .
63(4) . . .
55(4) . . .
57(4) . . .
51(4) . . .
51(4) . . .
55(4) . . .
52(4) . . .
63(5) . . .
55(4) . . .
62(4) . . .
56(4) . . .
48(4) . . .
53(4) . . .
57(4) . . .
51(4) . . .
59(4) . . .
57(4) . . .
65(4) . . .
66(4) . . .
44(4) . . .
54(4) . . .
52(4) . . .
53(4) . . .
48(4) . . .
52(4) . . .
61(4) . . .
59(4) . . .
61(4) . . .
61(4) . . .
62(4) . . .
64(4) . . .
51(4) . . .
63(4) . . .
59(4) . . .
61(4) . . .
53(4) . . .
51(4) . . .
52(4) . . .
51(4) . . .
57(4) . . .
54(4) . . .
54(4) . . .
54(4) . . .
57(4) . . .
60(4) . . .
47(4) . . .
34.6(32) . . .
52(4) . . .
51(4) . . .
59(4) . . .
52(4) . . .
50(4) . . .
53(4) . . .
53(4) . . .
52(4) . . .
57(4) . . .
54(4) . . .
45(4) . . .
56(4) . . .
47(4) . . .
47(4) . . .
54(4) . . .
45(4) . . .
60(4) . . .
63(4) . . .
59(4) . . .
61(4) . . .
67(5) . . .
59(4) . . .
60(4) . . .
49(4) . . .
59(4) . . .
53(4) . . .
50(4) . . .
49(4) . . .
51(4) . . .
49(4) . . .
62(4) . . .
59(4) . . .
53(4) . . .
57(4) . . .
53(4) . . .
52(4) . . .
55(4) . . .
53(4) . . .
51(4) . . .
51(4) . . .
61(4) . . .
66(4) . . .
48(4) . . .
62(5) . . .
54(4) . . .
54(4) . . .
65(4) . . .
53(4) . . .
55(4) . . .
58(4) . . .
59(4) . . .
50(4) . . .
57(4) . . .
51(4) . . .
60(4) . . .
60(4) . . .
48(4) . . .
61(4) . . .
73(5) . . .
56(4) . . .
48(4) . . .
52(4) . . .
53(4) . . .
42(4) . . .
65(4) . . .
67(4) . . .
68(4) . . .
59(4) . . .
52(4) . . .
45(4) . . .
52(4) . . .
58(4) . . .
52(4) . . .
57(4) . . .
59(4) . . .
51(4) . . .
51(4) . . .
59(4) . . .
54(4) . . .
65(4) . . .
66(4) . . .
50(4) . . .
49(4) . . .
65(5) . . .
56(4) . . .
55(4) . . .
56(4) . . .
46(4) . . .
48(4) . . .
57(4) . . .
52(4) . . .
55(4) . . .
45.6(34) . . .
52(4) . . .
59(4) . . .
58(4) . . .
57(4) . . .
57(4) . . .
51(4) . . .
51(4) . . .
57(4) . . .
56(4) . . .
49(4) . . .
57(4) . . .
56(4) . . .
56(4) . . .
68(4) . . .
57(4) . . .
51(4) . . .
51(4) . . .
60(4) . . .
47(4) . . .
60(4) . . .
68(4) . . .
62(4) . . .
66(4) . . .
61(4) . . .
52(4) . . .
52(4) . . .
62(4) . . .
55(4) . . .
55(4) . . .
63(4) . . .
49(4) . . .
63(4) . . .
56(4) . . .
48(4) . . .
61(4) . . .
59(4) . . .
58(4) . . .
58(4) . . .
60(4) . . .
60(4) . . .
59(4) . . .
49(4) . . .
58(4) . . .
47(4) . . .
43.4(35) . . .
64(4) . . .
57(4) . . .
53(4) . . .
45(4) . . .
50(4) . . .
57(4) . . .
63(4) . . .
56(4) . . .
57(4) . . .
51(4) . . .
68(4) . . .
43.5(35) . . .
62(4) . . .
63(5) . . .
64(4) . . .
57(4) . . .
61(4) . . .
62(4) . . .
47(4) . . .
53(4) . . .
50(4) . . .
60(4) . . .
60(4) . . .
56(4) . . .
53(4) . . .
51(4) . . .
51(4) . . .
56(4) . . .
62(4) . . .
59(4) . . .
55(4) . . .
55(4) . . .
48(4) . . .
52(4) . . .
60(4) . . .
56(4) . . .
56(4) . . .
56(4) . . .
53(4) . . .
68(4) . . .
64(4) . . .
52(4) . . .
57(4) . . .
53(4) . . .
57(4) . . .
54(4) . . .
56(4) . . .
52(4) . . .
50(4) . . .
41.5(34) . . .
58(4) . . .
58(4) . . .
55(4) . . .
51(4) . . .
56(4) . . .
61(4) . . .
46(4) . . .
50(4) . . .
46(4) . . .
59(4) . . .
46(4) . . .
60(4) . . .
48(4) . . .
54(4) . . .
59(4) . . .
63(4) . . .
46(4) . . .
49(4) . . .
47(4) . . .
49(4) . . .
58(4) . . .
59(4) . . .
55(4) . . .
50(4) . . .
58(4) . . .
54(4) . . .
62(4) . . .
46(4) . . .
51(4) . . .
57(4) . . .
61(4) . . .
58(4) . . .
57(4) . . .
59(4) . . .
61(4) . . .
54(4) . . .
60(4) . . .
57(4) . . .
61(4) . . .
57(4) . . .
58(4) . . .
54(4) . . .
54(4) . . .
54(4) . . .
53(4) . . .
62(4) . . .
54(4) . . .
51(4) . . .
61(4) . . .
48(4) . . .
61(4) . . .
52(4) . . .
63(4) . . .
55(4) . . .
56(4) . . .
55(4) . . .
54(4) . . .
62(4) . . .
50(4) . . .
60(4) . . .
52(4) . . .
50(4) . . .
50(4) . . .
48(4) . . .
55(4) . . .
58(4) . . .
56(4) . . .
60(4) . . .
56(4) . . .
57(4) . . .
50(4) . . .
57(4) . . .
55(4) . . .
56(4) . . .
53(4) . . .
64(4) . . .
53(4) . . .
48(4) . . .
64(4) . . .
54(4) . . .
50(4) . . .
50(4) . . .
50(4) . . .
51(4) . . .
68(4) . . .
57(4) . . .
43(4) . . .
61(4) . . .
54(4) . . .
54(4) . . .
60(4) . . .
52(4) . . .
54(4) . . .
62(4) . . .
56(4) . . .
46(4) . . .
62(4) . . .
70(5) . . .
62(4) . . .
54(4) . . .
56(4) . . .
52(4) . . .
60(4) . . .
55(4) . . .
42.8(35) . . .
55(4) . . .
58(4) . . .
51(4) . . .
50(4) . . .
62(4) . . .
56(4) . . .
53(4) . . .
50(4) . . .
46(4) . . .
58(4) . . .
63(5) . . .
64(4) . . .
61(4) . . .
53(4) . . .
58(4) . . .
48(4) . . .
52(4) . . .
59(4) . . .
57(4) . . .
56(4) . . .
50(4) . . .
54(4) . . .
51(4) . . .
55(4) . . .
63(4) . . .
48(4) . . .
52(4) . . .
47(4) . . .
53(4) . . .
56(4) . . .
53(4) . . .
51(4) . . .
60(4) . . .
60(4) . . .
53(4) . . .
60(4) . . .
57(4) . . .
61(4) . . .
61(4) . . .
56(4) . . .
47(4) . . .
55(4) . . .
53(4) . . .
56(4) . . .
52(4) . . .
63(5) . . .
46(4) . . .
69(4) . . .
56(4) . . .
61(4) . . .
50(4) . . .
44.8(35) . . .
61(4) . . .
60(4) . . .
55(4) . . .
52(4) . . .
53(4) . . .
46(4) . . .
48(4) . . .
51(4) . . .
55(4) . . .
46.2(35) . . .
51(4) . . .
68(4) . . .
62(4) . . .
68(4) . . .
61(4) . . .
54(4) . . .
64(4) . . .
52(4) . . .
54(4) . . .
51(4) . . .
51(4) . . .
39.1(33) . . .
50(4) . . .
52(4) . . .
60(4) . . .
54(4) . . .
50(4) . . .
63(4) . . .
54(4) . . .
50(4) . . .
52(4) . . .
51(4) . . .
62(4) . . .
55(4) . . .
52(4) . . .
51(4) . . .
56(4) . . .
55(4) . . .
53(4) . . .
49(4) . . .
63(4) . . .
56(4) . . .
53(4) . . .
64(4) . . .
62(4) . . .
56(4) . . .
51(4) . . .
57(4) . . .
52(4) . . .
52(4) . . .
59(4) . . .
48(4) . . .
51(4) . . .
46(4) . . .
60(4) . . .
48(4) . . .
55(4) . . .
57(4) . . .
51(4) . . .
51(4) . . .
55(4) . . .
57(4) . . .
61(4) . . .
54(4) . . .
67(4) . . .
59(4) . . .
61(4) . . .
50(4) . . .
54(4) . . .
51(4) . . .
60(4) . . .
50(4) . . .
57(4) . . .
53(4) . . .
58(4) . . .
50(4) . . .
56(4) . . .
59(4) . . .
55(4) . . .
47(4) . . .
56(4) . . .
54(4) . . .
56(4) . . .
55(4) . . .
57(4) . . .
56(4) . . .
57(4) . . .
55(4) . . .
49(4) . . .
58(4) . . .
48(4) . . .
61(4) . . .
47(4) . . .
59(4) . . .
57(4) . . .
56(4) . . .
52(4) . . .
53(4) . . .
58(4) . . .
60(4) . . .
74(5) . . .
55(4) . . .
49(4) . . .
68(4) . . .
47(4) . . .
51(4) . . .
60(4) . . .
50(4) . . .
57(4) . . .
49(4) . . .
57(4) . . .
53(4) . . .
56(4) . . .
44.4(35) . . .
53(4) . . .
60(4) . . .
65(4) . . .
61(4) . . .
63(4) . . .
53(4) . . .
61(4) . . .
47(4) . . .
43.6(34) . . .
50(4) . . .
58(4) . . .
63(4) . . .
63(4) . . .
60(4) . . .
53(4) . . .
56(4) . . .
51(4) . . .
55(4) . . .
50(4) . . .
56(4) . . .
52(4) . . .
63(5) . . .
54(4) . . .
51(4) . . .
55(4) . . .
55(4) . . .
60(4) . . .
54(4) . . .
51(4) . . .
58(4) . . .
63(4) . . .
52(4) . . .
60(4) . . .
75(4) . . .
46(4) . . .
50(4) . . .
60(4) . . .
53(4) . . .
45.3(35) . . .
54(4) . . .
62(4) . . .
57(4) . . .
51(4) . . .
61(4) . . .
54(4) . . .
49(4) . . .
62(4) . . .
58(4) . . .
62(4) . . .
55(4) . . .
54(4) . . .
58(4) . . .
52(4) . . .
47(4) . . .
61(4) . . .
52(4) . . .
64(4) . . .
56(4) . . .
63(4) . . .
65(4) . . .
63(4) . . .
55(4) . . .
58(4) . . .
63(4) . . .
57(4) . . .
55(4) . . .
50(4) . . .
60(4) . . .
57(4) . . .
55(4) . . .
52(4) . . .
56(4) . . .
59(4) . . .
54(4) . . .
54(4) . . .
67(4) . . .
62(4) . . .
52(4) . . .
56(4) . . .
60(4) . . .
59(4) . . .
48(4) . . .
58(4) . . .
49(4) . . .
61(4) . . .
50(4) . . .
54(4) . . .
60(4) . . .
51(4) . . .
51(4) . . .
57(4) . . .
52(4) . . .
60(4) . . .
53(4) . . .
58(4) . . .
57(4) . . .
58(4) . . .
67(4) . . .
50(4) . . .
52(4) . . .
58(4) . . .
58(4) . . .
42.3(34) . . .
58(4) . . .
52(4) . . .
56(4) . . .
55(4) . . .
55(4) . . .
58(4) . . .
51(4) . . .
60(4) . . .
58(4) . . .
51(4) . . .
57(4) . . .
67(5) . . .
48(4) . . .
48(4) . . .
56(4) . . .
53(4) . . .
43(4) . . .
59(4) . . .
50(4) . . .
51(4) . . .
56(4) . . .
49(4) . . .
53(4) . . .
55(4) . . .
52(4) . . .
57(4) . . .
62(5) . . .
57(4) . . .
65(4) . . .
64(4) . . .
52(4) . . .
54(4) . . .
49(4) . . .
54(4) . . .
52(4) . . .
51(4) . . .
62(4) . . .
54(4) . . .
62(4) . . .
65(4) . . .
61(4) . . .
55(4) . . .
61(4) . . .
57(4) . . .
70(5) . . .
56(4) . . .
62(4) . . .
57(4) . . .
55(4) . . .
63(4) . . .
59(4) . . .
49(4) . . .
57(4) . . .
59(4) . . .
58(4) . . .
54(4) . . .
45(4) . . .
54(4) . . .
59(4) . . .
69(5) . . .
62(4) . . .
60(4) . . .
58(4) . . .
56(4) . . .
52(4) . . .
53(4) . . .
50(4) . . .
48(4) . . .
54(4) . . .
54(4) . . .
63(4) . . .
62(4) . . .
63(4) . . .
57(4) . . .
57(4) . . .
61(4) . . .
61(4) . . .
54(4) . . .
45(4) . . .
62(4) . . .
57(4) . . .
62(4) . . .
56(4) . . .
56(4) . . .
55(4) . . .
59(4) . . .
61(4) . . .
53(4) . . .
59(4) . . .
59(4) . . .
51(4) . . .
59(4) . . .
64(4) . . .
53(4) . . .
55(4) . . .
51(4) . . .
54(4) . . .
47(4) . . .
52(4) . . .
54(4) . . .
58(4) . . .
57(4) . . .
59(4) . . .
59(4) . . .
57(4) . . .
55(4) . . .
55(4) . . .
57(4) . . .
50(4) . . .
66(5) . . .
54(4) . . .
60(4) . . .
50(4) . . .
49(4) . . .
51(4) . . .
54(4) . . .
60(4) . . .
51(4) . . .
60(4) . . .
49(4) . . .
55(4) . . .
58(4) . . .
62(4) . . .
49(4) . . .
50(4) . . .
46(4) . . .
49(4) . . .
49(4) . . .
55(4) . . .
57(4) . . .
49(4) . . .
50(4) . . .
51(4) . . .
62(4) . . .
51(4) . . .
49(4) . . .
51(4) . . .
64(4) . . .
54(4) . . .
53(4) . . .
49(4) . . .
56(4) . . .
46(4) . . .
48(4) . . .
62(4) . . .
55(4) . . .
63(4) . . .
56(4) . . .
40.1(34) . . .
50(4) . . .
60(4) . . .
57(4) . . .
54(4) . . .
55(4) . . .
54(4) . . .
55(4) . . .
56(4) . . .
56(4) . . .
55(4) . . .
48(4) . . .
58(4) . . .
52(4) . . .
46(4) . . .
55(4) . . .
60(4) . . .
59(4) . . .
51(4) . . .
53(4) . . .
53(4) . . .
51(4) . . .
55(4) . . .
56(4) . . .
53(4) . . .
55(4) . . .
66(4) . . .
55(4) . . .
58(4) . . .
56(4) . . .
44(4) . . .
48(4) . . .
54(4) . . .
43.4(34) . . .
56(4) . . .
57(4) . . .
49(4) . . .
58(4) . . .
56(4) . . .
63(4) . . .
48(4) . . .
49(4) . . .
48(4) . . .
60(4) . . .
50(4) . . .
50(4) . . .
63(4) . . .
55(4) . . .
64(4) . . .
64(4) . . .
52(4) . . .
53(4) . . .
54(4) . . .
62(4) . . .
58(4) . . .
67(4) . . .
56(4) . . .
51(4) . . .
55(4) . . .
59(5) . . .
62(4) . . .
56(4) . . .
52(4) . . .
60(4) . . .
54(4) . . .
48(4) . . .
51(4) . . .
53(4) . . .
58(4) . . .
60(4) . . .
48(4) . . .
63(4) . . .
62(4) . . .
52(4) . . .
48(4) . . .
49(4) . . .
55(4) . . .
51(4) . . .
60(4) . . .
54(4) . . .
58(4) . . .
57(4) . . .
53(4) . . .
56(4) . . .
48(4) . . .
49(4) . . .
59(4) . . .
60(4) . . .
47(4) . . .
56(4) . . .
57(4) . . .
60(4) . . .
61(4) . . .
59(4) . . .
62(4) . . .
61(4) . . .
55(4) . . .
62(4) . . .
63(4) . . .
55(4) . . .
58(4) . . .
52(4) . . .
54(4) . . .
66(5) . . .
55(4) . . .
64(4) . . .
52(4) . . .
56(4) . . .
46(4) . . .
49(4) . . .
44.0(34) . . .
61(4) . . .
57(4) . . .
52(4) . . .
51(4) . . .
50(4) . . .
69(4) . . .
62(4) . . .
50(4) . . .
49(4) . . .
55(4) . . .
61(4) . . .
49(4) . . .
51(4) . . .
57(4) . . .
55(4) . . .
61(4) . . .
55(4) . . .
52(4) . . .
58(4) . . .
58(4) . . .
57(4) . . .
52(4) . . .
55(4) . . .
50(4) . . .
50(4) . . .
60(4) . . .
57(4) . . .
57(4) . . .
55(4) . . .
52(4) . . .
61(4) . . .
53(4) . . .
47(4) . . .
50(4) . . .
70(4) . . .
53(4) . . .
59(4) . . .
60(4) . . .
49(4) . . .
44.9(35) . . .
56(4) . . .
50(4) . . .
55(4) . . .
48(4) . . .
50(4) . . .
59(4) . . .
61(4) . . .
60(4) . . .
49(4) . . .
58(4) . . .
60(4) . . .
63(4) . . .
55(4) . . .
58(4) . . .
59(4) . . .
53(4) . . .
60(4) . . .
47(4) . . .
53(4) . . .
57(4) . . .
60(4) . . .
56(4) . . .
54(4) . . .
56(4) . . .
55(4) . . .
44.8(34) . . .
58(4) . . .
64(4) . . .
68(4) . . .
52(4) . . .
57(4) . . .
56(4) . . .
61(4) . . .
56(4) . . .
58(4) . . .
46(4) . . .
54(4) . . .
47(4) . . .
48(4) . . .
53(4) . . .
50(4) . . .
52(4) . . .
55(4) . . .
56(4) . . .
45(4) . . .
52(4) . . .
62(4) . . .
56(4) . . .
56(4) . . .
59(4) . . .
57(4) . . .
55(4) . . .
49(4) . . .
57(4) . . .
63(4) . . .
53(4) . . .
60(4) . . .
56(4) . . .
46(4) . . .
55(4) . . .
58(4) . . .
62(4) . . .
63(4) . . .
62(4) . . .
57(4) . . .
57(4) . . .
58(4) . . .
61(4) . . .
55(4) . . .
57(4) . . .
60(4) . . .
59(4) . . .
53(4) . . .
44.3(34) . . .
54(4) . . .
52(4) . . .
43(4) . . .
56(4) . . .
61(4) . . .
55(4) . . .
56(4) . . .
52(4) . . .
56(4) . . .
53(4) . . .
53(4) . . .
55(4) . . .
51(4) . . .
55(4) . . .
64(4) . . .
55(4) . . .
60(4) . . .
68(4) . . .
46(4) . . .
55(4) . . .
54(4) . . .
62(4) . . .
54(4) . . .
49(4) . . .
43.4(35) . . .
57(4) . . .
57(4) . . .
43.2(34) . . .
47(4) . . .
55(4) . . .
54(4) . . .
59(4) . . .
57(4) . . .
58(4) . . .
59(4) . . .
58(4) . . .
51(4) . . .
57(4) . . .
63(4) . . .
57(4) . . .
53(4) . . .
48(4) . . .
49(4) . . .
55(4) . . .
60(4) . . .
53(4) . . .
55(4) . . .
48(4) . . .
57(4) . . .
55(4) . . .
55(4) . . .
61(4) . . .
51(4) . . .
54(4) . . .
57(4) . . .
58(4) . . .
54(4) . . .
51(4) . . .
57(4) . . .
57(4) . . .
57(4) . . .
57(4) . . .
43.6(34) . . .
46(4) . . .
57(4) . . .
57(4) . . .
50(4) . . .
53(4) . . .
58(4) . . .
58(4) . . .
53(4) . . .
55(4) . . .
58(4) . . .
58(4) . . .
50(4) . . .
48(4) . . .
47(4) . . .
58(4) . . .
54(4) . . .
57(4) . . .
51(4) . . .
53(4) . . .
50(4) . . .
53(4) . . .
51(4) . . .
53(4) . . .
52(4) . . .
60(4) . . .
58(4) . . .
50(4) . . .
49(4) . . .
63(4) . . .
69(4) . . .
61(4) . . .
45(4) . . .
57(4) . . .
41.8(33) . . .
52(4) . . .
50(4) . . .
52(4) . . .
58(4) . . .
64(4) . . .
64(4) . . .
55(4) . . .
58(4) . . .
60(4) . . .
65(4) . . .
59(4) . . .
62(4) . . .
62(4) . . .
53(4) . . .
64(4) . . .
55(4) . . .
53(4) . . .
48(4) . . .
56(4) . . .
50(4) . . .
52(4) . . .
55(4) . . .
59(4) . . .
56(4) . . .
48(4) . . .
55(4) . . .
58(4) . . .
53(4) . . .
58(4) . . .
43.9(34) . . .
55(4) . . .
54(4) . . .
52(4) . . .
66(4) . . .
58(4) . . .
53(4) . . .
50(4) . . .
57(4) . . .
49(4) . . .
50(4) . . .
60(4) . . .
65(5) . . .
46(4) . . .
57(4) . . .
63(4) . . .
60(4) . . .
47(4) . . .
54(4) . . .
60(4) . . .
60(4) . . .
60(4) . . .
68(4) . . .
50(4) . . .
55(4) . . .
57(4) . . .
48(4) . . .
46(4) . . .
52(4) . . .
59(4) . . .
59(4) . . .
53(4) . . .
49(4) . . .
60(4) . . .
52(4) . . .
47(4) . . .
47(4) . . .
47(4) . . .
44.9(35) . . .
47(4) . . .
48(4) . . .
46(4) . . .
54(4) . . .
51(4) . . .
64(4) . . .
47(4) . . .
52(4) . . .
52(4) . . .
67(4) . . .
64(4) . . .
54(4) . . .
70(5) . . .
53(4) . . .
50(4) . . .
44.0(35) . . .
52(4) . . .
54(4) . . .
52(4) . . .
56(4) . . .
51(4) . . .
46(4) . . .
51(4) . . .
54(4) . . .
55(4) . . .
56(4) . . .
53(4) . . .
50(4) . . .
52(4) . . .
59(4) . . .
54(4) . . .
47(4) . . .
53(4) . . .
64(4) . . .
58(4) . . .
56(4) . . .
51(4) . . .
61(4) . . .
65(4) . . .
53(4) . . .
60(4) . . .
69(5) . . .
52(4) . . .
54(4) . . .
56(4) . . .
69(4) . . .
57(4) . . .
57(4) . . .
59(4) . . .
59(4) . . .
43(4) . . .
53(4) . . .
58(4) . . .
60(4) . . .
67(4) . . .
59(4) . . .
51(4) . . .
58(4) . . .
57(4) . . .
52(4) . . .
46(4) . . .
58(4) . . .
63(4) . . .
63(4) . . .
48(4) . . .
53(4) . . .
55(4) . . .
51(4) . . .
56(4) . . .
54(4) . . .
67(4) . . .
56(4) . . .
54(4) . . .
46.6(35) . . .
62(4) . . .
49(4) . . .
62(4) . . .
57(4) . . .
57(4) . . .
54(4) . . .
65(5) . . .
56(4) . . .
59(4) . . .
59(4) . . .
55(4) . . .
54(4) . . .
60(4) . . .
59(4) . . .
53(4) . . .
45(4) . . .
46(4) . . .
60(4) . . .
46(4) . . .
46.0(35) . . .
55(4) . . .
49(4) . . .
53(4) . . .
51(4) . . .
47(4) . . .
59(4) . . .
51(4) . . .
59(4) . . .
48(4) . . .
61(4) . . .
69(4) . . .
60(4) . . .
49(4) . . .
66(4) . . .
53(4) . . .
48(4) . . .
64(4) . . .
66(4) . . .
56(4) . . .
54(4) . . .
54(4) . . .
64(4) . . .
55(4) . . .
60(4) . . .
52(4) . . .
54(4) . . .
49(4) . . .
64(5) . . .
59(4) . . .
55(4) . . .
50(4) . . .
57(4) . . .
55(4) . . .
53(4) . . .
56(4) . . .
53(4) . . .
55(4) . . .
55(4) . . .
48(4) . . .
52(4) . . .
54(4) . . .
55(4) . . .
57(4) . . .
53(4) . . .
50(4) . . .
50(4) . . .
57(4) . . .
47(4) . . .
58(4) . . .
58(4) . . .
53(4) . . .
48(4) . . .
52(4) . . .
50(4) . . .
67(4) . . .
63(4) . . .
58(4) . . .
55(4) . . .
62(4) . . .
54(4) . . .
59(4) . . .
57(4) . . .
56(4) . . .
53(4) . . .
59(4) . . .
51(4) . . .
57(4) . . .
54(4) . . .
54(4) . . .
54(4) . . .
53(4) . . .
49(4) . . .
56(4) . . .
64(4) . . .
61(4) . . .
52(4) . . .
52(4) . . .
61(4) . . .
57(4) . . .
60(4) . . .
59(4) . . .
58(4) . . .
51(4) . . .
71(4) . . .
50(4) . . .
63(4) . . .
60(4) . . .
59(4) . . .
57(4) . . .
54(4) . . .
57(4) . . .
63(4) . . .
52(4) . . .
56(4) . . .
51(4) . . .
56(4) . . .
51(4) . . .
53(4) . . .
46(4) . . .
51(4) . . .
62(4) . . .
52(4) . . .
52(4) . . .
48(4) . . .
55(4) . . .
61(4) . . .
51(4) . . .
61(4) . . .
53(4) . . .
59(4) . . .
58(4) . . .
53(4) . . .
51(4) . . .
62(4) . . .
56(4) . . .
57(4) . . .
60(4) . . .
58(4) . . .
50(4) . . .
52(4) . . .
68(4) . . .
63(4) . . .
45.2(35) . . .
55(4) . . .
53(4) . . .
60(4) . . .
57(4) . . .
54(4) . . .
59(4) . . .
54(4) . . .
67(4) . . .
63(4) . . .
46.8(35) . . .
56(4) . . .
54(4) . . .
53(4) . . .
62(4) . . .
64(4) . . .
51(4) . . .
44(4) . . .
48(4) . . .
53(4) . . .
56(4) . . .
46.3(34) . . .
50(4) . . .
47(4) . . .
55(4) . . .
61(4) . . .
54(4) . . .
54(4) . . .
70(5) . . .
44.9(35) . . .
45(4) . . .
55(4) . . .
49(4) . . .
55(4) . . .
54(4) . . .
55(4) . . .
57(4) . . .
50(4) . . .
59(4) . . .
56(4) . . .
54(4) . . .
50(4) . . .
47(4) . . .
53(4) . . .
62(4) . . .
53(4) . . .
52(4) . . .
45.4(34) . . .
46(4) . . .
52(4) . . .
58(4) . . .
60(5) . . .
48(4) . . .
55(4) . . .
59(4) . . .
59(4) . . .
62(4) . . .
52(4) . . .
63(4) . . .
55(4) . . .
51(4) . . .
64(5) . . .
58(4) . . .
60(4) . . .
62(4) . . .
58(4) . . .
63(4) . . .
52(4) . . .
60(4) . . .
57(4) . . .
58(4) . . .
64(4) . . .
54(4) . . .
57(4) . . .
54(4) . . .
58(4) . . .
58(4) . . .
47(4) . . .
54(4) . . .
49(4) . . .
41.2(35) . . .
53(4) . . .
52(4) . . .
57(4) . . .
56(4) . . .
55(4) . . .
59(4) . . .
51(4) . . .
62(4) . . .
56(4) . . .
55(4) . . .
49(4) . . .
56(4) . . .
58(4) . . .
58(4) . . .
52(4) . . .
46(4) . . .
48(4) . . .
54(4) . . .
58(4) . . .
51(4) . . .
55(4) . . .
47(4) . . .
61(4) . . .
54(4) . . .
50(4) . . .
52(4) . . .
59(4) . . .
56(4) . . .
50(4) . . .
60(4) . . .
58(4) . . .
57(4) . . .
52(4) . . .
46(4) . . .
47(4) . . .
52(4) . . .
52(4) . . .
50(4) . . .
58(4) . . .
57(4) . . .
55(4) . . .
54(4) . . .
51(4) . . .
53(4) . . .
52(4) . . .
49(4) . . .
61(4) . . .
56(4) . . .
48(4) . . .
51(4) . . .
51(4) . . .
52(4) . . .
55(4) . . .
53(4) . . .
52(4) . . .
51(4) . . .
53(4) . . .
52(4) . . .
54(4) . . .
62(4) . . .
57(4) . . .
52(4) . . .
64(4) . . .
54(4) . . .
68(4) . . .
51(4) . . .
53(4) . . .
63(4) . . .
52(4) . . .
52(4) . . .
59(4) . . .
55(4) . . .
53(4) . . .
47(4) . . .
43.9(35) . . .
51(4) . . .
53(4) . . .
51(4) . . .
54(4) . . .
59(4) . . .
60(4) . . .
42.3(34) . . .
52(4) . . .
54(4) . . .
49(4) . . .
55(4) . . .
52(4) . . .
63(4) . . .
54(4) . . .
45(4) . . .
48(4) . . .
47(4) . . .
39.3(34) . . .
57(4) . . .
54(4) . . .
56(4) . . .
59(4) . . .
51(4) . . .
47(4) . . .
57(4) . . .
58(4) . . .
49(4) . . .
54(4) . . .
64(4) . . .
58(4) . . .
55(4) . . .
59(4) . . .
57(4) . . .
59(4) . . .
57(4) . . .
55(4) . . .
57(4) . . .
47(4) . . .
55(4) . . .
45.7(35) . . .
55(4) . . .
42.5(34) . . .
58(4) . . .
66(4) . . .
54(4) . . .
47(4) . . .
53(4) . . .
57(4) . . .
50(4) . . .
59(4) . . .
49(4) . . .
59(4) . . .
45(4) . . .
49(4) . . .
54(4) . . .
48(4) . . .
58(4) . . .
67(5) . . .
61(5) . . .
57(4) . . .
51(4) . . .
47(4) . . .
43(4) . . .
48(4) . . .
60(4) . . .
50(4) . . .
56(4) . . .
55(4) . . .
53(4) . . .
55(4) . . .
53(4) . . .
57(4) . . .
64(4) . . .
56(4) . . .
51(4) . . .
54(4) . . .
59(4) . . .
56(4) . . .
57(4) . . .
52(4) . . .
48(4) . . .
54(4) . . .
49(4) . . .
59(4) . . .
59(4) . . .
45.9(34) . . .
54(4) . . .
52(4) . . .
53(4) . . .
56(4) . . .
61(4) . . .
52(4) . . .
57(4) . . .
59(4) . . .
43(4) . . .
57(4) . . .
54(4) . . .
53(4) . . .
58(4) . . .
56(4) . . .
53(4) . . .
58(4) . . .
57(4) . . .
54(4) . . .
56(4) . . .
62(4) . . .
63(5) . . .
58(4) . . .
49(4) . . .
53(4) . . .
50(4) . . .
57(4) . . .
49(4) . . .
54(4) . . .
51(4) . . .
56(4) . . .
48(4) . . .
49(4) . . .
47(4) . . .
49(4) . . .
51(4) . . .
51(4) . . .
63(4) . . .
55(4) . . .
53(4) . . .
48(4) . . .
53(4) . . .
41.5(34) . . .
53(4) . . .
47(4) . . .
44(4) . . .
50(4) . . .
54(4) . . .
41.9(34) . . .
47(4) . . .
54(4) . . .
46(4) . . .
53(4) . . .
63(4) . . .
62(4) . . .
56(4) . . .
44.5(35) . . .
63(4) . . .
62(4) . . .
64(4) . . .
54(4) . . .
55(4) . . .
60(4) . . .
59(4) . . .
63(4) . . .
58(4) . . .
56(4) . . .
58(4) . . .
59(4) . . .
66(4) . . .
53(4) . . .
51(4) . . .
50(4) . . .
51(4) . . .
49(4) . . .
52(4) . . .
59(4) . . .
57(4) . . .
69(4) . . .
67(4) . . .
60(4) . . .
59(4) . . .
51(4) . . .
50(4) . . .
55(4) . . .
59(4) . . .
52(4) . . .
52(4) . . .
59(4) . . .
49(4) . . .
59(4) . . .
52(4) . . .
53(4) . . .
56(4) . . .
53(4) . . .
51(4) . . .
50(4) . . .
61(4) . . .
53(4) . . .
59(4) . . .
55(4) . . .
52(4) . . .
59(4) . . .
61(4) . . .
59(4) . . .
65(4) . . .
60(4) . . .
50(4) . . .
51(4) . . .
56(4) . . .
58(4) . . .
50(4) . . .
55(4) . . .
54(4) . . .
50(4) . . .
54(4) . . .
63(4) . . .
57(4) . . .
56(4) . . .
54(4) . . .
47(4) . . .
49(4) . . .
48(4) . . .
52(4) . . .
48(4) . . .
58(4) . . .
57(4) . . .
45(4) . . .
44(4) . . .
54(4) . . .
60(4) . . .
49(4) . . .
48(4) . . .
60(4) . . .
60(4) . . .
54(4) . . .
56(4) . . .
59(4) . . .
51(4) . . .
51(4) . . .
63(4) . . .
57(4) . . .
52(4) . . .
58(4) . . .
60(4) . . .
49(4) . . .
52(4) . . .
43(4) . . .
48(4) . . .
63(4) . . .
61(4) . . .
56(4) . . .
58(4) . . .
59(4) . . .
60(4) . . .
52(4) . . .
57(4) . . .
49(4) . . .
52(4) . . .
54(4) . . .
48(4) . . .
53(4) . . .
51(4) . . .
56(4) . . .
55(4) . . .
60(4) . . .
49(4) . . .
55(4) . . .
55(4) . . .
48(4) . . .
52(4) . . .
57(4) . . .
48(4) . . .
54(4) . . .
60(4) . . .
44.3(35) . . .
50(4) . . .
55(4) . . .
49(4) . . .
52(4) . . .
46(4) . . .
45(4) . . .
49(4) . . .
59(4) . . .
54(4) . . .
45.3(35) . . .
51(4) . . .
59(4) . . .
61(4) . . .
54(4) . . .
50(4) . . .
52(4) . . .
49(4) . . .
57(4) . . .
65(4) . . .
61(4) . . .
45(4) . . .
53(4) . . .
56(4) . . .
52(4) . . .
56(4) . . .
38.2(32) . . .
50(4) . . .
50(4) . . .
54(4) . . .
59(4) . . .
58(4) . . .
52(4) . . .
54(4) . . .
59(4) . . .
62(4) . . .
56(4) . . .
59(4) . . .
55(4) . . .
57(4) . . .
62(4) . . .
52(4) . . .
50(4) . . .
51(4) . . .
48(4) . . .
60(4) . . .
56(4) . . .
57(4) . . .
57(4) . . .
57(4) . . .
60(4) . . .
50(4) . . .
50(4) . . .
50(4) . . .
52(4) . . .
55(4) . . .
53(4) . . .
41.9(35) . . .
52(4) . . .
58(4) . . .
60(4) . . .
47(4) . . .
47(4) . . .
59(4) . . .
52(4) . . .
50(4) . . .
49(4) . . .
59(4) . . .
54(4) . . .
63(4) . . .
59(4) . . .
57(4) . . .
59(4) . . .
68(4) . . .
53(4) . . .
51(4) . . .
63(5) . . .
57(4) . . .
53(4) . . .
55(4) . . .
57(4) . . .
59(4) . . .
53(4) . . .
56(4) . . .
56(4) . . .
52(4) . . .
59(4) . . .
54(4) . . .
54(4) . . .
48(4) . . .
55(4) . . .
49(4) . . .
41.8(35) . . .
44.2(35) . . .
58(4) . . .
54(4) . . .
49(4) . . .
56(4) . . .
55(4) . . .
43.7(34) . . .
45(4) . . .
47(4) . . .
56(4) . . .
65(4) . . .
57(4) . . .
58(4) . . .
62(5) . . .
44(4) . . .
47(4) . . .
56(4) . . .
40.3(32) . . .
48(4) . . .
47(4) . . .
49(4) . . .
55(4) . . .
43.4(35) . . .
56(4) . . .
59(4) . . .
52(4) . . .
58(4) . . .
54(4) . . .
54(4) . . .
51(4) . . .
47(4) . . .
47(4) . . .
51(4) . . .
54(4) . . .
52(4) . . .
56(4) . . .
46(4) . . .
54(4) . . .
59(4) . . .
54(4) . . .
52(4) . . .
58(4) . . .
47(4) . . .
56(4) . . .
58(4) . . .
52(4) . . .
50(4) . . .
55(4) . . .
56(4) . . .
51(4) . . .
50(4) . . .
45.9(35) . . .
56(4) . . .
64(4) . . .
53(4) . . .
47(4) . . .
52(4) . . .
60(4) . . .
49(4) . . .
47(4) . . .
56(4) . . .
51(4) . . .
55(4) . . .
69(5) . . .
64(4) . . .
47(4) . . .
55(4) . . .
51(4) . . .
56(4) . . .
57(4) . . .
54(4) . . .
54(4) . . .
49(4) . . .
54(4) . . .
62(4) . . .
53(4) . . .
47(4) . . .
54(4) . . .
51(4) . . .
51(4) . . .
62(4) . . .
59(4) . . .
50(4) . . .
55(4) . . .
73(4) . . .
55(4) . . .
48(4) . . .
53(4) . . .
57(4) . . .
48(4) . . .
53(4) . . .
43(4) . . .
53(4) . . .
50(4) . . .
55(4) . . .
54(4) . . .
61(4) . . .
50(4) . . .
53(4) . . .
58(4) . . .
57(4) . . .
53(4) . . .
61(4) . . .
59(4) . . .
54(4) . . .
54(4) . . .
50(4) . . .
49(4) . . .
53(4) . . .
55(4) . . .
60(4) . . .
60(4) . . .
47(4) . . .
54(4) . . .
56(4) . . .
46(4) . . .
46(4) . . .
56(4) . . .
53(4) . . .
54(4) . . .
65(4) . . .
56(4) . . .
51(4) . . .
54(4) . . .
59(4) . . .
54(4) . . .
49(4) . . .
58(4) . . .
51(4) . . .
54(4) . . .
56(4) . . .
61(4) . . .
55(4) . . .
51(4) . . .
47(4) . . .
53(4) . . .
51(4) . . .
52(4) . . .
47(4) . . .
58(4) . . .
55(4) . . .
67(4) . . .
60(4) . . .
47(4) . . .
55(4) . . .
48(4) . . .
50(4) . . .
50(4) . . .
52(4) . . .
47(4) . . .
54(4) . . .
58(4) . . .
59(4) . . .
51(4) . . .
50(4) . . .
53(4) . . .
62(4) . . .
51(4) . . .
59(4) . . .
51(4) . . .
54(4) . . .
56(4) . . .
55(4) . . .
57(4) . . .
48(4) . . .
43(4) . . .
51(4) . . .
42.7(34) . . .
48(4) . . .
60(4) . . .
58(4) . . .
60(4) . . .
51(4) . . .
55(4) . . .
53(4) . . .
56(4) . . .
61(4) . . .
51(4) . . .
51(4) . . .
57(4) . . .
55(4) . . .
49(4) . . .
67(4) . . .
56(4) . . .
48(4) . . .
46(4) . . .
50(4) . . .
53(4) . . .
64(5) . . .
56(4) . . .
58(4) . . .
47(4) . . .
50(4) . . .
64(4) . . .
62(4) . . .
54(4) . . .
59(4) . . .
65(4) . . .
57(4) . . .
51(4) . . .
51(4) . . .
70(4) . . .
54(4) . . .
46(4) . . .
51(4) . . .
45(4) . . .
63(4) . . .
51(4) . . .
44.2(34) . . .
44(4) . . .
43(4) . . .
54(4) . . .
58(4) . . .
63(4) . . .
58(4) . . .
54(4) . . .
50(4) . . .
49(4) . . .
57(4) . . .
59(4) . . .
50(4) . . .
55(4) . . .
50(4) . . .
52(4) . . .
52(4) . . .
50(4) . . .
54(4) . . .
50(4) . . .
50(4) . . .
52(4) . . .
51(4) . . .
60(4) . . .
56(4) . . .
48(4) . . .
54(4) . . .
48(4) . . .
50(4) . . .
51(4) . . .
61(4) . . .
61(4) . . .
57(4) . . .
54(4) . . .
46.1(35) . . .
54(4) . . .
39.4(32) . . .
50(4) . . .
49(4) . . .
51(4) . . .
57(4) . . .
59(4) . . .
53(4) . . .
50(4) . . .
53(4) . . .
53(4) . . .
49(4) . . .
50(4) . . .
59(4) . . .
54(4) . . .
57(4) . . .
54(4) . . .
54(4) . . .
54(4) . . .
56(4) . . .
51(4) . . .
63(5) . . .
47(4) . . .
47(4) . . .
63(5) . . .
64(4) . . .
56(4) . . .
54(4) . . .
54(4) . . .
57(4) . . .
52(4) . . .
50(4) . . .
56(4) . . .
52(4) . . .
49(4) . . .
52(4) . . .
46.3(35) . . .
57(4) . . .
54(4) . . .
63(4) . . .
63(4) . . .
53(4) . . .
51(4) . . .
58(4) . . .
54(4) . . .
57(4) . . .
54(4) . . .
56(4) . . .
54(4) . . .
47(4) . . .
52(4) . . .
59(4) . . .
47(4) . . .
54(4) . . .
51(4) . . .
52(4) . . .
55(4) . . .
46(4) . . .
51(4) . . .
53(4) . . .
51(4) . . .
54(4) . . .
53(4) . . .
52(4) . . .
64(5) . . .
53(4) . . .
50(4) . . .
52(4) . . .
60(4) . . .
63(4) . . .
59(4) . . .
50(4) . . .
56(4) . . .
54(4) . . .
57(4) . . .
58(4) . . .
58(4) . . .
58(4) . . .
58(4) . . .
52(4) . . .
62(4) . . .
52(4) . . .
54(4) . . .
48(4) . . .
60(4) . . .
53(4) . . .
59(4) . . .
72(5) . . .
66(4) . . .
49(4) . . .
53(4) . . .
57(4) . . .
51(4) . . .
52(4) . . .
48(4) . . .
57(4) . . .
55(4) . . .
57(4) . . .
54(4) . . .
55(4) . . .
44.5(35) . . .
47(4) . . .
46(4) . . .
61(4) . . .
49(4) . . .
58(4) . . .
51(4) . . .
53(4) . . .
56(4) . . .
62(4) . . .
51(4) . . .
54(4) . . .
50(4) . . .
59(4) . . .
56(4) . . .
49(4) . . .
58(4) . . .
52(4) . . .
50(4) . . .
56(4) . . .
55(4) . . .
53(4) . . .
59(4) . . .
60(4) . . .
58(4) . . .
51(4) . . .
43.7(34) . . .
55(4) . . .
50(4) . . .
53(4) . . .
62(4) . . .
45(4) . . .
63(5) . . .
48(4) . . .
53(4) . . .
67(4) . . .
50(4) . . .
53(4) . . .
55(4) . . .
59(4) . . .
55(4) . . .
45(4) . . .
51(4) . . .
46(4) . . .
59(4) . . .
53(4) . . .
58(4) . . .
50(4) . . .
44(4) . . .
56(4) . . .
48(4) . . .
57(4) . . .
52(4) . . .
57(4) . . .
59(4) . . .
49(4) . . .
55(4) . . .
55(4) . . .
51(4) . . .
50(4) . . .
63(4) . . .
57(4) . . .
51(4) . . .
55(4) . . .
59(4) . . .
58(4) . . .
60(4) . . .
54(4) . . .
50(4) . . .
57(4) . . .
52(4) . . .
45(4) . . .
62(4) . . .
48(4) . . .
60(4) . . .
43.0(34) . . .
50(4) . . .
58(4) . . .
52(4) . . .
52(4) . . .
55(4) . . .
55(4) . . .
50(4) . . .
54(4) . . .
52(4) . . .
41.5(35) . . .
50(4) . . .
61(4) . . .
47(4) . . .
54(4) . . .
46(4) . . .
56(4) . . .
55(4) . . .
59(4) . . .
48(4) . . .
53(4) . . .
56(4) . . .
62(4) . . .
59(4) . . .
56(4) . . .
54(4) . . .
52(4) . . .
53(4) . . .
58(4) . . .
61(4) . . .
57(4) . . .
48(4) . . .
50(4) . . .
52(4) . . .
67(4) . . .
53(4) . . .
44(4) . . .
47(4) . . .
44.1(34) . . .
49(4) . . .
43.2(34) . . .
47(4) . . .
59(4) . . .
48(4) . . .
59(4) . . .
56(4) . . .
52(4) . . .
57(4) . . .
55(4) . . .
63(4) . . .
49(4) . . .
53(4) . . .
54(4) . . .
57(4) . . .
47(4) . . .
62(4) . . .
54(4) . . .
51(4) . . .
54(4) . . .
53(4) . . .
62(4) . . .
62(4) . . .
51(4) . . .
56(4) . . .
57(4) . . .
50(4) . . .
54(4) . . .
47(4) . . .
56(4) . . .
55(4) . . .
62(4) . . .
55(4) . . .
53(4) . . .
61(4) . . .
56(4) . . .
53(4) . . .
46.4(35) . . .
59(4) . . .
57(4) . . .
47.2(35) . . .
51(4) . . .
58(4) . . .
44(4) . . .
57(4) . . .
59(4) . . .
54(4) . . .
62(4) . . .
45.2(35) . . .
44.7(34) . . .
56(4) . . .
49(4) . . .
53(4) . . .
53(4) . . .
44.9(35) . . .
55(4) . . .
54(4) . . .
50(4) . . .
55(4) . . .
61(4) . . .
65(5) . . .
58(4) . . .
55(4) . . .
47(4) . . .
44.3(35) . . .
44(4) . . .
52(4) . . .
58(4) . . .
55(4) . . .
45(4) . . .
54(4) . . .
64(4) . . .
55(4) . . .
46(4) . . .
58(4) . . .
54(4) . . .
59(4) . . .
54(4) . . .
58(4) . . .
57(4) . . .
55(4) . . .
50(4) . . .
57(4) . . .
57(4) . . .
60(4) . . .
58(4) . . .
58(4) . . .
47(4) . . .
54(4) . . .
58(4) . . .
59(5) . . .
58(4) . . .
54(4) . . .
53(4) . . .
50(4) . . .
53(4) . . .
46(4) . . .
52(4) . . .
56(4) . . .
51(4) . . .
51(4) . . .
56(4) . . .
50(4) . . .
49(4) . . .
54(4) . . .
54(4) . . .
53(4) . . .
63(4) . . .
66(4) . . .
55(4) . . .
51(4) . . .
49(4) . . .
51(4) . . .
55(4) . . .
56(4) . . .
50(4) . . .
56(4) . . .
49(4) . . .
54(4) . . .
54(4) . . .
54(4) . . .
59(4) . . .
43.9(34) . . .
61(4) . . .
54(4) . . .
53(4) . . .
54(4) . . .
44.3(35) . . .
59(4) . . .
57(4) . . .
64(4) . . .
61(4) . . .
54(4) . . .
42.5(34) . . .
51(4) . . .
49(4) . . .
52(4) . . .
53(4) . . .
52(4) . . .
58(4) . . .
57(4) . . .
49(4) . . .
47(4) . . .
56(4) . . .
55(4) . . .
50(4) . . .
59(4) . . .
62(4) . . .
50(4) . . .
60(4) . . .
52(4) . . .
60(4) . . .
41.0(33) . . .
57(4) . . .
45(4) . . .
58(4) . . .
62(4) . . .
55(4) . . .
48(4) . . .
45(4) . . .
51(4) . . .
53(4) . . .
41.9(33) . . .
52(4) . . .
51(4) . . .
50(4) . . .
43.4(34) . . .
50(4) . . .
49(4) . . .
46(4) . . .
53(4) . . .
53(4) . . .
48(4) . . .
57(4) . . .
46(4) . . .
40.4(33) . . .
57(4) . . .
49(4) . . .
61(4) . . .
63(4) . . .
61(4) . . .
57(4) . . .
56(4) . . .
44(4) . . .
55(4) . . .
59(4) . . .
56(4) . . .
57(4) . . .
55(4) . . .
46(4) . . .
52(4) . . .
52(4) . . .
67(4) . . .
57(4) . . .
48(4) . . .
48(4) . . .
49(4) . . .
54(4) . . .
51(4) . . .
57(4) . . .
50(4) . . .
60(4) . . .
54(4) . . .
46(4) . . .
50(4) . . .
41.9(34) . . .
47(4) . . .
58(4) . . .
57(4) . . .
51(4) . . .
48(4) . . .
50(4) . . .
51(4) . . .
60(4) . . .
61(4) . . .
60(4) . . .
54(4) . . .
53(4) . . .
50(4) . . .
49(4) . . .
52(4) . . .
47(4) . . .
62(4) . . .
62(4) . . .
46(4) . . .
46(4) . . .
50(4) . . .
54(4) . . .
48(4) . . .
46.1(35) . . .
46(4) . . .
49(4) . . .
53(4) . . .
46.8(35) . . .
53(4) . . .
52(4) . . .
48(4) . . .
50(4) . . .
57(4) . . .
60(4) . . .
47(4) . . .
53(4) . . .
47(4) . . .
58(4) . . .
52(4) . . .
47(4) . . .
56(4) . . .
58(4) . . .
53(4) . . .
51(4) . . .
55(4) . . .
38.3(32) . . .
57(4) . . .
56(4) . . .
56(4) . . .
55(4) . . .
55(4) . . .
55(4) . . .
66(4) . . .
48(4) . . .
46(4) . . .
44(4) . . .
60(4) . . .
65(4) . . .
52(4) . . .
56(4) . . .
54(4) . . .
64(4) . . .
47(4) . . .
52(4) . . .
57(4) . . .
49(4) . . .
48(4) . . .
47(4) . . .
49(4) . . .
55(4) . . .
59(4) . . .
51(4) . . .
46(4) . . .
49(4) . . .
46(4) . . .
46(4) . . .
40.5(33) . . .
46(4) . . .
44.2(34) . . .
59(4) . . .
42.6(34) . . .
54(4) . . .
54(4) . . .
49(4) . . .
56(4) . . .
51(4) . . .
48(4) . . .
46(4) . . .
53(4) . . .
59(4) . . .
51(4) . . .
58(4) . . .
62(4) . . .
60(4) . . .
50(4) . . .
55(4) . . .
53(4) . . .
42.7(35) . . .
50(4) . . .
52(4) . . .
63(5) . . .
53(4) . . .
55(4) . . .
53(4) . . .
57(4) . . .
54(4) . . .
48(4) . . .
48(4) . . .
57(4) . . .
62(4) . . .
54(4) . . .
59(4) . . .
54(4) . . .
40.9(34) . . .
56(4) . . .
51(4) . . .
59(4) . . .
64(4) . . .
40.6(33) . . .
54(4) . . .
54(4) . . .
58(4) . . .
50(4) . . .
55(4) . . .
37.5(33) . . .
46(4) . . .
57(4) . . .
48(4) . . .
67(5) . . .
48(4) . . .
47(4) . . .
47(4) . . .
47(4) . . .
52(4) . . .
46(4) . . .
60(4) . . .
56(4) . . .
57(4) . . .
49(4) . . .
58(4) . . .
52(4) . . .
48(4) . . .
53(4) . . .
49(4) . . .
45(4) . . .
51(4) . . .
50(4) . . .
61(4) . . .
49(4) . . .
52(4) . . .
55(4) . . .
52(4) . . .
49(4) . . .
57(4) . . .
50(4) . . .
63(4) . . .
58(4) . . .
55(4) . . .
60(4) . . .
59(4) . . .
62(4) . . .
55(4) . . .
52(4) . . .
50(4) . . .
51(4) . . .
48(4) . . .
42.8(34) . . .
45(4) . . .
53(4) . . .
48(4) . . .
48(4) . . .
58(4) . . .
64(4) . . .
48(4) . . .
52(4) . . .
54(4) . . .
54(4) . . .
49(4) . . .
40.4(35) . . .
47(4) . . .
56(4) . . .
49(4) . . .
45(4) . . .
57(4) . . .
47(4) . . .
53(4) . . .
49(4) . . .
55(4) . . .
56(4) . . .
46.1(35) . . .
61(4) . . .
62(4) . . .
59(4) . . .
55(4) . . .
45(4) . . .
58(4) . . .
55(4) . . .
62(4) . . .
54(4) . . .
50(4) . . .
55(4) . . .
48(4) . . .
58(4) . . .
51(4) . . .
55(4) . . .
54(4) . . .
59(4) . . .
52(4) . . .
58(4) . . .
51(4) . . .
58(4) . . .
51(4) . . .
59(4) . . .
57(4) . . .
51(4) . . .
57(4) . . .
56(4) . . .
53(4) . . .
53(4) . . .
49(4) . . .
48(4) . . .
52(4) . . .
53(4) . . .
42.8(35) . . .
52(4) . . .
51(4) . . .
58(4) . . .
63(4) . . .
55(4) . . .
53(4) . . .
50(4) . . .
57(4) . . .
53(4) . . .
47(4) . . .
59(4) . . .
59(4) . . .
47(4) . . .
51(4) . . .
55(4) . . .
49(4) . . .
48(4) . . .
55(4) . . .
53(4) . . .
56(4) . . .
56(4) . . .
59(4) . . .
46.6(35) . . .
48(4) . . .
49(4) . . .
57(4) . . .
62(4) . . .
55(4) . . .
48(4) . . .
50(4) . . .
57(4) . . .
53(4) . . .
60(4) . . .
62(4) . . .
53(4) . . .
56(4) . . .
52(4) . . .
61(4) . . .
58(4) . . .
49(4) . . .
56(4) . . .
62(4) . . .
43.8(35) . . .
49(4) . . .
51(4) . . .
59(4) . . .
45(4) . . .
41(4) . . .
56(4) . . .
51(4) . . .
61(4) . . .
60(4) . . .
44.4(35) . . .
51(4) . . .
65(4) . . .
48(4) . . .
58(4) . . .
58(4) . . .
45(4) . . .
51(4) . . .
45.1(35) . . .
51(4) . . .
53(4) . . .
57(4) . . .
56(4) . . .
49(4) . . .
57(4) . . .
58(4) . . .
55(4) . . .
45(4) . . .
55(4) . . .
51(4) . . .
62(5) . . .
52(4) . . .
55(4) . . .
48(4) . . .
60(4) . . .
49(4) . . .
48(4) . . .
55(4) . . .
52(4) . . .
48(4) . . .
53(4) . . .
53(4) . . .
67(4) . . .
48(4) . . .
52(4) . . .
58(4) . . .
43(4) . . .
52(4) . . .
49(4) . . .
56(4) . . .
52(4) . . .
55(4) . . .
54(4) . . .
47(4) . . .
50(4) . . .
53(4) . . .
50(4) . . .
52(4) . . .
41(4) . . .
42.1(34) . . .
49(4) . . .
52(4) . . .
56(4) . . .
58(4) . . .
55(4) . . .
45(4) . . .
54(4) . . .
48(4) . . .
59(4) . . .
64(5) . . .
51(4) . . .
52(4) . . .
58(4) . . .
49(4) . . .
60(4) . . .
58(4) . . .
51(4) . . .
49(4) . . .
49(4) . . .
50(4) . . .
62(4) . . .
58(4) . . .
50(4) . . .
53(4) . . .
50(4) . . .
46(4) . . .
55(4) . . .
44.4(35) . . .
47(4) . . .
57(4) . . .
51(4) . . .
63(4) . . .
54(4) . . .
59(4) . . .
53(4) . . .
50(4) . . .
54(4) . . .
48(4) . . .
54(4) . . .
47(4) . . .
50(4) . . .
54(4) . . .
48(4) . . .
64(4) . . .
46(4) . . .
55(4) . . .
54(4) . . .
47(4) . . .
55(4) . . .
41.5(33) . . .
55(4) . . .
55(4) . . .
59(4) . . .
66(5) . . .
59(4) . . .
43.4(35) . . .
52(4) . . .
55(4) . . .
48(4) . . .
44.8(34) . . .
50(4) . . .
55(4) . . .
60(4) . . .
57(4) . . .
43(4) . . .
59(4) . . .
55(4) . . .
49(4) . . .
47(4) . . .
56(4) . . .
41.8(33) . . .
45(4) . . .
55(4) . . .
61(4) . . .
49(4) . . .
49(4) . . .
41.2(33) . . .
51(4) . . .
53(4) . . .
52(4) . . .
49(4) . . .
59(4) . . .
55(4) . . .
43.9(34) . . .
63(4) . . .
53(4) . . .
46(4) . . .
42(4) . . .
47(4) . . .
53(4) . . .
50(4) . . .
49(4) . . .
52(4) . . .
55(4) . . .
51(4) . . .
44.3(34) . . .
56(4) . . .
56(4) . . .
44(4) . . .
47(4) . . .
43.6(34) . . .
53(4) . . .
54(4) . . .
57(4) . . .
53(4) . . .
57(4) . . .
53(4) . . .
52(4) . . .
45(4) . . .
46(4) . . .
39.2(32) . . .
40.3(33) . . .
45(4) . . .
53(4) . . .
41.6(34) . . .
46.0(35) . . .
51(4) . . .
49(4) . . .
53(4) . . .
51(4) . . .
45.1(35) . . .
47(4) . . .
47(4) . . .
49(4) . . .
47(4) . . .
54(4) . . .
55(4) . . .
51(4) . . .
52(4) . . .
44(4) . . .
47(4) . . .
52(4) . . .
58(4) . . .
47(4) . . .
48(4) . . .
54(4) . . .
45.3(35) . . .
50(4) . . .
58(4) . . .
49(4) . . .
49(4) . . .
44(4) . . .
51(4) . . .
48(4) . . .
57(4) . . .
47(4) . . .
43.3(34) . . .
42.2(35) . . .
63(4) . . .
51(4) . . .
60(4) . . .
56(4) . . .
55(4) . . .
55(4) . . .
50(4) . . .
53(4) . . .
54(4) . . .
42.7(35) . . .
50(4) . . .
53(4) . . .
51(4) . . .
56(4) . . .
61(4) . . .
55(4) . . .
61(4) . . .
47(4) . . .
42(4) . . .
53(4) . . .
52(4) . . .
40.2(34) . . .
46(4) . . .
46(4) . . .
50(4) . . .
53(4) . . .
43.4(34) . . .
49(4) . . .
44(4) . . .
51(4) . . .
49(4) . . .
53(4) . . .
61(4) . . .
51(4) . . .
51(4) . . .
42.7(34) . . .
53(4) . . .
55(4) . . .
51(4) . . .
53(4) . . .
51(4) . . .
46(4) . . .
55(4) . . .
49(4) . . .
58(4) . . .
39.5(33) . . .
50(4) . . .
51(4) . . .
57(4) . . .
53(4) . . .
51(4) . . .
48(4) . . .
60(4) . . .
56(4) . . .
45(4) . . .
47(4) . . .
46(4) . . .
49(4) . . .
42(4) . . .
44.9(34) . . .
54(4) . . .
59(4) . . .
45(4) . . .
58(4) . . .
44(4) . . .
50(4) . . .
47(4) . . .
43(4) . . .
47(4) . . .
49(4) . . .
53(4) . . .
51(4) . . .
51(4) . . .
51(4) . . .
51(4) . . .
44.6(34) . . .
65(4) . . .
53(4) . . .
47(4) . . .
53(4) . . .
52(4) . . .
56(4) . . .
51(4) . . .
40(4) . . .
48(4) . . .
41.3(34) . . .
51(4) . . .
52(4) . . .
47(4) . . .
51(4) . . .
57(4) . . .
50(4) . . .
49(4) . . .
58(4) . . .
48(4) . . .
52(4) . . .
54(4) . . .
55(4) . . .
49(4) . . .
63(4) . . .
63(4) . . .
50(4) . . .
50(4) . . .
51(4) . . .
49(4) . . .
53(4) . . .
50(4) . . .
57(4) . . .
49(4) . . .
54(4) . . .
45(4) . . .
48(4) . . .
55(4) . . .
46(4) . . .
55(4) . . .
53(4) . . .
53(4) . . .
53(4) . . .
50(4) . . .
51(4) . . .
45.3(34) . . .
53(4) . . .
46(4) . . .
56(4) . . .
54(4) . . .
54(4) . . .
44(4) . . .
59(4) . . .
56(4) . . .
51(4) . . .
48(4) . . .
49(4) . . .
51(4) . . .
44.3(35) . . .
54(4) . . .
55(4) . . .
57(4) . . .
47(4) . . .
53(4) . . .
56(4) . . .
54(4) . . .
43.0(34) . . .
45(4) . . .
42.7(34) . . .
49(4) . . .
51(4) . . .
47(4) . . .
53(4) . . .
53(4) . . .
56(4) . . .
56(4) . . .
51(4) . . .
54(4) . . .
55(4) . . .
51(4) . . .
53(4) . . .
53(4) . . .
51(4) . . .
52(4) . . .
47(4) . . .
53(4) . . .
40.3(33) . . .
46(4) . . .
48(4) . . .
46(4) . . .
47(4) . . .
57(4) . . .
53(4) . . .
53(4) . . .
52(4) . . .
48(4) . . .
52(4) . . .
56(4) . . .
59(4) . . .
51(4) . . .
47(4) . . .
43.3(35) . . .
49(4) . . .
45(4) . . .
45.3(35) . . .
56(4) . . .
48(4) . . .
48(4) . . .
50(4) . . .
43.6(34) . . .
44.9(34) . . .
68(4) . . .
51(4) . . .
49(4) . . .
48(4) . . .
41.4(34) . . .
52(4) . . .
44.2(34) . . .
42.4(34) . . .
46(4) . . .
50(4) . . .
50(4) . . .
51(4) . . .
46(4) . . .
49(4) . . .
55(4) . . .
57(4) . . .
47(4) . . .
49(4) . . .
46(4) . . .
49(4) . . .
59(4) . . .
58(4) . . .
52(4) . . .
48(4) . . .
57(4) . . .
50(4) . . .
44.7(35) . . .
59(4) . . .
58(4) . . .
44(4) . . .
47(4) . . .
56(4) . . .
57(4) . . .
57(4) . . .
63(5) . . .
44.7(35) . . .
53(4) . . .
46(4) . . .
46(4) . . .
45(4) . . .
60(4) . . .
57(4) . . .
51(4) . . .
45(4) . . .
48(4) . . .
49(4) . . .
48(4) . . .
38.1(32) . . .
51(4) . . .
50(4) . . .
50(4) . . .
48(4) . . .
49(4) . . .
40.3(34) . . .
51(4) . . .
44.9(35) . . .
52(4) . . .
49(4) . . .
50(4) . . .
46(4) . . .
55(4) . . .
47(4) . . .
51(4) . . .
57(4) . . .
55(4) . . .
48(4) . . .
55(4) . . .
52(4) . . .
56(4) . . .
45(4) . . .
51(4) . . .
47(4) . . .
52(4) . . .
46(4) . . .
52(4) . . .
56(4) . . .
56(4) . . .
44(4) . . .
38.6(32) . . .
41.9(33) . . .
49(4) . . .
50(4) . . .
40.4(33) . . .
55(4) . . .
58(4) . . .
47(4) . . .
44(4) . . .
54(4) . . .
53(4) . . .
55(4) . . .
49(4) . . .
47(4) . . .
50(4) . . .
44(4) . . .
46(4) . . .
52(4) . . .
36.2(31) . . .
48(4) . . .
51(4) . . .
48(4) . . .
49(4) . . .
53(4) . . .
57(4) . . .
55(4) . . .
56(4) . . .
48(4) . . .
49(4) . . .
58(4) . . .
56(4) . . .
57(4) . . .
57(4) . . .
52(4) . . .
46(4) . . .
53(4) . . .
43.3(34) . . .
54(4) . . .
47(4) . . .
53(4) . . .
54(4) . . .
52(4) . . .
57(4) . . .
49(4) . . .
45.3(35) . . .
46(4) . . .
47(4) . . .
58(4) . . .
51(4) . . .
51(4) . . .
41.7(34) . . .
49(4) . . .
52(4) . . .
52(4) . . .
48(4) . . .
50(4) . . .
50(4) . . .
47(4) . . .
51(4) . . .
50(4) . . .
47(4) . . .
46(4) . . .
64(4) . . .
52(4) . . .
56(4) . . .
44.4(35) . . .
52(4) . . .
60(4) . . .
50(4) . . .
43(4) . . .
49(4) . . .
51(4) . . .
45(4) . . .
37.5(34) . . .
48(4) . . .
48(4) . . .
54(4) . . .
40.6(34) . . .
52(4) . . .
46(4) . . .
60(4) . . .
59(4) . . .
48(4) . . .
55(4) . . .
47(4) . . .
57(4) . . .
48(4) . . .
54(4) . . .
51(4) . . .
55(4) . . .
63(4) . . .
46(4) . . .
58(4) . . .
62(4) . . .
55(4) . . .
60(4) . . .
56(4) . . .
44(4) . . .
43.0(34) . . .
53(4) . . .
57(4) . . .
49(4) . . .
47(4) . . .
47(4) . . .
54(4) . . .
58(4) . . .
42.7(35) . . .
45(4) . . .
51(4) . . .
45.7(35) . . .
60(4) . . .
50(4) . . .
50(4) . . .
47(4) . . .
63(4) . . .
56(4) . . .
55(4) . . .
54(4) . . .
51(4) . . .
47(4) . . .
47(4) . . .
52(4) . . .
51(4) . . .
47(4) . . .
46.9(35) . . .
47(4) . . .
40.8(33) . . .
49(4) . . .
49(4) . . .
50(4) . . .
50(4) . . .
52(4) . . .
51(4) . . .
35.0(31) . . .
57(4) . . .
60(4) . . .
50(4) . . .
46(4) . . .
43.2(35) . . .
52(4) . . .
51(4) . . .
50(4) . . .
52(4) . . .
41.0(34) . . .
54(4) . . .
58(4) . . .
60(4) . . .
47(4) . . .
45.0(35) . . .
50(4) . . .
46(4) . . .
49(4) . . .
52(4) . . .
51(4) . . .
50(4) . . .
46(4) . . .
48(4) . . .
52(4) . . .
54(4) . . .
44.7(34) . . .
44.1(35) . . .
48(4) . . .
52(4) . . .
51(4) . . .
49(4) . . .
52(4) . . .
55(4) . . .
50(4) . . .
58(4) . . .
49(4) . . .
42.0(35) . . .
52(4) . . .
51(4) . . .
42.2(34) . . .
45(4) . . .
49(4) . . .
44(4) . . .
45.5(35) . . .
57(4) . . .
50(4) . . .
54(4) . . .
44(4) . . .
48(4) . . .
45.1(35) . . .
56(4) . . .
52(4) . . .
45(4) . . .
58(4) . . .
60(4) . . .
53(4) . . .
49(4) . . .
47(4) . . .
48(4) . . .
51(4) . . .
48(4) . . .
49(4) . . .
39.0(33) . . .
49(4) . . .
53(4) . . .
55(4) . . .
45(4) . . .
41.1(34) . . .
50(4) . . .
48(4) . . .
55(4) . . .
49(4) . . .
50(4) . . .
52(4) . . .
54(4) . . .
52(4) . . .
57(4) . . .
47(4) . . .
46(4) . . .
42.3(34) . . .
45(4) . . .
47(4) . . .
54(4) . . .
40.0(34) . . .
45(4) . . .
42.8(35) . . .
51(4) . . .
49(4) . . .
59(4) . . .
38.8(32) . . .
40(4) . . .
55(4) . . .
51(4) . . .
58(4) . . .
62(4) . . .
47(4) . . .
50(4) . . .
51(4) . . .
50(4) . . .
48(4) . . .
47(4) . . .
48(4) . . .
52(4) . . .
56(4) . . .
58(4) . . .
50(4) . . .
44.8(35) . . .
44.2(34) . . .
48(4) . . .
58(4) . . .
49(4) . . .
52(4) . . .
45(4) . . .
40.6(33) . . .
45(4) . . .
48(4) . . .
51(4) . . .
43.3(34) . . .
46(4) . . .
49(4) . . .
57(4) . . .
58(4) . . .
44.1(34) . . .
42.3(34) . . .
37.9(33) . . .
46(4) . . .
53(4) . . .
53(4) . . .
50(4) . . .
48(4) . . .
47(4) . . .
48(4) . . .
49(4) . . .
48(4) . . .
49(4) . . .
53(4) . . .
53(4) . . .
51(4) . . .
51(4) . . .
50(4) . . .
44(4) . . .
45(4) . . .
54(4) . . .
54(4) . . .
48(4) . . .
52(4) . . .
39.2(33) . . .
42.0(34) . . .
56(4) . . .
50(4) . . .
54(4) . . .
46(4) . . .
53(4) . . .
54(4) . . .
57(4) . . .
50(4) . . .
47(4) . . .
48(4) . . .
52(4) . . .
46(4) . . .
47(4) . . .
57(4) . . .
62(4) . . .
51(4) . . .
49(4) . . .
63(4) . . .
50(4) . . .
67(4) . . .
51(4) . . .
45(4) . . .
53(4) . . .
44.5(34) . . .
47(4) . . .
50(4) . . .
56(4) . . .
45.3(35) . . .
52(4) . . .
53(4) . . .
50(4) . . .
53(4) . . .
55(4) . . .
54(4) . . .
58(4) . . .
45.7(35) . . .
54(4) . . .
45(4) . . .
48(4) . . .
59(4) . . .
56(4) . . .
59(4) . . .
47(4) . . .
45(4) . . .
42.4(34) . . .
52(4) . . .
53(4) . . .
52(4) . . .
43.3(34) . . .
53(4) . . .
45(4) . . .
40.7(33) . . .
43(4) . . .
51(4) . . .
46(4) . . .
39.3(32) . . .
46(4) . . .
52(4) . . .
45.1(35) . . .
47(4) . . .
54(4) . . .
54(4) . . .
45(4) . . .
52(4) . . .
45(4) . . .
48(4) . . .
48(4) . . .
52(4) . . .
57(4) . . .
57(4) . . .
43(4) . . .
43(4) . . .
48(4) . . .
54(4) . . .
46(4) . . .
51(4) . . .
47(4) . . .
51(4) . . .
52(4) . . .
45(4) . . .
46(4) . . .
47(4) . . .
59(4) . . .
48(4) . . .
52(4) . . .
55(4) . . .
44.3(35) . . .
47(4) . . .
54(4) . . .
46(4) . . .
45(4) . . .
51(4) . . .
54(4) . . .
56(4) . . .
50(4) . . .
46(4) . . .
49(4) . . .
49(4) . . .
48(4) . . .
55(4) . . .
47(4) . . .
48(4) . . .
52(4) . . .
46(4) . . .
43(4) . . .
46(4) . . .
45(4) . . .
50(4) . . .
52(4) . . .
47(4) . . .
42(4) . . .
45.3(34) . . .
54(4) . . .
55(4) . . .
47(4) . . .
49(4) . . .
51(4) . . .
47(4) . . .
49(4) . . .
48(4) . . .
45(4) . . .
45.6(35) . . .
44.6(35) . . .
52(4) . . .
50(4) . . .
39.4(34) . . .
43.1(35) . . .
49(4) . . .
58(4) . . .
49(4) . . .
47(4) . . .
53(4) . . .
50(4) . . .
63(5) . . .
52(4) . . .
46(4) . . .
51(4) . . .
44.9(35) . . .
45(4) . . .
53(4) . . .
49(4) . . .
36.3(31) . . .
46(4) . . .
52(4) . . .
46(4) . . .
42.0(34) . . .
32.7(30) . . .
37.1(31) . . .
47(4) . . .
53(4) . . .
56(4) . . .
47(4) . . .
54(4) . . .
50(4) . . .
43(4) . . .
46(4) . . .
49(4) . . .
60(4) . . .
42(4) . . .
53(4) . . .
42.2(34) . . .
47(4) . . .
48(4) . . .
41(4) . . .
50(4) . . .
49(4) . . .
55(4) . . .
41.5(33) . . .
44(4) . . .
38.4(32) . . .
54(4) . . .
47(4) . . .
46(4) . . .
46(4) . . .
48(4) . . .
49(4) . . .
44(4) . . .
53(4) . . .
53(4) . . .
52(4) . . .
51(4) . . .
45.2(34) . . .
51(4) . . .
40(4) . . .
48(4) . . .
53(4) . . .
45(4) . . .
43(4) . . .
48(4) . . .
50(4) . . .
44.2(34) . . .
45(4) . . .
45(4) . . .
53(4) . . .
53(4) . . .
53(4) . . .
50(4) . . .
59(4) . . .
56(4) . . .
50(4) . . .
56(4) . . .
51(4) . . .
55(4) . . .
53(4) . . .
43(4) . . .
57(4) . . .
49(4) . . .
52(4) . . .
50(4) . . .
49(4) . . .
54(4) . . .
44.3(34) . . .
35.6(30) . . .
48(4) . . .
54(4) . . .
59(4) . . .
46(4) . . .
50(4) . . .
43(4) . . .
38.4(33) . . .
51(4) . . .
39.8(34) . . .
38.0(33) . . .
41.8(34) . . .
55(4) . . .
47(4) . . .
50(4) . . .
51(4) . . .
49(4) . . .
57(4) . . .
45.3(35) . . .
45(4) . . .
50(4) . . .
44(4) . . .
48(4) . . .
51(4) . . .
59(4) . . .
55(4) . . .
53(4) . . .
49(4) . . .
54(4) . . .
38.9(33) . . .
45(4) . . .
48(4) . . .
52(4) . . .
53(4) . . .
53(4) . . .
40.1(35) . . .
43(4) . . .
47(4) . . .
49(4) . . .
54(4) . . .
51(4) . . .
52(4) . . .
43.8(35) . . .
46(4) . . .
46(4) . . .
57(4) . . .
53(4) . . .
48(4) . . .
54(4) . . .
48(4) . . .
51(4) . . .
50(4) . . .
44.4(34) . . .
54(4) . . .
54(4) . . .
54(4) . . .
52(4) . . .
46(4) . . .
47(4) . . .
52(4) . . .
41.4(35) . . .
55(4) . . .
55(4) . . .
45.3(35) . . .
47(4) . . .
53(4) . . .
45.2(35) . . .
57(4) . . .
49(4) . . .
47(4) . . .
51(4) . . .
49(4) . . .
44.8(35) . . .
49(4) . . .
48(4) . . .
40.7(35) . . .
42.6(34) . . .
46(4) . . .
51(4) . . .
47(4) . . .
46(4) . . .
52(4) . . .
45(4) . . .
51(4) . . .
49(4) . . .
63(4) . . .
52(4) . . .
54(4) . . .
58(4) . . .
49(4) . . .
48(4) . . .
50(4) . . .
49(4) . . .
50(4) . . .
45(4) . . .
41.6(35) . . .
48(4) . . .
46(4) . . .
40.0(34) . . .
46(4) . . .
60(4) . . .
52(4) . . .
53(4) . . .
53(4) . . .
57(4) . . .
55(4) . . .
46.3(35) . . .
49(4) . . .
47(4) . . .
45(4) . . .
44.6(35) . . .
42.2(34) . . .
52(4) . . .
47(4) . . .
41.8(34) . . .
52(4) . . .
54(4) . . .
58(4) . . .
49(4) . . .
44(4) . . .
45.1(35) . . .
43.4(35) . . .
38.2(33) . . .
46(4) . . .
51(4) . . .
48(4) . . .
50(4) . . .
58(4) . . .
52(4) . . .
50(4) . . .
44.9(35) . . .
54(4) . . .
53(4) . . .
55(4) . . .
48(4) . . .
43.1(35) . . .
51(4) . . .
54(4) . . .
46(4) . . .
58(4) . . .
49(4) . . .
53(4) . . .
42.9(35) . . .
46(4) . . .
58(4) . . .
51(4) . . .
61(4) . . .
40.2(34) . . .
38.9(33) . . .
51(4) . . .
53(4) . . .
51(4) . . .
34.2(30) . . .
53(4) . . .
50(4) . . .
45(4) . . .
50(4) . . .
46(4) . . .
59(4) . . .
59(4) . . .
41.9(33) . . .
45(4) . . .
51(4) . . .
55(4) . . .
53(4) . . .
57(4) . . .
41.7(33) . . .
51(4) . . .
49(4) . . .
54(4) . . .
39.4(34) . . .
56(4) . . .
52(4) . . .
45.3(34) . . .
55(4) . . .
46(4) . . .
47(4) . . .
47(4) . . .
52(4) . . .
44.3(35) . . .
52(4) . . .
43(4) . . .
41.1(35) . . .
50(4) . . .
54(4) . . .
50(4) . . .
48(4) . . .
49(4) . . .
49(4) . . .
42.6(34) . . .
58(4) . . .
49(4) . . .
52(4) . . .
54(4) . . .
51(4) . . .
44(4) . . .
39.5(33) . . .
54(4) . . .
41.4(34) . . .
49(4) . . .
38.9(32) . . .
50(4) . . .
39.4(33) . . .
50(4) . . .
49(4) . . .
50(4) . . .
58(4) . . .
41.1(33) . . .
41.5(33) . . .
55(4) . . .
49(4) . . .
50(4) . . .
46(4) . . .
45(4) . . .
48(4) . . .
50(4) . . .
47(4) . . .
46(4) . . .
47(4) . . .
44.3(35) . . .
50(4) . . .
44.8(35) . . .
55(4) . . .
47(4) . . .
45.2(35) . . .
46(4) . . .
51(4) . . .
52(4) . . .
57(4) . . .
45(4) . . .
47(4) . . .
42(4) . . .
42(4) . . .
46(4) . . .
51(4) . . .
52(4) . . .
57(4) . . .
51(4) . . .
49(4) . . .
39.6(32) . . .
49(4) . . .
46(4) . . .
54(4) . . .
51(4) . . .
47(4) . . .
42(4) . . .
40.0(34) . . .
39.5(33) . . .
45(4) . . .
54(4) . . .
47(4) . . .
47(4) . . .
45.9(35) . . .
41.2(34) . . .
49(4) . . .
53(4) . . .
40.8(34) . . .
48(4) . . .
39.3(32) . . .
45(4) . . .
43(4) . . .
55(4) . . .
55(4) . . .
48(4) . . .
39.8(34) . . .
45(4) . . .
49(4) . . .
42.1(34) . . .
53(4) . . .
48(4) . . .
56(4) . . .
55(4) . . .
50(4) . . .
45(4) . . .
48(4) . . .
48(4) . . .
47(4) . . .
54(4) . . .
43.7(35) . . .
37.8(31) . . .
43(4) . . .
41.3(34) . . .
63(4) . . .
43.1(34) . . .
46(4) . . .
45(4) . . .
41(4) . . .
48(4) . . .
56(4) . . .
46(4) . . .
47(4) . . .
46(4) . . .
47(4) . . .
41.4(34) . . .
61(4) . . .
57(4) . . .
56(4) . . .
42.4(34) . . .
51(4) . . .
54(4) . . .
53(4) . . .
51(4) . . .
47(4) . . .
45(4) . . .
40.3(33) . . .
41(4) . . .
50(4) . . .
49(4) . . .
61(4) . . .
49(4) . . .
46.4(35) . . .
61(4) . . .
53(4) . . .
46(4) . . .
41.6(34) . . .
51(4) . . .
51(4) . . .
55(4) . . .
46(4) . . .
50(4) . . .
47(4) . . .
43.0(34) . . .
43.9(35) . . .
40.3(33) . . .
47(4) . . .
63(4) . . .
40.7(33) . . .
44.1(35) . . .
43.7(34) . . .
52(4) . . .
47(4) . . .
41.1(34) . . .
49(4) . . .
48(4) . . .
44.3(35) . . .
42.0(34) . . .
43.4(34) . . .
48(4) . . .
40.2(33) . . .
41.8(35) . . .
47(4) . . .
54(4) . . .
42.6(34) . . .
40.3(33) . . .
53(4) . . .
48(4) . . .
52(4) . . .
46(4) . . .
49(4) . . .
48(4) . . .
48(4) . . .
48(4) . . .
49(4) . . .
51(4) . . .
46.0(34) . . .
51(4) . . .
49(4) . . .
46(4) . . .
54(4) . . .
42.6(35) . . .
50(4) . . .
50(4) . . .
56(4) . . .
56(4) . . .
40.5(32) . . .
55(4) . . .
43(4) . . .
42(4) . . .
51(4) . . .
43(4) . . .
47(4) . . .
49(4) . . .
43.4(35) . . .
48(4) . . .
47(4) . . .
44.9(34) . . .
47(4) . . .
45(4) . . .
40(4) . . .
50(4) . . .
46.4(35) . . .
47(4) . . .
53(4) . . .
50(4) . . .
47(4) . . .
41.0(33) . . .
48(4) . . .
48(4) . . .
46(4) . . .
44.0(35) . . .
48(4) . . .
55(4) . . .
48(4) . . .
47(4) . . .
44.3(35) . . .
43.1(35) . . .
46(4) . . .
47(4) . . .
50(4) . . .
53(4) . . .
50(4) . . .
49(4) . . .
58(4) . . .
47(4) . . .
58(4) . . .
60(4) . . .
52(4) . . .
53(4) . . .
42.2(35) . . .
52(4) . . .
45(4) . . .
47(4) . . .
48(4) . . .
46(4) . . .
44(4) . . .
48(4) . . .
42.3(35) . . .
48(4) . . .
40.1(34) . . .
49(4) . . .
46.2(35) . . .
44(4) . . .
50(4) . . .
53(4) . . .
48(4) . . .
37.8(32) . . .
42.9(35) . . .
40(4) . . .
46(4) . . .
45.6(35) . . .
57(4) . . .
41.1(34) . . .
52(4) . . .
44.5(35) . . .
45.7(35) . . .
51(4) . . .
40.0(33) . . .
44(4) . . .
44(4) . . .
47(4) . . .
45(4) . . .
52(4) . . .
48(4) . . .
47(4) . . .
59(4) . . .
56(4) . . .
48(4) . . .
48(4) . . .
45.1(35) . . .
52(4) . . .
56(4) . . .
50(4) . . .
52(4) . . .
48(4) . . .
44.0(35) . . .
51(4) . . .
45(4) . . .
43(4) . . .
47(4) . . .
47(4) . . .
59(4) . . .
52(4) . . .
41.8(35) . . .
50(4) . . .
44.4(34) . . .
46(4) . . .
45(4) . . .
47(4) . . .
45(4) . . .
43.4(33) . . .
51(4) . . .
36.2(33) . . .
38.6(33) . . .
45(4) . . .
48(4) . . .
52(4) . . .
53(4) . . .
50(4) . . .
47(4) . . .
47(4) . . .
45(4) . . .
50(4) . . .
37.3(32) . . .
51(4) . . .
50(4) . . .
43(4) . . .
36.7(32) . . .
46(4) . . .
51(4) . . .
42.4(35) . . .
51(4) . . .
43.2(35) . . .
52(4) . . .
49(4) . . .
55(4) . . .
47(4) . . .
59(4) . . .
47.3(35) . . .
51(4) . . .
47(4) . . .
51(4) . . .
50(4) . . .
47(4) . . .
54(4) . . .
47(4) . . .
60(4) . . .
58(4) . . .
49(4) . . .
47(4) . . .
57(4) . . .
53(4) . . .
43.6(34) . . .
50(4) . . .
50(4) . . .
48(4) . . .
58(4) . . .
46(4) . . .
57(4) . . .
51(4) . . .
50(4) . . .
40.0(35) . . .
49(4) . . .
37.2(32) . . .
40.9(33) . . .
50(4) . . .
62(4) . . .
58(4) . . .
42.3(34) . . .
41.2(34) . . .
51(4) . . .
53(4) . . .
50(4) . . .
50(4) . . .
41.2(33) . . .
47(4) . . .
47(4) . . .
46(4) . . .
33.2(30) . . .
39.7(33) . . .
50(4) . . .
48(4) . . .
46(4) . . .
39.4(33) . . .
53(4) . . .
52(4) . . .
53(4) . . .
56(4) . . .
41.3(33) . . .
49(4) . . .
47(4) . . .
43.3(35) . . .
43(4) . . .
38.1(33) . . .
44(4) . . .
59(4) . . .
45(4) . . .
59(4) . . .
59(4) . . .
41.8(34) . . .
41.5(35) . . .
48(4) . . .
47(4) . . .
44.8(35) . . .
49(4) . . .
41.1(35) . . .
44(4) . . .
49(4) . . .
48(4) . . .
47(4) . . .
51(4) . . .
47(4) . . .
53(4) . . .
50(4) . . .
51(4) . . .
49(4) . . .
47(4) . . .
46(4) . . .
39.2(32) . . .
48(4) . . .
49(4) . . .
52(4) . . .
52(4) . . .
48(4) . . .
48(4) . . .
44(4) . . .
41.8(35) . . .
35.0(31) . . .
47(4) . . .
41.5(35) . . .
39.9(34) . . .
50(4) . . .
51(4) . . .
46(4) . . .
51(4) . . .
47(4) . . .
32.4(30) . . .
41.9(34) . . .
47(4) . . .
48(4) . . .
47(4) . . .
44.0(35) . . .
47(4) . . .
42(4) . . .
44(4) . . .
48(4) . . .
50(4) . . .
50(4) . . .
55(4) . . .
49(4) . . .
44.2(34) . . .
46(4) . . .
44.6(34) . . .
43(4) . . .
43(4) . . .
43(4) . . .
49(4) . . .
47(4) . . .
50(4) . . .
59(4) . . .
53(4) . . .
56(4) . . .
51(4) . . .
38.3(33) . . .
38.5(34) . . .
43.8(35) . . .
40.9(33) . . .
56(4) . . .
52(4) . . .
46(4) . . .
48(4) . . .
48(4) . . .
46(4) . . .
43.1(34) . . .
46(4) . . .
47(4) . . .
42.9(34) . . .
39.6(34) . . .
53(4) . . .
55(4) . . .
40.6(34) . . .
49(4) . . .
55(4) . . .
51(4) . . .
61(4) . . .
52(4) . . .
42.3(34) . . .
42(4) . . .
48(4) . . .
43(4) . . .
45(4) . . .
55(4) . . .
48(4) . . .
42.6(35) . . .
45(4) . . .
43.9(35) . . .
57(4) . . .
49(4) . . .
46(4) . . .
33.6(31) . . .
50(4) . . .
48(4) . . .
49(4) . . .
50(4) . . .
46(4) . . .
41.0(34) . . .
51(4) . . .
48(4) . . .
47(4) . . .
48(4) . . .
45(4) . . .
52(4) . . .
48(4) . . .
40(4) . . .
42(4) . . .
42.5(34) . . .
43.2(35) . . .
49(4) . . .
45(4) . . .
47(4) . . .
48(4) . . .
50(4) . . .
56(4) . . .
47(4) . . .
43(4) . . .
47(4) . . .
47(4) . . .
39.0(33) . . .
39(4) . . .
44(4) . . .
48(4) . . .
53(4) . . .
46(4) . . .
46(4) . . .
47(4) . . .
48(4) . . .
53(4) . . .
50(4) . . .
55(4) . . .
54(4) . . .
52(4) . . .
50(4) . . .
45(4) . . .
42(4) . . .
45(4) . . .
53(4) . . .
48(4) . . .
50(4) . . .
50(4) . . .
46(4) . . .
54(4) . . .
51(4) . . .
46(4) . . .
45(4) . . .
52(4) . . .
43.8(34) . . .
51(4) . . .
42(4) . . .
41.9(35) . . .
45(4) . . .
40.8(33) . . .
54(4) . . .
43(4) . . .
45(4) . . .
40.5(33) . . .
47(4) . . .
47(4) . . .
48(4) . . .
49(4) . . .
52(4) . . .
46.5(35) . . .
47(4) . . .
52(4) . . .
55(4) . . .
43.3(35) . . .
53(4) . . .
41.2(34) . . .
36.4(32) . . .
52(4) . . .
51(4) . . .
46(4) . . .
48(4) . . .
42(4) . . .
46(4) . . .
49(4) . . .
37.6(33) . . .
44(4) . . .
48(4) . . .
43(4) . . .
50(4) . . .
41.8(34) . . .
50(4) . . .
45(4) . . .
44(4) . . .
48(4) . . .
45(4) . . .
44(4) . . .
45(4) . . .
48(4) . . .
46(4) . . .
50(4) . . .
41.1(35) . . .
45.5(35) . . .
47(4) . . .
44.1(35) . . .
44(4) . . .
47(4) . . .
40.9(33) . . .
52(4) . . .
54(4) . . .
52(4) . . .
39.4(34) . . .
48(4) . . .
46(4) . . .
43.3(34) . . .
52(4) . . .
43(4) . . .
50(4) . . .
53(4) . . .
49(4) . . .
51(4) . . .
50(4) . . .
42.9(34) . . .
42.7(34) . . .
43.4(34) . . .
53(4) . . .
53(4) . . .
47(4) . . .
49(4) . . .
51(4) . . .
49(4) . . .
50(4) . . .
54(4) . . .
53(4) . . .
41.2(33) . . .
55(4) . . .
57(4) . . .
37.2(32) . . .
47(4) . . .
52(4) . . .
53(4) . . .
47(4) . . .
48(4) . . .
47(4) . . .
52(4) . . .
51(4) . . .
54(4) . . .
46(4) . . .
58(4) . . .
56(4) . . .
52(4) . . .
58(4) . . .
54(4) . . .
49(4) . . .
39.3(33) . . .
45(4) . . .
44.4(35) . . .
49(4) . . .
52(4) . . .
49(4) . . .
48(4) . . .
41.4(34) . . .
40.7(33) . . .
42.8(34) . . .
42.9(34) . . .
51(4) . . .
55(4) . . .
50(4) . . .
50(4) . . .
48(4) . . .
50(4) . . .
47(4) . . .
46.8(35) . . .
48(4) . . .
44.2(35) . . .
44(4) . . .
48(4) . . .
42.2(34) . . .
35.2(31) . . .
41.3(34) . . .
44(4) . . .
47(4) . . .
49(4) . . .
56(4) . . .
50(4) . . .
35.1(33) . . .
42(4) . . .
48(4) . . .
45.1(35) . . .
52(4) . . .
50(4) . . .
45.9(35) . . .
41.9(34) . . .
43(4) . . .
51(4) . . .
48(4) . . .
44.2(35) . . .
49(4) . . .
43(4) . . .
48(4) . . .
48(4) . . .
50(4) . . .
47(4) . . .
50(4) . . .
51(4) . . .
42.0(34) . . .
49(4) . . .
49(4) . . .
51(4) . . .
43(4) . . .
44(4) . . .
43.3(34) . . .
52(4) . . .
39.0(33) . . .
52(4) . . .
48(4) . . .
38.7(33) . . .
39.7(33) . . .
39.3(32) . . .
55(4) . . .
40.6(33) . . .
44.7(34) . . .
51(4) . . .
43(4) . . .
53(4) . . .
45(4) . . .
56(4) . . .
50(4) . . .
49(4) . . .
48(4) . . .
52(4) . . .
52(4) . . .
54(4) . . .
37.4(32) . . .
49(4) . . .
49(4) . . .
47(4) . . .
35.6(32) . . .
45(4) . . .
41.2(33) . . .
49(4) . . .
48(4) . . .
43.7(35) . . .
34.5(32) . . .
43(4) . . .
45(4) . . .
50(4) . . .
47(4) . . .
50(4) . . .
44.1(35) . . .
52(4) . . .
51(4) . . .
40.2(32) . . .
52(4) . . .
51(4) . . .
43.7(34) . . .
44(4) . . .
44(4) . . .
47(4) . . .
45(4) . . .
49(4) . . .
47(4) . . .
55(4) . . .
55(4) . . .
46(4) . . .
58(4) . . .
37.8(32) . . .
47(4) . . .
46(4) . . .
58(4) . . .
56(4) . . .
45(4) . . .
53(4) . . .
43(4) . . .
41(4) . . .
47(4) . . .
44.1(35) . . .
47(4) . . .
47(4) . . .
42.2(35) . . .
45(4) . . .
57(4) . . .
46(4) . . .
52(4) . . .
48(4) . . .
44.0(35) . . .
48(4) . . .
48(4) . . .
46(4) . . .
43.3(35) . . .
49(4) . . .
45(4) . . .
46(4) . . .
45(4) . . .
38.8(32) . . .
40.6(33) . . .
44(4) . . .
55(4) . . .
41.6(34) . . .
47(4) . . .
41.8(33) . . .
42(4) . . .
42(4) . . .
52(4) . . .
53(4) . . .
48(4) . . .
58(4) . . .
52(4) . . .
53(4) . . .
45(4) . . .
44(4) . . .
47(4) . . .
42(4) . . .
42(4) . . .
47(4) . . .
48(4) . . .
48(4) . . .
49(4) . . .
46(4) . . .
55(4) . . .
46(4) . . .
44(4) . . .
44(4) . . .
51(4) . . .
49(4) . . .
32.6(29) . . .
45(4) . . .
42.0(35) . . .
43(4) . . .
54(4) . . .
42.3(34) . . .
40.7(34) . . .
46(4) . . .
37.5(32) . . .
47(4) . . .
49(4) . . .
50(4) . . .
47(4) . . .
49(4) . . .
60(4) . . .
44(4) . . .
46(4) . . .
52(4) . . .
47(4) . . .
28.4(28) . . .
40.6(34) . . .
45(4) . . .
47(4) . . .
43(4) . . .
53(4) . . .
46(4) . . .
53(4) . . .
46(4) . . .
42.0(35) . . .
43.8(34) . . .
39.3(32) . . .
52(4) . . .
47(4) . . .
44.3(35) . . .
48(4) . . .
49(4) . . .
39.0(35) . . .
52(4) . . .
48(4) . . .
51(4) . . .
45.3(35) . . .
52(4) . . .
41.0(34) . . .
48(4) . . .
43.7(34) . . .
46(4) . . .
44(4) . . .
39.3(33) . . .
57(4) . . .
47(4) . . .
46(4) . . .
47(4) . . .
40.4(34) . . .
55(4) . . .
47(4) . . .
50(4) . . .
61(4) . . .
54(4) . . .
58(4) . . .
51(4) . . .
43(4) . . .
42(4) . . .
48(4) . . .
51(4) . . .
48(4) . . .
55(4) . . .
39.6(33) . . .
44(4) . . .
46(4) . . .
48(4) . . .
56(4) . . .
50(4) . . .
44(4) . . .
54(4) . . .
44(4) . . .
54(4) . . .
49(4) . . .
46(4) . . .
40.7(33) . . .
52(4) . . .
48(4) . . .
43(4) . . .
50(4) . . .
37.1(31) . . .
44(4) . . .
52(4) . . .
47(4) . . .
40.1(33) . . .
52(4) . . .
51(4) . . .
39.4(33) . . .
50(4) . . .
36.4(31) . . .
48(4) . . .
43(4) . . .
45(4) . . .
43.1(35) . . .
36.7(32) . . .
44.0(35) . . .
55(4) . . .
46(4) . . .
40.5(34) . . .
45.4(35) . . .
48(4) . . .
44(4) . . .
53(4) . . .
45(4) . . .
52(4) . . .
51(4) . . .
39.9(32) . . .
44(4) . . .
47(4) . . .
46(4) . . .
43.4(35) . . .
55(4) . . .
56(4) . . .
42.9(35) . . .
36.7(31) . . .
47(4) . . .
51(4) . . .
43(4) . . .
40.5(34) . . .
37.4(32) . . .
48(4) . . .
51(4) . . .
40.8(34) . . .
45.0(35) . . .
54(4) . . .
53(4) . . .
54(4) . . .
44(4) . . .
33.4(31) . . .
48(4) . . .
49(4) . . .
40.4(33) . . .
44(4) . . .
50(4) . . .
40.9(35) . . .
54(4) . . .
36.1(32) . . .
58(4) . . .
52(4) . . .
52(4) . . .
49(4) . . .
46(4) . . .
51(4) . . .
39.9(34) . . .
45.1(35) . . .
49(4) . . .
51(4) . . .
44(4) . . .
44.5(35) . . .
53(4) . . .
47(4) . . .
50(4) . . .
43.5(35) . . .
42.0(34) . . .
40.5(34) . . .
46(4) . . .
44.0(34) . . .
38.4(32) . . .
43.2(34) . . .
41.3(35) . . .
38.0(34) . . .
42(4) . . .
39.4(33) . . .
45.0(35) . . .
46(4) . . .
48(4) . . .
41.2(33) . . .
48(4) . . .
38.4(32) . . .
43(4) . . .
40.0(34) . . .
42.9(34) . . .
47(4) . . .
33.8(30) . . .
36.3(32) . . .
52(4) . . .
53(4) . . .
36.2(32) . . .
39.3(32) . . .
47(4) . . .
48(4) . . .
48(4) . . .
46.4(35) . . .
52(4) . . .
45(4) . . .
45(4) . . .
48(4) . . .
42.7(34) . . .
53(4) . . .
44(4) . . .
43(4) . . .
49(4) . . .
42.2(33) . . .
38.5(32) . . .
44(4) . . .
46(4) . . .
44(4) . . .
53(4) . . .
49(4) . . .
38.4(34) . . .
53(4) . . .
41.9(35) . . .
41.1(33) . . .
41.3(34) . . .
41(4) . . .
40.1(35) . . .
50(4) . . .
46(4) . . .
50(4) . . .
46(4) . . .
47(4) . . .
39.4(33) . . .
46(4) . . .
38.1(33) . . .
48(4) . . .
51(4) . . .
46(4) . . .
44.0(34) . . .
49(4) . . .
41.2(33) . . .
45(4) . . .
44(4) . . .
47(4) . . .
36.8(32) . . .
46(4) . . .
45(4) . . .
49(4) . . .
50(4) . . .
40.6(35) . . .
46(4) . . .
42(4) . . .
44.0(34) . . .
41.6(33) . . .
47(4) . . .
48(4) . . .
42(4) . . .
50(4) . . .
53(4) . . .
51(4) . . .
46(4) . . .
42(4) . . .
40.4(33) . . .
45(4) . . .
57(4) . . .
48(4) . . .
46(4) . . .
35.3(31) . . .
46(4) . . .
40.2(35) . . .
47(4) . . .
51(4) . . .
59(4) . . .
52(4) . . .
61(4) . . .
51(4) . . .
44(4) . . .
39.4(32) . . .
47(4) . . .
47(4) . . .
48(4) . . .
44(4) . . .
44.0(34) . . .
48(4) . . .
44(4) . . .
51(4) . . .
46(4) . . .
41.0(34) . . .
37.6(33) . . .
42(4) . . .
38.9(33) . . .
42.6(34) . . .
60(4) . . .
46(4) . . .
35.8(31) . . .
38.9(32) . . .
43.4(34) . . .
40.0(33) . . .
50(4) . . .
47(4) . . .
41.2(34) . . .
44.5(34) . . .
54(4) . . .
43(4) . . .
46(4) . . .
47(4) . . .
41.5(33) . . .
43.5(34) . . .
45(4) . . .
43(4) . . .
37.7(32) . . .
44.0(34) . . .
36.4(31) . . .
36.8(32) . . .
41.3(35) . . .
48(4) . . .
47(4) . . .
47(4) . . .
50(4) . . .
42(4) . . .
43(4) . . .
42.7(34) . . .
53(4) . . .
52(4) . . .
54(4) . . .
45(4) . . .
45.6(35) . . .
53(4) . . .
42.3(34) . . .
48(4) . . .
47(4) . . .
48(4) . . .
40.7(33) . . .
40.8(34) . . .
45(4) . . .
40.7(33) . . .
36.5(32) . . .
42.0(34) . . .
46(4) . . .
44(4) . . .
50(4) . . .
41.4(34) . . .
39.0(34) . . .
42(4) . . .
44(4) . . .
38.4(32) . . .
48(4) . . .
44(4) . . .
44(4) . . .
39.3(35) . . .
36.4(32) . . .
41.5(34) . . .
45(4) . . .
46(4) . . .
40(4) . . .
38.4(32) . . .
48(4) . . .
42.5(33) . . .
48(4) . . .
52(4) . . .
45(4) . . .
53(4) . . .
48(4) . . .
45(4) . . .
39.8(35) . . .
38.3(32) . . .
44(4) . . .
42.4(35) . . .
51(4) . . .
48(4) . . .
51(4) . . .
38.9(32) . . .
38.6(33) . . .
54(4) . . .
45(4) . . .
44.2(35) . . .
42.8(34) . . .
54(4) . . .
48(4) . . .
50(4) . . .
36.3(32) . . .
49(4) . . .
44(4) . . .
40.0(35) . . .
33.7(30) . . .
45(4) . . .
38.7(33) . . .
41(4) . . .
44(4) . . .
37.6(32) . . .
36.8(31) . . .
35.6(32) . . .
34.1(32) . . .
49(4) . . .
38.0(32) . . .
39.6(33) . . .
47(4) . . .
34.6(30) . . .
53(4) . . .
42.0(33) . . .
44.4(35) . . .
41.3(34) . . .
39.8(35) . . .
44(4) . . .
40.8(33) . . .
42.7(34) . . .
41.3(34) . . .
39.5(35) . . .
55(4) . . .
40.1(34) . . .
42.1(33) . . .
56(4) . . .
50(4) . . .
43(4) . . .
38.0(32) . . .
48(4) . . .
36.3(33) . . .
48(4) . . .
40.6(34) . . .
48(4) . . .
49(4) . . .
39.9(33) . . .
47(4) . . .
46(4) . . .
46(4) . . .
47(4) . . .
43(4) . . .
43(4) . . .
39.7(33) . . .
40.2(33) . . .
42.2(34) . . .
43(4) . . .
40.0(34) . . .
46(4) . . .
48(4) . . .
52(4) . . .
44.7(34) . . .
48(4) . . .
44(4) . . .
55(4) . . .
54(4) . . .
41.7(35) . . .
48(4) . . .
48(4) . . .
53(4) . . .
41.1(33) . . .
44(4) . . .
49(4) . . .
52(4) . . .
38.3(32) . . .
39.5(33) . . .
44(4) . . .
46(4) . . .
43.7(34) . . .
40.3(33) . . .
43(4) . . .
36.9(34) . . .
47(4) . . .
36.2(31) . . .
43.3(34) . . .
41.5(33) . . .
45(4) . . .
47(4) . . .
43.9(34) . . .
36.3(31) . . .
47(4) . . .
47(4) . . .
50(4) . . .
43.4(35) . . .
33.6(30) . . .
42(4) . . .
36.9(33) . . .
38.5(34) . . .
48(4) . . .
43.9(35) . . .
43.4(34) . . .
50(4) . . .
46(4) . . .
36.3(32) . . .
50(4) . . .
35.2(31) . . .
53(4) . . .
38.0(34) . . .
43.1(34) . . .
47(4) . . .
38.3(33) . . .
45(4) . . .
41.7(34) . . .
43.5(34) . . .
45(4) . . .
51(4) . . .
50(4) . . .
39.8(33) . . .
37.8(32) . . .
39.7(34) . . .
46(4) . . .
56(4) . . .
49(4) . . .
50(4) . . .
44.5(35) . . .
41(4) . . .
43(4) . . .
49(4) . . .
43.6(34) . . .
38.5(34) . . .
42(4) . . .
49(4) . . .
39.6(33) . . .
40.3(33) . . .
42.6(34) . . .
43(4) . . .
52(4) . . .
39.0(33) . . .
41.6(34) . . .
43(4) . . .
47(4) . . .
44(4) . . .
36.7(32) . . .
39.8(34) . . .
38.0(32) . . .
43(4) . . .
42(4) . . .
35.3(31) . . .
38.2(32) . . .
45(4) . . .
46(4) . . .
42(4) . . .
49(4) . . .
53(4) . . .
48(4) . . .
42(4) . . .
34.9(31) . . .
46(4) . . .
41.3(35) . . .
31.0(30) . . .
42.3(35) . . .
48(4) . . .
37.9(32) . . .
50(4) . . .
43.6(35) . . .
40.4(33) . . .
43.9(34) . . .
40.1(33) . . .
39.8(33) . . .
42(4) . . .
38.4(33) . . .
34.1(30) . . .
34.7(31) . . .
38.5(33) . . .
49(4) . . .
54(4) . . .
53(4) . . .
49(4) . . .
50(4) . . .
56(4) . . .
48(4) . . .
41.6(35) . . .
53(4) . . .
45(4) . . .
49(4) . . .
44(4) . . .
34.6(30) . . .
40.6(33) . . .
49(4) . . .
42(4) . . .
52(4) . . .
45.6(35) . . .
46.2(35) . . .
51(4) . . .
49(4) . . .
43.9(35) . . .
57(4) . . .
40.3(33) . . .
45(4) . . .
45(4) . . .
47(4) . . .
46(4) . . .
39.8(35) . . .
43(4) . . .
44(4) . . .
42.6(34) . . .
51(4) . . .
46(4) . . .
39.6(32) . . .
49(4) . . .
42.2(35) . . .
38.2(32) . . .
35.3(31) . . .
32.4(30) . . .
38.6(35) . . .
51(4) . . .
44.7(35) . . .
39.2(34) . . .
46(4) . . .
36.1(31) . . .
42(4) . . .
53(4) . . .
39.5(34) . . .
47(4) . . .
42.5(35) . . .
50(4) . . .
41.3(34) . . .
40.3(34) . . .
48(4) . . .
46(4) . . .
49(4) . . .
36.6(32) . . .
49(4) . . .
39.3(35) . . .
39.0(33) . . .
44.3(35) . . .
50(4) . . .
48(4) . . .
49(4) . . .
40.3(35) . . .
39.6(33) . . .
34.9(32) . . .
51(4) . . .
55(4) . . .
46(4) . . .
36.5(31) . . .
36.7(34) . . .
38.1(35) . . .
41(4) . . .
42(4) . . .
38.6(33) . . .
43(4) . . .
41(4) . . .
46(4) . . .
38.4(33) . . .
38.2(33) . . .
45(4) . . .
42(4) . . .
48(4) . . .
36.2(32) . . .
35.9(32) . . .
48(4) . . .
49(4) . . .
49(4) . . .
41.0(33) . . .
47(4) . . .
52(4) . . .
34.2(30) . . .
42.5(34) . . .
41.3(34) . . .
41.2(33) . . .
42(4) . . .
39(4) . . .
45(4) . . .
45.4(35) . . .
41.3(33) . . .
40.1(35) . . .
31.8(32) . . .
41(4) . . .
53(4) . . .
39.8(32) . . .
42(4) . . .
53(4) . . .
52(4) . . .
49(4) . . .
51(4) . . .
41.1(34) . . .
47(4) . . .
48(4) . . .
43.5(34) . . .
46(4) . . .
45(4) . . .
45(4) . . .
52(4) . . .
44.0(35) . . .
54(4) . . .
40(4) . . .
38.4(34) . . .
48(4) . . .
45(4) . . .
43(4) . . .
35.4(31) . . .
44(4) . . .
45(4) . . .
36.5(31) . . .
39.9(33) . . .
42(4) . . .
49(4) . . .
41.2(34) . . .
36.8(31) . . .
48(4) . . .
39.8(34) . . .
42(4) . . .
45(4) . . .
48(4) . . .
46(4) . . .
39.9(32) . . .
51(4) . . .
37.8(34) . . .
41.8(34) . . .
47(4) . . .
46(4) . . .
45(4) . . .
35.4(31) . . .
42.6(35) . . .
40.0(34) . . .
43(4) . . .
44(4) . . .
45(4) . . .
38.8(32) . . .
34.0(31) . . .
40(4) . . .
49(4) . . .
38.0(32) . . .
42.4(34) . . .
67(4) . . .
42.3(34) . . .
46(4) . . .
38.1(32) . . .
39.3(32) . . .
43(4) . . .
46(4) . . .
39.9(33) . . .
50(4) . . .
46(4) . . .
41.9(34) . . .
47(4) . . .
51(4) . . .
49(4) . . .
48(4) . . .
42.3(35) . . .
42.6(34) . . .
41.2(33) . . .
46(4) . . .
51(4) . . .
42(4) . . .
33.0(31) . . .
35.2(31) . . .
47(4) . . .
37.4(32) . . .
48(4) . . .
46(4) . . .
46(4) . . .
45.9(35) . . .
40.9(34) . . .
39(4) . . .
30.5(29) . . .
50(4) . . .
48(4) . . .
38.0(33) . . .
48(4) . . .
42(4) . . .
47(4) . . .
50(4) . . .
46(4) . . .
46(4) . . .
46(4) . . .
46(4) . . .
45.5(35) . . .
49(4) . . .
49(4) . . .
43(4) . . .
47(4) . . .
49(4) . . .
36.8(32) . . .
31.7(32) . . .
38.5(33) . . .
38.5(33) . . .
38.8(33) . . .
46(4) . . .
41(4) . . .
34.0(30) . . .
45(4) . . .
51(4) . . .
50(4) . . .
39.1(33) . . .
44(4) . . .
43.3(35) . . .
40.6(33) . . .
44(4) . . .
43(4) . . .
44.0(35) . . .
42.0(34) . . .
35.2(31) . . .
36.2(33) . . .
44(4) . . .
41.0(34) . . .
42.8(34) . . .
42.4(35) . . .
35.0(30) . . .
46(4) . . .
43(4) . . .
43.1(34) . . .
59(4) . . .
50(4) . . .
53(4) . . .
43(4) . . .
35.1(31) . . .
38.9(33) . . .
44(4) . . .
52(4) . . .
44(4) . . .
47(4) . . .
46(4) . . .
42.1(35) . . .
39.4(33) . . .
41.8(33) . . .
44.6(35) . . .
30.0(28) . . .
53(4) . . .
48(4) . . .
41.8(33) . . .
45.7(35) . . .
51(4) . . .
42.2(34) . . .
47(4) . . .
41.7(34) . . .
38.1(33) . . .
45(4) . . .
32.2(32) . . .
49(4) . . .
49(4) . . .
37.4(32) . . .
40.5(35) . . .
43(4) . . .
43(4) . . .
42.1(34) . . .
39.0(32) . . .
50(4) . . .
44(4) . . .
44(4) . . .
37.8(32) . . .
47(4) . . .
37.5(33) . . .
33.5(30) . . .
38.1(34) . . .
40.8(33) . . .
45(4) . . .
55(4) . . .
41.0(34) . . .
35.9(31) . . .
48(4) . . .
38.7(33) . . .
40(4) . . .
41.9(34) . . .
44.7(35) . . .
47(4) . . .
32.8(32) . . .
47(4) . . .
49(4) . . .
40.8(33) . . .
37.5(32) . . .
41(4) . . .
38.7(34) . . .
48(4) . . .
42.6(35) . . .
43.5(34) . . .
41.7(35) . . .
48(4) . . .
59(4) . . .
48(4) . . .
46(4) . . .
44(4) . . .
39(4) . . .
41.9(34) . . .
42.3(34) . . .
49(4) . . .
45.2(35) . . .
34.9(32) . . .
44(4) . . .
42.4(34) . . .
38.5(33) . . .
42(4) . . .
51(4) . . .
48(4) . . .
47(4) . . .
39.5(33) . . .
48(4) . . .
54(4) . . .
42(4) . . .
45.5(35) . . .
50(4) . . .
41.9(35) . . .
36.8(33) . . .
41(4) . . .
43.2(35) . . .
40.2(33) . . .
36.7(32) . . .
48(4) . . .
44(4) . . .
46(4) . . .
50(4) . . .
36.7(32) . . .
37.0(33) . . .
32.0(30) . . .
36.7(31) . . .
39.6(34) . . .
39.2(35) . . .
31.4(31) . . .
43(4) . . .
44.1(35) . . .
43.5(35) . . .
50(4) . . .
34.8(31) . . .
44(4) . . .
54(4) . . .
43.6(34) . . .
46(4) . . .
50(4) . . .
53(4) . . .
44.8(35) . . .
45(4) . . .
44(4) . . .
40.1(35) . . .
42.3(34) . . .
46(4) . . .
45(4) . . .
35.4(34) . . .
36.8(33) . . .
45(4) . . .
48(4) . . .
39.4(33) . . .
40.0(34) . . .
46(4) . . .
41.9(33) . . .
44.9(35) . . .
47(4) . . .
50(4) . . .
41.0(34) . . .
46.1(35) . . .
40.4(35) . . .
50(4) . . .
49(4) . . .
44.9(35) . . .
45.3(35) . . .
40(4) . . .
31.4(30) . . .
48(4) . . .
48(4) . . .
39.9(33) . . .
41.5(35) . . .
44(4) . . .
44(4) . . .
49(4) . . .
45.0(35) . . .
48(4) . . .
46(4) . . .
35.3(32) . . .
40.2(34) . . .
46(4) . . .
44(4) . . .
37.1(33) . . .
36.0(31) . . .
35.8(32) . . .
43.2(34) . . .
35.4(31) . . .
45(4) . . .
44(4) . . .
43.7(34) . . .
48(4) . . .
39.8(34) . . .
37(4) . . .
51(4) . . .
48(4) . . .
43.7(34) . . .
41.4(35) . . .
52(4) . . .
38.5(32) . . .
49(4) . . .
48(4) . . .
43.3(35) . . .
42(4) . . .
39.0(33) . . .
49(4) . . .
37.1(32) . . .
45(4) . . .
41.7(34) . . .
38.8(33) . . .
44.0(35) . . .
44.0(35) . . .
42(4) . . .
36.5(33) . . .
33.4(31) . . .
38.9(34) . . .
49(4) . . .
46.1(35) . . .
48(4) . . .
46(4) . . .
42.4(34) . . .
34.3(31) . . .
40.5(35) . . .
49(4) . . .
43(4) . . .
38.8(32) . . .
42(4) . . .
35.0(33) . . .
45(4) . . .
35.2(31) . . .
44.2(34) . . .
39.3(33) . . .
35.1(32) . . .
43.0(35) . . .
44(4) . . .
34.2(30) . . .
34.9(30) . . .
50(4) . . .
49(4) . . .
49(4) . . .
46(4) . . .
37.7(32) . . .
39.7(34) . . .
54(4) . . .
42.4(34) . . .
41.1(34) . . .
43.1(35) . . .
43(4) . . .
37.9(32) . . .
45.3(35) . . .
41(4) . . .
39.0(34) . . .
32.2(31) . . .
42(4) . . .
25.8(26) . . .
37.5(32) . . .
48(4) . . .
39.7(35) . . .
46(4) . . .
48(4) . . .
33.5(31) . . .
41.1(34) . . .
38.9(34) . . .
43(4) . . .
45(4) . . .
41.2(35) . . .
42(4) . . .
37.1(31) . . .
40.3(33) . . .
47(4) . . .
39.8(34) . . .
44(4) . . .
40.2(35) . . .
49(4) . . .
44.7(35) . . .
37.6(33) . . .
43(4) . . .
41(4) . . .
40.0(33) . . .
47(4) . . .
40.1(33) . . .
50(4) . . .
44.5(34) . . .
47(4) . . .
57(4) . . .
36.4(32) . . .
47(4) . . .
39.3(32) . . .
49(4) . . .
48(4) . . .
40.0(33) . . .
45(4) . . .
45(4) . . .
38.3(33) . . .
35.0(30) . . .
47(4) . . .
57(4) . . .
43.7(34) . . .
45.4(35) . . .
36.2(31) . . .
43(4) . . .
46(4) . . .
54(4) . . .
39.3(32) . . .
53(4) . . .
42.3(34) . . .
50(4) . . .
45(4) . . .
39.4(33) . . .
51(4) . . .
50(4) . . .
51(4) . . .
39.4(33) . . .
39.4(32) . . .
39.8(34) . . .
35.2(33) . . .
43.0(35) . . .
41.1(34) . . .
46(4) . . .
39.1(34) . . .
43(4) . . .
45(4) . . .
39.0(33) . . .
41.0(33) . . .
44(4) . . .
40.8(34) . . .
37.1(32) . . .
40.5(34) . . .
33.6(31) . . .
49(4) . . .
54(4) . . .
40.7(34) . . .
42.9(34) . . .
41.7(33) . . .
42(4) . . .
41(4) . . .
44.4(35) . . .
45(4) . . .
40.8(33) . . .
44(4) . . .
36.3(34) . . .
41(4) . . .
43.8(34) . . .
41.5(33) . . .
43(4) . . .
45(4) . . .
43(4) . . .
42.2(34) . . .
45.0(35) . . .
42.8(34) . . .
38(4) . . .
36.2(33) . . .
36.9(31) . . .
41.7(34) . . .
38.5(33) . . .
40(4) . . .
42(4) . . .
39.5(32) . . .
44.1(35) . . .
43(4) . . .
44(4) . . .
30.4(29) . . .
46(4) . . .
36.2(32) . . .
43(4) . . .
40.7(35) . . .
38.1(34) . . .
37.4(32) . . .
42.6(35) . . .
36.2(32) . . .
36.0(34) . . .
42(4) . . .
36.5(31) . . .
46(4) . . .
43(4) . . .
42(4) . . .
48(4) . . .
45.4(35) . . .
54(4) . . .
40(4) . . .
38.3(34) . . .
45(4) . . .
46(4) . . .
36.1(34) . . .
40.0(34) . . .
47(4) . . .
37.3(32) . . .
39.8(33) . . .
40.2(34) . . .
48(4) . . .
32.1(30) . . .
42.0(34) . . .
41.7(34) . . .
33.3(29) . . .
50(4) . . .
50(4) . . .
40.8(33) . . .
45(4) . . .
48(4) . . .
39.0(34) . . .
48(4) . . .
40.5(33) . . .
38.0(32) . . .
32.9(30) . . .
36.8(33) . . .
42(4) . . .
44.7(34) . . .
36.5(32) . . .
36.7(33) . . .
40(4) . . .
56(4) . . .
42.7(34) . . .
52(4) . . .
44(4) . . .
41(4) . . .
31.5(29) . . .
44.2(35) . . .
36.7(31) . . .
48(4) . . .
56(4) . . .
46(4) . . .
39.8(33) . . .
39.2(33) . . .
42(4) . . .
40(4) . . .
51(4) . . .
47(4) . . .
36.3(32) . . .
41.5(34) . . .
44(4) . . .
36.0(33) . . .
39.8(33) . . .
35.3(33) . . .
34.0(31) . . .
35.6(33) . . .
42.8(35) . . .
37.2(32) . . .
33.9(32) . . .
43(4) . . .
46(4) . . .
38.8(32) . . .
39.5(33) . . .
44(4) . . .
36.0(32) . . .
41.8(35) . . .
39.7(34) . . .
43.5(34) . . .
39.7(34) . . .
41(4) . . .
43(4) . . .
36.8(31) . . .
42.1(34) . . .
48(4) . . .
43(4) . . .
39.8(33) . . .
37.8(32) . . .
41.4(34) . . .
41.5(34) . . .
45(4) . . .
42.3(34) . . .
43.0(35) . . .
40.8(33) . . .
48(4) . . .
35.6(33) . . .
33.8(32) . . .
42.6(34) . . .
41.6(33) . . .
39.6(32) . . .
52(4) . . .
30.9(31) . . .
39.4(33) . . .
45.2(35) . . .
51(4) . . .
44(4) . . .
43.5(34) . . .
45.4(35) . . .
44(4) . . .
45(4) . . .
36.7(33) . . .
35.2(31) . . .
43.1(34) . . .
45(4) . . .
46(4) . . .
43(4) . . .
44(4) . . .
34.7(30) . . .
33.3(31) . . .
41(4) . . .
41(4) . . .
32.7(32) . . .
32.6(30) . . .
28.7(28) . . .
42(4) . . .
50(4) . . .
46(4) . . .
44.1(34) . . .
49(4) . . .
42(4) . . .
39.1(35) . . .
47(4) . . .
41.7(35) . . .
34.7(34) . . .
41(4) . . .
52(4) . . .
44.7(35) . . .
35.0(30) . . .
41.5(35) . . .
34.6(34) . . .
44(4) . . .
45(4) . . .
43.9(35) . . .
48(4) . . .
47(4) . . .
45(4) . . .
48(4) . . .
33.1(30) . . .
43(4) . . .
37.8(35) . . .
36.7(33) . . .
38.2(32) . . .
42(4) . . .
35.7(32) . . .
33.0(32) . . .
41(4) . . .
35.5(31) . . .
42(4) . . .
34.3(32) . . .
43(4) . . .
48(4) . . .
43.9(35) . . .
37.9(33) . . .
39.3(34) . . .
41(4) . . .
38.5(34) . . .
37.5(32) . . .
38.1(33) . . .
40.1(33) . . .
43.3(35) . . .
43.3(34) . . .
45.2(35) . . .
38.4(33) . . .
38.2(34) . . .
38.9(34) . . .
42(4) . . .
36.6(31) . . .
42.8(35) . . .
43(4) . . .
49(4) . . .
49(4) . . .
36.2(31) . . .
43(4) . . .
45(4) . . .
50(4) . . .
49(4) . . .
43.6(34) . . .
46(4) . . .
44(4) . . .
36.1(32) . . .
39.2(33) . . .
33.2(30) . . .
31.5(30) . . .
39(4) . . .
38.6(35) . . .
51(4) . . .
52(4) . . .
45(4) . . .
34.5(32) . . .
33.6(31) . . .
39.4(33) . . .
38.6(32) . . .
41.8(34) . . .
50(4) . . .
48(4) . . .
54(4) . . .
38.9(35) . . .
37.6(31) . . .
43(4) . . .
42.1(34) . . .
47(4) . . .
40.8(33) . . .
51(4) . . .
41(4) . . .
44(4) . . .
41.6(33) . . .
51(4) . . .
39.4(33) . . .
38.8(34) . . .
40.8(34) . . .
40.5(34) . . .
36.1(32) . . .
39.5(34) . . .
45(4) . . .
37.6(32) . . .
44(4) . . .
38.7(34) . . .
50(4) . . .
49(4) . . .
40.4(33) . . .
47(4) . . .
35.9(32) . . .
47(4) . . .
42(4) . . .
42.0(34) . . .
43.8(35) . . .
56(4) . . .
38.8(35) . . .
40.0(34) . . .
44.7(35) . . .
42.3(35) . . .
42.2(35) . . .
44(4) . . .
41.7(33) . . .
39.4(33) . . .
40.3(33) . . .
44(4) . . .
39.6(34) . . .
42(4) . . .
44.2(35) . . .
33.5(30) . . .
36.4(32) . . .
41(4) . . .
43(4) . . .
39.5(33) . . .
46(4) . . .
51(4) . . .
36.1(30) . . .
45(4) . . .
47(4) . . .
43.2(35) . . .
43(4) . . .
42.5(35) . . .
46(4) . . .
43.9(35) . . .
40.0(34) . . .
47(4) . . .
41.9(34) . . .
46.0(35) . . .
42.8(35) . . .
44(4) . . .
40.5(35) . . .
45(4) . . .
28.5(28) . . .
40.3(33) . . .
38.4(33) . . .
38(4) . . .
39(4) . . .
46(4) . . .
39.6(33) . . .
34.8(33) . . .
31.4(31) . . .
41.2(35) . . .
41.5(34) . . .
49(4) . . .
34.9(31) . . .
38.4(35) . . .
39.6(34) . . .
51(4) . . .
55(4) . . .
37.0(32) . . .
38(4) . . .
38.9(34) . . .
43.6(35) . . .
37.7(32) . . .
36.7(32) . . .
48(4) . . .
44.0(35) . . .
39.5(33) . . .
41(4) . . .
40(4) . . .
42(4) . . .
45.6(35) . . .
49(4) . . .
47(4) . . .
43(4) . . .
39.2(34) . . .
38.6(33) . . .
50(4) . . .
47(4) . . .
40(4) . . .
34.9(32) . . .
35.6(31) . . .
51(4) . . .
36.7(32) . . .
41(4) . . .
41.5(34) . . .
39.4(33) . . .
38.8(33) . . .
42(4) . . .
33.9(32) . . .
42(4) . . .
32.2(30) . . .
41.5(33) . . .
42.0(35) . . .
40.1(35) . . .
40(4) . . .
38.7(35) . . .
35.0(31) . . .
38.5(34) . . .
34.4(31) . . .
43(4) . . .
39.9(33) . . .
48(4) . . .
45(4) . . .
47(4) . . .
45(4) . . .
48(4) . . .
40.8(32) . . .
32.5(30) . . .
34.1(31) . . .
40.1(33) . . .
44.1(35) . . .
44(4) . . .
47(4) . . .
38.2(34) . . .
39.5(34) . . .
36.1(31) . . .
46(4) . . .
44(4) . . .
46(4) . . .
46(4) . . .
38.4(32) . . .
40.2(34) . . .
38.5(33) . . .
33.7(32) . . .
45(4) . . .
41.4(34) . . .
43.0(35) . . .
40.4(35) . . .
49(4) . . .
36.4(32) . . .
34.6(31) . . .
49(4) . . .
53(4) . . .
39.2(32) . . .
42.2(34) . . .
36.9(32) . . .
32.4(30) . . .
42(4) . . .
45(4) . . .
46(4) . . .
39.4(33) . . .
45(4) . . .
36.8(34) . . .
42(4) . . .
45(4) . . .
38.3(32) . . .
37.0(32) . . .
43(4) . . .
38.7(33) . . .
37.9(32) . . .
35.5(31) . . .
39.2(35) . . .
41(4) . . .
43.8(35) . . .
39.5(33) . . .
47(4) . . .
40.0(34) . . .
47(4) . . .
52(4) . . .
40.2(33) . . .
50(4) . . .
41.1(34) . . .
36.3(31) . . .
35.2(31) . . .
39.4(33) . . .
51(4) . . .
40(4) . . .
36.5(33) . . .
32.0(29) . . .
37.5(32) . . .
45(4) . . .
41.2(34) . . .
39.8(34) . . .
46(4) . . .
41.7(34) . . .
38.7(33) . . .
44(4) . . .
45(4) . . .
44(4) . . .
50(4) . . .
40.9(34) . . .
37.3(33) . . .
41(4) . . .
28.0(27) . . .
44.8(34) . . .
40.5(34) . . .
29.2(29) . . .
36.5(32) . . .
37.0(33) . . .
33.8(30) . . .
36.3(32) . . .
44(4) . . .
38.4(32) . . .
51(4) . . .
41.2(33) . . .
44(4) . . .
36.7(33) . . .
40.2(34) . . .
48(4) . . .
44.5(34) . . .
45(4) . . .
31.5(30) . . .
35.9(32) . . .
38.3(33) . . .
44.7(34) . . .
39.1(33) . . .
42(4) . . .
40.4(33) . . .
38.9(33) . . .
46.0(35) . . .
46(4) . . .
30.3(29) . . .
40.7(33) . . .
51(4) . . .
44.8(35) . . .
38.8(34) . . .
37(4) . . .
36.8(33) . . .
51(4) . . .
43.7(34) . . .
42.5(34) . . .
44(4) . . .
43(4) . . .
30.9(29) . . .
47(4) . . .
40(4) . . .
40(4) . . .
36.1(32) . . .
51(4) . . .
47(4) . . .
42.6(35) . . .
45(4) . . .
49(4) . . .
37.6(32) . . .
32.5(30) . . .
35.3(32) . . .
48(4) . . .
42.0(34) . . .
37.0(31) . . .
42(4) . . .
38.1(33) . . .
35.7(30) . . .
59(4) . . .
41.5(34) . . .
32.3(30) . . .
41(4) . . .
41(4) . . .
51(4) . . .
37.1(32) . . .
37.0(31) . . .
44(4) . . .
45(4) . . .
40.1(33) . . .
41.8(33) . . .
38.8(34) . . .
43(4) . . .
41(4) . . .
33.4(30) . . .
37.3(32) . . .
37.3(31) . . .
42(4) . . .
40(4) . . .
46(4) . . .
39.3(32) . . .
43(4) . . .
38.9(34) . . .
36.2(33) . . .
49(4) . . .
40.2(33) . . .
37.7(33) . . .
34.2(30) . . .
38.9(32) . . .
38.5(32) . . .
46(4) . . .
34.0(31) . . .
39.6(35) . . .
37.3(34) . . .
34.8(30) . . .
36.0(32) . . .
37.1(33) . . .
40.7(34) . . .
44(4) . . .
41.6(34) . . .
40.5(34) . . .
44(4) . . .
42.7(34) . . .
42.3(34) . . .
38.3(32) . . .
48(4) . . .
39.8(34) . . .
31.7(29) . . .
40.1(34) . . .
43.9(35) . . .
41.7(35) . . .
40(4) . . .
39.3(35) . . .
44(4) . . .
38.1(32) . . .
50(4) . . .
35.7(32) . . .
38.2(33) . . .
34.0(31) . . .
38.2(33) . . .
41.5(34) . . .
46(4) . . .
41(4) . . .
39.4(33) . . .
53(4) . . .
36.9(31) . . .
47(4) . . .
39.8(34) . . .
45(4) . . .
47(4) . . .
40(4) . . .
33.6(33) . . .
39.6(34) . . .
44(4) . . .
48(4) . . .
44(4) . . .
41(4) . . .
45(4) . . .
43.8(35) . . .
43.3(34) . . .
38.1(33) . . .
39.2(33) . . .
44(4) . . .
34.9(31) . . .
42.0(34) . . .
25.2(26) . . .
35.6(33) . . .
39.0(33) . . .
37.1(32) . . .
38.3(34) . . .
40(4) . . .
37.4(33) . . .
43.5(34) . . .
40.7(34) . . .
60(5) . . .
42(4) . . .
42(4) . . .
39.7(34) . . .
38.0(32) . . .
47(4) . . .
38.3(34) . . .
34.4(30) . . .
54(4) . . .
32.4(31) . . .
42.0(34) . . .
45(4) . . .
36.4(32) . . .
39.8(33) . . .
45.0(34) . . .
48(4) . . .
40(4) . . .
43(4) . . .
40.6(34) . . .
42.9(34) . . .
31.4(28) . . .
38.4(34) . . .
42(4) . . .
37.1(32) . . .
44(4) . . .
41(4) . . .
41.0(35) . . .
39.7(32) . . .
44(4) . . .
49(4) . . .
40.3(34) . . .
34.6(30) . . .
46(4) . . .
39.3(32) . . .
39.0(34) . . .
32.7(31) . . .
29.3(30) . . .
43.4(34) . . .
39.9(34) . . .
46(4) . . .
45(4) . . .
37.5(34) . . .
36.2(32) . . .
47(4) . . .
45(4) . . .
40.2(33) . . .
38.3(33) . . .
40.6(34) . . .
44.1(35) . . .
45(4) . . .
33.4(30) . . .
51(4) . . .
44(4) . . .
46(4) . . .
42.7(35) . . .
40(4) . . .
38.0(33) . . .
35.1(32) . . .
37.6(32) . . .
49(4) . . .
34.1(34) . . .
43(4) . . .
40.6(34) . . .
34.2(31) . . .
37.9(35) . . .
40.3(35) . . .
43(4) . . .
40.0(33) . . .
34.5(31) . . .
38.4(33) . . .
48(4) . . .
38.8(34) . . .
37.7(32) . . .
39.9(34) . . .
45(4) . . .
41.5(35) . . .
48(4) . . .
39.2(32) . . .
33.0(30) . . .
46(4) . . .
49(4) . . .
35.5(32) . . .
40.2(33) . . .
30.5(30) . . .
43(4) . . .
33.7(31) . . .
39.6(33) . . .
37.6(32) . . .
38.1(34) . . .
49(4) . . .
40.5(34) . . .
43(4) . . .
36.6(32) . . .
30.9(30) . . .
52(4) . . .
38.9(34) . . .
30.3(28) . . .
35.4(31) . . .
46(4) . . .
37.3(32) . . .
41.2(35) . . .
34.2(30) . . .
40.9(34) . . .
51(4) . . .
29.8(30) . . .
40.1(34) . . .
45(4) . . .
48(4) . . .
41.8(35) . . .
43(4) . . .
31.7(29) . . .
38.3(32) . . .
40.8(34) . . .
45(4) . . .
45(4) . . .
44(4) . . .
40.9(33) . . .
47(4) . . .
42.1(34) . . .
43(4) . . .
48(4) . . .
40.5(33) . . .
43.4(34) . . .
52(4) . . .
37(4) . . .
42(4) . . .
34.5(31) . . .
34.7(32) . . .
30.4(32) . . .
33.7(32) . . .
37.8(34) . . .
41.5(33) . . .
50(4) . . .
40.2(34) . . .
45(4) . . .
38.7(33) . . .
42.5(34) . . .
33.3(30) . . .
46(4) . . .
40.2(35) . . .
44.7(35) . . .
43.6(34) . . .
34.6(32) . . .
34.2(32) . . .
43(4) . . .
41.8(35) . . .
39.8(33) . . .
40.5(33) . . .
47(4) . . .
37.2(32) . . .
35.2(32) . . .
35.4(31) . . .
42.8(34) . . .
44(4) . . .
45(4) . . .
39.7(33) . . .
43.1(34) . . .
39.4(32) . . .
43(4) . . .
41.2(34) . . .
45(4) . . .
34.4(31) . . .
40.5(35) . . .
37.1(35) . . .
33.5(32) . . .
36.4(32) . . .
48(4) . . .
45(4) . . .
37.9(34) . . .
38.6(33) . . .
36.3(31) . . .
44(4) . . .
42.8(35) . . .
47(4) . . .
41.5(34) . . .
48(4) . . .
37.3(32) . . .
40(4) . . .
45(4) . . .
40.3(34) . . .
32.7(30) . . .
46(4) . . .
33.5(31) . . .
36.3(34) . . .
42(4) . . .
38.9(32) . . .
52(4) . . .
42.2(35) . . .
35.7(32) . . .
42(4) . . .
43.5(35) . . .
32.3(30) . . .
34.5(32) . . .
38.6(33) . . .
42.3(34) . . .
45.3(35) . . .
47(4) . . .
40.8(33) . . .
43.3(34) . . .
49(4) . . .
42.5(34) . . .
52(4) . . .
33.7(30) . . .
38.7(34) . . .
32.1(31) . . .
36.3(31) . . .
30.3(30) . . .
31.8(31) . . .
34.8(31) . . .
51(4) . . .
37.3(32) . . .
48(4) . . .
48(4) . . .
42.3(35) . . .
47(4) . . .
44.8(35) . . .
35.8(31) . . .
45(4) . . .
40.0(33) . . .
44.1(34) . . .
48(4) . . .
45(4) . . .
40(4) . . .
42.7(35) . . .
46(4) . . .
44.3(34) . . .
40.2(33) . . .
42(4) . . .
42.9(35) . . .
45(4) . . .
41.0(34) . . .
36.2(31) . . .
38.5(34) . . .
48(4) . . .
45(4) . . .
33.2(29) . . .
44(4) . . .
44(4) . . .
39.6(33) . . .
44.1(35) . . .
42.0(35) . . .
34.2(30) . . .
41.6(35) . . .
48(4) . . .
33.6(30) . . .
33.1(30) . . .
29.6(29) . . .
34.0(31) . . .
39.8(34) . . .
37.3(33) . . .
42.4(34) . . .
46(4) . . .
41.4(33) . . .
38.9(32) . . .
47(4) . . .
48(4) . . .
44(4) . . .
52(4) . . .
35.9(31) . . .
45.5(35) . . .
38.2(32) . . .
43(4) . . .
47(4) . . .
36.3(31) . . .
38.7(32) . . .
31.8(30) . . .
41(4) . . .
33.1(30) . . .
45(4) . . .
35.8(31) . . .
35.1(33) . . .
46(4) . . .
44(4) . . .
28.1(28) . . .
38.3(33) . . .
45(4) . . .
45(4) . . .
38.3(33) . . .
36.4(32) . . .
37.6(33) . . .
25.8(27) . . .
41(4) . . .
39.1(33) . . .
42.4(34) . . .
39.2(33) . . .
41.5(35) . . .
36.3(33) . . .
48(4) . . .
40.6(34) . . .
43.0(34) . . .
37.2(33) . . .
39(4) . . .
42.8(34) . . .
36.8(32) . . .
45(4) . . .
37.5(32) . . .
45(4) . . .
37.6(33) . . .
40.1(34) . . .
44(4) . . .
40.5(35) . . .
30.9(30) . . .
36.3(33) . . .
39.4(33) . . .
35.6(33) . . .
36.7(34) . . .
40(4) . . .
35.4(33) . . .
39.1(33) . . .
46(4) . . .
28.8(29) . . .
27.0(28) . . .
34.5(32) . . .
38.6(33) . . .
35.5(32) . . .
38.8(35) . . .
38.0(33) . . .
30.9(29) . . .
35.8(31) . . .
38.2(35) . . .
40(4) . . .
46(4) . . .
46(4) . . .
43.8(35) . . .
39.8(33) . . .
46(4) . . .
49(4) . . .
41.5(34) . . .
43.6(34) . . .
41.7(33) . . .
44(4) . . .
49(4) . . .
46(4) . . .
45.2(35) . . .
40.4(35) . . .
43(4) . . .
34.3(31) . . .
50(4) . . .
27.5(27) . . .
47(4) . . .
39.4(32) . . .
35.5(31) . . .
50(4) . . .
44(4) . . .
36.2(33) . . .
33.4(31) . . .
41.5(35) . . .
42.5(34) . . .
38.3(34) . . .
37.0(33) . . .
48(4) . . .
47(4) . . .
41.6(34) . . .
40(4) . . .
32.9(33) . . .
45(4) . . .
43.9(34) . . .
40.3(33) . . .
42(4) . . .
31.4(29) . . .
35.7(32) . . .
37.5(32) . . .
36.8(32) . . .
37.3(34) . . .
36.3(33) . . .
35.0(31) . . .
50(4) . . .
35.7(31) . . .
44(4) . . .
35.8(34) . . .
30.6(29) . . .
41.2(34) . . .
41.2(33) . . .
34.7(31) . . .
37.8(34) . . .
38.9(32) . . .
48(4) . . .
43.7(34) . . .
43(4) . . .
35.8(34) . . .
43(4) . . .
34.0(30) . . .
34.3(31) . . .
45(4) . . .
47(4) . . .
38.3(32) . . .
40.5(33) . . .
43.0(34) . . .
37.3(32) . . .
43(4) . . .
46(4) . . .
49(4) . . .
41(4) . . .
44(4) . . .
37.2(35) . . .
37.7(32) . . .
39.8(34) . . .
42(4) . . .
46(4) . . .
42.3(34) . . .
36.5(31) . . .
39.1(33) . . .
50(4) . . .
37.4(34) . . .
38.8(34) . . .
45(4) . . .
43.4(34) . . .
42(4) . . .
45(4) . . .
43.9(35) . . .
49(4) . . .
53(4) . . .
45(4) . . .
44(4) . . .
32.1(29) . . .
46(4) . . .
35.4(31) . . .
40.2(35) . . .
41.2(35) . . .
39.7(35) . . .
42.5(35) . . .
36.3(31) . . .
40.2(34) . . .
39.0(34) . . .
40(4) . . .
34.2(31) . . .
37.8(32) . . .
42.8(34) . . .
34.4(31) . . .
42(4) . . .
45.7(35) . . .
43.2(34) . . .
49(4) . . .
37.7(33) . . .
38.8(33) . . .
42.0(34) . . .
43.9(35) . . .
39.3(33) . . .
40.6(34) . . .
39.8(34) . . .
34.5(31) . . .
37.9(32) . . .
26.7(26) . . .
36.2(32) . . .
40.6(34) . . .
45.2(35) . . .
41.9(34) . . .
42.4(35) . . .
44(4) . . .
40.6(34) . . .
42.8(34) . . .
56(4) . . .
43(4) . . .
36.8(32) . . .
34.4(31) . . .
35.9(31) . . .
41(4) . . .
36.8(32) . . .
34.5(31) . . .
42(4) . . .
37.9(32) . . .
39.3(34) . . .
44.2(35) . . .
45.3(35) . . .
47(4) . . .
43.7(34) . . .
38.7(32) . . .
40(4) . . .
38.8(33) . . .
36.2(32) . . .
36.3(32) . . .
37.8(33) . . .
39(4) . . .
47(4) . . .
42.7(34) . . .
37.4(32) . . .
43(4) . . .
41.3(35) . . .
39.9(34) . . .
39.5(33) . . .
39.6(34) . . .
36.6(34) . . .
46(4) . . .
44(4) . . .
39.1(33) . . .
40.3(34) . . .
33.8(29) . . .
39(4) . . .
35.6(33) . . .
36.2(32) . . .
35.7(33) . . .
35.0(33) . . .
42(4) . . .
41.1(34) . . .
44.1(35) . . .
34.7(32) . . .
39.0(34) . . .
40.3(33) . . .
46(4) . . .
33.9(30) . . .
38.5(33) . . .
46(4) . . .
38.7(33) . . .
47(4) . . .
49(4) . . .
33.7(32) . . .
38.4(33) . . .
42.1(34) . . .
47(4) . . .
33.9(30) . . .
41.5(35) . . .
41(4) . . .
40.9(34) . . .
45.8(35) . . .
34.0(31) . . .
34.7(31) . . .
33.5(32) . . .
40.2(34) . . .
38.0(31) . . .
34.8(30) . . .
33.2(32) . . .
39.9(34) . . .
44(4) . . .
39.5(33) . . .
47(4) . . .
34.8(30) . . .
43(4) . . .
30.2(30) . . .
40.3(33) . . .
40.7(34) . . .
35.7(32) . . .
32.9(30) . . .
41.0(35) . . .
50(4) . . .
37.8(33) . . .
40(4) . . .
40(4) . . .
36.9(34) . . .
41.6(33) . . .
45(4) . . .
34.8(30) . . .
44(4) . . .
37.7(33) . . .
44.3(34) . . .
47(4) . . .
43.2(34) . . .
37.4(32) . . .
41.3(34) . . .
34.5(31) . . .
34.3(33) . . .
36.3(35) . . .
38.5(33) . . .
38.8(32) . . .
33.3(31) . . .
45(4) . . .
50(4) . . .
39.3(35) . . .
31.5(29) . . .
40.2(34) . . .
38.8(33) . . .
33.1(30) . . .
49(4) . . .
47(4) . . .
39.0(33) . . .
37.6(34) . . .
45(4) . . .
41(4) . . .
44(4) . . .
38.3(33) . . .
36.2(32) . . .
41(4) . . .
40.9(34) . . .
41.6(34) . . .
34.8(31) . . .
24.9(25) . . .
35.6(33) . . .
37.8(34) . . .
34.6(30) . . .
51(4) . . .
46(4) . . .
42.5(34) . . .
43(4) . . .
37.6(32) . . .
36.7(32) . . .
43(4) . . .
41(4) . . .
38.9(33) . . .
35.0(31) . . .
41(4) . . .
27.7(27) . . .
30.7(29) . . .
42.3(35) . . .
45(4) . . .
39.3(34) . . .
39.0(35) . . .
33.2(31) . . .
33.0(32) . . .
40.2(33) . . .
36.3(32) . . .
42(4) . . .
51(4) . . .
32.7(29) . . .
37.0(32) . . .
32.3(30) . . .
28.4(28) . . .
44(4) . . .
40.9(33) . . .
33.9(30) . . .
39.0(33) . . .
47(4) . . .
31.1(30) . . .
33.7(30) . . .
34.1(32) . . .
29.9(30) . . .
37.9(35) . . .
29.6(28) . . .
41.3(34) . . .
34.3(30) . . .
41.7(34) . . .
33.2(33) . . .
35.4(34) . . .
33.6(30) . . .
43.5(35) . . .
33.0(30) . . .
41(4) . . .
41.8(34) . . .
37.1(32) . . .
36.5(31) . . .
35.7(33) . . .
31.7(33) . . .
37.7(33) . . .
39.8(33) . . .
37.3(32) . . .
45(4) . . .
37.8(34) . . .
33.0(32) . . .
35.4(32) . . .
44(4) . . .
30.7(29) . . .
40(4) . . .
32.8(30) . . .
39.8(34) . . .
34.0(32) . . .
40(4) . . .
35.6(32) . . .
35.6(34) . . .
39.3(33) . . .
39.1(35) . . .
37.6(33) . . .
35.9(32) . . .
38.5(34) . . .
45.7(35) . . .
40(4) . . .
39.4(35) . . .
37.2(33) . . .
42.5(34) . . .
41.8(34) . . .
29.5(28) . . .
37.0(35) . . .
40.1(35) . . .
27.0(28) . . .
32.4(32) . . .
35.0(32) . . .
44(4) . . .
36.8(32) . . .
43.6(34) . . .
33.7(30) . . .
36.5(32) . . .
42(4) . . .
39.7(33) . . .
38.8(33) . . .
36.8(31) . . .
33.6(30) . . .
46(4) . . .
42.3(34) . . .
29.0(28) . . .
42.6(34) . . .
50(4) . . .
37.9(35) . . .
28.5(28) . . .
31.2(29) . . .
36.4(31) . . .
45(4) . . .
39.4(35) . . .
36.4(32) . . .
38.8(32) . . .
32.0(30) . . .
39.8(33) . . .
38.4(34) . . .
31.3(30) . . .
45(4) . . .
34.3(30) . . .
39.7(34) . . .
41(4) . . .
35.1(33) . . .
36.7(32) . . .
42.5(35) . . .
42(4) . . .
35.4(32) . . .
42(4) . . .
34.7(31) . . .
43(4) . . .
45(4) . . .
39.4(34) . . .
48(4) . . .
36.7(32) . . .
36.0(33) . . .
38.5(33) . . .
37.7(32) . . .
39.7(34) . . .
44.7(35) . . .
49(4) . . .
44(4) . . .
45(4) . . .
43.8(34) . . .
37.8(32) . . .
39.5(34) . . .
32.6(31) . . .
42(4) . . .
34.8(30) . . .
38.5(33) . . .
30.0(29) . . .
46(4) . . .
38.4(34) . . .
31.4(29) . . .
35.3(33) . . .
34.7(31) . . .
32.6(32) . . .
35.3(33) . . .
35.7(31) . . .
42.8(34) . . .
48(4) . . .
43(4) . . .
48(4) . . .
43.5(34) . . .
42.7(34) . . .
42(4) . . .
36.6(33) . . .
45(4) . . .
55(4) . . .
47(4) . . .
40.9(35) . . .
34.4(33) . . .
39(4) . . .
38.1(32) . . .
29.9(29) . . .
33.3(30) . . .
44(4) . . .
38.5(32) . . .
47(4) . . .
48(4) . . .
40.0(34) . . .
40.4(34) . . .
41.2(35) . . .
41.4(34) . . .
40(4) . . .
40.4(34) . . .
37.6(34) . . .
31.9(30) . . .
36.9(32) . . .
28.9(30) . . .
40(4) . . .
46(4) . . .
38.5(32) . . .
46(4) . . .
40.6(33) . . .
46(4) . . .
39.6(33) . . .
47(4) . . .
43.6(34) . . .
39(4) . . .
39(4) . . .
37.5(32) . . .
41(4) . . .
39.8(33) . . .
39.3(35) . . .
36(4) . . .
31.3(31) . . .
41.1(34) . . .
36.8(31) . . .
45(4) . . .
44(4) . . .
41.4(34) . . .
44.6(35) . . .
36.3(31) . . .
33.7(31) . . .
30.9(31) . . .
37.3(35) . . .
36.5(32) . . .
32.1(31) . . .
37.0(34) . . .
32.9(32) . . .
44(4) . . .
37.7(32) . . .
35.1(33) . . .
39.7(34) . . .
44(4) . . .
34.1(32) . . .
34.1(30) . . .
40.5(35) . . .
39.2(34) . . .
41.1(35) . . .
45(4) . . .
36.8(32) . . .
28.5(30) . . .
33.0(33) . . .
38.7(35) . . .
38.2(32) . . .
35.6(31) . . .
46(4) . . .
42(4) . . .
39(4) . . .
39.3(32) . . .
47(4) . . .
46(4) . . .
37(4) . . .
36.7(33) . . .
40.0(33) . . .
40.4(34) . . .
30.0(29) . . .
42(4) . . .
38.3(33) . . .
36.9(32) . . .
33.8(30) . . .
52(4) . . .
42.6(34) . . .
35.9(34) . . .
34.1(30) . . .
37.4(32) . . .
49(4) . . .
43(4) . . .
50(4) . . .
52(4) . . .
45.0(35) . . .
35.3(32) . . .
44(4) . . .
41(4) . . .
36.8(32) . . .
35.0(31) . . .
36.0(31) . . .
47(4) . . .
38.5(34) . . .
34.5(30) . . .
31.4(31) . . .
43(4) . . .
38.2(34) . . .
35.2(31) . . .
37.5(33) . . .
31.2(32) . . .
30.6(31) . . .
36.4(32) . . .
43(4) . . .
40.6(33) . . .
31.2(30) . . .
35.1(34) . . .
43(4) . . .
39.2(33) . . .
40.5(33) . . .
30.7(29) . . .
44(4) . . .
39.4(33) . . .
36.1(31) . . .
38.5(32) . . .
33.7(31) . . .
46(4) . . .
28.9(29) . . .
37.8(32) . . .
35.5(31) . . .
33.2(30) . . .
46(4) . . .
45(4) . . .
45.1(35) . . .
38.9(33) . . .
40.5(34) . . .
53(4) . . .
43(4) . . .
39.2(33) . . .
47(4) . . .
56(4) . . .
34.6(32) . . .
40.6(35) . . .
37.3(32) . . .
40.3(33) . . .
44(4) . . .
36.7(32) . . .
33.9(32) . . .
32.8(30) . . .
41.1(34) . . .
41(4) . . .
42(4) . . .
34.4(31) . . .
37.4(32) . . .
40.8(34) . . .
36.0(33) . . .
43(4) . . .
44(4) . . .
42.8(34) . . .
35.5(32) . . .
40(4) . . .
38.3(35) . . .
42.5(35) . . .
42.7(33) . . .
39.2(33) . . .
39.7(34) . . .
45(4) . . .
40.3(33) . . .
40.0(34) . . .
46(4) . . .
40.9(34) . . .
37.1(33) . . .
34.8(34) . . .
36.0(31) . . .
38(4) . . .
35.1(34) . . .
41.7(35) . . .
47(4) . . .
33.8(30) . . .
47(4) . . .
37.3(34) . . .
26.2(26) . . .
47(4) . . .
51(4) . . .
43.1(35) . . .
38.8(35) . . .
31.4(29) . . .
40.5(34) . . .
42.8(34) . . .
36.3(33) . . .
43(4) . . .
45(4) . . .
58(4) . . .
37.6(32) . . .
43(4) . . .
30.2(31) . . .
34.4(32) . . .
40.3(33) . . .
40.2(33) . . .
41.5(34) . . .
37.8(33) . . .
38.5(35) . . .
35.0(31) . . .
33.1(30) . . .
38(4) . . .
42(4) . . .
40.1(34) . . .
47(4) . . .
50(4) . . .
44(4) . . .
40.7(33) . . .
39.6(34) . . .
36.9(32) . . .
38.7(34) . . .
34.6(32) . . .
38.7(33) . . .
49(4) . . .
41.7(34) . . .
39.1(32) . . .
43.9(34) . . .
44(4) . . .
35.3(32) . . .
37.4(32) . . .
33.4(33) . . .
36.6(35) . . .
39.1(33) . . .
41.6(35) . . .
35.4(32) . . .
36.0(33) . . .
40(4) . . .
39(4) . . .
33.1(30) . . .
42.4(34) . . .
36.5(32) . . .
34.0(32) . . .
40.2(34) . . .
34.6(31) . . .
41.5(33) . . .
48(4) . . .
41(4) . . .
45(4) . . .
40.3(34) . . .
38.2(32) . . .
45(4) . . .
40.1(35) . . .
37.4(32) . . .
35.1(31) . . .
38.4(32) . . .
38.2(32) . . .
35.8(32) . . .
38.0(34) . . .
44.1(34) . . .
34.5(31) . . .
34.6(30) . . .
41(4) . . .
43(4) . . .
39.3(33) . . .
41.0(35) . . .
47(4) . . .
50(4) . . .
35.8(31) . . .
39.2(33) . . .
38.1(33) . . .
49(4) . . .
36.5(32) . . .
40.4(33) . . .
35.9(31) . . .
40.5(33) . . .
36.8(32) . . .
42.7(35) . . .
39.7(33) . . .
31.2(29) . . .
37.9(32) . . .
41.5(35) . . .
33.0(30) . . .
33.9(31) . . .
36.6(32) . . .
47(4) . . .
40.9(35) . . .
40.0(34) . . .
39.7(35) . . .
42.8(34) . . .
41(4) . . .
39(4) . . .
44(4) . . .
34.9(31) . . .
38.4(32) . . .
33.7(32) . . .
43(4) . . .
45(4) . . .
37.9(32) . . .
37.9(32) . . .
32.1(32) . . .
37(4) . . .
40.0(34) . . .
45(4) . . .
31.6(29) . . .
31.1(29) . . .
42(4) . . .
39.9(33) . . .
32.3(30) . . .
39.6(32) . . .
40.4(34) . . .
34.6(32) . . .
33.8(31) . . .
30.0(29) . . .
37.8(33) . . .
42(4) . . .
39.1(34) . . .
37.0(33) . . .
36.3(32) . . .
43(4) . . .
50(4) . . .
46.9(35) . . .
36.7(31) . . .
38.7(33) . . .
44(4) . . .
37.6(33) . . .
35.2(31) . . .
41.0(34) . . .
32.5(30) . . .
50(4) . . .
48(4) . . .
39.5(33) . . .
40.3(33) . . .
46(4) . . .
41(4) . . .
39.3(33) . . .
43(4) . . .
37.7(32) . . .
35.5(31) . . .
47(4) . . .
46(4) . . .
41.3(34) . . .
39.8(32) . . .
38.1(33) . . .
37.3(34) . . .
39(4) . . .
33.9(30) . . .
43.8(34) . . .
44(4) . . .
34.8(31) . . .
37.6(35) . . .
40.5(33) . . .
40.8(33) . . .
36.2(31) . . .
37.0(32) . . .
37.8(34) . . .
39.0(33) . . .
46(4) . . .
36.5(31) . . .
37.7(32) . . .
47(4) . . .
37.3(32) . . .
30.5(29) . . .
40.2(33) . . .
41.1(35) . . .
35.9(33) . . .
38.4(32) . . .
39.3(32) . . .
36.3(32) . . .
32.4(31) . . .
46(4) . . .
38.3(33) . . .
42.0(34) . . .
39.3(33) . . .
44(4) . . .
41.6(33) . . .
41.5(33) . . .
46(4) . . .
44(4) . . .
43(4) . . .
42.1(35) . . .
34.4(31) . . .
37.1(32) . . .
37.5(32) . . .
36.7(34) . . .
40(4) . . .
34.9(30) . . .
51(4) . . .
42.1(34) . . .
34.0(32) . . .
30.0(29) . . .
37.0(32) . . .
36.4(31) . . .
38.5(33) . . .
41(4) . . .
45(4) . . .
45(4) . . .
43.4(34) . . .
40.3(34) . . .
43(4) . . .
44(4) . . .
38.8(32) . . .
39.7(33) . . .
39.0(34) . . .
44(4) . . .
34.8(32) . . .
39.2(34) . . .
43.7(34) . . .
36.8(33) . . .
39.5(35) . . .
36.0(32) . . .
37.3(32) . . .
38.5(34) . . .
41(4) . . .
40.5(34) . . .
37.1(31) . . .
41.5(34) . . .
34.0(32) . . .
39(4) . . .
34.3(34) . . .
41.6(34) . . .
37.9(32) . . .
50(4) . . .
40.5(32) . . .
44(4) . . .
34.9(31) . . .
47(4) . . .
36.3(33) . . .
45(4) . . .
38.7(32) . . .
47(4) . . .
44.9(35) . . .
39.5(34) . . .
38.7(34) . . .
45(4) . . .
39.7(33) . . .
39.6(33) . . .
41.6(34) . . .
43(4) . . .
47(4) . . .
39.6(34) . . .
41.6(34) . . .
39.5(32) . . .
42.1(35) . . .
43.6(35) . . .
40.7(34) . . .
38.3(33) . . .
40.8(34) . . .
41(4) . . .
39.2(33) . . .
38.3(33) . . .
36.0(31) . . .
38.6(33) . . .
45(4) . . .
31.5(31) . . .
34.5(31) . . .
35.3(32) . . .
41.5(35) . . .
48(4) . . .
44(4) . . .
42.0(33) . . .
39.0(33) . . .
43.9(34) . . .
49(4) . . .
40.2(34) . . .
34.0(31) . . .
33.9(30) . . .
40.1(33) . . .
34.0(32) . . .
38.9(34) . . .
34.3(31) . . .
33.8(32) . . .
38.5(34) . . .
34.6(31) . . .
37.8(34) . . .
43.7(34) . . .
39.7(33) . . .
32.6(30) . . .
47(4) . . .
40.7(33) . . .
37.9(32) . . .
35.7(31) . . .
45(4) . . .
41.1(34) . . .
37.1(32) . . .
38.4(32) . . .
43(4) . . .
38.8(33) . . .
46(4) . . .
32.8(30) . . .
41.1(34) . . .
53(4) . . .
38.8(33) . . .
48(4) . . .
37.0(31) . . .
35.6(31) . . .
34.4(32) . . .
33.2(31) . . .
44(4) . . .
32.1(29) . . .
40.3(33) . . .
45(4) . . .
47(4) . . .
42(4) . . .
40.0(34) . . .
46(4) . . .
31.2(28) . . .
35.9(32) . . .
41.3(34) . . .
37.0(32) . . .
39.6(33) . . .
38.7(35) . . .
39(4) . . .
41(4) . . .
33.5(30) . . .
43(4) . . .
38.4(33) . . .
36.7(32) . . .
40.0(33) . . .
45(4) . . .
34.7(31) . . .
42(4) . . .
38.8(34) . . .
36.9(32) . . .
33.2(30) . . .
41.3(34) . . .
41(4) . . .
41(4) . . .
38.2(33) . . .
42.4(35) . . .
49(4) . . .
38.4(33) . . .
40(4) . . .
43.7(35) . . .
38.6(33) . . .
36.3(33) . . .
37.4(34) . . .
44(4) . . .
38.2(32) . . .
40(4) . . .
42(4) . . .
31.9(31) . . .
41.1(35) . . .
42.0(34) . . .
38.8(32) . . .
39.8(34) . . .
35.9(33) . . .
36.7(32) . . .
54(4) . . .
43(4) . . .
41(4) . . .
39.6(35) . . .
33.4(29) . . .
49(4) . . .
34.7(32) . . .
41.3(34) . . .
43(4) . . .
40(4) . . .
34.0(30) . . .
37.3(32) . . .
35.7(31) . . .
34.8(32) . . .
33.0(31) . . .
38.2(32) . . .
50(4) . . .
45(4) . . .
37.7(34) . . .
36.6(33) . . .
32.1(30) . . .
45(4) . . .
44(4) . . .
37.8(32) . . .
37.5(33) . . .
33.3(31) . . .
38.2(33) . . .
38.9(34) . . .
36.6(34) . . .
34.4(31) . . .
51(4) . . .
40.2(33) . . .
37.1(34) . . .
30.7(28) . . .
49(4) . . .
41.6(34) . . .
33.8(31) . . .
41(4) . . .
36.5(31) . . .
35.3(31) . . .
39.5(33) . . .
41.5(34) . . .
41.3(35) . . .
34.6(30) . . .
45(4) . . .
36.9(33) . . .
33.0(33) . . .
33.1(34) . . .
32.8(30) . . .
47(4) . . .
36.5(32) . . .
37.7(34) . . .
36.1(33) . . .
39.3(34) . . .
36.7(32) . . .
43.2(34) . . .
45(4) . . .
29.6(31) . . .
32.2(32) . . .
40.4(33) . . .
41.9(34) . . .
36.4(33) . . .
36.2(33) . . .
39.6(34) . . .
47(4) . . .
46(4) . . .
35.9(32) . . .
35.5(31) . . .
40.7(34) . . .
49(4) . . .
45(4) . . .
47(4) . . .
39.2(34) . . .
33.5(30) . . .
46(4) . . .
36.6(33) . . .
40.7(34) . . .
44(4) . . .
40.1(34) . . .
46(4) . . .
37.3(32) . . .
40.0(35) . . .
33.0(30) . . .
33.5(30) . . .
42.3(33) . . .
31.0(30) . . .
36.9(34) . . .
41.8(35) . . .
38.8(34) . . .
45.5(35) . . .
39.1(34) . . .
40.2(34) . . .
49(4) . . .
43.4(34) . . .
38.7(33) . . .
29.9(30) . . .
40(4) . . .
36.0(32) . . .
32.7(31) . . .
36.6(32) . . .
47(4) . . .
37.2(32) . . .
33.7(31) . . .
36.5(31) . . .
40.2(34) . . .
40.4(34) . . .
43(4) . . .
45(4) . . .
41.7(34) . . .
35.6(30) . . .
36.5(32) . . .
35.3(33) . . .
46(4) . . .
40.7(34) . . .
44.3(35) . . .
45(4) . . .
37.1(34) . . .
43(4) . . .
45(4) . . .
39.9(34) . . .
42(4) . . .
34.1(31) . . .
42.1(35) . . .
39.1(33) . . .
36.0(32) . . .
39(4) . . .
45(4) . . .
43(4) . . .
40.4(33) . . .
45(4) . . .
37.7(34) . . .
40.3(35) . . .
46(4) . . .
42.7(34) . . .
31.0(30) . . .
36.5(34) . . .
45(4) . . .
39.6(33) . . .
39.3(33) . . .
36.6(33) . . .
37.4(33) . . .
35.8(32) . . .
41.1(33) . . .
39.7(33) . . .
43(4) . . .
39.4(34) . . .
38.8(32) . . .
34.2(30) . . .
42.4(34) . . .
39.3(33) . . .
41(4) . . .
39(4) . . .
33.5(30) . . .
43.0(34) . . .
43.1(34) . . .
45(4) . . .
42.8(34) . . .
43.5(35) . . .
40.5(34) . . .
43(4) . . .
33.2(34) . . .
35.1(33) . . .
46(4) . . .
38.9(33) . . .
42(4) . . .
36.3(32) . . .
40(4) . . .
35.1(31) . . .
33.9(30) . . .
39.8(34) . . .
46(4) . . .
40.8(33) . . .
41.9(33) . . .
31.8(30) . . .
33.5(33) . . .
29.1(29) . . .
51(4) . . .
43.5(34) . . .
44(4) . . .
38.6(34) . . .
41.9(34) . . .
47(4) . . .
42.8(34) . . .
37.1(32) . . .
35.7(33) . . .
40.4(35) . . .
37.5(33) . . .
30.4(29) . . .
35.4(33) . . .
40(4) . . .
47(4) . . .
42.1(34) . . .
42.3(34) . . .
43(4) . . .
39(4) . . .
37.5(33) . . .
28.3(27) . . .
36.7(33) . . .
32.5(31) . . .
39(4) . . .
38.2(33) . . .
43.9(34) . . .
37.3(33) . . .
36.4(32) . . .
37.3(33) . . .
38.3(33) . . .
41.3(34) . . .
40.1(33) . . .
35.7(31) . . .
47(4) . . .
37.0(33) . . .
42.7(34) . . .
39.2(33) . . .
43.4(34) . . .
37.5(32) . . .
45(4) . . .
38.6(32) . . .
41(4) . . .
36.4(32) . . .
40.2(34) . . .
35.5(32) . . .
31.6(29) . . .
42.4(34) . . .
48(4) . . .
35.8(33) . . .
26.5(27) . . .
37.8(32) . . .
42.1(35) . . .
37.8(32) . . .
38.5(33) . . .
39.5(33) . . .
34.1(30) . . .
43(4) . . .
33.4(33) . . .
36.6(33) . . .
45(4) . . .
43.9(35) . . .
34.9(33) . . .
35.8(34) . . .
34.4(32) . . .
37.0(32) . . .
42.3(34) . . .
45(4) . . .
36.6(33) . . .
35.5(32) . . .
33.7(31) . . .
43.5(34) . . .
43(4) . . .
34.3(35) . . .
39(4) . . .
40.9(34) . . .
38.0(33) . . .
38.9(35) . . .
33.6(31) . . .
37.3(33) . . .
39.7(33) . . .
36.4(32) . . .
35.3(31) . . .
37.3(35) . . .
37.3(33) . . .
37.7(32) . . .
35.5(31) . . .
36.4(32) . . .
46(4) . . .
34.3(34) . . .
34.1(31) . . .
35.9(31) . . .
36.1(33) . . .
34(4) . . .
39.9(34) . . .
33.8(30) . . .
35.1(32) . . .
51(4) . . .
34.3(32) . . .
34.0(31) . . .
40.2(33) . . .
47(4) . . .
50(4) . . .
29.7(28) . . .
35.8(32) . . .
39.9(33) . . .
46(4) . . .
35.9(32) . . .
33.8(31) . . .
28.9(29) . . .
40.1(33) . . .
37.8(33) . . .
38.7(34) . . .
47(4) . . .
35.9(32) . . .
33.3(30) . . .
37.2(34) . . .
40(4) . . .
35.2(32) . . .
33.8(30) . . .
41.3(33) . . .
39.2(33) . . .
38(4) . . .
32.7(30) . . .
34.8(30) . . .
35.9(31) . . .
37.3(33) . . .
26.4(28) . . .
36.2(33) . . .
40.5(33) . . .
44.6(34) . . .
48(4) . . .
47(4) . . .
39.0(34) . . .
41.9(33) . . .
40.8(34) . . .
39.2(35) . . .
40.7(35) . . .
44(4) . . .
42.3(35) . . .
49(4) . . .
47(4) . . .
45(4) . . .
35.8(32) . . .
39.5(33) . . .
30.5(29) . . .
32.7(31) . . .
42(4) . . .
44(4) . . .
27.5(27) . . .
35.0(32) . . .
32.9(32) . . .
35.7(33) . . .
37.5(33) . . .
35.7(31) . . .
43(4) . . .
34.2(32) . . .
34.2(30) . . .
38.8(32) . . .
35.0(31) . . .
40.0(33) . . .
35.3(32) . . .
40.0(33) . . .
34.7(30) . . .
37.9(32) . . .
35.4(33) . . .
36.5(32) . . .
55(4) . . .
39.0(33) . . .
34.5(31) . . .
32.5(31) . . .
43(4) . . .
36.6(31) . . .
40.1(33) . . .
40.1(33) . . .
34.6(33) . . .
32.9(32) . . .
35.6(32) . . .
35.5(31) . . .
39.3(32) . . .
32.7(31) . . .
34.3(33) . . .
37.3(32) . . .
36.4(31) . . .
40.2(34) . . .
46(4) . . .
39.3(32) . . .
31.6(30) . . .
39.8(33) . . .
39.7(34) . . .
43(4) . . .
46(4) . . .
36.8(32) . . .
35.8(32) . . .
43(4) . . .
31.1(28) . . .
32.4(30) . . .
33.9(31) . . .
39.6(33) . . .
43.0(34) . . .
40.6(33) . . .
37.6(34) . . .
35.8(31) . . .
33.3(30) . . .
37.1(33) . . .
45(4) . . .
31.2(30) . . .
43(4) . . .
42.3(34) . . .
45(4) . . .
36.4(33) . . .
32.4(31) . . .
43.1(35) . . .
43.2(34) . . .
41.7(33) . . .
38.5(33) . . .
45(4) . . .
42.2(34) . . .
37.0(33) . . .
40(4) . . .
43(4) . . .
36.0(31) . . .
47(4) . . .
36.4(32) . . .
33.2(30) . . .
37.2(34) . . .
43(4) . . .
36.6(32) . . .
32.3(31) . . .
49(4) . . .
49(4) . . .
42(4) . . .
32.9(31) . . .
37.9(32) . . .
38.2(34) . . .
36.7(32) . . .
43.5(35) . . .
32.3(30) . . .
34.9(32) . . .
35.0(32) . . .
49(4) . . .
44(4) . . .
38.4(32) . . .
39.1(33) . . .
34.2(31) . . .
35.8(32) . . .
36.7(33) . . .
37.2(32) . . .
39.2(33) . . .
35.8(33) . . .
31.2(29) . . .
25.8(27) . . .
34.7(31) . . .
36.2(32) . . .
32.7(30) . . .
39.8(33) . . .
35.4(31) . . .
32.0(30) . . .
34.2(31) . . .
42(4) . . .
39.8(34) . . .
45.8(35) . . .
43(4) . . .
41.9(35) . . .
37.0(32) . . .
43(4) . . .
40.9(34) . . .
37.0(31) . . .
39.3(34) . . .
39(4) . . .
34.6(31) . . .
32.1(29) . . .
39.0(32) . . .
34.2(31) . . .
37(4) . . .
46(4) . . .
43.0(34) . . .
38.2(33) . . .
42(4) . . .
39(4) . . .
44(4) . . .
38.9(33) . . .
33.9(30) . . .
34.6(32) . . .
38(4) . . .
36.2(31) . . .
43.8(34) . . .
38.9(33) . . .
46(4) . . .
36.6(32) . . .
36.5(32) . . .
44.4(35) . . .
50(4) . . .
40(4) . . .
34.4(32) . . .
34.4(32) . . .
46.5(35) . . .
36.2(31) . . .
43(4) . . .
36.4(32) . . .
36.7(32) . . .
41.3(34) . . .
38.6(32) . . .
36.2(32) . . .
45(4) . . .
47(4) . . .
42.2(34) . . .
46(4) . . .
36.2(32) . . .
36.9(33) . . .
46(4) . . .
38.2(32) . . .
31.9(30) . . .
36.7(34) . . .
37.8(34) . . .
44(4) . . .
45(4) . . .
45(4) . . .
43(4) . . .
33.8(32) . . .
37.4(32) . . .
41.1(33) . . .
37.7(34) . . .
40.1(34) . . .
40.3(34) . . .
42.9(34) . . .
40.8(35) . . .
36.4(32) . . .
39(4) . . .
38.2(34) . . .
38.6(33) . . .
46(4) . . .
48(4) . . .
44(4) . . .
41.3(35) . . .
35.5(31) . . .
41.4(34) . . .
47(4) . . .
33.0(32) . . .
36.1(33) . . .
39.5(32) . . .
35.2(31) . . .
48(4) . . .
49(4) . . .
40.2(34) . . .
41.6(34) . . .
33.8(31) . . .
38.7(33) . . .
38.0(34) . . .
33.8(31) . . .
35.9(31) . . .
36.7(33) . . .
43(4) . . .
44(4) . . .
33.8(32) . . .
31.3(29) . . .
31.8(29) . . .
40.7(35) . . .
38.0(33) . . .
39.2(34) . . .
36.4(32) . . .
41.4(35) . . .
40.2(33) . . .
33.9(31) . . .
42.2(34) . . .
44(4) . . .
37.9(33) . . .
41(4) . . .
52(4) . . .
43.7(34) . . .
37.1(31) . . .
29.7(30) . . .
31.5(31) . . .
43(4) . . .
32.9(30) . . .
39.8(33) . . .
37.5(32) . . .
34.2(30) . . .
33.1(30) . . .
41.2(33) . . .
40(4) . . .
40.2(33) . . .
43(4) . . .
40.5(34) . . .
40.7(33) . . .
33.7(30) . . .
48(4) . . .
37.0(31) . . .
44(4) . . .
41.5(33) . . .
41.0(35) . . .
41(4) . . .
44(4) . . .
47(4) . . .
29.5(30) . . .
40.3(34) . . .
31.5(30) . . .
41(4) . . .
39.1(32) . . .
38.4(33) . . .
44(4) . . .
42(4) . . .
40.7(34) . . .
45(4) . . .
33.1(30) . . .
48(4) . . .
38.2(32) . . .
50(4) . . .
33.7(31) . . .
45(4) . . .
43(4) . . .
46(4) . . .
47(4) . . .
32.1(29) . . .
42.8(34) . . .
43.4(35) . . .
38.0(34) . . .
33.8(34) . . .
33.2(30) . . .
43.6(35) . . .
27.3(29) . . .
36(4) . . .
39(4) . . .
39.9(33) . . .
36.1(32) . . .
39.1(32) . . .
37.2(34) . . .
38.4(35) . . .
27.7(28) . . .
33.7(31) . . .
31.2(31) . . .
32.7(30) . . .
38.3(32) . . .
44.9(35) . . .
41.5(35) . . .
36.6(33) . . .
43(4) . . .
42(4) . . .
27.6(27) . . .
39.0(33) . . .
47(4) . . .
42(4) . . .
39.2(34) . . .
34.7(31) . . .
31.3(29) . . .
37.3(33) . . .
40(4) . . .
39(4) . . .
32.7(30) . . .
41.8(35) . . .
37.5(33) . . .
30.5(30) . . .
42.1(34) . . .
41.8(34) . . .
40.8(34) . . .
33.2(31) . . .
34.1(32) . . .
35.9(32) . . .
35.6(31) . . .
38.0(33) . . .
44(4) . . .
35.5(31) . . .
29.7(28) . . .
37.8(32) . . .
37.1(34) . . .
35.4(33) . . .
37.9(33) . . .
43.9(35) . . .
40.1(32) . . .
31.0(29) . . .
38.1(32) . . .
36.8(31) . . .
37.0(32) . . .
38.9(32) . . .
46(4) . . .
42(4) . . .
45(4) . . .
39.0(32) . . .
40.5(33) . . .
35.9(31) . . .
40.4(35) . . .
38.2(35) . . .
41.1(33) . . .
39.0(33) . . .
53(4) . . .
41(4) . . .
38.7(33) . . .
34.6(31) . . .
29.9(29) . . .
36.4(32) . . .
38.8(35) . . .
42.3(35) . . .
44.8(35) . . .
35.6(32) . . .
40(4) . . .
42(4) . . .
37.2(31) . . .
32.2(29) . . .
45(4) . . .
44(4) . . .
42(4) . . .
40.4(34) . . .
35.3(31) . . .
42.8(34) . . .
40.4(32) . . .
49(4) . . .
43(4) . . .
47(4) . . .
41(4) . . .
42(4) . . .
46(4) . . .
39.7(34) . . .
40.3(34) . . .
33.7(30) . . .
37.7(33) . . .
38.7(33) . . .
47(4) . . .
47(4) . . .
40(4) . . .
43(4) . . .
37.1(33) . . .
32.0(30) . . .
37.4(32) . . .
41(4) . . .
37.8(35) . . .
36.8(34) . . .
32.2(29) . . .
42.8(34) . . .
39.1(32) . . .
37.3(34) . . .
39.0(34) . . .
28.5(28) . . .
32.0(30) . . .
51(4) . . .
41(4) . . .
39(4) . . .
27.2(27) . . .
40.2(34) . . .
42.3(35) . . .
39.8(33) . . .
36.1(33) . . .
34.8(30) . . .
37.1(32) . . .
34.7(31) . . .
35.4(31) . . .
40.8(34) . . .
46.4(35) . . .
29.4(30) . . .
30.0(30) . . .
28.9(29) . . .
34.5(32) . . .
42.8(34) . . .
37.3(32) . . .
40.7(35) . . .
38.9(34) . . .
38.2(33) . . .
35.2(31) . . .
31.5(31) . . .
28.1(28) . . .
36.6(32) . . .
37.7(34) . . .
38.0(32) . . .
34.0(31) . . .
39.2(35) . . .
31.2(29) . . .
32.2(29) . . .
41.7(34) . . .
39.5(34) . . .
36.0(35) . . .
35.6(31) . . .
41.8(33) . . .
46(4) . . .
42.6(35) . . .
38.0(33) . . .
37.5(33) . . .
39.7(33) . . .
35.9(33) . . .
40.5(34) . . .
37.5(35) . . .
31.5(32) . . .
32.5(30) . . .
34.9(31) . . .
35.8(32) . . .
30.3(32) . . .
44(4) . . .
36.4(32) . . .
40.5(35) . . .
45(4) . . .
31.4(31) . . .
43(4) . . .
44.2(34) . . .
28.6(28) . . .
33.4(31) . . .
35.9(31) . . .
40.8(35) . . .
45.0(34) . . .
43.0(35) . . .
41.5(35) . . .
41(4) . . .
44(4) . . .
41.9(34) . . .
40.4(34) . . .
33.7(32) . . .
35.5(32) . . .
46(4) . . .
46(4) . . .
38.3(33) . . .
45(4) . . .
37.9(32) . . .
37.0(33) . . .
36.7(31) . . .
34.8(31) . . .
33.4(32) . . .
35.0(31) . . .
42.9(35) . . .
41.0(33) . . .
39.2(34) . . .
34.8(33) . . .
38.4(33) . . .
43.9(35) . . .
34.2(30) . . .
24.6(26) . . .
33.9(33) . . .
46(4) . . .
37.7(32) . . .
38.1(32) . . .
38.0(33) . . .
32.4(32) . . .
35.8(33) . . .
42.1(35) . . .
39.3(33) . . .
34.2(31) . . .
30.7(32) . . .
35.4(32) . . .
40.9(33) . . .
34.4(31) . . .
38.2(33) . . .
39.3(33) . . .
39.3(33) . . .
35.9(31) . . .
35.3(32) . . .
32.5(30) . . .
39.2(35) . . .
37.2(32) . . .
25.8(27) . . .
36.5(32) . . .
41(4) . . .
45(4) . . .
37.3(33) . . .
33.6(31) . . .
34.8(32) . . .
32.8(30) . . .
32.4(30) . . .
31.5(30) . . .
46(4) . . .
32.2(30) . . .
30.7(29) . . .
34.8(32) . . .
34.5(31) . . .
37.6(32) . . .
31.7(29) . . .
37.6(33) . . .
39.1(33) . . .
42.7(34) . . .
45.0(35) . . .
45(4) . . .
41(4) . . .
40.4(35) . . .
42.5(35) . . .
38.0(32) . . .
32.7(30) . . .
40(4) . . .
37.6(32) . . .
45(4) . . .
38.8(32) . . .
37.4(33) . . .
34.0(31) . . .
43(4) . . .
38.0(32) . . .
43.3(34) . . .
33.2(31) . . .
34.6(32) . . .
38.4(34) . . .
37.7(32) . . .
31.8(29) . . .
40.7(34) . . .
36.0(34) . . .
34.5(31) . . .
41.7(34) . . .
43.2(35) . . .
42.1(34) . . .
37.9(33) . . .
32.8(31) . . .
37.5(32) . . .
33.5(34) . . .
26.3(26) . . .
48(4) . . .
39.3(33) . . .
34.6(31) . . .
35.0(31) . . .
44(4) . . .
28.9(27) . . .
35.1(32) . . .
33.6(31) . . .
34.8(31) . . .
33.2(30) . . .
36.6(32) . . .
37.0(32) . . .
39.1(33) . . .
42(4) . . .
37(4) . . .
34.5(33) . . .
34.3(30) . . .
42.0(34) . . .
31.2(30) . . .
32.3(33) . . .
36.0(34) . . .
36.2(34) . . .
36.3(31) . . .
36.4(33) . . .
20.9(23) . . .
36.3(33) . . .
33.2(30) . . .
26.6(27) . . .
44(4) . . .
46(4) . . .
37.1(32) . . .
44.5(35) . . .
37.6(32) . . .
31.1(32) . . .
33.1(30) . . .
40(4) . . .
40.7(33) . . .
25.2(26) . . .
31.5(30) . . .
44(4) . . .
33.3(33) . . .
37.5(32) . . .
41.5(34) . . .
44(4) . . .
38.5(33) . . .
38.2(32) . . .
49(4) . . .
38.3(33) . . .
43(4) . . .
38.4(33) . . .
37.0(34) . . .
29.6(29) . . .
47(4) . . .
40.3(34) . . .
36.5(32) . . .
34.5(31) . . .
45(4) . . .
43(4) . . .
31.4(30) . . .
34.8(31) . . .
33.7(31) . . .
45(4) . . .
31.0(29) . . .
43(4) . . .
36.7(32) . . .
37.5(31) . . .
42.2(34) . . .
40(4) . . .
34.6(32) . . .
34.3(32) . . .
39.2(33) . . .
42.9(34) . . .
41.6(34) . . .
42(4) . . .
48(4) . . .
41.5(34) . . .
36.9(31) . . .
37.2(33) . . .
38.5(34) . . .
34.0(30) . . .
41.0(34) . . .
48(4) . . .
35.4(34) . . .
30.4(29) . . .
43(4) . . .
33.5(30) . . .
38.5(33) . . .
43(4) . . .
40(4) . . .
45(4) . . .
38.6(32) . . .
40.2(33) . . .
34.1(31) . . .
35.6(32) . . .
34.9(31) . . .
41.8(34) . . .
46(4) . . .
34.4(31) . . .
34.7(31) . . .
35.0(32) . . .
31.1(28) . . .
33.2(32) . . .
39.0(32) . . .
44(4) . . .
34.2(30) . . .
36.2(33) . . .
30.2(30) . . .
38.3(32) . . .
44(4) . . .
41(4) . . .
48(4) . . .
40.9(33) . . .
47(4) . . .
41.4(33) . . .
44.2(35) . . .
34.8(31) . . .
38.5(33) . . .
31.2(30) . . .
39(4) . . .
37.7(32) . . .
35.8(31) . . .
42.7(35) . . .
41(4) . . .
38.4(34) . . .
30.1(30) . . .
35.3(31) . . .
37.0(32) . . .
35.4(33) . . .
41(4) . . .
42.5(34) . . .
39.4(33) . . .
33.7(31) . . .
39.8(35) . . .
44.0(35) . . .
44(4) . . .
41.1(33) . . .
39.8(35) . . .
37(4) . . .
37.1(33) . . .
33.3(30) . . .
38.9(33) . . .
44(4) . . .
43(4) . . .
44(4) . . .
36.5(32) . . .
35.4(33) . . .
38.6(35) . . .
43(4) . . .
39.0(34) . . .
38.7(32) . . .
34.8(31) . . .
39.5(35) . . .
38.2(35) . . .
43(4) . . .
36.5(31) . . .
38.9(34) . . .
47(4) . . .
40.6(34) . . .
34.5(31) . . .
33.2(30) . . .
36.8(33) . . .
30.9(29) . . .
34.4(31) . . .
38.7(32) . . .
35.3(31) . . .
42.9(34) . . .
41(4) . . .
36.2(31) . . .
45(4) . . .
46(4) . . .
26.5(28) . . .
33.1(34) . . .
38.3(34) . . .
36.0(31) . . .
29.8(28) . . .
36.3(34) . . .
40.2(35) . . .
35.0(31) . . .
33.7(32) . . .
42.4(33) . . .
34.5(31) . . .
31.7(30) . . .
44(4) . . .
36.2(31) . . .
36.7(32) . . .
33.5(31) . . .
37.2(34) . . .
42(4) . . .
33.9(30) . . .
35.3(32) . . .
42(4) . . .
39(4) . . .
35.9(32) . . .
31.7(30) . . .
41.7(34) . . .
42(4) . . .
32.4(31) . . .
32.8(31) . . .
35.4(31) . . .
48(4) . . .
48(4) . . .
32.3(30) . . .
42.6(34) . . .
44(4) . . .
42.0(35) . . .
36.9(33) . . .
36.0(35) . . .
37.3(32) . . .
39.0(33) . . .
31.2(30) . . .
28.6(29) . . .
44(4) . . .
42.0(34) . . .
37.7(32) . . .
36.6(33) . . .
31.4(30) . . .
34.2(31) . . .
37.8(32) . . .
34.0(30) . . .
35.2(33) . . .
39.9(35) . . .
47(4) . . .
40.3(33) . . .
43.8(35) . . .
43(4) . . .
40(4) . . .
34.1(31) . . .
38.0(32) . . .
39.8(33) . . .
29.1(28) . . .
34.3(33) . . .
40.0(35) . . .
29.0(30) . . .
33.7(30) . . .
33.3(31) . . .
32.2(31) . . .
28.8(27) . . .
40.6(33) . . .
35.2(30) . . .
37.0(32) . . .
47(4) . . .
30.2(29) . . .
43(4) . . .
43.6(34) . . .
38.4(35) . . .
44(4) . . .
40(4) . . .
33.7(30) . . .
36.8(31) . . .
39.7(34) . . .
34.4(31) . . .
38.4(32) . . .
38.3(33) . . .
39.7(34) . . .
32.5(32) . . .
40.0(34) . . .
34.1(30) . . .
49(4) . . .
41.4(34) . . .
31.2(28) . . .
42(4) . . .
30.0(29) . . .
40.7(34) . . .
33.8(31) . . .
30.2(30) . . .
40.2(35) . . .
37.7(32) . . .
35.7(31) . . .
29.9(29) . . .
37.4(34) . . .
31.6(30) . . .
47(4) . . .
34.0(30) . . .
35.3(31) . . .
35.9(33) . . .
43(4) . . .
37.7(32) . . .
36.4(32) . . .
46(4) . . .
40(4) . . .
39(4) . . .
36.0(32) . . .
25.9(27) . . .
30.7(31) . . .
31.6(32) . . .
44(4) . . .
41.2(33) . . .
38.8(32) . . .
44(4) . . .
40.2(34) . . .
30.4(29) . . .
33.7(30) . . .
30.4(29) . . .
42(4) . . .
41(4) . . .
28.9(29) . . .
42.1(34) . . .
42.7(34) . . .
40.1(34) . . .
46(4) . . .
46(4) . . .
43.0(34) . . .
38.5(33) . . .
35.0(33) . . .
33.1(32) . . .
38.4(33) . . .
31.0(29) . . .
33.1(32) . . .
28.2(28) . . .
32.5(32) . . .
38.6(33) . . .
27.5(27) . . .
34.5(32) . . .
36.6(33) . . .
41.2(35) . . .
34.8(32) . . .
34.6(31) . . .
39.5(33) . . .
39.2(34) . . .
34.0(32) . . .
32.7(30) . . .
29.5(29) . . .
42(4) . . .
37.2(31) . . .
47(4) . . .
41.5(33) . . .
48(4) . . .
31.8(30) . . .
37.8(34) . . .
38(4) . . .
45(4) . . .
36.0(32) . . .
40.1(33) . . .
39(4) . . .
43(4) . . .
41.1(34) . . .
38.8(33) . . .
37.3(32) . . .
41.3(35) . . .
41.4(35) . . .
32.3(29) . . .
36.3(32) . . .
31.0(31) . . .
31.4(32) . . .
38.2(33) . . .
29.0(28) . . .
31.9(29) . . .
40.0(35) . . .
44(4) . . .
38.8(33) . . .
35.2(30) . . .
33.1(31) . . .
37.2(33) . . .
37.4(33) . . .
40(4) . . .
43.2(34) . . .
41.9(34) . . .
30.5(29) . . .
31.7(31) . . .
27.9(31) . . .
23.9(26) . . .
34.4(32) . . .
26.5(27) . . .
40(4) . . .
36.4(32) . . .
30.5(29) . . .
43(4) . . .
41(4) . . .
35.2(31) . . .
34.7(31) . . .
43.2(34) . . .
38.5(34) . . .
37.3(34) . . .
35.3(32) . . .
35.9(31) . . .
33.8(30) . . .
31.1(30) . . .
30.4(31) . . .
28.8(30) . . .
39.7(34) . . .
39.3(32) . . .
38.6(32) . . .
40.5(35) . . .
28.0(27) . . .
32.0(30) . . .
35.8(31) . . .
27.3(27) . . .
35.3(32) . . .
33.4(31) . . .
35.6(31) . . .
35.7(31) . . .
34.9(32) . . .
41(4) . . .
33.9(32) . . .
41.6(34) . . .
38.3(32) . . .
38.9(34) . . .
33.3(32) . . .
34.8(32) . . .
37.1(32) . . .
39.0(33) . . .
32.9(29) . . .
40(4) . . .
41.2(34) . . .
34.0(31) . . .
41(4) . . .
38(4) . . .
32.6(31) . . .
39(4) . . .
34.3(30) . . .
35.0(31) . . .
41.5(35) . . .
40(4) . . .
34.3(31) . . .
37.4(32) . . .
37.4(33) . . .
34.9(32) . . .
37.0(34) . . .
36.7(33) . . .
35.4(31) . . .
27.4(28) . . .
35.7(34) . . .
33.4(30) . . .
39.8(33) . . .
30.3(28) . . .
42.4(35) . . .
44(4) . . .
39.8(33) . . .
41.8(35) . . .
35.9(32) . . .
33.4(30) . . .
48(4) . . .
33.1(29) . . .
36.8(32) . . .
40.8(33) . . .
39.1(33) . . .
31.5(33) . . .
31.5(31) . . .
48(4) . . .
36.0(33) . . .
26.2(28) . . .
30.6(32) . . .
28.4(28) . . .
43.0(34) . . .
41.2(34) . . .
35.8(34) . . .
31.0(33) . . .
33.7(31) . . .
47(4) . . .
42.8(34) . . .
38.7(32) . . .
46(4) . . .
41.2(34) . . .
36.8(31) . . .
30.4(29) . . .
38.8(33) . . .
46(4) . . .
41.1(34) . . .
33.8(30) . . .
44.5(35) . . .
35.2(32) . . .
32.9(30) . . .
44(4) . . .
35.4(31) . . .
41.5(35) . . .
34.4(30) . . .
46(4) . . .
39.3(32) . . .
36.3(32) . . .
33.1(30) . . .
33.0(31) . . .
31.3(29) . . .
41.7(34) . . .
46(4) . . .
33.9(32) . . .
32.8(32) . . .
27.0(27) . . .
39.2(33) . . .
40.8(33) . . .
37.9(33) . . .
35.6(34) . . .
27.0(27) . . .
35.9(32) . . .
35.3(31) . . .
39.8(33) . . .
35.9(33) . . .
32.7(32) . . .
30.6(30) . . .
30.2(30) . . .
36.1(34) . . .
41(4) . . .
45(4) . . .
34.8(31) . . .
24.6(26) . . .
43(4) . . .
35.2(32) . . .
35.6(31) . . .
30.6(28) . . .
36.5(32) . . .
44(4) . . .
40.8(34) . . .
36.7(31) . . .
38.9(32) . . .
46(4) . . .
35.5(31) . . .
38.0(34) . . .
39.2(34) . . .
43.6(34) . . .
32.5(29) . . .
36.6(32) . . .
39(4) . . .
36.4(33) . . .
36.8(32) . . .
47(4) . . .
39.2(32) . . .
33.9(32) . . .
31.5(30) . . .
42.7(34) . . .
37.1(33) . . .
25.7(28) . . .
26.4(27) . . .
39.5(32) . . .
41.7(34) . . .
43.8(35) . . .
40.6(34) . . .
32.8(30) . . .
38.0(33) . . .
38.7(33) . . .
45(4) . . .
40(4) . . .
40(4) . . .
30.4(28) . . .
44.8(35) . . .
44(4) . . .
32.5(32) . . .
44(4) . . .
36.8(32) . . .
39.4(34) . . .
25.4(26) . . .
36.9(34) . . .
29.5(33) . . .
27.9(28) . . .
32.1(29) . . .
31.4(30) . . .
41.0(35) . . .
38.3(33) . . .
40.2(33) . . .
40.8(34) . . .
36.8(34) . . .
32.6(31) . . .
35.7(32) . . .
38.4(32) . . .
42.3(34) . . .
40.0(33) . . .
40.8(34) . . .
36.3(32) . . .
25.8(26) . . .
40.3(35) . . .
31.4(29) . . .
34.0(31) . . .
30.4(29) . . .
36.0(32) . . .
39.8(33) . . .
41(4) . . .
33.6(30) . . .
36.5(32) . . .
40.8(33) . . .
47(4) . . .
36.0(32) . . .
40(4) . . .
35.7(33) . . .
41.7(33) . . .
39.0(33) . . .
36.9(33) . . .
36.3(33) . . .
27.9(27) . . .
39.1(33) . . .
34.3(30) . . .
32.6(31) . . .
29.1(29) . . .
32.0(29) . . .
33.9(30) . . .
32.1(29) . . .
40.1(34) . . .
45(4) . . .
34.9(31) . . .
42.7(34) . . .
38.5(32) . . .
41(4) . . .
39.3(32) . . .
35.6(31) . . .
39.2(33) . . .
39.5(33) . . .
28.0(28) . . .
34.0(32) . . .
29.5(28) . . .
41.1(33) . . .
35.1(30) . . .
31.4(30) . . .
31.2(30) . . .
39.4(32) . . .
35.2(33) . . .
40.3(34) . . .
36.4(32) . . .
41.5(34) . . .
28.5(28) . . .
46(4) . . .
39.7(34) . . .
36.1(32) . . .
34.2(31) . . .
39.9(33) . . .
39.1(33) . . .
37.6(33) . . .
41.1(34) . . .
36.5(32) . . .
40.7(33) . . .
43.5(35) . . .
37.1(33) . . .
36.4(34) . . .
34.0(31) . . .
37.0(32) . . .
39.4(32) . . .
30.2(29) . . .
34.0(31) . . .
33.2(31) . . .
34.6(31) . . .
33.6(32) . . .
39.7(34) . . .
39.0(32) . . .
36.1(32) . . .
38.4(32) . . .
37.3(33) . . .
38.7(35) . . .
35.0(32) . . .
38.3(32) . . .
34.8(31) . . .
29.3(29) . . .
40(4) . . .
30.1(30) . . .
31.2(29) . . .
37.3(32) . . .
41.1(33) . . .
36.0(33) . . .
36.3(33) . . .
37.4(32) . . .
30.6(28) . . .
29.9(28) . . .
35.3(32) . . .
36.0(31) . . .
38.3(32) . . .
38.4(34) . . .
28.6(29) . . .
36.5(33) . . .
37.6(34) . . .
34.1(30) . . .
37.5(32) . . .
44(4) . . .
31.9(29) . . .
43.0(34) . . .
32.8(30) . . .
41(4) . . .
35.2(32) . . .
28.0(28) . . .
35.4(32) . . .
45(4) . . .
40.1(34) . . .
40(4) . . .
30.2(29) . . .
34.4(31) . . .
29.7(29) . . .
42(4) . . .
38.4(32) . . .
33.3(30) . . .
38.9(33) . . .
37.6(31) . . .
37.6(33) . . .
36.9(34) . . .
41(4) . . .
38.6(32) . . .
34.2(31) . . .
36.0(33) . . .
44(4) . . .
34.9(32) . . .
39.2(34) . . .
39.8(34) . . .
38.5(32) . . .
40(4) . . .
48(4) . . .
41.4(34) . . .
41.0(34) . . .
36.1(32) . . .
45(4) . . .
43.6(35) . . .
37.2(32) . . .
36.7(31) . . .
29.7(29) . . .
39.6(34) . . .
47(4) . . .
34.1(30) . . .
41(4) . . .
42.8(35) . . .
39.8(34) . . .
36.6(32) . . .
33.4(30) . . .
31.4(32) . . .
39.0(34) . . .
37.3(33) . . .
36.7(32) . . .
37.3(31) . . .
35.6(33) . . .
35.8(33) . . .
43(4) . . .
32.0(31) . . .
37.2(32) . . .
37.9(32) . . .
42.5(34) . . .
41.1(34) . . .
46(4) . . .
37.2(32) . . .
41(4) . . .
42(4) . . .
33.9(31) . . .
49(4) . . .
39.6(33) . . .
40.3(35) . . .
37.7(34) . . .
36.3(31) . . .
33.7(30) . . .
30.6(29) . . .
36.6(34) . . .
42(4) . . .
29.2(28) . . .
45(4) . . .
37.9(31) . . .
38.4(33) . . .
37.4(34) . . .
29.5(28) . . .
40.1(34) . . .
40.3(33) . . .
34.4(33) . . .
45(4) . . .
36.5(32) . . .
37.1(32) . . .
38.1(32) . . .
35.3(33) . . .
41(4) . . .
40.0(33) . . .
37.6(32) . . .
42.3(34) . . .
31.6(32) . . .
37(4) . . .
36.0(33) . . .
42.9(34) . . .
39.4(32) . . .
39(4) . . .
36.3(32) . . .
33.9(31) . . .
42.1(34) . . .
48(4) . . .
52(4) . . .
45(4) . . .
39.6(34) . . .
41.6(33) . . .
33.5(30) . . .
39.7(35) . . .
28.4(29) . . .
35.8(32) . . .
42.2(34) . . .
35.7(33) . . .
38.2(35) . . .
39.5(33) . . .
36.8(32) . . .
37.1(31) . . .
31.5(30) . . .
46(4) . . .
45(4) . . .
28.2(27) . . .
34.5(32) . . .
34.6(31) . . .
47(4) . . .
29.2(28) . . .
47(4) . . .
27.7(27) . . .
30.3(31) . . .
39.6(35) . . .
42.0(33) . . .
38.1(32) . . .
46(4) . . .
37.3(32) . . .
38.2(33) . . .
33.1(30) . . .
37.6(32) . . .
39.6(33) . . .
39.0(34) . . .
30.5(29) . . .
40(4) . . .
42.0(34) . . .
41.8(33) . . .
37.7(33) . . .
34.7(34) . . .
42(4) . . .
40.4(33) . . .
51(4) . . .
38.3(32) . . .
41(4) . . .
33.8(30) . . .
43.1(34) . . .
36.0(31) . . .
40.2(34) . . .
34.1(32) . . .
36.6(33) . . .
28.7(27) . . .
37.4(32) . . .
45(4) . . .
38.0(33) . . .
40.7(33) . . .
40.4(34) . . .
31.5(29) . . .
32.9(31) . . .
34.6(31) . . .
42.3(34) . . .
37.2(32) . . .
30.8(29) . . .
39.8(34) . . .
46(4) . . .
38.1(32) . . .
33.9(31) . . .
38.9(35) . . .
28.4(29) . . .
30.5(30) . . .
39.3(33) . . .
34.0(30) . . .
27.4(28) . . .
29.5(30) . . .
25.1(26) . . .
39.3(33) . . .
42.8(34) . . .
30.8(29) . . .
38.0(34) . . .
38.0(32) . . .
42.0(34) . . .
31.5(29) . . .
27.7(27) . . .
35.2(33) . . .
37.3(31) . . .
41.0(33) . . .
33.0(30) . . .
39.6(33) . . .
40.1(33) . . .
44(4) . . .
37.3(32) . . .
38.9(34) . . .
43(4) . . .
39.3(34) . . .
38.1(32) . . .
34.7(30) . . .
39.8(32) . . .
32.1(30) . . .
34.8(31) . . .
40(4) . . .
39.2(33) . . .
53(4) . . .
29.9(28) . . .
35.3(33) . . .
35.5(32) . . .
37.4(32) . . .
34.0(32) . . .
35.9(31) . . .
29.3(30) . . .
34.4(32) . . .
38.3(32) . . .
40.6(35) . . .
47(4) . . .
44(4) . . .
35.7(31) . . .
41.0(34) . . .
38.3(33) . . .
31.6(31) . . .
22.4(25) . . .
40.7(35) . . .
38.6(32) . . .
32.8(31) . . .
37.1(34) . . .
45(4) . . .
27.3(27) . . .
39.5(33) . . .
35.8(31) . . .
32.2(34) . . .
33.8(32) . . .
38.8(32) . . .
37.6(32) . . .
41.2(34) . . .
43(4) . . .
36.9(32) . . .
34.6(30) . . .
34.4(32) . . .
42.3(35) . . .
43.9(35) . . .
43(4) . . .
36.4(31) . . .
27.5(28) . . .
28.8(28) . . .
33.6(33) . . .
33.7(31) . . .
47(4) . . .
37.6(33) . . .
29.1(29) . . .
40(4) . . .
34.6(32) . . .
34.0(30) . . .
42.0(35) . . .
41(4) . . .
35.3(33) . . .
49(4) . . .
39.3(33) . . .
36.9(31) . . .
36.6(33) . . .
39.7(34) . . .
43.3(35) . . .
39.7(33) . . .
34.6(31) . . .
32.4(30) . . .
38.5(34) . . .
34.5(31) . . .
38.2(32) . . .
28.7(28) . . .
36.2(33) . . .
36.9(32) . . .
39.7(32) . . .
39.9(33) . . .
38.0(34) . . .
37.4(35) . . .
31.2(31) . . .
41.3(33) . . .
39.2(32) . . .
49(4) . . .
43(4) . . .
38(4) . . .
35.0(30) . . .
40.5(35) . . .
39.0(34) . . .
37.4(34) . . .
40.7(34) . . .
31.2(29) . . .
38.2(33) . . .
35.4(32) . . .
33.0(30) . . .
43(4) . . .
42.5(34) . . .
38.7(32) . . .
40.9(34) . . .
33.1(30) . . .
45(4) . . .
42.1(33) . . .
32.0(29) . . .
37.7(34) . . .
30.3(29) . . .
30.9(29) . . .
29.4(28) . . .
32.7(30) . . .
42.0(33) . . .
41.7(35) . . .
30.4(28) . . .
37.2(32) . . .
36.7(33) . . .
36.8(31) . . .
40(4) . . .
29.3(28) . . .
35.8(31) . . .
40.5(34) . . .
33.5(31) . . .
36.8(32) . . .
38.6(32) . . .
29.5(29) . . .
38.3(33) . . .
41(4) . . .
37.5(33) . . .
41.0(33) . . .
39.8(33) . . .
41.7(35) . . .
38.2(33) . . .
41.3(34) . . .
43.3(35) . . .
38.5(32) . . .
30.0(30) . . .
38.0(34) . . .
35.8(31) . . .
36.7(32) . . .
35.7(31) . . .
34.6(32) . . .
36.4(33) . . .
39.6(34) . . .
37.5(32) . . .
38.8(33) . . .
28.7(29) . . .
31.6(31) . . .
42(4) . . .
30.9(29) . . .
34.0(30) . . .
44(4) . . .
37.1(33) . . .
40.4(34) . . .
33.1(30) . . .
24.3(25) . . .
33.2(32) . . .
34.2(31) . . .
37.8(33) . . .
43.2(34) . . .
33.1(32) . . .
25.1(26) . . .
41(4) . . .
35.9(32) . . .
34.6(31) . . .
41.1(33) . . .
36.7(32) . . .
37.8(34) . . .
35.6(33) . . .
36.6(31) . . .
47(4) . . .
44(4) . . .
29.3(30) . . .
36.8(31) . . .
36.9(32) . . .
33.2(30) . . .
39(4) . . .
33.9(31) . . .
30.0(29) . . .
36.3(32) . . .
35.1(33) . . .
36.2(32) . . .
44(4) . . .
39.4(33) . . .
40.2(34) . . .
35.0(31) . . .
34.2(31) . . .
35.8(31) . . .
46(4) . . .
37.5(31) . . .
38.4(34) . . .
41(4) . . .
38.3(34) . . .
41.4(33) . . .
43.4(35) . . .
33.2(30) . . .
27.3(29) . . .
37.0(32) . . .
36.2(31) . . .
37.6(33) . . .
34.7(32) . . .
43(4) . . .
28.5(27) . . .
34.8(31) . . .
40.7(34) . . .
45(4) . . .
35.4(35) . . .
37.2(33) . . .
36.7(32) . . .
32.0(30) . . .
39.2(33) . . .
41(4) . . .
42.0(34) . . .
33.2(30) . . .
34.9(31) . . .
30.8(30) . . .
41(4) . . .
39.0(33) . . .
41.2(34) . . .
45(4) . . .
41.5(34) . . .
34.0(31) . . .
36.6(31) . . .
37.9(32) . . .
32.9(30) . . .
36.2(33) . . .
39.8(35) . . .
39.0(32) . . .
33.2(31) . . .
44(4) . . .
48(4) . . .
43(4) . . .
31.8(29) . . .
32.0(30) . . .
36.5(33) . . .
35.8(34) . . .
41.1(35) . . .
41.1(33) . . .
40.9(33) . . .
35.7(31) . . .
36.1(34) . . .
40.2(34) . . .
32.7(30) . . .
33.9(31) . . .
31.1(29) . . .
43(4) . . .
42.6(35) . . .
34.2(31) . . .
31.4(29) . . .
33.6(31) . . .
38.8(33) . . .
39.5(34) . . .
35.2(31) . . .
34.7(31) . . .
31.4(31) . . .
38(4) . . .
34.6(32) . . .
36.9(32) . . .
39.2(33) . . .
39.7(34) . . .
32.0(31) . . .
43(4) . . .
34.8(31) . . .
47(4) . . .
38.3(33) . . .
38.1(34) . . .
33.2(31) . . .
31.3(29) . . .
35.2(34) . . .
45(4) . . .
31.5(31) . . .
36.3(32) . . .
46(4) . . .
32.0(29) . . .
28.3(28) . . .
35.7(32) . . .
35.2(31) . . .
35.1(31) . . .
36.5(33) . . .
31.8(31) . . .
37.6(34) . . .
36.8(32) . . .
34.8(31) . . .
33.5(31) . . .
32.7(32) . . .
39(4) . . .
36.7(33) . . .
36.7(31) . . .
45(4) . . .
33.9(34) . . .
29.2(29) . . .
32.2(30) . . .
28.9(28) . . .
38.3(34) . . .
28.0(30) . . .
41(4) . . .
38.9(33) . . .
37.0(31) . . .
42(4) . . .
32.1(31) . . .
41(4) . . .
46(4) . . .
36.3(31) . . .
42(4) . . .
36.6(34) . . .
37.4(34) . . .
38.6(32) . . .
37.9(32) . . .
44(4) . . .
37.2(33) . . .
34.3(33) . . .
41.7(33) . . .
34.8(33) . . .
37.5(33) . . .
35.8(31) . . .
43(4) . . .
33.4(30) . . .
34.9(32) . . .
29.2(29) . . .
33.0(31) . . .
37.1(32) . . .
29.8(29) . . .
32.2(31) . . .
37.9(34) . . .
27.5(27) . . .
30.2(30) . . .
33.2(30) . . .
36.6(32) . . .
37.8(33) . . .
36.2(33) . . .
37.0(32) . . .
39.6(32) . . .
41.7(34) . . .
34.9(31) . . .
39(4) . . .
33.3(30) . . .
33.8(31) . . .
40(4) . . .
39(4) . . .
31.7(31) . . .
33.4(30) . . .
42.1(33) . . .
41.6(33) . . .
39.2(35) . . .
42(4) . . .
37.6(33) . . .
37.5(32) . . .
54(4) . . .
44(4) . . .
40.7(35) . . .
31.6(29) . . .
32.6(30) . . .
46(4) . . .
36.7(34) . . .
40.9(35) . . .
36.1(32) . . .
48(4) . . .
35.2(31) . . .
38.3(35) . . .
32.2(31) . . .
35.6(31) . . .
31.7(30) . . .
29.7(28) . . .
36.1(33) . . .
33.3(30) . . .
46(4) . . .
46(4) . . .
36.4(34) . . .
34.6(34) . . .
37(4) . . .
30.6(29) . . .
32.9(30) . . .
32.7(30) . . .
44(4) . . .
43.2(34) . . .
38.8(32) . . .
39.8(33) . . .
33.8(32) . . .
42(4) . . .
33.9(30) . . .
42.9(34) . . .
30.0(28) . . .
51(4) . . .
40.3(33) . . .
32.7(30) . . .
38.5(32) . . .
25.0(26) . . .
39(4) . . .
35.0(32) . . .
38.1(32) . . .
33.8(30) . . .
33.2(30) . . .
40.9(35) . . .
33.8(31) . . .
37.4(31) . . .
29.8(29) . . .
33.3(33) . . .
25.1(27) . . .
33.6(31) . . .
37.2(33) . . .
30.4(29) . . .
30.5(32) . . .
35.7(34) . . .
35.7(31) . . .
35.0(31) . . .
46(4) . . .
35.2(34) . . .
31.8(31) . . .
28.8(29) . . .
35.3(31) . . .
34.0(31) . . .
26.1(26) . . .
42(4) . . .
36.9(32) . . .
32.7(30) . . .
43.0(35) . . .
31.7(30) . . .
35.7(31) . . .
46(4) . . .
36.5(32) . . .
40.5(35) . . .
43(4) . . .
29.4(27) . . .
33.1(30) . . .
40.2(34) . . .
34.3(32) . . .
32.8(31) . . .
36.6(33) . . .
33.1(30) . . .
40.5(33) . . .
31.7(34) . . .
36.5(34) . . .
40.9(34) . . .
42.0(34) . . .
37.0(32) . . .
34.8(32) . . .
36.2(33) . . .
41.0(33) . . .
44.5(35) . . .
32.1(31) . . .
33.0(32) . . .
39.6(35) . . .
42(4) . . .
28.5(29) . . .
38.9(33) . . .
31.1(29) . . .
41(4) . . .
36.2(32) . . .
34.2(31) . . .
39.5(34) . . .
36.0(31) . . .
42(4) . . .
45(4) . . .
40.1(33) . . .
42.3(34) . . .
38.5(32) . . .
32.7(30) . . .
32.6(30) . . .
36.4(32) . . .
37.6(33) . . .
38.6(35) . . .
34.6(32) . . .
35.5(32) . . .
40.7(34) . . .
36.5(33) . . .
43(4) . . .
36.0(32) . . .
43.3(34) . . .
33.0(30) . . .
38.0(33) . . .
37.6(33) . . .
34.3(31) . . .
42(4) . . .
36.0(31) . . .
30.6(31) . . .
32.1(33) . . .
30.7(31) . . .
29.9(31) . . .
29.9(28) . . .
41(4) . . .
39.1(34) . . .
40.4(35) . . .
33.6(31) . . .
46(4) . . .
37.1(34) . . .
30.3(29) . . .
31.7(29) . . .
30.1(29) . . .
25.0(26) . . .
38.5(34) . . .
27.3(29) . . .
28.1(30) . . .
32.6(29) . . .
26.3(27) . . .
39(4) . . .
40(4) . . .
36.5(32) . . .
36.6(32) . . .
43.2(34) . . .
35.9(30) . . .
42.9(34) . . .
41.3(35) . . .
43.1(34) . . .
35.3(31) . . .
35.7(35) . . .
30.0(31) . . .
37.3(33) . . .
36.9(32) . . .
30.4(29) . . .
44(4) . . .
37.1(33) . . .
36.5(33) . . .
41.5(34) . . .
36.5(32) . . .
36.6(32) . . .
37.8(34) . . .
30.3(28) . . .
36.1(31) . . .
35.0(31) . . .
45(4) . . .
41.6(34) . . .
46(4) . . .
43.1(35) . . .
38.7(32) . . .
44(4) . . .
43(4) . . .
31.4(30) . . .
41.7(34) . . .
43(4) . . .
42(4) . . .
31.2(29) . . .
33.3(32) . . .
41.7(34) . . .
38.6(32) . . .
34.8(31) . . .
35.9(32) . . .
40.2(34) . . .
39.1(33) . . .
40.6(35) . . .
44(4) . . .
44(4) . . .
41.2(34) . . .
45.4(34) . . .
41.0(34) . . .
43(4) . . .
34.2(33) . . .
35.2(31) . . .
38.9(33) . . .
33.9(30) . . .
27.1(27) . . .
34.4(31) . . .
41.0(34) . . .
33.0(29) . . .
34.5(32) . . .
31.5(32) . . .
28.2(29) . . .
38.0(34) . . .
41.1(34) . . .
37.5(31) . . .
40.9(33) . . .
36.6(33) . . .
38.7(32) . . .
40.5(33) . . .
39.3(34) . . .
32.0(30) . . .
44(4) . . .
37.8(32) . . .
43.1(34) . . .
36.2(32) . . .
33.0(30) . . .
36.7(31) . . .
37.8(32) . . .
34.6(31) . . .
32.5(30) . . .
41.6(35) . . .
38.1(33) . . .
36.3(31) . . .
38.1(32) . . .
39.5(33) . . .
41.2(34) . . .
32.6(31) . . .
30.4(29) . . .
31.4(30) . . .
34.7(32) . . .
39.0(34) . . .
32.3(30) . . .
31.0(29) . . .
31.0(31) . . .
39.6(34) . . .
41(4) . . .
30.9(29) . . .
35.5(31) . . .
44(4) . . .
42(4) . . .
35.1(33) . . .
38.2(32) . . .
39.0(32) . . .
39.8(33) . . .
37.5(33) . . .
37.0(32) . . .
30.3(28) . . .
36.9(31) . . .
45(4) . . .
36.7(34) . . .
45(4) . . .
40.7(34) . . .
41.2(34) . . .
28.8(28) . . .
37.3(34) . . .
41(4) . . .
33.4(30) . . .
25.8(28) . . .
27.9(30) . . .
28.0(30) . . .
33.3(33) . . .
34.4(31) . . .
34.6(34) . . .
41(4) . . .
43(4) . . .
36.2(34) . . .
24.4(25) . . .
33.8(32) . . .
41(4) . . .
33.6(30) . . .
42.3(35) . . .
37.8(32) . . .
31.2(29) . . .
30.8(29) . . .
34.5(31) . . .
37.1(33) . . .
33.1(30) . . .
32.5(31) . . .
42(4) . . .
34.0(31) . . .
38.4(33) . . .
33.0(30) . . .
29.8(29) . . .
33.0(32) . . .
37.1(32) . . .
34.1(30) . . .
39.8(33) . . .
34.8(32) . . .
28.9(30) . . .
38.1(33) . . .
47(4) . . .
38.3(33) . . .
31.0(30) . . .
35.0(34) . . .
36.5(32) . . .
32.0(30) . . .
38.6(33) . . .
30.7(29) . . .
36.2(33) . . .
41(4) . . .
31.3(29) . . .
41.1(34) . . .
30.4(30) . . .
27.0(28) . . .
45(4) . . .
36.2(31) . . .
36.0(32) . . .
28.3(29) . . .
28.8(29) . . .
41(4) . . .
41.1(33) . . .
43(4) . . .
44(4) . . .
41.1(34) . . .
38.8(32) . . .
34.1(30) . . .
39.9(35) . . .
33.7(31) . . .
40.2(35) . . .
32.5(29) . . .
33.7(30) . . .
27.2(29) . . .
31.6(31) . . .
29.1(27) . . .
37.4(32) . . .
25.8(27) . . .
31.8(29) . . .
37.7(34) . . .
33.2(31) . . .
34.4(32) . . .
33.5(30) . . .
37.9(33) . . .
36.6(33) . . .
36.3(32) . . .
35.1(30) . . .
30.6(29) . . .
38.2(32) . . .
33.1(32) . . .
39.0(33) . . .
37.9(32) . . .
30.6(30) . . .
28.7(28) . . .
40(4) . . .
44.3(34) . . .
43.0(35) . . .
37.5(32) . . .
43(4) . . .
39(4) . . .
38.6(34) . . .
47(4) . . .
39.5(33) . . .
37.7(33) . . .
39(4) . . .
30.7(29) . . .
36.6(32) . . .
37.9(33) . . .
40(4) . . .
31.8(31) . . .
40.3(34) . . .
37.5(32) . . .
37.8(33) . . .
33.2(32) . . .
41.4(34) . . .
39.7(34) . . .
33.8(31) . . .
36.8(33) . . .
38.2(34) . . .
36.5(32) . . .
44.8(35) . . .
42.8(34) . . .
35.4(34) . . .
31.8(31) . . .
31.9(30) . . .
35.2(32) . . .
40.6(34) . . .
33.1(31) . . .
33.8(33) . . .
33.9(31) . . .
39.4(33) . . .
34.3(30) . . .
36.6(34) . . .
30.0(29) . . .
30.0(28) . . .
34.6(33) . . .
37.7(32) . . .
42.0(35) . . .
32.7(31) . . .
32.0(31) . . .
33.2(31) . . .
36.2(32) . . .
32.6(32) . . .
33.3(32) . . .
30.2(27) . . .
41.1(34) . . .
41.7(34) . . .
35.0(31) . . .
29.6(29) . . .
40.2(34) . . .
30.1(28) . . .
45(4) . . .
38.1(33) . . .
34.7(32) . . .
37.6(35) . . .
41.1(33) . . .
40.9(34) . . .
34.9(34) . . .
35.8(33) . . .
32.8(31) . . .
43.3(34) . . .
36.4(32) . . .
33.9(32) . . .
33.7(32) . . .
32.0(32) . . .
38.7(33) . . .
41.9(34) . . .
29.1(29) . . .
29.5(30) . . .
33.8(31) . . .
25.6(27) . . .
34.7(31) . . .
35.6(32) . . .
35.8(32) . . .
38.3(34) . . .
43.5(34) . . .
36.8(32) . . .
40(4) . . .
31.0(29) . . .
35.7(31) . . .
39.1(33) . . .
34.1(31) . . .
38(4) . . .
37.3(32) . . .
40.9(33) . . .
30.9(29) . . .
31.5(31) . . .
32.6(33) . . .
38(4) . . .
29.7(28) . . .
25.9(26) . . .
34.7(31) . . .
34.6(31) . . .
46(4) . . .
37.0(32) . . .
25.1(26) . . .
33.1(32) . . .
35.0(32) . . .
35.8(31) . . .
42.9(34) . . .
32.7(30) . . .
30.1(30) . . .
32.8(32) . . .
36.0(32) . . .
39.6(33) . . .
30.3(29) . . .
42(4) . . .
32.8(30) . . .
41(4) . . .
31.3(29) . . .
33.6(30) . . .
30.8(29) . . .
34.0(32) . . .
40.1(34) . . .
39.6(33) . . .
36.9(32) . . .
35.4(30) . . .
39.3(32) . . .
44(4) . . .
44.3(34) . . .
33.8(31) . . .
40.2(33) . . .
31.2(30) . . .
36.4(34) . . .
37.0(31) . . .
37.5(32) . . .
40(4) . . .
36.2(32) . . .
27.8(27) . . .
30.5(29) . . .
36.5(33) . . .
29.6(31) . . .
35.7(33) . . .
38.9(33) . . .
39.9(32) . . .
37.2(32) . . .
36.6(34) . . .
33.5(31) . . .
33.0(30) . . .
43.9(34) . . .
30.1(30) . . .
41(4) . . .
38.4(33) . . .
41.1(34) . . .
34.6(31) . . .
36.4(33) . . .
29.2(32) . . .
23.3(25) . . .
37.8(33) . . .
41.1(33) . . .
27.7(28) . . .
34.2(33) . . .
28.7(28) . . .
31.9(29) . . .
36.4(31) . . .
36.2(34) . . .
32.3(31) . . .
31.9(30) . . .
40.5(33) . . .
41.0(33) . . .
30.4(29) . . .
35.7(33) . . .
39.3(35) . . .
27.9(27) . . .
45(4) . . .
33.8(31) . . .
37.9(33) . . .
35.9(32) . . .
31.3(30) . . .
43(4) . . .
41(4) . . .
37.2(35) . . .
37.7(32) . . .
26.0(27) . . .
33.5(32) . . .
33.6(33) . . .
41(4) . . .
43(4) . . .
36.5(31) . . .
36.4(33) . . .
33.7(32) . . .
34.7(32) . . .
38.3(32) . . .
39.8(32) . . .
48(4) . . .
41.0(34) . . .
44(4) . . .
36.2(31) . . .
37.7(32) . . .
34.9(32) . . .
37.8(35) . . .
26.8(29) . . .
25.3(27) . . .
36.6(31) . . .
31.8(29) . . .
42(4) . . .
39.0(34) . . .
36.7(33) . . .
32.2(29) . . .
36.7(34) . . .
35.9(31) . . .
41(4) . . .
37.9(32) . . .
32.5(30) . . .
37.4(35) . . .
28.5(30) . . .
32.8(31) . . .
37.3(31) . . .
41.7(34) . . .
34.4(32) . . .
41(4) . . .
42(4) . . .
34.4(31) . . .
35.9(32) . . .
34.5(30) . . .
32.5(31) . . .
39.5(34) . . .
32.2(30) . . .
36.2(32) . . .
31.4(31) . . .
27.5(28) . . .
37.2(33) . . .
41.3(34) . . .
32.0(34) . . .
38.2(34) . . .
44(4) . . .
36.0(33) . . .
31.4(30) . . .
30.5(29) . . .
37.1(32) . . .
44(4) . . .
36.5(32) . . .
33.3(30) . . .
30.8(31) . . .
38.5(34) . . .
40.0(35) . . .
36.2(31) . . .
29.5(28) . . .
37.5(32) . . .
34.4(33) . . .
38.1(33) . . .
37.9(33) . . .
32.5(30) . . .
31.4(30) . . .
35.4(33) . . .
32.3(30) . . .
35.9(31) . . .
31.5(29) . . .
34.1(32) . . .
31.7(32) . . .
35.2(31) . . .
38.4(32) . . .
38.8(33) . . .
37.9(34) . . .
37.1(35) . . .
35.9(32) . . .
34.1(30) . . .
30.6(29) . . .
30.7(30) . . .
39.1(34) . . .
34.5(31) . . .
39.3(32) . . .
34.5(31) . . .
35.6(31) . . .
33.2(31) . . .
39.3(34) . . .
34.7(31) . . .
31.6(29) . . .
36.4(33) . . .
33.1(32) . . .
31.8(29) . . .
34.5(31) . . .
28.1(29) . . .
27.0(28) . . .
38.6(33) . . .
40.7(33) . . .
33.6(30) . . .
33.4(32) . . .
38.5(34) . . .
38.9(33) . . .
36.6(32) . . .
28.8(28) . . .
32.4(32) . . .
29.5(30) . . .
38(4) . . .
32.3(30) . . .
25.4(27) . . .
37.2(34) . . .
35.9(33) . . .
31.3(30) . . .
44(4) . . .
34.9(31) . . .
45(4) . . .
41(4) . . .
32.7(30) . . .
45(4) . . .
38.7(32) . . .
36.7(33) . . .
38.5(34) . . .
35.8(32) . . .
36.0(32) . . .
29.0(28) . . .
27.2(27) . . .
31.1(31) . . .
35.6(32) . . .
35.0(32) . . .
40.6(34) . . .
30.3(30) . . .
30.9(31) . . .
39.0(33) . . .
44.0(34) . . .
36.8(31) . . .
28.4(28) . . .
41(4) . . .
33.8(34) . . .
38.4(32) . . .
36.3(33) . . .
37.9(33) . . .
37.6(33) . . .
24.4(26) . . .
37.0(32) . . .
45(4) . . .
37.3(33) . . .
38.0(33) . . .
38.6(33) . . .
40.5(32) . . .
42(4) . . .
32.5(31) . . .
38.9(35) . . .
46(4) . . .
23.3(25) . . .
26.8(28) . . .
33.5(31) . . .
39.9(33) . . .
47(4) . . .
34.1(30) . . .
33.1(31) . . .
35.7(31) . . .
33.2(30) . . .
39.5(33) . . .
37.5(33) . . .
32.2(31) . . .
36(4) . . .
42(4) . . .
34.5(31) . . .
43.0(34) . . .
36.8(32) . . .
43(4) . . .
42(4) . . .
34.8(31) . . .
29.9(29) . . .
43(4) . . .
33.2(30) . . .
34.6(34) . . .
33.2(30) . . .
34.0(31) . . .
39.0(33) . . .
45(4) . . .
32.1(30) . . .
40.9(34) . . .
39.9(34) . . .
31.0(28) . . .
37.0(34) . . .
28.8(29) . . .
33.1(30) . . .
35.7(33) . . .
38.5(33) . . .
41.2(34) . . .
41.7(35) . . .
36.8(31) . . .
40(4) . . .
41(4) . . .
27.4(27) . . .
28.5(29) . . .
33.0(30) . . .
35.2(32) . . .
39.3(35) . . .
37.5(33) . . .
33.7(30) . . .
35.2(31) . . .
29.4(32) . . .
37.6(34) . . .
36.2(31) . . .
38.0(32) . . .
39.8(32) . . .
28.8(29) . . .
38.9(34) . . .
34.1(31) . . .
39.3(34) . . .
41.3(34) . . .
38.9(34) . . .
30.3(28) . . .
32.1(30) . . .
30.6(29) . . .
31.4(29) . . .
32.2(29) . . .
35.5(33) . . .
36.2(34) . . .
38.4(32) . . .
38.5(34) . . .
37.8(33) . . .
28.3(28) . . .
35.1(32) . . .
33.3(30) . . .
30.3(29) . . .
31.0(30) . . .
33.0(32) . . .
40.0(35) . . .
38.0(33) . . .
34.5(32) . . .
39.7(34) . . .
43(4) . . .
38.4(34) . . .
38.9(33) . . .
34.0(31) . . .
33.1(32) . . .
33.3(32) . . .
39.5(34) . . .
36.1(31) . . .
31.2(30) . . .
37.1(33) . . .
36.5(32) . . .
40.2(33) . . .
37.8(32) . . .
33.4(31) . . .
37.7(33) . . .
33.2(30) . . .
27.8(28) . . .
31.2(29) . . .
35.5(32) . . .
29.8(30) . . .
39(4) . . .
37.3(33) . . .
36.6(31) . . .
30.2(30) . . .
33.9(32) . . .
36.5(32) . . .
41.4(34) . . .
35.1(30) . . .
43(4) . . .
40(4) . . .
34.3(31) . . .
26.2(27) . . .
39.4(33) . . .
27.2(27) . . .
32.0(31) . . .
34.2(30) . . .
32.2(30) . . .
46(4) . . .
38.6(35) . . .
28.0(29) . . .
35.7(33) . . .
41.8(33) . . .
36.0(32) . . .
42.5(34) . . .
42(4) . . .
42(4) . . .
36.2(32) . . .
34.0(31) . . .
30.2(29) . . .
43(4) . . .
39.0(34) . . .
34.3(30) . . .
40.2(34) . . .
32.1(31) . . .
34.3(32) . . .
36.8(34) . . .
37.3(32) . . .
51(4) . . .
34.7(30) . . .
33.2(31) . . .
35.2(32) . . .
38.7(33) . . .
37.7(33) . . .
39(4) . . .
38(4) . . .
38.5(32) . . .
42.6(34) . . .
34.6(32) . . .
30.9(32) . . .
37.7(33) . . .
39.1(32) . . .
44.1(34) . . .
43(4) . . .
34.2(33) . . .
34.6(34) . . .
33.9(31) . . .
39.1(33) . . .
33(4) . . .
32.5(35) . . .
26.8(29) . . .
35.8(32) . . .
37.1(31) . . .
24.9(27) . . .
32.9(33) . . .
42(4) . . .
40.7(33) . . .
40.3(34) . . .
39.7(34) . . .
37.0(34) . . .
29.5(29) . . .
26.2(28) . . .
36.4(31) . . .
40.2(35) . . .
36.7(34) . . .
31.4(29) . . .
31.9(29) . . .
37.9(34) . . .
35.2(32) . . .
32.0(31) . . .
40(4) . . .
24.4(26) . . .
29.9(30) . . .
31.1(30) . . .
38.0(34) . . .
39.9(34) . . .
45(4) . . .
34.0(30) . . .
34.5(30) . . .
31.1(29) . . .
37.1(33) . . .
38.2(32) . . .
40.9(34) . . .
35.8(34) . . .
31.8(32) . . .
35.0(31) . . .
42.6(34) . . .
29.9(29) . . .
42(4) . . .
42(4) . . .
29.4(29) . . .
42.3(34) . . .
38.6(34) . . .
28.6(30) . . .
43(4) . . .
39.3(33) . . .
40.2(33) . . .
31.9(30) . . .
32.4(33) . . .
29.8(31) . . .
27.3(28) . . .
39.3(33) . . .
36.0(32) . . .
27.2(30) . . .
31.3(30) . . .
38.0(32) . . .
36.1(32) . . .
32.8(30) . . .
38(4) . . .
35.0(31) . . .
34.8(31) . . .
35.7(31) . . .
35.1(32) . . .
39(4) . . .
31.0(29) . . .
50(4) . . .
31.5(30) . . .
33.9(32) . . .
34.9(33) . . .
44(4) . . .
46(4) . . .
32.5(30) . . .
38.9(33) . . .
31.1(32) . . .
38.6(33) . . .
40.9(33) . . .
35.9(33) . . .
38.2(35) . . .
36.4(33) . . .
37.1(33) . . .
32.7(30) . . .
42.6(34) . . .
35.7(31) . . .
36.7(33) . . .
39.8(33) . . .
46(4) . . .
42.8(35) . . .
34.8(33) . . .
37.7(35) . . .
34.7(31) . . .
39.0(33) . . .
39(4) . . .
48(4) . . .
33.7(33) . . .
43.6(35) . . .
41.7(33) . . .
31.2(32) . . .
32.8(32) . . .
36.0(32) . . .
40.5(33) . . .
24.3(25) . . .
41.0(34) . . .
38.2(33) . . .
39.2(33) . . .
38.5(32) . . .
36.3(32) . . .
32.1(30) . . .
33.4(32) . . .
37.8(33) . . .
50(4) . . .
51(4) . . .
28.5(28) . . .
39(4) . . .
38.0(34) . . .
31.4(29) . . .
28.4(27) . . .
39.3(34) . . .
28.6(28) . . .
38.2(33) . . .
37.9(32) . . .
44.1(35) . . .
37.4(33) . . .
35.2(32) . . .
42.7(35) . . .
36.1(32) . . .
33.3(30) . . .
30.3(28) . . .
33.8(30) . . .
35.9(31) . . .
32.9(30) . . .
27.8(28) . . .
36.4(32) . . .
40.9(35) . . .
26.9(27) . . .
27.8(27) . . .
38.2(32) . . .
35.9(31) . . .
36.5(32) . . .
34.7(31) . . .
36.7(31) . . .
41(4) . . .
41(4) . . .
42(4) . . .
36.6(32) . . .
34.3(31) . . .
53(4) . . .
28.8(29) . . .
34.4(33) . . .
39.1(32) . . .
39.3(32) . . .
34.9(31) . . .
43(4) . . .
36.4(32) . . .
40.6(34) . . .
35.2(32) . . .
37.2(32) . . .
40.2(35) . . .
37.9(32) . . .
33.3(31) . . .
36.5(32) . . .
30.6(28) . . .
32.8(33) . . .
36.4(32) . . .
40.8(34) . . .
30.3(28) . . .
39(4) . . .
29.0(27) . . .
33.9(33) . . .
36.8(31) . . .
31.8(30) . . .
37.5(33) . . .
34.5(32) . . .
39.4(35) . . .
47(4) . . .
39.9(34) . . .
37.0(33) . . .
36.6(33) . . .
35.2(31) . . .
36.4(32) . . .
34.7(31) . . .
33.5(31) . . .
33.2(31) . . .
40.8(34) . . .
42.0(34) . . .
30.5(29) . . .
35.2(33) . . .
32.1(32) . . .
38.8(33) . . .
30.0(29) . . .
33.7(32) . . .
32.4(31) . . .
37.1(34) . . .
29.4(28) . . .
32.1(30) . . .
30.7(30) . . .
29.3(29) . . .
35.7(33) . . .
31.1(29) . . .
41.8(33) . . .
34.2(31) . . .
26.2(28) . . .
38.2(33) . . .
31.0(29) . . .
40.0(34) . . .
30.8(29) . . .
32.4(34) . . .
37.2(34) . . .
40.6(33) . . .
41.1(34) . . .
38.1(34) . . .
37(4) . . .
33.0(31) . . .
26.3(27) . . .
26.6(27) . . .
35.2(32) . . .
30.7(32) . . .
30.7(30) . . .
37.4(32) . . .
40.5(34) . . .
38.9(34) . . .
33.2(31) . . .
37.7(34) . . .
30.4(29) . . .
33.2(30) . . .
37.6(32) . . .
38.0(33) . . .
43.0(34) . . .
35.6(32) . . .
39.0(34) . . .
36.5(34) . . .
31.1(31) . . .
36.5(33) . . .
34.7(31) . . .
36.2(33) . . .
34.5(33) . . .
30.4(31) . . .
31.5(31) . . .
41.2(34) . . .
34.8(31) . . .
42(4) . . .
41.5(34) . . .
41.5(34) . . .
34.3(31) . . .
36.9(34) . . .
34.6(33) . . .
38.9(33) . . .
38.8(32) . . .
40.9(34) . . .
44(4) . . .
35.3(33) . . .
34.5(33) . . .
45(4) . . .
35.4(31) . . .
35.6(31) . . .
38.6(35) . . .
39(4) . . .
40.3(33) . . .
37.0(32) . . .
36.9(32) . . .
34.0(31) . . .
40.5(34) . . .
41.0(35) . . .
39.9(33) . . .
41(4) . . .
49(4) . . .
38.6(34) . . .
35.8(32) . . .
36.5(33) . . .
31.7(32) . . .
37(4) . . .
37.4(33) . . .
34.6(31) . . .
43(4) . . .
31.6(29) . . .
34.6(33) . . .
37.6(33) . . .
36.2(32) . . .
41(4) . . .
33.6(32) . . .
48(4) . . .
35.4(32) . . .
30.1(29) . . .
38.3(33) . . .
38.2(34) . . .
35.3(31) . . .
37.8(32) . . .
36.4(32) . . .
32.6(30) . . .
35.4(31) . . .
44(4) . . .
32.2(29) . . .
27.7(28) . . .
46(4) . . .
46(4) . . .
30.0(28) . . .
34.1(30) . . .
35.1(30) . . .
35.2(32) . . .
36.8(33) . . .
33.2(30) . . .
33.4(31) . . .
27.9(28) . . .
31.0(29) . . .
37.5(33) . . .
41(4) . . .
36.4(32) . . .
37.1(32) . . .
31.8(31) . . .
31.0(31) . . .
38.8(33) . . .
34.3(30) . . .
36.0(31) . . .
32.2(31) . . .
37.1(34) . . .
35.1(31) . . .
33.3(30) . . .
43.4(35) . . .
29.8(28) . . .
38.9(34) . . .
42(4) . . .
41.1(34) . . .
37.7(32) . . .
35.4(33) . . .
36.5(33) . . .
34.6(32) . . .
32.5(29) . . .
27.3(28) . . .
32.0(29) . . .
42(4) . . .
30.8(29) . . .
39.4(33) . . .
32.5(30) . . .
37.3(33) . . .
37.6(33) . . .
37.5(34) . . .
35.5(31) . . .
35.6(31) . . .
35.6(32) . . .
36.0(33) . . .
42(4) . . .
44.1(34) . . .
37.7(35) . . .
34.1(32) . . .
34.7(32) . . .
36.2(31) . . .
45(4) . . .
31.1(29) . . .
36(4) . . .
36.5(33) . . .
29.2(27) . . .
36.5(32) . . .
37.8(32) . . .
32.1(30) . . .
39(4) . . .
35.6(31) . . .
36.7(32) . . .
35.3(33) . . .
36.9(34) . . .
27.0(28) . . .
29.3(28) . . .
41.0(34) . . .
39.3(33) . . .
50(4) . . .
31.5(31) . . .
33.4(30) . . .
39.5(33) . . .
47(4) . . .
27.0(29) . . .
25.3(28) . . .
34.0(30) . . .
42.5(34) . . .
37.5(33) . . .
37.0(32) . . .
46(4) . . .
31.6(29) . . .
27.9(29) . . .
35.2(32) . . .
34.0(34) . . .
30.9(32) . . .
30.2(29) . . .
30.8(29) . . .
39(4) . . .
32.4(32) . . .
38.6(34) . . .
32.2(30) . . .
33.6(32) . . .
28.7(28) . . .
28.6(27) . . .
28.4(27) . . .
39.2(32) . . .
36.9(33) . . .
34.2(32) . . .
37.0(33) . . .
32.0(31) . . .
36.6(32) . . .
37.5(33) . . .
35.5(33) . . .
45(4) . . .
32.3(29) . . .
37.0(32) . . .
34.1(30) . . .
32.9(31) . . .
26.4(27) . . .
28.3(27) . . .
33.5(30) . . .
34.5(30) . . .
40(4) . . .
29.5(29) . . .
28.9(28) . . .
38.8(34) . . .
34.8(32) . . .
35.8(33) . . .
36.7(32) . . .
42.0(34) . . .
33.8(30) . . .
36.8(32) . . .
32.2(29) . . .
36.4(33) . . .
35.6(31) . . .
30.1(30) . . .
41(4) . . .
34.2(31) . . .
32.4(30) . . .
33.8(30) . . .
32.0(29) . . .
28.1(28) . . .
37.2(33) . . .
32.0(31) . . .
29.2(28) . . .
36.6(34) . . .
38.8(33) . . .
30.1(29) . . .
35.9(32) . . .
34.3(31) . . .
35.4(32) . . .
40(4) . . .
29.3(28) . . .
33.7(30) . . .
34.0(31) . . .
31.6(29) . . .
33.9(33) . . .
33.7(32) . . .
35.2(31) . . .
30.6(29) . . .
40.0(34) . . .
38.1(33) . . .
35.7(32) . . .
31.7(29) . . .
38.4(32) . . .
33.2(32) . . .
32.5(30) . . .
46(4) . . .
36.6(31) . . .
40.4(35) . . .
33.5(31) . . .
31.7(30) . . .
38.1(33) . . .
27.4(28) . . .
33.0(29) . . .
37.3(33) . . .
25.7(27) . . .
32.1(31) . . .
33.6(30) . . .
45(4) . . .
36.6(33) . . .
30.0(32) . . .
27.7(29) . . .
30.2(28) . . .
35.7(31) . . .
33.4(32) . . .
35.5(33) . . .
35.8(35) . . .
32.8(30) . . .
37.7(32) . . .
38.3(32) . . .
39.0(35) . . .
43(4) . . .
39.4(33) . . .
37.5(34) . . .
25.8(28) . . .
35.0(34) . . .
31.6(29) . . .
40.4(33) . . .
43(4) . . .
29.8(30) . . .
36.5(33) . . .
39.6(35) . . .
44(4) . . .
34.1(31) . . .
43(4) . . .
37.5(32) . . .
37.0(31) . . .
35.5(31) . . .
24.8(26) . . .
28.1(28) . . .
27.3(27) . . .
30.1(29) . . .
36.0(31) . . .
36.7(33) . . .
28.8(30) . . .
29.3(29) . . .
33.5(31) . . .
32.4(30) . . .
26.1(28) . . .
27.4(29) . . .
35.9(33) . . .
30.8(28) . . .
30.3(28) . . .
32.8(33) . . .
32.7(34) . . .
49(4) . . .
38.5(33) . . .
35.1(32) . . .
34.7(33) . . .
25.3(27) . . .
44(4) . . .
34.5(30) . . .
37.1(33) . . .
41(4) . . .
35.4(34) . . .
28.8(29) . . .
33.0(30) . . .
28.6(28) . . .
29.8(31) . . .
37.3(34) . . .
35.3(32) . . .
32.4(30) . . .
27.5(29) . . .
45(4) . . .
32.3(31) . . .
37.7(34) . . .
38.7(32) . . .
35.0(32) . . .
35.4(34) . . .
30.1(29) . . .
36.0(32) . . .
37.9(31) . . .
49(4) . . .
38(4) . . .
31.5(31) . . .
27.8(28) . . .
31.4(30) . . .
32.4(31) . . .
35.4(33) . . .
36.1(33) . . .
34.3(31) . . .
36.7(32) . . .
33.5(31) . . .
35.6(31) . . .
39.6(35) . . .
36.5(32) . . .
36.0(31) . . .
31.5(32) . . .
27.2(28) . . .
31.7(32) . . .
33.2(30) . . .
34.0(30) . . .
34.8(31) . . .
36.1(32) . . .
40.1(34) . . .
36.2(31) . . .
36.6(31) . . .
43.5(35) . . .
41(4) . . .
34.6(31) . . .
29.0(28) . . .
36.5(32) . . .
47(4) . . .
40(4) . . .
41(4) . . .
40.9(33) . . .
35.4(31) . . .
33.1(32) . . .
36.9(35) . . .
31.5(29) . . .
34.5(31) . . .
38.5(35) . . .
31.2(29) . . .
35.7(32) . . .
32.9(30) . . .
39.0(32) . . .
38.8(33) . . .
41.3(34) . . .
36.3(31) . . .
43(4) . . .
24.7(26) . . .
37.1(32) . . .
30.1(30) . . .
35.5(32) . . .
37.8(33) . . .
30.0(29) . . .
32.6(32) . . .
30.4(29) . . .
39(4) . . .
32.5(30) . . .
42.1(34) . . .
32.9(30) . . .
33.5(33) . . .
39.1(33) . . .
31.7(29) . . .
29.1(28) . . .
33.6(32) . . .
32.9(31) . . .
38.2(32) . . .
46(4) . . .
34.0(31) . . .
25.7(28) . . .
24.0(27) . . .
33.8(34) . . .
28.4(28) . . .
39.6(33) . . .
39.2(34) . . .
34.5(32) . . .
31.5(31) . . .
36.7(31) . . .
36.3(32) . . .
33.8(31) . . .
29.5(30) . . .
31.2(30) . . .
38.0(32) . . .
38.3(33) . . .
34.0(30) . . .
36.1(31) . . .
36.9(31) . . .
41.0(33) . . .
32.7(31) . . .
22.0(26) . . .
31.6(31) . . .
39.8(34) . . .
33.3(30) . . .
31.1(30) . . .
35.6(31) . . .
34.6(31) . . .
37.2(32) . . .
35.8(31) . . .
27.3(27) . . .
29.3(29) . . .
31.0(31) . . .
30.0(30) . . .
37.5(33) . . .
44(4) . . .
37.4(33) . . .
29.5(29) . . .
39.7(34) . . .
46(4) . . .
43(4) . . .
36.5(33) . . .
32.0(30) . . .
35.3(32) . . .
31.8(29) . . .
40.6(35) . . .
33.1(33) . . .
31.1(29) . . .
23.3(25) . . .
36.0(32) . . .
29.3(29) . . .
26.0(29) . . .
31.7(30) . . .
36.8(31) . . .
44.1(35) . . .
39.1(32) . . .
42(4) . . .
30.5(29) . . .
31.7(29) . . .
28.7(28) . . .
39.5(34) . . .
40(4) . . .
35.7(34) . . .
31.5(30) . . .
34.1(30) . . .
27.5(27) . . .
31.3(32) . . .
34.8(32) . . .
43.8(35) . . .
35.4(31) . . .
39.5(35) . . .
42(4) . . .
38.8(34) . . .
32.6(30) . . .
33.6(32) . . .
33.8(32) . . .
40(4) . . .
46(4) . . .
42.9(34) . . .
38.9(33) . . .
37.2(35) . . .
35.6(33) . . .
40.8(35) . . .
28.3(27) . . .
37.3(33) . . .
30.0(29) . . .
37.1(35) . . .
33.8(30) . . .
44.3(35) . . .
30.8(31) . . .
44(4) . . .
45(4) . . .
36.7(31) . . .
34.8(30) . . .
30.4(30) . . .
34.5(32) . . .
35.8(32) . . .
30.9(29) . . .
34.0(30) . . .
33.7(31) . . .
35.7(34) . . .
33.6(32) . . .
43.2(35) . . .
35.1(30) . . .
28.3(29) . . .
28.5(31) . . .
34.0(31) . . .
28.6(28) . . .
41.2(33) . . .
33.7(30) . . .
35.0(35) . . .
36.7(33) . . .
39.0(33) . . .
28.9(29) . . .
39.5(33) . . .
37.3(34) . . .
42.5(34) . . .
41.8(34) . . .
30.8(29) . . .
30.8(29) . . .
31.3(31) . . .
35.3(32) . . .
35.7(31) . . .
41(4) . . .
29.2(28) . . .
29.6(29) . . .
31.4(30) . . .
30.8(29) . . .
34.7(31) . . .
34.4(32) . . .
38.9(34) . . .
31.3(30) . . .
34.3(31) . . .
34.5(31) . . .
43(4) . . .
34.9(32) . . .
40.2(33) . . .
40.0(33) . . .
40(4) . . .
37.0(34) . . .
36.6(34) . . .
38.3(33) . . .
39.7(33) . . .
36.1(33) . . .
37.8(34) . . .
40.3(35) . . .
33.2(30) . . .
31.6(30) . . .
26.7(28) . . .
39.3(35) . . .
36.7(31) . . .
42.7(34) . . .
32.0(29) . . .
31.4(29) . . .
30.8(29) . . .
42(4) . . .
28.3(28) . . .
31.7(30) . . .
25.3(27) . . .
45(4) . . .
42.0(35) . . .
38.0(32) . . .
33.3(30) . . .
32.0(32) . . .
43(4) . . .
39(4) . . .
43.8(35) . . .
44.7(35) . . .
34.7(33) . . .
33.6(32) . . .
35(4) . . .
41.1(34) . . .
33.8(30) . . .
37.7(33) . . .
37.4(34) . . .
31.8(30) . . .
39.3(32) . . .
31.4(30) . . .
32.8(33) . . .
32.9(30) . . .
40.7(34) . . .
28.1(28) . . .
47(4) . . .
43.0(35) . . .
33.5(30) . . .
39.2(34) . . .
27.6(28) . . .
34.9(31) . . .
31.7(29) . . .
34.6(33) . . .
42.5(35) . . .
40.3(33) . . .
38.6(34) . . .
27.3(26) . . .
37.0(32) . . .
32.6(30) . . .
46(4) . . .
42.6(34) . . .
37.1(35) . . .
40(4) . . .
36.5(32) . . .
36.3(32) . . .
28.4(30) . . .
34.9(34) . . .
39.1(33) . . .
34.7(31) . . .
32.2(30) . . .
34.6(31) . . .
34.2(32) . . .
33.6(33) . . .
29.6(28) . . .
40.8(35) . . .
28.7(29) . . .
30.8(30) . . .
27.1(30) . . .
31.0(30) . . .
32.4(30) . . .
26.3(27) . . .
32.3(31) . . .
35.3(32) . . .
41.4(34) . . .
40.0(33) . . .
39.3(34) . . .
28.4(29) . . .
23.7(27) . . .
28.9(28) . . .
31.3(29) . . .
37.1(35) . . .
38.4(34) . . .
29.6(29) . . .
42.4(34) . . .
37.8(34) . . .
36.7(33) . . .
31.8(31) . . .
27.6(29) . . .
32.4(30) . . .
35.3(31) . . .
28.6(27) . . .
37.6(35) . . .
32.4(30) . . .
29.4(29) . . .
44(4) . . .
35.7(33) . . .
44(4) . . .
39.5(33) . . .
37.0(33) . . .
27.0(28) . . .
35.8(34) . . .
30.4(29) . . .
40.3(35) . . .
31.9(29) . . .
33.9(30) . . .
38(4) . . .
38.7(33) . . .
40.2(33) . . .
42.2(35) . . .
34.1(30) . . .
32.2(31) . . .
30.7(29) . . .
36.5(31) . . .
35.2(31) . . .
37.8(33) . . .
43(4) . . .
42(4) . . .
32.3(30) . . .
33.4(31) . . .
31.7(31) . . .
31.1(32) . . .
33.4(32) . . .
34.5(30) . . .
35.3(31) . . .
28.7(29) . . .
37.0(34) . . .
38.5(34) . . .
32.2(29) . . .
29.5(28) . . .
41(4) . . .
34.0(33) . . .
30.9(29) . . .
31.9(29) . . .
43(4) . . .
36.6(33) . . .
39(4) . . .
28.9(29) . . .
34.4(30) . . .
28.2(27) . . .
28.9(30) . . .
36.7(35) . . .
37.6(32) . . .
45.2(35) . . .
37.4(33) . . .
34.6(34) . . .
44(4) . . .
30.9(29) . . .
33.1(30) . . .
32.8(30) . . .
44(4) . . .
34.6(32) . . .
33.2(30) . . .
34.8(32) . . .
32.2(31) . . .
28.8(28) . . .
37.5(33) . . .
37.4(32) . . .
41.7(34) . . .
34.9(31) . . .
38.4(34) . . .
34.0(31) . . .
28.0(28) . . .
44.0(35) . . .
42.9(34) . . .
40(4) . . .
31.2(29) . . .
35.8(31) . . .
26.9(27) . . .
37(4) . . .
30.9(32) . . .
34.2(32) . . .
26.2(27) . . .
28.3(27) . . .
39(4) . . .
41(4) . . .
33.4(31) . . .
28.0(28) . . .
28.7(28) . . .
27.2(30) . . .
28.8(31) . . .
31.8(29) . . .
29.9(29) . . .
26.5(27) . . .
41(4) . . .
33.9(32) . . .
42(4) . . .
31.3(30) . . .
29.8(29) . . .
40(4) . . .
40.3(34) . . .
41.2(35) . . .
31.6(30) . . .
33.6(32) . . .
35.6(34) . . .
31.3(31) . . .
40.9(34) . . .
43.8(35) . . .
34.6(32) . . .
35.6(34) . . .
32.1(30) . . .
35.3(31) . . .
45(4) . . .
38.6(33) . . .
35.3(32) . . .
31.4(30) . . .
31.2(30) . . .
30.5(29) . . .
28.7(28) . . .
40.4(35) . . .
37.6(32) . . .
37.3(32) . . .
31.1(29) . . .
35.5(35) . . .
27.4(30) . . .
42(4) . . .
33.7(31) . . .
31.4(29) . . .
33.0(31) . . .
38(4) . . .
31.9(34) . . .
36.1(31) . . .
34.8(32) . . .
39.2(34) . . .
35.3(33) . . .
33.5(35) . . .
33.8(30) . . .
31.7(29) . . .
38.1(33) . . .
35.1(31) . . .
36.8(33) . . .
27.7(27) . . .
32.9(31) . . .
35.4(34) . . .
34.3(31) . . .
38.7(33) . . .
34.4(32) . . .
35.0(32) . . .
30.5(30) . . .
37.0(32) . . .
30.9(28) . . .
38.1(32) . . .
39.6(33) . . .
29.3(28) . . .
27.9(29) . . .
38.5(32) . . .
35.4(31) . . .
32.8(31) . . .
41(4) . . .
35.4(31) . . .
32.4(29) . . .
37.2(33) . . .
36.8(31) . . .
42(4) . . .
38.7(34) . . .
38.1(32) . . .
43.9(35) . . .
32.6(30) . . .
32.7(33) . . .
23.6(27) . . .
21.2(24) . . .
26.9(27) . . .
35.1(32) . . .
36.5(34) . . .
38.3(34) . . .
36.2(31) . . .
35.1(31) . . .
39.3(32) . . .
47(4) . . .
35.5(32) . . .
42.1(34) . . .
31.3(29) . . .
42(4) . . .
34.8(32) . . .
36.8(32) . . .
28.0(28) . . .
39.2(34) . . .
36.8(30) . . .
35.9(31) . . .
31.7(30) . . .
24.1(25) . . .
34.9(32) . . .
42(4) . . .
45(4) . . .
43.6(35) . . .
45.1(35) . . .
46(4) . . .
28.1(27) . . .
43(4) . . .
45(4) . . .
31.5(30) . . .
37.6(33) . . .
42.0(35) . . .
42(4) . . .
45(4) . . .
35.9(31) . . .
46(4) . . .
39.9(35) . . .
31.0(29) . . .
38.7(32) . . .
33.2(30) . . .
33.2(31) . . .
34.6(31) . . .
43(4) . . .
30.3(29) . . .
29.2(28) . . .
36.8(31) . . .
37.9(35) . . .
29.0(28) . . .
37.1(33) . . .
38.8(33) . . .
35.0(32) . . .
31.0(31) . . .
34(4) . . .
33.7(31) . . .
37.0(31) . . .
38.9(33) . . .
40.0(34) . . .
32.5(30) . . .
35.6(32) . . .
33.5(30) . . .
38.1(34) . . .
38.5(35) . . .
29.2(28) . . .
44.4(35) . . .
37.2(32) . . .
32.5(29) . . .
35.7(32) . . .
29.1(28) . . .
36.0(31) . . .
31.3(29) . . .
40.0(35) . . .
35.4(32) . . .
31.2(30) . . .
37.3(32) . . .
43(4) . . .
44(4) . . .
31.9(29) . . .
32.4(31) . . .
33.9(30) . . .
42(4) . . .
36.5(34) . . .
27.1(27) . . .
46(4) . . .
36.7(32) . . .
39.0(34) . . .
37(4) . . .
39(4) . . .
30.6(30) . . .
27.8(28) . . .
32.8(30) . . .
35.8(32) . . .
44(4) . . .
36.0(32) . . .
39.0(32) . . .
40(4) . . .
31.6(31) . . .
37.5(34) . . .
31.3(30) . . .
37.5(32) . . .
38.1(33) . . .
37(4) . . .
34.7(31) . . .
30.0(29) . . .
35.9(32) . . .
34.9(31) . . .
34.2(32) . . .
34.5(32) . . .
38.2(32) . . .
34.6(31) . . .
33.0(32) . . .
37.5(34) . . .
34.6(30) . . .
33.6(30) . . .
29.5(29) . . .
30.5(31) . . .
35.8(35) . . .
26.4(28) . . .
32.3(30) . . .
36.3(31) . . .
28.7(29) . . .
32.5(31) . . .
29.1(28) . . .
29.7(29) . . .
31.2(29) . . .
43(4) . . .
42(4) . . .
34.5(34) . . .
33.9(30) . . .
40.4(33) . . .
34.6(31) . . .
41.5(35) . . .
35.7(31) . . .
34.4(31) . . .
30.5(30) . . .
49(4) . . .
36.5(33) . . .
30.2(29) . . .
25.2(26) . . .
33.6(30) . . .
36.4(33) . . .
37.6(33) . . .
38.1(32) . . .
33.2(30) . . .
32.8(31) . . .
34.1(32) . . .
37.4(34) . . .
38.4(33) . . .
35.9(31) . . .
36(4) . . .
31.6(31) . . .
35.1(32) . . .
36.7(32) . . .
37.9(33) . . .
35.1(31) . . .
40(4) . . .
30.5(29) . . .
34.7(30) . . .
43.0(35) . . .
39.1(32) . . .
33.8(31) . . .
40(4) . . .
32.9(30) . . .
33.1(30) . . .
40(4) . . .
38(4) . . .
34.3(31) . . .
28.3(28) . . .
32.0(29) . . .
43(4) . . .
38.1(35) . . .
35.6(35) . . .
39.5(32) . . .
32.6(29) . . .
41(4) . . .
46(4) . . .
37.3(33) . . .
29.5(28) . . .
30.2(29) . . .
46(4) . . .
38.3(33) . . .
47(4) . . .
35.2(31) . . .
34.9(31) . . .
32.4(32) . . .
29.2(29) . . .
44(4) . . .
34.6(31) . . .
29.1(28) . . .
37.5(34) . . .
31.5(29) . . .
41.0(34) . . .
35.5(31) . . .
30.9(30) . . .
35.1(34) . . .
37.3(33) . . .
35.5(31) . . .
31.4(29) . . .
33.7(30) . . .
40(4) . . .
29.9(30) . . .
32.7(30) . . .
29.6(28) . . .
37.4(32) . . .
31.4(31) . . .
33.7(31) . . .
33.3(30) . . .
34.4(31) . . .
32.2(30) . . .
31.1(31) . . .
43(4) . . .
27.5(28) . . .
35.1(32) . . .
34.6(32) . . .
39.7(35) . . .
28.0(28) . . .
32.5(30) . . .
33.2(30) . . .
38.0(34) . . .
32.7(30) . . .
37.7(33) . . .
37.3(31) . . .
39.1(33) . . .
30.8(30) . . .
34.4(32) . . .
40.6(34) . . .
42.1(34) . . .
25.9(27) . . .
34.4(33) . . .
35.7(33) . . .
31.2(30) . . .
32.6(30) . . .
38(4) . . .
30.9(33) . . .
29.6(29) . . .
31.1(30) . . .
31.9(30) . . .
30.7(30) . . .
31.0(30) . . .
31.4(30) . . .
34.9(31) . . .
37.4(32) . . .
34.7(30) . . .
37.7(33) . . .
35.5(31) . . .
34.6(31) . . .
39.0(32) . . .
35.4(31) . . .
34.0(34) . . .
27.2(27) . . .
37.2(32) . . .
28.4(28) . . .
34.3(32) . . .
31.0(31) . . .
39.8(34) . . .
34.5(31) . . .
36.8(31) . . .
32.6(31) . . .
30.4(33) . . .
29.1(28) . . .
33.4(30) . . .
38.3(33) . . .
34.3(31) . . .
35.7(33) . . .
30.8(29) . . .
39.0(32) . . .
37.8(32) . . .
33.7(31) . . .
35.5(33) . . .
36.3(32) . . .
33.0(30) . . .
34.3(31) . . .
33.0(31) . . .
37.5(33) . . .
31.5(31) . . .
35.0(32) . . .
36.5(32) . . .
35.4(33) . . .
31.4(29) . . .
37.4(34) . . .
44.3(35) . . .
26.5(26) . . .
30.6(29) . . .
38.8(35) . . .
41.1(33) . . .
35.4(31) . . .
37.9(32) . . .
34.2(33) . . .
30.8(30) . . .
32.8(30) . . .
28.9(28) . . .
39.9(34) . . .
29.5(30) . . .
34.8(31) . . .
38.6(32) . . .
39.0(33) . . .
26.4(28) . . .
38(4) . . .
33.8(31) . . .
34.1(31) . . .
40.8(33) . . .
33.1(30) . . .
34(4) . . .
32.4(31) . . .
31.7(30) . . .
36.7(32) . . .
30.6(31) . . .
33.6(33) . . .
35.1(33) . . .
34.3(30) . . .
36.3(31) . . .
31.8(30) . . .
34.2(32) . . .
35.2(32) . . .
30.2(29) . . .
34.5(31) . . .
35.5(31) . . .
26.6(27) . . .
30.6(32) . . .
31.0(29) . . .
37.4(32) . . .
36.4(33) . . .
49(4) . . .
39.5(33) . . .
28.0(27) . . .
31.3(31) . . .
30.7(30) . . .
34.2(32) . . .
36.9(32) . . .
29.9(29) . . .
27.0(27) . . .
31.6(30) . . .
31.4(30) . . .
28.1(28) . . .
38.1(32) . . .
36.3(33) . . .
31.0(31) . . .
38.2(34) . . .
39.8(32) . . .
32.8(30) . . .
33.7(30) . . .
28.7(29) . . .
32.4(31) . . .
30.2(29) . . .
44(4) . . .
33.7(30) . . .
40.0(35) . . .
32.5(29) . . .
40.9(33) . . .
34.9(31) . . .
32.4(34) . . .
34(4) . . .
40(4) . . .
34.1(32) . . .
45(4) . . .
38.4(33) . . .
33.2(32) . . .
43(4) . . .
39.8(33) . . .
38.5(33) . . .
40.3(34) . . .
35.4(33) . . .
35.1(32) . . .
25.6(26) . . .
30.0(28) . . .
30.8(31) . . .
46(4) . . .
43.3(35) . . .
29.9(29) . . .
35.8(31) . . .
34.2(31) . . .
45(4) . . .
42.3(35) . . .
39.9(33) . . .
38.1(32) . . .
42(4) . . .
39.7(34) . . .
37.2(32) . . .
37.7(32) . . .
32.0(30) . . .
33.4(30) . . .
31.6(31) . . .
38.9(33) . . .
33.5(31) . . .
34.3(31) . . .
44(4) . . .
38.6(34) . . .
29.0(28) . . .
39.5(32) . . .
30.7(31) . . .
30.1(28) . . .
32.0(32) . . .
29.4(29) . . .
33.7(30) . . .
37.7(33) . . .
33.4(32) . . .
35.3(33) . . .
33.7(31) . . .
35.1(30) . . .
33.1(30) . . .
39(4) . . .
39.2(35) . . .
36.5(31) . . .
37.7(33) . . .
34.6(31) . . .
37.6(33) . . .
32.9(30) . . .
35.8(31) . . .
37.2(32) . . .
32.1(33) . . .
36.2(35) . . .
28.5(29) . . .
40.7(34) . . .
32.9(30) . . .
30.1(27) . . .
31.7(29) . . .
42(4) . . .
31.8(29) . . .
35.5(32) . . .
32.7(32) . . .
36.1(34) . . .
36.3(32) . . .
35.3(31) . . .
41.9(34) . . .
36.9(33) . . .
29.9(31) . . .
37.1(34) . . .
48(4) . . .
27.2(28) . . .
34.3(32) . . .
35.5(35) . . .
37.4(34) . . .
36.4(31) . . .
32.3(32) . . .
34.0(32) . . .
38.9(33) . . .
32.7(30) . . .
37.8(32) . . .
33.7(32) . . .
39(4) . . .
34.1(31) . . .
33.2(30) . . .
33.7(30) . . .
44(4) . . .
39.0(33) . . .
35.7(34) . . .
32.3(30) . . .
38.5(32) . . .
35.5(33) . . .
28.0(32) . . .
37.0(35) . . .
31.1(28) . . .
34.6(33) . . .
37.4(32) . . .
42(4) . . .
36.5(32) . . .
32.1(30) . . .
25.3(26) . . .
38.6(33) . . .
39.0(34) . . .
39.5(33) . . .
33.2(30) . . .
43.2(34) . . .
33.8(31) . . .
35.1(32) . . .
36.8(31) . . .
33.0(30) . . .
41(4) . . .
29.0(29) . . .
30.6(31) . . .
42(4) . . .
32.0(30) . . .
29.8(29) . . .
38.4(33) . . .
39(4) . . .
33.3(32) . . .
36.8(32) . . .
36.0(32) . . .
35.4(33) . . .
38.9(35) . . .
31.1(28) . . .
47(4) . . .
36.1(32) . . .
35.2(32) . . .
33.0(30) . . .
42.8(35) . . .
33.8(30) . . .
34.8(34) . . .
39.6(35) . . .
37.1(34) . . .
32.6(32) . . .
34.4(30) . . .
41.4(34) . . .
41(4) . . .
27.1(28) . . .
34.8(31) . . .
35.8(32) . . .
32.7(32) . . .
29.1(30) . . .
26.5(27) . . .
28.6(29) . . .
33.6(29) . . .
29.2(29) . . .
34.5(34) . . .
30.6(29) . . .
29.0(29) . . .
40.1(33) . . .
33.3(31) . . .
32.4(32) . . .
37.4(33) . . .
28.4(27) . . .
34.9(31) . . .
42.0(34) . . .
41.2(35) . . .
34.0(30) . . .
32.4(30) . . .
29.3(28) . . .
31.3(29) . . .
30.6(29) . . .
32.5(31) . . .
42.3(34) . . .
32.7(31) . . .
36.0(32) . . .
32.5(30) . . .
46(4) . . .
36.3(31) . . .
36.1(32) . . .
28.6(29) . . .
44(4) . . .
34.4(31) . . .
34.6(30) . . .
35.3(32) . . .
35.7(32) . . .
35.4(34) . . .
27.3(28) . . .
32.4(29) . . .
33.9(33) . . .
37.6(35) . . .
34.8(32) . . .
26.7(27) . . .
21.6(24) . . .
38.8(34) . . .
33.6(30) . . .
33.9(30) . . .
35.6(33) . . .
45.4(35) . . .
40(4) . . .
42(4) . . .
36.6(32) . . .
32.3(30) . . .
32.1(30) . . .
36.4(32) . . .
33.7(30) . . .
39(4) . . .
37.0(32) . . .
35.6(31) . . .
32.0(31) . . .
35.1(34) . . .
27.9(28) . . .
37.4(32) . . .
39.5(34) . . .
33.1(30) . . .
38.9(35) . . .
44(4) . . .
33.5(30) . . .
31.1(30) . . .
27.4(28) . . .
33.3(33) . . .
40.2(34) . . .
33.2(30) . . .
33.0(30) . . .
30.9(30) . . .
32.1(32) . . .
27.1(28) . . .
34.9(31) . . .
38.6(34) . . .
34.2(33) . . .
40.0(35) . . .
35.5(32) . . .
38.2(33) . . .
39.2(34) . . .
33.6(31) . . .
31.3(31) . . .
35.3(32) . . .
41.8(34) . . .
31.1(29) . . .
35.2(32) . . .
35.2(30) . . .
33.1(29) . . .
45(4) . . .
38.6(34) . . .
37.1(34) . . .
42(4) . . .
38.7(34) . . .
35.7(32) . . .
43(4) . . .
31.1(30) . . .
41(4) . . .
39.9(33) . . .
40.9(33) . . .
38.1(33) . . .
31.6(31) . . .
36.7(33) . . .
38.5(33) . . .
42.7(34) . . .
32.5(30) . . .
33.7(33) . . .
36.0(32) . . .
36.9(32) . . .
34.1(31) . . .
28.8(28) . . .
37.9(34) . . .
44(4) . . .
33.7(30) . . .
36.6(31) . . .
33.8(31) . . .
29.7(30) . . .
39.2(35) . . .
22.5(25) . . .
32.2(29) . . .
35.3(31) . . .
34.7(30) . . .
29.1(28) . . .
45.9(35) . . .
29.6(29) . . .
33.8(32) . . .
36.4(33) . . .
37.8(34) . . .
36.5(31) . . .
37.0(34) . . .
33.7(34) . . .
31.4(32) . . .
29.0(28) . . .
35.8(32) . . .
38.8(33) . . .
37.3(34) . . .
30.4(29) . . .
27.8(27) . . .
47(4) . . .
40.5(34) . . .
39(4) . . .
41(4) . . .
33.5(30) . . .
33.7(30) . . .
39.3(33) . . .
35.9(33) . . .
34.2(31) . . .
35.5(31) . . .
28.1(28) . . .
30.1(29) . . .
32.4(32) . . .
34.4(31) . . .
32.2(29) . . .
43.3(34) . . .
33.9(30) . . .
46(4) . . .
31.4(31) . . .
35.5(31) . . .
45(4) . . .
39.9(34) . . .
34.5(34) . . .
26.3(27) . . .
36.7(32) . . .
31.1(28) . . .
35.1(32) . . .
27.3(29) . . .
36.4(33) . . .
27.6(27) . . .
37.7(35) . . .
43(4) . . .
31.6(31) . . .
30.4(29) . . .
38.3(32) . . .
24.0(25) . . .
33.0(31) . . .
38(4) . . .
32.0(30) . . .
35.7(31) . . .
29.7(30) . . .
23.4(26) . . .
32.8(32) . . .
30.9(29) . . .
32.5(29) . . .
33.3(33) . . .
31.4(31) . . .
31.1(29) . . .
37.3(34) . . .
33.8(30) . . .
33.5(31) . . .
36.0(33) . . .
30.5(28) . . .
39.4(34) . . .
36.2(32) . . .
27.8(29) . . .
33.9(34) . . .
37.1(33) . . .
31.2(29) . . .
35.7(31) . . .
29.9(30) . . .
29.3(29) . . .
33.5(33) . . .
30.3(28) . . .
37.9(32) . . .
44(4) . . .
37.1(33) . . .
37.0(33) . . .
37.8(33) . . .
35.2(31) . . .
31.9(30) . . .
35.0(34) . . .
35.0(31) . . .
36.6(31) . . .
45.2(35) . . .
32.6(30) . . .
29.1(30) . . .
38.0(33) . . .
39.5(33) . . .
30.9(29) . . .
29.7(29) . . .
41(4) . . .
33.9(32) . . .
33.0(30) . . .
34.8(31) . . .
31.3(29) . . .
35.7(33) . . .
36.4(32) . . .
26.6(28) . . .
30.9(30) . . .
36.7(31) . . .
41.0(35) . . .
35.7(31) . . .
37.2(32) . . .
34.3(30) . . .
31.4(30) . . .
32.2(30) . . .
40.3(33) . . .
37.2(32) . . .
36.7(33) . . .
36.4(32) . . .
33.8(31) . . .
37.7(33) . . .
38.3(32) . . .
29.9(29) . . .
33.9(33) . . .
37.7(33) . . .
32.1(30) . . .
31.2(29) . . .
40.4(34) . . .
33.8(33) . . .
45(4) . . .
30.3(30) . . .
25.3(27) . . .
33.9(32) . . .
31.9(31) . . .
43(4) . . .
38.3(33) . . .
29.8(28) . . .
33.3(32) . . .
33.4(33) . . .
36.3(33) . . .
29.9(30) . . .
47(4) . . .
31.1(28) . . .
31.8(30) . . .
35(4) . . .
34.9(31) . . .
29.5(28) . . .
31.2(29) . . .
41(4) . . .
40.0(34) . . .
38.5(33) . . .
29.7(28) . . .
36.6(33) . . .
35.7(33) . . .
29.2(28) . . .
30.3(29) . . .
29.3(28) . . .
32.9(30) . . .
32.1(31) . . .
29.9(28) . . .
39.4(32) . . .
30.2(29) . . .
29.7(29) . . .
39.9(35) . . .
38.9(33) . . .
44(4) . . .
33.2(31) . . .
29.3(28) . . .
39.4(34) . . .
32.0(30) . . .
39.0(32) . . .
27.0(28) . . .
37(4) . . .
36.9(32) . . .
46(4) . . .
38.5(32) . . .
26.1(27) . . .
43(4) . . .
32.8(31) . . .
27.4(27) . . .
36.8(31) . . .
35.7(32) . . .
31.5(30) . . .
33.8(30) . . .
43.0(34) . . .
35.7(32) . . .
32.0(30) . . .
40.1(35) . . .
35.2(31) . . .
37.1(32) . . .
36.5(31) . . .
27.4(27) . . .
35.1(33) . . .
32.2(31) . . .
40.3(33) . . .
39.0(32) . . .
31.9(30) . . .
28.4(28) . . .
45(4) . . .
37.0(31) . . .
34.5(32) . . .
43(4) . . .
41(4) . . .
36.4(34) . . .
34.7(31) . . .
33.7(31) . . .
29.7(28) . . .
31.3(29) . . .
44(4) . . .
36.3(31) . . .
30.7(30) . . .
32.8(31) . . .
39.2(34) . . .
31.4(31) . . .
29.5(28) . . .
30.1(29) . . .
36.3(32) . . .
35.8(32) . . .
30.5(29) . . .
33.6(31) . . .
27.3(28) . . .
38(4) . . .
37.5(33) . . .
49(4) . . .
34.9(31) . . .
30.5(32) . . .
39.2(34) . . .
32.0(29) . . .
27.5(27) . . .
33.2(30) . . .
39.7(34) . . .
43(4) . . .
52(4) . . .
47(4) . . .
34.0(30) . . .
38.7(34) . . .
39(4) . . .
32.7(32) . . .
37.2(32) . . .
34.6(30) . . .
34.0(30) . . .
42(4) . . .
38.2(35) . . .
38.2(32) . . .
35.5(32) . . .
40.0(32) . . .
46(4) . . .
36.9(32) . . .
36.7(32) . . .
35.3(30) . . .
32.0(30) . . .
40(4) . . .
29.8(30) . . .
36.6(31) . . .
32.3(29) . . .
35.7(34) . . .
33.0(31) . . .
35.5(33) . . .
33.5(30) . . .
37.9(32) . . .
34.3(32) . . .
37.4(32) . . .
44(4) . . .
37.7(33) . . .
36.8(35) . . .
34.5(32) . . .
36.2(33) . . .
33.2(32) . . .
34.0(30) . . .
31.7(31) . . .
31.9(31) . . .
31.0(30) . . .
32.9(30) . . .
32.8(30) . . .
35.9(34) . . .
39.9(35) . . .
44.1(35) . . .
39.0(33) . . .
29.1(28) . . .
30.5(29) . . .
33.4(32) . . .
35.2(33) . . .
29.7(29) . . .
28.6(28) . . .
29.7(29) . . .
33.8(34) . . .
34.6(32) . . .
38.5(34) . . .
38.3(32) . . .
36.0(32) . . .
34.4(33) . . .
33.3(31) . . .
35.4(31) . . .
35.0(31) . . .
39.7(33) . . .
35.3(32) . . .
31.6(29) . . .
29.4(28) . . .
31.2(29) . . .
32.7(30) . . .
35.1(31) . . .
32.7(32) . . .
28.2(28) . . .
40.7(34) . . .
32.0(30) . . .
31.1(31) . . .
34.4(32) . . .
32.6(30) . . .
36.0(33) . . .
24.6(26) . . .
42(4) . . .
29.6(28) . . .
36.8(32) . . .
36.7(32) . . .
32.2(30) . . .
34.7(32) . . .
32.3(30) . . .
22.8(27) . . .
33.3(33) . . .
32.4(32) . . .
34.0(31) . . .
35.5(32) . . .
45(4) . . .
31.4(30) . . .
43(4) . . .
37.5(35) . . .
34.8(32) . . .
43.2(35) . . .
44(4) . . .
33.8(32) . . .
43(4) . . .
41.1(35) . . .
32.8(30) . . .
30.9(30) . . .
39(4) . . .
35.7(34) . . .
30.5(30) . . .
33.8(30) . . .
30.1(30) . . .
35.0(34) . . .
45(4) . . .
25.1(26) . . .
40.3(34) . . .
36.7(32) . . .
43(4) . . .
39.4(34) . . .
28.8(28) . . .
34.6(31) . . .
40.3(34) . . .
31.0(30) . . .
34.2(32) . . .
32.0(30) . . .
27.6(27) . . .
30.1(29) . . .
41(4) . . .
38.7(33) . . .
39.5(33) . . .
35.9(32) . . .
29.8(30) . . .
28.3(30) . . .
34.4(32) . . .
40.3(33) . . .
32.1(30) . . .
22.5(24) . . .
24.9(26) . . .
31.9(32) . . .
39.2(32) . . .
37.7(34) . . .
36.3(35) . . .
36.9(34) . . .
39.9(35) . . .
33.2(30) . . .
36.4(34) . . .
32.6(31) . . .
33.1(30) . . .
29.6(28) . . .
33.1(32) . . .
33.6(32) . . .
27.3(27) . . .
37.5(34) . . .
25.8(26) . . .
31.9(29) . . .
32.9(30) . . .
41(4) . . .
39.7(35) . . .
36.1(31) . . .
40.2(33) . . .
32.4(30) . . .
30.4(30) . . .
31.9(30) . . .
35.5(31) . . .
37.5(32) . . .
30.3(28) . . .
37.3(33) . . .
36.7(33) . . .
36.6(32) . . .
40.9(33) . . .
37.0(33) . . .
37.5(33) . . .
38.1(34) . . .
27.0(27) . . .
34.8(32) . . .
29.5(30) . . .
31.9(32) . . .
32.7(30) . . .
33.6(30) . . .
35.8(34) . . .
40.1(34) . . .
40.6(34) . . .
32.6(30) . . .
34.5(31) . . .
29.0(28) . . .
36.5(33) . . .
26.7(30) . . .
33.1(31) . . .
34.4(31) . . .
27.8(29) . . .
32.5(31) . . .
40.8(34) . . .
30.9(29) . . .
37.5(32) . . .
40.0(34) . . .
33.8(30) . . .
41(4) . . .
36.4(32) . . .
36.8(31) . . .
35.0(32) . . .
31.0(29) . . .
36.7(32) . . .
27.0(27) . . .
31.3(30) . . .
40.1(35) . . .
33.7(31) . . .
34.6(32) . . .
36.0(31) . . .
29.5(28) . . .
31.0(30) . . .
31.1(32) . . .
32.1(30) . . .
41.0(35) . . .
34.1(31) . . .
35.4(33) . . .
34.2(32) . . .
28.8(29) . . .
34.7(30) . . .
29.5(28) . . .
30.6(30) . . .
34.0(31) . . .
35.1(33) . . .
42.3(34) . . .
40.4(33) . . .
41.0(33) . . .
38.0(34) . . .
32.3(30) . . .
31.7(29) . . .
31.5(30) . . .
29.3(28) . . .
31.9(31) . . .
32.4(30) . . .
25.0(26) . . .
34.7(32) . . .
21.6(23) . . .
28.9(28) . . .
42.7(35) . . .
34.7(31) . . .
40.0(33) . . .
38.5(32) . . .
44(4) . . .
35.5(31) . . .
36.4(31) . . .
32.2(31) . . .
33.9(31) . . .
36.4(31) . . .
35.1(31) . . .
32.7(30) . . .
26.7(29) . . .
36.3(35) . . .
38.1(35) . . .
29.4(30) . . .
31.3(29) . . .
33.0(31) . . .
35.7(34) . . .
36.0(33) . . .
42.9(35) . . .
33.1(29) . . .
31.3(31) . . .
31.3(30) . . .
34.6(30) . . .
40.3(33) . . .
38.4(32) . . .
41.4(35) . . .
42(4) . . .
37.9(33) . . .
33.1(30) . . .
36.0(31) . . .
40.6(33) . . .
38.9(35) . . .
33.5(31) . . .
39.9(33) . . .
45(4) . . .
39.4(33) . . .
36.9(33) . . .
30.7(30) . . .
33.0(30) . . .
29.8(29) . . .
36.9(33) . . .
34.3(32) . . .
32.8(30) . . .
31.1(30) . . .
35.5(32) . . .
25.0(28) . . .
30.2(32) . . .
33.3(32) . . .
36.6(31) . . .
38.1(34) . . .
27.9(28) . . .
35.9(30) . . .
40.6(33) . . .
42.9(34) . . .
32.0(30) . . .
27.7(27) . . .
47(4) . . .
35.5(31) . . .
43.2(34) . . .
38.8(33) . . .
36.9(34) . . .
29.4(29) . . .
35.8(32) . . .
28.4(28) . . .
39.0(33) . . .
32.4(31) . . .
37.6(33) . . .
36.3(31) . . .
33.1(31) . . .
40.9(34) . . .
41(4) . . .
30.6(28) . . .
35.9(31) . . .
36.4(31) . . .
37.6(32) . . .
32.5(32) . . .
36.3(34) . . .
31.5(29) . . .
27.7(28) . . .
28.2(28) . . .
32.7(33) . . .
27.6(28) . . .
32.1(29) . . .
30.5(28) . . .
36.2(33) . . .
42(4) . . .
38.6(33) . . .
42.0(34) . . .
33.4(31) . . .
35.3(32) . . .
34.3(32) . . .
31.9(32) . . .
32.2(29) . . .
37.3(33) . . .
34.6(31) . . .
33.8(32) . . .
40.3(35) . . .
29.5(28) . . .
33.6(32) . . .
43(4) . . .
34.8(32) . . .
43(4) . . .
34.3(31) . . .
38.1(32) . . .
34.9(33) . . .
40.0(34) . . .
33.7(30) . . .
38.2(32) . . .
36.1(34) . . .
20.4(24) . . .
35.0(33) . . .
38.8(34) . . .
34.7(30) . . .
36.0(34) . . .
41(4) . . .
33.1(31) . . .
41.4(34) . . .
35.0(31) . . .
27.2(27) . . .
37.1(34) . . .
37.9(34) . . .
39.9(33) . . .
33.2(30) . . .
31.8(30) . . .
41(4) . . .
32.9(33) . . .
29.9(28) . . .
26.1(26) . . .
30.0(30) . . .
29.6(30) . . .
30.6(29) . . .
43.9(34) . . .
37.5(32) . . .
36.5(32) . . .
35.9(31) . . .
46(4) . . .
41.0(33) . . .
28.6(28) . . .
33.6(32) . . .
33.3(32) . . .
32.6(32) . . .
29.0(28) . . .
26.1(27) . . .
41.8(35) . . .
37.0(32) . . .
38.4(35) . . .
34.7(31) . . .
33.3(32) . . .
29.1(31) . . .
33.7(35) . . .
27.5(28) . . .
41.2(33) . . .
36.4(33) . . .
36.8(34) . . .
37.1(32) . . .
35.2(32) . . .
32.6(30) . . .
35.9(31) . . .
36.5(32) . . .
35.0(31) . . .
37.5(32) . . .
34.7(31) . . .
41.2(35) . . .
39.4(35) . . .
36.3(33) . . .
35.0(31) . . .
37.1(32) . . .
33.1(31) . . .
34.8(33) . . .
40(4) . . .
33.2(30) . . .
34.6(31) . . .
43(4) . . .
31.2(31) . . .
29.1(28) . . .
37.4(32) . . .
35.0(30) . . .
30.1(28) . . .
30.5(30) . . .
31.3(30) . . .
31.6(30) . . .
33.5(31) . . .
29.3(29) . . .
36.0(34) . . .
35.4(34) . . .
33.0(30) . . .
35.2(31) . . .
31.6(31) . . .
34.1(32) . . .
35.5(32) . . .
31.6(30) . . .
29.7(28) . . .
25.3(27) . . .
27.3(29) . . .
22.7(27) . . .
43.6(34) . . .
32.8(31) . . .
30.3(28) . . .
37.6(35) . . .
31.7(29) . . .
38.0(32) . . .
30.6(29) . . .
32.0(29) . . .
31.9(30) . . .
27.2(27) . . .
32.0(30) . . .
39.6(33) . . .
38.5(34) . . .
34.2(31) . . .
36.4(33) . . .
43.0(34) . . .
32.7(31) . . .
42(4) . . .
40.7(35) . . .
35.2(31) . . .
36.8(32) . . .
43(4) . . .
31.8(32) . . .
26.6(28) . . .
33.7(30) . . .
34.8(31) . . .
33.4(32) . . .
35.4(33) . . .
42(4) . . .
39.0(33) . . .
37.6(32) . . .
32.7(29) . . .
36.1(33) . . .
37(4) . . .
30.9(29) . . .
37.5(33) . . .
29.4(28) . . .
31.9(31) . . .
35.4(33) . . .
26.8(27) . . .
30.3(28) . . .
34.5(33) . . .
32.2(29) . . .
44(4) . . .
27.2(27) . . .
36.2(33) . . .
38.8(34) . . .
36.5(35) . . .
29.6(30) . . .
36.0(31) . . .
30.9(31) . . .
40(4) . . .
34.6(34) . . .
27.5(29) . . .
28.5(28) . . .
39.3(33) . . .
34.7(32) . . .
31.8(30) . . .
35.9(34) . . .
40.3(33) . . .
38.4(33) . . .
34.0(31) . . .
36.0(32) . . .
42(4) . . .
40.2(33) . . .
37.2(34) . . .
34.7(33) . . .
39.0(34) . . .
23.6(26) . . .
35.8(31) . . .
30.1(29) . . .
35.9(32) . . .
40.1(34) . . .
33.2(32) . . .
30.8(28) . . .
30.9(30) . . .
35.7(32) . . .
33.3(30) . . .
41.3(34) . . .
34.7(32) . . .
36.7(32) . . .
39(4) . . .
36.0(33) . . .
34.2(31) . . .
28.3(28) . . .
35.9(32) . . .
33.6(34) . . .
26.9(27) . . .
35.3(31) . . .
30.8(30) . . .
38.0(33) . . .
33.9(32) . . .
30.9(28) . . .
35.5(31) . . .
36.8(32) . . .
29.7(29) . . .
34.9(33) . . .
34.5(32) . . .
33.0(30) . . .
35.7(31) . . .
29.7(30) . . .
36.3(35) . . .
32.9(32) . . .
25.7(27) . . .
29.8(28) . . .
30.0(29) . . .
33.3(31) . . .
28.7(28) . . .
36.1(32) . . .
33.8(31) . . .
29.1(28) . . .
33.8(31) . . .
32.2(29) . . .
30.5(28) . . .
36.4(32) . . .
35.2(30) . . .
43.0(34) . . .
43.3(34) . . .
37.3(32) . . .
32.4(30) . . .
29.4(29) . . .
23.4(26) . . .
29.6(29) . . .
37.2(33) . . .
27.9(27) . . .
23.9(25) . . .
33.7(31) . . .
33.0(30) . . .
33.2(30) . . .
34.2(31) . . .
32.0(31) . . .
37.0(33) . . .
33.5(30) . . .
33.0(31) . . .
40(4) . . .
37(4) . . .
34.7(33) . . .
36.0(31) . . .
32.0(31) . . .
50(4) . . .
35.5(32) . . .
34.9(31) . . .
35.3(31) . . .
31.6(30) . . .
30.7(31) . . .
33.4(32) . . .
32.6(30) . . .
36.5(31) . . .
35.4(32) . . .
37.7(34) . . .
34.4(30) . . .
38.7(35) . . .
38.3(32) . . .
34.0(30) . . .
28.2(29) . . .
27.2(28) . . .
33.2(32) . . .
38.3(32) . . .
36.6(33) . . .
30.6(30) . . .
41(4) . . .
33.6(33) . . .
30.7(29) . . .
40(4) . . .
37.3(34) . . .
41.5(34) . . .
33.1(30) . . .
35.7(31) . . .
35.8(32) . . .
33.9(31) . . .
25.5(25) . . .
30.0(28) . . .
36.6(31) . . .
38.6(33) . . .
36.3(31) . . .
32.1(29) . . .
37.4(32) . . .
31.6(30) . . .
40.9(34) . . .
35.9(32) . . .
36.3(32) . . .
41.0(35) . . .
28.8(28) . . .
26.7(27) . . .
32.8(33) . . .
32.8(31) . . .
29.9(29) . . .
40.6(33) . . .
36.0(30) . . .
28.7(27) . . .
36.3(33) . . .
37.0(32) . . .
34.2(31) . . .
43.4(34) . . .
38.0(33) . . .
37.0(33) . . .
28.1(28) . . .
40.4(33) . . .
27.6(27) . . .
36.2(32) . . .
38.4(32) . . .
34.6(31) . . .
33.2(32) . . .
31.3(30) . . .
40(4) . . .
33.3(32) . . .
31.0(29) . . .
34.0(31) . . .
33.3(30) . . .
31.5(31) . . .
35.4(31) . . .
34.2(30) . . .
33.4(32) . . .
37.9(34) . . .
37.2(32) . . .
32.2(29) . . .
33.0(30) . . .
40.1(35) . . .
34.5(33) . . .
32.6(32) . . .
33.7(30) . . .
39.9(33) . . .
41.9(35) . . .
29.6(29) . . .
32.9(32) . . .
31.6(31) . . .
26.0(26) . . .
31.9(30) . . .
34.1(32) . . .
36.4(32) . . .
28.7(27) . . .
40.0(33) . . .
40.0(34) . . .
35.5(34) . . .
37.3(34) . . .
46(4) . . .
37.6(33) . . .
29.5(29) . . .
32.3(31) . . .
38.9(32) . . .
36.6(32) . . .
33.0(30) . . .
36.0(32) . . .
39.9(35) . . .
41.3(35) . . .
32.9(30) . . .
34.4(32) . . .
32.9(31) . . .
23.5(26) . . .
35.1(31) . . .
28.4(28) . . .
37.0(32) . . .
32.8(32) . . .
34.5(31) . . .
42.0(34) . . .
44(4) . . .
44(4) . . .
35.2(31) . . .
39.1(33) . . .
40.4(33) . . .
36.7(31) . . .
34.5(34) . . .
33.8(31) . . .
36.8(32) . . .
31.3(29) . . .
36.2(31) . . .
32.8(31) . . .
35.7(32) . . .
35.4(32) . . .
32.4(31) . . .
32.2(29) . . .
31.0(30) . . .
22.4(25) . . .
30.8(30) . . .
34.9(31) . . .
39.5(33) . . .
29.8(29) . . .
37.8(34) . . .
25.6(27) . . .
31.2(29) . . .
33.1(30) . . .
30.3(29) . . .
33.2(34) . . .
27.9(29) . . .
38.3(34) . . .
36.5(31) . . .
30.2(28) . . .
35.3(33) . . .
30.2(29) . . .
35.4(32) . . .
35.9(32) . . .
32.1(30) . . .
34.3(32) . . .
33.7(31) . . .
42.5(34) . . .
36.8(32) . . .
33.4(32) . . .
35.3(34) . . .
36.2(34) . . .
32.0(29) . . .
41.4(34) . . .
34.3(32) . . .
38.1(35) . . .
34.6(32) . . .
30.9(29) . . .
34.6(32) . . .
41.8(35) . . .
34.6(32) . . .
31.8(29) . . .
35.9(31) . . .
35.4(32) . . .
36.8(32) . . .
31.2(30) . . .
34.7(31) . . .
32.4(30) . . .
37.6(33) . . .
28.4(28) . . .
36.0(34) . . .
30.9(29) . . .
35.8(31) . . .
32.3(30) . . .
37.2(34) . . .
40.4(34) . . .
36.8(32) . . .
33.4(31) . . .
34.1(30) . . .
34.8(33) . . .
33.3(34) . . .
35.2(31) . . .
38.8(32) . . .
31.2(32) . . .
38.2(35) . . .
35.7(32) . . .
36.2(31) . . .
27.8(27) . . .
30.5(29) . . .
31.1(29) . . .
28.0(28) . . .
35.0(31) . . .
32.8(30) . . .
40.7(34) . . .
38(4) . . .
28.7(30) . . .
29.8(29) . . .
34.3(32) . . .
36.3(32) . . .
36.7(34) . . .
37.3(33) . . .
35.6(31) . . .
35.1(32) . . .
37.2(32) . . .
32.4(31) . . .
32.3(30) . . .
43.0(34) . . .
29.5(28) . . .
26.9(29) . . .
30.6(31) . . .
38.5(32) . . .
28.3(28) . . .
40.8(35) . . .
42(4) . . .
30.5(28) . . .
30.4(29) . . .
35.8(31) . . .
27.6(28) . . .
40(4) . . .
32.2(32) . . .
36.0(32) . . .
42.0(33) . . .
30.7(29) . . .
33.1(31) . . .
36.8(34) . . .
36.6(31) . . .
34.3(30) . . .
40.7(34) . . .
36.6(34) . . .
35.0(32) . . .
28.3(28) . . .
32.1(29) . . .
29.3(29) . . .
34.0(32) . . .
37.6(33) . . .
35.5(30) . . .
33.5(31) . . .
34.8(32) . . .
34.6(35) . . .
31.5(29) . . .
34.9(31) . . .
35.1(30) . . .
35.2(33) . . .
34.2(32) . . .
37.9(34) . . .
28.6(28) . . .
29.2(28) . . .
30.5(31) . . .
41(4) . . .
36.2(31) . . .
32.2(31) . . .
44.3(34) . . .
33.6(30) . . .
33.0(30) . . .
34.6(31) . . .
38.3(32) . . .
25.1(28) . . .
35.3(35) . . .
37.5(33) . . .
39.4(33) . . .
35.8(31) . . .
26.7(29) . . .
36.7(34) . . .
38.4(33) . . .
38.4(33) . . .
32.3(30) . . .
37.4(33) . . .
36.5(33) . . .
32.3(32) . . .
40.6(34) . . .
41.7(33) . . .
36.4(32) . . .
29.0(28) . . .
37.7(34) . . .
31.7(31) . . .
33.2(30) . . .
21.9(24) . . .
31.5(33) . . .
42(4) . . .
37.2(32) . . .
29.0(28) . . .
45(4) . . .
35.3(33) . . .
35.7(32) . . .
31.9(30) . . .
38.0(32) . . .
34.9(32) . . .
31.7(33) . . .
38.2(34) . . .
38.1(32) . . .
32.3(29) . . .
40.2(34) . . .
39(4) . . .
32.9(30) . . .
29.7(28) . . .
32.2(30) . . .
31.6(31) . . .
30.2(29) . . .
31.5(31) . . .
31.6(30) . . .
32.5(31) . . .
36(4) . . .
33.1(30) . . .
34.9(32) . . .
33.4(30) . . .
35.3(31) . . .
31.7(31) . . .
34.9(32) . . .
42(4) . . .
27.8(28) . . .
35.2(31) . . .
34.5(31) . . .
28.9(29) . . .
29.4(29) . . .
32.4(30) . . .
37.5(33) . . .
29.8(33) . . .
32.7(32) . . .
35.2(32) . . .
28.4(28) . . .
30.9(29) . . .
32.2(29) . . .
34.3(31) . . .
35.4(32) . . .
35.9(32) . . .
44(4) . . .
38.0(33) . . .
34.1(32) . . .
33.1(30) . . .
34.7(30) . . .
29.7(28) . . .
31.9(30) . . .
32.3(30) . . .
39.7(32) . . .
35.4(31) . . .
30.3(28) . . .
32.5(31) . . .
30.0(29) . . .
26.8(27) . . .
38.0(33) . . .
39(4) . . .
28.9(30) . . .
40.5(34) . . .
30.7(29) . . .
35.3(31) . . .
36.5(32) . . .
36.7(34) . . .
38.4(33) . . .
31.3(29) . . .
35.8(32) . . .
34.0(32) . . .
41(4) . . .
32.2(30) . . .
40.5(33) . . .
38.5(32) . . .
31.9(29) . . .
32.2(30) . . .
39.7(34) . . .
31.4(29) . . .
29.1(30) . . .
29.8(31) . . .
30.7(28) . . .
29.8(28) . . .
29.0(28) . . .
30.4(30) . . .
40.2(35) . . .
31.6(30) . . .
40(4) . . .
32.5(30) . . .
29.9(31) . . .
26.8(27) . . .
44(4) . . .
39.5(32) . . .
41.3(34) . . .
28.6(28) . . .
41(4) . . .
42(4) . . .
37.1(34) . . .
37.4(31) . . .
30.7(30) . . .
40(4) . . .
31.0(28) . . .
37.1(31) . . .
35.8(31) . . .
31.0(29) . . .
36.8(33) . . .
37.8(32) . . .
30.0(28) . . .
35.1(31) . . .
28.9(27) . . .
34.2(32) . . .
37.5(33) . . .
36.1(31) . . .
30.5(29) . . .
39.5(35) . . .
35.7(33) . . .
37.2(32) . . .
33.6(30) . . .
36.6(32) . . .
29.3(29) . . .
37.5(34) . . .
40(4) . . .
22.6(25) . . .
35.2(31) . . .
41(4) . . .
31.5(30) . . .
30.1(30) . . .
39.2(33) . . .
35.7(32) . . .
39(4) . . .
38(4) . . .
37.4(33) . . .
32.8(30) . . .
30.7(29) . . .
33.6(30) . . .
45(4) . . .
35.7(32) . . .
25.9(27) . . .
40.1(34) . . .
35.7(34) . . .
34.0(33) . . .
33.6(30) . . .
39.8(33) . . .
36(4) . . .
37(4) . . .
33.8(31) . . .
35.7(32) . . .
37.1(32) . . .
32.5(30) . . .
28.3(28) . . .
33.9(31) . . .
36.8(32) . . .
28.5(28) . . .
32.0(32) . . .
35.0(34) . . .
40.6(35) . . .
39.1(33) . . .
37.2(33) . . .
30.0(29) . . .
30.1(30) . . .
38.5(35) . . .
31.3(29) . . .
39.5(32) . . .
38.0(33) . . .
35.5(34) . . .
30.3(32) . . .
31.5(30) . . .
34.7(31) . . .
38.9(34) . . .
37.9(34) . . .
37.8(33) . . .
28.9(29) . . .
36.7(31) . . .
35.9(35) . . .
35.9(34) . . .
32.9(30) . . .
42.0(34) . . .
36.4(34) . . .
37.2(33) . . .
36.3(32) . . .
40.2(33) . . .
28.5(28) . . .
38.6(33) . . .
37.4(33) . . .
40.7(33) . . .
35.1(31) . . .
28.4(29) . . .
40.6(34) . . .
36.1(32) . . .
35.5(34) . . .
34.0(31) . . .
34.2(30) . . .
44(4) . . .
32.9(30) . . .
33.9(30) . . .
38.6(32) . . .
44.8(35) . . .
37.7(32) . . .
28.9(28) . . .
29.7(30) . . .
32.1(30) . . .
33.7(30) . . .
38.1(33) . . .
31.3(31) . . .
33.8(31) . . .
31.9(29) . . .
32.9(30) . . .
32.1(30) . . .
34.8(33) . . .
32.0(30) . . .
32.0(30) . . .
34.0(31) . . .
34.8(30) . . .
39.4(32) . . .
38.6(33) . . .
45.6(35) . . .
25.9(27) . . .
34.8(33) . . .
39(4) . . .
34.0(30) . . .
43.3(34) . . .
39.8(33) . . .
34.6(31) . . .
25.9(26) . . .
37.1(32) . . .
35.0(31) . . .
34.1(31) . . .
32.8(31) . . .
34.2(32) . . .
32.9(31) . . .
41.3(34) . . .
40.0(35) . . .
28.7(28) . . .
34.2(31) . . .
35.9(32) . . .
35.6(31) . . .
39.7(34) . . .
26.3(27) . . .
36.2(32) . . .
38.3(33) . . .
33.2(31) . . .
27.4(28) . . .
39(4) . . .
35.6(32) . . .
44(4) . . .
34.2(31) . . .
36.2(33) . . .
30.6(29) . . .
38.0(34) . . .
32.4(31) . . .
30.0(29) . . .
33.3(31) . . .
29.2(29) . . .
30.6(31) . . .
30.6(28) . . .
40.4(33) . . .
38.3(33) . . .
32.9(35) . . .
34.4(32) . . .
43(4) . . .
40.6(33) . . .
37.9(32) . . .
30.2(32) . . .
31.4(31) . . .
34.7(31) . . .
36.6(32) . . .
37.3(33) . . .
31.0(31) . . .
26.8(28) . . .
28.8(28) . . .
31.4(29) . . .
35.2(33) . . .
30.2(29) . . .
33.5(31) . . .
29.2(28) . . .
27.8(27) . . .
31.9(31) . . .
32.9(32) . . .
31.0(30) . . .
39.1(33) . . .
37.1(32) . . .
36.7(32) . . .
40.5(35) . . .
29.5(28) . . .
35.1(30) . . .
35.2(31) . . .
32.9(31) . . .
35.3(32) . . .
35.8(32) . . .
27.6(27) . . .
34.6(33) . . .
43(4) . . .
37.7(33) . . .
31.3(28) . . .
42.8(34) . . .
34.7(31) . . .
35.1(32) . . .
31.7(31) . . .
31.8(30) . . .
39.8(33) . . .
42(4) . . .
35.5(33) . . .
30.3(30) . . .
34.1(30) . . .
34.9(31) . . .
39.4(34) . . .
30.8(30) . . .
38.4(33) . . .
27.6(27) . . .
36.8(32) . . .
29.6(28) . . .
37.0(34) . . .
30.4(29) . . .
37.5(32) . . .
39.2(32) . . .
33.4(33) . . .
38(4) . . .
37.3(32) . . .
39.3(33) . . .
48(4) . . .
32.8(30) . . .
34.3(31) . . .
35.5(32) . . .
33.7(30) . . .
40.0(34) . . .
32.1(30) . . .
35.2(33) . . .
36.3(32) . . .
32.1(29) . . .
36.1(31) . . .
38.1(33) . . .
28.0(29) . . .
37.5(34) . . .
33.6(30) . . .
32.1(33) . . .
24.0(26) . . .
30.0(30) . . .
24.4(25) . . .
38.0(32) . . .
37.0(32) . . .
45(4) . . .
35.2(32) . . .
32.3(30) . . .
32.4(30) . . .
29.6(29) . . .
29.4(31) . . .
28.7(31) . . .
38.0(33) . . .
30.4(29) . . .
34.3(31) . . .
30.9(29) . . .
32.7(32) . . .
22.4(24) . . .
27.5(27) . . .
36.8(33) . . .
35.7(33) . . .
32.0(32) . . .
32.2(29) . . .
35.6(32) . . .
34.0(34) . . .
30.3(32) . . .
29.0(28) . . .
32.7(30) . . .
35.6(32) . . .
29.6(30) . . .
33.2(33) . . .
37.0(34) . . .
32.9(31) . . .
29.6(28) . . .
32.2(31) . . .
35.6(34) . . .
33.8(31) . . .
45.2(35) . . .
33.7(33) . . .
33.4(31) . . .
31.5(31) . . .
37.0(34) . . .
40.8(34) . . .
36.3(31) . . .
45(4) . . .
44(4) . . .
31.3(29) . . .
42.1(34) . . .
42(4) . . .
29.4(28) . . .
34.4(31) . . .
33.2(30) . . .
34.5(30) . . .
32.8(31) . . .
33.5(30) . . .
34.9(31) . . .
38.6(34) . . .
29.7(29) . . .
28.5(29) . . .
30.4(30) . . .
32.8(32) . . .
36.2(33) . . .
28.7(28) . . .
35.3(32) . . .
29.3(28) . . .
33.8(30) . . .
39.0(32) . . .
30.6(30) . . .
38.6(34) . . .
35.5(31) . . .
41(4) . . .
32.7(30) . . .
39.1(33) . . .
35.7(33) . . .
35.8(35) . . .
31.2(31) . . .
32.0(30) . . .
32.0(31) . . .
32.8(32) . . .
28.7(28) . . .
48(4) . . .
36.3(31) . . .
32.1(29) . . .
36.6(35) . . .
25.5(28) . . .
40(4) . . .
39.1(33) . . .
29.9(29) . . .
30.6(29) . . .
25.0(27) . . .
39(4) . . .
34.4(32) . . .
35.7(31) . . .
35.5(32) . . .
33.7(31) . . .
36.0(32) . . .
36.0(31) . . .
30.5(29) . . .
36.5(33) . . .
33.9(31) . . .
44(4) . . .
28.9(28) . . .
37.9(34) . . .
31.2(31) . . .
41(4) . . .
33.5(30) . . .
38.8(33) . . .
33.4(33) . . .
35.8(32) . . .
34.3(31) . . .
28.9(30) . . .
23.5(26) . . .
29.8(29) . . .
34.8(34) . . .
31.3(29) . . .
36.3(31) . . .
42.2(34) . . .
37.8(31) . . .
39(4) . . .
36.9(34) . . .
30.0(29) . . .
34.0(30) . . .
24.0(25) . . .
34.8(34) . . .
34.5(32) . . .
35.9(31) . . .
28.4(28) . . .
46(4) . . .
38.1(34) . . .
26.4(28) . . .
34.5(30) . . .
27.4(27) . . .
43(4) . . .
35(4) . . .
35.5(35) . . .
31.0(29) . . .
33.7(31) . . .
31.3(30) . . .
42(4) . . .
32.0(30) . . .
28.5(29) . . .
36.2(32) . . .
25.4(26) . . .
36.8(34) . . .
37.4(34) . . .
32.8(30) . . .
34.3(31) . . .
29.0(29) . . .
37(4) . . .
29.3(29) . . .
38.8(32) . . .
38.9(34) . . .
43(4) . . .
45(4) . . .
38.7(34) . . .
23.1(25) . . .
37.3(32) . . .
36.9(32) . . .
35.3(30) . . .
37.0(32) . . .
37.5(32) . . .
38.2(33) . . .
31.5(32) . . .
28.7(29) . . .
33.1(30) . . .
32.5(29) . . .
35.8(32) . . .
36.2(32) . . .
42.0(33) . . .
37.9(33) . . .
29.7(28) . . .
34.5(31) . . .
35.0(33) . . .
35.8(33) . . .
31.7(29) . . .
40.5(33) . . .
34.2(30) . . .
33.8(32) . . .
30.9(32) . . .
27.6(27) . . .
32.3(29) . . .
27.9(29) . . .
31.2(31) . . .
27.7(28) . . .
30.1(29) . . .
32.6(31) . . .
32.7(31) . . .
33.1(32) . . .
35.7(32) . . .
29.5(28) . . .
31.0(29) . . .
38.7(32) . . .
29.7(28) . . .
26.2(27) . . .
33.4(30) . . .
45(4) . . .
32.5(32) . . .
33.1(31) . . .
34.0(33) . . .
40.4(34) . . .
33.8(31) . . .
32.4(30) . . .
36.5(34) . . .
43(4) . . .
29.0(29) . . .
33.9(31) . . .
36.4(32) . . .
36.3(32) . . .
37.3(32) . . .
29.3(29) . . .
33.7(33) . . .
33.5(33) . . .
31.3(29) . . .
37.1(33) . . .
23.2(25) . . .
26.7(28) . . .
34.7(34) . . .
27.4(28) . . .
35.5(33) . . .
43.7(34) . . .
33.7(30) . . .
35.8(33) . . .
29.4(30) . . .
30.3(29) . . .
23.9(25) . . .
35.6(33) . . .
33.8(31) . . .
40.8(34) . . .
40.8(33) . . .
35.6(31) . . .
35.0(35) . . .
33.2(32) . . .
36.1(32) . . .
39.3(33) . . .
31.0(29) . . .
38.4(34) . . .
33.3(33) . . .
40.1(34) . . .
39.9(32) . . .
34.4(30) . . .
34.4(32) . . .
29.1(26) . . .
36.5(35) . . .
36.2(31) . . .
35.5(32) . . .
40.0(34) . . .
41.0(35) . . .
39.2(33) . . .
30.3(29) . . .
38.8(34) . . .
29.2(29) . . .
36.2(33) . . .
30.6(30) . . .
32.2(31) . . .
37.2(34) . . .
37.0(34) . . .
31.2(29) . . .
34.8(30) . . .
35.9(31) . . .
34.0(30) . . .
28.2(26) . . .
33.5(31) . . .
33.0(29) . . .
28.7(28) . . .
37.9(35) . . .
38.6(35) . . .
37.6(34) . . .
33.6(32) . . .
38.2(32) . . .
26.0(27) . . .
36(4) . . .
34.0(33) . . .
34.4(31) . . .
33.4(30) . . .
28.1(27) . . .
35.7(34) . . .
33.9(31) . . .
31.8(29) . . .
34.4(31) . . .
29.3(29) . . .
36.8(34) . . .
32.5(31) . . .
33.2(30) . . .
40.0(33) . . .
36.9(33) . . .
32.4(30) . . .
34.9(31) . . .
26.3(27) . . .
24.9(26) . . .
34.4(32) . . .
33.0(31) . . .
35.5(34) . . .
31.0(29) . . .
34.5(30) . . .
32.9(34) . . .
32.2(32) . . .
34.7(32) . . .
38.6(32) . . .
37.9(33) . . .
35.0(32) . . .
32.7(33) . . .
33.5(30) . . .
29.1(29) . . .
39.0(34) . . .
32.8(33) . . .
29.5(29) . . .
34.5(31) . . .
37.2(31) . . .
32.0(31) . . .
27.5(30) . . .
36.4(33) . . .
36.1(31) . . .
36.2(31) . . .
41(4) . . .
28.0(29) . . .
36.8(34) . . .
31.7(30) . . .
31.6(29) . . .
36.8(32) . . .
41(4) . . .
22.1(25) . . .
31.9(31) . . .
28.0(27) . . .
39.2(33) . . .
37.9(35) . . .
38.1(33) . . .
36.9(32) . . .
40.6(33) . . .
34.8(30) . . .
36.1(32) . . .
34.7(31) . . .
32.3(30) . . .
31.8(29) . . .
34.1(31) . . .
40(4) . . .
32.1(31) . . .
35.2(31) . . .
35.2(31) . . .
39.1(34) . . .
32.4(28) . . .
35.4(32) . . .
28.9(28) . . .
36.3(33) . . .
31.6(30) . . .
33.3(30) . . .
31.9(30) . . .
32.3(29) . . .
29.6(28) . . .
35.8(33) . . .
34.8(33) . . .
34.7(33) . . .
37.1(32) . . .
36.4(32) . . .
32.6(31) . . .
26.5(27) . . .
45(4) . . .
27.0(27) . . .
23.9(27) . . .
27.2(28) . . .
39(4) . . .
36.1(31) . . .
34.2(30) . . .
32.1(30) . . .
31.4(31) . . .
35.6(31) . . .
37.3(32) . . .
34.2(30) . . .
38(4) . . .
33.4(31) . . .
39.0(33) . . .
41.0(34) . . .
35.4(31) . . .
32.5(31) . . .
33.9(32) . . .
29.3(29) . . .
35.5(31) . . .
27.8(29) . . .
34.9(33) . . .
40(4) . . .
28.6(28) . . .
37.6(33) . . .
31.3(29) . . .
31.3(29) . . .
34.4(33) . . .
29.3(34) . . .
34.8(31) . . .
38(4) . . .
37.5(34) . . .
32.2(30) . . .
31.9(31) . . .
40.9(33) . . .
34.9(31) . . .
30.9(30) . . .
31.5(32) . . .
30.9(32) . . .
29.8(29) . . .
27.7(28) . . .
29.9(29) . . .
33.1(31) . . .
28.5(28) . . .
28.4(28) . . .
37.3(32) . . .
35.1(33) . . .
38.3(34) . . .
32.8(31) . . .
32.6(30) . . .
29.3(32) . . .
35.4(33) . . .
35.9(32) . . .
31.2(30) . . .
35.3(31) . . .
30.3(30) . . .
31.7(33) . . .
27.2(28) . . .
38.9(34) . . .
36.0(31) . . .
39.3(35) . . .
41(4) . . .
39.2(34) . . .
31.5(29) . . .
34.5(30) . . .
38.5(34) . . .
36.3(33) . . .
29.1(28) . . .
31.8(30) . . .
41.5(35) . . .
42.9(35) . . .
29.8(30) . . .
30.9(30) . . .
32.9(31) . . .
31.8(29) . . .
37.0(34) . . .
28.3(27) . . .
30.4(31) . . .
38.4(33) . . .
33.2(30) . . .
31.2(30) . . .
30.1(30) . . .
32.2(30) . . .
43.5(34) . . .
29.5(29) . . .
28.9(28) . . .
30.2(31) . . .
32.6(30) . . .
36.5(32) . . .
28.5(27) . . .
36.3(32) . . .
40(4) . . .
33.9(31) . . .
32.9(30) . . .
37.7(33) . . .
34.0(32) . . .
35.0(33) . . .
30.1(29) . . .
30.4(29) . . .
29.1(28) . . .
33.2(31) . . .
30.0(30) . . .
28.8(28) . . .
29.8(29) . . .
34.1(33) . . .
34.5(34) . . .
37.6(34) . . .
32.5(31) . . .
33.9(30) . . .
27.1(28) . . .
33.7(32) . . .
27.8(28) . . .
33.7(32) . . .
38.8(33) . . .
37.1(34) . . .
37.5(35) . . .
38.0(34) . . .
26.5(26) . . .
34.4(30) . . .
34.5(30) . . .
42(4) . . .
32.5(29) . . .
32.0(31) . . .
27.9(28) . . .
33.2(30) . . .
33.8(32) . . .
34.5(31) . . .
30.0(29) . . .
28.7(28) . . .
32.9(33) . . .
37.2(33) . . .
38.5(33) . . .
32.1(29) . . .
27.2(28) . . .
35.5(34) . . .
28.2(28) . . .
29.4(29) . . .
32.9(30) . . .
39.9(34) . . .
45(4) . . .
31.6(32) . . .
30.0(28) . . .
27.8(28) . . .
26.4(28) . . .
30.3(31) . . .
28.9(29) . . .
33.9(32) . . .
33.6(31) . . .
33.6(32) . . .
28.9(28) . . .
39.2(34) . . .
33.7(31) . . .
39.2(32) . . .
32.0(30) . . .
34.1(31) . . .
38.1(34) . . .
30.5(31) . . .
40.4(33) . . .
43(4) . . .
39.0(34) . . .
28.6(28) . . .
28.1(28) . . .
38.1(32) . . .
31.7(28) . . .
33.4(30) . . .
40.3(34) . . .
32.2(29) . . .
33.9(31) . . .
38.2(33) . . .
33.9(33) . . .
27.4(29) . . .
31.8(29) . . .
33.7(30) . . .
32.7(30) . . .
36.2(33) . . .
33.4(30) . . .
31.4(29) . . .
28.0(28) . . .
32.2(30) . . .
27.5(28) . . .
31.0(29) . . .
33.8(31) . . .
44(4) . . .
32.5(31) . . .
36.2(35) . . .
33.6(31) . . .
29.0(28) . . .
30.0(29) . . .
26.0(28) . . .
34.0(32) . . .
35.3(31) . . .
33.2(31) . . .
35.3(32) . . .
30.0(31) . . .
35.1(32) . . .
37.3(32) . . .
36.5(32) . . .
41.7(33) . . .
40.7(34) . . .
38.7(35) . . .
29.1(28) . . .
33.7(30) . . .
40.8(34) . . .
46(4) . . .
41(4) . . .
35.4(32) . . .
30.2(28) . . .
26.3(28) . . .
29.8(33) . . .
30.3(31) . . .
36.8(32) . . .
36.4(31) . . .
37.7(33) . . .
39(4) . . .
37.3(33) . . .
29.6(28) . . .
26.8(27) . . .
30.6(29) . . .
30.1(30) . . .
28.6(27) . . .
29.5(28) . . .
33.4(30) . . .
24.2(26) . . .
28.8(30) . . .
38.9(33) . . .
44.1(35) . . .
36.6(32) . . .
30.5(30) . . .
35.3(33) . . .
32.1(31) . . .
28.6(28) . . .
35.1(33) . . .
30.1(29) . . .
35.0(32) . . .
33.8(33) . . .
32.4(30) . . .
27.7(27) . . .
32.9(32) . . .
26.3(27) . . .
37.4(32) . . .
36.6(32) . . .
30.1(29) . . .
30.0(30) . . .
28.1(28) . . .
29.7(28) . . .
36.0(31) . . .
42.5(34) . . .
48(4) . . .
32.1(29) . . .
33.5(30) . . .
36.6(31) . . .
34.5(33) . . .
35.3(32) . . .
29.5(28) . . .
32.8(30) . . .
31.5(30) . . .
34.2(31) . . .
33.5(31) . . .
37.1(32) . . .
30.5(29) . . .
37.1(32) . . .
23.0(26) . . .
27.0(28) . . .
34.5(31) . . .
33.2(31) . . .
34.2(30) . . .
39.0(34) . . .
30.0(30) . . .
36(4) . . .
37.5(32) . . .
32.5(31) . . .
28.2(29) . . .
29.4(29) . . .
34.5(33) . . .
26.2(26) . . .
33.8(31) . . .
27.6(27) . . .
37.9(33) . . .
27.7(27) . . .
36.8(31) . . .
27.0(27) . . .
41(4) . . .
34.6(32) . . .
34.7(31) . . .
38.3(32) . . .
28.0(28) . . .
28.3(27) . . .
36.6(32) . . .
36.8(32) . . .
34.2(30) . . .
29.7(29) . . .
26.8(28) . . .
32.8(32) . . .
26.4(27) . . .
33.9(31) . . .
30.9(29) . . .
34.8(31) . . .
34.5(32) . . .
43(4) . . .
35.1(31) . . .
41(4) . . .
32.8(31) . . .
36.3(34) . . .
42(4) . . .
35.2(31) . . .
32.6(32) . . .
28.5(31) . . .
35.2(33) . . .
33.9(31) . . .
31.0(29) . . .
41(4) . . .
35.3(33) . . .
40.3(34) . . .
43.4(34) . . .
34.8(31) . . .
27.6(29) . . .
22.8(26) . . .
30.3(29) . . .
30.1(28) . . .
28.7(27) . . .
31.8(31) . . .
33.0(31) . . .
36.0(31) . . .
30.4(29) . . .
31.8(29) . . .
27.0(30) . . .
40(4) . . .
32.6(29) . . .
28.9(29) . . .
34.2(30) . . .
35.2(34) . . .
38.3(34) . . .
38.2(33) . . .
43.0(34) . . .
34.7(31) . . .
32.7(30) . . .
36.4(34) . . .
39(4) . . .
30.8(29) . . .
38.5(34) . . .
30.6(29) . . .
27.3(29) . . .
39.6(34) . . .
32.0(29) . . .
33.3(30) . . .
35.8(31) . . .
36.1(32) . . .
35.2(31) . . .
40.0(33) . . .
30.5(30) . . .
35.1(31) . . .
37.3(32) . . .
33.1(30) . . .
32.7(30) . . .
38.6(33) . . .
36.0(33) . . .
33.9(30) . . .
38.6(33) . . .
36.6(32) . . .
30.0(29) . . .
27.7(28) . . .
34.4(31) . . .
40.3(34) . . .
32.0(30) . . .
32.3(32) . . .
35.7(31) . . .
34.6(31) . . .
42.8(34) . . .
35.3(31) . . .
40(4) . . .
39(4) . . .
32.2(30) . . .
34.6(31) . . .
38.2(32) . . .
33.5(31) . . .
34.9(33) . . .
29.7(29) . . .
37.3(32) . . .
32.2(29) . . .
29.9(32) . . .
32.0(33) . . .
31.6(32) . . .
31.9(29) . . .
39.9(33) . . .
29.9(29) . . .
30.2(29) . . .
32.1(29) . . .
29.6(28) . . .
39.0(34) . . .
31.3(30) . . .
44(4) . . .
34.6(32) . . .
37.8(32) . . .
39.5(34) . . .
33.0(31) . . .
33.8(32) . . .
30.0(29) . . .
35.3(31) . . .
30.5(29) . . .
31.9(31) . . .
38.5(34) . . .
29.4(28) . . .
30.8(29) . . .
34.5(31) . . .
41(4) . . .
31.3(31) . . .
34.3(31) . . .
26.9(28) . . .
39.2(34) . . .
29.3(29) . . .
31.3(30) . . .
38.8(32) . . .
30.4(29) . . .
35.6(33) . . .
32.2(31) . . .
28.7(28) . . .
36.2(32) . . .
34.9(31) . . .
39.2(33) . . .
40.3(34) . . .
36.5(33) . . .
30.8(29) . . .
26.5(27) . . .
25.2(29) . . .
33.7(33) . . .
29.5(28) . . .
25.5(26) . . .
38.8(32) . . .
41.2(34) . . .
29.1(30) . . .
37.7(33) . . .
31.7(29) . . .
34.4(31) . . .
31.6(30) . . .
34.0(32) . . .
39.3(34) . . .
34.8(30) . . .
38.0(34) . . .
36.2(32) . . .
30.2(30) . . .
28.2(31) . . .
36.8(31) . . .
33.0(30) . . .
34.5(32) . . .
42(4) . . .
37.2(32) . . .
36.9(32) . . .
35.3(32) . . .
40.4(35) . . .
31.3(31) . . .
31.9(30) . . .
32.9(30) . . .
40(4) . . .
42(4) . . .
36.1(33) . . .
34.1(31) . . .
23.6(26) . . .
35.5(31) . . .
39.3(34) . . .
37.4(35) . . .
30.2(30) . . .
38.4(33) . . .
40(4) . . .
28.1(30) . . .
31.8(32) . . .
36.5(32) . . .
37.0(31) . . .
31.2(30) . . .
34(4) . . .
33.6(31) . . .
33.1(31) . . .
37.2(33) . . .
31.4(33) . . .
32.7(33) . . .
41.0(34) . . .
36.0(33) . . .
36.5(32) . . .
40.0(34) . . .
32.8(33) . . .
36.7(32) . . .
34.7(30) . . .
30.0(28) . . .
27.4(28) . . .
27.5(27) . . .
31.2(30) . . .
31.9(29) . . .
33.4(32) . . .
33.1(34) . . .
32.7(32) . . .
36.9(34) . . .
34.1(30) . . .
30.5(30) . . .
31.4(31) . . .
28.6(30) . . .
37.8(33) . . .
36.1(31) . . .
34.4(33) . . .
31.7(31) . . .
39.4(34) . . .
43.0(35) . . .
28.3(28) . . .
32.8(30) . . .
35.0(31) . . .
38.6(33) . . .
31.1(30) . . .
35.8(32) . . .
28.0(29) . . .
30.6(32) . . .
27.0(28) . . .
28.0(29) . . .
33.5(30) . . .
43(4) . . .
31.8(30) . . .
34.9(32) . . .
44.1(34) . . .
47(4) . . .
39(4) . . .
33.4(32) . . .
35.6(31) . . .
32.4(30) . . .
35.1(31) . . .
31.8(30) . . .
31.0(31) . . .
31.7(31) . . .
38.3(32) . . .
29.9(29) . . .
33.2(29) . . .
31.5(31) . . .
35.9(32) . . .
32.1(30) . . .
30.2(29) . . .
39.0(34) . . .
30.9(30) . . .
34.0(34) . . .
36.8(31) . . .
32.2(31) . . .
26.2(27) . . .
44(4) . . .
40(4) . . .
33.9(30) . . .
28.0(27) . . .
31.8(30) . . .
34.2(32) . . .
32.9(30) . . .
41.4(34) . . .
34.1(31) . . .
39.6(35) . . .
26.6(28) . . .
43(4) . . .
41.8(34) . . .
32.8(31) . . .
34.5(31) . . .
34.8(32) . . .
37.5(34) . . .
27.0(27) . . .
27.8(28) . . .
30.2(29) . . .
32.6(31) . . .
30.8(30) . . .
37.7(32) . . .
33.2(30) . . .
23.4(26) . . .
30.0(30) . . .
34.5(31) . . .
30.1(29) . . .
28.4(29) . . .
26.8(27) . . .
34.9(31) . . .
36.3(31) . . .
37.8(33) . . .
33.1(30) . . .
26.0(28) . . .
22.6(24) . . .
34.5(31) . . .
31.9(30) . . .
31.9(32) . . .
29.0(30) . . .
38.4(34) . . .
33.6(30) . . .
47(4) . . .
33.9(30) . . .
32.4(31) . . .
34.0(31) . . .
37.0(32) . . .
41.1(33) . . .
31.1(28) . . .
32.9(32) . . .
26.0(27) . . .
37.3(32) . . .
36.8(32) . . .
34.6(32) . . .
37.6(34) . . .
30.8(29) . . .
31.4(29) . . .
31.5(31) . . .
29.5(28) . . .
36.1(33) . . .
39.8(34) . . .
35.9(31) . . .
28.4(28) . . .
32.3(30) . . .
33.7(31) . . .
32.0(29) . . .
33.5(30) . . .
36.7(32) . . .
39.4(34) . . .
32.1(30) . . .
31.4(29) . . .
30.8(29) . . .
34.7(32) . . .
25.9(28) . . .
32.8(33) . . .
30.6(31) . . .
30.1(28) . . .
24.5(27) . . .
29.4(34) . . .
29.4(30) . . .
31.8(31) . . .
37.7(33) . . .
35.4(32) . . .
32.2(32) . . .
24.1(28) . . .
33.8(31) . . .
39.3(33) . . .
36.1(32) . . .
32.9(33) . . .
34.8(32) . . .
35.5(31) . . .
31.4(30) . . .
34.7(31) . . .
35.1(33) . . .
38.5(33) . . .
32.1(29) . . .
35.9(31) . . .
29.3(28) . . .
33.7(32) . . .
31.2(30) . . .
35.8(32) . . .
38.5(32) . . .
28.2(27) . . .
28.4(29) . . .
34.9(31) . . .
37.4(32) . . .
34.6(31) . . .
32.5(32) . . .
28.1(28) . . .
36.3(31) . . .
40.3(33) . . .
35.5(32) . . .
38.0(33) . . .
37.0(34) . . .
36.7(32) . . .
38.0(32) . . .
27.9(28) . . .
37.0(35) . . .
26.0(27) . . .
27.7(29) . . .
38.2(32) . . .
39.4(34) . . .
38.7(35) . . .
28.3(28) . . .
34.0(32) . . .
34.2(30) . . .
28.6(28) . . .
30.5(31) . . .
37.1(32) . . .
29.7(30) . . .
33.9(31) . . .
37.5(32) . . .
43(4) . . .
37.5(34) . . .
33.9(30) . . .
30.3(29) . . .
42(4) . . .
41(4) . . .
28.5(28) . . .
34.2(30) . . .
30.5(29) . . .
34.2(30) . . .
34.6(31) . . .
29.4(28) . . .
27.6(27) . . .
29.7(28) . . .
40.6(34) . . .
40.6(35) . . .
34.3(32) . . .
39.4(33) . . .
35.5(31) . . .
41(4) . . .
36.4(32) . . .
32.7(29) . . .
37.0(32) . . .
29.6(28) . . .
37.7(32) . . .
37.0(33) . . .
35.3(32) . . .
36.7(32) . . .
34.3(31) . . .
38.0(33) . . .
39.9(34) . . .
31.8(31) . . .
41.2(34) . . .
38.5(32) . . .
33.1(32) . . .
30.5(29) . . .
37.2(33) . . .
29.1(28) . . .
43(4) . . .
32.1(31) . . .
33.5(31) . . .
36.1(34) . . .
36.3(31) . . .
39.4(33) . . .
38.0(35) . . .
30.5(30) . . .
27.8(27) . . .
36.6(31) . . .
35.2(32) . . .
31.6(31) . . .
38.7(33) . . .
30.3(29) . . .
32.5(30) . . .
32.6(31) . . .
25.7(27) . . .
33.7(32) . . .
39.9(33) . . .
41.7(33) . . .
36.9(33) . . .
33.0(33) . . .
31.9(32) . . .
32.5(30) . . .
28.1(27) . . .
41(4) . . .
33.3(33) . . .
28.5(30) . . .
27.5(29) . . .
36.3(31) . . .
42(4) . . .
41(4) . . .
36.8(33) . . .
32.3(30) . . .
30.8(29) . . .
29.0(29) . . .
28.9(29) . . .
35.9(31) . . .
30.8(29) . . .
33.4(30) . . .
31.5(33) . . .
32.7(31) . . .
28.8(28) . . .
26.0(26) . . .
28.6(28) . . .
36.8(32) . . .
34.3(31) . . .
36.5(32) . . .
43.8(35) . . .
30.3(29) . . .
41.4(33) . . .
28.5(28) . . .
30.8(31) . . .
38.2(32) . . .
38.9(34) . . .
31.9(32) . . .
36.4(33) . . .
38.5(33) . . .
33.7(30) . . .
34.9(31) . . .
35.0(33) . . .
43(4) . . .
35.8(31) . . .
29.2(28) . . .
33.7(32) . . .
38(4) . . .
31.8(30) . . .
35.4(31) . . .
30.5(29) . . .
28.5(27) . . .
33.2(31) . . .
26.4(27) . . .
47(4) . . .
33.5(30) . . .
32.4(29) . . .
36.4(33) . . .
34.0(30) . . .
28.8(28) . . .
34.8(31) . . .
27.6(28) . . .
32.1(31) . . .
32.2(30) . . .
30.1(28) . . .
32.3(30) . . .
26.6(28) . . .
37.3(35) . . .
35.7(31) . . .
42.0(34) . . .
33.2(31) . . .
37.6(32) . . .
41.0(34) . . .
39.3(32) . . .
37.1(32) . . .
30.2(30) . . .
37.0(35) . . .
35.5(32) . . .
36.4(32) . . .
30.4(29) . . .
31.0(30) . . .
29.6(30) . . .
28.4(27) . . .
34.2(31) . . .
32.6(30) . . .
32.9(29) . . .
32.5(29) . . .
28.2(27) . . .
33.3(31) . . .
32.7(30) . . .
34.7(32) . . .
34.6(35) . . .
27.5(27) . . .
41.2(34) . . .
33.8(31) . . .
34.7(31) . . .
34.0(31) . . .
36.6(33) . . .
30.5(29) . . .
35.7(31) . . .
41.9(35) . . .
39.1(35) . . .
39.6(35) . . .
34.9(30) . . .
31.1(29) . . .
27.3(29) . . .
32.1(32) . . .
41(4) . . .
33.1(30) . . .
40.0(33) . . .
34.1(32) . . .
34.2(33) . . .
36.7(32) . . .
33.3(30) . . .
42.2(34) . . .
31.0(30) . . .
32.7(32) . . .
29.3(29) . . .
36.5(31) . . .
31.6(29) . . .
36.4(34) . . .
36.7(33) . . .
35.9(31) . . .
39.5(33) . . .
36.0(32) . . .
37.8(32) . . .
37.0(32) . . .
34.1(31) . . .
33.3(29) . . .
30.4(31) . . .
24.6(27) . . .
31.8(31) . . .
32.5(30) . . .
43.0(34) . . .
26.5(28) . . .
32.3(31) . . .
33.7(31) . . .
32.0(30) . . .
40.0(33) . . .
31.6(29) . . .
35.7(34) . . .
33.3(32) . . .
31.1(29) . . .
26.8(27) . . .
37.6(35) . . .
30.1(30) . . .
34.3(33) . . .
33.8(31) . . .
34.5(32) . . .
31.7(31) . . .
35.9(32) . . .
34.8(31) . . .
31.9(29) . . .
32.7(30) . . .
34.8(30) . . .
42(4) . . .
36.1(33) . . .
37.2(32) . . .
39.0(34) . . .
35.2(33) . . .
28.2(29) . . .
37.9(35) . . .
34.3(31) . . .
41.3(35) . . .
26.1(26) . . .
28.8(29) . . .
29.7(29) . . .
31.3(29) . . .
28.8(29) . . .
30.3(29) . . .
35.1(34) . . .
29.4(29) . . .
30.9(29) . . .
37.1(33) . . .
37.6(34) . . .
40(4) . . .
32.5(31) . . .
24.0(26) . . .
32.1(30) . . .
33.4(30) . . .
27.0(27) . . .
29.5(29) . . .
30.2(29) . . .
33.0(31) . . .
24.9(25) . . .
31.7(31) . . .
28.0(28) . . .
35.2(31) . . .
31.4(30) . . .
33.5(34) . . .
36.9(35) . . .
31.7(29) . . .
34.7(31) . . .
30.5(29) . . .
32.5(33) . . .
30.7(31) . . .
27.0(28) . . .
33.6(30) . . .
33.4(31) . . .
33.2(33) . . .
25.5(26) . . .
36.1(33) . . .
27.8(28) . . .
34.6(33) . . .
27.0(29) . . .
28.8(30) . . .
32.4(30) . . .
33.3(30) . . .
32.8(30) . . .
42(4) . . .
28.1(28) . . .
40.5(33) . . .
30.7(29) . . .
36.1(31) . . .
34.7(32) . . .
40(4) . . .
40.0(33) . . .
34.5(30) . . .
31.7(30) . . .
30.6(32) . . .
40.5(33) . . .
38.2(33) . . .
37.7(34) . . .
33.7(31) . . .
35.8(31) . . .
35.7(31) . . .
38.7(32) . . .
33.1(31) . . .
30.3(31) . . .
28.7(30) . . .
35.4(31) . . .
38.6(32) . . .
36.5(33) . . .
34.0(32) . . .
35.5(33) . . .
37.5(33) . . .
24.8(27) . . .
38(4) . . .
30.6(31) . . .
37.3(34) . . .
34.3(30) . . .
44.8(35) . . .
34.4(33) . . .
29.6(29) . . .
44(4) . . .
36.5(32) . . .
30.5(29) . . .
39(4) . . .
29.8(31) . . .
38.9(33) . . .
29.9(28) . . .
26.5(26) . . .
36.2(33) . . .
36.3(34) . . .
39.1(34) . . .
30.5(29) . . .
36.9(32) . . .
39.4(33) . . .
44(4) . . .
38.7(32) . . .
33.2(30) . . .
37.8(33) . . .
36.4(32) . . .
39.2(35) . . .
35.6(32) . . .
35.8(31) . . .
36.0(31) . . .
29.1(29) . . .
32.8(30) . . .
31.8(30) . . .
40.6(33) . . .
40.4(33) . . .
31.3(30) . . .
21.7(25) . . .
31.5(30) . . .
38.4(32) . . .
loop_
_refln_index_h
_refln_index_k
_refln_index_l
_refln_observed_status
_refln_F_squared_meas
_refln_F_squared_calc
_refln_phase_calc
_refln_d_spacing
_gsas_i100_meas
0 2 0 o 1220.064 1396.139 180.00 8.38502 2.74
0 0 2 o 0.000 23.155 180.00 6.38892 0.00
1 0 1 o 13511.938 14074.559 0.00 5.88512 29.91
0 2 2 o 30987.209 31052.203 0.00 5.08185 51.17
0 3 1 o 1189.609 1303.020 180.00 5.12137 2.00
1 2 1 o 1711.943 1760.401 0.00 4.81706 5.08
1 1 2 o 4071.465 4196.634 0.00 4.43667 10.26
0 1 3 o 219.058 21.902 0.00 4.12821 0.24
0 4 0 o 2589.427 848.697 0.00 4.19251 1.46
1 0 3 o 467.438 220.988 180.00 3.58355 0.38
1 3 2 o 3497.365 3677.654 0.00 3.55225 5.66
0 0 4 o 60.723 138.972 180.00 3.19446 0.02
0 4 2 o 8.159 4.793 0.00 3.50519 0.01
0 3 3 o 10796.813 11400.339 0.00 3.38790 7.94
1 4 1 o 795.154 916.163 180.00 3.41464 1.19
1 2 3 o 734.259 1221.762 0.00 3.29523 1.02
0 5 1 o 0.000 81.031 180.00 3.24411 0.00
2 0 0 o 2059.318 2176.009 180.00 3.31510 0.73
0 2 4 o 1999.866 2026.818 0.00 2.98516 1.14
2 1 1 o 890.554 997.800 180.00 3.15169 1.14
2 2 0 o 53.704 205.467 0.00 3.08291 0.03
1 1 4 o 39.013 28.954 0.00 2.83639 0.04
2 0 2 o 444.110 393.693 0.00 2.94256 0.25
0 6 0 o 935.842 1457.424 0.00 2.79501 0.23
2 3 1 o 837.264 934.783 0.00 2.78295 0.83
2 2 2 o 2281.707 2342.457 180.00 2.77655 2.26
0 1 5 o 1985.691 1984.111 180.00 2.52640 0.82
1 4 3 o 5020.427 5265.118 0.00 2.72405 4.79
1 5 2 o 2965.064 2894.764 180.00 2.71023 2.80
1 3 4 o 62.735 87.737 0.00 2.55868 0.05
2 1 3 o 1409.894 1370.699 0.00 2.58483 1.21
2 4 0 o 1708.821 1823.932 180.00 2.60039 0.74
0 5 3 o 488.717 602.946 180.00 2.63508 0.22
0 4 4 o 10428.021 11899.612 0.00 2.54093 4.33
0 6 2 o 84.283 140.966 0.00 2.56069 0.04
1 6 1 o 755.559 723.669 0.00 2.52474 0.62
1 0 5 o 334.110 303.606 180.00 2.38457 0.12
0 3 5 o 16.615 187.877 0.00 2.32420 0.01
0 7 1 o 137.390 286.164 0.00 2.35469 0.05
1 2 5 o 437.607 475.875 0.00 2.29362 0.30
2 0 4 o 2239.237 2398.505 180.00 2.30029 0.76
2 3 3 o 52.592 122.397 180.00 2.36945 0.04
2 4 2 o 49.894 64.892 180.00 2.40853 0.04
2 5 1 o 0.659 0.798 180.00 2.31863 0.00
0 0 6 o 4138.793 4003.803 0.00 2.12964 0.61
2 2 4 o 30.244 23.721 0.00 2.21833 0.02
0 2 6 o 93.325 118.454 180.00 2.06411 0.03
1 5 4 o 5674.076 5610.134 0.00 2.18407 3.49
0 8 0 o 22.648 17.381 180.00 2.09625 0.00
1 6 3 o 4969.798 4762.872 180.00 2.20392 3.12
2 6 0 o 1497.277 1445.095 180.00 2.13687 0.44
1 1 6 o 822.557 780.853 180.00 2.01295 0.43
1 7 2 o 2527.629 2515.863 0.00 2.12488 1.47
3 0 1 o 3251.429 2781.291 180.00 2.17774 1.00
1 4 5 o 10.126 11.107 180.00 2.07275 0.01
2 1 5 o 352.563 333.451 180.00 2.00940 0.18
0 6 4 o 9435.563 7647.004 180.00 2.10350 2.70
0 7 3 o 6831.022 5799.783 0.00 2.08808 1.92
0 5 5 o 19817.457 21212.982 0.00 2.03274 5.29
3 2 1 o 40.719 46.771 0.00 2.10781 0.02
3 1 2 o 2824.576 2973.938 180.00 2.07262 1.57
2 5 3 o 308.209 370.714 0.00 2.06280 0.17
2 4 4 o 1406.328 1401.464 180.00 2.01669 0.74
0 8 2 o 3386.481 2584.412 180.00 1.99178 0.87
2 6 2 o 546.615 514.245 180.00 2.02652 0.29
1 8 1 o 967.512 787.345 180.00 1.97472 0.49
1 3 6 o 779.900 613.720 0.00 1.90610 0.37
0 4 6 o 2140.582 1643.685 180.00 1.89872 0.50
3 0 3 o 2784.611 2624.445 0.00 1.96171 0.69
2 3 5 o 1282.173 976.404 0.00 1.90308 0.60
0 1 7 o 325.832 576.720 0.00 1.81469 0.07
2 7 1 o 337.216 312.218 180.00 1.91971 0.16
3 3 2 o 1296.364 761.766 0.00 1.95653 0.64
3 2 3 o 5288.798 4412.526 180.00 1.91013 2.50
3 4 1 o 1076.276 512.204 180.00 1.93257 0.52
0 9 1 o 3056.464 3179.774 0.00 1.84384 0.67
1 0 7 o 953.246 1173.352 0.00 1.75992 0.19
2 0 6 o 0.000 11.511 180.00 1.79178 0.00
0 3 7 o 1156.479 1442.611 0.00 1.73523 0.23
1 2 7 o 620.123 660.307 180.00 1.72239 0.24
3 1 4 o 2993.032 3156.830 0.00 1.80692 1.27
2 2 6 o 1443.483 1548.354 180.00 1.75222 0.58
1 6 5 o 228.107 411.039 0.00 1.81407 0.10
1 7 4 o 484.595 461.611 180.00 1.84123 0.21
1 8 3 o 108.304 114.515 0.00 1.80941 0.05
2 8 0 o 48.914 46.696 0.00 1.77176 0.01
1 5 6 o 1098.509 1380.025 0.00 1.73518 0.43
3 4 3 o 340.052 315.832 180.00 1.77682 0.14
2 6 4 o 1500.734 1347.641 0.00 1.77613 0.61
2 5 5 o 2074.647 2552.389 180.00 1.73291 0.81
2 7 3 o 1535.071 1529.602 180.00 1.76681 0.62
1 9 2 o 6.721 7.538 0.00 1.72706 0.00
3 5 2 o 493.347 445.751 0.00 1.77297 0.20
0 7 5 o 1605.093 1488.333 180.00 1.74781 0.32
3 3 4 o 198.119 237.823 180.00 1.72843 0.08
0 10 0 o 9626.713 11436.142 180.00 1.67700 0.88
0 6 6 o 4549.371 6584.214 0.00 1.69395 0.85
0 0 8 o 105.742 127.554 0.00 1.59723 0.01
0 8 4 o 1023.008 894.625 0.00 1.75260 0.20
2 8 2 o 2.605 3.955 0.00 1.70732 0.00
0 9 3 o 112.020 169.940 180.00 1.70712 0.02
3 6 1 o 1762.757 1606.410 180.00 1.71786 0.68
1 4 7 o 333.301 285.717 180.00 1.62275 0.11
3 0 5 o 2472.580 2783.120 180.00 1.67166 0.45
2 4 6 o 2035.335 1789.741 0.00 1.64761 0.72
2 1 7 o 311.816 350.021 0.00 1.59180 0.10
0 2 8 o 694.495 511.990 180.00 1.56902 0.11
0 5 7 o 2.230 2.849 0.00 1.60333 0.00
3 2 5 o 31.932 31.160 0.00 1.63940 0.01
1 1 8 o 892.583 828.503 0.00 1.54619 0.28
1 10 1 o 390.142 568.188 180.00 1.61280 0.13
0 10 2 o 537.454 469.179 0.00 1.62206 0.09
2 9 1 o 29.260 47.565 180.00 1.61137 0.01
4 0 0 o 1938.859 2096.458 0.00 1.65755 0.17
2 3 7 o 2319.817 2041.244 180.00 1.53736 0.72
4 1 1 o 1243.969 865.880 0.00 1.63594 0.43
1 3 8 o 228.020 167.136 0.00 1.49616 0.07
4 2 0 o 489.711 239.772 180.00 1.62609 0.08
3 5 4 o 286.655 463.979 180.00 1.59796 0.10
3 6 3 o 484.955 676.708 0.00 1.60569 0.16
3 1 6 o 12.126 7.977 180.00 1.52716 0.00
4 0 2 o 182.614 147.920 180.00 1.60443 0.03
0 4 8 o 1.947 1.463 0.00 1.49258 0.00
3 7 2 o 1998.006 2025.398 180.00 1.57434 0.65
3 4 5 o 67.424 55.553 180.00 1.55278 0.02
1 7 6 o 302.883 300.554 0.00 1.54770 0.09
0 11 1 o 5557.632 5383.160 180.00 1.51381 0.83
4 2 2 o 1379.610 1594.260 0.00 1.57585 0.45
1 8 5 o 460.801 470.237 180.00 1.57439 0.15
1 9 4 o 244.153 204.591 0.00 1.56411 0.08
4 3 1 o 752.269 768.031 180.00 1.57701 0.24
1 6 7 o 1101.103 835.053 0.00 1.48928 0.32
2 7 5 o 2008.149 2053.701 0.00 1.54609 0.63
2 0 8 o 1359.453 1195.855 180.00 1.43893 0.18
2 6 6 o 2765.277 3021.405 180.00 1.50843 0.82
1 10 3 o 16.231 16.120 180.00 1.51891 0.00
4 1 3 o 593.289 522.063 180.00 1.53819 0.18
2 8 4 o 2172.240 2286.104 180.00 1.54940 0.68
0 1 9 o 1693.686 2327.803 0.00 1.41470 0.22
2 10 0 o 378.173 269.557 0.00 1.49643 0.06
2 9 3 o 231.339 223.938 0.00 1.51771 0.07
4 4 0 o 1235.856 1560.878 0.00 1.54145 0.19
3 3 6 o 3.137 2.599 180.00 1.47889 0.00
3 8 1 o 107.535 113.068 0.00 1.51026 0.03
2 2 8 o 484.226 645.817 0.00 1.41820 0.13
0 8 6 o 1743.565 1301.339 180.00 1.49394 0.25
1 0 9 o 317.648 473.871 180.00 1.38829 0.04
2 5 7 o 2452.319 2057.099 0.00 1.44338 0.67
0 7 7 o 4935.765 4584.137 0.00 1.45196 0.68
1 5 8 o 93.608 127.981 180.00 1.40912 0.02
1 11 2 o 278.183 232.526 180.00 1.44716 0.08
0 3 9 o 22.059 39.499 0.00 1.37607 0.00
2 10 2 o 353.508 244.899 180.00 1.45700 0.10
0 10 4 o 277.965 186.801 180.00 1.48483 0.04
4 4 2 o 2033.985 1329.432 180.00 1.49846 0.60
4 3 3 o 2486.568 2025.006 0.00 1.48890 0.72
0 9 5 o 599.875 770.243 0.00 1.50562 0.09
4 0 4 o 1185.727 1080.548 0.00 1.47128 0.17
1 2 9 o 30.845 33.766 180.00 1.36964 0.01
3 0 7 o 1041.921 1392.298 180.00 1.40741 0.14
4 5 1 o 2493.143 2453.812 0.00 1.47604 0.71
0 11 3 o 434.382 387.799 0.00 1.43537 0.06
4 2 4 o 850.437 748.545 180.00 1.44914 0.23
3 2 7 o 14.277 19.492 0.00 1.38800 0.00
0 6 8 o 0.442 0.677 180.00 1.38677 0.00
0 12 0 o 2264.597 2818.510 0.00 1.39750 0.15
3 6 5 o 23.187 21.095 180.00 1.43465 0.01
2 4 8 o 2145.208 2003.339 180.00 1.36100 0.52
3 7 4 o 78.639 67.550 0.00 1.44797 0.02
3 8 3 o 699.789 660.541 180.00 1.43234 0.19
4 6 0 o 4558.418 3923.328 180.00 1.42570 0.61
3 5 6 o 224.447 345.698 180.00 1.39466 0.06
1 4 9 o 54.087 59.413 0.00 1.31791 0.01
2 11 1 o 162.368 470.567 0.00 1.37703 0.04
1 12 1 o 15.163 13.565 180.00 1.35969 0.00
3 9 2 o 9.546 11.845 180.00 1.39043 0.00
4 1 5 o 825.086 1264.518 0.00 1.38589 0.21
0 12 2 o 4288.716 4368.100 180.00 1.36522 0.53
2 1 9 o 1124.657 1326.519 180.00 1.30117 0.25
0 5 9 o 20.363 27.095 0.00 1.30745 0.00
4 5 3 o 513.249 425.581 180.00 1.40305 0.13
0 0 10 o 5097.609 5266.419 180.00 1.27778 0.28
4 4 4 o 674.616 745.377 0.00 1.38828 0.17
4 6 2 o 787.408 1150.102 0.00 1.39147 0.20
3 4 7 o 37.012 72.684 0.00 1.33424 0.01
1 8 7 o 65.308 78.926 0.00 1.34788 0.02
1 9 6 o 251.120 229.648 180.00 1.37198 0.06
0 2 10 o 312.579 408.911 0.00 1.26320 0.03
2 8 6 o 2904.805 2624.209 0.00 1.36203 0.71
4 3 5 o 121.662 141.634 180.00 1.34952 0.03
2 7 7 o 2389.256 3074.545 180.00 1.32999 0.56
2 3 9 o 625.020 705.467 0.00 1.27093 0.13
1 10 5 o 135.255 122.449 0.00 1.37174 0.03
3 1 8 o 1149.733 1396.213 180.00 1.29070 0.25
1 1 10 o 17.479 64.395 0.00 1.25120 0.00
4 7 1 o 3019.765 2489.744 180.00 1.35541 0.73
2 10 4 o 1104.278 914.925 0.00 1.35511 0.27
1 11 4 o 18.211 21.407 180.00 1.34719 0.00
2 9 5 o 3200.810 3190.846 180.00 1.37086 0.79
3 10 1 o 138.839 182.449 0.00 1.32870 0.03
1 7 8 o 669.654 801.072 0.00 1.30304 0.15
4 0 6 o 969.866 1299.000 180.00 1.30805 0.11
2 6 8 o 1899.112 1891.963 0.00 1.27934 0.41
2 11 3 o 1022.561 900.030 180.00 1.31720 0.23
2 12 0 o 479.235 570.291 180.00 1.28776 0.05
0 13 1 o 2860.041 2771.170 0.00 1.28348 0.31
1 12 3 o 114.879 125.082 180.00 1.30200 0.03
3 3 8 o 12.424 16.996 180.00 1.26117 0.00
1 3 10 o 0.530 0.704 180.00 1.22424 0.00
4 2 6 o 366.257 434.921 0.00 1.29241 0.08
0 4 10 o 0.024 0.028 180.00 1.22228 0.00
0 9 7 o 10.291 13.361 180.00 1.30396 0.00
1 6 9 o 0.000 153.426 180.00 1.24336 0.00
0 8 8 o 776.228 871.438 0.00 1.27046 0.08
4 8 0 o 1633.839 1739.042 0.00 1.30020 0.18
0 10 6 o 35.560 29.628 180.00 1.31754 0.00
3 7 6 o 57.595 72.489 0.00 1.29158 0.01
5 0 1 o 2175.684 2064.633 0.00 1.31896 0.25
0 11 5 o 334.292 319.732 0.00 1.30927 0.04
3 8 5 o 19.037 33.715 180.00 1.30697 0.00
4 6 4 o 166.610 160.208 180.00 1.30192 0.04
3 9 4 o 101.318 96.332 180.00 1.30107 0.02
0 12 4 o 203.208 189.321 180.00 1.28034 0.02
2 12 2 o 1049.985 1210.185 0.00 1.26237 0.22
4 7 3 o 466.792 606.805 0.00 1.29824 0.10
4 5 5 o 359.462 346.665 0.00 1.28461 0.08
5 2 1 o 452.507 493.829 0.00 1.30294 0.10
2 5 9 o 1558.213 1565.353 180.00 1.21627 0.31
3 6 7 o 234.763 724.433 180.00 1.25704 0.05
5 1 2 o 443.726 445.442 0.00 1.29450 0.10
1 13 2 o 0.000 25.877 180.00 1.24210 0.00
3 10 3 o 229.573 224.249 180.00 1.27471 0.05
0 7 9 o 465.690 507.466 0.00 1.22139 0.05
4 8 2 o 1710.183 1725.806 180.00 1.27408 0.37
4 4 6 o 0.000 36.658 180.00 1.24868 0.00
0 13 3 o 660.616 807.067 180.00 1.23462 0.07
4 1 7 o 362.311 486.440 180.00 1.22386 0.07
5 0 3 o 9.474 12.954 0.00 1.26610 0.00
3 5 8 o 251.436 277.285 0.00 1.20771 0.05
5 3 2 o 510.043 508.237 0.00 1.26471 0.11
3 11 2 o 397.361 622.300 0.00 1.23140 0.08
5 4 1 o 6.920 13.563 180.00 1.25817 0.00
5 2 3 o 238.166 392.013 0.00 1.25191 0.05
4 9 1 o 1135.742 1344.744 0.00 1.23268 0.23
5 1 4 o 8.927 10.857 0.00 1.22146 0.00
2 9 7 o 110.481 96.001 0.00 1.21346 0.02
1 10 7 o 134.155 116.713 180.00 1.21408 0.03
2 10 6 o 163.002 225.761 180.00 1.22439 0.03
2 11 5 o 35.955 40.435 180.00 1.21774 0.01
5 4 3 o 1186.569 1126.884 0.00 1.21204 0.23
1 11 6 o 103.984 69.457 0.00 1.21853 0.02
5 5 2 o 447.375 324.296 180.00 1.21081 0.09
