#------------------------------------------------------------------------------
#$Date: 2016-03-21 01:21:50 +0200 (Mon, 21 Mar 2016) $
#$Revision: 178377 $
#$URL: svn://www.crystallography.net/cod/cif/4/00/21/4002117.cif $
#------------------------------------------------------------------------------
#
# This file is available in the Crystallography Open Database (COD),
# http://www.crystallography.net/
#
# All data on this site have been placed in the public domain by the
# contributors.
#
data_4002117
loop_
_publ_author_name
'Nanthamathee, Chompoonoot'
'Ling, Sanliang'
'Slater, Ben'
'Attfield, Martin P.'
_publ_section_title
;
 Contradistinct Thermoresponsive Behavior of Isostructural MIL-53 Type
 Metal--Organic Frameworks by Modifying the Framework Inorganic Anion
;
_journal_name_full               'Chemistry of Materials'
_journal_page_first              141223143002002
_journal_paper_doi               10.1021/cm503311x
_journal_year                    2014
_chemical_formula_sum            'C8 Al O5'
_chemical_formula_weight         203.07
_chemical_name_systematic        ' ?'
_space_group_IT_number           74
_symmetry_cell_setting           orthorhombic
_symmetry_space_group_name_Hall  '-I 2b 2'
_symmetry_space_group_name_H-M   'I m m a'
_audit_creation_date             2014-08-28T12:18
_audit_creation_method           'from EXP file using GSAS2CIF'
_audit_update_record
' 2014-08-28T12:18  Initial CIF as created by GSAS2CIF'
_cell_angle_alpha                90.0
_cell_angle_beta                 90.0
_cell_angle_gamma                90.0
_cell_formula_units_Z            4
_cell_length_a                   6.62880(6)
_cell_length_b                   16.72761(18)
_cell_length_c                   12.83361(22)
_cell_volume                     1423.04(3)
_computing_structure_refinement  GSAS
_diffrn_radiation_polarisn_ratio 0.95
_diffrn_radiation_probe          x-ray
_diffrn_radiation_wavelength     0.825993
_exptl_absorpt_correction_T_max  1.00000
_exptl_absorpt_correction_T_min  1.00000
_exptl_absorpt_process_details
;   GSAS Absorption/surface roughness correction: function number 0
 No correction is applied.
;
_pd_block_id                     2014-08-28T12:18|425K|300k|i11
_pd_calc_method                  'Rietveld Refinement'
_pd_instr_location               ' ?'
_pd_meas_2theta_range_inc        0.003
_pd_meas_2theta_range_max        149.9955
_pd_meas_2theta_range_min        0.0015
_pd_meas_number_of_points        49999
_pd_phase_name                   300K
_pd_proc_2theta_range_inc        0.003
_pd_proc_2theta_range_max        150.00426
_pd_proc_2theta_range_min        0.010253
_pd_proc_info_datetime           2014-08-28T12:18:54
_pd_proc_info_excluded_regions   ' ?'
_pd_proc_ls_background_function
;   GSAS Background function number 1 with  2 terms.
 Shifted Chebyshev function of 1st kind
      1:    0.00000     2:    0.00000    
;
_pd_proc_ls_peak_cutoff          0.00100
_pd_proc_ls_profile_function
;
 CW Profile function number 4 with  18 terms
 Pseudovoigt profile coefficients as parameterized in
 P. Thompson, D.E. Cox & J.B. Hastings (1987). J. Appl. Cryst.,20,79-83.
 Asymmetry correction of L.W. Finger, D.E. Cox & A. P. Jephcoat (1994).
 J. Appl. Cryst.,27,892-900.
 Microstrain broadening by P.W. Stephens,  (1999). J. Appl. Cryst.,32,281-289.
 Peak tails are ignored  where the intensity is below 0.0010 times the peak
   Aniso. broadening axis   1.0   0.0   1.0
;
_pd_proc_ls_prof_R_factor        0.0358
_pd_proc_ls_prof_wR_expected     0.0226
_pd_proc_ls_prof_wR_factor       0.0478
_pd_proc_number_of_points        49999
_pd_spec_mounting                ' ?'
_refine_ls_goodness_of_fit_all   2.12
_refine_ls_matrix_type           full
_refine_ls_number_parameters     27
_refine_ls_number_restraints     0
_refine_ls_R_Fsqd_factor         0.23692
_refine_ls_shift/su_max          0.05
_refine_ls_shift/su_mean         0.01
_reflns_d_resolution_high        1.210
_reflns_d_resolution_low         8.364
_reflns_limit_h_max              5
_reflns_limit_h_min              0
_reflns_limit_k_max              13
_reflns_limit_k_min              0
_reflns_limit_l_max              10
_reflns_limit_l_min              0
_reflns_number_total             252
_cod_data_source_file            aloh425K.cif
_cod_data_source_block           425K_publ
_cod_depositor_comments
;
The following automatic conversions were performed:

'_geom_bond_publ_flag' value 'N' changed to 'n' according to
/home/saulius/struct/COD-crude-data--automatic-downloads/rss-feeds/ACS/lib/dictionaries/cif_core.dic
dictionary named 'cif_core.dic' version 2.4.2 from 2011-04-26 (18
times).

'_geom_angle_publ_flag' value 'N' changed to 'n' according
to
/home/saulius/struct/COD-crude-data--automatic-downloads/rss-feeds/ACS/lib/dictionaries/cif_core.dic
dictionary named 'cif_core.dic' version 2.4.2 from 2011-04-26 (24
times).

Automatic conversion script
Id: cif_fix_values 2935 2014-11-11 08:27:57Z andrius 
;
_cod_original_cell_volume        1423.042(31)
_cod_database_code               4002117
#BEGIN Tags that were not found in dictionaries:
_gsas_exptl_extinct_corr_t_min   1.00000
_gsas_exptl_extinct_corr_t_max   1.00000
#END Tags that were not found in dictionaries
loop_
_symmetry_equiv_pos_site_id
_symmetry_equiv_pos_as_xyz
1 +x,+y,+z
2 -x,+y,+z
3 +x,-y+1/2,+z
4 -x,-y+1/2,+z
-1 -x,-y,-z
-2 +x,-y,-z
-3 -x,+y+1/2,-z
-4 +x,+y+1/2,-z
101 +x+1/2,+y+1/2,+z+1/2
102 -x+1/2,+y+1/2,+z+1/2
103 +x+1/2,-y,+z+1/2
104 -x+1/2,-y,+z+1/2
-101 -x+1/2,-y+1/2,-z+1/2
-102 +x+1/2,-y+1/2,-z+1/2
-103 -x+1/2,+y,-z+1/2
-104 +x+1/2,+y,-z+1/2
loop_
_atom_site_type_symbol
_atom_site_label
_atom_site_fract_x
_atom_site_fract_y
_atom_site_fract_z
_atom_site_occupancy
_atom_site_thermal_displace_type
_atom_site_U_iso_or_equiv
_atom_site_symmetry_multiplicity
Al Al1 0.25 0.25 0.75 1.0 Uiso 0.0230(11) 4
O O2 0.0 0.25 0.6857(4) 1.0 Uiso 0.0185(8) 4
O O1 0.16576(32) 0.16835(14) 0.84288(21) 1.0 Uiso 0.0185(8) 16
C C3 -0.1909(4) 0.03544(31) 0.9675(4) 1.0 Uiso 0.0410(15) 16
C C2 0.0 0.0622(4) 0.9464(5) 1.0 Uiso 0.0410(15) 8
C C1 0.0 0.1370(4) 0.8716(6) 1.0 Uiso 0.0410(15) 8
loop_
_atom_type_symbol
_atom_type_number_in_cell
_atom_type_scat_dispersion_real
_atom_type_scat_dispersion_imag
_atom_type_scat_Cromer_Mann_a1
_atom_type_scat_Cromer_Mann_a2
_atom_type_scat_Cromer_Mann_a3
_atom_type_scat_Cromer_Mann_a4
_atom_type_scat_Cromer_Mann_b1
_atom_type_scat_Cromer_Mann_b2
_atom_type_scat_Cromer_Mann_b3
_atom_type_scat_Cromer_Mann_b4
_atom_type_scat_Cromer_Mann_c
_atom_type_scat_source
Al 4.0 0.000 0.000 6.42020 3.03870 1.90020 0.74260 1.59360 31.5472 1.96460
85.0886 1.11510 International_Tables_Vol_C
O 20.0 0.000 0.000 3.04850 13.2771 2.28680 5.70110 1.54630 0.32390 0.86700
32.9089 0.25080 International_Tables_Vol_C
C 32.0 0.000 0.000 2.31000 20.8439 1.02000 10.2075 1.58860 0.56870 0.86500
51.6512 0.21560 International_Tables_Vol_C
loop_
_geom_angle_atom_site_label_1
_geom_angle_atom_site_label_2
_geom_angle_atom_site_label_3
_geom_angle
_geom_angle_site_symmetry_1
_geom_angle_site_symmetry_3
_geom_angle_publ_flag
O2 Al1 O2 180.0 1_555 -101_546 n
O2 Al1 O1 90.95(12) 1_555 1_555 n
O2 Al1 O1 90.95(12) 1_555 3_555 n
O2 Al1 O1 89.05(12) 1_555 -101_566 n
O2 Al1 O1 89.05(12) 1_555 -103_566 n
O2 Al1 O1 89.05(12) -101_566 1_555 n
O2 Al1 O1 89.05(12) -101_566 3_555 n
O2 Al1 O1 90.95(12) -101_566 -101_566 n
O2 Al1 O1 90.95(12) -101_566 -103_566 n
O1 Al1 O1 92.11(18) 1_555 3_555 n
O1 Al1 O1 180.0 1_555 -101_566 n
O1 Al1 O1 87.89(18) 1_555 -103_566 n
O1 Al1 O1 87.89(18) 3_555 -101_566 n
O1 Al1 O1 180.0 3_555 -103_566 n
O1 Al1 O1 92.11(18) -101_566 -103_566 n
Al1 O2 Al1 127.06(31) 1_555 2_555 n
Al1 O1 C1 137.2(4) 1_555 1_555 n
C3 C3 C2 112.4(4) -2_557 1_555 n
C3 C2 C3 135.1(7) 1_555 2_555 n
C3 C2 C1 112.3(4) 1_555 1_555 n
C3 C2 C1 112.3(4) 2_555 1_555 n
O1 C1 O1 119.5(6) 1_555 2_555 n
O1 C1 C2 120.24(31) 1_555 1_555 n
O1 C1 C2 120.24(31) 2_555 1_555 n
loop_
_geom_bond_atom_site_label_1
_geom_bond_atom_site_label_2
_geom_bond_distance
_geom_bond_site_symmetry_2
_geom_bond_publ_flag
Al1 O2 1.8513(25) 1_555 n
Al1 O2 1.8513(25) -101_445 n
Al1 O1 1.8968(20) 1_555 n
Al1 O1 1.8968(20) 3_555 n
Al1 O1 1.8968(20) -101_445 n
Al1 O1 1.8968(20) -103_445 n
O2 Al1 1.8513(25) 1_555 n
O2 Al1 1.8513(25) 2_555 n
O1 Al1 1.8968(20) 1_555 n
O1 C1 1.2722(34) 1_555 n
C3 C3 1.450(7) -2_557 n
C3 C2 1.3694(31) 1_555 n
C2 C3 1.3694(31) 1_555 n
C2 C3 1.3694(31) 2_555 n
C2 C1 1.577(7) 1_555 n
C1 O1 1.2722(34) 1_555 n
C1 O1 1.2722(34) 2_555 n
C1 C2 1.577(7) 1_555 n
loop_
_pd_meas_intensity_total
_pd_proc_ls_weight
_pd_proc_intensity_bkg_calc
_pd_calc_intensity_total
16.0(21) 0.0 0.00 .
19.6(24) 0.0 0.00 .
19.8(24) 0.0 0.00 .
20.1(25) 0.0 0.00 .
19.8(25) 0.0 0.00 .
56(4) 0.0 0.0 .
91(5) 0.0 0.0 .
524(12) 0.0 0.0 .
971(17) 0.0 0.0 .
1962(24) 0.0 0.0 .
2241(25) 0.0 0.0 .
2262(25) 0.0 0.0 .
2319(26) 0.0 0.0 .
899(16) 0.0 0.0 .
80(5) 0.0 0.0 .
48(4) 0.0 0.0 .
36.2(31) 0.0 0.00 .
36.2(32) 0.0 0.00 .
29.5(28) 0.0 0.00 .
42(4) 0.0 0.0 .
164(7) 0.0 0.0 .
292(9) 0.0 0.0 .
623(14) 0.0 0.0 .
803(15) 0.0 0.0 .
883(16) 0.0 0.0 .
1077(17) 0.0 0.0 .
1221(19) 0.0 0.0 .
1390(21) 0.0 0.0 .
1597(22) 0.0 0.0 .
1650(21) 0.0 0.0 .
1830(22) 0.0 0.0 .
1962(24) 0.0 0.0 .
1753(23) 0.0 0.0 .
1482(21) 0.0 0.0 .
1129(17) 0.0 0.0 .
643(14) 0.0 0.0 .
311(9) 0.0 0.0 .
202(8) 0.0 0.0 .
141(6) 0.0 0.0 .
78(5) 0.0 0.0 .
39.3(33) 0.0 0.00 .
22.5(25) 0.0 0.00 .
32.9(33) 0.0 0.00 .
34.6(31) 0.0 0.00 .
28.2(28) 0.0 0.00 .
26.9(27) 0.0 0.00 .
26.0(30) 0.0 0.00 .
26.4(29) 0.0 0.00 .
28.4(28) 0.0 0.00 .
27.5(28) 0.0 0.00 .
26.7(27) 0.0 0.00 .
23.6(27) 0.0 0.00 .
18.9(23) 0.0 0.00 .
28.6(28) 0.0 0.00 .
29.5(29) 0.0 0.00 .
25.0(27) 0.0 0.00 .
26.6(27) 0.0 0.00 .
30.1(29) 0.0 0.00 .
33.2(32) 0.0 0.00 .
28.8(28) 0.0 0.00 .
30.0(30) 0.0 0.00 .
29.8(31) 0.0 0.00 .
26.9(27) 0.0 0.00 .
27.0(27) 0.0 0.00 .
27.1(27) 0.0 0.00 .
30.9(28) 0.0 0.00 .
40.2(35) 0.0 0.00 .
31.0(29) 0.0 0.00 .
26.4(27) 0.0 0.00 .
28.6(28) 0.0 0.00 .
33.5(31) 0.0 0.00 .
39.2(33) 0.0 0.00 .
37.9(31) 0.0 0.00 .
31.0(29) 0.0 0.00 .
32.9(29) 0.0 0.00 .
31.7(30) 0.0 0.00 .
40(4) 0.0 0.0 .
48(4) 0.0 0.0 .
41.7(34) 0.0 0.00 .
27.0(27) 0.0 0.00 .
39.6(34) 0.0 0.00 .
43(4) 0.0 0.0 .
37.0(32) 0.0 0.00 .
39.1(33) 0.0 0.00 .
37.7(32) 0.0 0.00 .
42(4) 0.0 0.0 .
37.4(34) 0.0 0.00 .
36.4(35) 0.0 0.00 .
41.2(34) 0.0 0.00 .
43.1(35) 0.0 0.00 .
36.2(31) 0.0 0.00 .
38.3(33) 0.0 0.00 .
44(4) 0.0 0.0 .
44.6(35) 0.0 0.00 .
43.0(34) 0.0 0.00 .
48(4) 0.0 0.0 .
60(4) 0.0 0.0 .
80(5) 0.0 0.0 .
88(5) 0.0 0.0 .
90(5) 0.0 0.0 .
96(5) 0.0 0.0 .
112(6) 0.0 0.0 .
126(6) 0.0 0.0 .
113(5) 0.0 0.0 .
136(6) 0.0 0.0 .
148(7) 0.0 0.0 .
156(7) 0.0 0.0 .
150(7) 0.0 0.0 .
173(7) 0.0 0.0 .
169(7) 0.0 0.0 .
175(7) 0.0 0.0 .
190(7) 0.0 0.0 .
216(8) 0.0 0.0 .
204(7) 0.0 0.0 .
221(8) 0.0 0.0 .
244(9) 0.0 0.0 .
236(8) 0.0 0.0 .
240(8) 0.0 0.0 .
263(8) 0.0 0.0 .
271(9) 0.0 0.0 .
286(9) 0.0 0.0 .
299(9) 0.0 0.0 .
308(9) 0.0 0.0 .
306(9) 0.0 0.0 .
334(10) 0.0 0.0 .
327(10) 0.0 0.0 .
339(10) 0.0 0.0 .
336(9) 0.0 0.0 .
339(10) 0.0 0.0 .
391(11) 0.0 0.0 .
369(11) 0.0 0.0 .
371(10) 0.0 0.0 .
381(10) 0.0 0.0 .
374(10) 0.0 0.0 .
437(11) 0.0 0.0 .
420(11) 0.0 0.0 .
430(11) 0.0 0.0 .
386(10) 0.0 0.0 .
433(11) 0.0 0.0 .
429(11) 0.0 0.0 .
461(12) 0.0 0.0 .
482(12) 0.0 0.0 .
471(11) 0.0 0.0 .
484(11) 0.0 0.0 .
494(12) 0.0 0.0 .
524(12) 0.0 0.0 .
481(12) 0.0 0.0 .
493(12) 0.0 0.0 .
510(12) 0.0 0.0 .
528(13) 0.0 0.0 .
501(12) 0.0 0.0 .
499(12) 0.0 0.0 .
540(12) 0.0 0.0 .
555(12) 0.0 0.0 .
510(12) 0.0 0.0 .
514(12) 0.0 0.0 .
527(12) 0.0 0.0 .
527(12) 0.0 0.0 .
548(13) 0.0 0.0 .
531(13) 0.0 0.0 .
576(13) 0.0 0.0 .
555(12) 0.0 0.0 .
567(12) 0.0 0.0 .
542(13) 0.0 0.0 .
550(13) 0.0 0.0 .
539(12) 0.0 0.0 .
569(12) 0.0 0.0 .
570(12) 0.0 0.0 .
558(13) 0.0 0.0 .
581(13) 0.0 0.0 .
584(13) 0.0 0.0 .
572(13) 0.0 0.0 .
589(13) 0.0 0.0 .
579(13) 0.0 0.0 .
595(13) 0.0 0.0 .
613(13) 0.0 0.0 .
603(13) 0.0 0.0 .
600(13) 0.0 0.0 .
634(13) 0.0 0.0 .
646(14) 0.0 0.0 .
607(13) 0.0 0.0 .
588(13) 0.0 0.0 .
633(13) 0.0 0.0 .
600(13) 0.0 0.0 .
597(14) 0.0 0.0 .
642(14) 0.0 0.0 .
627(13) 0.0 0.0 .
609(13) 0.0 0.0 .
630(13) 0.0 0.0 .
639(14) 0.0 0.0 .
669(14) 0.0 0.0 .
621(13) 0.0 0.0 .
653(13) 0.0 0.0 .
651(14) 0.0 0.0 .
683(14) 0.0 0.0 .
694(14) 0.0 0.0 .
713(14) 0.0 0.0 .
659(14) 0.0 0.0 .
665(14) 0.0 0.0 .
659(14) 0.0 0.0 .
663(14) 0.0 0.0 .
683(14) 0.0 0.0 .
687(14) 0.0 0.0 .
710(14) 0.0 0.0 .
729(15) 0.0 0.0 .
715(14) 0.0 0.0 .
664(13) 0.0 0.0 .
671(14) 0.0 0.0 .
712(15) 0.0 0.0 .
689(14) 0.0 0.0 .
713(14) 0.0 0.0 .
712(14) 0.0 0.0 .
734(15) 0.0 0.0 .
705(14) 0.0 0.0 .
700(14) 0.0 0.0 .
695(14) 0.0 0.0 .
740(14) 0.0 0.0 .
756(15) 0.0 0.0 .
719(15) 0.0 0.0 .
769(15) 0.0 0.0 .
770(15) 0.0 0.0 .
782(14) 0.0 0.0 .
795(15) 0.0 0.0 .
791(16) 0.0 0.0 .
804(15) 0.0 0.0 .
745(14) 0.0 0.0 .
757(14) 0.0 0.0 .
780(15) 0.0 0.0 .
772(15) 0.0 0.0 .
768(15) 0.0 0.0 .
787(15) 0.0 0.0 .
765(14) 0.0 0.0 .
803(15) 0.0 0.0 .
783(15) 0.0 0.0 .
782(15) 0.0 0.0 .
806(15) 0.0 0.0 .
788(15) 0.0 0.0 .
794(15) 0.0 0.0 .
785(15) 0.0 0.0 .
782(15) 0.0 0.0 .
825(15) 0.0 0.0 .
821(15) 0.0 0.0 .
813(15) 0.0 0.0 .
823(16) 0.0 0.0 .
838(16) 0.0 0.0 .
815(15) 0.0 0.0 .
826(15) 0.0 0.0 .
838(16) 0.0 0.0 .
843(16) 0.0 0.0 .
855(16) 0.0 0.0 .
843(15) 0.0 0.0 .
843(15) 0.0 0.0 .
844(16) 0.0 0.0 .
839(16) 0.0 0.0 .
853(16) 0.0 0.0 .
838(15) 0.0 0.0 .
813(15) 0.0 0.0 .
863(16) 0.0 0.0 .
814(15) 0.0 0.0 .
856(16) 0.0 0.0 .
863(15) 0.0 0.0 .
880(16) 0.0 0.0 .
869(16) 0.0 0.0 .
861(16) 0.0 0.0 .
882(16) 0.0 0.0 .
864(15) 0.0 0.0 .
803(15) 0.0 0.0 .
834(16) 0.0 0.0 .
890(16) 0.0 0.0 .
876(15) 0.0 0.0 .
806(15) 0.0 0.0 .
901(16) 0.0 0.0 .
860(16) 0.0 0.0 .
918(16) 0.0 0.0 .
898(16) 0.0 0.0 .
896(16) 0.0 0.0 .
904(16) 0.0 0.0 .
927(17) 0.0 0.0 .
915(16) 0.0 0.0 .
889(16) 0.0 0.0 .
888(15) 0.0 0.0 .
911(16) 0.0 0.0 .
904(17) 0.0 0.0 .
914(16) 0.0 0.0 .
938(16) 0.0 0.0 .
913(16) 0.0 0.0 .
911(16) 0.0 0.0 .
909(17) 0.0 0.0 .
917(16) 0.0 0.0 .
902(16) 0.0 0.0 .
956(16) 0.0 0.0 .
933(16) 0.0 0.0 .
940(17) 0.0 0.0 .
910(16) 0.0 0.0 .
895(15) 0.0 0.0 .
863(15) 0.0 0.0 .
909(16) 0.0 0.0 .
897(16) 0.0 0.0 .
922(16) 0.0 0.0 .
943(16) 0.0 0.0 .
912(16) 0.0 0.0 .
944(17) 0.0 0.0 .
965(17) 0.0 0.0 .
955(16) 0.0 0.0 .
955(16) 0.0 0.0 .
914(16) 0.0 0.0 .
983(17) 0.0 0.0 .
959(17) 0.0 0.0 .
946(16) 0.0 0.0 .
958(16) 0.0 0.0 .
928(16) 0.0 0.0 .
969(17) 0.0 0.0 .
945(17) 0.0 0.0 .
942(16) 0.0 0.0 .
979(16) 0.0 0.0 .
964(17) 0.0 0.0 .
934(17) 0.0 0.0 .
944(17) 0.0 0.0 .
971(16) 0.0 0.0 .
938(16) 0.0 0.0 .
984(17) 0.0 0.0 .
973(17) 0.0 0.0 .
938(16) 0.0 0.0 .
1000(16) 0.0 0.0 .
953(16) 0.0 0.0 .
939(16) 0.0 0.0 .
931(17) 0.0 0.0 .
985(17) 0.0 0.0 .
1005(17) 0.0 0.0 .
977(16) 0.0 0.0 .
973(17) 0.0 0.0 .
1015(18) 0.0 0.0 .
987(17) 0.0 0.0 .
970(16) 0.0 0.0 .
998(17) 0.0 0.0 .
953(17) 0.0 0.0 .
978(17) 0.0 0.0 .
1040(17) 0.0 0.0 .
954(16) 0.0 0.0 .
994(17) 0.0 0.0 .
1018(17) 0.0 0.0 .
966(17) 0.0 0.0 .
994(17) 0.0 0.0 .
979(16) 0.0 0.0 .
1002(17) 0.0 0.0 .
1002(17) 0.0 0.0 .
1021(17) 0.0 0.0 .
993(17) 0.0 0.0 .
1073(17) 0.0 0.0 .
1023(17) 0.0 0.0 .
1005(17) 0.0 0.0 .
1047(18) 0.0 0.0 .
1016(17) 0.0 0.0 .
1013(16) 0.0 0.0 .
1039(17) 0.0 0.0 .
1022(17) 0.0 0.0 .
1121(18) 0.0 0.0 .
1123(18) 0.0 0.0 .
1093(17) 0.0 0.0 .
1058(18) 0.0 0.0 .
1068(18) 0.0 0.0 .
1052(17) 0.0 0.0 .
1040(17) 0.0 0.0 .
1076(17) 0.0 0.0 .
1125(18) 0.0 0.0 .
1112(18) 0.0 0.0 .
1084(18) 0.0 0.0 .
1098(17) 0.0 0.0 .
1107(17) 0.0 0.0 .
1099(18) 0.0 0.0 .
1124(18) 0.0 0.0 .
1135(18) 0.0 0.0 .
1130(18) 0.0 0.0 .
1113(17) 0.0 0.0 .
1126(18) 0.0 0.0 .
1146(19) 0.0 0.0 .
1128(18) 0.0 0.0 .
1112(17) 0.0 0.0 .
1124(18) 0.0 0.0 .
1185(18) 0.0 0.0 .
1173(19) 0.0 0.0 .
1128(18) 0.0 0.0 .
1158(18) 0.0 0.0 .
1134(18) 0.0 0.0 .
1170(19) 0.0 0.0 .
1115(18) 0.0 0.0 .
1157(18) 0.0 0.0 .
1179(18) 0.0 0.0 .
1193(18) 0.0 0.0 .
1173(18) 0.0 0.0 .
1133(18) 0.0 0.0 .
1152(18) 0.0 0.0 .
1159(18) 0.0 0.0 .
1159(18) 0.0 0.0 .
1163(18) 0.0 0.0 .
1142(18) 0.0 0.0 .
1173(18) 0.0 0.0 .
1178(18) 0.0 0.0 .
1183(18) 0.0 0.0 .
1195(19) 0.0 0.0 .
1194(19) 0.0 0.0 .
1195(18) 0.0 0.0 .
1195(18) 0.0 0.0 .
1194(18) 0.0 0.0 .
1154(18) 0.0 0.0 .
1212(19) 0.0 0.0 .
1213(18) 0.0 0.0 .
1203(18) 0.0 0.0 .
1239(19) 0.0 0.0 .
1215(19) 0.0 0.0 .
1198(19) 0.0 0.0 .
1211(18) 0.0 0.0 .
1236(18) 0.0 0.0 .
1236(19) 0.0 0.0 .
1257(19) 0.0 0.0 .
1266(19) 0.0 0.0 .
1210(18) 0.0 0.0 .
1187(18) 0.0 0.0 .
1196(19) 0.0 0.0 .
1262(19) 0.0 0.0 .
1243(19) 0.0 0.0 .
1219(18) 0.0 0.0 .
1253(18) 0.0 0.0 .
1291(19) 0.0 0.0 .
1232(19) 0.0 0.0 .
1241(19) 0.0 0.0 .
1224(18) 0.0 0.0 .
1232(18) 0.0 0.0 .
1208(19) 0.0 0.0 .
1253(20) 0.0 0.0 .
1220(19) 0.0 0.0 .
1270(19) 0.0 0.0 .
1252(18) 0.0 0.0 .
1292(19) 0.0 0.0 .
1260(20) 0.0 0.0 .
1272(19) 0.0 0.0 .
1287(19) 0.0 0.0 .
1233(18) 0.0 0.0 .
1269(19) 0.0 0.0 .
1257(19) 0.0 0.0 .
1237(19) 0.0 0.0 .
1322(19) 0.0 0.0 .
1217(18) 0.0 0.0 .
1219(19) 0.0 0.0 .
1235(19) 0.0 0.0 .
1224(19) 0.0 0.0 .
1272(19) 0.0 0.0 .
1246(19) 0.0 0.0 .
1283(19) 0.0 0.0 .
1239(19) 0.0 0.0 .
1229(19) 0.0 0.0 .
1230(18) 0.0 0.0 .
1185(18) 0.0 0.0 .
1275(19) 0.0 0.0 .
1270(19) 0.0 0.0 .
1210(19) 0.0 0.0 .
1226(18) 0.0 0.0 .
1215(19) 0.0 0.0 .
1269(19) 0.0 0.0 .
1286(19) 0.0 0.0 .
1280(19) 0.0 0.0 .
1246(18) 0.0 0.0 .
1214(19) 0.0 0.0 .
1219(19) 0.0 0.0 .
1229(19) 0.0 0.0 .
1254(19) 0.0 0.0 .
1221(18) 0.0 0.0 .
1243(19) 0.0 0.0 .
1253(19) 0.0 0.0 .
1238(19) 0.0 0.0 .
1264(19) 0.0 0.0 .
1246(18) 0.0 0.0 .
1239(19) 0.0 0.0 .
1219(19) 0.0 0.0 .
1198(18) 0.0 0.0 .
1212(18) 0.0 0.0 .
1199(18) 0.0 0.0 .
1198(18) 0.0 0.0 .
1318(20) 0.0 0.0 .
1245(19) 0.0 0.0 .
1233(18) 0.0 0.0 .
1238(18) 0.0 0.0 .
1167(18) 0.0 0.0 .
1255(20) 0.0 0.0 .
1248(19) 0.0 0.0 .
1239(18) 0.0 0.0 .
1259(18) 0.0 0.0 .
1282(19) 0.0 0.0 .
1262(20) 0.0 0.0 .
1289(19) 0.0 0.0 .
1212(18) 0.0 0.0 .
1229(18) 0.0 0.0 .
1239(19) 0.0 0.0 .
1247(20) 0.0 0.0 .
1213(19) 0.0 0.0 .
1208(18) 0.0 0.0 .
1221(18) 0.0 0.0 .
1225(19) 0.0 0.0 .
1215(19) 0.0 0.0 .
1226(19) 0.0 0.0 .
1253(18) 0.0 0.0 .
1236(19) 0.0 0.0 .
1237(19) 0.0 0.0 .
1252(19) 0.0 0.0 .
1282(19) 0.0 0.0 .
1274(19) 0.0 0.0 .
1287(19) 0.0 0.0 .
1249(19) 0.0 0.0 .
1294(20) 0.0 0.0 .
1239(19) 0.0 0.0 .
1218(18) 0.0 0.0 .
1246(19) 0.0 0.0 .
1275(19) 0.0 0.0 .
1282(19) 0.0 0.0 .
1223(18) 0.0 0.0 .
1272(18) 0.0 0.0 .
1209(19) 0.0 0.0 .
1241(20) 0.0 0.0 .
1225(19) 0.0 0.0 .
1300(19) 0.0 0.0 .
1252(18) 0.0 0.0 .
1223(19) 0.0 0.0 .
1264(20) 0.0 0.0 .
1211(19) 0.0 0.0 .
1276(19) 0.0 0.0 .
1244(18) 0.0 0.0 .
1194(18) 0.0 0.0 .
1291(20) 0.0 0.0 .
1244(19) 0.0 0.0 .
1247(18) 0.0 0.0 .
1227(18) 0.0 0.0 .
1200(19) 0.0 0.0 .
1197(19) 0.0 0.0 .
1184(18) 0.0 0.0 .
1247(18) 0.0 0.0 .
1241(18) 0.0 0.0 .
1228(19) 0.0 0.0 .
1245(20) 0.0 0.0 .
1238(19) 0.0 0.0 .
1198(18) 0.0 0.0 .
1207(18) 0.0 0.0 .
1226(19) 0.0 0.0 .
1224(19) 0.0 0.0 .
1188(19) 0.0 0.0 .
1249(18) 0.0 0.0 .
1280(19) 0.0 0.0 .
1210(19) 0.0 0.0 .
1219(19) 0.0 0.0 .
1165(18) 0.0 0.0 .
1236(18) 0.0 0.0 .
1218(18) 0.0 0.0 .
1240(19) 0.0 0.0 .
1220(19) 0.0 0.0 .
1219(19) 0.0 0.0 .
1248(18) 0.0 0.0 .
1211(19) 0.0 0.0 .
1189(19) 0.0 0.0 .
1258(19) 0.0 0.0 .
1219(18) 0.0 0.0 .
1193(18) 0.0 0.0 .
1220(19) 0.0 0.0 .
1208(19) 0.0 0.0 .
1220(19) 0.0 0.0 .
1240(18) 0.0 0.0 .
1178(18) 0.0 0.0 .
1219(19) 0.0 0.0 .
1191(19) 0.0 0.0 .
1193(19) 0.0 0.0 .
1203(18) 0.0 0.0 .
1194(18) 0.0 0.0 .
1268(19) 0.0 0.0 .
1272(20) 0.0 0.0 .
1219(19) 0.0 0.0 .
1183(18) 0.0 0.0 .
1195(18) 0.0 0.0 .
1190(18) 0.0 0.0 .
1226(20) 0.0 0.0 .
1244(19) 0.0 0.0 .
1213(18) 0.0 0.0 .
1239(18) 0.0 0.0 .
1223(19) 0.0 0.0 .
1222(19) 0.0 0.0 .
1177(18) 0.0 0.0 .
1181(18) 0.0 0.0 .
1230(18) 0.0 0.0 .
1252(19) 0.0 0.0 .
1208(19) 0.0 0.0 .
1190(18) 0.0 0.0 .
1185(18) 0.0 0.0 .
1171(18) 0.0 0.0 .
1198(18) 0.0 0.0 .
1256(20) 0.0 0.0 .
1196(19) 0.0 0.0 .
1155(18) 0.0 0.0 .
1188(18) 0.0 0.0 .
1185(18) 0.0 0.0 .
1193(19) 0.0 0.0 .
1213(19) 0.0 0.0 .
1193(18) 0.0 0.0 .
1187(18) 0.0 0.0 .
1143(18) 0.0 0.0 .
1191(19) 0.0 0.0 .
1180(18) 0.0 0.0 .
1152(18) 0.0 0.0 .
1197(19) 0.0 0.0 .
1187(19) 0.0 0.0 .
1169(19) 0.0 0.0 .
1205(18) 0.0 0.0 .
1211(18) 0.0 0.0 .
1176(18) 0.0 0.0 .
1183(19) 0.0 0.0 .
1126(18) 0.0 0.0 .
1187(18) 0.0 0.0 .
1175(18) 0.0 0.0 .
1131(18) 0.0 0.0 .
1174(19) 0.0 0.0 .
1151(18) 0.0 0.0 .
1126(17) 0.0 0.0 .
1195(18) 0.0 0.0 .
1169(18) 0.0 0.0 .
1144(18) 0.0 0.0 .
1202(19) 0.0 0.0 .
1171(18) 0.0 0.0 .
1167(18) 0.0 0.0 .
1147(18) 0.0 0.0 .
1157(19) 0.0 0.0 .
1151(18) 0.0 0.0 .
1130(17) 0.0 0.0 .
1167(18) 0.0 0.0 .
1138(18) 0.0 0.0 .
1156(19) 0.0 0.0 .
1154(18) 0.0 0.0 .
1169(18) 0.0 0.0 .
1138(18) 0.0 0.0 .
1159(18) 0.0 0.0 .
1150(19) 0.0 0.0 .
1170(18) 0.0 0.0 .
1142(18) 0.0 0.0 .
1147(18) 0.0 0.0 .
1198(19) 0.0 0.0 .
1180(19) 0.0 0.0 .
1212(19) 0.0 0.0 .
1144(18) 0.0 0.0 .
1135(18) 0.0 0.0 .
1149(18) 0.0 0.0 .
1156(19) 0.0 0.0 .
1137(18) 0.0 0.0 .
1105(17) 0.0 0.0 .
1105(18) 0.0 0.0 .
1147(18) 0.0 0.0 .
1108(18) 0.0 0.0 .
1100(18) 0.0 0.0 .
1163(18) 0.0 0.0 .
1166(18) 0.0 0.0 .
1130(18) 0.0 0.0 .
1129(18) 0.0 0.0 .
1151(18) 0.0 0.0 .
1145(18) 0.0 0.0 .
1079(18) 0.0 0.0 .
1123(18) 0.0 0.0 .
1141(18) 0.0 0.0 .
1106(18) 0.0 0.0 .
1124(17) 0.0 0.0 .
1098(18) 0.0 0.0 .
1107(18) 0.0 0.0 .
1104(18) 0.0 0.0 .
1156(18) 0.0 0.0 .
1132(17) 0.0 0.0 .
1138(18) 0.0 0.0 .
1147(19) 0.0 0.0 .
1156(18) 0.0 0.0 .
1152(18) 0.0 0.0 .
1068(17) 0.0 0.0 .
1092(18) 0.0 0.0 .
1122(18) 0.0 0.0 .
1138(18) 0.0 0.0 .
1075(17) 0.0 0.0 .
1053(17) 0.0 0.0 .
1091(18) 0.0 0.0 .
1102(19) 0.0 0.0 .
1079(18) 0.0 0.0 .
1054(17) 0.0 0.0 .
1090(17) 0.0 0.0 .
1127(18) 0.0 0.0 .
1122(19) 0.0 0.0 .
1131(18) 0.0 0.0 .
1116(17) 0.0 0.0 .
1085(17) 0.0 0.0 .
1080(18) 0.0 0.0 .
1106(18) 0.0 0.0 .
1069(18) 0.0 0.0 .
1099(17) 0.0 0.0 .
1083(17) 0.0 0.0 .
1067(17) 0.0 0.0 .
1092(18) 0.0 0.0 .
1094(18) 0.0 0.0 .
1082(17) 0.0 0.0 .
1095(17) 0.0 0.0 .
1098(18) 0.0 0.0 .
1042(18) 0.0 0.0 .
1051(17) 0.0 0.0 .
1145(18) 0.0 0.0 .
1047(17) 0.0 0.0 .
1026(17) 0.0 0.0 .
1061(18) 0.0 0.0 .
1070(17) 0.0 0.0 .
1046(17) 0.0 0.0 .
1056(17) 0.0 0.0 .
1078(18) 0.0 0.0 .
1074(18) 0.0 0.0 .
1034(17) 0.0 0.0 .
1050(17) 0.0 0.0 .
1017(17) 0.0 0.0 .
1042(18) 0.0 0.0 .
1044(18) 0.0 0.0 .
1065(17) 0.0 0.0 .
1067(17) 0.0 0.0 .
1083(18) 0.0 0.0 .
1074(18) 0.0 0.0 .
1059(17) 0.0 0.0 .
1078(17) 0.0 0.0 .
1068(17) 0.0 0.0 .
1034(17) 0.0 0.0 .
1069(18) 0.0 0.0 .
1086(18) 0.0 0.0 .
1077(17) 0.0 0.0 .
1042(17) 0.0 0.0 .
1048(17) 0.0 0.0 .
1051(18) 0.0 0.0 .
1033(17) 0.0 0.0 .
1075(17) 0.0 0.0 .
1065(17) 0.0 0.0 .
1053(17) 0.0 0.0 .
1028(18) 0.0 0.0 .
1044(18) 0.0 0.0 .
1026(17) 0.0 0.0 .
1012(17) 0.0 0.0 .
1044(17) 0.0 0.0 .
1061(18) 0.0 0.0 .
1082(18) 0.0 0.0 .
1029(17) 0.0 0.0 .
978(16) 0.0 0.0 .
1034(17) 0.0 0.0 .
1027(18) 0.0 0.0 .
1064(18) 0.0 0.0 .
1077(17) 0.0 0.0 .
1042(17) 0.0 0.0 .
1081(18) 0.0 0.0 .
1081(18) 0.0 0.0 .
1024(17) 0.0 0.0 .
1055(17) 0.0 0.0 .
1029(17) 0.0 0.0 .
1060(18) 0.0 0.0 .
1053(18) 0.0 0.0 .
1027(17) 0.0 0.0 .
1033(17) 0.0 0.0 .
1006(17) 0.0 0.0 .
1007(17) 0.0 0.0 .
1059(18) 0.0 0.0 .
970(16) 0.0 0.0 .
1030(17) 0.0 0.0 .
1010(17) 0.0 0.0 .
1010(17) 0.0 0.0 .
984(17) 0.0 0.0 .
1038(17) 0.0 0.0 .
1059(17) 0.0 0.0 .
1042(17) 0.0 0.0 .
1053(18) 0.0 0.0 .
1045(17) 0.0 0.0 .
1047(17) 0.0 0.0 .
981(16) 0.0 0.0 .
997(17) 0.0 0.0 .
1009(18) 0.0 0.0 .
1031(17) 0.0 0.0 .
1014(17) 0.0 0.0 .
1024(17) 0.0 0.0 .
941(16) 0.0 0.0 .
1003(17) 0.0 0.0 .
993(17) 0.0 0.0 .
1005(16) 0.0 0.0 .
969(16) 0.0 0.0 .
1017(17) 0.0 0.0 .
992(17) 0.0 0.0 .
1016(17) 0.0 0.0 .
1034(17) 0.0 0.0 .
1014(17) 0.0 0.0 .
1033(17) 0.0 0.0 .
1022(18) 0.0 0.0 .
974(17) 0.0 0.0 .
979(16) 0.0 0.0 .
995(17) 0.0 0.0 .
966(17) 0.0 0.0 .
1003(17) 0.0 0.0 .
1028(17) 0.0 0.0 .
969(16) 0.0 0.0 .
998(16) 0.0 0.0 .
994(17) 0.0 0.0 .
970(17) 0.0 0.0 .
976(17) 0.0 0.0 .
1005(17) 0.0 0.0 .
1002(17) 0.0 0.0 .
961(16) 0.0 0.0 .
998(17) 0.0 0.0 .
989(17) 0.0 0.0 .
989(16) 0.0 0.0 .
965(17) 0.0 0.0 .
974(17) 0.0 0.0 .
952(16) 0.0 0.0 .
1007(17) 0.0 0.0 .
990(16) 0.0 0.0 .
965(16) 0.0 0.0 .
978(17) 0.0 0.0 .
959(17) 0.0 0.0 .
948(16) 0.0 0.0 .
965(16) 0.0 0.0 .
964(17) 0.0 0.0 .
954(17) 0.0 0.0 .
949(16) 0.0 0.0 .
927(16) 0.0 0.0 .
925(16) 0.0 0.0 .
964(17) 0.0 0.0 .
1013(18) 0.0 0.0 .
998(17) 0.0 0.0 .
975(16) 0.0 0.0 .
982(16) 0.0 0.0 .
995(17) 0.0 0.0 .
996(17) 0.0 0.0 .
990(17) 0.0 0.0 .
1020(17) 0.0 0.0 .
994(16) 0.0 0.0 .
968(17) 0.0 0.0 .
954(17) 0.0 0.0 .
942(16) 0.0 0.0 .
1028(17) 0.0 0.0 .
972(16) 0.0 0.0 .
935(16) 0.0 0.0 .
958(17) 0.0 0.0 .
953(16) 0.0 0.0 .
990(16) 0.0 0.0 .
959(16) 0.0 0.0 .
960(17) 0.0 0.0 .
995(18) 0.0 0.0 .
995(17) 0.0 0.0 .
963(16) 0.0 0.0 .
972(16) 0.0 0.0 .
971(17) 0.0 0.0 .
963(17) 0.0 0.0 .
958(17) 0.0 0.0 .
949(16) 0.0 0.0 .
958(16) 0.0 0.0 .
951(17) 0.0 0.0 .
925(16) 0.0 0.0 .
965(17) 0.0 0.0 .
960(16) 0.0 0.0 .
961(16) 0.0 0.0 .
963(17) 0.0 0.0 .
963(17) 0.0 0.0 .
949(16) 0.0 0.0 .
951(16) 0.0 0.0 .
942(16) 0.0 0.0 .
943(17) 0.0 0.0 .
927(16) 0.0 0.0 .
941(16) 0.0 0.0 .
937(16) 0.0 0.0 .
940(17) 0.0 0.0 .
929(17) 0.0 0.0 .
987(17) 0.0 0.0 .
971(16) 0.0 0.0 .
940(16) 0.0 0.0 .
999(17) 0.0 0.0 .
945(17) 0.0 0.0 .
932(17) 0.0 0.0 .
903(16) 0.0 0.0 .
973(16) 0.0 0.0 .
903(16) 0.0 0.0 .
931(17) 0.0 0.0 .
967(17) 0.0 0.0 .
904(16) 0.0 0.0 .
951(16) 0.0 0.0 .
946(16) 0.0 0.0 .
914(17) 0.0 0.0 .
928(16) 0.0 0.0 .
949(16) 0.0 0.0 .
942(16) 0.0 0.0 .
923(16) 0.0 0.0 .
945(17) 0.0 0.0 .
900(16) 0.0 0.0 .
924(16) 0.0 0.0 .
901(16) 0.0 0.0 .
929(16) 0.0 0.0 .
937(17) 0.0 0.0 .
912(16) 0.0 0.0 .
879(15) 0.0 0.0 .
928(16) 0.0 0.0 .
908(16) 0.0 0.0 .
907(16) 0.0 0.0 .
934(16) 0.0 0.0 .
881(15) 0.0 0.0 .
895(16) 0.0 0.0 .
886(16) 0.0 0.0 .
883(16) 0.0 0.0 .
918(16) 0.0 0.0 .
876(15) 0.0 0.0 .
917(16) 0.0 0.0 .
901(16) 0.0 0.0 .
967(17) 0.0 0.0 .
913(16) 0.0 0.0 .
880(15) 0.0 0.0 .
925(16) 0.0 0.0 .
906(16) 0.0 0.0 .
908(16) 0.0 0.0 .
886(16) 0.0 0.0 .
909(16) 0.0 0.0 .
928(17) 0.0 0.0 .
910(16) 0.0 0.0 .
862(16) 0.0 0.0 .
866(16) 0.0 0.0 .
887(15) 0.0 0.0 .
904(16) 0.0 0.0 .
884(16) 0.0 0.0 .
904(16) 0.0 0.0 .
913(16) 0.0 0.0 .
916(16) 0.0 0.0 .
896(16) 0.0 0.0 .
922(17) 0.0 0.0 .
900(16) 0.0 0.0 .
884(16) 0.0 0.0 .
883(15) 0.0 0.0 .
875(16) 0.0 0.0 .
921(17) 0.0 0.0 .
929(16) 0.0 0.0 .
885(15) 0.0 0.0 .
930(16) 0.0 0.0 .
918(16) 0.0 0.0 .
892(17) 0.0 0.0 .
947(17) 0.0 0.0 .
924(16) 0.0 0.0 .
901(16) 0.0 0.0 .
928(16) 0.0 0.0 .
859(16) 0.0 0.0 .
884(16) 0.0 0.0 .
904(16) 0.0 0.0 .
858(15) 0.0 0.0 .
886(16) 0.0 0.0 .
842(16) 0.0 0.0 .
906(16) 0.0 0.0 .
879(15) 0.0 0.0 .
894(16) 0.0 0.0 .
904(16) 0.0 0.0 .
867(16) 0.0 0.0 .
873(16) 0.0 0.0 .
863(15) 0.0 0.0 .
889(16) 0.0 0.0 .
861(16) 0.0 0.0 .
891(16) 0.0 0.0 .
885(16) 0.0 0.0 .
876(15) 0.0 0.0 .
873(16) 0.0 0.0 .
855(16) 0.0 0.0 .
860(16) 0.0 0.0 .
894(16) 0.0 0.0 .
867(15) 0.0 0.0 .
875(16) 0.0 0.0 .
885(16) 0.0 0.0 .
867(16) 0.0 0.0 .
860(15) 0.0 0.0 .
869(15) 0.0 0.0 .
869(16) 0.0 0.0 .
853(16) 0.0 0.0 .
870(16) 0.0 0.0 .
845(15) 0.0 0.0 .
882(15) 0.0 0.0 .
846(16) 0.0 0.0 .
860(16) 0.0 0.0 .
896(16) 0.0 0.0 .
893(16) 0.0 0.0 .
858(15) 0.0 0.0 .
841(15) 0.0 0.0 .
849(16) 0.0 0.0 .
857(16) 0.0 0.0 .
889(16) 0.0 0.0 .
856(15) 0.0 0.0 .
848(16) 0.0 0.0 .
865(17) 0.0 0.0 .
812(15) 0.0 0.0 .
867(15) 0.0 0.0 .
867(15) 0.0 0.0 .
849(16) 0.0 0.0 .
828(16) 0.0 0.0 .
826(15) 0.0 0.0 .
848(15) 0.0 0.0 .
871(16) 0.0 0.0 .
819(15) 0.0 0.0 .
869(16) 0.0 0.0 .
853(16) 0.0 0.0 .
851(15) 0.0 0.0 .
868(16) 0.0 0.0 .
872(16) 0.0 0.0 .
867(16) 0.0 0.0 .
866(16) 0.0 0.0 .
796(15) 0.0 0.0 .
843(15) 0.0 0.0 .
818(15) 0.0 0.0 .
812(15) 0.0 0.0 .
830(15) 0.0 0.0 .
859(15) 0.0 0.0 .
850(15) 0.0 0.0 .
864(16) 0.0 0.0 .
858(16) 0.0 0.0 .
853(15) 0.0 0.0 .
826(15) 0.0 0.0 .
797(15) 0.0 0.0 .
798(16) 0.0 0.0 .
807(15) 0.0 0.0 .
824(15) 0.0 0.0 .
868(15) 0.0 0.0 .
841(16) 0.0 0.0 .
830(16) 0.0 0.0 .
808(15) 0.0 0.0 .
783(15) 0.0 0.0 .
852(15) 0.0 0.0 .
855(16) 0.0 0.0 .
820(16) 0.0 0.0 .
821(15) 0.0 0.0 .
816(15) 0.0 0.0 .
809(15) 0.0 0.0 .
810(15) 0.0 0.0 .
835(16) 0.0 0.0 .
783(15) 0.0 0.0 .
790(15) 0.0 0.0 .
817(15) 0.0 0.0 .
773(15) 0.0 0.0 .
808(16) 0.0 0.0 .
813(15) 0.0 0.0 .
836(15) 0.0 0.0 .
847(15) 0.0 0.0 .
782(15) 0.0 0.0 .
784(16) 0.0 0.0 .
823(15) 0.0 0.0 .
787(15) 0.0 0.0 .
784(15) 0.0 0.0 .
780(15) 0.0 0.0 .
816(16) 0.0 0.0 .
827(16) 0.0 0.0 .
771(14) 0.0 0.0 .
797(15) 0.0 0.0 .
820(15) 0.0 0.0 .
781(15) 0.0 0.0 .
812(15) 0.0 0.0 .
821(15) 0.0 0.0 .
820(15) 0.0 0.0 .
752(15) 0.0 0.0 .
820(16) 0.0 0.0 .
800(15) 0.0 0.0 .
790(15) 0.0 0.0 .
753(14) 0.0 0.0 .
789(15) 0.0 0.0 .
778(15) 0.0 0.0 .
737(15) 0.0 0.0 .
785(15) 0.0 0.0 .
780(15) 0.0 0.0 .
833(16) 0.0 0.0 .
808(16) 0.0 0.0 .
768(15) 0.0 0.0 .
813(15) 0.0 0.0 .
812(15) 0.0 0.0 .
767(15) 0.0 0.0 .
787(15) 0.0 0.0 .
780(15) 0.0 0.0 .
796(15) 0.0 0.0 .
772(15) 0.0 0.0 .
761(15) 0.0 0.0 .
784(15) 0.0 0.0 .
771(15) 0.0 0.0 .
750(14) 0.0 0.0 .
760(15) 0.0 0.0 .
762(15) 0.0 0.0 .
753(15) 0.0 0.0 .
753(14) 0.0 0.0 .
756(14) 0.0 0.0 .
774(15) 0.0 0.0 .
777(15) 0.0 0.0 .
774(15) 0.0 0.0 .
785(15) 0.0 0.0 .
787(15) 0.0 0.0 .
798(15) 0.0 0.0 .
816(16) 0.0 0.0 .
765(15) 0.0 0.0 .
767(14) 0.0 0.0 .
747(14) 0.0 0.0 .
767(15) 0.0 0.0 .
766(15) 0.0 0.0 .
788(15) 0.0 0.0 .
812(15) 0.0 0.0 .
742(14) 0.0 0.0 .
713(14) 0.0 0.0 .
785(15) 0.0 0.0 .
746(15) 0.0 0.0 .
754(14) 0.0 0.0 .
758(15) 0.0 0.0 .
746(15) 0.0 0.0 .
791(16) 0.0 0.0 .
737(14) 0.0 0.0 .
757(14) 0.0 0.0 .
748(14) 0.0 0.0 .
741(15) 0.0 0.0 .
761(15) 0.0 0.0 .
767(15) 0.0 0.0 .
744(14) 0.0 0.0 .
748(14) 0.0 0.0 .
716(14) 0.0 0.0 .
736(15) 0.0 0.0 .
735(14) 0.0 0.0 .
743(14) 0.0 0.0 .
747(15) 0.0 0.0 .
765(15) 0.0 0.0 .
791(15) 0.0 0.0 .
785(15) 0.0 0.0 .
744(14) 0.0 0.0 .
732(15) 0.0 0.0 .
751(15) 0.0 0.0 .
773(15) 0.0 0.0 .
734(14) 0.0 0.0 .
763(14) 0.0 0.0 .
754(15) 0.0 0.0 .
748(15) 0.0 0.0 .
730(14) 0.0 0.0 .
760(14) 0.0 0.0 .
760(14) 0.0 0.0 .
774(15) 0.0 0.0 .
776(16) 0.0 0.0 .
778(15) 0.0 0.0 .
742(14) 0.0 0.0 .
724(14) 0.0 0.0 .
736(15) 0.0 0.0 .
717(15) 0.0 0.0 .
764(15) 0.0 0.0 .
726(14) 0.0 0.0 .
704(14) 0.0 0.0 .
713(14) 0.0 0.0 .
747(15) 0.0 0.0 .
727(15) 0.0 0.0 .
753(14) 0.0 0.0 .
746(14) 0.0 0.0 .
750(15) 0.0 0.0 .
747(15) 0.0 0.0 .
712(14) 0.0 0.0 .
720(14) 0.0 0.0 .
769(15) 0.0 0.0 .
716(14) 0.0 0.0 .
708(14) 0.0 0.0 .
732(15) 0.0 0.0 .
745(14) 0.0 0.0 .
734(14) 0.0 0.0 .
740(15) 0.0 0.0 .
695(14) 0.0 0.0 .
716(14) 0.0 0.0 .
769(14) 0.0 0.0 .
737(14) 0.0 0.0 .
727(15) 0.0 0.0 .
746(15) 0.0 0.0 .
771(15) 0.0 0.0 .
704(14) 0.0 0.0 .
691(14) 0.0 0.0 .
746(15) 0.0 0.0 .
705(14) 0.0 0.0 .
731(14) 0.0 0.0 .
753(14) 0.0 0.0 .
714(14) 0.0 0.0 .
737(15) 0.0 0.0 .
728(14) 0.0 0.0 .
712(14) 0.0 0.0 .
693(14) 0.0 0.0 .
691(14) 0.0 0.0 .
726(15) 0.0 0.0 .
733(15) 0.0 0.0 .
720(14) 0.0 0.0 .
745(14) 0.0 0.0 .
747(15) 0.0 0.0 .
688(14) 0.0 0.0 .
719(14) 0.0 0.0 .
697(14) 0.0 0.0 .
695(14) 0.0 0.0 .
731(15) 0.0 0.0 .
690(14) 0.0 0.0 .
710(14) 0.0 0.0 .
715(14) 0.0 0.0 .
727(14) 0.0 0.0 .
744(14) 0.0 0.0 .
746(15) 0.0 0.0 .
698(14) 0.0 0.0 .
741(14) 0.0 0.0 .
727(14) 0.0 0.0 .
731(14) 0.0 0.0 .
723(15) 0.0 0.0 .
728(15) 0.0 0.0 .
679(13) 0.0 0.0 .
665(14) 0.0 0.0 .
719(14) 0.0 0.0 .
728(15) 0.0 0.0 .
719(15) 0.0 0.0 .
710(14) 0.0 0.0 .
715(14) 0.0 0.0 .
691(14) 0.0 0.0 .
691(14) 0.0 0.0 .
702(14) 0.0 0.0 .
728(14) 0.0 0.0 .
666(14) 0.0 0.0 .
693(14) 0.0 0.0 .
697(14) 0.0 0.0 .
709(14) 0.0 0.0 .
699(14) 0.0 0.0 .
755(15) 0.0 0.0 .
714(15) 0.0 0.0 .
702(14) 0.0 0.0 .
654(13) 0.0 0.0 .
674(13) 0.0 0.0 .
715(15) 0.0 0.0 .
727(15) 0.0 0.0 .
668(14) 0.0 0.0 .
690(14) 0.0 0.0 .
675(14) 0.0 0.0 .
694(14) 0.0 0.0 .
721(15) 0.0 0.0 .
680(14) 0.0 0.0 .
692(14) 0.0 0.0 .
733(14) 0.0 0.0 .
700(14) 0.0 0.0 .
705(15) 0.0 0.0 .
735(15) 0.0 0.0 .
701(14) 0.0 0.0 .
706(14) 0.0 0.0 .
683(14) 0.0 0.0 .
687(15) 0.0 0.0 .
718(14) 0.0 0.0 .
726(14) 0.0 0.0 .
682(14) 0.0 0.0 .
713(14) 0.0 0.0 .
717(15) 0.0 0.0 .
678(14) 0.0 0.0 .
678(14) 0.0 0.0 .
687(14) 0.0 0.0 .
746(15) 0.0 0.0 .
686(14) 0.0 0.0 .
685(14) 0.0 0.0 .
709(14) 0.0 0.0 .
700(14) 0.0 0.0 .
687(14) 0.0 0.0 .
715(15) 0.0 0.0 .
693(14) 0.0 0.0 .
699(14) 0.0 0.0 .
684(14) 0.0 0.0 .
691(14) 0.0 0.0 .
702(14) 0.0 0.0 .
676(14) 0.0 0.0 .
673(13) 0.0 0.0 .
678(14) 0.0 0.0 .
673(14) 0.0 0.0 .
728(15) 0.0 0.0 .
676(14) 0.0 0.0 .
691(14) 0.0 0.0 .
673(14) 0.0 0.0 .
673(14) 0.0 0.0 .
701(14) 0.0 0.0 .
701(14) 0.0 0.0 .
681(14) 0.0 0.0 .
697(14) 0.0 0.0 .
692(14) 0.0 0.0 .
681(14) 0.0 0.0 .
665(14) 0.0 0.0 .
669(13) 0.0 0.0 .
688(14) 0.0 0.0 .
658(14) 0.0 0.0 .
689(14) 0.0 0.0 .
685(14) 0.0 0.0 .
713(14) 0.0 0.0 .
690(14) 0.0 0.0 .
666(14) 0.0 0.0 .
666(14) 0.0 0.0 .
679(14) 0.0 0.0 .
722(14) 0.0 0.0 .
695(14) 0.0 0.0 .
696(15) 0.0 0.0 .
721(14) 0.0 0.0 .
664(13) 0.0 0.0 .
698(14) 0.0 0.0 .
687(14) 0.0 0.0 .
700(15) 0.0 0.0 .
644(14) 0.0 0.0 .
708(14) 0.0 0.0 .
641(13) 0.0 0.0 .
689(14) 0.0 0.0 .
719(15) 0.0 0.0 .
665(14) 0.0 0.0 .
652(13) 0.0 0.0 .
666(13) 0.0 0.0 .
665(14) 0.0 0.0 .
670(14) 0.0 0.0 .
669(14) 0.0 0.0 .
688(14) 0.0 0.0 .
662(13) 0.0 0.0 .
695(14) 0.0 0.0 .
637(14) 0.0 0.0 .
642(14) 0.0 0.0 .
674(14) 0.0 0.0 .
647(13) 0.0 0.0 .
663(14) 0.0 0.0 .
649(14) 0.0 0.0 .
660(14) 0.0 0.0 .
658(13) 0.0 0.0 .
689(14) 0.0 0.0 .
677(14) 0.0 0.0 .
662(14) 0.0 0.0 .
696(14) 0.0 0.0 .
674(14) 0.0 0.0 .
687(14) 0.0 0.0 .
665(14) 0.0 0.0 .
691(14) 0.0 0.0 .
681(14) 0.0 0.0 .
646(13) 0.0 0.0 .
660(14) 0.0 0.0 .
669(14) 0.0 0.0 .
678(14) 0.0 0.0 .
648(13) 0.0 0.0 .
653(13) 0.0 0.0 .
625(13) 0.0 0.0 .
656(14) 0.0 0.0 .
651(14) 0.0 0.0 .
647(13) 0.0 0.0 .
676(14) 0.0 0.0 .
681(14) 0.0 0.0 .
652(14) 0.0 0.0 .
649(14) 0.0 0.0 .
640(13) 0.0 0.0 .
664(13) 0.0 0.0 .
668(14) 0.0 0.0 .
648(14) 0.0 0.0 .
682(14) 0.0 0.0 .
667(13) 0.0 0.0 .
627(13) 0.0 0.0 .
664(14) 0.0 0.0 .
654(14) 0.0 0.0 .
625(13) 0.0 0.0 .
675(14) 0.0 0.0 .
670(14) 0.0 0.0 .
688(14) 0.0 0.0 .
677(14) 0.0 0.0 .
650(14) 0.0 0.0 .
652(13) 0.0 0.0 .
690(14) 0.0 0.0 .
641(14) 0.0 0.0 .
673(14) 0.0 0.0 .
662(14) 0.0 0.0 .
653(13) 0.0 0.0 .
661(14) 0.0 0.0 .
665(14) 0.0 0.0 .
663(14) 0.0 0.0 .
651(14) 0.0 0.0 .
669(13) 0.0 0.0 .
658(14) 0.0 0.0 .
680(14) 0.0 0.0 .
671(14) 0.0 0.0 .
641(13) 0.0 0.0 .
667(13) 0.0 0.0 .
623(13) 0.0 0.0 .
657(14) 0.0 0.0 .
660(14) 0.0 0.0 .
686(14) 0.0 0.0 .
651(13) 0.0 0.0 .
635(13) 0.0 0.0 .
644(14) 0.0 0.0 .
644(14) 0.0 0.0 .
649(13) 0.0 0.0 .
666(13) 0.0 0.0 .
664(14) 0.0 0.0 .
673(14) 0.0 0.0 .
638(13) 0.0 0.0 .
630(13) 0.0 0.0 .
645(13) 0.0 0.0 .
668(14) 0.0 0.0 .
646(14) 0.0 0.0 .
622(13) 0.0 0.0 .
638(13) 0.0 0.0 .
625(13) 0.0 0.0 .
641(14) 0.0 0.0 .
637(14) 0.0 0.0 .
666(14) 0.0 0.0 .
665(14) 0.0 0.0 .
676(14) 0.0 0.0 .
647(13) 0.0 0.0 .
638(14) 0.0 0.0 .
624(13) 0.0 0.0 .
688(14) 0.0 0.0 .
665(13) 0.0 0.0 .
661(14) 0.0 0.0 .
645(14) 0.0 0.0 .
642(14) 0.0 0.0 .
644(13) 0.0 0.0 .
630(13) 0.0 0.0 .
659(14) 0.0 0.0 .
655(14) 0.0 0.0 .
662(14) 0.0 0.0 .
625(13) 0.0 0.0 .
648(13) 0.0 0.0 .
687(14) 0.0 0.0 .
678(14) 0.0 0.0 .
695(14) 0.0 0.0 .
701(14) 0.0 0.0 .
668(14) 0.0 0.0 .
649(13) 0.0 0.0 .
674(14) 0.0 0.0 .
640(13) 0.0 0.0 .
633(13) 0.0 0.0 .
620(13) 0.0 0.0 .
638(14) 0.0 0.0 .
645(14) 0.0 0.0 .
618(13) 0.0 0.0 .
635(13) 0.0 0.0 .
678(14) 0.0 0.0 .
724(15) 0.0 0.0 .
672(14) 0.0 0.0 .
638(13) 0.0 0.0 .
658(13) 0.0 0.0 .
664(14) 0.0 0.0 .
690(14) 0.0 0.0 .
694(14) 0.0 0.0 .
659(13) 0.0 0.0 .
649(13) 0.0 0.0 .
659(14) 0.0 0.0 .
682(15) 0.0 0.0 .
664(14) 0.0 0.0 .
659(13) 0.0 0.0 .
684(14) 0.0 0.0 .
706(14) 0.0 0.0 .
655(14) 0.0 0.0 .
679(14) 0.0 0.0 .
650(13) 0.0 0.0 .
625(13) 0.0 0.0 .
655(14) 0.0 0.0 .
686(15) 0.0 0.0 .
681(14) 0.0 0.0 .
649(13) 0.0 0.0 .
685(14) 0.0 0.0 .
701(14) 0.0 0.0 .
702(15) 0.0 0.0 .
711(14) 0.0 0.0 .
671(13) 0.0 0.0 .
673(14) 0.0 0.0 .
683(14) 0.0 0.0 .
692(14) 0.0 0.0 .
665(14) 0.0 0.0 .
666(13) 0.0 0.0 .
703(14) 0.0 0.0 .
655(14) 0.0 0.0 .
710(14) 0.0 0.0 .
698(14) 0.0 0.0 .
695(14) 0.0 0.0 .
696(14) 0.0 0.0 .
703(14) 0.0 0.0 .
695(14) 0.0 0.0 .
655(14) 0.0 0.0 .
693(14) 0.0 0.0 .
705(14) 0.0 0.0 .
709(15) 0.0 0.0 .
675(14) 0.0 0.0 .
693(14) 0.0 0.0 .
695(14) 0.0 0.0 .
684(14) 0.0 0.0 .
684(14) 0.0 0.0 .
660(14) 0.0 0.0 .
679(14) 0.0 0.0 .
692(14) 0.0 0.0 .
685(14) 0.0 0.0 .
715(15) 0.0 0.0 .
724(14) 0.0 0.0 .
744(14) 0.0 0.0 .
726(14) 0.0 0.0 .
692(14) 0.0 0.0 .
705(15) 0.0 0.0 .
743(15) 0.0 0.0 .
740(14) 0.0 0.0 .
739(14) 0.0 0.0 .
728(15) 0.0 0.0 .
726(15) 0.0 0.0 .
743(15) 0.0 0.0 .
765(14) 0.0 0.0 .
754(14) 0.0 0.0 .
766(15) 0.0 0.0 .
792(16) 0.0 0.0 .
766(15) 0.0 0.0 .
794(15) 0.0 0.0 .
813(15) 0.0 0.0 .
764(15) 0.0 0.0 .
818(16) 0.0 0.0 .
835(16) 0.0 0.0 .
807(15) 0.0 0.0 .
837(15) 0.0 0.0 .
850(16) 0.0 0.0 .
851(16) 0.0 0.0 .
876(16) 0.0 0.0 .
879(15) 0.0 0.0 .
900(16) 0.0 0.0 .
892(16) 0.0 0.0 .
948(17) 0.0 0.0 .
926(16) 0.0 0.0 .
913(16) 0.0 0.0 .
920(16) 0.0 0.0 .
991(17) 0.0 0.0 .
1015(17) 0.0 0.0 .
1041(17) 0.0 0.0 .
1053(17) 0.0 0.0 .
1105(18) 0.0 0.0 .
1079(18) 0.0 0.0 .
1153(19) 0.0 0.0 .
1194(18) 0.0 0.0 .
1206(18) 0.0 0.0 .
1310(19) 0.0 0.0 .
1350(20) 0.0 0.0 .
1468(21) 0.0 0.0 .
1587(21) 0.0 0.0 .
1717(22) 0.0 0.0 .
1783(23) 0.0 0.0 .
2045(25) 0.0 0.0 .
2409(26) 0.0 0.0 .
2813(28) 0.0 0.0 .
3370(30) 0.0 0.0 .
4122(34) 0.0 0.0 .
5186(40) 0.0 0. .
6504(44) 0.0 0. .
8044(47) 0.0 0. .
9985(52) 0.0 0. .
12012(59) 0.0 0. .
14167(67) 0.0 0. .
16736(71) 0.0 0. .
19192(73) 0.0 0. .
21508(77) 0.0 0. .
24084(84) 0.0 0. .
26524(93) 0.0 0. .
29112(94) 0.0 0. .
32180(96) 0.0 0. .
35950(100) 0.0 0. .
40820(110) 0.0 0. .
46870(120) 0.0 0. .
55250(130) 0.0 0. .
65190(140) 0.0 0. .
76470(150) 0.0 0. .
88080(170) 0.0 0. .
93990(180) 0.0 0. .
88100(170) 0.0 0. .
70620(150) 0.0 0. .
51600(130) 0.0 0. .
36540(110) 0.0 0. .
26621(91) 0.0 0. .
19522(76) 0.0 0. .
14935(64) 0.0 0. .
11794(58) 0.0 0. .
9610(53) 0.0 0. .
7908(48) 0.0 0. .
6611(43) 0.0 0. .
5661(39) 0.0 0. .
4943(38) 0.0 0. .
4316(36) 0.0 0. .
3861(34) 0.0 0.0 .
3393(31) 0.0 0.0 .
3027(29) 0.0 0.0 .
2772(28) 0.0 0.0 .
2593(28) 0.0 0.0 .
2333(26) 0.0 0.0 .
2178(25) 0.0 0.0 .
1953(23) 0.0 0.0 .
1834(23) 0.0 0.0 .
1780(23) 0.0 0.0 .
1622(21) 0.0 0.0 .
1614(21) 0.0 0.0 .
1516(20) 0.0 0.0 .
1421(20) 0.0 0.0 .
1343(20) 0.0 0.0 .
1330(20) 0.0 0.0 .
1260(19) 0.0 0.0 .
1212(18) 0.0 0.0 .
1188(18) 0.0 0.0 .
1154(19) 0.0 0.0 .
1096(18) 0.0 0.0 .
1089(17) 0.0 0.0 .
1064(17) 0.0 0.0 .
998(17) 0.0 0.0 .
976(17) 0.0 0.0 .
1004(17) 0.0 0.0 .
985(16) 0.0 0.0 .
962(16) 0.0 0.0 .
924(16) 0.0 0.0 .
880(16) 0.0 0.0 .
878(16) 0.0 0.0 .
863(15) 0.0 0.0 .
886(16) 0.0 0.0 .
834(15) 0.0 0.0 .
835(16) 0.0 0.0 .
835(15) 0.0 0.0 .
818(15) 0.0 0.0 .
790(15) 0.0 0.0 .
840(16) 0.0 0.0 .
775(15) 0.0 0.0 .
755(15) 0.0 0.0 .
794(15) 0.0 0.0 .
786(15) 0.0 0.0 .
760(15) 0.0 0.0 .
726(15) 0.0 0.0 .
747(15) 0.0 0.0 .
751(14) 0.0 0.0 .
768(15) 0.0 0.0 .
750(15) 0.0 0.0 .
710(14) 0.0 0.0 .
746(14) 0.0 0.0 .
732(14) 0.0 0.0 .
690(14) 0.0 0.0 .
718(15) 0.0 0.0 .
727(15) 0.0 0.0 .
718(14) 0.0 0.0 .
708(14) 0.0 0.0 .
733(14) 0.0 0.0 .
736(15) 0.0 0.0 .
706(14) 0.0 0.0 .
673(14) 0.0 0.0 .
714(14) 0.0 0.0 .
698(14) 0.0 0.0 .
678(14) 0.0 0.0 .
671(14) 0.0 0.0 .
676(14) 0.0 0.0 .
689(14) 0.0 0.0 .
705(14) 0.0 0.0 .
653(14) 0.0 0.0 .
661(14) 0.0 0.0 .
661(13) 0.0 0.0 .
648(13) 0.0 0.0 .
649(13) 0.0 0.0 .
646(14) 0.0 0.0 .
670(14) 0.0 0.0 .
656(13) 0.0 0.0 .
682(14) 0.0 0.0 .
683(14) 0.0 0.0 .
650(14) 0.0 0.0 .
659(14) 0.0 0.0 .
672(13) 0.0 0.0 .
655(13) 0.0 0.0 .
656(14) 0.0 0.0 .
641(14) 0.0 0.0 .
656(14) 0.0 0.0 .
636(13) 0.0 0.0 .
626(13) 0.0 0.0 .
648(14) 0.0 0.0 .
663(14) 0.0 0.0 .
635(14) 0.0 0.0 .
636(13) 0.0 0.0 .
649(13) 0.0 0.0 .
662(14) 0.0 0.0 .
681(14) 0.0 0.0 .
664(14) 0.0 0.0 .
641(13) 0.0 0.0 .
614(13) 0.0 0.0 .
632(14) 0.0 0.0 .
618(13) 0.0 0.0 .
615(13) 0.0 0.0 .
655(13) 0.0 0.0 .
620(13) 0.0 0.0 .
655(14) 0.0 0.0 .
633(14) 0.0 0.0 .
626(13) 0.0 0.0 .
597(13) 0.00621 625.4 59.8
617(13) 0.00567 625.4 58.8
614(13) 0.00558 625.4 57.8
632(14) 0.00544 625.4 56.9
628(13) 0.00562 625.4 56.0
603(13) 0.00618 625.1 55.1
639(14) 0.00535 624.6 0.0
611(13) 0.00557 624.1 0.0
599(13) 0.00587 623.6 0.0
602(13) 0.00617 623.0 0.0
631(13) 0.00590 622.5 0.0
649(14) 0.00525 622.0 0.0
586(13) 0.00575 621.5 0.0
603(13) 0.00576 621.0 0.0
626(13) 0.00576 620.4 0.0
615(13) 0.00605 619.9 0.0
643(14) 0.00530 619.4 0.0
604(14) 0.00535 618.9 0.0
616(13) 0.00550 618.3 0.0
628(13) 0.00588 617.8 0.0
585(13) 0.00625 617.3 0.0
610(13) 0.00570 616.8 0.0
580(13) 0.00567 616.3 0.0
592(13) 0.00596 615.7 0.0
616(13) 0.00592 615.2 0.0
581(13) 0.00629 614.7 0.0
589(13) 0.00583 614.2 0.0
600(14) 0.00530 613.7 0.0
589(13) 0.00577 613.1 0.0
582(13) 0.00638 612.6 0.0
603(13) 0.00608 612.1 0.0
592(13) 0.00571 611.6 0.0
586(13) 0.00572 611.1 0.0
586(13) 0.00596 610.5 0.0
623(13) 0.00595 610.0 0.0
601(13) 0.00602 609.5 0.0
595(13) 0.00592 609.0 0.0
589(13) 0.00582 608.5 0.0
575(13) 0.00603 607.9 0.0
587(13) 0.00632 607.4 0.0
596(13) 0.00602 606.9 0.0
601(13) 0.00566 606.4 0.0
587(13) 0.00601 605.8 0.0
625(13) 0.00551 605.3 0.0
585(13) 0.00629 604.8 0.0
557(13) 0.00628 604.3 0.0
610(13) 0.00552 603.8 0.0
598(13) 0.00574 603.2 0.0
582(13) 0.00602 602.7 0.0
572(12) 0.00647 602.2 0.0
586(13) 0.00593 601.7 0.0
583(13) 0.00573 601.2 0.0
588(13) 0.00569 600.6 0.0
547(12) 0.00668 600.1 0.0
557(12) 0.00665 599.6 0.0
560(13) 0.00620 599.1 0.0
585(13) 0.00561 598.6 0.0
581(13) 0.00583 598.0 0.0
565(12) 0.00646 597.5 0.0
614(13) 0.00615 597.0 0.0
619(13) 0.00565 596.5 0.0
619(14) 0.00527 596.0 0.0
598(13) 0.00587 595.4 0.0
573(12) 0.00643 594.9 0.0
570(12) 0.00650 594.4 0.0
564(13) 0.00610 593.9 0.0
584(13) 0.00552 593.3 0.0
568(13) 0.00605 592.8 0.0
583(13) 0.00636 592.3 0.0
585(13) 0.00631 591.8 0.0
593(13) 0.00584 591.3 0.0
580(13) 0.00557 590.7 0.0
565(13) 0.00629 590.2 0.0
606(13) 0.00614 589.7 0.0
589(13) 0.00624 589.2 0.0
579(13) 0.00598 588.7 0.0
593(14) 0.00548 588.1 0.0
558(12) 0.00645 587.6 0.0
609(13) 0.00613 587.1 0.0
592(13) 0.00607 586.6 0.0
590(13) 0.00570 586.1 0.0
578(13) 0.00585 585.5 0.0
582(13) 0.00594 585.0 0.0
599(13) 0.00625 584.5 0.0
569(13) 0.00631 584.0 0.0
578(13) 0.00609 583.4 0.0
603(13) 0.00555 582.9 0.0
575(13) 0.00603 582.4 0.0
554(12) 0.00664 581.9 0.0
563(13) 0.00633 581.4 0.8
561(13) 0.00613 580.8 0.8
551(13) 0.00610 580.3 0.8
568(13) 0.00600 579.8 0.8
539(12) 0.00694 579.3 0.8
552(12) 0.00649 578.8 0.9
577(13) 0.00600 578.2 0.9
598(13) 0.00570 577.7 0.9
564(13) 0.00631 577.2 0.9
577(12) 0.00642 576.7 0.9
575(13) 0.00628 576.2 0.9
576(13) 0.00596 575.6 1.0
541(12) 0.00643 575.1 1.0
585(13) 0.00616 574.6 1.0
559(12) 0.00659 574.1 1.0
594(13) 0.00589 573.6 1.0
577(13) 0.00576 573.0 1.0
592(13) 0.00579 572.5 1.1
551(12) 0.00659 572.0 1.1
567(12) 0.00656 571.5 1.1
582(13) 0.00587 570.9 1.1
565(13) 0.00582 570.4 1.1
562(13) 0.00613 569.9 1.2
578(13) 0.00628 569.4 1.2
549(12) 0.00677 568.9 1.2
574(13) 0.00605 568.3 1.2
578(13) 0.00575 567.8 1.3
548(13) 0.00623 567.3 1.3
570(12) 0.00646 566.8 1.3
576(12) 0.00641 566.3 1.3
568(13) 0.00620 565.7 1.4
575(14) 0.00545 565.2 1.4
534(13) 0.00637 564.7 1.4
564(12) 0.00649 564.2 1.4
589(13) 0.00631 563.7 1.5
565(13) 0.00626 563.1 1.5
567(13) 0.00590 562.6 1.5
564(13) 0.00627 562.1 1.6
584(13) 0.00637 561.6 1.6
542(12) 0.00687 561.1 1.7
554(13) 0.00635 560.5 1.7
546(13) 0.00617 560.0 1.7
590(13) 0.00587 559.5 1.8
582(13) 0.00634 559.0 1.8
580(12) 0.00647 558.4 1.9
582(13) 0.00599 557.9 1.9
602(14) 0.00543 557.4 1.9
572(13) 0.00612 556.9 2.0
548(12) 0.00681 556.4 2.0
525(12) 0.00679 556.3 2.1
574(13) 0.00586 556.2 2.2
555(13) 0.00609 556.1 2.2
552(12) 0.00658 555.9 2.3
523(12) 0.00712 555.8 2.3
567(13) 0.00621 555.7 2.4
556(13) 0.00612 555.6 2.5
539(12) 0.00643 555.4 2.5
580(13) 0.00610 555.3 2.6
563(12) 0.00660 555.2 2.7
558(13) 0.00630 555.1 2.8
547(13) 0.00630 554.9 2.8
543(12) 0.00643 554.8 2.9
561(13) 0.00618 554.7 3.0
547(12) 0.00684 554.6 3.1
537(13) 0.00619 554.4 3.2
548(13) 0.00622 554.3 3.3
575(13) 0.00581 554.2 3.4
562(13) 0.00640 554.1 3.5
560(12) 0.00664 553.9 3.6
582(13) 0.00586 553.8 3.8
554(13) 0.00599 553.7 3.9
561(13) 0.00620 553.6 4.0
565(12) 0.00650 553.4 4.2
530(12) 0.00702 553.3 4.3
532(12) 0.00662 553.2 4.5
577(13) 0.00557 553.1 4.7
577(13) 0.00606 552.9 4.9
591(13) 0.00627 552.8 5.0
554(12) 0.00674 552.7 5.2
532(12) 0.00661 552.6 5.5
562(13) 0.00561 552.4 5.7
545(13) 0.00628 552.3 5.9
555(12) 0.00665 552.2 6.2
563(12) 0.00655 552.1 6.5
571(13) 0.00616 551.9 6.8
558(13) 0.00588 551.8 7.1
562(13) 0.00602 551.7 7.4
556(12) 0.00672 551.6 7.8
570(12) 0.00646 551.4 8.2
558(13) 0.00626 551.3 8.6
573(13) 0.00563 551.2 9.1
553(13) 0.00635 551.1 9.6
556(12) 0.00664 550.9 10.1
564(12) 0.00643 550.8 10.7
571(13) 0.00606 550.7 11.3
570(13) 0.00597 550.6 12.0
603(14) 0.00545 550.4 12.8
567(12) 0.00660 550.3 13.6
588(13) 0.00611 550.2 14.6
569(13) 0.00614 550.1 15.6
579(13) 0.00605 549.9 16.7
590(13) 0.00593 549.8 17.9
571(12) 0.00653 549.7 19.3
565(13) 0.00631 549.6 20.9
569(13) 0.00598 549.4 22.6
593(13) 0.00568 549.3 24.6
567(13) 0.00635 549.2 26.8
610(13) 0.00609 549.1 29.4
606(13) 0.00567 548.9 32.3
624(14) 0.00535 548.8 35.7
639(14) 0.00537 548.7 39.7
612(13) 0.00587 548.6 44.3
659(13) 0.00564 548.4 49.9
680(14) 0.00520 548.3 56.7
715(14) 0.00489 548.2 65.2
766(15) 0.00441 548.1 76.4
744(14) 0.00486 547.9 91.5
773(15) 0.00475 547.8 112.4
801(15) 0.00438 547.7 141.9
907(16) 0.00368 547.6 183.1
880(16) 0.00402 547.4 240.0
929(16) 0.00397 547.3 315.6
975(16) 0.00382 547.2 412.2
1063(18) 0.003211 547.1 529.1
1100(18) 0.002971 546.9 661.3
1179(19) 0.002901 546.8 796.4
1279(19) 0.002831 546.7 912.6
1267(18) 0.002958 546.6 980.4
1305(20) 0.002548 546.4 976.7
1287(20) 0.002485 546.3 903.1
1185(18) 0.002993 546.2 783.8
1062(17) 0.003477 546.1 648.1
912(16) 0.00405 545.9 517.0
848(16) 0.00408 545.8 402.0
775(16) 0.00405 545.7 307.4
683(14) 0.00516 545.6 233.7
681(14) 0.00546 545.5 178.6
657(13) 0.00562 545.3 138.6
579(13) 0.00599 545.2 110.1
576(13) 0.00567 545.1 89.8
609(13) 0.00571 545.0 75.2
589(13) 0.00636 544.8 64.3
566(12) 0.00643 544.7 55.9
600(13) 0.00574 544.6 49.3
544(13) 0.00617 544.5 43.8
556(13) 0.00628 544.3 39.2
534(12) 0.00702 544.2 35.4
596(13) 0.00609 544.1 32.0
581(13) 0.00602 544.0 29.1
574(13) 0.00584 543.8 26.6
582(13) 0.00602 543.7 24.4
536(12) 0.00693 543.6 22.5
553(12) 0.00647 543.5 20.7
522(12) 0.00667 543.3 19.2
569(13) 0.00581 543.2 17.8
529(12) 0.00668 543.1 16.6
511(12) 0.00735 543.0 15.5
541(12) 0.00647 542.8 14.5
542(12) 0.00646 542.7 13.6
568(13) 0.00603 542.6 12.7
532(12) 0.00666 542.5 12.0
548(12) 0.00680 542.3 11.3
549(13) 0.00638 542.2 10.7
560(13) 0.00601 542.1 10.1
524(12) 0.00681 542.0 9.5
552(12) 0.00653 541.8 9.0
543(12) 0.00688 541.7 8.6
535(13) 0.00630 541.6 8.2
558(13) 0.00580 541.5 7.8
548(13) 0.00628 541.3 7.4
539(12) 0.00675 541.2 7.1
532(12) 0.00700 541.1 6.8
526(12) 0.00658 541.0 6.5
523(13) 0.00630 540.8 6.2
525(12) 0.00664 540.7 5.9
536(12) 0.00686 540.6 5.7
513(12) 0.00726 540.5 5.4
529(12) 0.00653 540.3 5.2
547(13) 0.00588 540.2 5.0
553(13) 0.00626 540.1 4.8
549(12) 0.00671 540.0 4.7
542(12) 0.00678 539.8 4.5
533(12) 0.00647 539.7 4.3
564(13) 0.00566 539.6 4.2
574(13) 0.00611 539.5 4.0
538(12) 0.00689 539.3 3.9
527(12) 0.00701 539.2 3.8
516(12) 0.00676 539.1 3.6
518(13) 0.00637 539.0 3.5
540(12) 0.00649 538.8 3.4
556(12) 0.00662 538.7 3.3
550(12) 0.00668 538.6 3.2
535(12) 0.00657 538.5 3.1
525(13) 0.00634 538.3 3.0
512(12) 0.00675 538.2 2.9
545(12) 0.00676 538.1 2.8
518(12) 0.00716 538.0 2.7
541(13) 0.00623 537.8 2.7
511(12) 0.00678 537.7 2.6
547(13) 0.00631 537.6 2.5
560(12) 0.00661 537.5 2.5
563(12) 0.00643 537.3 2.4
530(12) 0.00658 537.2 2.3
530(12) 0.00641 537.1 2.3
545(13) 0.00637 537.0 2.2
507(12) 0.00735 536.8 2.1
574(13) 0.00610 536.7 2.1
530(12) 0.00655 536.6 2.0
527(12) 0.00651 536.5 2.0
544(12) 0.00646 536.3 1.9
540(12) 0.00690 536.2 1.9
510(12) 0.00669 536.1 1.9
518(12) 0.00648 536.0 1.8
539(13) 0.00637 535.8 1.8
545(12) 0.00667 535.7 1.7
518(12) 0.00719 535.6 1.7
543(13) 0.00638 535.5 1.6
564(13) 0.00581 535.3 1.6
520(12) 0.00645 535.2 1.6
503(12) 0.00720 535.1 1.5
528(12) 0.00708 535.0 1.5
528(12) 0.00654 534.8 1.5
514(13) 0.00633 534.7 1.4
569(13) 0.00602 534.6 1.4
514(12) 0.00707 534.5 1.4
537(12) 0.00685 534.4 1.4
522(12) 0.00674 534.4 1.3
541(13) 0.00598 534.4 1.3
551(13) 0.00629 534.3 1.3
543(12) 0.00680 534.3 1.3
525(12) 0.00712 534.3 1.2
520(12) 0.00658 534.2 1.2
541(13) 0.00609 534.2 1.2
530(12) 0.00663 534.2 1.2
568(12) 0.00644 534.1 1.1
550(12) 0.00680 534.1 1.1
562(13) 0.00630 534.1 1.1
569(13) 0.00582 534.0 1.1
566(13) 0.00627 534.0 1.1
545(12) 0.00679 534.0 1.0
535(12) 0.00680 534.0 1.0
525(12) 0.00679 533.9 1.0
545(13) 0.00605 533.9 1.0
518(12) 0.00678 533.9 1.0
507(12) 0.00735 533.8 1.0
522(12) 0.00692 533.8 0.9
545(12) 0.00650 533.8 0.9
539(13) 0.00630 533.7 0.9
525(12) 0.00672 533.7 0.9
548(12) 0.00671 533.7 0.9
550(12) 0.00647 533.6 0.9
517(12) 0.00671 533.6 0.8
515(12) 0.00674 533.6 0.8
535(13) 0.00634 533.5 0.0
568(12) 0.00664 533.5 0.0
541(12) 0.00645 533.5 0.0
534(13) 0.00636 533.4 0.0
521(12) 0.00677 533.4 0.0
545(12) 0.00655 533.4 0.0
523(12) 0.00712 533.4 0.0
502(12) 0.00694 533.3 0.0
522(12) 0.00648 533.3 0.0
509(12) 0.00692 533.3 0.0
535(12) 0.00668 533.2 0.0
540(12) 0.00690 533.2 0.0
509(12) 0.00682 533.2 0.0
574(13) 0.00569 533.1 0.0
533(12) 0.00648 533.1 0.0
550(12) 0.00656 533.1 0.0
532(12) 0.00695 533.0 0.0
544(13) 0.00614 533.0 0.0
534(13) 0.00636 533.0 0.0
525(12) 0.00673 532.9 0.0
551(12) 0.00670 532.9 0.0
539(12) 0.00689 532.9 0.0
557(13) 0.00610 532.8 0.0
521(13) 0.00629 532.8 0.0
555(13) 0.00615 532.8 0.0
521(12) 0.00712 532.8 0.0
520(12) 0.00717 532.7 0.0
515(12) 0.00675 532.7 0.0
554(13) 0.00574 532.7 0.0
521(12) 0.00682 532.6 0.0
529(12) 0.00696 532.6 0.0
506(12) 0.00718 532.6 0.0
521(12) 0.00660 532.5 0.0
524(13) 0.00608 532.5 0.0
530(12) 0.00657 532.5 0.0
546(12) 0.00682 532.4 0.0
500(12) 0.00720 532.4 0.0
524(12) 0.00681 532.4 0.0
569(13) 0.00573 532.3 0.0
530(12) 0.00645 532.3 0.0
539(12) 0.00691 532.3 0.0
537(12) 0.00679 532.3 0.0
538(12) 0.00648 532.2 0.0
530(13) 0.00630 532.2 0.0
535(12) 0.00644 532.2 0.0
535(12) 0.00697 532.1 0.0
516(12) 0.00696 532.1 0.0
540(13) 0.00627 532.1 0.0
529(13) 0.00634 532.0 0.0
533(13) 0.00629 532.0 0.0
521(12) 0.00711 532.0 0.0
534(12) 0.00670 531.9 0.0
562(13) 0.00611 531.9 0.0
547(13) 0.00613 531.9 0.0
557(13) 0.00612 531.8 0.0
512(12) 0.00730 531.8 0.0
491(12) 0.00689 531.8 0.0
533(13) 0.00634 531.7 0.0
515(12) 0.00668 531.7 0.0
531(12) 0.00654 531.7 0.0
561(12) 0.00659 531.7 0.0
548(13) 0.00638 531.6 0.0
551(13) 0.00605 531.6 0.0
552(13) 0.00611 531.6 0.0
497(12) 0.00726 531.5 0.0
547(12) 0.00676 531.5 0.0
525(12) 0.00665 531.5 0.0
529(13) 0.00626 531.4 0.0
525(12) 0.00652 531.4 0.0
545(12) 0.00655 531.4 0.0
531(12) 0.00704 531.3 0.0
559(13) 0.00627 531.3 0.0
529(13) 0.00629 531.3 0.0
549(12) 0.00640 531.2 0.0
539(12) 0.00684 531.2 0.0
507(12) 0.00729 531.2 0.0
523(12) 0.00679 531.2 0.0
547(13) 0.00579 531.1 0.0
517(12) 0.00661 531.1 0.0
505(12) 0.00733 531.1 0.0
490(11) 0.00763 531.0 0.0
520(12) 0.00662 531.0 0.0
541(13) 0.00594 531.0 0.0
530(12) 0.00659 530.9 0.0
534(12) 0.00695 530.9 0.0
485(11) 0.00760 530.9 0.0
549(13) 0.00622 530.8 0.0
519(13) 0.00631 530.8 0.0
529(12) 0.00654 530.8 0.0
551(12) 0.00672 530.7 0.0
519(12) 0.00701 530.7 0.0
528(13) 0.00635 530.7 0.0
511(12) 0.00663 530.6 0.0
542(13) 0.00637 530.6 0.0
514(12) 0.00723 530.6 0.0
532(12) 0.00690 530.6 0.0
539(12) 0.00647 530.5 0.0
550(13) 0.00602 530.5 0.0
521(12) 0.00658 530.5 0.0
513(12) 0.00729 530.4 0.0
502(12) 0.00714 530.4 0.0
527(12) 0.00654 530.4 0.0
501(12) 0.00688 530.3 0.0
534(13) 0.00635 530.3 0.0
536(12) 0.00698 530.3 0.0
539(13) 0.00640 530.2 0.0
521(12) 0.00647 530.2 0.0
521(12) 0.00645 530.2 0.0
515(12) 0.00679 530.1 0.0
511(12) 0.00731 530.1 0.0
508(12) 0.00688 530.1 0.0
538(13) 0.00614 530.0 0.0
570(13) 0.00587 530.0 0.0
508(12) 0.00714 530.0 0.0
516(12) 0.00715 530.0 0.0
517(12) 0.00668 529.9 0.0
530(12) 0.00641 529.9 0.0
534(12) 0.00649 529.9 0.0
495(12) 0.00737 529.8 0.0
532(12) 0.00696 529.8 0.0
536(12) 0.00652 529.8 0.0
515(12) 0.00671 529.7 0.0
546(12) 0.00645 529.7 0.0
539(12) 0.00672 529.7 0.0
545(12) 0.00681 529.6 0.0
555(13) 0.00608 529.6 0.0
514(13) 0.00614 529.6 0.0
494(12) 0.00694 529.5 0.0
536(12) 0.00684 529.5 0.0
539(12) 0.00684 529.5 0.0
541(13) 0.00629 529.5 0.0
495(12) 0.00676 529.4 0.0
519(12) 0.00685 529.4 0.0
555(12) 0.00669 529.4 0.0
538(12) 0.00682 529.3 0.0
529(12) 0.00669 529.3 0.0
537(13) 0.00612 529.3 0.0
508(12) 0.00686 529.2 0.0
507(12) 0.00724 529.2 0.0
525(12) 0.00714 529.2 0.0
520(12) 0.00675 529.1 0.0
507(13) 0.00635 529.1 0.0
503(12) 0.00670 529.1 0.0
536(12) 0.00696 529.0 0.0
556(13) 0.00632 529.0 0.0
502(12) 0.00711 529.0 0.0
516(12) 0.00663 528.9 0.0
526(12) 0.00669 528.9 0.0
546(12) 0.00680 528.9 0.0
524(12) 0.00691 528.9 0.0
532(12) 0.00646 528.8 0.0
537(12) 0.00646 528.8 0.0
565(13) 0.00620 528.8 0.0
556(12) 0.00668 528.7 0.0
536(12) 0.00682 528.7 0.0
494(12) 0.00716 528.7 0.0
523(12) 0.00646 528.6 0.0
569(13) 0.00627 528.6 0.0
489(11) 0.00764 528.6 0.0
522(12) 0.00669 528.5 0.0
534(13) 0.00623 528.5 0.0
514(12) 0.00681 528.5 0.0
538(12) 0.00662 528.4 0.0
526(12) 0.00706 528.4 0.0
528(12) 0.00666 528.4 0.0
505(12) 0.00685 528.3 0.0
514(12) 0.00678 528.3 0.0
499(12) 0.00731 528.3 0.0
523(12) 0.00709 528.3 0.0
547(13) 0.00625 528.2 0.0
496(12) 0.00667 528.2 0.0
515(12) 0.00666 528.2 0.0
551(12) 0.00662 528.1 0.0
531(12) 0.00703 528.1 0.0
519(12) 0.00663 528.1 0.0
525(13) 0.00624 528.0 0.0
536(12) 0.00643 528.0 0.0
519(12) 0.00707 528.0 0.0
543(12) 0.00686 527.9 0.0
531(12) 0.00668 527.9 0.0
524(13) 0.00626 527.9 0.0
544(12) 0.00658 527.8 0.0
513(12) 0.00719 527.8 0.0
498(12) 0.00750 527.8 0.0
512(12) 0.00690 527.8 0.0
542(13) 0.00601 527.7 0.0
555(13) 0.00626 527.7 0.0
557(12) 0.00669 527.7 0.0
555(12) 0.00669 527.6 0.0
558(13) 0.00632 527.6 0.0
513(12) 0.00652 527.6 0.0
522(12) 0.00654 527.5 0.0
536(12) 0.00692 527.5 0.0
525(12) 0.00698 527.5 0.0
555(13) 0.00616 527.4 0.0
517(12) 0.00666 527.4 0.0
505(12) 0.00694 527.5 0.0
528(12) 0.00705 527.5 0.0
517(12) 0.00696 527.6 0.0
571(13) 0.00600 527.7 0.0
553(13) 0.00620 527.7 0.0
516(12) 0.00687 527.8 0.0
508(12) 0.00737 527.8 0.0
517(12) 0.00684 527.9 0.0
530(12) 0.00647 528.0 0.0
536(12) 0.00643 528.0 0.0
502(12) 0.00706 528.1 0.0
517(12) 0.00718 528.1 0.0
512(12) 0.00687 528.2 0.0
537(12) 0.00646 528.3 0.0
533(13) 0.00629 528.3 0.0
543(12) 0.00656 528.4 0.0
524(12) 0.00710 528.4 0.0
533(13) 0.00631 528.5 0.0
512(12) 0.00673 528.6 0.0
558(13) 0.00612 528.6 0.0
508(12) 0.00712 528.7 0.0
502(12) 0.00740 528.7 0.0
580(13) 0.00590 528.8 0.0
584(13) 0.00566 528.9 0.0
533(12) 0.00658 528.9 0.0
537(12) 0.00688 529.0 0.0
533(12) 0.00698 529.0 0.0
535(12) 0.00648 529.1 0.0
536(13) 0.00619 529.2 0.0
534(12) 0.00649 529.2 0.0
538(12) 0.00685 529.3 0.0
516(12) 0.00710 529.3 0.0
510(12) 0.00688 529.4 0.0
536(13) 0.00602 529.5 0.0
544(12) 0.00646 529.5 0.0
556(12) 0.00657 529.6 0.0
553(12) 0.00675 529.6 0.0
488(12) 0.00726 529.7 0.0
487(12) 0.00654 529.8 0.0
549(13) 0.00621 529.8 0.0
531(12) 0.00702 529.9 0.0
524(12) 0.00707 529.9 0.0
508(12) 0.00694 530.0 0.0
555(13) 0.00582 530.1 0.0
539(13) 0.00639 530.1 0.0
538(12) 0.00687 530.2 0.0
516(12) 0.00703 530.2 0.0
551(13) 0.00615 530.3 0.0
551(13) 0.00586 530.4 0.0
520(12) 0.00663 530.4 0.0
530(12) 0.00702 530.5 0.0
536(12) 0.00678 530.5 0.0
542(12) 0.00652 530.6 0.0
508(12) 0.00676 530.7 0.0
567(13) 0.00598 530.7 0.0
518(12) 0.00722 530.8 0.0
534(12) 0.00659 530.8 0.0
493(12) 0.00713 530.9 0.0
535(13) 0.00639 531.0 0.0
529(12) 0.00667 531.0 0.0
536(12) 0.00706 531.1 0.0
516(12) 0.00690 531.1 0.0
522(12) 0.00661 531.2 0.0
525(12) 0.00656 531.3 0.0
548(12) 0.00655 531.3 0.0
514(12) 0.00723 531.4 0.0
538(12) 0.00651 531.4 0.0
554(13) 0.00610 531.5 0.0
534(12) 0.00645 531.6 0.0
532(12) 0.00682 531.6 0.0
502(12) 0.00740 531.7 0.0
521(12) 0.00646 531.7 0.0
527(12) 0.00641 531.8 0.0
507(12) 0.00687 531.9 0.0
568(13) 0.00634 531.9 0.0
525(12) 0.00706 532.0 0.0
520(12) 0.00672 532.0 0.0
489(12) 0.00694 532.1 0.0
515(12) 0.00666 532.2 0.0
523(12) 0.00704 532.2 0.0
554(12) 0.00675 532.3 0.0
497(12) 0.00707 532.4 0.0
520(13) 0.00607 532.4 0.0
529(12) 0.00654 532.5 0.0
540(12) 0.00683 532.5 0.0
539(12) 0.00683 532.6 0.0
512(12) 0.00692 532.7 0.0
516(13) 0.00639 532.7 0.0
530(12) 0.00670 532.8 0.0
532(12) 0.00702 532.8 0.0
551(12) 0.00671 532.9 0.0
543(12) 0.00652 533.0 0.0
527(13) 0.00631 533.0 0.0
543(13) 0.00635 533.1 0.0
547(12) 0.00682 533.1 0.0
560(12) 0.00641 533.2 0.0
528(12) 0.00666 533.3 0.0
563(13) 0.00571 533.3 0.0
564(13) 0.00625 533.4 0.0
567(12) 0.00656 533.4 0.0
530(12) 0.00686 533.5 0.0
534(12) 0.00654 533.6 0.0
530(13) 0.00634 533.6 0.0
543(13) 0.00630 533.7 0.0
509(12) 0.00723 533.7 0.0
556(12) 0.00643 533.8 0.0
602(13) 0.00563 533.9 0.0
534(12) 0.00658 533.9 0.0
547(13) 0.00634 534.0 0.0
558(12) 0.00668 534.0 0.0
565(13) 0.00630 534.1 0.0
515(12) 0.00672 534.2 0.0
525(12) 0.00655 534.2 0.0
521(12) 0.00673 534.3 0.0
532(12) 0.00703 534.3 0.0
547(13) 0.00632 534.4 0.0
553(13) 0.00593 534.5 0.0
527(13) 0.00636 534.5 0.0
548(12) 0.00650 534.6 0.0
583(12) 0.00642 534.6 0.0
534(13) 0.00627 534.7 0.0
535(13) 0.00615 534.8 0.0
538(13) 0.00638 534.8 0.0
558(12) 0.00649 534.9 0.0
538(12) 0.00697 534.9 0.0
540(12) 0.00648 535.0 0.0
537(13) 0.00621 535.1 0.0
533(12) 0.00681 535.1 0.0
543(12) 0.00677 535.2 0.0
524(12) 0.00707 535.2 0.0
533(13) 0.00637 535.3 0.0
525(13) 0.00623 535.4 0.0
548(13) 0.00608 535.4 0.0
535(12) 0.00696 535.5 0.0
517(12) 0.00717 535.5 0.0
532(12) 0.00655 535.6 0.0
540(13) 0.00598 535.7 0.0
535(12) 0.00643 535.7 0.0
527(12) 0.00704 535.8 0.0
548(12) 0.00671 535.8 0.0
565(13) 0.00623 535.9 0.0
538(13) 0.00606 536.0 0.0
530(12) 0.00671 536.0 0.0
559(12) 0.00664 536.1 0.0
542(12) 0.00679 536.1 0.0
546(13) 0.00638 536.2 0.0
533(13) 0.00596 536.3 0.0
514(12) 0.00659 536.3 0.0
538(12) 0.00685 536.4 0.0
525(12) 0.00681 536.4 0.0
510(12) 0.00676 536.5 0.0
532(13) 0.00620 536.6 0.0
525(12) 0.00652 536.6 0.0
556(12) 0.00666 536.7 0.0
549(12) 0.00652 536.7 0.0
525(12) 0.00675 536.8 0.0
527(13) 0.00629 536.9 0.0
516(12) 0.00664 536.9 0.0
523(12) 0.00708 537.0 0.0
531(12) 0.00672 537.0 0.0
569(13) 0.00590 537.1 0.0
537(13) 0.00639 537.2 0.0
536(12) 0.00665 537.2 0.0
548(12) 0.00671 537.3 0.0
532(12) 0.00667 537.3 0.0
564(13) 0.00592 537.4 0.0
506(12) 0.00673 537.5 0.0
492(12) 0.00740 537.5 0.0
553(12) 0.00667 537.6 0.0
524(12) 0.00661 537.6 0.0
518(12) 0.00646 537.7 0.0
537(12) 0.00643 537.8 0.0
522(12) 0.00692 537.8 0.0
551(12) 0.00671 537.9 0.0
546(13) 0.00631 537.9 0.0
546(13) 0.00636 538.0 0.0
525(12) 0.00676 538.1 0.0
531(12) 0.00679 538.1 0.0
560(12) 0.00663 538.2 0.0
533(12) 0.00653 538.2 0.1
524(13) 0.00612 538.3 0.1
525(12) 0.00650 538.4 0.1
537(12) 0.00672 538.4 0.1
544(12) 0.00684 538.5 0.1
507(12) 0.00696 538.5 0.1
502(12) 0.00654 538.6 0.1
521(12) 0.00667 538.7 0.1
510(12) 0.00713 538.7 0.1
514(12) 0.00717 538.8 0.1
523(12) 0.00672 538.8 0.1
516(12) 0.00650 538.9 0.1
533(12) 0.00663 539.0 0.1
563(12) 0.00647 539.0 0.1
502(12) 0.00745 539.1 0.1
514(12) 0.00692 539.1 0.1
530(13) 0.00636 539.2 0.1
517(12) 0.00683 539.3 0.1
511(12) 0.00727 539.3 0.1
511(12) 0.00689 539.4 0.1
558(13) 0.00623 539.4 0.1
544(13) 0.00624 539.5 0.1
565(13) 0.00613 539.6 0.1
507(12) 0.00737 539.6 0.1
521(12) 0.00682 539.7 0.1
524(12) 0.00652 539.7 0.1
540(13) 0.00626 539.8 0.1
551(13) 0.00629 539.9 0.1
535(12) 0.00696 539.9 0.1
513(12) 0.00695 540.0 0.1
536(12) 0.00641 540.0 0.1
550(13) 0.00630 540.1 0.2
515(12) 0.00687 540.2 0.2
533(12) 0.00698 540.2 0.2
533(12) 0.00651 540.3 0.2
551(13) 0.00615 540.3 0.2
548(13) 0.00611 540.4 0.2
558(13) 0.00640 540.5 0.2
549(12) 0.00671 540.5 0.2
561(13) 0.00619 540.6 0.2
547(13) 0.00620 540.6 0.2
526(12) 0.00664 540.7 0.3
595(13) 0.00595 540.8 0.3
548(12) 0.00673 540.8 0.3
579(13) 0.00591 540.9 0.3
533(13) 0.00629 540.9 0.3
533(12) 0.00645 541.0 0.3
535(12) 0.00675 541.1 0.4
532(12) 0.00701 541.1 0.4
544(12) 0.00643 541.2 0.4
545(13) 0.00605 541.2 0.5
554(12) 0.00640 541.3 0.5
547(12) 0.00686 541.4 0.6
548(12) 0.00673 541.4 0.6
515(12) 0.00694 541.5 0.7
586(14) 0.00547 541.5 0.8
536(12) 0.00659 541.6 0.8
505(12) 0.00740 541.7 0.9
543(12) 0.00686 541.7 1.1
572(13) 0.00596 541.8 1.2
564(13) 0.00556 541.8 1.4
515(12) 0.00676 541.9 1.5
540(12) 0.00690 542.0 1.7
533(12) 0.00694 542.0 2.0
525(12) 0.00675 542.1 2.2
546(13) 0.00594 542.2 2.5
530(12) 0.00663 542.2 2.8
541(12) 0.00685 542.3 3.1
563(12) 0.00643 542.3 3.4
536(12) 0.00653 542.4 3.7
539(13) 0.00612 542.5 3.9
544(13) 0.00623 542.5 4.1
532(12) 0.00699 542.6 4.2
531(12) 0.00682 542.6 4.3
555(13) 0.00622 542.7 4.2
533(12) 0.00644 542.8 4.0
539(12) 0.00643 542.8 3.8
543(12) 0.00687 542.9 3.5
547(12) 0.00650 542.9 3.2
583(13) 0.00587 543.0 2.9
566(13) 0.00599 543.1 2.6
536(12) 0.00657 543.1 2.3
526(12) 0.00711 543.2 2.1
516(12) 0.00692 543.2 1.8
566(13) 0.00592 543.3 1.6
552(13) 0.00620 543.4 1.4
541(12) 0.00659 543.4 1.3
574(12) 0.00648 543.5 1.1
547(13) 0.00631 543.5 1.0
540(13) 0.00621 543.6 0.9
534(12) 0.00644 543.7 0.8
529(12) 0.00686 543.7 0.7
555(12) 0.00665 543.8 0.6
553(13) 0.00608 543.8 0.6
524(13) 0.00639 543.9 0.5
563(13) 0.00608 544.0 0.5
553(12) 0.00658 544.0 0.4
541(12) 0.00684 544.1 0.4
517(12) 0.00666 544.1 0.4
532(13) 0.00625 544.2 0.4
548(12) 0.00641 544.3 0.3
564(13) 0.00637 544.3 0.3
521(12) 0.00719 544.4 0.3
583(13) 0.00576 544.4 0.3
544(13) 0.00600 544.5 0.3
542(12) 0.00642 544.6 0.2
570(12) 0.00647 544.6 0.2
552(12) 0.00666 544.7 0.2
553(13) 0.00634 544.7 0.2
533(13) 0.00616 544.8 0.2
540(12) 0.00666 544.9 0.2
575(12) 0.00647 544.9 0.2
552(12) 0.00661 545.0 0.2
538(13) 0.00628 545.0 0.2
528(13) 0.00630 545.1 0.2
571(13) 0.00605 545.2 0.1
536(12) 0.00696 545.2 0.1
559(12) 0.00671 545.3 0.1
568(13) 0.00611 545.3 0.1
543(13) 0.00613 545.4 0.1
567(13) 0.00609 545.5 0.1
523(12) 0.00707 545.5 0.1
524(12) 0.00688 545.6 0.1
558(13) 0.00612 545.6 0.1
548(13) 0.00609 545.7 0.1
520(12) 0.00675 545.8 0.1
564(12) 0.00663 545.8 0.1
533(12) 0.00666 545.9 0.1
581(13) 0.00578 545.9 0.1
540(12) 0.00640 546.0 0.1
519(12) 0.00676 546.1 0.1
549(12) 0.00678 546.1 0.1
561(13) 0.00639 546.2 0.1
597(13) 0.00569 546.2 0.1
549(13) 0.00628 546.3 0.1
550(12) 0.00646 546.4 0.1
536(12) 0.00697 546.4 0.1
541(12) 0.00640 546.5 0.1
540(13) 0.00627 546.5 0.1
580(13) 0.00586 546.6 0.1
559(12) 0.00640 546.7 0.1
562(12) 0.00653 546.7 0.1
567(13) 0.00613 546.8 0.1
541(13) 0.00624 547.1 0.1
566(13) 0.00605 547.3 0.1
539(12) 0.00665 547.6 0.1
562(12) 0.00660 547.8 0.1
562(13) 0.00598 548.1 0.0
547(13) 0.00609 548.4 0.0
540(13) 0.00632 548.6 0.0
518(12) 0.00713 548.9 0.0
539(12) 0.00689 549.1 0.0
568(13) 0.00611 549.4 0.0
575(13) 0.00564 549.7 0.0
557(13) 0.00621 549.9 0.0
589(13) 0.00626 550.2 0.0
556(12) 0.00666 550.4 0.0
559(13) 0.00628 550.7 0.0
544(13) 0.00592 550.9 0.0
554(13) 0.00617 551.2 0.0
546(12) 0.00675 551.5 0.0
555(12) 0.00669 551.7 0.0
556(13) 0.00629 552.0 0.0
529(13) 0.00632 552.2 0.0
549(12) 0.00644 552.5 0.0
566(12) 0.00658 552.8 0.0
556(12) 0.00661 553.0 0.0
569(13) 0.00585 553.3 6.9
514(13) 0.00631 553.5 7.0
560(13) 0.00605 553.8 7.1
574(12) 0.00645 554.1 7.2
569(12) 0.00649 554.3 7.4
555(13) 0.00625 554.6 7.5
543(13) 0.00611 554.8 7.6
553(13) 0.00607 555.1 7.7
563(12) 0.00663 555.3 7.9
572(13) 0.00625 555.6 8.0
556(13) 0.00621 555.9 8.1
555(13) 0.00614 556.1 8.3
536(12) 0.00656 556.4 8.4
562(12) 0.00669 556.6 8.6
543(12) 0.00655 556.9 8.7
544(13) 0.00633 557.2 8.9
568(13) 0.00587 557.4 9.0
577(13) 0.00619 557.7 9.2
574(12) 0.00645 557.9 9.4
554(12) 0.00647 558.2 9.5
558(13) 0.00599 558.4 9.7
545(13) 0.00638 558.7 9.9
558(12) 0.00642 559.0 10.1
574(12) 0.00656 559.2 10.3
569(13) 0.00605 559.5 10.5
572(13) 0.00591 559.7 10.7
588(13) 0.00590 560.0 10.9
573(13) 0.00635 560.3 11.1
571(12) 0.00654 560.5 11.4
573(13) 0.00614 560.8 11.6
573(13) 0.00592 561.0 11.8
547(12) 0.00650 561.3 12.1
545(12) 0.00665 561.5 12.3
562(12) 0.00659 561.8 12.6
560(13) 0.00632 562.1 12.9
589(13) 0.00554 562.3 13.2
561(13) 0.00617 562.6 13.5
568(12) 0.00656 562.8 13.8
590(13) 0.00634 563.1 14.1
580(13) 0.00611 563.4 14.4
577(13) 0.00553 563.6 14.7
557(13) 0.00619 563.9 15.1
565(12) 0.00647 564.1 15.4
577(12) 0.00644 564.4 15.8
619(13) 0.00562 564.6 16.2
592(13) 0.00557 564.9 16.6
570(13) 0.00614 565.2 17.0
572(12) 0.00648 565.4 17.4
551(12) 0.00669 565.7 17.9
574(13) 0.00612 565.9 18.3
605(14) 0.00535 566.2 18.8
553(13) 0.00632 566.5 19.3
557(12) 0.00665 566.7 19.9
630(13) 0.00582 567.0 20.4
598(13) 0.00569 567.2 21.0
587(13) 0.00561 567.5 21.6
562(13) 0.00611 567.8 22.2
596(13) 0.00616 568.0 22.8
577(13) 0.00636 568.3 23.5
544(12) 0.00645 568.5 24.2
580(13) 0.00577 568.8 24.9
587(13) 0.00586 569.0 25.7
584(13) 0.00638 569.3 26.5
593(13) 0.00589 569.6 27.3
568(13) 0.00599 569.8 28.2
552(13) 0.00627 570.1 29.1
582(13) 0.00612 570.3 30.1
569(12) 0.00657 570.6 31.1
581(13) 0.00617 570.9 32.2
569(13) 0.00617 571.1 33.3
599(13) 0.00574 571.4 34.5
587(13) 0.00605 571.6 35.7
599(13) 0.00624 571.9 37.1
575(13) 0.00606 572.1 38.5
553(13) 0.00622 572.4 39.9
594(13) 0.00585 572.7 41.5
584(13) 0.00615 572.9 43.2
569(12) 0.00657 573.2 44.9
595(13) 0.00572 573.4 46.8
619(14) 0.00527 573.7 48.8
587(13) 0.00601 574.0 50.9
604(13) 0.00598 574.2 53.1
597(13) 0.00626 574.5 55.5
580(13) 0.00601 574.7 58.1
603(13) 0.00552 575.0 60.8
591(13) 0.00591 575.2 63.8
582(13) 0.00636 575.5 67.0
592(13) 0.00622 575.8 70.4
597(13) 0.00588 576.0 74.1
578(13) 0.00558 576.3 78.0
623(13) 0.00558 576.5 82.3
608(13) 0.00609 576.8 87.0
604(13) 0.00614 577.1 92.1
624(13) 0.00554 577.3 97.6
617(14) 0.00523 577.6 103.6
616(13) 0.00567 577.8 110.2
621(13) 0.00593 578.1 117.5
622(13) 0.00587 578.4 125.5
646(14) 0.00539 578.6 134.3
660(14) 0.00498 578.9 144.1
647(14) 0.00537 579.1 155.0
675(13) 0.00551 579.4 167.2
692(14) 0.00529 579.6 180.8
649(14) 0.00537 579.9 196.2
664(14) 0.00498 580.2 213.6
735(15) 0.00460 580.4 233.3
684(14) 0.00543 580.7 255.9
756(14) 0.00482 580.9 281.9
770(15) 0.00450 581.2 312.0
822(16) 0.00399 581.5 347.1
873(16) 0.00383 581.7 388.4
910(16) 0.00405 582.0 437.6
979(16) 0.00368 582.2 497.1
1128(18) 0.003032 582.5 571.0
1306(20) 0.002615 582.7 666.0
1625(22) 0.002110 583.0 793.8
1947(23) 0.001911 583.3 974.2
2401(26) 0.001472 583.5 1238.3
2953(29) 0.001159 583.8 1630.9
3661(33) 0.000917 584.0 2209.0
4426(36) 0.000781 584. 3033.
5107(37) 0.000723 585. 4150.
5968(41) 0.000587 585. 5571.
7035(46) 0.000480 585. 7238.
8304(49) 0.000410 585. 8985.
10049(54) 0.0003481 586. 10482.
11865(57) 0.0003077 586. 11276.
12830(62) 0.0002633 586. 11043.
11758(60) 0.0002776 586. 9885.
9393(52) 0.000368 587. 8227.
7004(44) 0.000519 587. 6485.
5074(37) 0.000722 587. 4913.
3760(33) 0.000908 587.4 3622.4
2958(30) 0.001108 587.7 2638.2
2346(26) 0.001508 587.9 1929.0
2022(23) 0.001822 588.2 1439.6
1678(21) 0.002201 588.4 1109.8
1510(21) 0.002261 588.7 887.0
1339(20) 0.002416 588.9 732.7
1231(19) 0.002842 589.2 621.1
1120(17) 0.003294 589.5 536.5
987(16) 0.00380 589.7 469.6
971(17) 0.00358 590.0 414.9
928(17) 0.003488 590.2 369.5
869(16) 0.00410 590.5 331.1
857(15) 0.00430 590.8 298.3
800(15) 0.00455 591.0 270.1
808(16) 0.00412 591.3 245.7
786(16) 0.00413 591.5 224.4
777(15) 0.00448 591.8 205.7
742(14) 0.00501 592.1 189.2
724(14) 0.00507 592.3 174.7
712(14) 0.00484 592.6 161.7
711(15) 0.00469 592.8 150.1
687(14) 0.00502 593.1 139.7
682(14) 0.00548 593.3 130.4
740(14) 0.00493 593.6 121.9
671(14) 0.00527 593.9 114.2
670(14) 0.00491 594.1 107.3
670(14) 0.00506 594.4 100.9
642(13) 0.00578 594.6 95.1
672(14) 0.00537 594.9 89.8
683(14) 0.00503 595.2 84.9
608(13) 0.00574 595.4 80.4
620(13) 0.00557 595.7 76.2
612(13) 0.00609 595.9 72.4
673(14) 0.00518 596.2 68.8
614(13) 0.00578 596.4 65.5
611(13) 0.00571 596.7 62.5
615(13) 0.00586 597.0 59.6
617(13) 0.00603 597.2 56.9
634(13) 0.00550 597.5 54.4
650(14) 0.00526 597.7 52.1
651(14) 0.00524 598.0 49.9
648(13) 0.00558 598.3 47.9
647(13) 0.00569 598.5 45.9
643(14) 0.00528 598.8 44.1
621(14) 0.00537 599.0 42.4
619(13) 0.00552 599.3 40.8
593(13) 0.00599 599.5 39.3
648(13) 0.00576 599.8 37.8
617(13) 0.00570 600.1 36.5
596(13) 0.00557 600.3 35.2
617(13) 0.00557 600.6 34.0
583(12) 0.00641 600.8 32.8
603(13) 0.00614 601.1 31.7
621(14) 0.00547 601.4 30.6
593(14) 0.00544 601.6 29.7
614(13) 0.00552 601.9 28.7
603(13) 0.00608 602.1 27.8
656(13) 0.00565 602.4 26.9
599(13) 0.00584 602.6 26.1
580(13) 0.00561 602.9 25.3
603(13) 0.00583 603.2 24.6
600(13) 0.00617 603.4 23.9
604(13) 0.00616 603.7 23.2
617(13) 0.00568 603.9 22.5
642(14) 0.00508 604.2 21.9
619(13) 0.00564 604.5 21.3
584(13) 0.00629 604.7 20.7
615(13) 0.00601 605.0 20.1
596(13) 0.00587 605.2 19.6
608(14) 0.00539 605.5 19.1
597(13) 0.00585 605.8 18.6
601(13) 0.00617 606.0 18.1
574(13) 0.00640 606.3 17.7
615(13) 0.00560 606.5 17.2
641(14) 0.00518 606.8 16.8
633(13) 0.00557 607.0 16.4
643(13) 0.00575 607.3 16.0
634(13) 0.00573 607.6 15.6
582(13) 0.00600 607.8 15.3
607(13) 0.00562 608.1 14.9
602(13) 0.00582 608.3 14.6
605(13) 0.00619 608.6 14.2
649(14) 0.00537 608.9 13.9
604(13) 0.00558 609.1 13.6
617(14) 0.00547 609.4 13.3
587(13) 0.00613 609.6 13.0
621(13) 0.00603 609.9 12.8
626(13) 0.00570 610.1 12.5
619(14) 0.00547 610.4 12.2
591(13) 0.00596 610.7 12.0
644(13) 0.00555 610.9 11.7
631(13) 0.00588 611.2 11.5
591(13) 0.00601 611.4 11.3
616(14) 0.00542 611.7 11.0
612(14) 0.00545 612.0 10.8
588(13) 0.00606 612.2 10.6
613(13) 0.00601 612.5 10.4
625(14) 0.00535 612.7 10.2
584(13) 0.00582 613.0 10.0
583(13) 0.00594 613.2 9.8
617(13) 0.00588 613.5 9.6
636(13) 0.00583 613.8 9.5
609(13) 0.00574 614.0 9.3
643(14) 0.00511 614.3 9.1
622(13) 0.00575 614.5 8.9
608(13) 0.00602 614.8 8.8
593(13) 0.00630 615.1 8.6
604(13) 0.00572 615.3 8.5
626(14) 0.00512 615.6 8.3
590(13) 0.00607 615.8 8.2
632(13) 0.00587 616.1 8.1
650(13) 0.00563 616.3 7.9
601(13) 0.00587 616.6 7.8
605(14) 0.00546 616.9 7.7
634(14) 0.00547 617.1 7.5
611(13) 0.00606 617.4 7.4
609(13) 0.00605 617.6 7.3
634(13) 0.00567 617.9 7.2
623(14) 0.00527 618.2 7.1
599(13) 0.00588 618.4 0.0
648(13) 0.00574 618.7 0.0
636(13) 0.00574 618.9 0.0
628(14) 0.00545 619.2 0.0
642(14) 0.00518 619.5 0.0
592(13) 0.00580 619.7 0.0
654(13) 0.00571 620.0 0.0
623(13) 0.00589 620.2 0.0
642(14) 0.00531 620.5 0.0
651(14) 0.00512 620.7 0.0
619(13) 0.00555 621.0 0.0
646(13) 0.00575 621.3 0.0
598(13) 0.00605 621.5 0.0
574(13) 0.00624 621.8 0.0
615(13) 0.00552 622.0 0.0
669(14) 0.00532 622.3 0.0
602(13) 0.00614 622.6 0.0
617(13) 0.00581 622.8 0.0
627(14) 0.00541 623.1 0.0
633(14) 0.00529 623.3 0.0
632(13) 0.00561 623.6 0.0
646(13) 0.00578 623.8 0.0
633(13) 0.00552 624.1 0.0
591(13) 0.00592 624.4 0.0
643(14) 0.00528 624.6 0.0
637(13) 0.00569 624.9 0.0
614(13) 0.00603 625.1 0.0
608(13) 0.00567 625.4 0.0
645(14) 0.00510 625.8 0.0
641(14) 0.00541 626.3 0.0
617(13) 0.00604 626.8 0.0
622(13) 0.00596 627.3 0.0
658(14) 0.00509 627.8 0.0
595(13) 0.00554 628.2 0.0
612(13) 0.00576 628.7 0.0
623(13) 0.00591 629.2 0.0
611(13) 0.00611 629.7 0.0
632(13) 0.00557 630.1 0.0
644(14) 0.00511 630.6 0.0
622(13) 0.00568 631.1 0.0
630(13) 0.00587 631.6 0.0
662(13) 0.00557 632.1 0.0
627(13) 0.00568 632.5 0.0
637(14) 0.00493 633.0 0.0
632(14) 0.00547 633.5 0.0
631(13) 0.00585 634.0 0.0
621(13) 0.00596 634.5 0.0
642(14) 0.00542 634.9 0.0
599(13) 0.00555 635.4 0.0
614(13) 0.00571 635.9 0.0
657(13) 0.00567 636.4 0.0
636(13) 0.00575 636.8 0.0
625(13) 0.00562 637.3 0.0
636(14) 0.00517 637.8 0.0
656(14) 0.00521 638.3 0.0
603(13) 0.00623 638.8 0.0
614(13) 0.00592 639.2 0.0
669(14) 0.00508 639.7 0.0
694(14) 0.00483 640.2 0.0
664(14) 0.00507 640.7 0.0
653(13) 0.00567 641.2 0.0
643(13) 0.00555 641.6 0.0
638(14) 0.00533 642.1 0.0
641(14) 0.00530 642.6 0.0
678(14) 0.00505 643.1 0.0
657(13) 0.00565 643.5 0.0
606(13) 0.00577 644.0 0.0
629(14) 0.00548 644.5 0.0
635(13) 0.00549 645.0 0.0
633(14) 0.00546 645.5 0.0
612(13) 0.00604 645.9 0.0
627(13) 0.00564 646.4 0.0
614(14) 0.00545 646.9 0.0
637(14) 0.00540 647.4 0.0
637(13) 0.00573 647.9 0.0
642(13) 0.00581 648.3 0.0
644(14) 0.00537 648.8 0.0
654(14) 0.00516 649.3 0.0
650(14) 0.00522 649.8 0.0
626(13) 0.00588 650.2 0.0
641(13) 0.00581 650.7 0.0
636(14) 0.00543 651.2 0.0
651(14) 0.00506 651.7 0.0
620(13) 0.00560 652.2 0.0
655(14) 0.00547 652.6 0.0
630(13) 0.00595 653.1 0.0
674(14) 0.00506 653.6 0.0
671(14) 0.00498 654.1 0.0
653(13) 0.00553 654.5 0.0
649(13) 0.00565 655.0 0.0
667(13) 0.00549 655.5 0.0
686(14) 0.00502 656.0 0.0
647(14) 0.00507 656.5 0.0
668(14) 0.00529 656.9 0.0
635(13) 0.00580 657.4 0.0
655(13) 0.00565 657.9 0.0
630(13) 0.00553 658.4 0.0
601(14) 0.00539 658.9 0.0
681(14) 0.00494 659.3 0.0
635(13) 0.00588 659.8 0.0
710(14) 0.00519 660.3 0.0
677(14) 0.00516 660.8 0.0
673(14) 0.00481 661.2 0.0
654(14) 0.00533 661.7 0.0
628(13) 0.00593 662.2 0.0
664(14) 0.00545 662.7 0.0
692(14) 0.00497 663.2 0.0
679(14) 0.00494 663.6 0.0
692(14) 0.00502 664.1 0.0
654(13) 0.00567 664.6 0.0
669(13) 0.00552 665.1 0.0
709(14) 0.00484 665.6 0.0
642(14) 0.00526 666.0 0.0
628(14) 0.00547 666.5 0.0
642(13) 0.00583 667.0 0.0
637(13) 0.00568 667.5 0.0
660(14) 0.00515 667.9 0.0
628(14) 0.00533 668.4 0.0
697(14) 0.00497 668.9 0.0
644(13) 0.00577 669.4 0.0
692(14) 0.00505 669.9 9.4
686(14) 0.00492 670.3 9.5
668(14) 0.00518 670.8 9.6
702(14) 0.00515 671.3 9.7
640(13) 0.00580 671.8 9.8
659(14) 0.00526 672.3 9.9
677(14) 0.00493 672.7 10.0
659(14) 0.00522 673.2 10.2
636(13) 0.00577 673.7 10.3
667(13) 0.00555 674.2 10.4
640(13) 0.00549 674.6 10.5
693(14) 0.00477 675.1 10.7
678(14) 0.00515 675.6 10.8
665(13) 0.00552 676.1 10.9
651(13) 0.00569 676.6 11.1
722(15) 0.00473 677.0 11.2
647(14) 0.00519 677.5 11.3
658(14) 0.00530 678.0 11.5
665(13) 0.00557 678.5 11.6
662(14) 0.00549 679.0 11.8
671(14) 0.00518 679.4 11.9
680(14) 0.00480 679.9 12.1
684(14) 0.00516 680.5 12.2
675(13) 0.00552 681.0 12.4
672(13) 0.00549 681.6 12.6
679(14) 0.00514 682.2 12.7
699(15) 0.00468 682.8 12.9
674(14) 0.00506 683.3 13.1
679(13) 0.00551 683.9 13.3
638(13) 0.00571 684.5 13.4
683(14) 0.00512 685.1 13.6
676(14) 0.00498 685.6 13.8
698(14) 0.00496 686.2 14.0
708(14) 0.00529 686.8 14.2
679(13) 0.00549 687.4 14.4
682(14) 0.00515 687.9 15.2
697(14) 0.00478 688.5 15.4
678(14) 0.00506 689.1 15.6
711(14) 0.00522 689.7 15.8
697(14) 0.00516 690.2 16.1
709(14) 0.00497 690.8 16.3
730(15) 0.00456 691.4 16.5
681(14) 0.00518 691.9 16.8
723(14) 0.00516 692.5 17.0
667(14) 0.00529 693.1 17.3
680(14) 0.00513 693.7 17.6
677(14) 0.00502 694.2 17.9
698(14) 0.00504 694.8 18.1
687(14) 0.00543 695.4 18.4
717(14) 0.00490 696.0 18.7
662(14) 0.00519 696.5 19.0
697(14) 0.00499 697.1 19.3
706(14) 0.00510 697.7 19.6
673(13) 0.00552 698.3 20.0
701(14) 0.00491 698.8 20.3
720(15) 0.00472 699.4 20.6
708(14) 0.00497 700.0 21.0
687(14) 0.00524 700.6 21.3
663(13) 0.00559 701.1 21.7
737(15) 0.00462 701.7 22.1
707(15) 0.00471 702.3 22.4
703(14) 0.00485 702.8 22.8
704(14) 0.00518 703.4 23.2
703(14) 0.00529 704.0 23.7
721(15) 0.00469 704.6 24.1
745(15) 0.00431 705.1 24.5
713(14) 0.00482 705.7 25.0
695(14) 0.00523 706.3 25.4
707(14) 0.00531 706.9 25.9
692(14) 0.00497 707.4 26.4
700(15) 0.00460 708.0 26.9
695(14) 0.00506 708.6 27.4
684(14) 0.00548 709.2 28.0
702(14) 0.00527 709.7 28.5
693(14) 0.00506 710.3 29.1
732(15) 0.00446 710.9 29.7
727(14) 0.00485 711.5 30.3
720(14) 0.00519 712.0 30.9
704(14) 0.00516 712.6 31.5
737(15) 0.00470 713.2 32.2
709(15) 0.00467 713.8 32.9
719(15) 0.00473 714.3 33.6
745(14) 0.00502 714.9 34.3
741(14) 0.00494 715.5 35.0
737(15) 0.00471 716.0 35.8
743(15) 0.00441 716.6 36.6
730(15) 0.00472 717.2 37.4
704(14) 0.00528 717.8 38.3
745(14) 0.00483 718.3 39.2
732(15) 0.00468 718.9 40.1
710(14) 0.00477 719.5 41.0
718(15) 0.00473 720.1 42.0
718(14) 0.00518 720.6 43.0
721(14) 0.00494 721.2 44.1
693(14) 0.00497 721.8 45.2
717(15) 0.00472 722.4 46.3
756(15) 0.00458 722.9 47.5
689(14) 0.00531 723.5 48.7
708(14) 0.00496 724.1 50.0
739(15) 0.00463 724.7 51.3
737(15) 0.00459 725.2 52.6
748(15) 0.00469 725.8 54.1
715(14) 0.00516 726.4 55.6
773(15) 0.00444 727.0 57.1
751(15) 0.00456 727.5 58.7
790(15) 0.00438 728.1 60.4
777(15) 0.00451 728.7 62.2
765(14) 0.00485 729.2 64.0
760(15) 0.00453 729.8 65.9
731(15) 0.00456 730.4 67.9
758(15) 0.00457 731.0 70.0
779(15) 0.00462 731.5 72.2
750(14) 0.00492 732.1 74.5
705(14) 0.00496 732.7 76.9
764(15) 0.00437 733.3 79.5
767(15) 0.00460 733.8 82.1
786(15) 0.00465 734.4 84.9
783(15) 0.00470 735.0 87.8
781(15) 0.00425 735.6 90.9
767(16) 0.00413 736.1 94.2
724(14) 0.00485 736.7 97.7
763(14) 0.00480 737.3 101.3
761(14) 0.00488 737.9 105.1
801(15) 0.00428 738.4 109.2
774(15) 0.00421 739.0 113.5
805(15) 0.00423 739.6 118.1
797(15) 0.00464 740.2 122.9
816(15) 0.00446 740.7 128.1
782(15) 0.00450 741.3 133.6
803(16) 0.00410 741.9 139.4
822(15) 0.00433 742.4 145.6
840(15) 0.00442 743.0 152.3
839(15) 0.00437 743.6 159.5
848(16) 0.00406 744.2 167.1
871(16) 0.00376 744.7 175.3
863(16) 0.00408 745.3 184.2
847(15) 0.00439 745.9 193.8
869(16) 0.00415 746.5 204.1
839(15) 0.00417 747.0 215.3
867(16) 0.00388 747.6 227.4
853(16) 0.00408 748.2 240.6
909(16) 0.00410 748.8 255.0
971(16) 0.00371 749.3 270.8
972(17) 0.00353 749.9 288.1
932(17) 0.00366 750.5 307.2
958(17) 0.00364 751.1 328.3
1005(16) 0.00373 751.6 351.7
1036(17) 0.003422 752.2 377.9
1043(17) 0.003303 752.8 407.5
1112(18) 0.003053 753.3 441.3
1159(18) 0.003050 753.9 480.5
1222(18) 0.003049 754.5 526.9
1265(19) 0.002743 755.1 582.8
1325(20) 0.002544 755.6 651.5
1403(20) 0.002480 756.2 736.6
1509(21) 0.002349 756.8 842.3
1657(21) 0.002236 757.4 971.9
1724(22) 0.002022 757.9 1128.0
1976(24) 0.001681 758.5 1310.3
2158(25) 0.001585 759.1 1514.4
2393(26) 0.001493 759.7 1730.2
2583(26) 0.001438 760.2 1942.3
2908(29) 0.001191 760.8 2140.6
3124(31) 0.001051 761.4 2336.6
3455(32) 0.000998 762.0 2565.9
3753(32) 0.000968 762.5 2874.7
4245(34) 0.000872 763.1 3305.1
4894(38) 0.000709 764. 3893.
5727(42) 0.000567 764. 4664.
6859(45) 0.000495 765. 5633.
7897(47) 0.000458 765. 6799.
9101(50) 0.000402 766. 8135.
10598(55) 0.0003248 767. 9572.
12000(61) 0.0002649 767. 10982.
13385(63) 0.0002541 768. 12161.
14187(63) 0.0002557 768. 12869.
14080(62) 0.0002562 769. 12922.
13121(62) 0.0002602 769. 12304.
11902(61) 0.0002691 770. 11173.
10387(55) 0.0003295 771. 9771.
8825(49) 0.000416 771. 8305.
7585(46) 0.000477 772. 6916.
6430(43) 0.000530 772. 5677.
5436(41) 0.000609 773. 4619.
4739(37) 0.000737 773. 3744.
3917(32) 0.000949 774.0 3040.2
3508(31) 0.001023 774.6 2485.4
3136(30) 0.001098 775.2 2054.1
2788(29) 0.001187 775.7 1721.4
2474(27) 0.001397 776.3 1464.8
2280(25) 0.001626 776.9 1265.0
2132(25) 0.001655 777.5 1107.3
1956(24) 0.001731 778.0 980.4
1801(23) 0.001853 778.6 876.2
1749(22) 0.001990 779.2 789.1
1636(21) 0.002264 779.7 715.0
1483(21) 0.002368 780.3 651.3
1439(21) 0.002370 780.9 595.7
1392(20) 0.002500 781.5 547.0
1410(20) 0.002514 782.0 504.0
1275(18) 0.002924 782.6 465.8
1251(19) 0.002838 783.2 431.8
1202(19) 0.002870 783.8 401.3
1175(19) 0.002900 784.3 373.8
1173(18) 0.003080 784.9 349.1
1121(17) 0.003308 785.5 326.7
1083(18) 0.003166 786.1 306.4
1095(18) 0.003051 786.6 287.9
1062(17) 0.003279 787.2 271.0
1029(17) 0.00354 787.8 255.6
1000(16) 0.00373 788.4 241.4
993(17) 0.003480 788.9 228.3
970(17) 0.00352 789.5 216.3
973(17) 0.00360 790.1 205.2
960(16) 0.00377 790.7 194.9
958(16) 0.00390 791.2 185.4
966(17) 0.00362 791.8 176.6
1021(18) 0.003171 792.4 168.3
948(16) 0.00375 792.9 160.7
940(16) 0.00392 793.5 153.5
922(16) 0.00403 794.1 146.8
911(16) 0.00379 794.7 140.5
885(17) 0.00361 795.2 134.7
907(16) 0.00382 795.8 129.1
917(16) 0.00410 796.4 124.0
847(15) 0.00434 797.0 119.1
894(16) 0.00389 797.5 114.5
880(17) 0.00361 798.1 110.1
873(16) 0.00394 798.7 106.0
882(15) 0.00420 799.3 102.2
861(15) 0.00426 799.8 98.5
843(15) 0.00422 800.4 95.0
891(16) 0.00371 801.0 91.7
850(16) 0.00414 801.6 88.6
849(15) 0.00441 802.1 85.6
865(16) 0.00413 802.7 82.8
866(16) 0.00401 803.3 80.1
852(16) 0.00387 803.8 77.6
858(16) 0.00405 804.4 75.1
829(15) 0.00449 805.0 72.8
856(15) 0.00422 805.6 70.6
828(16) 0.00405 806.1 68.5
824(16) 0.00408 806.7 66.5
820(16) 0.00413 807.3 64.5
847(15) 0.00441 807.9 62.7
849(16) 0.00412 808.4 60.9
861(16) 0.00386 809.0 59.2
842(16) 0.00399 809.6 57.6
885(16) 0.00398 810.2 56.0
846(15) 0.00441 810.7 54.5
827(15) 0.00428 811.3 53.1
833(16) 0.00413 811.9 51.7
841(16) 0.00405 812.5 50.3
860(16) 0.00400 813.0 49.1
820(15) 0.00453 813.6 47.8
836(16) 0.00411 814.2 46.6
840(16) 0.00407 814.8 45.5
843(16) 0.00411 815.3 44.4
827(15) 0.00434 815.9 43.3
796(15) 0.00468 816.5 42.3
808(15) 0.00428 817.0 41.3
802(15) 0.00423 817.6 40.4
896(16) 0.00383 818.2 39.4
838(15) 0.00439 818.8 38.6
826(15) 0.00447 819.3 37.7
818(15) 0.00428 819.9 36.9
835(16) 0.00387 820.5 36.1
833(15) 0.00423 821.1 35.3
825(15) 0.00447 821.6 34.5
820(15) 0.00453 822.2 35.2
844(16) 0.00416 822.8 34.6
827(16) 0.00403 823.4 33.9
805(15) 0.00443 823.9 33.3
797(15) 0.00464 824.5 32.7
831(15) 0.00447 825.1 32.1
881(16) 0.00389 825.7 31.5
848(16) 0.00375 826.2 31.0
800(15) 0.00433 826.8 30.5
815(15) 0.00457 827.4 30.0
851(15) 0.00428 828.0 29.5
828(16) 0.00415 828.5 29.0
871(16) 0.00372 829.1 28.6
835(15) 0.00424 829.7 28.1
819(15) 0.00456 830.2 27.7
862(15) 0.00427 830.8 27.3
862(16) 0.00409 831.4 26.9
854(16) 0.00387 832.0 26.5
857(16) 0.00400 832.5 26.2
786(14) 0.00477 833.1 25.8
839(15) 0.00431 833.7 25.5
838(15) 0.00420 834.3 25.2
849(16) 0.00386 834.8 24.8
810(15) 0.00430 835.4 24.6
869(15) 0.00428 836.0 24.3
846(15) 0.00432 836.6 24.0
823(15) 0.00417 837.1 23.8
833(16) 0.00397 837.7 23.5
793(15) 0.00446 838.3 23.3
880(15) 0.00423 838.9 23.1
860(16) 0.00416 839.5 22.9
840(16) 0.00414 840.1 22.7
849(16) 0.00394 840.7 22.6
844(16) 0.00414 841.3 22.4
895(15) 0.00417 841.9 22.3
807(15) 0.00430 842.5 22.2
831(16) 0.00405 843.0 22.1
862(16) 0.00403 843.6 22.0
835(15) 0.00439 844.2 21.9
786(15) 0.00470 844.8 21.9
841(16) 0.00403 845.4 21.9
798(15) 0.00424 846.0 21.9
829(15) 0.00422 846.6 21.9
843(15) 0.00432 847.2 21.9
842(15) 0.00442 847.8 22.0
848(16) 0.00406 848.4 22.1
870(16) 0.00378 849.0 22.2
863(16) 0.00400 849.6 22.4
837(15) 0.00442 850.2 22.6
826(15) 0.00446 850.7 22.8
818(15) 0.00424 851.3 23.1
860(16) 0.00369 851.9 23.4
869(16) 0.00406 852.5 23.7
831(15) 0.00443 853.1 24.2
876(15) 0.00418 853.7 24.7
858(16) 0.00410 854.3 25.2
875(17) 0.00367 854.9 25.9
844(15) 0.00417 855.5 26.6
908(16) 0.00404 856.1 27.5
889(16) 0.00415 856.7 28.5
883(16) 0.00388 857.3 29.6
868(17) 0.00366 857.8 30.8
878(16) 0.00399 858.4 32.3
845(15) 0.00443 859.0 34.0
836(15) 0.00439 859.6 36.0
878(16) 0.00395 860.2 38.3
880(16) 0.00371 860.8 41.0
886(16) 0.00392 861.4 44.1
889(15) 0.00421 862.0 47.9
896(16) 0.00406 862.6 52.4
981(17) 0.003475 863.2 57.8
950(17) 0.00352 863.8 64.4
963(17) 0.00353 864.4 72.6
975(16) 0.00382 865.0 83.1
999(17) 0.00357 865.5 97.4
1090(18) 0.003139 866.1 118.7
1124(18) 0.002993 866.7 153.7
1269(19) 0.002686 867.3 215.2
1399(19) 0.002650 867.9 324.6
1647(21) 0.002193 868.5 509.5
1835(23) 0.001862 869.1 795.9
1946(24) 0.001773 869.7 1191.8
2214(25) 0.001567 870.3 1666.8
2568(26) 0.001451 870.9 2126.6
3072(29) 0.001154 871.5 2445.1
3655(33) 0.000927 872.1 2466.3
3720(33) 0.000922 872.7 2178.9
2840(28) 0.001288 873.2 1719.7
1980(23) 0.001853 873.8 1239.2
1511(21) 0.002247 874.4 830.4
1325(20) 0.002565 875.0 529.8
1214(19) 0.002917 875.6 333.2
1115(17) 0.003274 876.2 215.8
1021(17) 0.00365 876.8 149.3
1016(17) 0.003467 877.4 111.7
979(17) 0.003443 878.0 89.1
946(17) 0.00364 878.6 74.0
929(16) 0.00393 879.2 63.0
946(16) 0.00393 879.8 54.4
894(16) 0.00397 880.3 47.5
924(17) 0.00352 880.9 41.8
893(16) 0.00397 881.5 37.1
941(16) 0.00393 882.1 33.1
928(16) 0.00397 882.7 29.7
900(16) 0.00392 883.3 26.8
906(17) 0.00356 883.9 24.3
936(16) 0.00373 884.5 22.2
907(16) 0.00407 885.1 20.3
872(15) 0.00425 885.7 18.6
866(16) 0.00410 886.3 17.2
915(17) 0.00357 886.9 15.9
957(17) 0.00355 887.5 14.7
902(16) 0.00414 888.0 13.7
836(15) 0.00437 888.6 12.7
870(16) 0.00393 889.2 11.9
916(17) 0.00357 889.8 11.1
885(16) 0.00395 890.4 10.4
910(16) 0.00406 891.0 9.8
928(16) 0.00395 891.6 9.2
912(16) 0.00384 892.2 8.7
886(16) 0.00381 892.8 8.2
896(16) 0.00385 893.4 7.8
887(15) 0.00422 894.0 7.4
867(16) 0.00410 894.6 7.0
904(16) 0.00378 895.2 6.7
920(17) 0.00363 895.7 7.7
935(16) 0.00376 896.3 7.4
913(16) 0.00409 896.9 7.2
913(16) 0.00388 897.5 6.9
912(16) 0.00371 898.1 6.7
953(17) 0.00354 898.7 6.5
885(16) 0.00401 899.3 6.3
874(15) 0.00426 899.9 6.1
876(16) 0.00402 900.5 5.9
889(16) 0.00379 901.1 5.7
901(16) 0.00382 901.7 5.6
920(16) 0.00394 902.3 5.5
932(16) 0.00398 902.9 5.3
902(16) 0.00378 903.4 5.2
899(16) 0.00372 904.0 5.1
879(16) 0.00387 904.6 5.0
873(16) 0.00412 905.2 4.9
893(16) 0.00415 905.8 4.8
871(16) 0.00390 906.4 4.7
881(16) 0.00374 907.0 4.6
908(16) 0.00377 907.6 4.5
909(16) 0.00406 908.2 4.4
913(16) 0.00406 908.8 4.4
936(16) 0.00368 909.4 4.3
927(17) 0.003503 910.0 4.2
932(16) 0.00377 910.6 4.2
895(15) 0.00417 911.2 4.1
898(16) 0.00411 911.8 4.1
916(16) 0.00378 912.4 4.0
940(17) 0.003396 913.1 4.0
941(17) 0.00364 913.7 3.9
912(16) 0.00403 914.3 3.9
918(16) 0.00407 914.9 3.8
908(16) 0.00384 915.5 3.8
922(17) 0.003506 916.2 3.8
934(16) 0.00375 916.8 3.7
910(16) 0.00409 917.4 3.7
902(16) 0.00403 918.0 3.7
915(16) 0.00381 918.7 3.7
900(16) 0.00367 919.3 3.6
913(16) 0.00380 919.9 3.6
905(16) 0.00412 920.5 3.6
927(16) 0.00392 921.2 3.6
895(16) 0.00389 921.8 3.6
930(17) 0.00355 922.4 2.1
941(16) 0.00369 923.0 2.1
963(16) 0.00385 923.7 2.1
951(16) 0.00377 924.3 2.2
902(16) 0.00388 924.9 2.2
897(16) 0.00370 925.5 2.2
930(17) 0.00357 926.2 2.2
934(16) 0.00402 926.8 2.3
916(16) 0.00382 927.4 2.3
910(16) 0.00370 928.0 2.3
920(16) 0.00367 928.7 2.3
903(16) 0.00391 929.3 2.4
926(16) 0.00403 929.9 2.4
909(16) 0.00389 930.5 2.4
948(17) 0.00357 931.2 2.4
909(16) 0.00382 931.8 2.5
966(17) 0.00365 932.4 2.5
959(16) 0.00392 933.0 2.5
948(17) 0.00364 933.7 2.6
980(17) 0.003470 934.3 2.6
967(17) 0.00355 934.9 2.6
910(16) 0.00395 935.5 2.6
932(16) 0.00398 936.1 2.7
947(17) 0.00359 936.8 2.7
932(17) 0.00361 937.4 2.7
966(17) 0.00361 938.0 2.8
953(16) 0.00384 938.6 2.8
959(16) 0.00384 939.3 2.8
925(16) 0.00376 939.9 2.9
948(17) 0.003465 940.5 2.9
985(17) 0.00355 941.1 3.0
985(16) 0.00375 941.8 3.0
940(16) 0.00395 942.4 3.0
938(17) 0.00367 943.0 3.1
925(17) 0.00352 943.6 3.1
935(17) 0.00362 944.3 3.1
917(16) 0.00398 944.9 3.2
957(16) 0.00386 945.5 3.2
936(16) 0.00380 946.1 3.3
976(17) 0.003345 946.8 3.3
954(17) 0.00359 947.4 3.4
931(16) 0.00396 948.0 3.4
977(16) 0.00376 948.6 3.5
968(17) 0.00361 949.3 3.5
931(17) 0.00353 949.9 3.5
985(17) 0.00355 950.5 3.6
996(16) 0.00373 951.1 3.6
947(16) 0.00386 951.8 3.7
969(17) 0.00357 952.4 3.7
920(17) 0.00355 953.0 3.8
915(16) 0.00374 953.6 3.9
949(16) 0.00391 954.3 3.9
975(16) 0.00374 954.9 4.0
933(16) 0.00378 955.5 4.0
972(17) 0.003442 956.1 4.1
957(17) 0.00358 956.7 4.1
974(16) 0.00381 957.4 4.2
919(16) 0.00391 958.0 4.3
978(17) 0.003473 958.6 4.3
958(17) 0.00354 959.2 4.4
1006(17) 0.003382 959.9 4.5
992(16) 0.00374 960.5 4.5
953(16) 0.00374 961.1 4.6
996(17) 0.003419 961.7 4.7
976(17) 0.00352 962.4 4.8
1026(17) 0.003465 963.0 4.8
1008(16) 0.00371 963.6 4.9
965(17) 0.00359 964.2 5.0
937(17) 0.00361 964.9 5.1
948(17) 0.00359 965.5 5.2
960(16) 0.00371 966.1 5.2
945(16) 0.00392 966.7 5.3
995(17) 0.00354 967.4 5.4
1031(18) 0.003215 968.0 5.5
982(17) 0.00353 968.6 5.6
977(16) 0.00372 969.2 5.7
964(16) 0.00388 969.9 5.8
956(17) 0.00357 970.5 5.9
930(17) 0.00362 971.1 6.0
985(17) 0.00355 971.7 6.1
986(16) 0.00376 972.4 6.2
950(16) 0.00394 973.0 6.4
962(17) 0.00354 973.6 6.5
996(17) 0.003278 974.2 6.6
1021(17) 0.003380 974.8 6.7
1012(17) 0.00363 975.5 6.9
1022(17) 0.00360 976.1 7.0
986(17) 0.00353 976.7 7.1
960(17) 0.003418 977.3 7.3
1027(17) 0.003335 978.0 7.4
997(16) 0.00368 978.6 7.5
1013(17) 0.00363 979.2 7.7
994(17) 0.00356 979.8 7.9
975(17) 0.003381 980.5 8.0
989(17) 0.003484 981.1 8.2
998(16) 0.00372 981.7 8.4
971(16) 0.00376 982.4 8.5
975(17) 0.00356 983.0 8.7
1001(17) 0.003295 983.6 8.9
994(17) 0.00357 984.3 9.1
1023(17) 0.00364 984.9 9.3
1012(17) 0.00362 985.6 9.5
1000(17) 0.003468 986.2 9.7
1035(17) 0.003279 986.9 10.0
1057(17) 0.003299 987.5 10.2
981(16) 0.00378 988.2 10.4
981(16) 0.00372 988.8 10.7
1016(17) 0.003442 989.4 10.9
1003(17) 0.003404 990.1 11.2
1017(17) 0.003391 990.7 11.5
1057(17) 0.00352 991.4 11.8
1059(17) 0.003316 992.0 12.1
1001(17) 0.003415 992.7 12.4
999(17) 0.003386 993.3 12.7
993(17) 0.00355 994.0 13.0
1019(17) 0.00364 994.6 13.4
1021(17) 0.003428 995.2 13.7
998(17) 0.003374 995.9 14.1
985(17) 0.003507 996.5 14.5
977(17) 0.00364 997.2 14.9
1012(17) 0.00365 997.8 15.3
1018(17) 0.003365 998.5 15.8
1017(17) 0.003318 999.1 16.3
1048(17) 0.003338 999.8 16.7
1028(17) 0.00355 1000.4 17.2
1057(17) 0.00352 1001.1 17.8
1022(17) 0.003311 1001.7 18.3
1008(18) 0.003255 1002.3 18.9
1016(17) 0.003497 1003.0 19.5
1025(17) 0.00363 1003.6 20.2
1047(17) 0.00355 1004.3 20.8
1034(17) 0.003369 1004.9 21.5
1013(18) 0.003209 1005.6 22.3
1010(17) 0.003396 1006.2 23.1
1072(17) 0.003424 1006.9 23.9
1046(17) 0.00352 1007.5 24.7
1011(17) 0.003401 1008.1 25.6
1022(18) 0.003175 1008.8 26.6
1064(17) 0.003275 1009.4 27.6
1072(17) 0.003471 1010.1 28.7
1050(17) 0.00353 1010.7 29.9
1043(17) 0.003284 1011.4 31.1
1032(18) 0.003186 1012.0 32.3
1071(18) 0.003248 1012.7 33.7
1055(17) 0.003504 1013.3 35.2
1030(17) 0.00359 1013.9 36.7
1028(17) 0.003448 1014.6 38.4
1069(18) 0.003097 1015.2 40.1
1044(17) 0.003367 1015.9 42.0
1062(17) 0.003494 1016.5 44.0
1074(17) 0.003400 1017.2 46.2
1110(18) 0.003115 1017.8 48.6
1057(18) 0.003091 1018.5 51.1
1053(18) 0.003251 1019.1 53.8
1054(17) 0.00353 1019.7 56.7
1071(17) 0.003405 1020.4 59.9
1057(17) 0.003269 1021.0 63.4
1056(18) 0.003165 1021.7 67.1
1085(18) 0.003205 1022.3 71.2
1101(17) 0.003379 1023.0 75.7
1102(18) 0.003225 1023.6 80.6
1063(18) 0.003205 1024.3 85.9
1053(18) 0.003206 1024.9 91.9
1076(17) 0.003289 1025.5 98.4
1113(17) 0.003352 1026.2 105.7
1135(18) 0.003003 1026.8 113.8
1099(18) 0.003094 1027.5 122.8
1119(18) 0.003041 1028.1 133.0
1119(18) 0.003168 1028.8 144.5
1172(18) 0.003181 1029.4 157.7
1180(19) 0.002901 1030.1 172.9
1181(19) 0.002830 1030.7 190.6
1207(19) 0.002835 1031.3 211.4
1234(18) 0.002951 1032.0 236.3
1278(19) 0.002898 1032.6 266.4
1302(19) 0.002642 1033.3 303.1
1328(20) 0.002505 1033.9 348.2
1394(20) 0.002483 1034.6 403.9
1447(20) 0.002528 1035.2 472.5
1518(20) 0.002447 1035.9 556.4
1602(21) 0.002177 1036.5 658.4
1767(23) 0.001857 1037.1 780.8
1903(23) 0.001838 1037.8 925.2
2156(24) 0.001682 1038.4 1092.2
2291(25) 0.001618 1039.1 1280.6
2441(26) 0.001438 1039.7 1485.9
2761(29) 0.001162 1040.4 1698.7
3040(30) 0.001126 1041.0 1902.9
3216(30) 0.001144 1041.7 2075.4
3308(30) 0.001110 1042.3 2189.5
3338(31) 0.001035 1042.9 2223.3
3293(32) 0.000965 1043.6 2169.8
2970(29) 0.001164 1044.2 2040.0
2734(27) 0.001355 1044.9 1857.9
2579(27) 0.001411 1045.5 1650.0
2375(26) 0.001461 1046.2 1437.7
2211(26) 0.001498 1046.8 1235.7
2077(24) 0.001669 1047.5 1051.9
1882(23) 0.001973 1048.1 890.0
1773(22) 0.002046 1048.7 750.8
1632(22) 0.002159 1049.4 633.3
1608(22) 0.002100 1050.0 535.7
1516(21) 0.002271 1050.7 455.5
1473(20) 0.002523 1051.3 390.1
1437(20) 0.002514 1052.0 337.1
1373(20) 0.002557 1052.6 294.1
1314(20) 0.002563 1053.3 259.0
1313(20) 0.002594 1053.9 230.3
1315(19) 0.002838 1054.6 206.4
1241(19) 0.002868 1055.2 186.3
1302(19) 0.002635 1055.8 169.3
1245(19) 0.002732 1056.5 154.6
1204(18) 0.002936 1057.1 141.9
1213(18) 0.003058 1057.8 130.7
1183(18) 0.003050 1058.4 120.8
1195(19) 0.002871 1059.1 111.9
1215(19) 0.002802 1059.7 104.1
1181(18) 0.003049 1060.4 97.0
1217(18) 0.003055 1061.0 90.6
1146(18) 0.003007 1061.6 84.8
1192(19) 0.002775 1062.3 79.5
1172(19) 0.002913 1062.9 74.7
1157(18) 0.003084 1063.6 70.3
1143(18) 0.003252 1064.2 66.3
1151(18) 0.003033 1064.9 62.6
1149(18) 0.002934 1065.5 59.3
1123(18) 0.003063 1066.2 56.1
1128(18) 0.003229 1066.8 53.3
1137(18) 0.003245 1067.4 50.6
1123(18) 0.003110 1068.1 48.1
1137(18) 0.002965 1068.7 45.8
1145(18) 0.002997 1069.4 43.7
1173(18) 0.003119 1070.0 41.7
1156(18) 0.003232 1070.7 39.8
1091(18) 0.003245 1071.3 38.1
1115(18) 0.002932 1072.0 36.5
1137(18) 0.003077 1072.6 35.0
1142(18) 0.003237 1073.2 33.5
1095(17) 0.003376 1073.9 32.2
1083(18) 0.003265 1074.5 30.9
1126(19) 0.002847 1075.2 29.7
1099(18) 0.003131 1075.8 28.6
1057(17) 0.00354 1076.5 27.5
1110(17) 0.003303 1077.1 26.5
1114(18) 0.003167 1077.8 25.6
1109(18) 0.002927 1078.4 24.7
1130(18) 0.003082 1079.0 23.8
1074(17) 0.003482 1079.7 23.0
1115(18) 0.003252 1080.3 22.3
1129(18) 0.003038 1081.0 21.5
1132(18) 0.002971 1081.6 20.8
1115(18) 0.003157 1082.3 20.2
1106(17) 0.003389 1082.9 19.5
1116(18) 0.003225 1083.6 18.9
1130(18) 0.003023 1084.2 18.4
1108(18) 0.003007 1084.8 17.8
1123(18) 0.003098 1085.5 17.3
1129(17) 0.003281 1086.1 16.8
1100(17) 0.003283 1086.8 16.3
1149(18) 0.002957 1087.4 15.9
1123(18) 0.002983 1088.1 15.4
1059(17) 0.003310 1088.7 15.0
1095(17) 0.003381 1089.4 14.6
1118(18) 0.003133 1090.0 14.2
1124(18) 0.003027 1090.6 13.8
1095(18) 0.003086 1091.3 13.5
1118(18) 0.003115 1091.9 13.1
1122(17) 0.003328 1092.6 12.8
1122(18) 0.003177 1093.2 12.5
1161(18) 0.002926 1093.9 12.2
1102(18) 0.003156 1094.5 11.9
1102(17) 0.003284 1095.2 11.6
1152(18) 0.003220 1095.8 11.4
1120(18) 0.003018 1096.4 11.1
1114(18) 0.002989 1097.1 10.8
1124(18) 0.003077 1097.7 10.6
1186(18) 0.003003 1098.4 10.4
1127(17) 0.003299 1099.0 10.1
1099(18) 0.003146 1099.7 9.9
1129(18) 0.002947 1100.3 9.7
1152(18) 0.003055 1101.0 9.5
1133(18) 0.003176 1101.6 9.3
1135(17) 0.003285 1102.3 9.1
1134(18) 0.003060 1102.9 8.9
1135(19) 0.002844 1103.5 8.7
1096(18) 0.003151 1104.2 8.6
1078(17) 0.003391 1104.8 8.4
1082(17) 0.003421 1105.5 8.2
1097(18) 0.003185 1106.1 8.1
1140(19) 0.002837 1106.8 7.9
1159(18) 0.002997 1107.4 7.8
1097(17) 0.003399 1108.1 7.6
1120(17) 0.003303 1108.7 7.5
1159(18) 0.003042 1109.3 7.4
1100(18) 0.002967 1110.0 7.2
1095(18) 0.003186 1110.6 7.1
1112(17) 0.003347 1111.3 7.0
1157(18) 0.003200 1111.9 6.9
1127(18) 0.003079 1112.6 6.8
1142(19) 0.002815 1113.2 6.6
1129(18) 0.003032 1113.9 6.5
1157(18) 0.003206 1114.5 6.4
1139(18) 0.003232 1115.1 6.3
1178(18) 0.002923 1115.8 6.2
1163(19) 0.002848 1116.4 6.1
1120(18) 0.003128 1117.1 6.0
1114(17) 0.003340 1117.7 6.0
1130(18) 0.003165 1118.4 5.9
1116(18) 0.003080 1119.0 5.8
1117(18) 0.003004 1119.7 5.7
1154(18) 0.002978 1120.3 5.6
1127(17) 0.003315 1120.9 5.5
1137(18) 0.003094 1121.6 5.5
1121(18) 0.003035 1122.2 5.4
1121(18) 0.003024 1122.9 5.3
1136(18) 0.003108 1123.5 5.2
1102(17) 0.003368 1124.2 5.2
1118(18) 0.003167 1124.8 5.1
1103(18) 0.003122 1125.5 5.1
1159(18) 0.002994 1126.1 5.0
1151(18) 0.003142 1126.7 4.9
1129(17) 0.003292 1127.4 4.9
1150(18) 0.003003 1128.0 4.8
1092(18) 0.003059 1128.7 4.8
1108(18) 0.003118 1129.3 4.7
1150(18) 0.003146 1130.0 4.7
1111(17) 0.003346 1130.6 4.6
1111(18) 0.003063 1131.3 4.6
1176(19) 0.002854 1131.7 4.5
1152(18) 0.003002 1131.8 4.5
1114(17) 0.003269 1132.0 4.4
1125(17) 0.003281 1132.2 4.4
1154(18) 0.003007 1132.4 4.4
1150(19) 0.002849 1132.6 4.3
1175(18) 0.002940 1132.7 4.3
1172(18) 0.003101 1132.9 4.3
1175(18) 0.003127 1133.1 4.2
1118(18) 0.003114 1133.3 4.2
1157(19) 0.002759 1133.5 4.2
1186(19) 0.002864 1133.6 4.1
1104(17) 0.003323 1133.8 4.1
1122(17) 0.003279 1134.0 4.1
1179(18) 0.002962 1134.2 4.1
1122(19) 0.002895 1134.4 4.0
1139(18) 0.003065 1134.5 4.0
1103(17) 0.003345 1134.7 4.0
1159(18) 0.003171 1134.9 4.0
1140(18) 0.003049 1135.1 4.0
1150(19) 0.002880 1135.3 4.0
1098(18) 0.003167 1135.4 4.0
1109(17) 0.003301 1135.6 4.0
1145(18) 0.003179 1135.8 3.9
1124(18) 0.003077 1136.0 3.9
1129(18) 0.002945 1136.2 3.9
1161(18) 0.002925 1136.3 3.9
1128(18) 0.003243 1136.5 3.9
1142(18) 0.003159 1136.7 4.0
1136(18) 0.003020 1136.9 4.0
1124(18) 0.003023 1137.1 4.0
1149(18) 0.003015 1137.2 4.0
1158(18) 0.003204 1137.4 4.0
1155(18) 0.003106 1137.6 4.0
1186(19) 0.002883 1137.8 4.1
1158(18) 0.002933 1138.0 4.1
1143(18) 0.003085 1138.1 4.1
1117(17) 0.003336 1138.3 4.2
1106(18) 0.003207 1138.5 4.2
1162(19) 0.002867 1138.7 4.2
1148(18) 0.002959 1138.9 4.3
1161(18) 0.003061 1139.0 4.3
1192(18) 0.003123 1139.2 4.4
1162(18) 0.003013 1139.4 4.5
1140(18) 0.002952 1139.6 4.5
1145(18) 0.002998 1139.8 4.6
1122(18) 0.003245 1139.9 4.7
1136(18) 0.003261 1140.1 4.8
1140(18) 0.003031 1140.3 4.9
1140(19) 0.002879 1140.5 5.0
1141(18) 0.002997 1140.7 5.2
1150(18) 0.003213 1140.8 5.3
1152(18) 0.003219 1141.0 5.5
1144(18) 0.003031 1141.2 5.7
1185(19) 0.002758 1141.4 5.8
1193(18) 0.002928 1141.6 6.1
1194(18) 0.003046 1141.7 6.3
1139(17) 0.003280 1141.9 6.6
1143(18) 0.003050 1142.1 6.8
1190(19) 0.002679 1142.3 7.2
1181(18) 0.002926 1142.5 7.5
1194(18) 0.003082 1142.6 7.9
1187(18) 0.003150 1142.8 8.4
1188(18) 0.002953 1143.0 8.9
1190(19) 0.002694 1143.2 9.5
1137(18) 0.003083 1143.4 10.1
1179(18) 0.003140 1143.5 10.9
1140(18) 0.003234 1143.7 11.8
1179(19) 0.002916 1143.9 12.9
1208(19) 0.002668 1144.1 14.2
1199(19) 0.002885 1144.3 15.8
1181(18) 0.003154 1144.4 17.7
1246(18) 0.002939 1144.6 20.0
1205(19) 0.002886 1144.8 22.7
1169(19) 0.002885 1145.0 26.1
1196(19) 0.002879 1145.2 30.0
1166(18) 0.003190 1145.3 34.6
1212(18) 0.002991 1145.5 40.0
1241(19) 0.002755 1145.7 46.1
1179(19) 0.002870 1145.9 53.0
1177(18) 0.002963 1146.1 60.6
1227(18) 0.003019 1146.2 68.6
1243(19) 0.002874 1146.4 76.7
1248(19) 0.002737 1146.6 84.3
1247(19) 0.002769 1146.8 90.6
1290(19) 0.002744 1147.0 94.9
1248(18) 0.002973 1147.1 96.4
1243(19) 0.002859 1147.3 94.9
1286(19) 0.002660 1147.5 90.6
1274(19) 0.002692 1147.7 84.3
1251(19) 0.002813 1147.9 76.7
1210(18) 0.003068 1148.0 68.7
1214(19) 0.002888 1148.2 60.7
1199(19) 0.002793 1148.4 53.1
1181(19) 0.002910 1148.6 46.2
1196(18) 0.003028 1148.8 40.1
1243(18) 0.003001 1148.9 34.7
1228(19) 0.002778 1149.1 28.8
1150(19) 0.002899 1149.3 24.9
1250(19) 0.002717 1149.5 21.6
1184(18) 0.003061 1149.7 18.9
1170(18) 0.003198 1149.8 16.7
1200(19) 0.002898 1150.0 14.8
1189(19) 0.002775 1150.2 13.3
1171(18) 0.002969 1150.4 12.1
1169(18) 0.003123 1150.6 11.1
1197(18) 0.003104 1150.8 10.3
1164(18) 0.002943 1150.9 9.6
1165(19) 0.002814 1151.1 9.1
1187(18) 0.002956 1151.3 8.6
1171(18) 0.003164 1151.5 8.2
1199(18) 0.003081 1151.6 7.9
1198(18) 0.002951 1151.8 7.7
1165(19) 0.002807 1152.0 7.5
1232(19) 0.002784 1152.2 7.3
1172(18) 0.003159 1152.4 7.2
1181(18) 0.003139 1152.5 7.1
1177(18) 0.002948 1152.7 6.9
1176(19) 0.002760 1152.9 6.8
1210(19) 0.002848 1153.1 6.7
1176(18) 0.003146 1153.3 6.5
1141(18) 0.003226 1153.4 6.3
1152(18) 0.003013 1153.6 6.1
1188(19) 0.002815 1153.8 5.8
1101(18) 0.003186 1154.0 5.6
1181(18) 0.003148 1154.2 5.3
1174(18) 0.003109 1154.3 5.0
1170(18) 0.002965 1154.5 4.8
1163(19) 0.002875 1154.7 4.5
1176(19) 0.002890 1154.9 4.2
1148(18) 0.003238 1155.1 4.0
1213(19) 0.002902 1155.3 3.7
1169(18) 0.002933 1155.4 3.5
1177(19) 0.002883 1155.6 3.3
1151(18) 0.003057 1155.8 3.1
1133(17) 0.003305 1156.0 2.9
1162(18) 0.003068 1156.1 2.7
1172(19) 0.002899 1156.3 2.6
1232(19) 0.002769 1156.5 2.4
1170(18) 0.003078 1156.7 2.3
1155(18) 0.003204 1156.9 2.2
1146(18) 0.003062 1157.0 2.0
1160(19) 0.002908 1157.2 1.9
1135(18) 0.003101 1157.4 1.8
1180(18) 0.003047 1157.6 1.7
1149(18) 0.003254 1157.8 1.7
1237(19) 0.002731 1157.9 1.6
1205(19) 0.002731 1158.1 1.5
1145(18) 0.002975 1158.3 1.5
1136(18) 0.003235 1158.5 1.4
1217(18) 0.003042 1158.7 1.3
1175(18) 0.002980 1158.8 1.3
1208(19) 0.002726 1159.0 1.2
1186(18) 0.002936 1159.2 1.2
1217(18) 0.002994 1159.4 1.2
1171(18) 0.003174 1159.6 1.1
1120(18) 0.003148 1159.8 1.1
1187(19) 0.002770 1159.9 1.0
1186(18) 0.002939 1160.1 1.0
1194(18) 0.003100 1160.3 1.0
1187(18) 0.003117 1160.5 0.9
1178(18) 0.002934 1160.7 0.9
1192(19) 0.002734 1160.8 0.9
1157(18) 0.003051 1161.0 0.9
1190(18) 0.003090 1161.2 0.8
1171(18) 0.003167 1161.4 0.8
1211(19) 0.002813 1161.5 0.8
1216(19) 0.002659 1161.7 0.8
1188(18) 0.002951 1161.9 0.7
1198(18) 0.003078 1162.1 0.7
1190(18) 0.003060 1162.3 0.7
1165(18) 0.002986 1162.4 0.7
1179(19) 0.002726 1162.6 0.7
1147(18) 0.002978 1162.8 0.7
1195(18) 0.003120 1163.0 0.6
1184(18) 0.003032 1163.2 0.6
1165(18) 0.002967 1163.3 0.6
1178(19) 0.002782 1163.5 0.6
1181(19) 0.002866 1163.7 0.6
1172(18) 0.003200 1163.9 0.6
1212(18) 0.002988 1164.1 0.6
1206(19) 0.002821 1164.3 0.5
1187(19) 0.002826 1164.4 0.5
1177(18) 0.002946 1164.6 0.5
1214(18) 0.003055 1164.8 0.5
1146(18) 0.003092 1165.0 0.5
1156(18) 0.002952 1165.2 0.5
1211(19) 0.002816 1165.3 0.5
1160(18) 0.003083 1165.5 0.5
1119(17) 0.003316 1165.7 0.5
1169(18) 0.002986 1165.9 0.4
1204(19) 0.002778 1165.6 0.4
1225(19) 0.002775 1165.3 0.4
1166(18) 0.003119 1165.0 0.4
1177(18) 0.003176 1164.7 0.4
1157(18) 0.002985 1164.4 0.4
1174(19) 0.002863 1164.1 0.4
1152(18) 0.003029 1163.8 0.4
1151(18) 0.003144 1163.4 0.4
1195(18) 0.003112 1163.1 0.4
1164(18) 0.002968 1162.8 0.4
1150(19) 0.002903 1162.5 0.4
1139(18) 0.003102 1162.2 0.4
1155(18) 0.003153 1161.9 0.3
1144(17) 0.003269 1161.6 0.3
1171(19) 0.002912 1161.2 0.3
1186(19) 0.002752 1160.9 0.3
1166(18) 0.002932 1160.6 0.3
1199(18) 0.003051 1160.3 0.3
1169(18) 0.003157 1160.0 0.3
1186(18) 0.002923 1159.7 0.3
1187(19) 0.002793 1159.4 0.3
1168(18) 0.002975 1159.0 0.3
1174(18) 0.003154 1158.7 0.3
1192(18) 0.003083 1158.4 0.3
1246(19) 0.002805 1158.1 0.3
1160(19) 0.002843 1157.8 0.3
1127(18) 0.003103 1157.5 0.3
1172(18) 0.003178 1157.2 0.3
1219(18) 0.002998 1156.9 0.3
1171(18) 0.002975 1156.5 0.3
1139(19) 0.002843 1156.2 0.3
1178(18) 0.002930 1155.9 0.3
1180(18) 0.003182 1155.6 0.2
1142(18) 0.003200 1155.3 0.2
1189(19) 0.002915 1155.0 0.2
1187(19) 0.002828 1154.7 0.2
1165(18) 0.002971 1154.3 0.2
1148(18) 0.003230 1154.0 0.2
1181(18) 0.003087 1153.7 0.2
1195(19) 0.002841 1153.4 0.2
1162(19) 0.002848 1153.1 0.2
1186(18) 0.002946 1152.8 0.2
1162(18) 0.003180 1152.5 0.2
1201(18) 0.002983 1152.1 0.2
1207(19) 0.002825 1151.8 0.2
1218(19) 0.002740 1151.5 0.2
1135(18) 0.003097 1151.2 0.2
1169(18) 0.003181 1150.9 0.2
1215(19) 0.002876 1150.6 0.2
1135(18) 0.003048 1150.3 0.2
1218(19) 0.002799 1149.9 0.2
1180(18) 0.003043 1149.6 0.2
1175(18) 0.003175 1149.3 0.2
1118(18) 0.003093 1149.0 0.2
1203(19) 0.002724 1148.7 0.2
1145(18) 0.003045 1148.4 0.2
1191(18) 0.003050 1148.1 0.2
1153(18) 0.003209 1147.8 0.2
1148(18) 0.003013 1147.4 0.2
1164(19) 0.002842 1147.1 0.2
1184(19) 0.002895 1146.8 0.2
1143(18) 0.003180 1146.5 0.2
1177(18) 0.003159 1146.2 0.2
1205(19) 0.002847 1145.9 0.2
1170(19) 0.002793 1145.6 0.2
1178(18) 0.002958 1145.2 0.2
1173(18) 0.003137 1144.9 0.2
1245(18) 0.002982 1144.6 0.2
1193(18) 0.002922 1144.3 0.2
1173(19) 0.002804 1144.0 0.2
1194(19) 0.002897 1143.7 0.2
1189(18) 0.003105 1143.4 0.1
1186(18) 0.003108 1143.0 0.1
1197(19) 0.002892 1142.7 0.1
1192(19) 0.002722 1142.4 0.1
1189(18) 0.002923 1142.1 0.1
1172(18) 0.003149 1141.8 0.1
1161(18) 0.003198 1141.5 0.1
1209(19) 0.002910 1141.2 0.1
1152(19) 0.002862 1140.8 0.1
1178(19) 0.002909 1140.5 0.1
1185(18) 0.003157 1140.2 0.1
1202(18) 0.003031 1139.9 0.1
1166(18) 0.002992 1139.6 0.1
1161(19) 0.002878 1139.3 0.1
1193(19) 0.002875 1139.0 0.1
1167(18) 0.003162 1138.7 0.1
1170(18) 0.003092 1138.3 0.1
1207(19) 0.002882 1138.0 0.1
1174(19) 0.002876 1137.7 0.1
1146(18) 0.002998 1137.4 0.1
1175(18) 0.003168 1137.1 0.1
1205(18) 0.002946 1136.8 0.1
1177(18) 0.002943 1136.5 0.1
1206(19) 0.002792 1136.1 0.1
1181(18) 0.002997 1135.8 0.1
1204(18) 0.003095 1135.5 0.1
1155(18) 0.003066 1135.2 0.1
1220(19) 0.002688 1134.9 0.1
1179(19) 0.002909 1134.6 0.1
1201(19) 0.002885 1134.3 0.1
1176(18) 0.003164 1133.9 0.1
1132(18) 0.003106 1133.6 0.1
1180(19) 0.002868 1133.3 0.1
1172(18) 0.002925 1133.0 0.1
1186(18) 0.003040 1132.7 0.1
1140(18) 0.003252 1132.4 0.1
1180(19) 0.002855 1132.1 0.1
1175(19) 0.002822 1131.7 0.1
1139(18) 0.003084 1131.4 0.1
1141(18) 0.003204 1131.1 0.1
1185(18) 0.003133 1130.8 0.1
1199(19) 0.002838 1130.5 0.1
1160(19) 0.002883 1130.2 0.1
1120(18) 0.003148 1129.9 0.1
1183(18) 0.003102 1129.6 0.1
1175(18) 0.003161 1129.2 0.1
1174(18) 0.002941 1128.9 0.1
1178(19) 0.002757 1128.6 0.1
1179(18) 0.002956 1128.3 0.1
1189(18) 0.003114 1128.0 0.1
1175(18) 0.003174 1127.7 0.1
1175(18) 0.002931 1127.4 0.1
1137(19) 0.002777 1127.0 0.1
1166(18) 0.002984 1126.7 0.1
1161(18) 0.003225 1126.4 0.1
1152(18) 0.003206 1126.1 0.1
1152(18) 0.002976 1125.8 0.1
1132(19) 0.002879 1125.5 0.1
1139(18) 0.002979 1125.2 0.1
1142(18) 0.003235 1124.8 0.1
1188(18) 0.003111 1124.5 0.1
1131(18) 0.003080 1124.2 0.1
1146(19) 0.002881 1123.9 0.1
1163(18) 0.002946 1123.6 0.1
1109(17) 0.003365 1123.3 0.1
1191(18) 0.003060 1123.0 0.1
1164(18) 0.003001 1122.6 0.1
1187(19) 0.002768 1122.3 0.1
1104(18) 0.003160 1122.0 0.1
1142(18) 0.003248 1121.7 0.1
1159(18) 0.003118 1121.4 0.1
1134(18) 0.003062 1121.1 0.1
1160(18) 0.002933 1120.8 0.1
1154(18) 0.003052 1120.5 0.1
1166(18) 0.003204 1120.1 0.1
1164(18) 0.003040 1119.8 0.1
1159(18) 0.002961 1119.5 0.1
1157(18) 0.002940 1119.2 0.1
1154(18) 0.003065 1118.9 0.1
1142(18) 0.003264 1118.6 0.1
1107(18) 0.003170 1118.3 0.1
1157(19) 0.002893 1117.9 0.1
1176(19) 0.002887 1117.6 0.1
1163(18) 0.003083 1117.3 0.1
1148(18) 0.003237 1117.0 0.1
1152(18) 0.003000 1116.7 0.1
1207(19) 0.002818 1116.4 0.1
1201(19) 0.002900 1116.1 0.1
1148(18) 0.003190 1115.7 0.1
1143(18) 0.003232 1115.4 0.1
1130(18) 0.003032 1115.1 0.1
1125(18) 0.002985 1114.8 0.1
1150(18) 0.003003 1114.5 0.1
1167(18) 0.003110 1114.2 0.1
1141(18) 0.003262 1113.9 0.1
1130(18) 0.003073 1113.5 0.1
1142(19) 0.002848 1113.2 0.1
1137(18) 0.003042 1112.9 0.1
1141(18) 0.003253 1112.6 0.1
1139(18) 0.003257 1112.3 0.1
1179(19) 0.002889 1112.0 0.1
1166(19) 0.002790 1111.7 0.1
1153(18) 0.003016 1111.4 0.1
1139(18) 0.003231 1111.0 0.1
1146(18) 0.003218 1110.7 0.1
1173(18) 0.002995 1110.4 0.1
1151(19) 0.002784 1110.1 0.1
1083(18) 0.003248 1109.8 0.1
1112(17) 0.003305 1109.5 0.1
1147(18) 0.003200 1109.2 0.1
1144(18) 0.003044 1108.8 0.1
1166(19) 0.002785 1108.5 0.1
1116(18) 0.003144 1108.2 0.1
1124(17) 0.003298 1107.9 0.1
1042(17) 0.003503 1107.6 0.1
1130(18) 0.003056 1107.3 0.1
1192(19) 0.002790 1107.0 0.1
1117(18) 0.003142 1106.6 0.1
1121(17) 0.003298 1106.3 0.1
1082(17) 0.003385 1106.0 0.1
1134(18) 0.003043 1105.7 0.1
1170(19) 0.002910 1105.4 0.1
1101(18) 0.003200 1105.1 0.1
1174(18) 0.003164 1104.8 0.1
1196(18) 0.002978 1104.5 0.1
1100(18) 0.003208 1104.1 0.1
1122(18) 0.003007 1103.8 0.1
1117(18) 0.003113 1103.5 0.1
1081(17) 0.003451 1103.2 0.1
1143(18) 0.003031 1102.9 0.1
1100(18) 0.003051 1102.6 0.1
1091(18) 0.003148 1102.3 0.1
1118(18) 0.003237 1101.9 0.1
1124(17) 0.003294 1101.6 0.1
1078(18) 0.003202 1101.3 0.1
1111(18) 0.003053 1101.0 0.1
1143(18) 0.003028 1100.7 0.1
1119(17) 0.003275 1100.4 0.1
1134(18) 0.003225 1100.1 0.1
1102(18) 0.003170 1099.7 0.1
1081(18) 0.003052 1099.4 0.1
1085(18) 0.003178 1099.1 0.1
1088(17) 0.003349 1098.8 0.1
1056(17) 0.00353 1098.5 0.1
1119(18) 0.003130 1098.2 0.1
1109(18) 0.002990 1097.9 0.1
1107(18) 0.003145 1097.5 0.1
1104(17) 0.003315 1097.2 0.1
1102(17) 0.003366 1096.9 0.1
1157(18) 0.002992 1096.6 0.1
1126(19) 0.002883 1096.3 0.1
1127(18) 0.003076 1096.0 0.1
1132(17) 0.003286 1095.7 0.1
1054(17) 0.003498 1095.4 0.1
1047(17) 0.003300 1095.0 0.1
1099(18) 0.002960 1094.7 0.1
1125(18) 0.003088 1094.4 0.1
1073(17) 0.003441 1094.1 0.1
1112(17) 0.003325 1093.8 0.1
1079(17) 0.003273 1093.5 0.1
1062(18) 0.003177 1093.2 0.1
1101(18) 0.003123 1092.8 0.1
1133(17) 0.003276 1092.5 0.1
1082(17) 0.003351 1092.2 0.1
1105(18) 0.003057 1091.9 0.1
1113(18) 0.002990 1091.6 0.1
1096(18) 0.003161 1091.3 0.1
1074(17) 0.003453 1091.0 0.1
1098(17) 0.003302 1090.6 0.1
1105(18) 0.003112 1090.3 0.1
1096(18) 0.003080 1090.0 0.1
1124(18) 0.003124 1089.7 0.1
1094(17) 0.003419 1089.4 0.1
1103(18) 0.003206 1089.1 0.1
1114(18) 0.003034 1088.8 0.1
1050(17) 0.003274 1088.4 0.1
1108(18) 0.003173 1088.1 0.1
1093(17) 0.003417 1087.8 0.1
1092(18) 0.003148 1087.5 0.1
1079(18) 0.003157 1087.2 0.1
1073(18) 0.003212 1086.9 0.1
1088(17) 0.003302 1086.6 0.1
1084(17) 0.003435 1086.3 0.1
1108(18) 0.003109 1085.9 0.1
1060(18) 0.003200 1085.6 0.1
1035(17) 0.003381 1085.3 0.1
1098(17) 0.003274 1085.0 0.1
1098(17) 0.003348 1084.7 0.1
1048(17) 0.003369 1084.4 0.1
1119(18) 0.002929 1084.1 0.1
1056(17) 0.003318 1083.7 0.1
1097(17) 0.003290 1083.4 0.1
1086(17) 0.003430 1083.1 0.1
1057(18) 0.003263 1082.8 0.1
1075(18) 0.003067 1082.5 0.1
1117(18) 0.003104 1082.2 0.1
1054(17) 0.003493 1081.9 0.1
1102(17) 0.003385 1081.5 0.1
1079(18) 0.003239 1081.2 0.1
1092(18) 0.002958 1080.9 0.1
1027(17) 0.003454 1080.6 0.1
1115(17) 0.003305 1080.0 0.1
1082(17) 0.003424 1079.3 0.1
1061(17) 0.003305 1078.7 0.1
1083(18) 0.003010 1078.0 0.1
1117(18) 0.003049 1077.3 0.1
1111(17) 0.003362 1076.7 0.1
1132(18) 0.003265 1076.0 0.1
1060(17) 0.003295 1075.4 0.1
1059(18) 0.003015 1074.7 0.1
1081(18) 0.003183 1074.0 0.1
1109(17) 0.003368 1073.4 0.1
1105(17) 0.003293 1072.7 0.1
1067(17) 0.003286 1072.0 0.1
1072(18) 0.003035 1071.4 0.1
1061(18) 0.003235 1070.7 0.1
1101(17) 0.003366 1070.0 0.1
1071(17) 0.003430 1069.4 0.1
1103(18) 0.003118 1068.7 0.1
1046(18) 0.003257 1068.1 0.1
1094(18) 0.003163 1067.4 0.1
1088(17) 0.003418 1066.7 0.1
1094(18) 0.003228 1066.1 0.1
1134(18) 0.002954 1065.4 0.1
1110(18) 0.003106 1064.7 0.1
1090(18) 0.003217 1064.1 0.1
1068(17) 0.003476 1063.4 0.1
1051(17) 0.003348 1062.7 0.1
1039(17) 0.003313 1062.1 0.1
1103(18) 0.003082 1061.4 0.1
1087(18) 0.003205 1060.8 0.1
1091(17) 0.003429 1060.1 0.1
1070(18) 0.003184 1059.4 0.1
1059(18) 0.003125 1058.8 0.1
1026(17) 0.003327 1058.1 0.1
1045(17) 0.003436 1057.4 0.1
1113(17) 0.003336 1056.8 0.1
1010(17) 0.003460 1056.1 0.1
1041(18) 0.003163 1055.4 0.1
1098(18) 0.003067 1054.8 0.1
1075(17) 0.003420 1054.1 0.1
1070(17) 0.003480 1053.4 0.1
1054(18) 0.003241 1052.8 0.1
998(17) 0.003340 1052.1 0.1
1048(17) 0.003303 1051.5 0.1
1044(17) 0.003469 1050.8 0.1
1057(17) 0.003501 1050.1 0.1
1037(17) 0.003325 1049.5 0.1
1060(18) 0.003058 1048.8 0.1
1048(17) 0.003343 1048.1 0.1
1023(17) 0.00362 1047.5 0.1
1044(17) 0.00356 1046.8 0.1
1042(17) 0.003313 1046.1 0.1
1081(18) 0.002933 1045.5 0.1
1079(18) 0.003150 1044.8 0.1
1049(17) 0.00353 1044.2 0.1
1038(17) 0.00358 1043.5 0.1
1073(17) 0.003277 1042.8 0.1
1074(18) 0.003012 1042.2 0.1
1072(18) 0.003229 1041.5 0.1
1067(17) 0.003493 1040.8 0.1
1059(17) 0.003476 1040.2 0.1
1042(17) 0.003349 1039.5 0.1
1011(17) 0.003308 1038.8 0.1
1056(18) 0.003238 1038.2 0.1
1052(17) 0.00353 1037.5 0.1
1014(17) 0.00358 1036.9 0.1
1042(17) 0.003384 1036.2 0.1
1063(18) 0.003167 1035.5 0.1
988(17) 0.003487 1034.9 0.1
1046(17) 0.00358 1034.2 0.1
1045(17) 0.003469 1033.5 0.1
1062(18) 0.003264 1032.9 0.1
1004(17) 0.003447 1032.2 0.1
1032(17) 0.003313 1031.5 0.1
1021(17) 0.00362 1030.9 0.1
1035(17) 0.003421 1030.2 0.1
1041(17) 0.003313 1029.6 0.1
1061(18) 0.003180 1028.9 0.1
1049(17) 0.003328 1028.2 0.1
1041(17) 0.00357 1027.6 0.1
1080(17) 0.003273 1026.9 0.1
1038(17) 0.003319 1026.2 0.1
1040(18) 0.003257 1025.6 0.1
1000(17) 0.00356 1024.9 0.1
990(16) 0.00375 1024.2 0.1
1049(17) 0.003283 1023.6 0.1
1027(18) 0.003251 1022.9 0.1
1009(17) 0.003423 1022.3 0.1
1000(17) 0.00359 1021.6 0.1
1004(16) 0.00371 1020.9 0.1
1023(17) 0.003364 1020.3 0.1
1019(18) 0.003260 1019.6 0.1
1034(17) 0.003343 1018.9 0.1
1005(17) 0.00364 1018.3 0.1
997(16) 0.00375 1017.6 0.1
1033(17) 0.003426 1016.9 0.1
1029(18) 0.003202 1016.3 0.1
1015(17) 0.003379 1015.6 0.1
1010(17) 0.00362 1015.0 0.1
1070(17) 0.003466 1014.3 0.1
997(17) 0.00352 1013.6 0.1
974(17) 0.003374 1013.0 0.1
971(17) 0.00361 1012.3 0.1
1007(17) 0.00365 1011.6 0.1
987(16) 0.00372 1011.0 0.1
981(17) 0.00360 1010.3 0.1
995(17) 0.003277 1009.6 0.1
1027(17) 0.003307 1009.0 0.1
1040(17) 0.00356 1008.3 0.1
1031(17) 0.00353 1007.7 0.1
953(16) 0.00370 1007.0 0.1
1006(17) 0.003267 1006.3 0.1
1048(17) 0.003328 1005.7 0.1
1026(17) 0.00362 1005.0 0.1
1010(17) 0.00360 1004.3 0.1
1008(17) 0.003377 1003.7 0.1
992(17) 0.003314 1003.0 0.1
1004(17) 0.003407 1002.3 0.1
981(16) 0.00376 1001.7 0.1
1018(17) 0.00356 1001.0 0.1
988(17) 0.003494 1000.4 0.1
1014(17) 0.003312 999.7 0.1
989(17) 0.00360 999.0 0.2
1012(17) 0.00367 998.4 0.2
979(16) 0.00373 997.7 0.2
1020(17) 0.003438 997.0 0.2
1002(17) 0.003404 996.4 0.2
957(16) 0.00376 995.7 0.2
984(16) 0.00378 995.0 0.2
1032(17) 0.003382 994.4 0.2
1015(17) 0.003280 993.7 0.2
996(17) 0.003428 993.1 0.2
982(16) 0.00368 992.4 0.2
1012(17) 0.00366 991.7 0.2
1039(17) 0.003316 991.1 0.2
1007(17) 0.003320 990.4 0.2
1029(17) 0.003342 989.7 0.2
958(16) 0.00381 989.1 0.2
964(16) 0.00385 988.4 0.2
1010(17) 0.003397 987.7 0.2
961(17) 0.003471 987.1 0.2
977(17) 0.00351 986.4 0.2
994(16) 0.00368 985.8 0.2
1033(17) 0.00358 985.1 0.2
1003(17) 0.003437 984.4 0.2
984(17) 0.003363 983.8 0.2
1006(17) 0.003456 983.1 0.2
989(16) 0.00376 982.4 0.2
959(16) 0.00388 981.8 0.2
945(16) 0.00371 981.1 0.2
978(18) 0.003263 980.4 0.3
959(17) 0.00362 979.8 0.3
962(16) 0.00380 979.1 0.3
978(16) 0.00376 978.5 0.3
994(17) 0.00354 977.8 0.3
987(17) 0.003295 977.1 0.3
986(17) 0.00351 976.5 0.3
980(16) 0.00379 975.8 0.3
971(16) 0.00381 975.1 0.3
1023(17) 0.003428 974.5 0.3
1027(18) 0.003223 973.8 0.3
1019(17) 0.003442 973.1 0.3
957(16) 0.00389 972.5 0.3
935(16) 0.00394 971.8 0.3
974(17) 0.00365 971.2 0.4
965(17) 0.00358 970.5 0.4
937(16) 0.00375 969.8 0.4
977(16) 0.00384 969.2 0.4
933(16) 0.00391 968.5 0.4
968(17) 0.00356 967.8 0.4
982(17) 0.003423 967.2 0.4
955(17) 0.00361 966.5 0.4
971(16) 0.00383 965.8 0.4
974(16) 0.00368 965.2 0.4
971(17) 0.00351 964.5 0.5
935(17) 0.00363 963.9 0.5
982(17) 0.00353 963.2 0.5
971(16) 0.00382 962.5 0.5
967(17) 0.00361 961.9 0.5
926(16) 0.00369 961.2 0.5
949(17) 0.00365 960.6 0.5
947(16) 0.00384 960.0 0.6
955(16) 0.00389 959.5 0.6
976(17) 0.00360 958.9 0.6
986(17) 0.003439 958.3 0.6
1025(17) 0.003349 957.7 0.6
973(16) 0.00369 957.1 0.7
965(16) 0.00382 956.5 0.7
983(17) 0.003435 955.9 0.7
955(17) 0.003482 955.4 0.7
956(17) 0.00362 954.8 0.8
972(16) 0.00375 954.2 0.8
985(16) 0.00372 953.6 0.8
954(17) 0.00362 953.0 0.8
957(17) 0.003465 952.4 0.9
996(17) 0.003485 951.8 0.9
1033(17) 0.00351 951.2 1.0
921(16) 0.00403 950.7 1.0
951(17) 0.00365 950.1 1.0
957(17) 0.003389 949.5 1.1
961(17) 0.00360 948.9 1.1
920(16) 0.00397 948.3 1.2
924(16) 0.00399 947.7 1.2
966(17) 0.00355 947.1 1.3
963(17) 0.003363 946.6 1.3
981(17) 0.00356 946.0 1.4
960(16) 0.00384 945.4 1.5
1001(17) 0.00363 944.8 1.6
943(17) 0.00363 944.2 1.6
911(17) 0.00354 943.6 1.7
929(17) 0.00360 943.0 4.1
937(16) 0.00395 942.5 4.2
928(16) 0.00396 941.9 4.4
935(16) 0.00368 941.3 4.6
937(17) 0.00351 940.7 4.8
964(17) 0.00360 940.1 5.0
952(16) 0.00389 939.5 5.2
949(16) 0.00374 938.9 5.5
941(16) 0.00368 938.4 5.8
917(17) 0.00367 937.8 6.1
967(17) 0.00354 937.2 6.5
929(16) 0.00398 936.6 6.8
932(16) 0.00387 936.0 7.3
972(17) 0.003481 935.4 7.7
939(17) 0.00357 934.8 8.3
901(16) 0.00395 934.3 8.9
899(16) 0.00414 933.7 9.5
960(17) 0.00366 933.1 10.2
941(17) 0.00363 932.5 11.0
931(16) 0.00370 931.9 11.9
971(17) 0.00361 931.3 12.8
924(16) 0.00402 930.7 13.8
993(17) 0.003459 930.1 14.9
941(17) 0.00365 929.6 16.1
954(16) 0.00367 929.0 17.4
984(17) 0.00367 928.4 18.7
977(16) 0.00381 927.8 20.1
948(17) 0.00356 927.2 21.5
947(17) 0.00354 926.6 22.8
959(17) 0.00363 926.0 24.1
953(16) 0.00385 925.5 25.3
957(16) 0.00388 924.9 26.2
961(17) 0.00359 924.3 26.9
992(17) 0.003313 923.7 27.4
970(17) 0.00352 923.1 27.5
954(16) 0.00381 922.5 27.3
984(16) 0.00378 921.9 26.9
922(16) 0.00378 921.4 26.3
970(17) 0.003372 920.8 25.6
940(16) 0.00371 920.2 24.7
921(16) 0.00406 919.6 23.9
952(16) 0.00390 919.0 23.0
968(17) 0.00365 918.4 22.2
933(17) 0.00354 917.8 21.5
916(16) 0.00382 917.3 20.9
932(16) 0.00399 916.7 20.4
927(16) 0.00396 916.1 20.0
928(16) 0.00379 915.5 19.7
937(17) 0.00355 914.9 19.5
970(17) 0.00352 914.3 19.5
878(15) 0.00425 913.7 19.6
915(16) 0.00397 913.2 19.8
919(16) 0.00377 912.6 20.2
963(17) 0.003442 912.0 20.7
955(16) 0.00371 911.4 21.3
907(16) 0.00412 910.8 22.1
926(16) 0.00392 910.2 23.1
924(16) 0.00378 909.6 24.2
919(16) 0.00371 909.0 25.5
938(17) 0.00363 908.5 27.1
907(16) 0.00409 907.9 28.9
944(16) 0.00380 907.3 32.2
930(16) 0.00368 906.7 34.5
953(17) 0.003469 906.1 37.2
968(17) 0.00356 905.5 40.4
925(16) 0.00402 904.9 44.0
989(17) 0.00353 904.4 48.3
987(17) 0.003464 903.8 53.3
965(17) 0.00358 903.2 59.2
962(16) 0.00375 902.6 66.2
1021(17) 0.00364 902.0 74.7
980(17) 0.00356 901.4 85.1
1005(17) 0.003352 900.8 98.1
1038(17) 0.003305 900.3 115.3
1060(17) 0.003361 899.7 139.4
1104(17) 0.003342 899.1 175.5
1127(18) 0.003072 898.5 232.7
1177(19) 0.002909 897.9 324.6
1395(20) 0.002429 897.3 469.2
1562(21) 0.002305 896.7 685.2
1762(22) 0.002113 896.2 984.0
2090(25) 0.001661 895.6 1360.1
2451(27) 0.001357 895.0 1779.0
2783(29) 0.001228 894.4 2164.9
3242(30) 0.001113 893.8 2399.2
3577(31) 0.001038 893.2 2379.0
3237(31) 0.001058 892.6 2114.0
2687(29) 0.001210 892.0 1716.6
2100(24) 0.001682 891.5 1300.3
1742(22) 0.002110 890.9 934.3
1505(20) 0.002460 890.3 647.9
1374(20) 0.002515 889.7 443.5
1311(20) 0.002428 889.1 307.9
1163(18) 0.002988 888.5 222.1
1112(17) 0.003352 887.9 168.8
1051(17) 0.003480 887.4 135.1
1037(17) 0.003405 886.8 112.2
996(17) 0.003371 886.2 95.8
1019(17) 0.003438 885.6 83.1
959(16) 0.00387 885.0 73.0
940(16) 0.00392 884.4 64.7
973(17) 0.00357 883.8 57.8
975(17) 0.003334 883.3 52.0
942(16) 0.00370 882.7 47.0
959(16) 0.00387 882.1 42.8
937(16) 0.00386 881.5 39.1
894(16) 0.00394 880.9 35.9
899(16) 0.00374 880.3 33.1
910(16) 0.00376 879.7 30.7
886(15) 0.00423 879.2 28.5
880(16) 0.00407 878.6 26.6
917(16) 0.00370 878.0 24.9
936(17) 0.00362 877.4 23.3
905(16) 0.00384 876.8 22.0
913(16) 0.00408 876.2 20.7
893(16) 0.00398 875.6 19.6
883(16) 0.00391 875.1 18.6
923(16) 0.00369 874.5 17.7
917(16) 0.00381 873.9 16.8
904(16) 0.00416 873.3 16.1
903(16) 0.00393 872.7 15.4
892(16) 0.00379 872.1 14.7
878(16) 0.00392 871.5 14.2
900(16) 0.00401 870.9 13.6
896(16) 0.00415 870.4 13.3
886(16) 0.00388 869.8 12.9
884(16) 0.00390 869.2 12.4
898(16) 0.00383 868.6 12.0
897(16) 0.00403 868.0 11.7
825(15) 0.00451 867.4 11.3
863(16) 0.00402 866.8 11.0
864(16) 0.00394 866.3 10.7
854(16) 0.00403 865.7 10.5
841(15) 0.00430 865.1 10.2
883(15) 0.00421 864.5 10.0
900(16) 0.00389 863.9 9.8
897(17) 0.00367 863.3 9.6
885(16) 0.00396 862.7 9.4
895(16) 0.00410 862.2 9.2
862(15) 0.00433 861.6 9.1
888(16) 0.00393 861.0 9.0
935(17) 0.003505 860.4 8.9
916(16) 0.00381 859.8 8.8
909(16) 0.00405 859.2 8.7
872(15) 0.00426 858.6 8.7
901(16) 0.00383 858.1 8.8
880(16) 0.00371 857.5 8.8
893(16) 0.00388 856.9 8.9
913(16) 0.00405 856.3 8.8
905(16) 0.00409 855.7 8.7
869(16) 0.00406 855.1 8.5
878(16) 0.00373 854.5 8.3
877(16) 0.00399 854.0 8.1
871(15) 0.00424 853.4 8.0
864(15) 0.00428 852.8 7.9
867(16) 0.00401 852.2 7.8
902(16) 0.00368 851.6 7.7
837(16) 0.00410 851.0 7.7
881(15) 0.00419 850.4 7.7
820(15) 0.00447 849.8 7.7
860(16) 0.00400 849.3 7.6
831(16) 0.00406 848.7 7.6
886(16) 0.00391 848.1 7.6
840(15) 0.00441 847.5 7.6
861(15) 0.00421 846.9 7.7
882(16) 0.00388 846.3 7.7
874(16) 0.00392 845.7 7.7
870(16) 0.00405 845.2 7.7
859(15) 0.00433 844.6 7.7
846(15) 0.00419 844.0 7.8
825(16) 0.00415 843.4 7.8
832(16) 0.00415 842.8 7.8
843(15) 0.00417 842.2 7.9
848(15) 0.00440 841.6 7.9
843(16) 0.00407 841.1 8.0
886(16) 0.00369 840.5 8.0
847(16) 0.00408 839.9 8.1
867(16) 0.00415 839.3 8.1
837(15) 0.00443 838.7 8.2
889(16) 0.00386 838.2 8.3
893(16) 0.00377 837.6 8.3
834(15) 0.00421 837.1 8.4
818(15) 0.00445 836.5 8.5
812(15) 0.00461 835.9 8.6
862(16) 0.00403 835.4 8.7
856(16) 0.00391 834.8 8.8
860(16) 0.00410 834.3 8.9
816(15) 0.00454 833.7 9.0
856(15) 0.00431 833.2 9.1
827(15) 0.00430 832.6 9.2
837(16) 0.00390 832.1 9.3
816(15) 0.00428 831.5 9.5
767(14) 0.00482 831.0 9.6
814(15) 0.00456 830.4 9.7
847(16) 0.00409 829.8 9.9
860(16) 0.00373 829.3 10.0
840(15) 0.00420 828.7 10.2
819(15) 0.00455 828.2 10.3
859(15) 0.00424 827.6 10.5
805(15) 0.00435 827.1 10.7
823(16) 0.00404 826.5 10.9
854(15) 0.00421 826.0 11.1
838(15) 0.00446 825.4 11.3
885(15) 0.00418 824.8 11.5
800(15) 0.00440 824.3 11.7
828(16) 0.00390 823.7 11.9
868(16) 0.00391 823.2 12.1
875(15) 0.00425 822.6 12.4
847(15) 0.00427 822.1 12.6
844(15) 0.00418 821.5 12.9
828(16) 0.00404 821.0 13.2
859(16) 0.00400 820.4 13.4
822(15) 0.00454 819.9 13.7
823(15) 0.00437 819.3 14.0
812(15) 0.00425 818.7 14.4
824(16) 0.00407 818.2 14.7
831(15) 0.00423 817.6 15.1
838(15) 0.00443 817.1 15.4
825(15) 0.00433 816.5 15.8
808(15) 0.00438 816.0 16.2
812(15) 0.00434 815.4 16.6
861(16) 0.00411 814.9 17.1
845(15) 0.00438 814.3 17.5
836(15) 0.00422 813.8 18.0
811(15) 0.00421 813.2 18.5
822(15) 0.00418 812.6 19.1
848(15) 0.00421 812.1 19.6
852(15) 0.00435 811.5 20.2
836(16) 0.00411 811.0 20.8
818(15) 0.00417 810.4 21.5
832(16) 0.00413 809.9 22.2
860(15) 0.00421 809.3 22.9
826(15) 0.00449 808.8 23.6
842(16) 0.00409 808.2 24.4
832(16) 0.00400 807.7 25.3
825(16) 0.00416 807.1 26.2
828(15) 0.00439 806.5 27.2
822(15) 0.00452 806.0 28.2
829(15) 0.00422 805.4 29.3
844(16) 0.00393 804.9 30.4
842(15) 0.00425 804.3 31.6
834(15) 0.00439 803.8 33.0
784(15) 0.00468 803.2 34.4
838(15) 0.00419 802.7 35.9
854(16) 0.00382 802.1 37.5
830(15) 0.00425 801.6 39.2
880(16) 0.00416 801.0 41.1
881(15) 0.00416 800.4 43.1
823(15) 0.00419 799.9 45.4
820(16) 0.00403 799.3 47.8
841(16) 0.00415 798.8 50.4
859(15) 0.00433 798.2 53.3
871(16) 0.00415 797.7 56.4
855(16) 0.00404 797.1 59.9
853(16) 0.00384 796.6 63.9
891(16) 0.00385 796.0 68.3
847(15) 0.00439 795.4 73.4
884(16) 0.00413 794.9 79.2
858(16) 0.00413 794.3 86.1
903(16) 0.00377 793.8 94.2
925(17) 0.00366 793.2 104.1
893(16) 0.00416 792.7 116.2
885(16) 0.00413 792.1 130.9
954(17) 0.00359 791.6 148.9
950(17) 0.00358 791.0 170.8
992(17) 0.00355 790.5 196.9
1048(17) 0.00355 789.9 227.7
1050(17) 0.003399 789.3 262.9
1073(18) 0.003215 788.8 302.0
1139(18) 0.003020 788.2 343.3
1148(18) 0.003076 787.7 383.7
1166(18) 0.003204 787.1 418.8
1245(19) 0.002843 786.6 443.5
1242(19) 0.002743 786.0 454.6
1245(19) 0.002734 785.5 452.5
1227(18) 0.002924 784.9 441.6
1265(18) 0.002953 784.4 427.5
1185(18) 0.002945 783.8 415.5
1172(19) 0.002886 783.2 409.5
1154(18) 0.002992 782.7 412.1
1178(18) 0.003109 782.1 425.2
1222(18) 0.003042 781.6 450.0
1224(19) 0.002832 781.0 487.6
1233(19) 0.002724 780.5 538.8
1321(20) 0.002628 779.9 604.2
1428(20) 0.002526 779.4 684.1
1523(20) 0.002455 778.8 778.5
1675(22) 0.002080 778.3 886.5
1861(24) 0.001771 777.7 1006.2
1980(24) 0.001767 777.1 1134.1
2144(24) 0.001705 776.6 1263.9
2235(25) 0.001653 776.0 1386.1
2351(26) 0.001488 775.5 1488.5
2442(28) 0.001315 774.9 1557.6
2476(27) 0.001390 774.4 1582.4
2333(25) 0.001583 773.8 1558.5
2188(24) 0.001689 773.3 1489.7
2074(24) 0.001672 772.7 1386.5
1954(25) 0.001653 772.2 1262.2
1871(23) 0.001833 771.6 1129.1
1778(22) 0.002084 771.0 996.7
1580(21) 0.002322 770.5 871.4
1485(21) 0.002344 769.9 756.6
1431(21) 0.002290 769.4 654.1
1335(20) 0.002578 768.8 564.2
1257(18) 0.002975 768.3 486.5
1199(18) 0.003042 767.7 420.2
1169(18) 0.002979 767.2 364.3
1158(19) 0.002877 766.6 317.3
1094(18) 0.003149 766.1 278.2
1031(17) 0.00362 765.5 245.5
1013(17) 0.00358 764.9 218.4
985(17) 0.00355 764.4 195.6
1026(18) 0.003216 763.8 176.5
922(16) 0.00373 763.3 160.3
905(16) 0.00412 762.7 146.4
955(16) 0.00374 762.2 134.5
902(16) 0.00379 761.6 124.0
895(16) 0.00382 761.1 114.9
890(16) 0.00393 760.5 106.7
924(16) 0.00403 759.9 99.5
900(16) 0.00391 759.4 93.0
858(16) 0.00401 758.8 87.1
863(16) 0.00395 758.3 81.8
850(16) 0.00416 757.7 77.0
842(15) 0.00444 757.2 72.6
866(16) 0.00392 756.6 68.6
798(15) 0.00428 756.1 64.9
809(15) 0.00426 755.5 61.5
790(15) 0.00455 755.0 58.4
778(14) 0.00478 754.4 55.6
782(15) 0.00434 753.8 52.9
818(16) 0.00406 753.3 50.5
825(15) 0.00420 752.7 48.2
809(15) 0.00447 752.2 46.1
795(15) 0.00467 751.6 44.1
814(16) 0.00416 751.1 42.3
781(15) 0.00417 750.5 40.6
798(15) 0.00431 750.0 39.0
754(14) 0.00487 749.4 37.6
769(14) 0.00485 748.9 36.2
774(15) 0.00450 748.3 34.9
799(16) 0.00395 747.7 33.7
782(15) 0.00440 747.2 32.5
839(15) 0.00438 746.6 31.5
794(15) 0.00469 746.1 30.5
773(15) 0.00450 745.5 29.5
781(16) 0.00409 745.0 28.7
770(15) 0.00450 744.4 27.8
787(15) 0.00467 743.9 27.1
775(14) 0.00478 743.3 26.3
743(15) 0.00475 742.8 25.6
801(16) 0.00400 742.2 25.0
756(15) 0.00455 741.6 24.4
765(14) 0.00490 741.1 23.8
765(14) 0.00478 740.5 23.6
797(15) 0.00455 740.0 23.1
775(15) 0.00435 739.4 22.7
782(15) 0.00434 738.9 22.2
794(15) 0.00465 738.3 21.9
779(15) 0.00467 737.8 21.5
787(15) 0.00439 737.2 21.2
776(15) 0.00436 736.7 20.9
739(15) 0.00467 736.1 20.6
754(14) 0.00496 735.5 20.3
761(15) 0.00470 735.0 20.1
784(15) 0.00442 734.4 19.9
777(15) 0.00446 733.9 19.7
774(15) 0.00460 733.3 19.6
731(14) 0.00510 732.8 19.5
769(15) 0.00453 732.2 19.4
735(15) 0.00473 731.7 19.3
805(15) 0.00423 731.2 19.3
731(14) 0.00483 730.8 19.2
752(14) 0.00494 730.3 19.3
767(15) 0.00448 729.8 19.3
741(15) 0.00451 729.3 19.4
709(14) 0.00486 728.8 19.5
739(14) 0.00499 728.3 19.6
763(14) 0.00488 727.9 19.8
711(14) 0.00500 727.4 20.0
747(15) 0.00453 726.9 20.3
762(15) 0.00447 726.4 20.6
732(14) 0.00504 725.9 20.9
752(14) 0.00494 725.5 21.3
755(15) 0.00457 725.0 21.8
772(15) 0.00420 724.5 22.3
731(14) 0.00486 724.0 22.9
763(14) 0.00478 723.5 23.6
753(14) 0.00495 723.1 24.4
778(15) 0.00452 722.6 25.3
740(15) 0.00443 722.1 26.3
733(15) 0.00469 721.6 27.5
778(15) 0.00473 721.1 28.8
734(14) 0.00506 720.6 30.4
752(15) 0.00451 720.2 32.3
780(16) 0.00393 719.7 34.5
745(15) 0.00461 719.2 37.4
763(14) 0.00491 718.7 41.6
781(15) 0.00473 718.2 48.8
765(15) 0.00455 717.8 62.3
851(16) 0.00374 717.3 88.1
838(16) 0.00410 716.8 133.7
944(16) 0.00391 716.3 204.2
982(16) 0.00372 715.8 296.1
1047(17) 0.003311 715.3 392.1
1193(19) 0.002747 714.9 461.5
1325(20) 0.002555 714.4 473.1
1329(19) 0.002790 713.9 423.5
1068(17) 0.003359 713.4 340.7
915(16) 0.00374 712.9 257.3
851(16) 0.00390 712.5 193.7
819(15) 0.00425 712.0 156.2
786(15) 0.00473 711.5 140.9
872(15) 0.00419 711.0 140.4
856(16) 0.00406 710.5 148.4
826(16) 0.00409 710.0 160.9
862(16) 0.00402 709.6 176.0
905(16) 0.00410 709.1 192.4
862(15) 0.00418 708.6 209.3
904(16) 0.00384 708.1 225.8
890(16) 0.00389 707.6 240.8
923(16) 0.00380 707.2 252.9
939(16) 0.00396 706.7 260.9
915(16) 0.00383 706.2 264.0
885(16) 0.00384 705.7 261.5
891(16) 0.00386 705.2 253.8
876(16) 0.00413 704.8 241.8
874(15) 0.00427 704.3 226.5
901(16) 0.00380 703.8 209.3
889(16) 0.00380 703.3 191.3
871(16) 0.00404 702.8 173.3
862(16) 0.00414 702.3 156.0
803(15) 0.00463 701.9 139.8
834(16) 0.00413 701.4 124.9
763(15) 0.00451 700.9 111.4
777(15) 0.00455 700.4 99.2
833(15) 0.00435 699.9 88.5
782(14) 0.00478 699.5 79.0
736(15) 0.00470 699.0 70.6
728(15) 0.00444 698.5 63.4
765(15) 0.00454 698.0 57.1
754(14) 0.00486 697.5 51.7
761(14) 0.00494 697.0 46.9
733(15) 0.00474 696.6 42.9
753(15) 0.00421 696.1 39.3
689(14) 0.00513 695.6 36.2
704(14) 0.00523 695.1 33.5
718(14) 0.00518 694.6 31.2
740(15) 0.00465 694.2 29.1
756(15) 0.00418 693.7 27.2
718(14) 0.00486 693.2 25.6
750(14) 0.00491 692.7 24.1
742(14) 0.00490 692.2 22.7
723(15) 0.00465 691.8 21.5
687(14) 0.00485 691.3 20.4
702(14) 0.00498 690.8 19.4
690(14) 0.00540 690.3 18.4
690(14) 0.00526 689.8 17.6
701(14) 0.00503 689.3 16.8
743(15) 0.00447 688.9 16.0
700(14) 0.00498 688.4 15.4
701(14) 0.00530 687.9 14.8
724(14) 0.00495 687.4 14.2
709(14) 0.00480 686.9 13.7
717(15) 0.00473 686.5 13.1
699(14) 0.00490 686.0 12.7
695(14) 0.00532 685.5 12.2
681(14) 0.00519 685.0 11.8
685(14) 0.00499 684.5 11.4
714(14) 0.00488 684.0 11.0
672(14) 0.00534 683.6 10.7
691(14) 0.00538 683.1 10.3
670(14) 0.00519 682.6 10.0
680(14) 0.00499 682.1 9.7
698(14) 0.00495 681.6 9.4
689(14) 0.00520 681.2 9.2
671(13) 0.00553 680.7 8.9
696(14) 0.00509 680.2 8.7
686(14) 0.00491 679.7 8.5
665(14) 0.00517 679.2 8.3
685(14) 0.00527 678.7 8.1
642(13) 0.00578 678.3 7.9
682(14) 0.00500 677.8 7.7
705(15) 0.00466 677.3 7.5
715(14) 0.00485 676.8 7.4
665(13) 0.00549 676.3 7.2
686(14) 0.00541 675.9 7.1
722(15) 0.00474 675.4 6.9
701(14) 0.00479 674.9 6.8
705(14) 0.00493 674.4 6.7
672(13) 0.00549 673.9 6.6
682(14) 0.00541 673.5 6.5
690(14) 0.00510 673.0 6.4
643(14) 0.00517 672.5 6.3
649(14) 0.00539 672.0 6.2
639(13) 0.00584 671.5 6.2
689(14) 0.00529 671.0 6.1
670(14) 0.00516 670.6 6.0
678(14) 0.00479 670.1 6.0
683(14) 0.00518 669.6 6.0
698(14) 0.00527 669.1 6.0
678(14) 0.00544 668.6 6.0
693(14) 0.00498 668.2 6.0
681(14) 0.00476 667.7 6.0
691(14) 0.00497 667.2 6.1
671(13) 0.00553 666.7 6.2
673(14) 0.00540 666.2 6.4
686(14) 0.00485 665.7 6.5
708(15) 0.00453 665.3 6.8
693(14) 0.00495 664.8 7.0
662(13) 0.00560 664.3 7.4
667(14) 0.00544 663.8 7.8
638(14) 0.00541 663.3 8.2
684(14) 0.00489 662.9 8.7
692(14) 0.00499 662.4 9.3
668(13) 0.00559 661.9 9.9
702(14) 0.00515 661.4 10.4
652(14) 0.00543 660.9 10.9
690(14) 0.00478 660.4 11.3
638(14) 0.00548 660.0 11.6
693(14) 0.00541 659.5 11.6
696(14) 0.00506 659.0 11.4
685(14) 0.00493 658.5 11.1
669(14) 0.00512 658.0 10.5
653(14) 0.00536 657.6 9.9
639(13) 0.00584 657.1 9.3
685(14) 0.00505 656.6 8.7
683(14) 0.00497 656.1 8.1
659(14) 0.00537 655.6 7.5
660(13) 0.00556 655.2 7.0
701(14) 0.00533 654.7 6.6
682(14) 0.00501 654.2 6.2
661(14) 0.00493 653.7 5.9
649(14) 0.00537 653.2 5.7
677(14) 0.00540 652.7 5.4
682(14) 0.00547 652.3 5.3
678(14) 0.00518 651.8 5.1
669(14) 0.00499 651.3 5.0
669(14) 0.00524 651.0 4.9
668(13) 0.00551 650.7 4.9
654(13) 0.00569 650.4 4.8
646(14) 0.00544 650.1 4.8
656(14) 0.00496 649.7 4.8
673(14) 0.00520 649.4 4.9
669(13) 0.00556 649.1 4.9
667(13) 0.00553 648.8 4.9
648(13) 0.00551 648.5 5.0
672(14) 0.00487 648.2 5.1
688(14) 0.00496 647.9 5.1
689(14) 0.00543 647.5 5.2
640(13) 0.00577 647.2 5.3
680(14) 0.00516 646.9 5.4
681(15) 0.00475 646.6 5.6
662(14) 0.00512 646.3 5.7
689(14) 0.00539 646.0 5.8
664(14) 0.00546 645.6 5.9
639(14) 0.00547 645.3 6.0
700(15) 0.00462 645.0 6.2
707(14) 0.00483 644.7 6.3
661(13) 0.00564 644.4 6.4
668(14) 0.00547 644.1 6.5
654(14) 0.00536 643.8 6.5
682(14) 0.00491 643.4 6.6
670(14) 0.00516 643.1 6.6
623(13) 0.00598 642.8 6.6
652(13) 0.00557 642.5 6.5
670(14) 0.00511 642.2 6.5
677(14) 0.00492 641.9 6.4
662(14) 0.00522 641.5 6.3
664(13) 0.00563 641.2 6.5
689(14) 0.00520 640.9 6.4
644(14) 0.00538 640.6 6.2
671(14) 0.00511 640.3 6.1
667(14) 0.00526 640.0 5.9
630(13) 0.00591 639.7 5.7
640(13) 0.00553 639.3 5.5
671(14) 0.00511 639.0 5.4
643(14) 0.00537 638.7 5.2
657(14) 0.00541 638.4 5.0
664(13) 0.00558 638.1 4.9
653(14) 0.00524 637.8 4.7
634(14) 0.00530 637.4 4.6
668(14) 0.00519 637.1 4.5
677(14) 0.00525 636.8 4.3
640(13) 0.00579 636.5 4.2
619(13) 0.00558 636.2 4.1
631(14) 0.00504 635.9 4.0
631(14) 0.00538 635.6 3.9
656(13) 0.00561 635.2 3.8
632(13) 0.00577 634.9 3.7
639(14) 0.00540 634.6 3.7
624(14) 0.00525 634.3 3.6
648(14) 0.00535 634.0 3.5
625(13) 0.00591 633.7 3.5
649(13) 0.00570 633.3 3.5
612(13) 0.00572 633.0 3.4
619(14) 0.00510 632.7 3.4
627(13) 0.00549 632.4 3.4
651(13) 0.00566 632.1 3.3
662(13) 0.00553 631.8 3.3
648(14) 0.00531 631.4 3.3
624(13) 0.00557 631.1 3.3
669(14) 0.00513 630.8 3.3
654(13) 0.00571 630.5 3.3
654(13) 0.00557 630.2 3.3
668(14) 0.00524 629.9 3.3
670(14) 0.00493 629.6 3.3
666(14) 0.00526 629.2 3.4
660(13) 0.00563 628.9 3.4
626(13) 0.00581 628.6 3.4
666(14) 0.00518 628.3 3.5
630(14) 0.00546 628.0 3.5
636(14) 0.00548 627.7 3.5
656(13) 0.00569 627.3 3.6
639(13) 0.00569 627.0 3.7
644(14) 0.00530 626.7 3.7
621(14) 0.00537 626.4 3.8
631(14) 0.00548 626.1 3.9
617(13) 0.00601 625.8 4.0
634(13) 0.00560 625.5 4.1
596(13) 0.00593 625.1 4.3
685(14) 0.00487 624.8 4.4
619(13) 0.00574 624.5 4.5
637(13) 0.00581 624.2 4.7
620(13) 0.00559 623.9 4.9
639(14) 0.00526 623.6 5.1
635(14) 0.00538 623.2 5.4
599(13) 0.00588 622.9 5.6
617(13) 0.00597 622.6 5.9
641(14) 0.00536 622.3 6.3
643(14) 0.00508 622.0 6.7
614(13) 0.00555 621.7 7.1
612(13) 0.00579 621.4 7.6
616(13) 0.00600 621.0 8.2
600(13) 0.00574 620.7 8.8
608(13) 0.00553 620.4 9.6
613(13) 0.00566 620.1 10.5
653(13) 0.00563 619.8 11.6
620(13) 0.00596 619.5 12.9
608(13) 0.00571 619.1 14.4
610(14) 0.00521 618.8 16.3
637(14) 0.00517 618.5 18.6
609(13) 0.00605 618.2 21.6
649(13) 0.00565 617.9 25.8
659(14) 0.00528 617.6 32.1
651(14) 0.00495 617.2 42.3
711(14) 0.00492 616.9 59.7
703(14) 0.00527 616.6 89.1
711(14) 0.00516 616.3 136.2
789(15) 0.00437 616.0 205.7
859(16) 0.00381 615.7 297.5
956(17) 0.00360 615.4 403.5
1082(17) 0.003393 615.0 503.9
1143(18) 0.003186 614.7 566.7
1275(19) 0.002719 614.4 562.6
1171(19) 0.002771 614.1 493.8
981(17) 0.00353 613.8 391.4
830(15) 0.00445 613.5 286.2
793(15) 0.00452 613.1 196.6
710(14) 0.00490 612.8 129.8
695(14) 0.00486 612.5 84.9
686(14) 0.00497 612.2 57.1
655(13) 0.00554 611.9 40.7
660(14) 0.00545 611.6 31.1
638(14) 0.00541 611.3 25.1
686(14) 0.00482 610.9 21.1
637(14) 0.00537 610.6 18.2
596(13) 0.00627 610.3 15.9
651(14) 0.00536 610.0 14.0
651(14) 0.00522 609.7 12.5
623(13) 0.00562 609.4 11.3
636(14) 0.00542 609.0 10.2
597(13) 0.00626 608.7 9.3
625(14) 0.00544 608.4 8.5
598(13) 0.00569 608.1 7.8
594(13) 0.00585 607.8 7.3
641(13) 0.00558 607.5 6.7
597(13) 0.00621 607.2 6.3
610(13) 0.00560 606.8 5.9
625(14) 0.00531 606.5 5.5
565(13) 0.00618 606.2 5.2
631(13) 0.00562 605.9 5.0
608(13) 0.00616 605.6 4.7
586(13) 0.00589 605.3 4.5
582(13) 0.00576 604.9 4.3
595(13) 0.00578 604.6 4.1
662(14) 0.00543 604.3 3.9
589(13) 0.00627 604.0 3.7
592(13) 0.00594 603.7 3.6
618(14) 0.00540 603.4 3.5
609(13) 0.00579 603.0 3.4
598(13) 0.00621 602.7 3.2
619(13) 0.00601 602.4 3.1
607(13) 0.00593 602.1 3.0
636(14) 0.00508 601.8 3.0
622(14) 0.00547 601.5 2.9
611(13) 0.00606 601.2 2.8
604(13) 0.00618 600.8 2.7
610(13) 0.00566 600.5 2.7
610(14) 0.00525 600.2 2.6
592(13) 0.00583 599.9 2.5
602(13) 0.00617 599.6 2.5
609(13) 0.00599 599.3 2.4
606(13) 0.00585 598.9 2.4
640(14) 0.00509 598.6 2.3
651(14) 0.00537 598.3 2.3
628(13) 0.00595 598.0 2.3
632(13) 0.00580 597.7 2.2
624(14) 0.00546 597.4 2.2
631(14) 0.00516 597.1 2.2
654(14) 0.00515 596.7 2.1
613(13) 0.00610 596.4 2.1
581(13) 0.00626 596.1 2.1
593(13) 0.00589 595.8 2.1
628(14) 0.00522 595.5 2.0
623(13) 0.00549 595.2 2.0
604(13) 0.00618 594.8 2.0
590(13) 0.00617 594.5 2.0
580(13) 0.00604 594.2 2.0
613(13) 0.00562 593.9 2.0
613(13) 0.00572 593.6 1.9
601(13) 0.00615 593.3 1.9
587(13) 0.00597 593.0 1.9
608(14) 0.00544 592.6 1.9
539(12) 0.00646 592.3 1.9
603(13) 0.00588 592.0 1.9
589(13) 0.00633 591.7 1.9
608(13) 0.00559 591.4 1.9
586(13) 0.00555 591.1 1.9
589(13) 0.00582 590.7 1.9
584(13) 0.00616 590.4 1.9
620(13) 0.00598 590.1 1.9
610(13) 0.00551 589.8 1.9
585(13) 0.00584 589.5 1.9
580(13) 0.00610 589.2 1.9
619(13) 0.00586 588.8 1.9
567(12) 0.00662 588.5 1.9
599(13) 0.00571 588.2 1.9
574(13) 0.00581 587.9 2.0
584(13) 0.00611 587.6 2.0
590(13) 0.00623 587.3 2.0
592(13) 0.00632 587.0 2.0
579(13) 0.00598 586.6 2.1
570(13) 0.00564 586.3 2.1
594(13) 0.00587 586.0 2.1
612(13) 0.00606 585.7 2.2
579(13) 0.00640 585.4 2.2
608(13) 0.00580 585.1 2.3
563(13) 0.00594 584.7 2.4
568(13) 0.00613 584.4 2.4
590(13) 0.00624 584.1 2.5
563(12) 0.00660 583.8 2.6
581(13) 0.00595 583.5 2.8
573(13) 0.00560 583.2 2.9
550(13) 0.00626 582.9 3.1
570(12) 0.00645 582.5 3.3
610(13) 0.00600 582.2 3.6
581(13) 0.00602 581.9 4.0
614(14) 0.00527 581.6 4.5
613(13) 0.00550 581.3 5.2
589(13) 0.00637 581.0 6.3
615(13) 0.00588 580.6 8.1
592(13) 0.00593 580.3 10.8
633(14) 0.00523 580.0 15.0
607(13) 0.00563 579.7 20.9
618(13) 0.00601 579.4 28.5
617(13) 0.00570 579.1 37.2
607(13) 0.00561 578.8 45.8
596(13) 0.00571 578.4 52.1
601(13) 0.00574 578.1 53.5
587(13) 0.00638 577.8 49.4
589(13) 0.00599 577.5 41.6
613(13) 0.00556 577.2 32.7
606(13) 0.00563 576.9 24.5
578(13) 0.00615 576.5 17.8
577(12) 0.00647 576.2 12.8
566(13) 0.00604 575.9 9.4
562(13) 0.00596 575.6 7.1
604(13) 0.00566 575.3 5.8
614(13) 0.00582 575.0 4.9
596(13) 0.00629 574.6 4.3
560(12) 0.00647 574.3 3.9
600(13) 0.00580 574.0 3.6
581(13) 0.00602 573.7 3.3
573(13) 0.00629 573.4 3.2
554(12) 0.00675 573.1 3.0
564(13) 0.00622 572.8 2.9
593(13) 0.00559 572.4 2.8
611(13) 0.00564 572.1 2.7
582(13) 0.00623 571.8 2.6
571(12) 0.00658 571.5 2.5
548(13) 0.00639 571.2 2.5
579(13) 0.00559 570.9 2.4
570(13) 0.00593 570.5 2.4
541(12) 0.00686 570.2 2.4
564(12) 0.00660 569.9 2.3
590(13) 0.00597 569.6 2.3
571(13) 0.00580 569.3 2.3
560(13) 0.00626 569.0 2.3
561(12) 0.00662 568.7 2.3
573(12) 0.00646 568.3 2.3
569(13) 0.00612 568.0 2.3
561(13) 0.00584 567.7 2.3
567(13) 0.00632 567.5 2.3
555(12) 0.00678 567.3 2.3
580(13) 0.00631 567.0 2.3
573(13) 0.00609 566.8 2.3
565(13) 0.00583 566.6 2.3
582(13) 0.00601 566.4 2.3
554(12) 0.00671 566.1 2.3
572(13) 0.00628 565.9 2.3
548(13) 0.00640 565.7 2.4
571(13) 0.00596 565.5 2.4
582(13) 0.00589 565.2 2.4
563(12) 0.00661 565.0 2.4
583(13) 0.00609 564.8 2.4
560(13) 0.00616 564.5 2.5
603(13) 0.00556 564.3 2.5
569(13) 0.00621 564.1 2.5
566(12) 0.00656 563.9 2.5
573(13) 0.00618 563.6 2.6
581(13) 0.00579 563.4 2.6
556(13) 0.00604 563.2 2.6
543(12) 0.00647 563.0 2.7
588(13) 0.00635 562.7 2.7
597(13) 0.00582 562.5 2.7
576(13) 0.00594 562.3 2.8
569(13) 0.00594 562.0 2.8
550(12) 0.00647 561.8 2.9
580(12) 0.00643 561.6 2.9
568(13) 0.00604 561.4 3.0
554(13) 0.00601 561.1 3.0
560(13) 0.00617 560.9 3.1
552(12) 0.00655 560.7 3.2
577(12) 0.00646 560.5 3.2
545(13) 0.00625 560.2 3.3
537(13) 0.00627 560.0 3.3
585(13) 0.00577 559.8 3.4
557(12) 0.00666 559.5 3.5
559(12) 0.00660 559.3 3.5
567(13) 0.00615 559.1 3.6
571(13) 0.00564 558.9 3.7
535(12) 0.00662 558.6 3.7
562(12) 0.00663 558.4 3.8
560(12) 0.00669 558.2 3.9
547(13) 0.00640 558.0 4.0
537(13) 0.00614 557.7 4.1
578(13) 0.00599 557.5 4.2
577(12) 0.00649 557.3 4.3
585(13) 0.00631 557.0 4.4
570(13) 0.00599 556.8 4.5
585(14) 0.00546 556.6 4.6
581(13) 0.00596 556.4 4.7
559(12) 0.00667 556.1 4.8
570(12) 0.00655 555.9 5.0
561(13) 0.00596 555.7 5.1
525(13) 0.00625 555.5 5.3
575(13) 0.00588 555.2 5.4
557(12) 0.00663 555.0 5.6
576(13) 0.00638 554.8 5.7
578(13) 0.00602 554.5 5.9
570(13) 0.00591 554.3 6.1
575(13) 0.00604 554.1 6.3
571(12) 0.00645 553.9 6.5
538(12) 0.00676 553.6 6.7
560(13) 0.00633 553.4 6.9
540(12) 0.00653 553.2 7.1
576(13) 0.00609 553.0 7.4
602(13) 0.00618 552.7 7.6
612(13) 0.00589 552.5 7.9
561(13) 0.00623 552.3 8.2
557(13) 0.00623 552.0 8.5
561(13) 0.00615 551.8 8.9
574(12) 0.00651 551.6 9.2
556(13) 0.00619 551.4 9.6
554(13) 0.00601 551.1 10.0
563(13) 0.00601 550.9 10.4
537(12) 0.00663 550.7 10.9
558(12) 0.00665 550.5 11.4
561(13) 0.00621 550.2 11.9
564(13) 0.00605 550.0 12.5
577(13) 0.00595 549.8 13.2
572(13) 0.00619 549.5 13.9
584(13) 0.00639 549.3 14.6
564(13) 0.00607 549.1 15.4
602(14) 0.00541 548.9 16.3
551(13) 0.00631 548.6 17.3
543(12) 0.00677 548.4 18.4
578(12) 0.00642 548.2 19.5
539(12) 0.00642 548.0 20.8
556(13) 0.00581 547.7 22.2
586(13) 0.00577 547.5 23.7
618(13) 0.00592 547.3 25.4
550(12) 0.00680 547.0 27.2
580(13) 0.00602 546.8 29.2
566(13) 0.00571 546.6 31.4
564(13) 0.00606 546.4 33.8
598(13) 0.00621 546.1 36.4
596(13) 0.00620 545.9 39.1
582(13) 0.00586 545.7 42.1
593(14) 0.00541 545.5 45.4
550(12) 0.00656 545.2 48.8
612(13) 0.00605 545.0 52.5
593(13) 0.00623 544.8 56.4
601(13) 0.00583 544.5 60.6
596(13) 0.00569 544.3 64.9
618(13) 0.00565 544.1 69.4
623(13) 0.00596 543.9 73.9
620(13) 0.00586 543.6 78.6
638(14) 0.00535 543.4 83.2
583(13) 0.00580 543.2 87.6
603(13) 0.00580 543.0 91.8
626(13) 0.00596 542.7 95.7
634(13) 0.00569 542.5 99.0
634(14) 0.00534 542.3 101.6
580(13) 0.00584 542.0 103.5
657(14) 0.00519 541.8 104.6
656(13) 0.00567 541.6 104.7
646(13) 0.00550 541.4 103.9
603(13) 0.00575 541.1 102.2
618(14) 0.00548 540.9 99.7
587(13) 0.00598 540.7 96.6
617(13) 0.00608 540.5 92.8
607(13) 0.00579 540.2 88.7
635(14) 0.00540 540.0 84.3
591(13) 0.00593 539.8 79.7
590(13) 0.00611 539.5 75.1
657(13) 0.00560 539.3 70.5
575(13) 0.00597 539.1 66.0
595(13) 0.00550 538.9 61.7
546(12) 0.00658 538.6 57.5
616(13) 0.00589 538.4 53.5
537(12) 0.00696 538.2 49.8
581(13) 0.00601 538.0 46.3
570(13) 0.00602 537.7 43.0
580(13) 0.00597 537.5 40.0
564(12) 0.00660 537.3 37.1
563(12) 0.00658 537.0 34.5
567(13) 0.00588 536.8 32.1
561(13) 0.00579 536.6 29.9
549(13) 0.00623 536.4 27.9
553(12) 0.00658 536.1 26.0
528(12) 0.00703 535.9 24.3
534(12) 0.00660 535.7 22.7
549(13) 0.00588 535.5 21.3
578(13) 0.00589 535.2 20.0
550(12) 0.00677 535.0 18.8
537(12) 0.00689 534.8 17.8
558(13) 0.00628 534.5 16.8
560(13) 0.00567 534.3 15.9
539(12) 0.00651 534.1 15.0
530(12) 0.00696 533.9 14.3
535(12) 0.00693 533.6 13.6
525(12) 0.00663 533.4 13.0
543(13) 0.00604 533.2 12.4
569(13) 0.00613 533.0 11.8
569(12) 0.00663 532.7 11.3
558(12) 0.00662 532.5 10.9
539(12) 0.00644 532.3 10.5
544(13) 0.00620 532.0 10.1
535(12) 0.00669 531.8 9.7
557(12) 0.00665 531.6 9.4
556(12) 0.00659 531.4 9.0
539(12) 0.00644 531.1 8.8
540(13) 0.00611 530.9 8.5
546(12) 0.00640 530.7 8.2
568(12) 0.00648 530.5 8.0
536(12) 0.00666 530.2 7.8
538(13) 0.00611 530.0 7.6
516(12) 0.00669 529.8 7.4
551(12) 0.00645 529.5 7.2
538(12) 0.00692 529.3 7.1
513(12) 0.00664 529.1 6.9
529(13) 0.00632 528.9 6.8
543(13) 0.00628 528.6 6.7
557(13) 0.00602 528.4 6.6
522(12) 0.00714 528.2 6.5
519(12) 0.00664 528.0 6.4
539(13) 0.00630 527.7 6.3
529(12) 0.00643 527.5 6.3
543(12) 0.00660 527.3 6.3
530(12) 0.00700 527.1 6.3
514(12) 0.00690 526.8 6.3
532(12) 0.00644 526.6 6.3
565(13) 0.00604 526.4 6.3
525(12) 0.00681 526.1 6.4
500(12) 0.00737 525.9 6.5
528(12) 0.00649 525.7 6.6
545(13) 0.00594 525.5 6.8
499(12) 0.00707 525.2 7.0
537(12) 0.00676 525.0 7.3
523(12) 0.00719 524.8 7.6
505(12) 0.00680 524.6 8.0
508(12) 0.00653 524.3 8.5
545(13) 0.00631 524.1 9.2
512(12) 0.00721 523.9 10.0
517(12) 0.00713 523.6 11.1
558(13) 0.00609 523.4 12.6
546(13) 0.00577 523.2 14.6
542(12) 0.00643 523.0 17.1
535(12) 0.00683 522.7 20.3
518(12) 0.00716 522.5 24.4
569(13) 0.00597 522.3 29.3
531(12) 0.00645 522.1 35.1
547(13) 0.00634 521.8 41.7
566(12) 0.00663 521.6 48.6
585(13) 0.00625 521.4 55.1
610(13) 0.00562 521.1 60.3
565(13) 0.00600 520.9 63.0
561(13) 0.00626 520.7 62.4
567(12) 0.00659 520.5 58.7
562(12) 0.00641 520.2 52.8
558(13) 0.00615 520.0 45.9
556(13) 0.00581 519.8 39.0
542(13) 0.00630 519.6 32.6
545(12) 0.00682 519.3 27.0
554(12) 0.00645 519.1 22.3
533(12) 0.00649 518.9 18.4
536(13) 0.00638 518.6 15.3
563(13) 0.00611 518.4 12.9
526(12) 0.00710 518.2 11.0
493(12) 0.00714 518.0 9.5
491(12) 0.00711 517.7 8.4
570(13) 0.00574 517.5 7.5
537(12) 0.00652 517.3 6.8
507(12) 0.00741 517.1 6.2
510(12) 0.00659 516.8 5.7
542(13) 0.00617 516.6 5.3
534(12) 0.00650 516.4 5.0
560(13) 0.00633 516.1 4.7
504(12) 0.00738 515.9 4.4
559(13) 0.00632 515.7 4.1
529(12) 0.00664 515.5 3.9
560(13) 0.00601 515.2 3.7
552(12) 0.00660 515.0 3.6
493(12) 0.00750 514.8 3.4
534(13) 0.00628 514.6 3.3
517(12) 0.00646 514.3 3.1
502(12) 0.00718 514.1 3.0
522(12) 0.00704 513.9 2.9
520(12) 0.00718 513.6 2.8
519(12) 0.00673 513.4 2.7
541(13) 0.00597 513.2 2.6
540(12) 0.00648 513.0 2.5
525(12) 0.00700 512.7 2.4
546(12) 0.00682 512.5 2.4
527(12) 0.00674 512.3 2.3
535(13) 0.00594 512.1 2.2
493(12) 0.00709 511.8 2.2
496(12) 0.00755 511.6 2.1
492(12) 0.00753 511.4 2.1
515(12) 0.00683 511.1 2.0
498(12) 0.00647 510.9 2.0
506(12) 0.00671 510.7 1.9
535(12) 0.00683 510.5 1.9
458(11) 0.00794 510.2 1.9
506(12) 0.00673 510.0 1.8
503(12) 0.00656 509.8 1.8
524(12) 0.00656 509.6 1.7
503(12) 0.00744 509.3 1.7
499(12) 0.00735 509.1 1.7
495(12) 0.00690 508.9 1.7
492(12) 0.00686 508.6 1.6
516(12) 0.00689 508.4 1.6
535(12) 0.00696 508.2 1.6
497(12) 0.00711 508.0 1.5
491(12) 0.00724 507.7 1.5
503(12) 0.00675 507.5 1.5
494(12) 0.00687 507.3 1.5
496(12) 0.00747 507.1 1.5
506(12) 0.00713 506.8 1.4
555(13) 0.00609 506.6 1.4
514(12) 0.00653 506.4 1.4
489(12) 0.00732 506.1 1.4
524(12) 0.00708 505.9 1.4
498(12) 0.00728 505.7 1.3
499(12) 0.00703 505.5 1.3
531(13) 0.00635 505.2 1.3
504(12) 0.00701 505.0 1.3
488(11) 0.00761 504.8 1.3
506(12) 0.00707 504.6 1.3
530(13) 0.00634 504.3 1.2
485(12) 0.00737 504.1 1.2
509(12) 0.00703 503.9 1.2
527(12) 0.00706 503.6 1.2
519(12) 0.00657 503.4 1.2
479(12) 0.00675 503.2 1.2
521(12) 0.00655 503.0 1.2
501(12) 0.00717 502.7 1.2
499(12) 0.00743 502.5 1.1
500(12) 0.00666 502.3 1.1
492(12) 0.00650 502.1 1.1
490(12) 0.00728 501.8 1.1
526(12) 0.00694 501.6 1.1
514(12) 0.00726 501.4 1.1
490(12) 0.00697 501.1 1.1
503(12) 0.00647 500.9 1.1
499(12) 0.00705 500.7 1.1
501(12) 0.00733 500.5 1.1
525(12) 0.00705 500.2 1.0
533(12) 0.00655 500.0 1.0
506(13) 0.00632 499.8 1.0
507(12) 0.00692 499.6 1.0
509(12) 0.00722 499.3 1.0
505(12) 0.00724 499.1 1.0
479(12) 0.00728 498.9 1.0
490(12) 0.00670 498.6 1.0
475(12) 0.00738 498.4 1.0
484(11) 0.00770 498.2 1.0
498(12) 0.00732 498.0 1.0
507(12) 0.00671 497.7 1.0
515(13) 0.00619 497.5 1.0
545(13) 0.00632 497.3 1.0
473(11) 0.00782 497.1 1.0
521(12) 0.00690 496.8 1.0
520(12) 0.00658 496.6 0.9
503(12) 0.00669 496.4 0.9
462(12) 0.00751 496.1 0.9
531(12) 0.00705 495.9 0.8
525(12) 0.00674 495.7 0.8
524(12) 0.00652 495.5 0.8
485(12) 0.00697 495.2 0.8
499(12) 0.00710 495.0 0.8
530(12) 0.00704 494.8 0.8
513(12) 0.00691 494.6 0.8
464(11) 0.00763 494.3 0.8
512(12) 0.00664 494.1 0.8
506(12) 0.00684 493.9 0.8
477(11) 0.00781 493.6 0.8
497(12) 0.00706 493.4 0.8
479(12) 0.00719 493.2 0.8
503(12) 0.00697 493.0 0.8
510(12) 0.00707 492.7 0.8
490(11) 0.00757 492.5 0.8
499(12) 0.00692 492.3 0.8
491(12) 0.00687 492.1 0.8
501(12) 0.00695 491.8 0.8
506(12) 0.00720 491.6 0.8
477(11) 0.00776 491.4 0.8
507(12) 0.00665 491.1 0.8
470(12) 0.00706 490.9 0.8
473(12) 0.00733 490.7 0.8
477(11) 0.00762 490.5 0.8
502(12) 0.00733 490.2 0.8
523(13) 0.00640 490.0 0.8
485(12) 0.00693 489.8 0.8
482(12) 0.00734 489.7 0.8
480(11) 0.00766 489.6 0.8
482(11) 0.00766 489.5 0.8
489(12) 0.00718 489.4 0.8
473(12) 0.00698 489.2 0.8
528(12) 0.00664 489.1 0.8
517(12) 0.00719 489.0 0.8
507(12) 0.00723 488.9 0.9
477(12) 0.00741 488.8 0.9
479(12) 0.00683 488.6 0.9
473(12) 0.00720 488.5 0.9
491(11) 0.00762 488.4 0.9
483(11) 0.00759 488.3 0.9
504(12) 0.00697 488.2 0.9
481(12) 0.00705 488.1 0.9
472(12) 0.00736 487.9 1.0
502(12) 0.00744 487.8 1.0
482(12) 0.00750 487.7 1.0
504(12) 0.00690 487.6 1.0
473(12) 0.00713 487.5 1.1
473(12) 0.00744 487.3 1.1
547(12) 0.00679 487.2 1.1
484(12) 0.00749 487.1 1.2
487(12) 0.00688 487.0 1.2
481(12) 0.00687 486.9 1.2
480(12) 0.00730 486.7 1.3
492(12) 0.00752 486.6 1.3
499(12) 0.00707 486.5 1.4
498(12) 0.00693 486.4 1.5
512(12) 0.00666 486.3 1.5
454(11) 0.00791 486.1 1.6
489(11) 0.00760 486.0 1.7
504(12) 0.00704 485.9 1.8
500(12) 0.00669 485.8 1.9
474(12) 0.00726 485.7 2.0
529(12) 0.00669 485.5 2.1
507(12) 0.00734 485.4 2.2
497(12) 0.00674 485.3 2.3
504(12) 0.00683 485.2 2.4
474(12) 0.00751 485.1 2.5
492(12) 0.00750 484.9 2.7
485(11) 0.00771 484.8 2.8
494(12) 0.00712 484.7 3.0
520(13) 0.00637 484.6 3.1
513(12) 0.00667 484.5 3.2
474(11) 0.00762 484.4 3.3
511(12) 0.00725 484.2 3.5
486(12) 0.00698 484.1 3.5
472(12) 0.00691 484.0 3.6
480(12) 0.00713 483.9 3.7
497(12) 0.00730 483.8 3.7
505(12) 0.00747 483.6 3.7
489(12) 0.00707 483.5 3.7
491(12) 0.00658 483.4 3.6
507(12) 0.00688 483.3 3.8
475(11) 0.00784 483.2 3.7
475(11) 0.00780 483.0 3.6
528(12) 0.00652 482.9 3.5
507(13) 0.00634 482.8 3.4
496(12) 0.00697 482.7 3.2
516(12) 0.00721 482.6 3.1
493(12) 0.00744 482.4 3.0
517(12) 0.00666 482.3 3.4
507(13) 0.00630 482.2 3.3
470(12) 0.00741 482.1 3.2
471(11) 0.00788 482.0 3.1
500(12) 0.00738 481.8 3.0
485(12) 0.00704 481.7 3.0
453(12) 0.00737 481.6 2.9
487(12) 0.00717 481.5 2.8
515(12) 0.00720 481.4 2.8
498(12) 0.00728 481.3 2.7
482(12) 0.00709 481.1 2.7
472(12) 0.00732 481.0 2.6
488(12) 0.00730 480.9 2.6
511(12) 0.00731 480.8 2.5
491(12) 0.00733 480.7 2.5
504(12) 0.00667 480.5 2.5
492(12) 0.00675 480.4 2.5
493(12) 0.00735 480.3 2.5
470(11) 0.00791 480.2 2.5
473(12) 0.00726 480.1 2.5
492(12) 0.00689 479.9 2.5
500(12) 0.00675 479.8 2.5
469(12) 0.00729 479.7 2.5
464(11) 0.00805 479.6 2.5
457(11) 0.00779 479.5 2.6
485(12) 0.00693 479.3 2.6
498(12) 0.00675 479.2 2.6
486(12) 0.00744 479.1 2.6
482(11) 0.00776 479.0 2.7
502(12) 0.00686 478.9 2.7
521(13) 0.00636 478.7 2.7
482(12) 0.00734 478.6 2.8
491(12) 0.00735 478.5 2.8
484(11) 0.00779 478.4 2.8
495(12) 0.00704 478.3 2.9
502(13) 0.00638 478.1 2.9
475(12) 0.00728 478.0 3.0
513(12) 0.00699 477.9 3.0
465(11) 0.00799 477.8 3.1
496(12) 0.00722 477.7 3.1
488(12) 0.00689 477.6 3.2
470(12) 0.00745 477.4 3.3
493(12) 0.00750 477.3 3.3
478(11) 0.00778 477.2 3.4
502(12) 0.00678 477.1 3.5
474(12) 0.00688 477.0 3.6
476(12) 0.00730 476.8 3.7
479(11) 0.00776 476.7 3.7
473(11) 0.00771 476.6 3.8
488(12) 0.00700 476.5 3.9
492(12) 0.00662 476.4 4.0
488(12) 0.00711 476.2 4.1
485(11) 0.00765 476.1 4.2
497(12) 0.00735 476.0 4.4
513(12) 0.00663 475.9 4.5
451(12) 0.00735 475.8 4.6
461(12) 0.00751 475.6 4.8
506(12) 0.00729 475.5 4.9
486(12) 0.00753 475.4 5.1
488(12) 0.00719 475.3 5.2
496(12) 0.00684 475.2 6.2
485(12) 0.00702 475.0 6.4
460(11) 0.00803 474.9 6.6
486(12) 0.00706 474.8 6.8
459(12) 0.00719 474.7 7.0
464(12) 0.00732 474.6 7.2
506(12) 0.00687 474.5 7.5
483(11) 0.00762 474.3 7.8
470(12) 0.00749 474.2 8.1
457(12) 0.00725 474.1 8.4
493(12) 0.00685 474.0 8.7
498(12) 0.00699 473.9 9.0
466(11) 0.00797 473.7 9.4
469(12) 0.00732 473.6 9.8
481(12) 0.00708 473.5 10.2
511(12) 0.00678 473.4 10.7
499(12) 0.00715 473.3 11.2
464(11) 0.00801 473.1 11.8
476(12) 0.00717 473.0 12.4
474(12) 0.00686 472.9 13.1
486(12) 0.00693 472.8 13.8
479(11) 0.00757 472.7 14.6
492(11) 0.00761 472.5 15.5
481(12) 0.00721 472.4 16.5
481(12) 0.00693 472.3 17.6
485(12) 0.00724 472.2 18.8
486(11) 0.00763 472.1 20.2
478(11) 0.00777 471.9 21.7
494(12) 0.00705 471.8 23.5
515(13) 0.00611 471.7 25.4
465(12) 0.00731 471.6 27.5
482(11) 0.00767 471.5 29.8
481(11) 0.00776 471.3 32.5
543(13) 0.00611 471.2 35.3
519(13) 0.00616 471.1 38.5
503(12) 0.00690 471.0 41.9
505(12) 0.00732 470.9 45.6
517(12) 0.00705 470.8 50.0
511(12) 0.00702 470.6 54.3
503(12) 0.00655 470.5 58.7
512(12) 0.00671 470.4 63.2
532(12) 0.00698 470.3 67.8
512(12) 0.00722 470.2 72.3
519(12) 0.00669 470.0 76.7
544(13) 0.00605 469.9 80.9
534(12) 0.00652 469.8 84.9
551(12) 0.00682 469.7 89.0
548(12) 0.00662 469.6 93.5
558(13) 0.00633 469.4 99.1
572(13) 0.00581 469.3 106.9
557(13) 0.00602 469.2 118.4
566(12) 0.00660 469.1 135.5
601(13) 0.00597 469.0 160.4
661(14) 0.00507 468.8 195.0
702(14) 0.00478 468.7 240.7
763(15) 0.00453 468.6 297.3
764(14) 0.00486 468.5 362.1
825(15) 0.00433 468.4 428.4
923(16) 0.00373 468.2 485.9
985(17) 0.00351 468.1 526.4
988(17) 0.00359 468.0 553.3
1000(16) 0.00374 467.9 579.1
1048(17) 0.003352 467.8 615.4
1058(18) 0.003230 467.7 665.2
1188(19) 0.002892 467.5 721.2
1241(18) 0.002947 467.4 765.8
1285(19) 0.002875 467.3 776.1
1210(19) 0.002796 467.2 738.5
1122(18) 0.002941 467.1 659.7
1026(17) 0.003412 466.9 559.4
940(16) 0.00383 466.8 456.3
816(15) 0.00458 466.7 362.2
760(15) 0.00453 466.6 282.7
658(14) 0.00521 466.5 219.0
650(14) 0.00544 466.3 170.2
617(13) 0.00596 466.2 134.1
594(13) 0.00621 466.1 108.0
575(13) 0.00602 466.0 89.1
542(13) 0.00604 465.9 75.5
533(13) 0.00632 465.7 65.3
522(12) 0.00692 465.6 57.6
538(12) 0.00689 465.5 51.4
521(12) 0.00668 465.4 46.3
519(13) 0.00616 465.3 42.1
469(12) 0.00738 465.1 38.6
471(11) 0.00785 465.0 35.5
517(12) 0.00720 464.9 32.9
483(12) 0.00728 464.8 30.6
498(12) 0.00663 464.7 28.6
502(12) 0.00705 464.5 26.8
474(11) 0.00786 464.4 25.3
491(12) 0.00745 464.3 23.9
462(12) 0.00748 464.2 22.7
473(12) 0.00699 464.1 21.6
480(12) 0.00717 464.0 20.6
491(11) 0.00759 463.8 19.7
495(12) 0.00748 463.7 19.0
477(12) 0.00734 463.6 18.3
486(12) 0.00668 463.5 17.7
477(12) 0.00735 463.4 17.1
485(11) 0.00765 463.2 16.6
449(11) 0.00793 463.1 16.2
464(12) 0.00736 463.0 15.8
485(12) 0.00680 462.9 15.4
473(12) 0.00722 462.8 15.1
491(11) 0.00758 462.6 14.8
463(11) 0.00770 462.5 14.6
464(11) 0.00757 462.4 14.4
478(12) 0.00702 462.3 14.2
471(12) 0.00748 462.2 14.1
441(11) 0.00845 462.0 14.0
450(11) 0.00786 461.9 13.8
454(12) 0.00739 461.8 13.8
456(11) 0.00756 461.7 13.7
454(11) 0.00791 461.6 13.7
453(11) 0.00822 461.4 13.7
447(11) 0.00805 461.3 13.8
473(12) 0.00703 461.2 13.8
468(12) 0.00746 461.1 13.9
453(11) 0.00776 460.9 14.0
454(11) 0.00823 460.7 14.2
473(12) 0.00725 460.5 14.3
473(12) 0.00714 460.3 14.5
460(12) 0.00756 460.2 14.7
440(11) 0.00847 460.0 15.0
443(11) 0.00828 459.8 15.2
457(12) 0.00744 459.6 15.5
444(12) 0.00728 459.4 15.9
449(11) 0.00776 459.2 16.2
456(11) 0.00800 459.0 16.6
490(11) 0.00761 458.8 17.0
483(12) 0.00718 458.6 17.5
484(12) 0.00671 458.4 18.0
479(12) 0.00722 458.3 18.6
482(11) 0.00756 458.1 19.2
470(11) 0.00785 457.9 19.8
493(12) 0.00703 457.7 20.6
480(12) 0.00672 457.5 21.3
479(12) 0.00723 457.3 22.2
477(11) 0.00773 457.1 23.1
450(11) 0.00834 456.9 24.1
455(11) 0.00765 456.7 25.2
457(12) 0.00706 456.5 26.4
441(11) 0.00784 456.4 27.7
471(11) 0.00789 456.2 29.2
472(11) 0.00780 456.0 30.8
472(11) 0.00765 455.8 32.5
457(12) 0.00746 455.6 34.5
482(12) 0.00714 455.4 36.6
495(12) 0.00752 455.2 39.0
474(11) 0.00774 455.0 41.7
491(12) 0.00708 454.8 44.6
474(12) 0.00724 454.6 48.0
462(11) 0.00759 454.5 51.8
486(11) 0.00769 454.3 56.1
519(12) 0.00664 454.1 61.0
506(12) 0.00694 453.9 66.6
508(12) 0.00676 453.7 73.1
533(12) 0.00643 453.5 80.7
505(12) 0.00740 453.3 89.7
541(12) 0.00651 453.1 100.6
570(13) 0.00586 452.9 114.2
568(13) 0.00595 452.7 131.4
580(13) 0.00604 452.6 153.9
590(13) 0.00629 452.4 183.8
633(14) 0.00542 452.2 223.9
707(15) 0.00461 452.0 277.7
742(15) 0.00456 451.8 348.9
821(15) 0.00439 451.6 441.0
960(16) 0.00387 451.4 556.8
1044(17) 0.003366 451.2 696.7
1255(19) 0.002642 451.0 857.7
1431(20) 0.002405 450.8 1030.8
1671(22) 0.002155 450.7 1197.4
1842(22) 0.002023 450.5 1328.4
1962(24) 0.001752 450.3 1390.6
1815(23) 0.001820 450.1 1364.6
1665(22) 0.002126 449.9 1258.9
1492(20) 0.002500 449.7 1103.7
1303(19) 0.002846 449.5 931.3
1147(18) 0.002980 449.3 764.7
1088(19) 0.002911 449.1 616.3
916(16) 0.00385 448.9 491.4
860(15) 0.00431 448.8 390.8
755(14) 0.00494 448.6 312.5
743(15) 0.00470 448.4 253.1
721(15) 0.00446 448.2 209.1
694(14) 0.00510 448.0 176.7
684(14) 0.00543 447.8 152.9
587(12) 0.00640 447.6 135.2
579(13) 0.00612 447.4 122.0
603(13) 0.00553 447.2 112.0
590(13) 0.00583 447.0 104.3
566(12) 0.00656 446.9 98.5
587(13) 0.00631 446.7 94.2
548(12) 0.00648 446.5 91.3
558(13) 0.00595 446.3 89.6
566(13) 0.00610 446.1 89.2
560(12) 0.00665 445.9 90.0
572(13) 0.00628 445.7 92.2
598(13) 0.00556 445.5 96.2
593(13) 0.00558 445.3 102.4
637(14) 0.00528 445.1 111.6
636(13) 0.00585 445.0 124.9
637(13) 0.00569 444.8 143.8
637(13) 0.00552 444.6 170.0
678(14) 0.00493 444.4 205.5
723(14) 0.00488 444.2 252.4
796(15) 0.00468 444.0 312.0
864(15) 0.00418 443.8 385.0
973(17) 0.00359 443.6 470.0
1040(17) 0.003318 443.4 562.7
1126(18) 0.003121 443.2 653.9
1248(18) 0.002981 443.1 728.7
1339(20) 0.002593 442.9 768.7
1353(20) 0.002468 442.7 761.5
1308(19) 0.002662 442.5 709.2
1220(18) 0.002962 442.3 626.8
1017(17) 0.00366 442.1 532.3
874(16) 0.00387 441.9 439.4
784(15) 0.00426 441.7 355.5
699(14) 0.00502 441.5 284.2
613(13) 0.00604 441.3 226.1
598(13) 0.00623 441.2 180.4
591(13) 0.00588 441.0 145.4
561(13) 0.00582 440.8 119.1
505(12) 0.00708 440.6 99.4
525(12) 0.00700 440.4 84.6
517(12) 0.00724 440.2 73.4
510(12) 0.00677 440.0 64.7
501(12) 0.00665 439.8 57.7
481(12) 0.00749 439.6 52.0
494(11) 0.00757 439.4 47.2
472(11) 0.00776 439.3 43.2
460(12) 0.00741 439.1 39.6
475(12) 0.00668 438.9 36.6
466(12) 0.00734 438.7 33.9
470(11) 0.00788 438.5 31.5
454(11) 0.00824 438.3 29.4
480(12) 0.00738 438.1 27.5
454(12) 0.00718 437.9 25.7
460(11) 0.00782 437.7 24.2
457(11) 0.00810 437.5 22.8
465(11) 0.00783 437.4 21.6
461(12) 0.00755 437.2 20.4
491(12) 0.00671 437.0 19.4
470(12) 0.00734 436.8 18.4
449(11) 0.00833 436.6 17.5
468(11) 0.00763 436.4 16.7
454(12) 0.00751 436.2 15.9
445(12) 0.00740 436.0 15.2
429(11) 0.00798 435.8 14.6
451(11) 0.00815 435.6 14.0
433(11) 0.00822 435.5 13.4
439(11) 0.00764 435.3 12.9
447(12) 0.00745 435.1 12.4
455(12) 0.00753 434.9 11.9
465(11) 0.00802 434.7 11.5
462(11) 0.00769 434.5 11.1
435(11) 0.00800 434.3 10.7
448(11) 0.00772 434.1 10.4
453(11) 0.00791 433.9 10.0
491(11) 0.00762 433.7 9.7
461(11) 0.00765 433.6 9.4
446(12) 0.00743 433.4 9.1
452(11) 0.00760 433.2 8.8
448(11) 0.00826 433.0 8.6
453(11) 0.00832 432.8 8.3
457(12) 0.00732 432.6 8.1
454(12) 0.00740 432.4 7.9
446(11) 0.00777 432.2 7.7
416(11) 0.00859 432.0 7.5
417(11) 0.00891 431.8 7.3
425(11) 0.00820 431.7 7.1
486(12) 0.00654 431.5 6.9
447(11) 0.00770 431.3 6.8
444(11) 0.00838 431.1 6.6
438(11) 0.00840 430.9 6.4
447(11) 0.00769 430.7 6.3
454(12) 0.00731 430.5 6.1
446(11) 0.00786 430.3 6.0
470(11) 0.00782 430.1 5.9
460(11) 0.00809 429.9 5.8
439(11) 0.00788 429.8 5.6
444(12) 0.00724 429.6 5.5
425(11) 0.00823 429.4 5.4
420(11) 0.00875 429.2 5.3
442(11) 0.00834 429.0 5.3
441(11) 0.00797 428.8 5.2
455(12) 0.00700 428.6 5.2
439(11) 0.00791 428.4 5.1
427(11) 0.00875 428.2 5.5
456(11) 0.00802 428.0 5.5
444(11) 0.00776 427.9 5.4
437(11) 0.00761 427.7 5.4
444(11) 0.00799 427.5 5.3
427(11) 0.00877 427.3 5.2
437(11) 0.00836 427.1 5.2
432(11) 0.00799 426.9 5.1
415(11) 0.00804 426.7 5.0
457(12) 0.00736 426.5 5.0
415(11) 0.00903 426.3 4.9
458(11) 0.00772 426.1 4.9
456(12) 0.00749 426.0 4.8
427(11) 0.00788 425.8 4.8
431(11) 0.00790 425.6 4.7
436(11) 0.00856 425.4 4.7
413(11) 0.00871 425.2 4.6
405(11) 0.00862 425.0 4.6
414(11) 0.00824 424.8 4.6
423(11) 0.00818 424.6 4.5
427(11) 0.00871 424.4 4.5
398(11) 0.00905 424.2 4.5
400(11) 0.00854 424.1 4.4
434(11) 0.00780 423.9 4.4
427(11) 0.00824 423.7 4.4
406(10) 0.00921 423.5 4.3
427(11) 0.00805 423.5 4.3
419(11) 0.00802 423.4 4.3
448(11) 0.00789 423.4 4.3
455(11) 0.00806 423.3 4.2
458(11) 0.00814 423.2 4.2
421(11) 0.00814 423.2 4.2
428(11) 0.00780 423.1 4.2
411(11) 0.00851 423.1 4.2
425(11) 0.00863 423.0 4.2
436(11) 0.00860 422.9 4.1
398(11) 0.00859 422.9 4.1
416(11) 0.00793 422.8 4.1
443(11) 0.00786 422.8 4.1
435(11) 0.00848 422.7 4.1
413(11) 0.00898 422.6 4.1
453(11) 0.00758 422.6 4.1
430(11) 0.00773 422.5 4.1
434(11) 0.00796 422.5 4.1
446(11) 0.00825 422.4 4.1
435(11) 0.00848 422.3 4.1
422(11) 0.00836 422.3 4.1
411(11) 0.00784 422.2 4.1
415(11) 0.00824 422.1 4.1
435(11) 0.00854 422.1 4.1
454(11) 0.00800 422.0 4.1
433(11) 0.00800 422.0 4.1
442(12) 0.00734 421.9 4.2
461(12) 0.00735 421.8 4.2
429(11) 0.00871 421.8 4.2
410(11) 0.00887 421.7 4.2
448(12) 0.00743 421.7 4.2
418(11) 0.00787 421.6 4.3
416(11) 0.00838 421.5 4.3
424(11) 0.00881 421.5 4.3
427(11) 0.00840 421.4 4.4
416(11) 0.00856 421.4 4.5
427(11) 0.00798 421.3 4.6
429(11) 0.00812 421.2 4.6
433(11) 0.00849 421.2 4.7
416(11) 0.00894 421.1 4.8
435(11) 0.00803 421.1 4.9
431(11) 0.00789 421.0 5.0
407(11) 0.00865 420.9 5.1
420(11) 0.00887 420.9 5.2
430(11) 0.00824 420.8 5.4
424(11) 0.00823 420.7 5.6
419(11) 0.00855 420.7 5.9
425(11) 0.00831 420.6 6.2
443(11) 0.00842 420.6 6.6
429(11) 0.00796 420.5 7.1
418(11) 0.00834 420.4 7.8
437(11) 0.00786 420.4 9.1
420(11) 0.00847 420.3 11.6
418(11) 0.00882 420.3 16.6
448(11) 0.00782 420.2 26.1
466(12) 0.00708 420.1 42.1
450(11) 0.00777 420.1 65.7
468(11) 0.00797 420.0 94.9
525(12) 0.00708 420.0 123.7
568(13) 0.00601 419.9 141.9
555(13) 0.00598 419.8 140.7
556(13) 0.00631 419.8 120.7
506(12) 0.00731 419.7 91.5
468(11) 0.00790 419.6 62.8
443(11) 0.00780 419.6 40.1
448(12) 0.00693 419.5 25.0
425(11) 0.00811 419.5 16.3
438(11) 0.00853 419.4 11.7
427(11) 0.00880 419.3 9.5
447(11) 0.00769 419.3 8.3
429(12) 0.00743 419.2 7.7
397(11) 0.00887 419.2 7.3
431(11) 0.00857 419.1 6.9
439(11) 0.00829 419.0 6.7
432(11) 0.00799 419.0 6.5
405(11) 0.00841 418.9 6.4
439(11) 0.00770 418.9 6.3
446(11) 0.00822 418.8 6.2
423(11) 0.00871 418.7 6.2
434(11) 0.00786 418.7 6.2
451(12) 0.00747 418.6 6.1
438(11) 0.00794 418.6 6.1
417(11) 0.00889 418.5 6.2
430(11) 0.00843 418.4 6.2
410(11) 0.00833 418.4 6.2
422(11) 0.00812 418.3 6.2
444(11) 0.00775 418.2 6.3
397(10) 0.00934 418.2 6.4
416(11) 0.00869 418.1 6.4
421(11) 0.00811 418.1 6.5
412(11) 0.00836 418.0 6.6
437(11) 0.00792 417.9 6.6
457(11) 0.00818 417.9 6.7
425(11) 0.00834 417.8 6.8
431(11) 0.00791 417.8 6.9
426(11) 0.00811 417.9 7.1
425(11) 0.00832 417.9 7.2
429(11) 0.00868 417.9 7.3
449(11) 0.00788 417.9 7.4
423(11) 0.00810 417.9 7.6
417(11) 0.00815 418.0 7.7
411(11) 0.00894 418.0 7.9
426(11) 0.00873 418.0 7.9
408(11) 0.00841 418.0 8.1
417(11) 0.00773 418.1 8.3
418(11) 0.00845 418.1 8.5
417(11) 0.00867 418.1 8.7
420(11) 0.00886 418.1 9.0
414(11) 0.00833 418.2 9.2
419(11) 0.00786 418.2 9.5
386(11) 0.00904 418.2 9.7
409(11) 0.00900 418.2 10.0
425(11) 0.00874 418.2 10.4
403(11) 0.00878 418.3 10.7
402(11) 0.00797 418.3 11.1
408(11) 0.00840 418.3 11.4
411(11) 0.00895 418.3 11.9
440(11) 0.00842 418.4 12.3
423(11) 0.00838 418.4 12.8
434(12) 0.00744 418.4 13.3
431(11) 0.00834 418.4 13.9
440(11) 0.00834 418.5 14.5
434(11) 0.00850 418.5 15.2
427(11) 0.00848 418.5 16.0
450(12) 0.00732 418.5 16.8
467(12) 0.00746 418.5 17.7
440(11) 0.00855 418.6 18.7
452(11) 0.00801 418.6 19.9
429(11) 0.00792 418.6 21.2
437(12) 0.00745 418.6 22.6
466(12) 0.00709 418.7 24.3
461(11) 0.00807 418.7 26.3
436(11) 0.00851 418.7 28.6
471(12) 0.00729 418.7 31.4
435(11) 0.00781 418.8 34.8
463(12) 0.00750 418.8 39.0
525(12) 0.00705 418.8 44.4
422(11) 0.00869 418.8 51.1
470(12) 0.00720 418.8 59.4
472(12) 0.00700 418.9 69.8
480(12) 0.00749 418.9 82.4
503(12) 0.00736 418.9 97.5
519(12) 0.00684 418.9 115.0
575(13) 0.00597 419.0 134.7
574(13) 0.00597 419.0 155.5
579(13) 0.00608 419.0 176.1
614(13) 0.00603 419.0 193.8
633(14) 0.00546 419.1 205.6
641(14) 0.00516 419.1 209.2
617(13) 0.00552 419.1 204.2
625(13) 0.00569 419.1 192.3
607(13) 0.00615 419.1 176.8
571(13) 0.00598 419.2 160.4
555(13) 0.00594 419.2 145.3
535(12) 0.00642 419.2 132.6
500(12) 0.00732 419.2 122.9
493(12) 0.00752 419.3 116.5
502(12) 0.00714 419.3 113.4
524(13) 0.00615 419.3 113.4
493(12) 0.00697 419.3 116.3
554(12) 0.00660 419.4 121.8
563(12) 0.00662 419.4 129.7
587(13) 0.00604 419.4 139.6
595(13) 0.00550 419.4 151.0
593(13) 0.00594 419.4 163.3
631(13) 0.00577 419.5 175.9
613(13) 0.00607 419.5 187.6
668(14) 0.00511 419.5 197.4
662(14) 0.00483 419.5 203.9
666(14) 0.00521 419.6 206.3
648(13) 0.00569 419.6 204.1
654(13) 0.00571 419.6 197.5
604(13) 0.00590 419.6 187.2
601(14) 0.00531 419.7 174.3
581(13) 0.00600 419.7 160.1
578(12) 0.00642 419.7 145.5
542(12) 0.00680 419.7 131.2
514(12) 0.00673 419.7 117.7
497(12) 0.00679 419.8 105.3
528(12) 0.00663 419.8 94.0
513(12) 0.00733 419.8 84.1
538(12) 0.00674 419.8 75.3
505(12) 0.00702 419.9 67.6
493(12) 0.00674 419.9 61.0
454(11) 0.00784 419.9 55.4
483(11) 0.00766 419.9 50.6
494(12) 0.00730 420.0 46.5
452(11) 0.00773 420.0 43.0
441(11) 0.00765 420.0 40.1
449(11) 0.00794 420.0 37.6
447(11) 0.00829 420.0 35.5
450(11) 0.00812 420.1 33.7
429(11) 0.00821 420.1 32.2
443(12) 0.00741 420.1 30.9
423(11) 0.00821 420.1 29.8
426(11) 0.00875 420.2 28.8
428(11) 0.00810 420.2 28.1
426(11) 0.00805 420.2 27.4
412(11) 0.00848 420.2 26.8
425(11) 0.00852 420.3 26.4
392(10) 0.00952 420.3 26.0
406(11) 0.00874 420.3 25.7
411(11) 0.00818 420.3 25.5
427(11) 0.00790 420.3 25.4
417(11) 0.00833 420.4 25.3
447(11) 0.00825 420.4 25.3
447(11) 0.00773 420.4 25.4
419(11) 0.00772 420.4 25.5
408(11) 0.00839 420.5 25.7
422(11) 0.00869 420.5 26.0
405(10) 0.00918 420.5 26.4
457(12) 0.00752 420.5 26.8
434(11) 0.00764 420.6 27.3
421(11) 0.00842 420.6 27.9
449(11) 0.00835 420.6 28.5
425(11) 0.00859 420.6 29.3
407(11) 0.00857 420.6 30.1
440(12) 0.00726 420.7 30.9
428(11) 0.00801 420.7 31.9
432(11) 0.00865 420.6 32.9
452(11) 0.00819 420.4 34.0
450(11) 0.00763 420.2 35.1
419(11) 0.00764 420.0 36.3
391(11) 0.00896 419.8 37.5
458(11) 0.00804 419.6 38.7
471(11) 0.00785 419.4 39.8
433(11) 0.00804 419.2 41.0
415(11) 0.00771 418.9 42.1
416(11) 0.00848 418.7 43.2
419(11) 0.00888 418.5 44.2
456(11) 0.00798 418.3 45.2
457(12) 0.00744 418.1 46.3
457(12) 0.00720 417.9 47.5
447(11) 0.00782 417.7 48.7
441(11) 0.00845 417.5 50.2
439(11) 0.00814 417.3 51.8
422(11) 0.00838 417.1 53.7
442(12) 0.00744 416.9 55.9
410(11) 0.00861 416.7 58.3
443(11) 0.00840 416.5 61.0
419(11) 0.00854 416.3 64.1
428(11) 0.00817 416.1 67.4
439(11) 0.00764 415.9 71.0
428(11) 0.00795 415.6 74.7
438(11) 0.00847 415.4 78.5
442(11) 0.00785 415.2 82.3
445(11) 0.00767 415.0 86.1
451(11) 0.00778 414.8 89.9
462(11) 0.00767 414.6 94.1
485(11) 0.00766 414.4 98.7
466(12) 0.00752 414.2 104.1
466(12) 0.00736 414.0 110.4
475(12) 0.00728 413.8 117.9
496(12) 0.00711 413.6 126.7
508(12) 0.00735 413.4 137.0
517(12) 0.00680 413.2 149.2
527(13) 0.00635 413.0 163.4
513(12) 0.00685 412.8 179.9
543(12) 0.00670 412.6 198.9
600(13) 0.00621 412.3 220.7
581(13) 0.00606 412.1 245.6
613(14) 0.00531 411.9 273.8
630(13) 0.00561 411.7 305.4
673(13) 0.00550 411.5 340.6
706(14) 0.00528 411.3 379.2
769(15) 0.00457 411.1 421.2
817(16) 0.00402 410.9 465.9
864(16) 0.00400 410.7 512.6
887(15) 0.00419 410.5 559.7
938(16) 0.00395 410.3 605.4
1002(17) 0.003489 410.1 647.1
1010(18) 0.003195 409.9 681.7
1037(17) 0.003315 409.7 706.4
1004(17) 0.00364 409.5 718.8
965(16) 0.00382 409.3 717.7
978(17) 0.00360 409.0 703.2
977(17) 0.003403 408.8 677.2
927(16) 0.00380 408.6 642.3
890(16) 0.00415 408.4 601.5
874(16) 0.00416 408.2 557.6
827(15) 0.00422 408.0 513.0
813(16) 0.00407 407.8 469.4
752(15) 0.00456 407.6 428.0
722(14) 0.00512 407.4 389.6
711(14) 0.00510 407.2 354.4
726(15) 0.00470 407.0 322.7
684(14) 0.00498 406.8 294.4
663(14) 0.00539 406.6 269.3
662(13) 0.00562 406.4 247.2
623(13) 0.00567 406.2 227.9
579(13) 0.00587 406.0 211.0
582(13) 0.00572 405.7 196.2
577(13) 0.00609 405.5 183.3
570(12) 0.00655 405.3 171.9
591(13) 0.00596 405.1 161.9
559(13) 0.00608 404.9 153.0
538(13) 0.00635 404.7 145.0
533(12) 0.00683 404.5 137.8
546(12) 0.00685 404.3 131.2
546(13) 0.00619 404.1 125.0
553(13) 0.00598 403.9 119.4
512(12) 0.00679 403.7 114.0
490(12) 0.00751 403.5 109.0
483(11) 0.00765 403.3 104.3
497(12) 0.00704 403.1 99.9
522(12) 0.00643 402.9 95.7
498(12) 0.00676 402.7 91.7
519(12) 0.00695 402.4 87.9
457(11) 0.00811 402.2 84.4
496(12) 0.00700 402.0 81.1
528(13) 0.00626 401.8 78.1
488(12) 0.00708 401.6 75.3
480(12) 0.00752 401.4 72.7
456(11) 0.00824 401.2 70.3
453(11) 0.00761 401.0 68.2
445(12) 0.00744 400.8 66.4
431(11) 0.00816 400.6 64.8
433(11) 0.00867 400.4 63.5
433(11) 0.00856 400.2 62.6
452(11) 0.00785 400.0 61.9
468(12) 0.00663 399.8 61.7
448(11) 0.00767 399.6 61.8
478(11) 0.00761 399.4 62.4
444(11) 0.00827 399.1 63.4
447(12) 0.00752 398.9 64.9
469(12) 0.00677 398.7 66.9
463(12) 0.00748 398.5 69.5
469(11) 0.00793 398.3 72.6
462(11) 0.00801 398.1 76.3
475(12) 0.00721 397.9 80.5
475(12) 0.00698 397.7 85.2
469(12) 0.00745 397.5 90.2
517(12) 0.00725 397.3 95.3
505(12) 0.00716 397.1 100.4
509(12) 0.00688 396.9 105.0
530(13) 0.00608 396.7 108.7
530(12) 0.00643 396.5 111.1
530(12) 0.00702 396.3 111.8
531(12) 0.00679 396.1 110.7
523(12) 0.00657 395.8 107.8
516(12) 0.00668 395.6 103.3
506(12) 0.00712 395.4 97.7
463(11) 0.00804 395.2 91.4
522(12) 0.00671 395.0 84.7
513(12) 0.00671 394.8 77.9
466(12) 0.00722 394.6 71.4
434(11) 0.00805 394.4 65.2
415(11) 0.00882 394.2 59.5
458(11) 0.00763 394.0 54.2
458(12) 0.00734 393.8 49.4
453(12) 0.00740 393.6 45.2
382(10) 0.00935 393.4 41.4
425(11) 0.00858 393.2 38.0
434(11) 0.00765 393.0 35.0
422(12) 0.00749 392.8 32.4
407(11) 0.00863 392.5 30.1
419(11) 0.00862 392.3 28.1
427(11) 0.00865 392.1 26.3
422(11) 0.00787 391.9 24.7
413(11) 0.00800 391.7 23.3
397(11) 0.00879 391.5 22.1
431(11) 0.00829 391.3 21.0
395(10) 0.00953 391.1 20.0
409(11) 0.00855 390.9 19.1
400(11) 0.00860 390.7 18.2
429(11) 0.00818 390.5 17.5
414(11) 0.00890 390.3 16.8
415(11) 0.00892 390.1 16.2
402(11) 0.00856 389.9 15.6
430(12) 0.00724 389.7 15.0
370(10) 0.00934 389.5 14.5
390(10) 0.00941 389.2 14.0
419(11) 0.00872 389.0 13.6
378(10) 0.00920 388.8 13.1
404(11) 0.00796 388.6 12.7
395(11) 0.00885 388.4 12.3
391(10) 0.00959 388.2 12.0
407(11) 0.00871 388.0 11.6
414(11) 0.00806 387.8 11.3
379(10) 0.00915 387.6 11.0
413(11) 0.00830 387.4 10.7
385(10) 0.00970 387.2 10.4
401(10) 0.00912 387.0 10.2
386(11) 0.00896 386.8 9.9
401(11) 0.00823 386.6 9.7
424(11) 0.00804 386.4 9.4
406(11) 0.00903 386.2 9.2
415(11) 0.00885 385.9 9.0
402(11) 0.00870 385.7 8.8
391(11) 0.00890 385.5 8.6
406(11) 0.00860 385.3 8.4
408(11) 0.00904 385.1 8.2
390(10) 0.00948 384.9 8.0
372(10) 0.00971 384.7 7.9
364(10) 0.00933 384.5 7.7
392(11) 0.00901 384.3 7.6
399(10) 0.00933 384.1 7.4
385(11) 0.00899 383.9 7.3
385(11) 0.00871 383.7 7.1
377(10) 0.00922 383.5 7.0
385(10) 0.00937 383.3 6.9
397(10) 0.00927 383.1 6.7
401(11) 0.00863 382.9 6.6
339(10) 0.01054 382.6 6.5
377(10) 0.00921 382.4 6.4
383(10) 0.00941 382.2 6.3
394(10) 0.00938 382.0 6.1
401(11) 0.00864 381.8 6.0
385(11) 0.00887 381.6 5.9
418(11) 0.00792 381.4 5.8
375(10) 0.00970 381.2 5.7
368(10) 0.01008 381.0 5.6
375(10) 0.00913 380.8 5.6
403(11) 0.00798 380.6 5.5
403(11) 0.00879 380.4 5.4
396(10) 0.00939 380.2 5.3
391(10) 0.00959 380.0 5.2
381(10) 0.00944 379.8 5.1
399(11) 0.00807 379.6 5.0
368(10) 0.00944 379.3 5.0
373(10) 0.00997 379.1 4.9
380(10) 0.00976 378.9 4.8
379(10) 0.00926 378.7 4.8
391(11) 0.00841 378.5 4.7
397(11) 0.00844 378.3 4.6
396(10) 0.00942 378.1 4.6
396(10) 0.00917 377.9 4.5
365(10) 0.00953 377.7 4.4
364(10) 0.00937 377.5 4.4
391(10) 0.00923 377.3 4.3
412(11) 0.00901 377.1 4.3
356(10) 0.01010 376.9 4.2
375(10) 0.00924 376.7 4.1
362(10) 0.00951 376.5 4.1
384(11) 0.00898 376.3 4.0
354(10) 0.01048 376.0 4.0
405(11) 0.00903 375.8 3.9
384(10) 0.00934 375.6 3.9
386(11) 0.00875 375.4 3.8
379(10) 0.00917 375.2 3.8
391(10) 0.00946 375.0 3.7
373(10) 0.00947 374.8 3.7
372(10) 0.00930 374.6 3.6
389(11) 0.00896 374.4 3.6
398(11) 0.00893 374.2 3.6
387(10) 0.00965 374.0 3.5
398(11) 0.00868 373.8 3.5
371(10) 0.00923 373.6 3.4
365(10) 0.00943 373.4 3.4
388(10) 0.00923 373.2 3.4
393(10) 0.00950 373.0 3.3
373(10) 0.00928 372.8 3.3
393(11) 0.00853 372.5 3.2
363(10) 0.00950 372.3 3.2
381(10) 0.00943 372.1 3.2
381(10) 0.00974 371.9 3.1
391(11) 0.00884 371.7 3.1
379(11) 0.00902 371.5 3.1
388(11) 0.00876 371.3 3.0
377(10) 0.00977 371.1 3.0
356(10) 0.01056 370.9 3.0
358(10) 0.00982 370.7 2.9
370(11) 0.00875 370.5 2.9
380(10) 0.00913 370.3 2.9
392(10) 0.00945 370.1 2.8
380(10) 0.00965 369.9 2.8
336(10) 0.01050 369.7 2.8
357(10) 0.00942 369.5 2.8
381(11) 0.00903 369.2 2.7
369(10) 0.01000 369.0 2.7
375(10) 0.01003 368.8 2.7
381(10) 0.00925 368.6 2.7
371(11) 0.00859 368.4 2.6
373(10) 0.00953 368.2 2.6
372(10) 0.01001 368.0 2.6
361(10) 0.01036 367.8 2.6
364(10) 0.00970 367.6 2.5
403(11) 0.00801 367.4 2.5
384(10) 0.00923 367.2 2.5
400(10) 0.00934 367.0 2.5
409(11) 0.00900 366.8 2.4
369(10) 0.00973 366.6 2.4
383(11) 0.00870 366.4 2.4
367(10) 0.00941 366.2 2.4
360(10) 0.01038 365.9 2.4
388(10) 0.00927 365.9 2.3
367(10) 0.00960 365.8 2.3
389(11) 0.00863 365.8 2.3
372(10) 0.00925 365.7 2.3
386(10) 0.00968 365.6 2.3
366(10) 0.00979 365.6 2.2
378(10) 0.00921 365.5 2.2
397(11) 0.00872 365.5 2.2
386(10) 0.00915 365.4 2.2
384(10) 0.00965 365.4 2.2
377(10) 0.00945 365.3 2.2
366(10) 0.00951 365.3 2.1
384(11) 0.00875 365.2 2.1
363(10) 0.00999 365.1 2.1
382(10) 0.00981 365.1 2.1
356(10) 0.00997 365.0 2.1
366(11) 0.00900 365.0 2.1
389(11) 0.00876 364.9 2.0
371(10) 0.00961 364.9 2.0
357(10) 0.01037 364.8 2.0
373(10) 0.00942 364.8 2.0
389(11) 0.00868 364.7 2.0
391(11) 0.00882 364.6 2.0
364(10) 0.01022 364.6 2.0
394(10) 0.00941 364.5 1.9
386(11) 0.00902 364.5 1.9
382(11) 0.00861 364.4 1.9
391(11) 0.00879 364.4 1.9
392(10) 0.00933 364.3 1.9
360(10) 0.01035 364.3 1.9
401(11) 0.00873 364.2 1.9
361(10) 0.00908 364.1 1.9
353(10) 0.00996 364.1 1.8
372(10) 0.00995 364.0 1.8
375(10) 0.00987 364.0 1.8
338(10) 0.01047 363.9 1.8
378(11) 0.00832 363.9 1.8
389(11) 0.00887 363.8 1.8
351(10) 0.01047 363.8 1.8
360(10) 0.01030 363.7 1.8
347(10) 0.00987 363.6 1.8
363(10) 0.00907 363.6 1.7
374(10) 0.00939 363.5 1.7
376(10) 0.00992 363.5 1.7
355(10) 0.01016 363.4 1.7
365(10) 0.00939 363.4 1.7
391(11) 0.00828 363.3 1.7
369(10) 0.00950 363.3 1.7
377(10) 0.00981 363.2 1.7
347(10) 0.01033 363.1 1.7
376(10) 0.00907 363.1 1.7
350(10) 0.00994 363.0 1.7
370(10) 0.00946 363.0 1.6
380(10) 0.00985 362.9 1.6
381(10) 0.00944 362.9 1.6
368(10) 0.00937 362.8 1.6
362(10) 0.00912 362.7 1.6
356(10) 0.00977 362.7 1.6
346(10) 0.01091 362.6 1.6
367(10) 0.00961 362.6 1.6
350(10) 0.00964 362.5 1.6
336(10) 0.01024 362.5 1.6
367(10) 0.00942 362.4 1.6
370(10) 0.01003 362.4 1.6
384(11) 0.00905 362.3 1.6
345(10) 0.00973 362.2 1.6
365(11) 0.00893 362.2 1.6
372(10) 0.00977 362.1 1.6
352(10) 0.01057 362.1 1.5
363(10) 0.00970 362.0 1.5
375(11) 0.00883 362.0 1.6
375(11) 0.00905 361.9 1.6
385(10) 0.00927 361.9 1.6
380(10) 0.00971 361.8 1.6
378(10) 0.00913 361.7 1.6
379(11) 0.00883 361.7 1.6
376(10) 0.00929 361.6 1.6
367(10) 0.00998 361.6 1.6
364(10) 0.01017 361.5 1.6
358(10) 0.00967 361.5 1.6
350(10) 0.00932 361.4 1.6
341(10) 0.01031 361.4 1.6
350(10) 0.01071 361.3 1.6
386(10) 0.00959 361.2 1.6
366(10) 0.00953 361.2 1.6
364(11) 0.00881 361.1 1.6
368(10) 0.00945 361.1 1.6
372(10) 0.01003 361.0 1.6
400(10) 0.00915 361.0 1.6
357(10) 0.00962 360.9 1.6
366(11) 0.00884 360.9 1.6
370(10) 0.00936 360.8 1.6
375(10) 0.00977 360.7 1.6
356(10) 0.01015 360.7 1.6
373(10) 0.00932 360.6 1.6
368(11) 0.00893 360.6 1.6
348(10) 0.01004 360.5 1.6
375(10) 0.00989 360.5 1.6
374(10) 0.00953 360.4 1.6
382(11) 0.00874 360.4 1.6
360(11) 0.00892 360.3 1.6
332(10) 0.01032 360.2 1.6
395(10) 0.00942 360.2 1.6
369(10) 0.00984 360.1 1.7
347(10) 0.00993 360.1 1.7
363(11) 0.00903 360.0 1.7
350(10) 0.01015 360.0 1.7
357(10) 0.01035 359.9 1.7
378(10) 0.00952 359.9 1.7
360(10) 0.00946 359.8 1.7
350(10) 0.00982 359.7 1.7
356(10) 0.00984 359.7 1.7
345(10) 0.01083 359.6 1.7
358(10) 0.00980 359.6 1.7
378(10) 0.00910 359.5 1.8
376(10) 0.00917 359.5 1.8
352(10) 0.01008 359.4 1.8
342(10) 0.01099 359.4 1.8
394(11) 0.00864 359.3 1.8
354(10) 0.00971 359.2 1.8
369(11) 0.00901 359.2 1.9
344(10) 0.01066 359.1 1.9
386(10) 0.00960 359.1 1.9
391(11) 0.00862 359.0 1.9
359(10) 0.00952 359.0 2.0
373(10) 0.00927 358.9 2.0
368(10) 0.01007 358.9 2.0
374(10) 0.00997 358.8 2.1
365(10) 0.00928 358.7 2.1
353(10) 0.00943 358.7 2.2
366(10) 0.00970 358.6 2.2
361(10) 0.01023 358.6 2.3
349(10) 0.01069 358.5 2.4
366(10) 0.00920 358.5 2.5
357(10) 0.00946 358.4 2.5
384(10) 0.00942 358.4 2.7
372(10) 0.00998 358.3 2.8
359(10) 0.01018 358.2 3.0
346(10) 0.01010 358.2 3.2
360(10) 0.00920 358.1 3.6
378(10) 0.00944 358.1 4.1
385(10) 0.00966 358.0 5.0
374(10) 0.00970 358.0 6.2
370(10) 0.00954 357.9 8.0
377(11) 0.00882 357.9 10.3
407(11) 0.00856 357.8 13.0
398(10) 0.00948 357.7 15.9
380(10) 0.00957 357.7 18.2
410(11) 0.00827 357.6 19.3
384(11) 0.00862 357.6 18.7
378(10) 0.00917 357.5 16.6
380(10) 0.00981 357.5 13.9
383(10) 0.00940 357.4 11.2
370(10) 0.00936 357.4 9.0
378(11) 0.00872 357.3 7.3
376(10) 0.00934 357.2 6.1
373(10) 0.01004 357.2 5.4
356(10) 0.01012 357.1 4.9
369(10) 0.00943 357.1 4.7
388(11) 0.00846 357.0 4.6
353(10) 0.01008 357.0 4.6
378(10) 0.00983 356.9 4.7
346(10) 0.01021 356.9 4.7
368(10) 0.00918 356.8 4.8
355(10) 0.00994 356.7 4.9
358(10) 0.01001 356.7 5.1
345(10) 0.01085 356.6 5.2
375(10) 0.00929 356.6 5.4
379(11) 0.00896 356.5 5.6
383(11) 0.00903 356.5 5.8
362(10) 0.01007 356.4 6.0
375(10) 0.00996 356.4 6.3
366(10) 0.00932 356.3 6.5
364(10) 0.00917 356.2 6.7
384(11) 0.00886 356.2 7.0
376(10) 0.00981 356.1 7.3
385(10) 0.00970 356.1 7.5
375(10) 0.00935 356.0 7.8
382(11) 0.00855 356.0 8.0
349(10) 0.00982 355.9 8.3
361(10) 0.01026 355.9 8.5
369(10) 0.01014 355.8 8.7
368(10) 0.00925 355.7 8.9
380(11) 0.00861 355.7 9.1
389(11) 0.00884 355.6 9.3
397(10) 0.00920 355.6 9.4
374(10) 0.00993 355.5 9.5
381(11) 0.00906 355.5 9.5
393(11) 0.00815 355.4 9.5
375(11) 0.00894 355.4 9.5
351(10) 0.01061 355.3 9.4
350(10) 0.01045 355.2 9.3
369(10) 0.00958 355.2 9.1
392(11) 0.00817 355.1 9.0
371(10) 0.00918 355.1 8.8
356(10) 0.01053 355.0 8.5
362(10) 0.01013 355.0 8.3
379(10) 0.00949 354.9 8.1
386(11) 0.00860 354.9 7.8
354(10) 0.00985 354.8 7.5
354(10) 0.01057 354.7 7.3
363(10) 0.00959 354.7 7.0
383(11) 0.00865 354.6 6.8
374(10) 0.00907 354.6 6.5
384(11) 0.00894 354.5 6.3
371(10) 0.01008 354.5 6.0
362(10) 0.00992 354.4 5.8
351(10) 0.00980 354.4 5.6
353(10) 0.00930 354.3 5.4
358(10) 0.00967 354.2 5.2
377(10) 0.00989 354.2 5.0
364(10) 0.00969 354.1 4.9
347(10) 0.00995 354.1 4.7
384(11) 0.00884 354.0 4.6
379(10) 0.00939 354.0 4.4
349(10) 0.01067 353.9 4.3
353(10) 0.00995 353.9 4.2
359(10) 0.00965 353.8 4.1
377(10) 0.00928 353.7 4.0
370(10) 0.00998 353.7 3.9
381(10) 0.00970 353.6 3.9
385(11) 0.00866 353.6 3.8
362(10) 0.00930 353.5 3.8
378(10) 0.00939 353.5 3.7
370(10) 0.00993 353.4 3.7
387(10) 0.00954 353.4 3.7
368(10) 0.00946 353.3 3.7
348(10) 0.00978 353.2 3.7
361(10) 0.00947 353.2 3.8
342(10) 0.01061 353.1 3.8
345(10) 0.01075 353.1 3.9
352(10) 0.01025 353.0 4.0
350(10) 0.00950 353.0 4.1
361(10) 0.00937 352.9 4.3
362(10) 0.01011 352.9 4.5
357(10) 0.01049 352.8 4.7
376(11) 0.00899 352.7 5.0
365(11) 0.00865 352.7 5.5
372(10) 0.00938 352.6 6.0
353(10) 0.01044 352.6 6.6
333(9) 0.01120 352.5 7.5
350(10) 0.00977 352.5 8.5
351(10) 0.00918 352.4 9.7
351(10) 0.01029 352.4 11.2
355(10) 0.01049 352.3 13.0
372(10) 0.00990 352.2 14.9
365(10) 0.00955 352.2 17.0
335(10) 0.01001 352.1 19.1
372(11) 0.00900 352.1 21.1
354(10) 0.01047 352.0 22.5
360(10) 0.01028 352.0 23.3
382(10) 0.00935 351.9 23.0
348(10) 0.01000 351.9 22.0
345(10) 0.01026 351.8 20.3
357(10) 0.01034 351.7 18.2
367(10) 0.00973 351.7 16.1
332(10) 0.01094 351.6 14.0
357(10) 0.00939 351.6 12.1
370(10) 0.00914 351.5 10.5
355(10) 0.01054 351.5 9.1
329(10) 0.01092 351.4 7.9
336(10) 0.00964 351.3 7.0
333(10) 0.01022 351.3 6.2
362(10) 0.00953 351.2 5.6
357(10) 0.01051 351.2 5.1
367(10) 0.00969 351.1 4.8
353(10) 0.00981 351.1 4.5
356(10) 0.00969 351.0 4.2
344(10) 0.01025 350.9 4.0
320(9) 0.01154 350.9 3.9
356(10) 0.00995 350.8 3.7
349(10) 0.00965 350.8 3.6
330(10) 0.01030 350.7 3.6
333(10) 0.01088 350.7 3.5
351(10) 0.01050 350.6 3.4
358(10) 0.00989 350.5 3.4
325(10) 0.01053 350.5 3.4
357(10) 0.00948 350.4 3.4
341(10) 0.01098 350.4 3.4
348(10) 0.01066 350.3 3.4
361(10) 0.00990 350.2 3.4
342(10) 0.00991 350.2 3.4
359(10) 0.00995 350.1 3.4
348(10) 0.01052 350.1 3.5
331(9) 0.01127 350.0 3.5
362(10) 0.00961 350.0 3.6
344(10) 0.00937 349.9 3.7
346(10) 0.00992 349.8 3.8
346(10) 0.01040 349.8 3.9
353(10) 0.01062 349.7 4.0
368(10) 0.00946 349.7 4.2
342(10) 0.00964 349.6 4.4
352(10) 0.01004 349.6 4.6
364(10) 0.01022 349.5 4.8
392(10) 0.00941 349.4 5.0
366(10) 0.00971 349.4 5.3
334(10) 0.01020 349.3 5.7
339(10) 0.00994 349.3 6.0
368(10) 0.01002 349.2 6.4
359(10) 0.01033 349.1 6.9
368(10) 0.00915 349.1 7.4
345(10) 0.00970 349.0 7.9
384(11) 0.00889 349.0 8.5
354(10) 0.01048 348.9 9.1
366(10) 0.01021 348.9 9.8
363(10) 0.00974 348.8 10.5
374(11) 0.00888 348.7 11.3
352(10) 0.00934 348.7 12.0
330(9) 0.01138 348.6 12.7
349(10) 0.01021 348.6 13.4
334(10) 0.01027 348.5 14.1
327(10) 0.01000 348.5 14.6
341(10) 0.01023 348.4 15.0
351(10) 0.01060 348.3 15.2
368(10) 0.00974 348.3 15.2
347(10) 0.00975 348.2 15.1
346(10) 0.00986 348.2 14.8
367(10) 0.00973 348.1 14.3
355(10) 0.01055 348.0 13.8
352(10) 0.00978 348.0 13.1
365(10) 0.00919 347.9 12.5
363(10) 0.00939 347.9 11.8
329(10) 0.01075 347.8 11.1
343(10) 0.01074 347.8 10.4
331(10) 0.01064 347.7 9.8
339(10) 0.00983 347.6 9.2
351(10) 0.01004 347.6 8.6
364(10) 0.01014 347.5 8.1
341(10) 0.01100 347.5 7.7
349(10) 0.00996 347.4 7.3
357(11) 0.00905 347.4 7.0
341(10) 0.01041 347.3 6.7
354(10) 0.01021 347.2 6.4
319(9) 0.01167 347.2 6.2
348(10) 0.01003 347.1 6.0
329(10) 0.01014 347.1 5.9
321(10) 0.01070 347.0 5.7
336(10) 0.01100 347.0 5.7
341(10) 0.01091 346.9 5.6
333(10) 0.01078 346.8 5.6
358(10) 0.00915 346.8 5.6
328(10) 0.01082 346.7 5.6
331(9) 0.01124 346.7 5.6
348(10) 0.01054 346.6 5.7
361(10) 0.00972 346.5 5.8
366(11) 0.00895 346.5 5.9
335(10) 0.01024 346.4 6.0
355(10) 0.01039 346.4 6.1
361(10) 0.01012 346.3 6.3
354(10) 0.01017 346.3 6.4
328(10) 0.01040 346.2 6.6
336(10) 0.01015 346.1 6.8
348(10) 0.01066 346.1 7.0
326(10) 0.01088 346.0 7.2
345(10) 0.00994 346.0 7.4
345(10) 0.00947 345.9 7.7
333(10) 0.01035 345.9 7.9
352(10) 0.01055 345.8 8.1
337(10) 0.01051 345.7 8.4
345(10) 0.00992 345.7 8.6
328(10) 0.01056 345.6 8.8
348(10) 0.01006 345.6 9.0
329(9) 0.01135 345.5 9.2
371(10) 0.00924 345.4 9.3
360(10) 0.00961 345.4 9.4
366(10) 0.00961 345.3 9.5
329(10) 0.01075 345.3 9.5
359(10) 0.01034 345.2 9.5
371(10) 0.00947 345.2 9.5
351(10) 0.00965 345.1 9.4
379(11) 0.00897 345.0 9.4
351(10) 0.01020 345.0 9.2
350(10) 0.01062 344.9 9.1
349(10) 0.00988 344.9 9.0
352(10) 0.00932 344.8 8.8
358(10) 0.00951 344.8 8.7
334(9) 0.01117 344.7 8.5
349(10) 0.01061 344.6 8.4
349(10) 0.01011 344.6 8.2
339(10) 0.00998 344.5 8.1
346(10) 0.00992 344.5 8.0
365(10) 0.00990 344.4 7.9
351(10) 0.01055 344.3 7.8
330(10) 0.01064 344.3 7.7
349(10) 0.00946 344.2 7.6
351(10) 0.00964 344.2 7.6
323(9) 0.01140 344.1 7.6
339(10) 0.01077 344.1 7.5
320(10) 0.01070 344.0 7.6
348(11) 0.00901 343.9 7.6
347(10) 0.01002 343.9 7.6
336(10) 0.01107 343.8 7.7
353(10) 0.01020 343.8 7.7
355(10) 0.00962 343.7 7.8
320(10) 0.01028 343.7 7.9
354(10) 0.00948 343.6 8.1
344(10) 0.01071 343.5 8.2
333(9) 0.01115 343.5 8.4
334(10) 0.01068 343.4 8.5
355(10) 0.00961 343.4 8.7
358(10) 0.00984 343.3 9.0
337(9) 0.01110 343.3 9.2
387(10) 0.00914 343.2 9.5
366(10) 0.00951 343.1 9.8
342(10) 0.00973 343.1 10.1
360(10) 0.00962 343.0 10.5
336(10) 0.01101 343.0 10.9
352(10) 0.01006 342.9 11.3
335(10) 0.01039 342.8 11.8
367(11) 0.00894 342.8 12.3
351(10) 0.00995 342.7 12.8
339(10) 0.01097 342.7 13.4
358(10) 0.00979 342.6 14.1
357(10) 0.00945 342.6 14.8
342(10) 0.01029 342.5 15.5
350(10) 0.01047 342.4 16.3
352(10) 0.01053 342.4 17.2
352(10) 0.00970 342.3 18.2
376(11) 0.00902 342.3 19.3
347(10) 0.01015 342.2 20.6
362(10) 0.00993 342.2 21.9
351(10) 0.01070 342.1 23.4
392(11) 0.00875 342.0 25.1
360(10) 0.00952 342.0 26.9
339(10) 0.01056 341.9 29.0
397(11) 0.00904 341.9 31.2
370(10) 0.00998 341.8 33.7
336(10) 0.01053 341.7 36.4
354(10) 0.00908 341.7 39.3
339(10) 0.01016 341.6 42.5
391(10) 0.00950 341.6 46.0
379(10) 0.00987 341.5 49.7
404(11) 0.00848 341.5 53.7
377(11) 0.00862 341.4 57.9
428(11) 0.00795 341.3 62.3
414(11) 0.00904 341.3 66.9
398(10) 0.00930 341.2 71.7
425(11) 0.00812 341.2 76.5
441(12) 0.00740 341.1 81.1
474(12) 0.00739 341.1 85.6
464(11) 0.00799 341.0 89.8
456(11) 0.00807 340.9 93.4
438(11) 0.00820 340.9 96.3
459(12) 0.00699 340.8 98.4
447(11) 0.00776 340.8 99.7
442(11) 0.00849 340.7 100.0
439(11) 0.00821 340.6 99.4
430(11) 0.00817 340.6 98.0
442(12) 0.00724 340.5 95.9
420(11) 0.00818 340.5 93.2
436(11) 0.00856 340.4 90.1
439(11) 0.00815 340.4 86.7
412(11) 0.00857 340.3 83.2
439(12) 0.00751 340.2 79.5
412(11) 0.00840 340.2 75.8
415(11) 0.00895 340.1 72.2
411(11) 0.00882 340.1 68.5
427(11) 0.00802 340.0 65.0
392(11) 0.00856 340.0 61.6
377(11) 0.00905 339.9 58.3
401(10) 0.00928 339.8 55.0
390(11) 0.00903 339.8 51.9
400(11) 0.00856 339.7 49.0
357(10) 0.00986 339.7 46.1
401(11) 0.00890 339.6 43.2
381(10) 0.00974 339.5 40.6
392(10) 0.00909 339.5 38.2
403(11) 0.00832 339.4 35.9
386(11) 0.00879 339.4 33.7
353(10) 0.00993 339.3 31.7
350(10) 0.01063 339.3 29.8
392(11) 0.00894 339.2 28.0
360(10) 0.00978 339.1 26.4
375(10) 0.00960 339.1 24.8
353(10) 0.01015 339.0 23.4
366(10) 0.01015 339.0 22.1
337(10) 0.01057 338.9 20.8
361(11) 0.00891 338.9 19.6
364(10) 0.00954 338.8 18.6
343(10) 0.01072 338.7 17.5
341(10) 0.01080 338.7 16.6
345(10) 0.01009 338.6 15.7
339(10) 0.00953 338.6 14.9
346(10) 0.00997 338.5 14.1
365(10) 0.01011 338.5 13.4
337(10) 0.01097 338.4 12.8
347(10) 0.00994 338.3 12.1
359(11) 0.00901 338.3 11.6
348(10) 0.00998 338.2 11.0
333(10) 0.01107 338.2 10.5
370(10) 0.00990 338.1 10.0
353(10) 0.01003 338.0 9.6
331(10) 0.01035 338.0 9.2
346(10) 0.01052 337.9 8.8
337(10) 0.01105 337.9 8.4
340(10) 0.01069 337.8 8.1
334(10) 0.01074 337.8 7.8
342(10) 0.00950 337.7 7.5
342(10) 0.00979 337.6 7.2
331(9) 0.01132 337.6 6.9
359(10) 0.00992 337.5 6.7
318(9) 0.01125 337.5 6.4
331(10) 0.01009 337.4 6.2
338(10) 0.01043 337.4 6.0
341(10) 0.01095 337.3 5.8
350(10) 0.01036 337.2 5.6
364(10) 0.00952 337.2 5.4
330(10) 0.01013 337.1 5.2
328(10) 0.01037 337.1 5.1
334(9) 0.01111 337.0 4.9
377(10) 0.00923 336.9 4.8
356(10) 0.00970 336.9 4.6
347(10) 0.00951 336.8 4.5
338(10) 0.01044 336.8 4.4
364(10) 0.01028 336.7 4.3
344(10) 0.01017 336.7 4.1
334(10) 0.01057 336.6 4.0
326(10) 0.01069 336.5 3.9
323(9) 0.01135 336.5 3.8
345(10) 0.01087 336.4 3.7
344(10) 0.00961 336.4 3.6
317(10) 0.01012 336.3 3.5
323(10) 0.01082 336.3 3.4
348(10) 0.01047 336.2 3.4
346(10) 0.01081 336.1 3.3
353(10) 0.00965 336.1 3.2
352(10) 0.00937 336.0 3.1
345(10) 0.01004 336.0 3.1
342(10) 0.01062 335.9 3.0
326(9) 0.01137 335.8 2.9
323(10) 0.01062 335.8 2.9
329(10) 0.01000 335.7 2.8
352(10) 0.00958 335.7 2.7
322(9) 0.01151 335.6 2.7
341(10) 0.01084 335.6 2.6
314(9) 0.01136 335.5 2.6
322(10) 0.01023 335.4 2.5
329(10) 0.01057 335.4 2.5
365(10) 0.01011 335.3 2.4
325(9) 0.01132 335.3 2.4
345(10) 0.01044 335.2 2.3
348(11) 0.00894 335.2 2.3
320(10) 0.01103 335.1 2.2
329(9) 0.01120 335.0 2.2
323(10) 0.01105 335.0 2.1
342(10) 0.01010 334.9 2.1
311(10) 0.01017 334.9 2.1
331(10) 0.01018 334.8 2.0
345(10) 0.01054 334.8 2.0
330(10) 0.01097 334.7 2.0
332(10) 0.01013 334.6 1.9
353(10) 0.00914 334.6 1.9
330(10) 0.01066 334.5 1.9
324(9) 0.01148 334.5 1.8
332(10) 0.01082 334.4 1.8
327(10) 0.01008 334.3 1.8
319(10) 0.01028 334.3 1.7
342(10) 0.01013 334.2 1.7
321(9) 0.01147 334.2 1.7
330(10) 0.01103 334.1 1.7
341(10) 0.01030 334.1 1.6
319(9) 0.01118 334.0 1.6
331(10) 0.01056 333.9 1.6
330(9) 0.01130 333.9 1.6
320(10) 0.01102 333.8 1.5
329(10) 0.00999 333.8 1.5
347(10) 0.00979 333.7 1.5
359(10) 0.00989 333.7 1.5
338(10) 0.01084 333.6 1.4
327(10) 0.01054 333.5 1.4
329(10) 0.01020 333.5 1.4
336(10) 0.01006 333.4 1.4
318(10) 0.01096 333.4 1.4
310(9) 0.01206 333.3 1.3
371(10) 0.00923 333.2 1.3
366(10) 0.00919 333.2 1.3
355(10) 0.00961 333.1 1.3
332(9) 0.01110 333.1 1.3
321(9) 0.01149 333.0 1.3
344(10) 0.00985 333.0 1.2
337(10) 0.00970 332.9 1.2
339(10) 0.01031 332.8 1.2
323(9) 0.01151 332.8 1.2
336(9) 0.01124 332.7 1.2
339(10) 0.01012 332.7 1.2
329(10) 0.01007 332.6 1.2
338(10) 0.01053 332.6 1.1
344(10) 0.01084 332.5 1.1
353(10) 0.01059 332.4 1.1
330(10) 0.01059 332.4 1.1
318(10) 0.01019 332.3 1.5
353(10) 0.00986 332.3 1.5
343(10) 0.01078 332.2 1.5
312(9) 0.01179 332.1 1.5
348(10) 0.00986 332.1 1.5
320(10) 0.01012 332.0 1.5
353(10) 0.00933 332.0 1.5
347(10) 0.01071 331.9 1.5
340(10) 0.01076 331.9 1.5
355(10) 0.00966 331.8 1.5
314(10) 0.01062 331.7 1.5
313(9) 0.01126 331.7 1.5
312(9) 0.01192 331.6 1.5
336(10) 0.01104 331.6 1.5
345(10) 0.00995 331.5 1.5
313(10) 0.01098 331.5 1.5
347(10) 0.00938 331.4 1.5
323(9) 0.01164 331.3 1.5
342(10) 0.01049 331.3 1.4
325(10) 0.01069 331.4 1.4
347(10) 0.00963 331.4 1.4
319(9) 0.01110 331.5 1.4
321(9) 0.01167 331.5 1.4
340(10) 0.01008 331.6 1.4
323(10) 0.01072 331.6 1.4
327(10) 0.01079 331.6 1.4
328(10) 0.01067 331.7 1.4
316(9) 0.01186 331.7 1.4
332(10) 0.01056 331.8 1.4
344(10) 0.00971 331.8 1.4
338(10) 0.01018 331.9 1.4
339(10) 0.01072 331.9 1.4
337(10) 0.01104 332.0 1.4
318(10) 0.01070 332.0 1.4
327(10) 0.01036 332.0 1.4
352(10) 0.00952 332.1 1.4
328(9) 0.01111 332.1 1.4
348(10) 0.01063 332.2 1.4
325(10) 0.01049 332.2 1.4
336(10) 0.00958 332.3 1.4
325(10) 0.01049 332.3 1.4
321(9) 0.01159 332.4 1.4
323(9) 0.01154 332.4 1.5
318(10) 0.01096 332.4 1.5
343(10) 0.00983 332.5 1.5
331(10) 0.01084 332.5 1.5
325(9) 0.01141 332.6 1.5
326(9) 0.01144 332.6 1.5
360(10) 0.00950 332.7 1.5
355(11) 0.00859 332.7 1.5
328(10) 0.01065 332.8 2.0
354(10) 0.01054 332.8 2.1
343(10) 0.01054 332.8 2.1
323(10) 0.01089 332.9 2.1
342(10) 0.00950 332.9 2.1
324(10) 0.01069 333.0 2.1
329(9) 0.01132 333.0 2.1
337(10) 0.01065 333.1 2.2
336(10) 0.01032 333.1 2.2
318(10) 0.01063 333.2 2.2
321(9) 0.01122 333.2 2.2
333(9) 0.01133 333.2 2.2
346(10) 0.01034 333.3 2.3
347(10) 0.00991 333.3 2.3
336(10) 0.01007 333.4 2.3
370(10) 0.00909 333.4 2.3
328(9) 0.01132 333.5 2.4
342(10) 0.01086 333.5 2.4
332(10) 0.01033 333.6 2.4
332(10) 0.01004 333.6 2.4
348(10) 0.01013 333.6 2.5
354(10) 0.01051 333.7 2.5
317(9) 0.01137 333.7 2.5
336(10) 0.01006 333.8 2.6
348(10) 0.00972 333.8 2.6
336(10) 0.01060 333.9 2.6
347(10) 0.01079 333.9 2.7
331(10) 0.01081 333.9 2.7
329(10) 0.01031 334.0 2.7
351(10) 0.00973 334.0 2.8
332(10) 0.01104 334.1 2.8
321(9) 0.01154 334.1 2.9
351(10) 0.00990 334.2 2.9
340(10) 0.00987 334.2 3.0
331(10) 0.01074 334.3 3.0
341(10) 0.01054 334.3 3.1
348(10) 0.01071 334.3 3.2
341(10) 0.01036 334.4 3.2
347(10) 0.00969 334.4 3.3
363(10) 0.00936 334.5 3.4
326(9) 0.01125 334.5 3.4
344(10) 0.01076 334.6 3.5
348(10) 0.00987 334.6 3.6
354(10) 0.00936 334.7 3.7
329(10) 0.01074 334.7 3.8
364(10) 0.00997 334.7 3.9
356(10) 0.01044 334.8 4.1
334(10) 0.01014 334.8 4.2
340(10) 0.00959 334.9 4.3
331(10) 0.01088 334.9 4.5
346(10) 0.01065 335.0 4.6
343(10) 0.01084 335.0 4.8
328(10) 0.01040 335.1 5.0
343(10) 0.00939 335.1 5.2
339(10) 0.01043 335.1 5.4
355(10) 0.01041 335.2 5.6
311(9) 0.01201 335.2 5.9
358(10) 0.00937 335.3 6.1
355(10) 0.00922 335.3 6.3
337(10) 0.01059 335.4 6.6
351(10) 0.01066 335.4 6.8
327(10) 0.01094 335.5 7.0
322(10) 0.01069 335.5 7.2
345(10) 0.00927 335.5 7.3
343(10) 0.01010 335.6 7.4
344(10) 0.01083 335.6 7.5
342(10) 0.01067 335.7 7.5
348(10) 0.01031 335.7 7.5
347(10) 0.01004 335.8 7.5
373(10) 0.00923 335.8 7.5
358(10) 0.01035 335.9 7.4
341(10) 0.01057 335.9 7.4
339(10) 0.00970 335.9 7.4
338(10) 0.01004 336.0 7.4
327(10) 0.01067 336.0 7.4
321(9) 0.01163 336.1 7.4
332(10) 0.01068 336.1 7.4
335(10) 0.01009 336.2 7.5
325(10) 0.01067 336.2 7.6
331(10) 0.01054 336.3 7.7
358(10) 0.01034 336.3 7.8
357(10) 0.00967 336.3 7.9
325(10) 0.01047 336.4 8.1
331(10) 0.01036 336.4 8.3
340(10) 0.01100 336.5 8.5
318(9) 0.01166 336.5 8.7
358(10) 0.00943 336.6 8.9
313(9) 0.01114 336.6 9.2
345(10) 0.00981 336.7 9.5
328(9) 0.01120 336.7 9.8
347(10) 0.01075 336.7 10.2
370(10) 0.00938 336.8 10.6
372(11) 0.00871 336.8 11.0
362(10) 0.00945 336.9 11.5
365(10) 0.01013 336.9 12.0
340(10) 0.01099 337.0 12.5
353(10) 0.00942 337.0 13.1
333(10) 0.00995 337.1 13.8
356(10) 0.00994 337.1 14.5
358(10) 0.01020 337.1 15.3
322(9) 0.01154 337.2 16.2
348(10) 0.01002 337.2 17.2
364(11) 0.00893 337.3 18.3
348(10) 0.01023 337.3 19.5
355(10) 0.01037 337.4 21.0
345(10) 0.01079 337.4 22.6
377(10) 0.00920 337.5 24.3
364(11) 0.00881 337.5 26.3
348(10) 0.01007 337.5 28.6
370(10) 0.01006 337.6 31.2
373(10) 0.01005 337.6 34.2
409(11) 0.00843 337.7 37.8
394(11) 0.00865 337.7 42.1
405(11) 0.00849 337.8 47.2
386(10) 0.00961 337.8 53.5
416(11) 0.00878 337.9 61.5
442(11) 0.00785 337.9 72.3
498(13) 0.00633 337.9 87.5
472(12) 0.00729 338.0 110.4
554(12) 0.00673 338.0 145.7
572(13) 0.00628 338.1 199.8
626(14) 0.00542 338.1 280.2
696(14) 0.00482 338.2 392.9
814(15) 0.00423 338.2 540.2
1018(17) 0.00364 338.3 716.2
1199(18) 0.002949 338.3 901.5
1429(20) 0.002388 338.3 1059.4
1607(22) 0.002085 338.4 1138.5
1608(21) 0.002193 338.4 1105.0
1468(20) 0.002538 338.5 973.6
1116(18) 0.003071 338.5 794.6
892(16) 0.00380 338.6 612.0
710(14) 0.00489 338.6 452.3
616(13) 0.00583 338.7 325.8
541(12) 0.00680 338.7 233.3
499(12) 0.00677 338.7 169.9
481(12) 0.00702 338.8 128.4
429(11) 0.00812 338.8 101.7
433(11) 0.00834 338.9 84.4
403(10) 0.00928 338.9 72.8
419(11) 0.00805 339.0 64.5
425(11) 0.00773 339.0 58.3
398(11) 0.00872 339.1 53.6
404(11) 0.00903 339.1 49.8
370(10) 0.01008 339.1 46.9
361(10) 0.00962 339.2 44.5
388(11) 0.00842 339.2 42.7
352(10) 0.01016 339.3 41.3
383(10) 0.00954 339.3 40.3
372(10) 0.00989 339.4 39.7
370(10) 0.00946 339.4 39.4
372(11) 0.00901 339.5 39.3
364(10) 0.00979 339.5 39.5
372(10) 0.01001 339.5 40.0
381(10) 0.00962 339.6 40.7
389(11) 0.00899 339.6 41.7
379(11) 0.00875 339.7 43.0
387(10) 0.00907 339.7 44.6
382(10) 0.00963 339.8 46.4
385(10) 0.00952 339.8 48.6
379(10) 0.00912 339.9 51.3
366(10) 0.00925 339.9 54.3
410(11) 0.00802 339.9 57.9
376(10) 0.00996 340.0 62.1
403(10) 0.00908 340.0 67.1
393(11) 0.00883 340.1 73.0
402(11) 0.00855 340.1 80.2
412(11) 0.00860 340.2 88.8
410(11) 0.00906 340.2 99.4
398(10) 0.00911 340.3 112.4
458(11) 0.00760 340.3 128.4
488(12) 0.00686 340.3 148.0
481(12) 0.00716 340.4 172.0
532(12) 0.00697 340.4 201.0
567(13) 0.00632 340.5 235.9
597(13) 0.00571 340.5 277.0
633(14) 0.00528 340.6 324.8
693(14) 0.00516 340.6 378.8
789(15) 0.00470 340.6 438.3
826(15) 0.00419 340.7 501.3
910(16) 0.00373 340.7 563.9
993(17) 0.003500 340.8 620.4
1007(17) 0.00355 340.8 663.5
998(16) 0.00372 340.9 686.2
1030(17) 0.003412 340.9 684.0
956(17) 0.003482 341.0 657.4
862(16) 0.00409 341.0 611.4
763(14) 0.00480 341.0 553.4
801(15) 0.00460 341.1 490.6
745(15) 0.00451 341.1 428.2
666(14) 0.00497 341.2 369.7
624(13) 0.00555 341.2 316.9
593(13) 0.00613 341.3 270.6
557(12) 0.00666 341.3 231.0
547(13) 0.00633 341.4 197.5
497(12) 0.00677 341.4 169.9
483(12) 0.00734 341.4 147.2
471(11) 0.00788 341.5 129.0
469(11) 0.00785 341.5 114.4
455(11) 0.00759 341.6 102.9
482(12) 0.00654 341.6 94.0
439(11) 0.00782 341.7 87.4
434(11) 0.00848 341.7 83.0
417(11) 0.00886 341.8 81.4
423(11) 0.00800 341.8 83.5
474(12) 0.00674 341.8 91.7
447(11) 0.00813 341.9 109.4
468(11) 0.00799 341.9 140.3
526(12) 0.00678 342.0 187.2
601(13) 0.00586 342.0 249.2
671(14) 0.00486 342.1 318.9
789(15) 0.00430 342.1 381.0
881(15) 0.00422 342.2 412.3
835(15) 0.00435 342.2 396.4
726(15) 0.00464 342.2 340.6
617(14) 0.00546 342.3 267.9
563(13) 0.00617 342.3 197.3
517(12) 0.00719 342.4 139.5
448(11) 0.00813 342.4 97.6
415(11) 0.00817 342.5 70.0
411(11) 0.00822 342.5 53.1
414(11) 0.00847 342.6 42.9
385(10) 0.00965 342.6 36.7
385(10) 0.00936 342.6 32.5
379(11) 0.00904 342.7 29.4
378(11) 0.00906 342.7 27.0
357(10) 0.01003 342.8 25.0
363(10) 0.01022 342.8 23.3
363(10) 0.00989 342.9 21.8
373(11) 0.00891 342.9 20.6
351(10) 0.00964 343.0 19.4
353(10) 0.01000 343.0 18.4
363(10) 0.01020 343.0 17.6
354(10) 0.00972 343.1 16.8
365(10) 0.00937 343.1 16.0
377(10) 0.00907 343.2 15.4
349(10) 0.01036 343.2 14.8
364(10) 0.01022 343.3 14.2
366(10) 0.00924 343.3 13.7
349(10) 0.00950 343.4 13.3
350(10) 0.01001 343.4 12.9
353(10) 0.01019 343.4 12.5
365(10) 0.01016 343.5 12.1
371(10) 0.00942 343.5 11.8
369(11) 0.00877 343.6 11.5
358(10) 0.00945 343.6 11.2
321(9) 0.01127 343.7 10.9
347(10) 0.01073 343.7 10.6
362(10) 0.00937 343.8 10.4
320(10) 0.01037 343.8 10.2
358(10) 0.00950 343.8 10.0
362(10) 0.01022 343.9 9.8
343(10) 0.01063 343.9 9.6
342(10) 0.01035 344.0 9.5
336(10) 0.00994 344.0 9.3
342(10) 0.01048 344.1 9.2
361(10) 0.01031 344.1 9.0
350(10) 0.01051 344.2 8.9
350(10) 0.01047 344.2 8.8
368(11) 0.00883 344.2 8.7
346(10) 0.01036 344.3 8.6
346(10) 0.01091 344.3 8.5
357(10) 0.01015 344.4 8.5
344(10) 0.00951 344.4 8.4
350(10) 0.00923 344.5 8.3
360(10) 0.00925 344.5 8.3
334(9) 0.01115 344.6 8.2
367(10) 0.00978 344.6 8.2
359(10) 0.00948 344.6 8.1
384(11) 0.00877 344.7 8.1
363(10) 0.00967 344.7 8.1
369(10) 0.01006 344.8 8.1
338(10) 0.01089 344.8 8.1
360(10) 0.00930 344.9 8.1
332(10) 0.01001 344.9 8.1
356(10) 0.00974 345.0 8.1
376(10) 0.00989 345.0 8.1
344(10) 0.00979 345.0 8.1
360(10) 0.00928 345.1 8.1
341(10) 0.01009 345.1 8.2
347(10) 0.01006 345.2 8.2
368(10) 0.01013 345.2 8.3
358(10) 0.00976 345.3 8.3
343(10) 0.01005 345.3 8.4
367(10) 0.00961 345.4 8.4
347(10) 0.01062 345.4 8.5
355(10) 0.01047 345.4 8.6
339(10) 0.01033 345.5 8.7
346(10) 0.00961 345.5 8.8
384(11) 0.00898 345.6 8.9
355(10) 0.01032 345.6 9.1
365(10) 0.01012 345.7 9.2
333(10) 0.01074 345.7 9.3
333(10) 0.01002 345.7 9.5
348(10) 0.00994 345.8 9.7
355(10) 0.01027 345.8 9.8
365(10) 0.01019 345.8 10.0
316(9) 0.01133 345.8 10.2
347(11) 0.00894 345.9 10.4
316(10) 0.01108 345.9 10.7
348(10) 0.01074 345.9 10.9
371(10) 0.01001 345.9 11.2
348(10) 0.01004 346.0 11.5
352(10) 0.00922 346.0 11.8
335(10) 0.01075 346.0 12.1
355(10) 0.01034 346.0 12.4
359(10) 0.01028 346.0 12.7
371(10) 0.00920 346.1 13.1
335(10) 0.00996 346.1 13.5
372(10) 0.00936 346.1 13.9
359(10) 0.01032 346.1 14.4
394(10) 0.00919 346.2 14.8
344(10) 0.01028 346.2 15.3
330(10) 0.01032 346.2 15.8
363(10) 0.00946 346.2 16.3
321(9) 0.01171 346.3 16.9
354(10) 0.01011 346.3 17.5
377(10) 0.00940 346.3 18.1
395(11) 0.00859 346.3 18.7
386(10) 0.00923 346.4 19.4
367(10) 0.01004 346.4 20.1
380(10) 0.00950 346.4 20.9
359(10) 0.00968 346.4 21.6
378(11) 0.00899 346.5 22.4
363(10) 0.00979 346.5 23.2
362(10) 0.01027 346.5 24.1
380(10) 0.00937 346.5 24.9
386(11) 0.00882 346.5 25.8
391(11) 0.00882 346.6 26.8
374(10) 0.00956 346.6 27.7
382(10) 0.00977 346.6 28.7
354(10) 0.00996 346.6 29.6
362(10) 0.00937 346.7 30.6
359(10) 0.00967 346.7 31.6
370(10) 0.00958 346.7 32.7
372(10) 0.01011 346.7 33.7
365(10) 0.00948 346.8 34.7
345(10) 0.01013 346.8 35.7
383(10) 0.00910 346.8 36.7
394(10) 0.00913 346.8 37.7
385(10) 0.00970 346.9 38.6
384(11) 0.00878 346.9 39.6
372(10) 0.00908 346.9 40.6
395(11) 0.00874 346.9 42.1
376(10) 0.00987 346.9 43.0
382(10) 0.00978 347.0 44.1
384(11) 0.00895 347.0 45.1
371(11) 0.00873 347.0 46.2
393(11) 0.00874 347.0 47.4
377(10) 0.00961 347.1 48.8
375(10) 0.00985 347.1 50.8
361(10) 0.00950 347.1 52.5
385(11) 0.00830 347.1 54.4
392(10) 0.00917 347.2 56.6
394(10) 0.00936 347.2 59.1
376(10) 0.00981 347.2 61.9
386(11) 0.00857 347.2 65.0
385(11) 0.00849 347.3 68.3
413(11) 0.00853 347.3 72.2
393(10) 0.00943 347.3 76.0
426(11) 0.00861 347.3 79.8
419(11) 0.00862 347.4 83.3
431(11) 0.00771 347.4 86.2
423(11) 0.00800 347.4 88.4
425(11) 0.00884 347.4 89.4
431(11) 0.00852 347.4 89.1
427(11) 0.00800 347.5 87.6
442(11) 0.00780 347.5 84.9
467(12) 0.00722 347.5 81.3
416(11) 0.00901 347.5 77.2
419(11) 0.00848 347.6 72.8
423(11) 0.00814 347.6 68.4
420(11) 0.00822 347.6 64.2
411(11) 0.00855 347.6 60.4
416(11) 0.00888 347.7 56.9
379(10) 0.00952 347.7 53.8
377(11) 0.00900 347.7 51.1
394(11) 0.00881 347.7 48.9
396(10) 0.00928 347.8 47.2
390(10) 0.00955 347.8 45.8
400(11) 0.00889 347.8 44.8
406(11) 0.00833 347.8 44.2
398(11) 0.00878 347.8 44.1
386(10) 0.00933 347.9 44.3
406(10) 0.00916 347.9 44.9
416(11) 0.00842 347.9 45.9
392(11) 0.00853 347.9 47.4
385(11) 0.00887 348.0 49.4
398(10) 0.00920 348.0 51.9
413(11) 0.00905 348.0 55.1
415(11) 0.00808 348.0 59.0
441(12) 0.00743 348.1 63.7
435(12) 0.00749 348.1 69.3
411(11) 0.00875 348.1 75.9
428(11) 0.00861 348.1 83.7
457(12) 0.00754 348.2 92.7
451(12) 0.00750 348.2 103.0
475(12) 0.00718 348.2 114.7
456(11) 0.00791 348.2 127.7
482(11) 0.00769 348.2 142.1
530(12) 0.00645 348.3 157.6
517(13) 0.00618 348.3 173.8
550(13) 0.00602 348.3 190.2
558(12) 0.00666 348.3 206.0
592(13) 0.00625 348.4 220.1
606(13) 0.00573 348.4 231.2
587(14) 0.00542 348.4 238.2
604(13) 0.00575 348.4 240.1
608(13) 0.00616 348.5 236.7
626(13) 0.00591 348.5 228.4
577(13) 0.00627 348.5 216.2
577(13) 0.00578 348.5 201.4
594(13) 0.00569 348.6 185.1
547(12) 0.00674 348.6 168.4
503(12) 0.00720 348.6 152.0
484(12) 0.00702 348.6 136.5
467(12) 0.00704 348.7 122.1
439(11) 0.00780 348.7 109.1
418(11) 0.00895 348.7 97.4
420(11) 0.00862 348.7 87.1
421(11) 0.00818 348.7 78.0
402(11) 0.00825 348.8 70.2
419(11) 0.00812 348.8 63.4
421(11) 0.00883 348.8 57.5
397(11) 0.00867 348.8 52.6
374(10) 0.00923 348.9 48.3
388(11) 0.00884 348.9 44.7
408(11) 0.00857 348.9 41.7
391(10) 0.00961 348.9 39.1
392(11) 0.00868 349.0 36.9
371(10) 0.00924 349.0 35.0
370(10) 0.00929 349.0 33.4
390(10) 0.00915 349.0 32.1
349(10) 0.01059 349.1 31.0
369(10) 0.00930 349.1 30.0
369(10) 0.00909 349.1 29.3
365(10) 0.00952 349.1 28.7
389(10) 0.00946 349.1 28.2
381(10) 0.00960 349.2 27.9
391(11) 0.00877 349.2 27.7
374(11) 0.00890 349.2 27.6
410(11) 0.00830 349.2 27.7
391(10) 0.00948 349.3 27.9
393(10) 0.00938 349.3 28.2
376(11) 0.00906 349.3 28.7
374(11) 0.00874 349.3 29.4
387(11) 0.00901 349.4 30.3
364(10) 0.01041 349.4 31.4
395(10) 0.00924 349.4 32.7
367(10) 0.00970 349.4 34.4
407(11) 0.00776 349.5 36.5
379(10) 0.00935 349.5 39.2
358(10) 0.01021 349.5 42.6
380(10) 0.00971 349.5 47.1
399(11) 0.00900 349.6 52.9
420(11) 0.00778 349.6 60.2
410(11) 0.00867 349.6 69.4
404(10) 0.00916 349.6 80.7
415(11) 0.00877 349.6 94.8
455(11) 0.00766 349.7 112.0
480(12) 0.00685 349.7 135.1
563(13) 0.00595 349.7 167.6
584(13) 0.00640 349.7 213.0
615(13) 0.00583 349.8 273.8
676(14) 0.00525 349.8 350.9
865(16) 0.00386 349.8 441.9
1048(17) 0.003340 349.8 540.1
1211(18) 0.003051 349.9 631.3
1300(19) 0.002816 349.9 694.7
1352(20) 0.002529 349.9 709.4
1204(19) 0.002785 349.9 669.7
1053(17) 0.003289 350.0 589.8
907(16) 0.00411 350.0 492.5
813(15) 0.00434 350.0 395.5
776(15) 0.00435 350.0 309.0
650(14) 0.00530 350.0 237.4
619(13) 0.00550 350.1 181.4
574(12) 0.00645 350.1 139.7
509(12) 0.00690 350.1 109.6
490(12) 0.00709 350.1 88.3
471(12) 0.00728 350.2 73.3
461(11) 0.00774 350.2 62.6
435(11) 0.00855 350.2 54.8
434(11) 0.00806 350.2 48.8
410(11) 0.00820 350.3 44.1
443(11) 0.00764 350.3 40.3
400(10) 0.00911 350.3 37.1
387(10) 0.00971 350.3 34.5
414(11) 0.00825 350.4 32.2
408(11) 0.00825 350.4 30.3
402(11) 0.00849 350.4 28.7
379(10) 0.00953 350.4 27.3
396(10) 0.00934 350.4 26.1
398(11) 0.00880 350.5 25.1
402(11) 0.00806 350.5 24.3
362(10) 0.00973 350.5 23.6
370(10) 0.01011 350.5 23.0
394(10) 0.00946 350.6 22.5
409(11) 0.00842 350.6 22.1
382(11) 0.00899 350.6 21.8
377(10) 0.00943 350.6 21.6
374(10) 0.00997 350.7 21.5
397(10) 0.00915 350.7 21.5
373(10) 0.00958 350.7 21.5
365(11) 0.00878 350.7 21.6
377(10) 0.00927 350.8 21.8
390(10) 0.00966 350.8 22.2
382(10) 0.00962 350.8 22.6
375(10) 0.00923 350.8 23.0
388(11) 0.00821 350.9 23.6
389(11) 0.00893 350.9 24.4
404(10) 0.00911 350.9 25.2
391(10) 0.00955 350.9 26.2
402(11) 0.00882 350.9 27.4
399(11) 0.00841 351.0 28.7
388(11) 0.00863 351.0 30.3
390(10) 0.00945 351.0 32.1
433(11) 0.00832 351.0 34.3
405(11) 0.00851 351.1 36.9
407(11) 0.00811 351.1 40.0
422(11) 0.00815 351.1 43.8
435(11) 0.00854 351.1 48.5
425(11) 0.00828 351.2 54.6
457(11) 0.00757 351.2 62.4
450(11) 0.00775 351.2 72.6
479(12) 0.00718 351.2 85.9
492(12) 0.00750 351.3 103.1
519(12) 0.00677 351.3 125.0
509(12) 0.00683 351.3 152.4
578(13) 0.00585 351.3 185.7
601(13) 0.00577 351.3 224.8
639(13) 0.00582 351.4 269.0
699(14) 0.00506 351.4 315.9
804(15) 0.00418 351.4 361.3
850(16) 0.00408 351.4 398.7
911(16) 0.00398 351.5 420.2
913(16) 0.00407 351.5 420.3
916(16) 0.00371 351.5 398.9
822(16) 0.00406 351.5 361.8
704(14) 0.00500 351.6 316.5
612(13) 0.00596 351.6 269.7
564(12) 0.00657 351.6 225.7
531(12) 0.00653 351.6 186.7
489(12) 0.00668 351.7 153.6
444(11) 0.00798 351.7 126.4
459(11) 0.00805 351.7 104.7
431(11) 0.00865 351.7 87.7
386(10) 0.00923 351.8 74.7
423(11) 0.00791 351.8 64.7
419(11) 0.00835 351.8 57.1
404(11) 0.00906 351.8 51.4
403(10) 0.00924 351.8 46.9
399(11) 0.00865 351.9 43.4
379(11) 0.00838 351.9 40.7
369(10) 0.00950 351.9 38.5
393(10) 0.00949 351.9 36.8
377(10) 0.00969 352.0 35.4
404(11) 0.00875 352.0 34.4
383(11) 0.00848 352.0 33.7
393(11) 0.00836 352.0 33.2
389(10) 0.00937 352.1 32.9
394(10) 0.00916 352.1 32.9
379(10) 0.00953 352.1 33.1
368(10) 0.00912 352.1 33.6
365(10) 0.00938 352.2 34.4
369(10) 0.01000 352.2 35.4
371(10) 0.01003 352.2 36.7
385(10) 0.00919 352.2 38.4
418(11) 0.00792 352.2 40.5
409(11) 0.00845 352.3 43.2
385(10) 0.00960 352.3 46.6
389(10) 0.00942 352.3 51.0
376(10) 0.00918 352.3 56.9
393(11) 0.00865 352.4 64.8
429(11) 0.00779 352.4 76.0
453(11) 0.00819 352.4 91.6
464(12) 0.00746 352.4 113.6
490(12) 0.00706 352.5 143.7
471(12) 0.00730 352.5 183.7
554(13) 0.00615 352.5 234.9
623(13) 0.00599 352.5 296.6
688(14) 0.00501 352.6 366.4
780(15) 0.00440 352.6 437.2
879(16) 0.00384 352.6 497.1
861(15) 0.00417 352.6 529.9
878(15) 0.00421 352.6 524.0
799(15) 0.00443 352.7 481.6
715(14) 0.00480 352.7 416.9
662(14) 0.00516 352.7 345.2
603(13) 0.00604 352.7 277.0
583(13) 0.00636 352.8 218.0
574(13) 0.00600 352.8 169.9
502(12) 0.00669 352.8 132.6
489(12) 0.00724 352.8 104.8
456(11) 0.00797 352.9 84.6
434(11) 0.00854 352.9 70.1
435(11) 0.00793 352.9 59.7
395(11) 0.00822 352.9 52.1
400(11) 0.00852 353.0 46.5
396(10) 0.00934 353.0 42.0
401(10) 0.00944 353.0 38.5
398(11) 0.00867 353.0 35.6
375(11) 0.00876 353.1 33.2
360(10) 0.00964 353.1 31.1
348(10) 0.01066 353.1 29.4
381(10) 0.00973 353.1 28.0
343(10) 0.01014 353.1 26.7
368(11) 0.00902 353.2 25.7
380(10) 0.00912 353.2 24.9
373(10) 0.00995 353.2 24.2
382(10) 0.00973 353.2 23.8
360(10) 0.00996 353.3 23.5
354(10) 0.00963 353.3 23.4
391(11) 0.00904 353.3 23.6
396(10) 0.00940 353.3 24.4
392(10) 0.00943 353.4 25.8
391(11) 0.00888 353.4 28.5
362(10) 0.00943 353.4 32.9
391(11) 0.00890 353.4 39.4
393(10) 0.00951 353.5 48.3
429(11) 0.00847 353.5 59.3
417(11) 0.00836 353.5 71.3
451(12) 0.00728 353.5 81.9
463(12) 0.00738 353.5 87.8
454(11) 0.00820 353.6 86.2
446(11) 0.00809 353.6 77.8
455(12) 0.00744 353.6 66.0
427(11) 0.00772 353.6 53.9
414(11) 0.00844 353.7 43.3
376(10) 0.00990 353.7 34.9
396(10) 0.00910 353.7 28.9
390(11) 0.00878 353.7 24.8
376(11) 0.00900 353.8 22.2
363(10) 0.00985 353.8 20.5
365(10) 0.01021 353.8 19.5
377(10) 0.00917 353.8 18.8
390(11) 0.00848 353.9 18.4
371(10) 0.00928 353.9 18.0
392(11) 0.00891 353.9 17.8
362(10) 0.01028 353.9 17.7
370(11) 0.00901 354.0 17.6
376(11) 0.00905 354.0 17.5
371(10) 0.00941 354.0 17.5
379(10) 0.00942 354.0 17.5
371(10) 0.01001 354.0 17.6
364(10) 0.00962 354.1 17.7
339(10) 0.00985 354.1 17.8
382(10) 0.00914 354.1 18.0
352(10) 0.01052 354.1 18.1
366(10) 0.01016 354.2 18.3
389(11) 0.00890 354.2 18.5
355(10) 0.00972 354.2 18.8
375(10) 0.00942 354.2 19.1
353(10) 0.01053 354.3 19.3
353(10) 0.01057 354.3 19.6
377(10) 0.00921 354.3 20.0
409(11) 0.00776 354.3 20.3
392(10) 0.00914 354.4 20.7
391(10) 0.00950 354.4 21.1
355(10) 0.01027 354.4 21.5
363(10) 0.00970 354.3 22.0
349(10) 0.00930 354.3 22.5
341(10) 0.00982 354.3 23.0
381(10) 0.00985 354.3 23.5
363(10) 0.01005 354.2 24.1
384(11) 0.00894 354.2 24.7
346(10) 0.00959 354.2 25.3
355(10) 0.00975 354.1 26.0
372(10) 0.01000 354.1 26.7
386(10) 0.00940 354.1 27.5
365(10) 0.00948 354.1 28.3
396(11) 0.00838 354.0 29.1
368(10) 0.00941 354.0 30.0
385(10) 0.00963 354.0 30.9
402(11) 0.00879 354.0 31.9
364(10) 0.00958 353.9 33.0
372(11) 0.00881 353.9 34.1
363(10) 0.00968 353.9 35.3
398(10) 0.00937 353.9 36.6
374(10) 0.00948 353.8 37.9
403(11) 0.00866 353.8 39.4
386(11) 0.00876 353.8 40.9
398(11) 0.00869 353.8 42.5
410(10) 0.00917 353.7 44.3
391(11) 0.00899 353.7 46.1
371(10) 0.00931 353.7 48.2
416(11) 0.00801 353.6 50.3
380(10) 0.00943 353.6 52.6
378(10) 0.00964 353.6 55.1
418(11) 0.00812 353.6 57.9
423(11) 0.00803 353.5 60.8
424(11) 0.00798 353.5 64.0
398(10) 0.00912 353.5 67.5
448(11) 0.00830 353.5 71.3
431(11) 0.00793 353.4 75.6
410(11) 0.00801 353.4 80.2
439(11) 0.00799 353.4 85.4
397(10) 0.00955 353.4 91.1
409(11) 0.00904 353.3 97.4
424(11) 0.00833 353.3 104.5
428(11) 0.00778 353.3 112.5
445(11) 0.00778 353.3 121.3
458(11) 0.00809 353.2 131.3
460(11) 0.00803 353.2 142.4
482(12) 0.00719 353.2 154.8
459(12) 0.00722 353.1 168.7
490(12) 0.00729 353.1 184.3
502(12) 0.00732 353.1 201.5
582(13) 0.00633 353.1 220.6
526(12) 0.00658 353.0 241.7
556(13) 0.00576 353.0 264.9
610(13) 0.00570 353.0 290.3
661(13) 0.00564 353.0 317.9
673(14) 0.00539 352.9 347.6
728(14) 0.00477 352.9 379.4
713(15) 0.00466 352.9 412.9
783(15) 0.00433 352.9 447.9
821(15) 0.00456 352.8 483.5
912(16) 0.00404 352.8 519.1
928(16) 0.00379 352.8 553.4
970(17) 0.003437 352.8 585.1
960(17) 0.00354 352.7 612.7
1017(17) 0.00367 352.7 634.5
1013(17) 0.00362 352.7 649.1
993(17) 0.003496 352.7 655.6
959(17) 0.003492 352.6 653.4
947(17) 0.00364 352.6 642.6
905(16) 0.00414 352.6 624.2
898(16) 0.00391 352.5 599.4
899(16) 0.00383 352.5 569.6
792(15) 0.00436 352.5 536.6
826(15) 0.00424 352.5 501.7
771(14) 0.00481 352.4 466.4
729(14) 0.00487 352.4 431.4
713(15) 0.00475 352.4 397.4
676(14) 0.00518 352.4 365.2
687(14) 0.00523 352.3 334.9
642(13) 0.00579 352.3 306.7
624(13) 0.00551 352.3 280.7
635(14) 0.00517 352.3 256.9
565(13) 0.00635 352.2 235.3
566(12) 0.00655 352.2 215.7
564(12) 0.00661 352.2 198.1
532(12) 0.00657 352.2 182.4
541(13) 0.00599 352.1 168.3
523(12) 0.00666 352.1 155.8
512(12) 0.00725 352.1 144.6
513(12) 0.00724 352.0 134.8
482(12) 0.00720 352.0 126.2
502(12) 0.00655 352.0 118.6
505(12) 0.00700 352.0 111.9
500(12) 0.00726 351.9 106.1
462(11) 0.00798 351.9 101.1
444(11) 0.00788 351.9 96.7
471(12) 0.00683 351.9 93.1
462(11) 0.00775 351.8 90.0
445(11) 0.00826 351.8 87.5
480(11) 0.00767 351.8 85.7
448(11) 0.00769 351.8 84.4
438(12) 0.00739 351.7 83.8
471(12) 0.00730 351.7 83.9
462(11) 0.00809 351.7 84.7
448(11) 0.00821 351.7 86.3
445(11) 0.00798 351.6 88.7
480(12) 0.00689 351.6 91.9
493(12) 0.00696 351.6 95.8
476(11) 0.00780 351.5 100.4
438(11) 0.00835 351.5 105.3
463(12) 0.00754 351.5 110.1
505(12) 0.00650 351.5 114.2
478(12) 0.00704 351.4 116.9
483(11) 0.00775 351.4 117.7
465(11) 0.00775 351.4 116.4
488(12) 0.00704 351.4 113.5
442(11) 0.00769 351.3 109.7
429(11) 0.00809 351.3 105.7
465(11) 0.00793 351.3 102.1
451(11) 0.00798 351.3 99.2
455(11) 0.00784 351.2 97.2
468(12) 0.00752 351.2 96.3
448(11) 0.00770 351.2 96.6
437(11) 0.00857 351.2 97.9
472(12) 0.00741 351.1 100.4
457(12) 0.00750 351.1 104.0
451(12) 0.00754 351.1 108.7
489(12) 0.00716 351.0 114.3
457(11) 0.00815 351.0 121.0
473(12) 0.00732 351.0 128.2
463(12) 0.00732 351.0 135.8
501(12) 0.00683 350.9 143.5
508(12) 0.00707 350.9 150.6
504(12) 0.00743 350.9 156.5
502(12) 0.00694 350.9 160.4
529(13) 0.00632 350.8 161.7
485(12) 0.00723 350.8 160.1
468(11) 0.00796 350.8 155.8
463(11) 0.00804 350.8 149.2
438(11) 0.00794 350.7 141.0
465(12) 0.00695 350.7 132.0
448(11) 0.00783 350.7 122.8
465(11) 0.00789 350.7 113.7
450(11) 0.00820 350.6 105.2
459(12) 0.00737 350.6 97.3
435(12) 0.00737 350.6 90.2
448(11) 0.00774 350.5 83.7
421(11) 0.00870 350.5 78.0
437(11) 0.00844 350.5 73.0
440(11) 0.00811 350.5 68.5
433(12) 0.00756 350.4 64.5
415(11) 0.00846 350.4 61.0
406(10) 0.00917 350.4 57.8
410(11) 0.00891 350.4 54.9
408(11) 0.00866 350.3 52.3
420(11) 0.00782 350.3 49.9
406(11) 0.00862 350.3 47.6
414(11) 0.00890 350.3 45.5
389(10) 0.00951 350.2 43.5
384(10) 0.00914 350.2 41.6
407(11) 0.00808 350.2 39.8
405(11) 0.00858 350.2 38.0
416(11) 0.00894 350.1 36.4
381(10) 0.00951 350.1 34.8
390(11) 0.00869 350.1 33.3
402(11) 0.00837 350.1 31.9
406(11) 0.00853 350.0 30.6
395(10) 0.00939 350.0 29.3
399(11) 0.00892 350.0 28.2
379(10) 0.00923 349.9 27.0
392(11) 0.00859 349.9 26.0
360(10) 0.01007 349.9 25.0
381(10) 0.00966 349.9 24.1
373(10) 0.00965 349.8 23.2
381(11) 0.00886 349.8 22.4
391(11) 0.00854 349.8 21.6
398(11) 0.00870 349.8 20.8
384(10) 0.00970 349.7 20.2
368(10) 0.00943 349.7 19.5
362(10) 0.00947 349.7 18.9
393(11) 0.00873 349.7 18.4
376(10) 0.00941 349.6 17.8
347(10) 0.01073 349.6 17.3
381(11) 0.00890 349.6 16.9
375(11) 0.00898 349.6 16.5
383(10) 0.00916 349.5 16.0
394(11) 0.00905 349.5 15.7
369(10) 0.01004 349.5 15.3
365(10) 0.00956 349.4 15.0
394(11) 0.00832 349.4 14.7
376(10) 0.00940 349.4 14.4
380(10) 0.00972 349.4 14.1
385(10) 0.00963 349.3 13.9
387(11) 0.00900 349.3 13.6
364(11) 0.00904 349.3 13.4
356(10) 0.00975 349.3 13.2
349(10) 0.01047 349.2 13.0
349(10) 0.01060 349.2 12.8
365(10) 0.00949 349.2 12.6
369(11) 0.00866 349.2 12.5
356(10) 0.00955 349.1 12.4
345(10) 0.01079 349.1 12.2
351(10) 0.01060 349.1 12.1
343(10) 0.01048 349.1 12.0
352(10) 0.00940 349.0 11.9
352(10) 0.00988 349.0 11.8
357(10) 0.01037 349.0 11.8
345(10) 0.01079 348.9 11.7
359(10) 0.00989 348.9 11.7
355(10) 0.00932 348.9 11.6
338(10) 0.00984 348.9 11.6
357(10) 0.01049 348.8 11.6
383(10) 0.00958 348.8 11.6
380(10) 0.00928 348.8 11.6
360(10) 0.00925 348.8 11.6
345(10) 0.00996 348.7 11.7
330(9) 0.01128 348.7 11.7
347(10) 0.01042 348.7 11.8
370(10) 0.00908 348.7 11.9
379(11) 0.00873 348.6 12.0
368(10) 0.00917 348.6 12.1
353(10) 0.01058 348.6 12.2
366(10) 0.00964 348.6 12.4
370(11) 0.00892 348.5 12.6
356(10) 0.00983 348.5 12.8
359(10) 0.01004 348.5 13.0
375(10) 0.00987 348.4 13.3
362(10) 0.00964 348.4 13.6
370(10) 0.00927 348.4 14.0
371(10) 0.00958 348.4 14.4
387(11) 0.00904 348.3 14.8
367(10) 0.01016 348.3 15.3
360(10) 0.00956 348.3 15.9
355(10) 0.00945 348.3 16.5
374(10) 0.00927 348.2 17.3
354(10) 0.01044 348.2 18.1
386(10) 0.00966 348.2 19.1
366(10) 0.00967 348.2 20.1
414(11) 0.00782 348.1 21.4
400(11) 0.00850 348.1 22.8
367(10) 0.01001 348.1 24.4
382(10) 0.00978 348.1 26.2
394(11) 0.00869 348.0 28.2
396(11) 0.00801 348.0 30.5
420(11) 0.00812 348.0 33.0
375(10) 0.00971 347.9 35.8
417(11) 0.00890 347.9 38.9
400(11) 0.00890 347.9 42.3
417(11) 0.00798 347.9 46.1
431(11) 0.00800 347.8 50.1
392(10) 0.00952 347.8 54.3
408(11) 0.00904 347.8 58.8
454(11) 0.00776 347.8 63.3
443(12) 0.00743 347.7 67.9
451(12) 0.00736 347.7 72.2
447(11) 0.00818 347.7 76.2
429(11) 0.00862 347.7 79.5
426(11) 0.00829 347.6 82.1
455(12) 0.00720 347.6 83.6
464(11) 0.00758 347.6 83.9
463(11) 0.00805 347.6 83.1
484(12) 0.00743 347.5 81.1
440(11) 0.00796 347.5 78.2
452(12) 0.00728 347.5 74.5
450(11) 0.00764 347.4 70.4
448(11) 0.00833 347.4 66.0
434(11) 0.00831 347.4 61.4
418(11) 0.00838 347.4 56.9
410(11) 0.00808 347.3 52.5
400(11) 0.00836 347.3 48.3
391(10) 0.00946 347.3 44.4
389(11) 0.00902 347.3 40.8
379(10) 0.00921 347.2 37.6
385(11) 0.00900 347.2 34.6
386(11) 0.00904 347.2 31.9
340(10) 0.01095 347.2 29.4
387(11) 0.00891 347.1 27.3
359(10) 0.00928 347.1 25.4
365(10) 0.00933 347.1 23.7
355(10) 0.01017 347.1 22.2
380(10) 0.00984 347.0 20.9
381(11) 0.00896 347.0 19.7
353(10) 0.00955 347.0 18.7
374(11) 0.00900 347.0 17.8
353(10) 0.01034 346.9 17.1
348(10) 0.01075 346.9 16.4
365(10) 0.00952 346.9 15.8
365(10) 0.00909 346.8 15.3
374(10) 0.00928 346.8 14.9
385(10) 0.00967 346.8 14.5
368(10) 0.01002 346.8 14.2
369(10) 0.00912 346.7 14.0
352(10) 0.00932 346.7 13.8
363(10) 0.00942 346.7 13.6
358(10) 0.01050 346.7 13.5
377(10) 0.00987 346.6 13.4
386(11) 0.00886 346.6 13.3
366(11) 0.00887 346.6 13.3
353(10) 0.00988 346.6 13.4
362(10) 0.01019 346.5 13.4
348(10) 0.01039 346.5 13.6
368(10) 0.00935 346.5 13.7
334(10) 0.00960 346.5 13.9
349(10) 0.00996 346.4 14.2
349(10) 0.01071 346.4 14.5
336(10) 0.01083 346.4 14.8
343(10) 0.01006 346.3 15.3
338(10) 0.00989 346.3 15.8
372(10) 0.00949 346.3 16.3
372(10) 0.00998 346.3 17.0
398(11) 0.00901 346.2 17.7
376(10) 0.00928 346.2 18.6
370(11) 0.00888 346.2 19.5
353(10) 0.00976 346.2 20.5
373(10) 0.00990 346.1 21.7
391(10) 0.00917 346.1 22.9
360(10) 0.00964 346.1 24.3
371(10) 0.00912 346.1 25.8
388(11) 0.00901 346.0 27.4
382(10) 0.00967 346.0 29.2
390(10) 0.00949 346.0 31.1
378(11) 0.00900 346.0 33.1
411(11) 0.00819 345.9 35.1
406(11) 0.00877 345.9 37.3
396(10) 0.00933 345.9 39.4
373(10) 0.00969 345.8 41.6
407(11) 0.00835 345.8 43.7
413(11) 0.00832 345.8 45.6
380(10) 0.00957 345.8 47.3
399(10) 0.00939 345.7 48.7
376(10) 0.00947 345.7 49.7
402(11) 0.00852 345.7 50.4
423(11) 0.00789 345.7 50.6
402(11) 0.00883 345.6 50.4
415(11) 0.00897 345.6 49.8
385(11) 0.00893 345.6 49.0
414(11) 0.00774 345.6 47.8
387(11) 0.00882 345.5 46.6
383(10) 0.00942 345.5 45.2
380(10) 0.00974 345.5 43.9
359(10) 0.01004 345.5 42.7
413(11) 0.00767 345.4 41.6
386(11) 0.00885 345.4 40.7
368(10) 0.00982 345.4 40.1
380(10) 0.00975 345.3 39.9
375(10) 0.00910 345.3 40.1
370(11) 0.00900 345.3 40.7
415(11) 0.00849 345.3 41.9
363(10) 0.01028 345.2 43.8
396(10) 0.00918 345.2 46.5
406(11) 0.00864 345.2 50.1
386(11) 0.00848 345.2 54.9
421(11) 0.00798 345.1 60.6
387(10) 0.00964 345.1 67.5
416(11) 0.00892 345.1 75.6
447(11) 0.00767 345.1 84.9
422(11) 0.00797 345.0 95.2
439(11) 0.00789 345.0 106.1
478(11) 0.00774 345.0 117.1
464(11) 0.00786 345.0 127.1
459(11) 0.00759 344.9 135.0
461(12) 0.00749 344.9 139.5
476(12) 0.00721 344.9 139.8
438(11) 0.00846 344.8 135.8
436(11) 0.00831 344.8 128.1
401(11) 0.00881 344.8 118.0
410(11) 0.00833 344.8 106.6
442(11) 0.00757 344.7 95.0
390(10) 0.00943 344.7 83.9
385(10) 0.00910 344.7 73.7
423(11) 0.00810 344.7 64.7
415(11) 0.00835 344.6 56.8
423(11) 0.00837 344.6 50.0
395(10) 0.00945 344.6 44.4
396(11) 0.00899 344.6 39.7
381(11) 0.00883 344.5 36.0
354(10) 0.00943 344.5 33.1
370(10) 0.00957 344.5 30.9
375(10) 0.00980 344.5 29.4
388(10) 0.00933 344.4 28.6
394(11) 0.00904 344.4 28.6
398(11) 0.00862 344.4 29.8
398(11) 0.00898 344.4 32.7
427(11) 0.00881 344.3 38.1
424(11) 0.00804 344.3 46.9
438(12) 0.00742 344.3 60.1
459(12) 0.00743 344.2 78.0
533(12) 0.00682 344.2 99.8
561(12) 0.00661 344.2 123.1
649(14) 0.00523 344.2 143.0
618(14) 0.00535 344.1 152.7
616(13) 0.00566 344.1 147.6
580(13) 0.00638 344.1 129.9
493(12) 0.00747 344.1 106.2
468(11) 0.00757 344.0 82.4
456(12) 0.00713 344.0 61.9
413(11) 0.00841 344.0 45.8
400(10) 0.00920 344.0 34.2
394(10) 0.00939 343.9 26.3
371(10) 0.00965 343.9 21.1
397(11) 0.00805 343.9 17.8
362(10) 0.00996 343.9 15.5
355(10) 0.01048 343.8 14.0
382(10) 0.00956 343.8 12.8
355(10) 0.00964 343.8 11.8
354(11) 0.00906 343.7 11.0
367(10) 0.00927 343.7 10.4
380(10) 0.00988 343.7 9.8
347(10) 0.01050 343.7 9.3
346(10) 0.00992 343.6 8.9
349(11) 0.00900 343.6 8.5
354(10) 0.00975 343.6 8.1
342(10) 0.01100 343.6 7.8
336(10) 0.01073 343.5 7.6
349(10) 0.00992 343.5 7.3
362(10) 0.00929 343.5 7.1
355(10) 0.00948 343.5 6.9
328(9) 0.01140 343.4 6.7
351(10) 0.01012 343.4 6.5
306(9) 0.01138 343.4 6.4
338(10) 0.00977 343.4 6.3
347(10) 0.00978 343.3 6.1
346(10) 0.01069 343.3 6.0
353(10) 0.00980 343.3 5.9
337(10) 0.01022 343.2 5.8
337(10) 0.01058 343.2 5.7
360(10) 0.00984 343.2 5.6
347(10) 0.01081 343.2 5.5
333(9) 0.01112 343.1 5.5
357(10) 0.00934 343.1 5.4
339(10) 0.01007 343.1 5.3
339(10) 0.01055 343.1 5.3
334(9) 0.01113 343.0 5.2
352(10) 0.00947 343.0 5.2
350(10) 0.00963 343.0 5.1
353(10) 0.01007 343.0 5.1
340(10) 0.01093 342.9 5.0
332(9) 0.01115 342.9 5.0
347(10) 0.01032 342.9 5.0
375(11) 0.00869 342.9 5.0
342(10) 0.01040 342.8 4.9
368(10) 0.01005 342.8 4.9
353(10) 0.01061 342.8 4.9
329(10) 0.01057 342.7 4.9
332(10) 0.01041 342.7 4.9
361(10) 0.00997 342.6 4.9
329(9) 0.01119 342.6 4.9
339(10) 0.01090 342.6 4.9
354(10) 0.00950 342.5 4.9
351(10) 0.00954 342.5 4.9
379(10) 0.00921 342.5 4.9
344(10) 0.01074 342.4 4.8
341(10) 0.01088 342.4 4.9
324(10) 0.01096 342.4 4.9
342(10) 0.00944 342.3 5.0
350(10) 0.00985 342.3 5.0
344(10) 0.01088 342.3 5.0
343(10) 0.01061 342.2 5.0
326(10) 0.01054 342.2 5.1
338(10) 0.00964 342.2 5.1
336(10) 0.01011 342.1 5.1
347(10) 0.01073 342.1 5.2
354(10) 0.01046 342.1 5.2
353(10) 0.00975 342.0 5.3
365(11) 0.00895 342.0 5.4
338(10) 0.01039 341.9 5.4
337(10) 0.01095 341.9 5.5
350(10) 0.01015 341.9 5.6
316(10) 0.01068 341.8 5.7
324(10) 0.01038 341.8 5.8
343(10) 0.01024 341.8 5.9
372(10) 0.01012 341.7 6.0
353(10) 0.01025 341.7 6.2
343(10) 0.01018 341.7 6.3
331(10) 0.01060 341.6 6.5
362(10) 0.00978 341.6 6.7
343(10) 0.01083 341.6 6.9
359(10) 0.00974 341.5 7.2
358(10) 0.00974 341.5 7.5
368(10) 0.00945 341.5 7.8
372(10) 0.00959 341.4 8.2
338(10) 0.01091 341.4 8.6
392(11) 0.00886 341.4 9.2
357(10) 0.00948 341.3 9.8
357(10) 0.00954 341.3 10.7
390(10) 0.00922 341.3 11.7
388(10) 0.00961 341.2 13.2
397(11) 0.00857 341.2 15.2
383(11) 0.00869 341.1 17.9
391(11) 0.00884 341.1 21.5
402(11) 0.00896 341.1 26.3
381(10) 0.00976 341.0 32.3
435(11) 0.00810 341.0 39.7
425(11) 0.00801 341.0 48.3
438(11) 0.00794 340.9 57.4
459(11) 0.00794 340.9 66.0
530(12) 0.00703 340.9 72.3
531(12) 0.00669 340.8 74.4
536(13) 0.00593 340.8 71.6
492(12) 0.00719 340.8 65.0
455(11) 0.00811 340.7 56.4
437(11) 0.00851 340.7 47.5
423(11) 0.00838 340.7 39.3
398(11) 0.00843 340.6 32.2
396(11) 0.00883 340.6 26.5
358(10) 0.01048 340.6 22.1
365(10) 0.01025 340.5 18.9
390(11) 0.00870 340.5 16.5
332(10) 0.01037 340.4 14.8
374(10) 0.00945 340.4 13.6
362(10) 0.01030 340.4 12.7
367(10) 0.01017 340.3 12.1
339(10) 0.01066 340.3 11.7
348(10) 0.00950 340.3 11.3
329(10) 0.01054 340.2 11.1
339(10) 0.01094 340.2 10.9
368(10) 0.00981 340.2 10.8
357(10) 0.00982 340.1 10.8
348(10) 0.00972 340.1 10.7
341(10) 0.01018 340.1 10.8
344(10) 0.01080 340.0 10.8
365(10) 0.00967 340.0 10.9
332(10) 0.01026 340.0 11.0
350(10) 0.00949 339.9 11.1
346(10) 0.01007 339.9 11.3
356(10) 0.01043 339.9 11.5
351(10) 0.00989 339.8 11.7
369(11) 0.00893 339.8 11.9
343(10) 0.01013 339.8 12.2
330(10) 0.01096 339.7 12.5
360(10) 0.01033 339.7 12.8
354(10) 0.00996 339.6 13.1
359(10) 0.00928 339.6 13.5
332(10) 0.01027 339.6 13.9
354(10) 0.01015 339.5 14.3
345(10) 0.01070 339.5 14.8
331(10) 0.01033 339.5 15.3
350(10) 0.00945 339.4 15.9
337(10) 0.01053 339.4 16.5
364(10) 0.01013 339.4 17.2
359(10) 0.01036 339.3 17.9
359(10) 0.00976 339.3 18.7
334(10) 0.00977 339.3 19.6
361(10) 0.00975 339.2 20.5
361(10) 0.01039 339.2 21.6
354(10) 0.01042 339.2 22.7
346(10) 0.00995 339.1 24.0
348(10) 0.00938 339.1 25.4
360(10) 0.00954 339.1 26.9
354(10) 0.01046 339.0 28.6
359(10) 0.01040 339.0 30.4
360(10) 0.00952 338.9 32.4
384(11) 0.00815 338.9 34.5
397(11) 0.00884 338.9 36.8
380(10) 0.00971 338.8 39.3
394(10) 0.00923 338.8 41.9
355(10) 0.00997 338.8 44.6
368(11) 0.00891 338.7 47.4
391(11) 0.00867 338.7 50.2
362(10) 0.01036 338.7 53.0
393(10) 0.00916 338.6 55.7
393(11) 0.00888 338.6 58.3
387(11) 0.00842 338.6 60.8
407(11) 0.00798 338.5 63.2
393(10) 0.00942 338.5 65.6
378(10) 0.00953 338.5 68.2
385(10) 0.00924 338.4 71.1
435(11) 0.00787 338.4 74.4
436(11) 0.00793 338.4 78.4
427(11) 0.00868 338.3 83.3
428(11) 0.00832 338.3 89.5
423(11) 0.00803 338.3 97.2
462(12) 0.00722 338.2 106.8
474(12) 0.00737 338.2 119.0
479(11) 0.00778 338.1 134.0
494(12) 0.00714 338.1 152.6
519(12) 0.00658 338.1 175.3
553(13) 0.00595 338.0 202.3
602(13) 0.00599 338.0 234.2
638(13) 0.00581 338.0 270.6
708(14) 0.00497 337.9 311.1
789(15) 0.00419 337.9 354.3
867(16) 0.00395 337.9 397.1
896(16) 0.00395 337.8 435.4
941(16) 0.00389 337.8 463.5
911(16) 0.00380 337.8 476.3
884(16) 0.00379 337.7 471.2
852(16) 0.00406 337.7 449.7
801(15) 0.00461 337.7 416.1
738(14) 0.00498 337.6 376.3
750(15) 0.00456 337.6 335.1
643(14) 0.00517 337.6 295.6
645(14) 0.00548 337.5 260.0
631(13) 0.00583 337.5 228.9
603(13) 0.00612 337.4 202.6
607(13) 0.00555 337.4 180.9
553(13) 0.00580 337.4 163.3
537(12) 0.00656 337.3 149.3
516(12) 0.00714 337.3 138.3
528(12) 0.00694 337.3 129.8
527(12) 0.00648 337.2 123.2
500(12) 0.00646 337.2 117.9
529(12) 0.00651 337.2 113.6
484(11) 0.00769 337.1 110.0
471(11) 0.00781 337.1 106.8
476(12) 0.00747 337.1 103.8
462(12) 0.00719 337.0 101.0
472(12) 0.00716 337.0 98.2
466(11) 0.00796 337.0 95.3
499(12) 0.00722 336.9 92.4
470(12) 0.00718 336.9 89.5
488(12) 0.00673 336.9 86.6
461(12) 0.00743 336.8 83.7
451(11) 0.00829 336.8 80.8
456(11) 0.00786 336.7 77.9
434(11) 0.00800 336.7 75.0
423(11) 0.00786 336.7 72.1
424(11) 0.00815 336.6 69.3
405(10) 0.00914 336.6 66.5
399(11) 0.00893 336.6 63.7
400(11) 0.00844 336.5 61.0
411(11) 0.00817 336.5 58.3
419(11) 0.00834 336.5 55.6
416(11) 0.00893 336.4 53.1
411(11) 0.00869 336.4 50.6
375(10) 0.00924 336.4 48.2
383(11) 0.00903 336.3 45.8
378(10) 0.00946 336.3 43.6
379(10) 0.00971 336.3 41.4
387(11) 0.00875 336.2 39.4
377(11) 0.00895 336.2 37.4
381(10) 0.00919 336.2 35.6
383(10) 0.00925 336.1 33.8
378(10) 0.00987 336.1 32.1
400(11) 0.00869 336.1 30.6
396(11) 0.00834 336.0 29.1
378(11) 0.00877 336.0 27.7
363(10) 0.01002 335.9 26.4
391(10) 0.00948 335.9 25.1
372(11) 0.00900 335.9 23.9
352(10) 0.00925 335.8 22.8
370(10) 0.00948 335.8 21.8
369(10) 0.01012 335.8 20.8
358(10) 0.01032 335.7 19.9
349(10) 0.01003 335.7 19.1
365(11) 0.00905 335.7 18.2
366(10) 0.00953 335.6 17.5
339(10) 0.01100 335.6 16.8
336(9) 0.01111 335.6 16.1
357(10) 0.00953 335.5 15.5
345(10) 0.00931 335.5 14.9
351(10) 0.01036 335.5 14.3
366(10) 0.01012 335.4 13.8
345(10) 0.01080 335.4 13.3
342(10) 0.00983 335.4 12.8
350(11) 0.00906 335.3 12.4
366(10) 0.00933 335.3 11.9
335(9) 0.01115 335.2 11.5
344(10) 0.01056 335.2 11.2
346(10) 0.00973 335.2 10.8
345(10) 0.00965 335.1 10.5
356(10) 0.00953 335.1 10.2
335(10) 0.01101 335.1 9.9
334(10) 0.01100 335.0 9.6
327(10) 0.01091 335.0 9.3
343(10) 0.01001 335.0 9.0
316(10) 0.01062 334.9 8.8
347(10) 0.01052 334.9 8.6
365(10) 0.01008 334.9 8.3
339(10) 0.01029 334.8 8.1
355(10) 0.00955 334.8 7.9
320(10) 0.01082 334.8 7.7
318(9) 0.01175 334.7 7.5
350(10) 0.01033 334.7 7.4
331(10) 0.01040 334.7 7.2
341(10) 0.00969 334.6 7.0
337(10) 0.01048 334.6 6.9
332(9) 0.01115 334.6 6.7
323(10) 0.01076 334.5 6.6
324(10) 0.01039 334.5 6.4
355(10) 0.00976 334.4 6.3
349(10) 0.01063 334.4 6.2
322(9) 0.01144 334.4 6.1
306(9) 0.01133 334.3 5.9
333(10) 0.00965 334.3 5.8
353(10) 0.00953 334.3 5.7
356(10) 0.00997 334.2 5.6
340(10) 0.01083 334.2 5.5
324(10) 0.01074 334.2 5.5
347(10) 0.00924 334.1 5.4
350(10) 0.01006 334.1 5.3
330(9) 0.01111 334.1 5.2
332(9) 0.01128 334.0 5.1
337(10) 0.01041 334.0 5.0
327(10) 0.01013 334.0 4.9
356(10) 0.00933 333.9 4.9
341(10) 0.01082 333.9 4.8
313(9) 0.01174 333.9 4.7
344(10) 0.01048 333.8 4.6
341(10) 0.00947 333.8 4.6
332(10) 0.01049 333.7 4.5
339(10) 0.01077 333.7 4.4
360(10) 0.01015 333.7 4.4
339(10) 0.01029 333.6 4.3
339(10) 0.00936 333.6 4.2
326(10) 0.01051 333.6 4.2
306(9) 0.01179 333.5 4.1
330(9) 0.01135 333.5 4.1
341(10) 0.01020 333.5 4.0
322(10) 0.01011 333.4 4.0
309(10) 0.01099 333.4 3.9
358(10) 0.01035 333.4 3.9
344(10) 0.01066 333.3 3.8
337(10) 0.01037 333.3 3.8
322(10) 0.01053 333.3 3.7
348(10) 0.01000 333.2 3.7
345(10) 0.01080 333.2 3.6
337(10) 0.01072 333.2 3.6
359(10) 0.00949 333.1 3.6
339(10) 0.00990 333.1 3.5
332(10) 0.01033 333.0 3.5
351(10) 0.01053 333.0 3.4
352(10) 0.00999 333.0 3.4
339(10) 0.01040 332.9 3.4
341(10) 0.01025 332.9 3.3
342(10) 0.01033 332.9 3.3
349(10) 0.01056 332.8 3.3
341(10) 0.01049 332.8 3.2
344(10) 0.00985 332.8 3.2
315(10) 0.01072 332.7 3.2
326(10) 0.01066 332.7 3.2
308(9) 0.01209 332.7 3.1
303(9) 0.01197 332.6 3.1
337(10) 0.00990 332.6 3.1
328(10) 0.01041 332.6 3.1
344(10) 0.01057 332.5 3.0
342(10) 0.01091 332.5 3.0
322(10) 0.01094 332.5 3.0
327(10) 0.01045 332.4 3.0
339(10) 0.01030 332.4 2.9
340(10) 0.01080 332.4 2.9
340(10) 0.01094 332.3 2.9
350(10) 0.00988 332.3 2.9
318(10) 0.01035 332.2 2.9
326(10) 0.01060 332.2 2.8
329(9) 0.01133 332.2 2.8
344(10) 0.01085 332.1 2.8
328(10) 0.01063 332.1 2.8
336(10) 0.00945 332.1 2.8
339(10) 0.01005 332.0 2.8
320(9) 0.01150 332.0 2.7
325(9) 0.01143 332.0 2.7
328(10) 0.01036 331.9 2.7
327(10) 0.00967 331.9 2.7
345(10) 0.00968 331.9 2.7
332(9) 0.01125 331.8 2.7
360(10) 0.01029 331.8 2.7
350(10) 0.00999 331.8 2.6
315(10) 0.01035 331.7 2.6
326(10) 0.01052 331.7 2.6
331(9) 0.01134 331.7 2.6
329(10) 0.01095 331.6 2.6
321(10) 0.01101 331.6 2.6
327(10) 0.01013 331.5 2.6
333(10) 0.01079 331.5 2.6
323(9) 0.01146 331.5 2.6
336(10) 0.01095 331.4 2.6
349(10) 0.01001 331.4 2.6
337(10) 0.00990 331.4 2.5
326(10) 0.01063 331.3 2.5
350(10) 0.01066 331.3 2.5
337(10) 0.01077 331.3 2.5
341(10) 0.01006 331.2 2.5
349(10) 0.00930 331.2 2.5
327(10) 0.01045 331.2 2.5
319(9) 0.01162 331.1 2.5
321(10) 0.01090 331.1 2.5
340(10) 0.00968 331.0 2.5
335(10) 0.00997 331.0 2.5
306(9) 0.01160 331.0 2.5
317(9) 0.01164 330.9 2.5
325(10) 0.01076 330.9 2.5
310(10) 0.01077 330.9 2.5
314(10) 0.01098 330.8 2.5
347(10) 0.00995 330.8 2.5
332(9) 0.01124 330.7 2.5
312(9) 0.01135 330.7 2.5
306(9) 0.01171 330.7 2.5
349(10) 0.01010 330.6 2.5
323(10) 0.01101 330.6 2.5
334(10) 0.01105 330.6 2.5
342(10) 0.01015 330.5 2.5
335(10) 0.00978 330.5 2.5
318(10) 0.01081 330.4 2.5
341(10) 0.01080 330.4 2.5
367(10) 0.01016 330.4 2.5
346(10) 0.01025 330.3 2.5
321(10) 0.01016 330.3 2.5
324(10) 0.01082 330.3 2.5
315(9) 0.01160 330.2 2.5
313(9) 0.01173 330.2 2.6
323(10) 0.01079 330.1 2.6
319(10) 0.01000 330.1 2.6
345(10) 0.00987 330.1 2.6
326(9) 0.01144 330.0 2.6
334(9) 0.01118 330.0 2.6
306(9) 0.01151 330.0 2.6
312(10) 0.01032 329.9 2.6
305(9) 0.01128 329.9 2.6
283(9) 0.01312 329.9 2.6
335(10) 0.01081 329.8 2.7
338(10) 0.01052 329.8 2.7
327(10) 0.00992 329.7 2.7
329(10) 0.01011 329.7 2.7
304(9) 0.01247 329.7 2.7
346(10) 0.01030 329.6 2.7
328(10) 0.01096 329.6 2.8
335(10) 0.01026 329.6 2.8
332(10) 0.01063 329.5 2.8
335(10) 0.01106 329.5 2.8
345(10) 0.01036 329.4 2.8
303(9) 0.01184 329.4 2.9
317(10) 0.01103 329.4 2.9
330(10) 0.01088 329.3 2.9
327(9) 0.01128 329.3 3.0
310(9) 0.01159 329.3 3.0
318(10) 0.01038 329.2 3.0
334(10) 0.01014 329.2 3.1
340(10) 0.01014 329.1 3.1
332(9) 0.01122 329.1 3.1
328(10) 0.01063 329.1 3.2
354(10) 0.00950 329.0 3.2
340(10) 0.01028 329.0 3.2
330(10) 0.01100 329.0 3.3
348(10) 0.01078 328.9 3.3
338(10) 0.01006 328.9 3.3
322(10) 0.01047 328.8 3.4
330(10) 0.01050 328.8 3.4
335(10) 0.01099 328.8 3.5
323(9) 0.01150 328.7 3.5
317(9) 0.01126 328.7 3.6
336(10) 0.00997 328.7 3.6
338(10) 0.01058 328.6 3.7
305(9) 0.01232 328.6 3.7
306(9) 0.01203 328.5 3.8
315(9) 0.01131 328.5 3.9
327(10) 0.01023 328.5 3.9
311(9) 0.01142 328.4 4.0
340(10) 0.01080 328.4 4.1
341(10) 0.01099 328.4 4.1
344(10) 0.00983 328.3 4.2
305(10) 0.01091 328.3 4.3
318(10) 0.01093 328.3 4.4
318(9) 0.01156 328.2 4.5
309(9) 0.01187 328.2 4.5
311(10) 0.01088 328.1 4.6
333(10) 0.00969 328.1 4.7
339(10) 0.00997 328.1 4.8
320(9) 0.01147 328.0 5.0
352(10) 0.01030 328.0 5.1
316(10) 0.01107 328.0 5.2
321(10) 0.00981 327.9 5.3
324(10) 0.01025 327.9 5.5
331(9) 0.01108 327.8 5.6
360(10) 0.01000 327.8 5.7
318(10) 0.01082 327.8 5.9
307(10) 0.01063 327.7 6.1
306(9) 0.01128 327.7 6.3
313(9) 0.01190 327.7 6.4
324(9) 0.01142 327.6 6.6
338(10) 0.01025 327.6 6.8
331(10) 0.01027 327.5 7.1
335(10) 0.01022 327.5 7.3
319(9) 0.01166 327.5 7.6
337(10) 0.01059 327.4 7.8
366(10) 0.00937 327.4 8.1
319(9) 0.01136 327.4 8.5
339(10) 0.01057 327.3 8.8
316(9) 0.01168 327.3 9.2
342(10) 0.01022 327.2 9.6
330(10) 0.01061 327.2 10.0
322(10) 0.01091 327.2 10.5
348(10) 0.01016 327.1 11.0
352(10) 0.01055 327.1 11.6
342(10) 0.01008 327.1 12.2
337(10) 0.00988 327.0 12.9
354(10) 0.00978 327.0 13.6
338(10) 0.01063 326.9 14.4
347(10) 0.01082 326.9 15.3
349(10) 0.01001 326.9 16.2
345(10) 0.00976 326.8 17.3
370(10) 0.00931 326.8 18.2
366(10) 0.00988 326.8 19.5
368(10) 0.01010 326.7 20.9
368(10) 0.00937 326.7 22.4
339(10) 0.00958 326.7 24.1
340(10) 0.01019 326.6 26.0
375(10) 0.00977 326.6 28.1
356(10) 0.01051 326.5 30.5
369(10) 0.00942 326.5 33.5
350(10) 0.00945 326.5 37.5
400(11) 0.00838 326.4 43.4
373(10) 0.00991 326.4 52.5
402(10) 0.00931 326.4 66.1
390(10) 0.00907 326.3 84.8
426(11) 0.00768 326.3 107.6
427(11) 0.00832 326.2 130.7
460(11) 0.00807 326.2 147.5
486(11) 0.00758 326.2 151.4
452(11) 0.00787 326.1 141.6
420(11) 0.00831 326.1 124.1
427(11) 0.00828 326.1 105.6
411(11) 0.00902 326.0 90.2
419(11) 0.00863 326.0 79.6
407(11) 0.00860 325.9 73.1
398(11) 0.00840 325.9 69.4
412(11) 0.00834 325.9 67.2
394(10) 0.00940 325.8 65.5
405(11) 0.00870 325.8 63.9
421(11) 0.00828 325.8 62.1
397(11) 0.00837 325.7 60.0
375(10) 0.00915 325.7 57.7
380(10) 0.00981 325.6 55.2
375(10) 0.00953 325.6 52.5
364(10) 0.00943 325.6 49.9
403(11) 0.00830 325.5 47.2
375(10) 0.00918 325.5 44.5
358(10) 0.01037 325.5 41.9
349(10) 0.00981 325.4 39.4
358(10) 0.00919 325.4 37.0
359(10) 0.00917 325.3 34.7
341(10) 0.01039 325.3 32.5
358(10) 0.01036 325.3 30.5
349(10) 0.00993 325.2 28.6
358(10) 0.00914 325.2 26.8
343(10) 0.00996 325.2 25.1
348(10) 0.01036 325.1 23.6
325(9) 0.01142 325.1 22.2
329(10) 0.01049 325.0 20.9
334(10) 0.01017 325.0 19.7
341(10) 0.00994 325.0 18.6
333(10) 0.01082 324.9 17.7
338(10) 0.01077 324.9 16.8
365(10) 0.00943 324.9 15.9
343(10) 0.00947 324.8 15.2
349(10) 0.00994 324.8 14.5
345(10) 0.01056 324.8 13.9
331(9) 0.01113 324.7 13.4
317(9) 0.01120 324.7 12.9
336(10) 0.00947 324.6 12.4
316(9) 0.01109 324.6 12.0
319(9) 0.01158 324.6 11.7
336(10) 0.01103 324.5 11.3
331(10) 0.01048 324.5 11.0
349(10) 0.00934 324.5 10.8
339(10) 0.01055 324.4 10.6
331(9) 0.01123 324.4 10.4
357(10) 0.01044 324.3 10.2
332(10) 0.01069 324.3 10.0
310(10) 0.01070 324.3 9.9
306(9) 0.01147 324.2 9.8
332(9) 0.01114 324.2 9.7
325(10) 0.01071 324.2 9.6
348(10) 0.00961 324.1 9.6
327(10) 0.01007 324.1 9.5
341(10) 0.00976 324.0 9.5
323(9) 0.01146 324.0 9.5
326(9) 0.01124 324.0 9.5
347(10) 0.00971 323.9 9.5
322(10) 0.01029 323.9 9.5
312(10) 0.01081 323.9 9.5
327(9) 0.01126 323.8 9.6
354(10) 0.01011 323.8 9.6
308(9) 0.01135 323.7 9.7
336(10) 0.00989 323.7 9.8
315(10) 0.01096 323.7 9.8
321(9) 0.01156 323.6 9.9
305(9) 0.01209 323.6 10.0
346(10) 0.00984 323.6 10.1
331(10) 0.01039 323.5 10.3
328(10) 0.01081 323.5 10.4
317(9) 0.01173 323.4 10.5
322(10) 0.01086 323.4 10.7
311(10) 0.01052 323.4 10.8
314(10) 0.01081 323.3 11.0
323(9) 0.01118 323.3 11.1
330(9) 0.01122 323.3 11.3
316(9) 0.01130 323.2 11.4
329(10) 0.01017 323.2 11.6
301(9) 0.01223 323.2 11.8
324(10) 0.01100 323.1 11.9
312(9) 0.01192 323.1 12.1
324(10) 0.01072 323.0 12.2
334(10) 0.01021 323.0 12.4
383(11) 0.00887 323.0 12.6
338(10) 0.01093 322.9 12.7
323(9) 0.01142 322.9 12.9
329(10) 0.01036 322.9 13.0
317(10) 0.01024 322.8 13.2
323(10) 0.01067 322.8 13.4
319(9) 0.01159 322.7 13.5
326(9) 0.01120 322.7 13.7
349(10) 0.00968 322.7 13.9
345(10) 0.00922 322.6 14.1
333(10) 0.01030 322.6 14.3
325(9) 0.01143 322.6 14.5
307(9) 0.01211 322.5 14.8
324(10) 0.01076 322.5 15.0
343(10) 0.00927 322.4 15.4
339(10) 0.01041 322.4 15.7
349(10) 0.01064 322.4 16.2
348(10) 0.01050 322.3 16.7
344(10) 0.00995 322.3 17.3
341(10) 0.00954 322.3 17.9
306(9) 0.01183 322.2 18.7
341(10) 0.01090 322.2 19.6
337(10) 0.01070 322.1 20.7
351(10) 0.00941 322.1 21.9
333(10) 0.00989 322.1 23.2
339(10) 0.00994 322.0 24.7
354(10) 0.01068 322.0 26.4
346(10) 0.01054 322.0 28.3
338(10) 0.01005 321.9 30.3
353(10) 0.00951 321.9 32.4
375(10) 0.00918 321.8 34.5
355(10) 0.01046 321.8 36.6
346(10) 0.01038 321.8 38.6
340(10) 0.01028 321.7 40.2
335(10) 0.01045 321.7 41.4
322(10) 0.01099 321.7 42.1
380(10) 0.00983 321.6 42.3
360(10) 0.00991 321.6 42.0
361(10) 0.00917 321.5 41.4
349(10) 0.00966 321.5 40.6
354(10) 0.01003 321.5 39.7
383(10) 0.00973 321.4 38.9
353(10) 0.00998 321.4 38.3
335(10) 0.01024 321.4 37.9
348(10) 0.00974 321.3 37.8
336(10) 0.01093 321.3 38.1
359(10) 0.01035 321.3 38.8
373(10) 0.00927 321.2 39.8
354(10) 0.00947 321.2 41.3
362(10) 0.00942 321.1 43.3
349(10) 0.01045 321.1 45.7
346(10) 0.01070 321.1 48.8
376(10) 0.00943 321.0 52.4
391(11) 0.00853 321.0 56.6
368(10) 0.00954 321.0 61.6
364(10) 0.01017 320.9 67.2
359(10) 0.01042 320.9 73.6
413(11) 0.00855 320.8 80.8
424(11) 0.00772 320.8 88.8
418(11) 0.00838 320.8 97.6
414(11) 0.00886 320.7 107.1
442(11) 0.00830 320.7 117.2
455(11) 0.00769 320.7 127.9
483(12) 0.00661 320.6 138.8
503(12) 0.00675 320.6 149.5
511(12) 0.00730 320.5 159.6
521(12) 0.00713 320.5 168.6
546(13) 0.00604 320.5 175.8
517(13) 0.00629 320.4 180.6
547(13) 0.00632 320.4 182.7
483(11) 0.00764 320.4 181.9
519(12) 0.00711 320.3 178.4
499(12) 0.00718 320.3 172.4
476(12) 0.00713 320.2 164.6
454(12) 0.00743 320.2 155.4
447(11) 0.00835 320.2 145.5
475(12) 0.00752 320.1 135.2
465(12) 0.00718 320.1 124.9
437(12) 0.00750 320.1 114.6
428(11) 0.00805 320.0 104.6
440(11) 0.00840 320.0 95.1
444(11) 0.00808 319.9 86.2
404(11) 0.00836 319.9 77.9
385(10) 0.00912 319.9 70.3
424(11) 0.00821 319.8 63.4
377(10) 0.00986 319.8 57.2
368(10) 0.00952 319.8 51.7
388(11) 0.00895 319.7 46.8
380(11) 0.00897 319.7 42.5
360(10) 0.00989 319.7 38.7
385(10) 0.00974 319.6 35.4
363(10) 0.00956 319.6 32.5
324(10) 0.01023 319.5 29.9
358(10) 0.00971 319.5 27.7
353(10) 0.01016 319.5 25.7
368(10) 0.01006 319.4 24.0
345(10) 0.01038 319.4 22.4
375(11) 0.00863 319.4 21.0
367(10) 0.00948 319.3 19.8
347(10) 0.01066 319.3 18.7
345(10) 0.01077 319.2 17.6
320(10) 0.01081 319.2 16.7
327(10) 0.01047 319.2 15.9
328(10) 0.01104 319.1 15.1
346(10) 0.01061 319.1 14.4
353(10) 0.01044 319.1 13.8
322(9) 0.01110 319.0 13.2
336(10) 0.00961 319.0 12.8
321(10) 0.01090 318.9 12.3
333(9) 0.01121 318.9 11.8
340(10) 0.01075 318.9 11.3
322(10) 0.01068 318.8 10.9
317(10) 0.00983 318.8 10.5
351(10) 0.00995 318.8 10.3
329(9) 0.01122 318.7 9.9
330(9) 0.01109 318.7 9.6
321(10) 0.01059 318.6 9.3
304(10) 0.01103 318.6 9.0
326(10) 0.01088 318.6 8.8
325(9) 0.01157 318.5 8.5
301(9) 0.01222 318.5 8.3
341(10) 0.01019 318.5 8.1
328(10) 0.01062 318.4 7.9
347(10) 0.01000 318.4 7.7
314(9) 0.01191 318.3 7.5
338(10) 0.01067 318.3 7.3
327(10) 0.01022 318.3 7.1
285(9) 0.01217 318.2 7.0
295(9) 0.01187 318.2 6.8
316(9) 0.01175 318.2 6.7
338(10) 0.01047 318.1 6.6
318(10) 0.01089 318.1 6.5
324(10) 0.01029 318.1 6.4
312(9) 0.01157 318.0 6.3
332(9) 0.01131 318.0 6.1
313(10) 0.01100 317.9 6.0
314(10) 0.01092 317.9 5.9
321(10) 0.01104 317.9 5.9
336(10) 0.01063 317.8 5.8
306(9) 0.01210 317.8 5.7
297(9) 0.01174 317.8 5.6
313(10) 0.01095 317.7 5.5
321(10) 0.01087 317.7 5.5
306(9) 0.01145 317.6 5.4
328(9) 0.01134 317.6 5.4
305(9) 0.01157 317.6 5.3
340(10) 0.00949 317.5 5.3
294(9) 0.01203 317.5 5.2
315(9) 0.01149 317.5 5.2
300(9) 0.01235 317.4 5.1
319(10) 0.01088 317.4 5.1
316(10) 0.01089 317.3 5.0
321(9) 0.01108 317.3 5.0
338(10) 0.01089 317.3 5.0
341(10) 0.01107 317.2 4.9
325(10) 0.01065 317.2 4.9
302(10) 0.01086 317.2 4.9
326(10) 0.01081 317.1 4.9
329(9) 0.01115 317.1 4.8
353(10) 0.01045 317.0 4.8
346(10) 0.01019 317.0 4.8
322(10) 0.01023 317.0 4.8
316(9) 0.01112 316.9 4.8
339(10) 0.01081 316.9 4.8
321(9) 0.01143 316.9 4.8
301(9) 0.01177 316.9 4.8
312(10) 0.01054 316.9 4.8
319(10) 0.01091 316.9 4.8
341(10) 0.01094 316.9 4.8
303(9) 0.01189 316.9 4.8
317(10) 0.01055 316.8 4.8
320(10) 0.01014 316.8 4.8
317(9) 0.01111 316.8 4.8
315(9) 0.01173 316.8 4.9
322(9) 0.01126 316.8 4.9
308(10) 0.01090 316.8 4.9
302(10) 0.01053 316.8 4.9
316(10) 0.01064 316.8 5.0
317(9) 0.01150 316.8 5.0
302(9) 0.01184 316.8 5.0
327(10) 0.01047 316.8 5.1
318(10) 0.01086 316.8 5.1
322(10) 0.01074 316.8 5.2
316(9) 0.01183 316.8 5.2
318(10) 0.01084 316.8 5.3
295(9) 0.01169 316.7 5.4
308(9) 0.01129 316.7 5.4
323(10) 0.01089 316.7 5.5
308(9) 0.01210 316.7 5.6
325(10) 0.01077 316.7 5.7
339(10) 0.00998 316.7 5.7
347(10) 0.00974 316.7 5.8
318(9) 0.01148 316.7 5.9
313(9) 0.01192 316.7 6.1
316(10) 0.01089 316.7 6.2
324(10) 0.01040 316.7 6.3
346(10) 0.00998 316.7 6.5
310(9) 0.01181 316.7 6.6
319(9) 0.01159 316.7 6.8
325(10) 0.01070 316.6 6.9
314(10) 0.01021 316.6 7.1
321(10) 0.01066 316.6 7.3
337(10) 0.01056 316.6 7.6
345(10) 0.01084 316.6 7.8
340(10) 0.01033 316.6 8.1
335(10) 0.00976 316.6 8.5
308(9) 0.01112 316.6 8.8
310(9) 0.01171 316.6 9.2
328(9) 0.01116 316.6 9.6
313(9) 0.01123 316.6 10.0
315(10) 0.00981 316.6 10.5
299(9) 0.01156 316.6 11.1
329(9) 0.01118 316.6 11.7
334(10) 0.01090 316.6 12.4
326(10) 0.01035 316.5 13.3
351(10) 0.00913 316.5 14.2
324(10) 0.01102 316.5 15.3
345(10) 0.01075 316.5 16.7
329(9) 0.01124 316.5 18.3
339(10) 0.01013 316.5 20.3
357(11) 0.00875 316.5 23.0
357(10) 0.00976 316.5 26.4
357(10) 0.01038 316.5 31.1
358(10) 0.01034 316.5 37.5
361(10) 0.00988 316.5 46.1
392(11) 0.00845 316.5 57.6
365(10) 0.00927 316.5 72.4
397(10) 0.00923 316.5 90.9
437(11) 0.00844 316.5 112.7
469(12) 0.00731 316.4 136.8
506(12) 0.00663 316.4 161.0
539(12) 0.00649 316.4 182.1
562(12) 0.00659 316.4 196.4
554(12) 0.00643 316.4 200.0
514(12) 0.00680 316.4 191.4
510(12) 0.00665 316.4 172.7
478(12) 0.00735 316.4 148.7
449(11) 0.00819 316.4 123.9
425(11) 0.00803 316.4 101.1
377(11) 0.00888 316.4 81.6
387(11) 0.00864 316.4 66.1
379(10) 0.00932 316.4 54.1
347(10) 0.01059 316.4 45.3
375(11) 0.00894 316.4 39.2
387(11) 0.00871 316.3 35.1
377(10) 0.00946 316.3 32.5
364(10) 0.00979 316.3 31.3
384(10) 0.00976 316.3 31.2
363(10) 0.00957 316.3 32.1
338(10) 0.01002 316.3 34.2
367(10) 0.00942 316.3 37.4
384(10) 0.00915 316.3 41.9
390(10) 0.00961 316.3 47.5
401(11) 0.00883 316.3 54.0
391(11) 0.00814 316.3 60.7
378(11) 0.00895 316.3 66.5
405(11) 0.00896 316.3 69.9
380(10) 0.00964 316.3 69.8
373(10) 0.00907 316.3 66.2
369(11) 0.00866 316.2 60.4
376(10) 0.00908 316.2 53.7
361(10) 0.01012 316.2 47.3
362(10) 0.01018 316.2 41.7
356(10) 0.00948 316.2 37.3
357(11) 0.00905 316.2 33.9
348(10) 0.01017 316.2 31.5
354(10) 0.01045 316.2 29.9
358(10) 0.01028 316.2 29.0
342(10) 0.01010 316.2 28.6
341(10) 0.00976 316.2 28.6
352(10) 0.01001 316.2 28.9
351(10) 0.01055 316.2 29.5
397(10) 0.00918 316.2 30.3
389(11) 0.00882 316.2 31.3
366(11) 0.00899 316.1 32.6
353(10) 0.00971 316.1 34.2
352(10) 0.01060 316.1 36.2
363(10) 0.00981 316.1 38.7
371(10) 0.00916 316.1 42.0
404(11) 0.00842 316.1 46.3
392(10) 0.00913 316.1 51.8
393(10) 0.00946 316.1 58.9
404(11) 0.00877 316.1 67.8
403(11) 0.00861 316.1 78.7
410(11) 0.00844 316.1 91.8
430(11) 0.00824 316.1 106.8
443(11) 0.00835 316.1 123.4
449(11) 0.00789 316.1 140.5
519(13) 0.00626 316.1 155.9
481(12) 0.00731 316.0 167.1
496(12) 0.00729 316.0 171.4
513(12) 0.00730 316.0 167.6
518(12) 0.00649 316.0 156.8
448(12) 0.00741 316.0 141.6
446(12) 0.00755 316.0 124.6
413(11) 0.00883 316.0 107.9
375(10) 0.00991 316.0 92.8
373(10) 0.00952 316.0 79.6
400(11) 0.00838 316.0 68.7
378(10) 0.00918 316.0 59.8
356(10) 0.01002 316.0 52.8
347(10) 0.01081 316.0 47.4
342(10) 0.01011 316.0 43.3
371(11) 0.00896 316.0 40.2
374(10) 0.00936 315.9 38.0
324(9) 0.01122 315.9 36.3
369(10) 0.00993 315.9 35.1
368(10) 0.00948 315.9 34.2
359(10) 0.00911 315.9 33.6
351(10) 0.00975 315.9 33.2
355(10) 0.01028 315.9 33.0
325(9) 0.01153 315.9 33.0
342(10) 0.00996 315.9 33.0
332(10) 0.00992 315.9 33.3
349(10) 0.00988 315.9 33.6
358(10) 0.01044 315.9 34.0
362(10) 0.01016 315.9 34.6
364(10) 0.00959 315.9 35.2
382(11) 0.00832 315.9 35.9
364(10) 0.00956 315.8 36.7
364(10) 0.01008 315.8 37.5
363(10) 0.01020 315.8 38.4
387(10) 0.00918 315.8 39.3
380(11) 0.00868 315.8 40.2
380(10) 0.00918 315.8 41.2
363(10) 0.01015 315.8 42.1
388(10) 0.00911 315.8 43.0
377(11) 0.00907 315.8 43.9
373(11) 0.00901 315.8 44.8
388(11) 0.00892 315.8 45.5
374(10) 0.00989 315.8 46.2
377(10) 0.00943 315.8 46.8
380(10) 0.00921 315.8 47.2
342(10) 0.01028 315.7 47.5
353(10) 0.00993 315.7 47.7
397(10) 0.00942 315.7 47.7
349(10) 0.01022 315.7 47.5
375(11) 0.00850 315.7 47.2
369(11) 0.00905 315.7 46.8
365(10) 0.00966 315.7 46.3
378(10) 0.00978 315.7 45.6
368(10) 0.00990 315.7 44.9
351(10) 0.00997 315.7 44.1
380(11) 0.00877 315.7 43.2
340(10) 0.01073 315.7 42.4
369(10) 0.01001 315.7 41.5
356(10) 0.00980 315.7 40.7
361(10) 0.00912 315.7 39.9
374(10) 0.00911 315.6 39.1
347(10) 0.01046 315.6 38.5
376(10) 0.00982 315.6 38.1
335(10) 0.01044 315.6 37.8
361(10) 0.00925 315.6 37.9
365(10) 0.00966 315.6 38.4
379(10) 0.00949 315.6 39.7
385(10) 0.00976 315.6 42.1
385(10) 0.00912 315.6 46.0
397(11) 0.00818 315.6 51.6
390(11) 0.00873 315.6 59.1
397(10) 0.00925 315.6 68.2
407(10) 0.00914 315.6 78.2
440(11) 0.00791 315.6 87.4
420(11) 0.00786 315.6 93.3
438(11) 0.00782 315.5 93.8
443(11) 0.00839 315.5 88.9
417(11) 0.00883 315.5 81.0
407(11) 0.00818 315.5 72.6
389(11) 0.00824 315.5 65.5
393(11) 0.00898 315.5 60.6
369(10) 0.00993 315.5 58.1
397(10) 0.00926 315.5 58.0
394(11) 0.00883 315.5 60.1
402(11) 0.00826 315.5 63.8
407(11) 0.00829 315.5 68.6
431(11) 0.00862 315.5 73.9
423(11) 0.00848 315.5 78.8
430(11) 0.00804 315.5 82.5
424(11) 0.00790 315.5 84.1
455(12) 0.00755 315.4 83.1
435(11) 0.00851 315.4 79.6
402(11) 0.00874 315.4 74.5
403(11) 0.00858 315.4 68.4
385(11) 0.00892 315.4 62.1
391(11) 0.00906 315.4 56.1
383(10) 0.00974 315.4 50.7
387(10) 0.00913 315.4 46.1
361(10) 0.00960 315.4 42.2
408(11) 0.00829 315.4 39.0
374(10) 0.00947 315.4 36.5
405(10) 0.00923 315.4 34.6
380(10) 0.00938 315.4 33.1
336(10) 0.01046 315.4 32.1
364(10) 0.00928 315.4 31.5
358(10) 0.01006 315.3 31.1
342(10) 0.01082 315.3 30.9
338(10) 0.01019 315.3 30.9
348(10) 0.00961 315.3 31.1
346(10) 0.01017 315.3 31.4
359(10) 0.01014 315.3 31.8
340(10) 0.01086 315.3 32.3
366(11) 0.00902 315.3 32.9
370(11) 0.00887 315.3 33.6
341(10) 0.01038 315.3 34.4
341(10) 0.01069 315.3 35.3
366(10) 0.01011 315.3 36.3
380(10) 0.00907 315.3 37.3
333(10) 0.01035 315.3 38.4
341(10) 0.01046 315.3 39.6
362(10) 0.01024 315.2 40.9
371(10) 0.01004 315.2 42.3
347(10) 0.01031 315.2 43.7
375(11) 0.00876 315.2 45.3
369(10) 0.00959 315.2 46.8
363(10) 0.01002 315.2 48.5
344(10) 0.01077 315.2 50.3
363(10) 0.00969 315.2 52.1
364(10) 0.00911 315.2 54.0
377(10) 0.00941 315.2 56.0
352(10) 0.01054 315.2 58.0
396(10) 0.00913 315.2 60.1
358(10) 0.01000 315.2 62.3
375(11) 0.00884 315.2 64.5
358(10) 0.00995 315.2 66.7
353(10) 0.01064 315.1 69.0
376(10) 0.00977 315.1 71.2
388(11) 0.00888 315.1 73.4
359(10) 0.00964 315.1 75.5
367(10) 0.00945 315.1 77.6
382(10) 0.00973 315.1 79.6
374(10) 0.00943 315.1 81.5
387(11) 0.00888 315.1 83.3
396(11) 0.00848 315.1 85.1
376(10) 0.00965 315.1 86.8
374(10) 0.00995 315.1 88.5
368(10) 0.00996 315.1 90.4
371(10) 0.00919 315.1 92.3
384(11) 0.00877 315.1 94.5
376(10) 0.00948 315.1 96.9
415(11) 0.00893 315.0 99.7
430(11) 0.00822 315.0 103.0
408(11) 0.00837 315.0 106.8
407(11) 0.00871 315.0 111.0
413(11) 0.00881 315.0 115.8
413(11) 0.00896 315.0 121.1
433(11) 0.00795 315.0 126.8
423(11) 0.00792 315.0 132.7
424(11) 0.00815 315.0 138.8
456(11) 0.00780 315.0 144.6
467(11) 0.00805 315.0 149.8
448(11) 0.00773 315.0 154.1
488(12) 0.00680 315.0 156.9
487(12) 0.00717 315.0 158.1
444(11) 0.00823 315.0 157.3
417(11) 0.00888 314.9 154.5
438(11) 0.00801 314.9 149.9
422(11) 0.00807 314.9 143.9
449(11) 0.00786 314.9 136.8
419(11) 0.00882 314.9 129.0
417(11) 0.00896 314.9 121.0
417(11) 0.00842 314.9 112.9
427(12) 0.00746 314.9 105.1
369(10) 0.00954 314.9 97.7
405(10) 0.00910 314.9 90.8
396(10) 0.00931 314.9 84.6
370(10) 0.00965 314.9 78.9
427(12) 0.00744 314.9 73.9
392(11) 0.00885 314.9 69.5
394(10) 0.00937 314.9 65.6
346(10) 0.01035 314.8 62.4
372(10) 0.00936 314.8 59.7
351(10) 0.00983 314.8 57.5
361(10) 0.00946 314.8 55.7
378(10) 0.00982 314.8 54.4
379(10) 0.00969 314.8 53.4
393(11) 0.00844 314.8 52.7
343(10) 0.00974 314.8 52.2
350(10) 0.00997 314.8 51.8
363(10) 0.01023 314.8 51.4
368(10) 0.00988 314.8 50.8
363(10) 0.00929 314.8 50.1
374(11) 0.00888 314.8 49.1
360(10) 0.00975 314.8 47.8
355(10) 0.01048 314.7 46.3
354(10) 0.01031 314.7 44.7
352(10) 0.00961 314.7 42.9
347(10) 0.00984 314.7 41.2
369(10) 0.00940 314.7 39.5
369(10) 0.01003 314.7 37.8
361(10) 0.00969 314.7 36.2
347(10) 0.01006 314.7 34.7
343(10) 0.01008 314.7 33.3
343(10) 0.01044 314.7 32.0
341(10) 0.01102 314.7 30.8
352(10) 0.00953 314.7 29.7
311(9) 0.01117 314.7 28.7
352(10) 0.00975 314.7 27.7
349(10) 0.01030 314.7 26.8
375(10) 0.00985 314.6 25.9
352(10) 0.00974 314.6 25.1
357(10) 0.00924 314.6 24.4
336(10) 0.01070 314.6 23.7
344(10) 0.01069 314.6 23.0
336(10) 0.01106 314.6 22.4
322(10) 0.01099 314.6 21.8
328(10) 0.01015 314.6 21.3
341(10) 0.01045 314.6 20.7
341(10) 0.01073 314.6 20.2
364(10) 0.01033 314.6 19.8
333(10) 0.01075 314.6 19.3
333(10) 0.01007 314.6 18.9
320(10) 0.01075 314.6 18.5
335(9) 0.01120 314.6 18.1
318(9) 0.01159 314.5 17.8
333(10) 0.01045 314.5 17.5
327(10) 0.00970 314.5 17.1
333(10) 0.01027 314.5 16.9
323(9) 0.01133 314.5 16.6
339(10) 0.01085 314.5 16.4
320(10) 0.01105 314.5 16.2
329(10) 0.00973 314.5 16.0
327(10) 0.01068 314.5 15.9
348(10) 0.01079 314.5 15.7
313(9) 0.01166 314.5 15.6
329(10) 0.01038 314.5 15.6
332(10) 0.00968 314.5 15.6
331(10) 0.01041 314.5 15.6
343(10) 0.01081 314.5 15.6
341(10) 0.01057 314.4 15.7
326(10) 0.01064 314.4 15.9
345(10) 0.00967 314.4 16.1
343(10) 0.01027 314.4 16.4
362(10) 0.01033 314.4 16.7
329(10) 0.01100 314.4 17.1
335(10) 0.01072 314.4 17.6
353(10) 0.00970 314.4 18.2
382(10) 0.00918 314.4 18.9
361(10) 0.01024 314.4 19.8
331(10) 0.01067 314.4 20.9
361(10) 0.00941 314.4 22.2
355(10) 0.00983 314.4 23.9
370(10) 0.00947 314.4 25.8
363(10) 0.01030 314.4 28.3
374(10) 0.00965 314.3 31.2
396(11) 0.00864 314.3 34.8
403(11) 0.00836 314.3 39.0
393(10) 0.00926 314.3 44.1
413(11) 0.00894 314.3 50.0
393(11) 0.00894 314.3 56.8
409(11) 0.00797 314.3 64.5
392(11) 0.00873 314.3 73.0
422(11) 0.00852 314.3 82.0
454(11) 0.00816 314.3 91.2
454(11) 0.00773 314.3 100.0
436(11) 0.00762 314.3 107.4
459(11) 0.00759 314.3 112.6
450(11) 0.00814 314.3 114.7
471(11) 0.00794 314.3 113.2
472(12) 0.00731 314.2 108.6
476(12) 0.00661 314.2 101.4
442(11) 0.00773 314.2 92.7
426(11) 0.00877 314.2 83.5
420(11) 0.00870 314.2 74.2
376(10) 0.00927 314.2 65.5
395(11) 0.00807 314.2 57.5
370(10) 0.00958 314.2 50.4
345(10) 0.01084 314.2 44.3
349(10) 0.01073 314.2 38.9
347(10) 0.01010 314.2 34.4
336(10) 0.00989 314.2 30.6
360(10) 0.00983 314.2 27.4
362(10) 0.01023 314.2 24.8
339(10) 0.01086 314.2 22.6
324(10) 0.01087 314.1 20.7
356(10) 0.00925 314.1 19.2
322(10) 0.01096 314.1 18.0
331(9) 0.01110 314.1 16.9
355(10) 0.01018 314.1 16.0
362(10) 0.00945 314.1 15.2
365(11) 0.00897 314.1 14.5
345(10) 0.00981 314.1 14.0
323(9) 0.01152 314.1 13.4
320(9) 0.01108 314.1 13.0
304(9) 0.01118 314.1 12.6
325(10) 0.01003 314.1 12.3
324(10) 0.01103 314.1 12.0
313(9) 0.01175 314.1 11.7
332(10) 0.01079 314.1 11.5
334(10) 0.00983 314.0 11.3
315(10) 0.01082 314.0 11.1
313(10) 0.01098 314.0 10.9
316(9) 0.01183 314.0 10.8
312(9) 0.01118 314.0 10.7
319(10) 0.01051 314.0 10.6
331(10) 0.01007 314.0 10.6
323(9) 0.01114 314.0 10.6
347(10) 0.01069 314.0 10.5
340(10) 0.00977 314.1 10.5
358(10) 0.00920 314.1 10.6
321(10) 0.01075 314.1 10.6
316(9) 0.01133 314.1 10.7
334(9) 0.01117 314.1 10.8
343(10) 0.00995 314.1 10.9
332(10) 0.00992 314.1 11.0
317(9) 0.01111 314.1 11.2
340(10) 0.01088 314.1 11.4
341(10) 0.01095 314.1 11.6
319(10) 0.01086 314.2 11.9
330(10) 0.00996 314.2 12.2
363(10) 0.00970 314.2 12.5
344(10) 0.01073 314.2 12.9
334(10) 0.01103 314.2 13.3
341(10) 0.01041 314.2 13.7
350(10) 0.00934 314.2 14.1
339(10) 0.01011 314.2 14.6
359(10) 0.01014 314.2 15.1
349(10) 0.01058 314.3 15.6
346(10) 0.01022 314.3 16.0
369(11) 0.00843 314.3 16.5
345(10) 0.00977 314.3 16.9
312(9) 0.01188 314.3 17.2
313(9) 0.01178 314.3 17.5
295(9) 0.01189 314.3 17.8
310(10) 0.01062 314.3 18.0
317(9) 0.01119 314.3 18.3
332(9) 0.01129 314.3 18.5
322(9) 0.01140 314.4 18.8
330(10) 0.01034 314.4 19.2
351(10) 0.00969 314.4 19.6
336(10) 0.01061 314.4 20.1
333(9) 0.01125 314.4 20.7
344(10) 0.01027 314.4 21.3
321(10) 0.01033 314.4 22.1
350(10) 0.00915 314.4 23.0
348(10) 0.01013 314.4 24.0
321(9) 0.01162 314.5 25.2
327(10) 0.01092 314.5 26.5
352(10) 0.00986 314.5 28.0
337(10) 0.01053 314.5 29.6
353(10) 0.01028 314.5 31.4
337(10) 0.01098 314.5 33.4
375(10) 0.00953 314.5 35.6
341(10) 0.01027 314.5 38.0
349(10) 0.00983 314.5 40.7
356(10) 0.00986 314.5 43.6
339(10) 0.01096 314.6 46.8
374(10) 0.00939 314.6 50.2
342(10) 0.01014 314.6 53.9
349(10) 0.01006 314.6 57.9
374(10) 0.00953 314.6 62.2
375(10) 0.00985 314.6 66.7
381(11) 0.00902 314.6 71.5
408(11) 0.00841 314.6 76.4
410(11) 0.00849 314.6 81.6
393(10) 0.00911 314.7 86.8
400(10) 0.00931 314.7 92.1
420(11) 0.00821 314.7 97.2
381(11) 0.00858 314.7 102.1
382(11) 0.00898 314.7 106.6
392(10) 0.00942 314.7 110.5
387(10) 0.00970 314.7 113.7
427(11) 0.00800 314.7 116.0
417(11) 0.00760 314.7 117.3
399(11) 0.00867 314.7 117.6
401(10) 0.00920 314.8 116.7
412(11) 0.00879 314.8 114.9
408(11) 0.00816 314.8 112.0
408(11) 0.00788 314.8 108.4
377(10) 0.00928 314.8 104.1
385(10) 0.00970 314.8 99.4
369(10) 0.00995 314.8 94.4
385(10) 0.00922 314.8 89.1
373(11) 0.00900 314.8 83.9
373(10) 0.00947 314.9 78.7
357(10) 0.01043 314.9 73.6
357(10) 0.01026 314.9 68.7
380(11) 0.00874 314.9 64.1
382(11) 0.00842 314.9 59.7
381(10) 0.00916 314.9 55.6
385(10) 0.00962 314.9 51.7
352(10) 0.01043 314.9 48.1
348(10) 0.00969 314.9 44.8
350(10) 0.00946 314.9 41.8
354(10) 0.00983 315.0 39.0
331(9) 0.01118 315.0 36.4
336(10) 0.01060 315.0 34.0
334(10) 0.01047 315.0 31.9
345(10) 0.00988 315.0 29.9
329(10) 0.01054 315.0 28.2
334(9) 0.01115 315.0 26.5
344(10) 0.01022 315.0 25.1
330(10) 0.01047 315.0 23.8
359(10) 0.00931 315.1 22.6
320(9) 0.01118 315.1 21.5
329(9) 0.01137 315.1 20.5
334(10) 0.01068 315.1 19.6
332(10) 0.01028 315.1 18.7
317(10) 0.01079 315.1 18.0
317(9) 0.01148 315.1 17.3
336(9) 0.01110 315.1 16.7
331(10) 0.01053 315.1 16.1
335(10) 0.00991 315.2 15.6
335(10) 0.01021 315.2 15.1
322(9) 0.01117 315.2 14.7
299(9) 0.01248 315.2 14.3
314(9) 0.01174 315.2 13.9
329(10) 0.01045 315.2 13.6
322(10) 0.01088 315.2 13.3
329(9) 0.01121 315.2 13.0
319(9) 0.01160 315.2 12.7
324(10) 0.01077 315.2 12.5
299(9) 0.01144 315.3 12.3
311(9) 0.01149 315.3 12.1
310(9) 0.01180 315.3 11.9
311(9) 0.01192 315.3 11.7
338(10) 0.01029 315.3 11.6
319(10) 0.01000 315.3 11.4
297(9) 0.01165 315.3 11.3
325(9) 0.01118 315.3 11.2
348(10) 0.01055 315.3 11.1
334(10) 0.01019 315.4 11.0
332(10) 0.00982 315.4 11.0
332(10) 0.01080 315.4 10.9
324(9) 0.01156 315.4 10.9
357(10) 0.01047 315.4 10.8
312(9) 0.01129 315.4 10.8
287(9) 0.01161 315.4 10.8
311(10) 0.01077 315.4 10.8
337(9) 0.01108 315.4 10.8
316(9) 0.01143 315.4 10.8
299(9) 0.01165 315.5 10.9
341(10) 0.00959 315.5 10.9
319(10) 0.01086 315.5 11.0
337(10) 0.01100 315.5 11.1
342(10) 0.01061 315.5 11.1
335(10) 0.01040 315.5 11.2
316(10) 0.01055 315.5 11.3
362(10) 0.00988 315.5 11.5
336(10) 0.01102 315.5 11.6
319(9) 0.01110 315.6 11.7
345(10) 0.00972 315.6 11.9
319(10) 0.01071 315.6 12.1
323(10) 0.01089 315.6 12.3
312(9) 0.01187 315.6 12.5
330(10) 0.01092 315.6 12.7
326(10) 0.01052 315.6 12.9
317(10) 0.01082 315.6 13.2
341(10) 0.01032 315.6 13.5
343(10) 0.01085 315.6 13.8
333(10) 0.01044 315.7 14.1
311(10) 0.01098 315.7 14.5
351(10) 0.01004 315.7 14.9
351(10) 0.01029 315.7 15.3
332(9) 0.01140 315.7 15.7
333(10) 0.01079 315.7 16.2
356(10) 0.00908 315.7 16.7
337(10) 0.01031 315.7 17.3
334(10) 0.01096 315.7 17.9
353(10) 0.01051 315.8 18.6
347(10) 0.01001 315.8 19.3
361(11) 0.00895 315.8 20.1
348(10) 0.01029 315.8 20.9
325(9) 0.01140 315.8 21.8
342(10) 0.01090 315.8 22.8
335(10) 0.01006 315.8 23.9
324(10) 0.00997 315.8 25.1
331(10) 0.01065 315.8 26.4
353(10) 0.01041 315.8 27.8
326(9) 0.01151 315.9 29.4
357(10) 0.00974 315.9 31.0
349(10) 0.00947 315.9 32.8
342(10) 0.01047 315.9 34.8
354(10) 0.01052 315.9 36.9
340(10) 0.01088 315.9 39.2
371(10) 0.00944 315.9 41.7
365(10) 0.00933 315.9 44.3
378(10) 0.00921 315.9 47.2
386(10) 0.00955 316.0 50.2
349(10) 0.01064 316.0 53.5
384(11) 0.00902 316.0 56.9
406(11) 0.00825 316.0 60.5
394(11) 0.00851 316.0 64.3
406(10) 0.00912 316.0 68.3
377(10) 0.00970 316.0 72.4
416(11) 0.00819 316.0 76.6
426(11) 0.00776 316.0 80.8
403(11) 0.00870 316.0 85.0
410(11) 0.00898 316.1 89.2
408(11) 0.00902 316.1 93.2
421(11) 0.00821 316.1 96.9
413(11) 0.00803 316.1 100.4
421(11) 0.00840 316.1 103.6
431(11) 0.00860 316.1 106.3
412(11) 0.00867 316.1 108.7
394(11) 0.00873 316.1 110.6
442(12) 0.00747 316.1 112.0
413(11) 0.00874 316.2 113.0
413(11) 0.00897 316.2 113.5
445(11) 0.00771 316.2 113.5
445(12) 0.00734 316.2 113.1
441(11) 0.00758 316.2 112.2
404(10) 0.00908 316.2 110.8
417(11) 0.00890 316.2 109.0
432(11) 0.00785 316.2 106.8
424(11) 0.00773 316.2 104.2
416(11) 0.00832 316.3 101.2
431(11) 0.00846 316.3 97.9
409(11) 0.00894 316.3 94.4
404(11) 0.00871 316.3 90.7
377(11) 0.00891 316.3 86.8
388(11) 0.00900 316.3 82.9
404(11) 0.00897 316.3 79.0
365(10) 0.01034 316.3 75.1
369(10) 0.00945 316.3 71.2
375(11) 0.00869 316.3 67.4
373(10) 0.00915 316.4 63.8
364(10) 0.01020 316.4 60.3
366(10) 0.01015 316.4 56.9
332(10) 0.01044 316.4 53.7
357(10) 0.00916 316.4 50.7
374(10) 0.00948 316.4 47.8
333(9) 0.01119 316.4 45.1
336(10) 0.01085 316.4 42.6
345(10) 0.00999 316.4 40.2
362(11) 0.00892 316.5 38.0
349(10) 0.00963 316.5 35.9
334(9) 0.01114 316.5 33.9
324(9) 0.01114 316.5 32.1
346(10) 0.00997 316.5 30.4
332(10) 0.01031 316.5 28.9
349(10) 0.00990 316.5 27.4
347(10) 0.01060 316.5 26.1
350(10) 0.01040 316.5 24.8
327(10) 0.01073 316.5 23.6
355(10) 0.00949 316.6 22.6
336(10) 0.01057 316.6 21.6
307(9) 0.01218 316.6 20.6
337(10) 0.01051 316.6 19.8
316(10) 0.01101 316.6 19.0
343(10) 0.00982 316.6 18.2
352(10) 0.01022 316.6 17.6
332(9) 0.01119 316.6 16.9
322(9) 0.01109 316.6 16.4
329(10) 0.01054 316.7 15.9
326(10) 0.01051 316.7 15.4
347(10) 0.01015 316.7 14.9
303(9) 0.01231 316.7 14.5
324(10) 0.01066 316.7 14.0
311(10) 0.01101 316.7 13.7
353(10) 0.00982 316.7 13.3
334(10) 0.01087 316.7 13.0
344(10) 0.01063 316.7 12.7
317(10) 0.01096 316.7 12.4
324(10) 0.01035 316.8 12.1
347(10) 0.01009 316.8 11.9
331(10) 0.01099 316.8 11.7
312(9) 0.01191 316.8 11.5
339(10) 0.01004 316.8 11.3
324(10) 0.01003 316.8 11.1
309(9) 0.01138 316.8 10.9
315(9) 0.01180 316.8 10.8
330(9) 0.01128 316.8 10.7
314(10) 0.01098 316.9 10.5
317(10) 0.01001 316.9 10.4
324(10) 0.01090 316.9 10.3
324(9) 0.01157 316.9 10.3
329(9) 0.01123 316.9 10.2
329(10) 0.01076 316.9 10.1
333(10) 0.00936 317.0 10.1
334(10) 0.01040 317.0 10.1
351(10) 0.01054 317.0 10.1
335(10) 0.01086 317.1 10.1
313(10) 0.01087 317.1 10.1
314(10) 0.01039 317.1 10.1
314(9) 0.01127 317.2 10.2
341(10) 0.01093 317.2 10.2
331(10) 0.01089 317.2 10.4
341(10) 0.00979 317.3 10.5
330(10) 0.01013 317.3 10.6
329(10) 0.01049 317.3 10.8
330(9) 0.01111 317.3 11.0
332(9) 0.01108 317.4 11.3
316(10) 0.01082 317.4 11.6
334(10) 0.00957 317.4 12.0
342(10) 0.01022 317.5 12.6
338(10) 0.01108 317.5 13.6
295(9) 0.01205 317.5 15.4
362(10) 0.00944 317.6 19.1
353(10) 0.00978 317.6 26.2
366(10) 0.00962 317.6 38.3
351(10) 0.01061 317.7 55.9
376(10) 0.00936 317.7 77.2
410(11) 0.00806 317.7 97.1
402(11) 0.00864 317.8 107.9
432(11) 0.00823 317.8 104.1
380(10) 0.00977 317.8 88.2
399(11) 0.00847 317.8 67.5
368(10) 0.00943 317.9 48.6
341(10) 0.01021 317.9 34.7
318(9) 0.01119 317.9 26.3
342(10) 0.01076 318.0 22.1
334(10) 0.01047 318.0 20.5
326(10) 0.01028 318.0 20.1
320(10) 0.01075 318.1 20.4
310(9) 0.01197 318.1 20.9
354(10) 0.01039 318.1 21.6
340(10) 0.01035 318.2 22.5
342(10) 0.00954 318.2 23.4
350(10) 0.00988 318.2 24.5
312(9) 0.01175 318.3 25.7
339(10) 0.01079 318.3 26.9
357(10) 0.00957 318.3 28.3
358(11) 0.00893 318.4 29.8
344(10) 0.01007 318.4 31.3
366(10) 0.00999 318.4 32.9
336(10) 0.01104 318.4 34.6
357(10) 0.00987 318.5 36.4
380(11) 0.00828 318.5 38.2
354(10) 0.00943 318.5 40.1
380(10) 0.00967 318.6 41.9
378(10) 0.00976 318.6 43.8
385(10) 0.00918 318.6 45.6
392(11) 0.00814 318.7 47.3
379(10) 0.00928 318.7 49.0
380(10) 0.00955 318.7 50.4
390(10) 0.00937 318.8 51.7
381(11) 0.00899 318.8 52.8
375(11) 0.00872 318.8 53.5
395(11) 0.00862 318.9 54.0
396(10) 0.00934 318.9 54.2
357(10) 0.01025 318.9 54.0
367(10) 0.00933 319.0 53.6
335(10) 0.01035 319.0 52.8
364(10) 0.00954 319.0 51.8
378(10) 0.00968 319.0 50.5
367(10) 0.00976 319.1 49.0
370(10) 0.00929 319.1 47.3
381(11) 0.00883 319.1 45.6
376(10) 0.00943 319.2 43.8
372(10) 0.01009 319.2 41.9
371(10) 0.00956 319.2 39.9
373(11) 0.00902 319.3 38.0
350(10) 0.00974 319.3 36.1
360(10) 0.00994 319.3 34.2
335(10) 0.01106 319.4 32.4
361(10) 0.00958 319.4 30.7
355(10) 0.00938 319.4 29.1
325(10) 0.01047 319.5 27.5
352(10) 0.00989 319.5 26.0
350(10) 0.01060 319.5 24.6
336(10) 0.01009 319.5 23.2
346(10) 0.00963 319.6 22.0
357(10) 0.00982 319.6 20.8
354(10) 0.01021 319.6 19.7
351(10) 0.01059 319.7 18.7
347(10) 0.00965 319.7 17.7
335(10) 0.00957 319.7 16.8
327(10) 0.01071 319.8 16.0
336(10) 0.01091 319.8 15.2
345(10) 0.01076 319.8 14.5
339(10) 0.01043 319.9 13.9
338(10) 0.00947 319.9 13.3
302(9) 0.01163 319.9 12.7
339(10) 0.01062 320.0 12.2
338(10) 0.01091 320.0 11.8
304(9) 0.01130 320.0 11.3
328(10) 0.00964 320.1 11.0
351(10) 0.01010 320.1 10.6
328(9) 0.01127 320.1 10.3
315(9) 0.01174 320.1 10.0
312(10) 0.01101 320.2 9.8
328(10) 0.00978 320.2 9.5
341(10) 0.01020 320.2 9.3
303(9) 0.01208 320.3 9.1
324(9) 0.01111 320.3 9.0
361(10) 0.00928 320.3 8.8
319(10) 0.01035 320.4 8.7
345(10) 0.01010 320.4 8.6
336(9) 0.01109 320.4 8.5
325(9) 0.01147 320.5 8.4
343(10) 0.01007 320.5 8.3
350(10) 0.00943 320.5 8.2
323(10) 0.01075 320.6 8.1
315(9) 0.01167 320.6 8.0
313(9) 0.01145 320.6 7.9
337(10) 0.01022 320.6 7.8
320(10) 0.01089 320.7 7.7
329(10) 0.01044 320.7 7.5
309(9) 0.01210 320.7 7.4
325(10) 0.01096 320.8 7.3
315(9) 0.01118 320.8 7.1
327(10) 0.01033 320.8 7.0
325(10) 0.01093 320.9 6.9
301(9) 0.01233 320.9 6.7
312(9) 0.01150 320.9 6.6
327(10) 0.01056 321.0 6.5
321(10) 0.01062 321.0 6.4
298(9) 0.01205 321.0 6.3
289(9) 0.01272 321.1 6.2
304(9) 0.01145 321.1 6.2
332(10) 0.01035 321.1 6.2
349(10) 0.01010 321.2 6.1
328(9) 0.01124 321.2 6.2
324(9) 0.01147 321.2 6.2
314(10) 0.01086 321.2 6.2
335(10) 0.00981 321.3 6.3
327(10) 0.01067 321.3 6.5
318(9) 0.01125 321.3 6.6
329(9) 0.01141 321.4 6.8
352(10) 0.00978 321.4 7.1
334(10) 0.00994 321.4 7.5
328(10) 0.01077 321.5 8.0
319(9) 0.01133 321.5 8.7
328(9) 0.01133 321.5 9.8
332(10) 0.01053 321.6 11.6
358(11) 0.00870 321.6 14.7
355(10) 0.00980 321.6 20.2
380(10) 0.00983 321.7 29.6
385(10) 0.00963 321.7 44.2
440(11) 0.00795 321.7 64.4
449(12) 0.00732 321.7 88.8
504(12) 0.00696 321.8 113.2
539(12) 0.00696 321.8 130.3
534(12) 0.00681 321.8 132.3
476(12) 0.00730 321.9 118.2
399(11) 0.00842 321.9 94.7
402(11) 0.00900 321.9 69.8
407(10) 0.00911 322.0 48.4
352(10) 0.01026 322.0 32.5
347(10) 0.01000 322.0 22.0
361(10) 0.00921 322.1 15.7
352(10) 0.00989 322.1 12.1
311(9) 0.01207 322.1 10.0
344(10) 0.01058 322.2 8.8
312(9) 0.01156 322.2 8.1
325(10) 0.01039 322.2 7.5
333(10) 0.01046 322.3 7.1
315(9) 0.01177 322.3 6.8
314(9) 0.01121 322.3 6.5
327(10) 0.01043 322.3 6.3
340(10) 0.00993 322.4 6.2
330(10) 0.01105 322.4 6.1
324(9) 0.01148 322.4 6.0
322(9) 0.01118 322.5 5.9
327(10) 0.01065 322.5 5.9
322(10) 0.01050 322.5 5.9
340(10) 0.01067 322.6 5.9
326(9) 0.01132 322.6 5.9
326(10) 0.01055 322.6 6.0
338(10) 0.01010 322.7 6.0
306(9) 0.01126 322.7 6.1
326(10) 0.01067 322.7 6.2
324(9) 0.01140 322.8 6.2
308(9) 0.01124 322.8 6.3
302(10) 0.01102 322.8 6.4
324(10) 0.00981 322.9 6.6
315(9) 0.01156 322.9 6.7
309(9) 0.01208 322.9 6.8
318(10) 0.01087 322.9 6.9
340(10) 0.00958 323.0 7.0
340(10) 0.01020 323.0 7.2
328(9) 0.01111 323.0 7.3
303(9) 0.01241 323.1 7.4
319(9) 0.01138 323.1 7.6
322(10) 0.01043 323.1 7.7
330(10) 0.01047 323.2 7.8
335(10) 0.01098 323.2 7.9
321(9) 0.01118 323.2 8.0
350(10) 0.00981 323.3 8.1
329(10) 0.00987 323.3 8.2
315(10) 0.01100 323.3 8.3
335(9) 0.01116 323.4 8.3
318(9) 0.01164 323.4 8.4
331(10) 0.01047 323.4 8.5
330(10) 0.00990 323.4 8.6
323(10) 0.01067 323.5 8.7
326(9) 0.01150 323.5 9.0
319(10) 0.01103 323.5 9.5
315(10) 0.01063 323.6 10.4
322(10) 0.01046 323.6 11.7
331(10) 0.01031 323.6 13.6
338(10) 0.01086 323.7 16.2
364(10) 0.01012 323.7 19.1
379(10) 0.00918 323.7 21.8
386(11) 0.00875 323.8 23.5
365(10) 0.00968 323.8 23.3
357(10) 0.01036 323.8 21.2
359(10) 0.00968 323.9 18.2
348(10) 0.00994 323.9 15.0
348(10) 0.00969 323.9 12.3
338(10) 0.00961 324.0 10.2
347(10) 0.01062 324.0 8.8
315(9) 0.01141 324.0 7.8
335(10) 0.01028 324.0 7.2
350(10) 0.00992 324.1 6.8
313(9) 0.01126 324.1 6.6
327(9) 0.01139 324.1 6.4
305(9) 0.01128 324.2 6.2
327(10) 0.01016 324.2 6.1
326(10) 0.01063 324.2 6.0
342(10) 0.01055 324.3 6.0
312(9) 0.01192 324.3 5.9
319(10) 0.01057 324.3 5.9
325(10) 0.01042 324.4 5.9
337(10) 0.01021 324.4 6.0
333(9) 0.01111 324.4 6.0
313(9) 0.01194 324.5 6.1
311(10) 0.01089 324.5 6.1
335(10) 0.00986 324.5 6.2
317(9) 0.01128 324.5 6.4
328(9) 0.01134 324.6 6.5
334(9) 0.01118 324.6 6.7
316(10) 0.01094 324.6 6.8
315(10) 0.00977 324.7 7.0
308(10) 0.01074 324.7 7.3
326(9) 0.01139 324.7 7.5
334(9) 0.01113 324.8 7.7
339(10) 0.01013 324.8 8.0
334(10) 0.00967 324.8 8.3
349(10) 0.00992 324.9 8.5
331(9) 0.01129 324.9 8.8
297(9) 0.01255 324.9 9.1
307(9) 0.01136 325.0 9.3
346(10) 0.00959 325.0 9.5
348(10) 0.01012 325.0 9.7
359(10) 0.01035 325.1 9.9
335(10) 0.01104 325.1 10.0
316(9) 0.01124 325.1 10.0
347(10) 0.00912 325.1 10.0
349(10) 0.00987 325.2 10.0
341(10) 0.01088 325.2 9.9
349(10) 0.01055 325.2 9.7
313(9) 0.01123 325.3 9.5
319(10) 0.01073 325.3 9.3
343(10) 0.01016 325.3 9.1
329(9) 0.01134 325.4 8.8
327(9) 0.01119 325.4 8.6
320(10) 0.01045 325.4 8.3
324(10) 0.01032 325.5 8.0
347(10) 0.00997 325.5 7.8
308(9) 0.01189 325.5 7.6
347(10) 0.01020 325.5 7.4
311(10) 0.01095 325.5 7.2
338(10) 0.00995 325.5 7.0
329(10) 0.01105 325.5 6.8
336(10) 0.01106 325.5 6.7
337(10) 0.01050 325.5 6.6
335(10) 0.00985 325.4 6.5
329(10) 0.01083 325.4 6.4
341(10) 0.01057 325.4 6.3
307(9) 0.01204 325.4 6.3
327(10) 0.01051 325.4 6.3
326(10) 0.01020 325.4 6.3
332(10) 0.01044 325.3 6.3
339(10) 0.01085 325.3 6.3
331(9) 0.01128 325.3 6.4
330(10) 0.01076 325.3 6.5
341(10) 0.00951 325.3 6.6
317(10) 0.01080 325.3 6.8
308(9) 0.01185 325.3 6.9
318(9) 0.01168 325.2 7.1
339(10) 0.01021 325.2 7.3
307(10) 0.01064 325.2 7.6
289(9) 0.01175 325.2 7.8
318(9) 0.01146 325.2 8.1
344(10) 0.01062 325.2 8.4
333(10) 0.01043 325.1 8.8
323(10) 0.01022 325.1 9.2
328(10) 0.01049 325.1 9.6
322(9) 0.01175 325.1 10.1
315(9) 0.01159 325.1 10.5
314(10) 0.01086 325.1 11.1
333(10) 0.00992 325.1 11.6
338(10) 0.01024 325.0 12.2
325(9) 0.01154 325.0 12.8
319(9) 0.01152 325.0 13.4
317(10) 0.01074 325.0 14.1
346(10) 0.00971 325.0 14.7
362(10) 0.00961 325.0 15.4
371(10) 0.01001 324.9 16.1
331(10) 0.01082 324.9 16.8
346(10) 0.00953 324.9 17.4
348(10) 0.00961 324.9 18.0
332(10) 0.01064 324.9 18.6
357(10) 0.01038 324.9 19.1
332(10) 0.01087 324.8 19.6
337(10) 0.01039 324.8 20.0
325(10) 0.01039 324.8 20.2
321(10) 0.01057 324.8 20.4
339(10) 0.01094 324.8 20.4
338(10) 0.01057 324.8 20.4
339(10) 0.00990 324.8 20.3
335(10) 0.01006 324.7 20.1
341(10) 0.01038 324.7 19.9
329(9) 0.01127 324.7 19.7
328(10) 0.01082 324.7 19.4
365(10) 0.00925 324.7 19.2
355(10) 0.00953 324.7 19.0
317(9) 0.01129 324.6 18.9
359(10) 0.01036 324.6 18.9
335(10) 0.01047 324.6 19.1
346(10) 0.00966 324.6 19.6
329(10) 0.01047 324.6 20.5
329(9) 0.01117 324.6 22.2
336(10) 0.01086 324.6 24.8
342(10) 0.01029 324.5 28.8
332(10) 0.01032 324.5 34.4
352(10) 0.00980 324.5 42.0
353(10) 0.01034 324.5 51.5
365(10) 0.01021 324.5 62.6
360(10) 0.00968 324.5 74.2
350(10) 0.01002 324.4 84.2
406(11) 0.00832 324.4 90.0
380(10) 0.00980 324.4 89.6
407(10) 0.00910 324.4 83.2
371(10) 0.00928 324.4 73.3
364(11) 0.00877 324.4 62.2
347(10) 0.01018 324.4 51.2
372(10) 0.01006 324.3 41.4
339(10) 0.01075 324.3 33.2
355(10) 0.00979 324.3 26.7
373(11) 0.00871 324.3 21.9
373(10) 0.00956 324.3 18.3
338(10) 0.01095 324.3 15.8
342(10) 0.01086 324.2 14.0
329(10) 0.01041 324.2 12.8
310(10) 0.01066 324.2 11.9
348(10) 0.00987 324.2 11.2
335(9) 0.01108 324.2 10.7
356(10) 0.01025 324.2 10.3
325(10) 0.01084 324.2 10.1
345(10) 0.00965 324.1 9.9
328(10) 0.01066 324.1 9.8
321(9) 0.01155 324.1 9.8
337(10) 0.01070 324.1 9.8
335(10) 0.01038 324.1 9.9
325(10) 0.01015 324.1 10.1
313(10) 0.01068 324.0 10.3
308(9) 0.01204 324.0 10.6
346(10) 0.00995 324.0 11.1
310(10) 0.01090 324.0 11.7
344(10) 0.00970 324.0 12.4
342(10) 0.01039 324.0 13.4
325(9) 0.01141 323.9 14.7
333(10) 0.01065 323.9 16.2
321(10) 0.01097 323.9 18.1
332(10) 0.01064 323.9 20.5
362(10) 0.00969 323.9 23.3
335(9) 0.01113 323.9 26.6
338(10) 0.01032 323.9 30.2
367(10) 0.00907 323.8 34.2
362(10) 0.00956 323.8 38.1
339(10) 0.01070 323.8 41.5
342(10) 0.01090 323.8 44.0
341(10) 0.01019 323.8 44.9
327(10) 0.01037 323.8 44.2
379(11) 0.00882 323.7 41.9
356(10) 0.01020 323.7 38.6
347(10) 0.01079 323.7 34.8
349(10) 0.00995 323.7 31.0
347(10) 0.00931 323.7 27.4
316(9) 0.01113 323.7 24.2
347(10) 0.01043 323.7 21.5
334(9) 0.01115 323.6 19.2
312(9) 0.01113 323.6 17.3
326(10) 0.01038 323.6 15.7
308(9) 0.01152 323.6 14.4
292(9) 0.01275 323.6 13.4
331(9) 0.01111 323.6 12.6
332(10) 0.01021 323.5 11.9
355(11) 0.00863 323.5 11.3
339(10) 0.01011 323.5 10.8
319(9) 0.01166 323.5 10.3
311(9) 0.01167 323.5 9.9
333(10) 0.01036 323.5 9.6
307(10) 0.01100 323.5 9.3
323(9) 0.01161 323.4 9.0
329(9) 0.01114 323.4 8.7
304(9) 0.01148 323.4 8.4
304(10) 0.01086 323.4 8.1
324(10) 0.01068 323.4 7.8
323(9) 0.01174 323.4 7.6
335(10) 0.01070 323.3 7.3
305(9) 0.01114 323.3 7.2
351(10) 0.00927 323.3 6.9
344(10) 0.01035 323.3 6.7
356(10) 0.01052 323.3 6.5
335(10) 0.01065 323.3 6.3
311(9) 0.01157 323.2 6.1
337(10) 0.01019 323.2 6.0
331(10) 0.01092 323.2 5.8
345(10) 0.01079 323.2 5.7
306(9) 0.01160 323.2 5.5
347(10) 0.00961 323.2 5.4
322(10) 0.01060 323.2 5.2
307(9) 0.01190 323.1 5.1
330(9) 0.01121 323.1 5.0
324(10) 0.01098 323.1 4.9
346(10) 0.00964 323.1 4.8
322(10) 0.01095 323.1 4.7
296(9) 0.01189 323.1 4.6
321(9) 0.01153 323.0 4.5
305(9) 0.01148 323.0 4.4
319(10) 0.01017 323.0 4.3
345(10) 0.00957 323.0 4.3
345(10) 0.01056 323.0 4.2
331(9) 0.01139 323.0 4.1
315(9) 0.01117 323.0 4.1
313(10) 0.01088 322.9 4.0
322(10) 0.01055 322.9 4.0
307(9) 0.01181 322.9 3.9
338(10) 0.01096 322.9 3.9
312(9) 0.01130 322.9 3.9
324(10) 0.01000 322.9 3.8
316(10) 0.01099 322.8 3.8
343(10) 0.01061 322.8 3.8
319(9) 0.01169 322.8 3.7
337(10) 0.01010 322.8 3.7
319(10) 0.00987 322.8 3.7
312(9) 0.01143 322.8 3.7
346(10) 0.01067 322.8 3.7
333(9) 0.01118 322.7 3.7
340(10) 0.01030 322.7 3.6
336(10) 0.00970 322.7 3.6
344(10) 0.01015 322.7 3.6
321(9) 0.01147 322.7 3.6
324(9) 0.01131 322.7 3.7
330(10) 0.01074 322.6 3.7
290(9) 0.01193 322.6 3.7
316(9) 0.01119 322.6 3.7
313(9) 0.01187 322.6 3.7
313(9) 0.01174 322.6 3.7
338(10) 0.01008 322.6 3.7
348(10) 0.00953 322.6 3.8
311(9) 0.01121 322.5 3.8
310(9) 0.01204 322.5 3.8
331(10) 0.01084 322.5 3.9
338(10) 0.00978 322.5 3.9
329(10) 0.01023 322.5 3.9
319(9) 0.01114 322.5 4.0
313(9) 0.01193 322.4 4.0
326(9) 0.01112 322.4 4.1
329(10) 0.01010 322.4 4.1
315(10) 0.01092 322.4 4.2
313(9) 0.01135 322.4 4.2
326(9) 0.01120 322.4 4.3
318(9) 0.01127 322.3 4.4
312(10) 0.01013 322.3 4.4
322(10) 0.01015 322.3 4.5
329(10) 0.01035 322.3 4.6
318(9) 0.01190 322.3 4.7
317(10) 0.01094 322.3 4.8
318(10) 0.01053 322.3 4.9
320(10) 0.01089 322.2 5.0
322(9) 0.01120 322.2 5.1
319(9) 0.01169 322.2 5.2
323(10) 0.01066 322.2 5.3
336(10) 0.00945 322.2 5.5
316(9) 0.01117 322.2 5.6
340(10) 0.01063 322.1 5.7
321(9) 0.01143 322.1 5.9
337(10) 0.00997 322.1 6.1
310(10) 0.01055 322.1 6.3
310(9) 0.01113 322.1 6.5
312(9) 0.01192 322.1 6.7
330(9) 0.01127 322.1 6.9
354(10) 0.00983 322.0 7.2
332(10) 0.00979 322.0 7.3
344(10) 0.01014 322.0 7.6
333(9) 0.01116 322.0 7.9
342(10) 0.01074 322.0 8.2
327(10) 0.01053 322.0 8.5
343(10) 0.00917 321.9 8.8
325(9) 0.01122 321.9 9.2
351(10) 0.01071 321.9 9.7
327(9) 0.01112 321.9 10.1
327(10) 0.01068 321.9 10.6
361(10) 0.00911 321.9 11.2
352(10) 0.00975 321.9 11.8
335(9) 0.01110 321.8 12.5
348(10) 0.01055 321.8 13.3
324(10) 0.01103 321.8 14.1
374(11) 0.00884 321.8 15.1
342(10) 0.01025 321.8 16.2
328(9) 0.01130 321.8 17.6
356(10) 0.01023 321.7 19.1
360(10) 0.00969 321.7 21.0
347(10) 0.00958 321.7 23.4
368(10) 0.00924 321.7 26.6
360(10) 0.01026 321.7 31.1
345(10) 0.01002 321.7 37.6
392(11) 0.00867 321.7 46.8
380(10) 0.00925 321.6 59.8
413(11) 0.00861 321.6 77.5
428(11) 0.00872 321.6 100.3
478(12) 0.00740 321.6 127.7
473(12) 0.00726 321.6 157.8
507(12) 0.00679 321.6 186.9
523(12) 0.00689 321.5 211.7
541(12) 0.00690 321.5 231.2
525(12) 0.00670 321.5 246.0
543(13) 0.00607 321.5 253.2
506(12) 0.00681 321.5 248.4
487(12) 0.00742 321.5 230.7
470(11) 0.00789 321.4 205.8
452(12) 0.00750 321.4 181.0
494(12) 0.00682 321.4 160.8
472(12) 0.00732 321.4 146.5
441(11) 0.00820 321.4 136.8
451(11) 0.00820 321.4 129.3
417(11) 0.00850 321.4 121.8
443(12) 0.00748 321.3 114.4
416(11) 0.00854 321.3 108.0
417(11) 0.00892 321.3 103.9
408(11) 0.00899 321.3 102.4
379(10) 0.00915 321.3 103.7
408(11) 0.00804 321.3 107.3
429(11) 0.00805 321.2 112.7
413(10) 0.00913 321.2 118.9
446(11) 0.00826 321.2 124.6
450(11) 0.00784 321.2 128.7
469(12) 0.00701 321.2 130.1
473(12) 0.00728 321.2 128.2
424(11) 0.00871 321.2 123.1
452(11) 0.00819 321.1 115.3
425(11) 0.00823 321.1 105.8
423(11) 0.00769 321.1 95.5
408(11) 0.00854 321.1 85.3
406(10) 0.00917 321.1 75.4
372(10) 0.00981 321.1 66.4
371(10) 0.00942 321.0 58.2
361(11) 0.00886 321.0 51.1
367(10) 0.00929 321.0 44.8
352(10) 0.01065 321.0 39.4
343(10) 0.01054 321.0 34.9
378(11) 0.00888 321.0 31.0
351(10) 0.00963 321.0 27.8
327(10) 0.01053 320.9 25.0
356(10) 0.01043 320.9 22.7
371(10) 0.00946 320.9 20.8
347(10) 0.01002 320.9 19.2
329(10) 0.01039 320.9 17.8
335(10) 0.00983 320.9 16.6
330(9) 0.01126 320.8 15.5
357(10) 0.01003 320.8 14.6
318(10) 0.01059 320.8 13.8
333(10) 0.01006 320.8 13.1
349(10) 0.00993 320.8 12.4
355(10) 0.01054 320.8 11.9
342(10) 0.01015 320.8 11.3
350(10) 0.00962 320.7 10.9
320(10) 0.01060 320.7 10.5
339(10) 0.01075 320.7 10.1
339(10) 0.01094 320.7 9.7
347(10) 0.00994 320.7 9.4
368(10) 0.00907 320.7 9.1
328(10) 0.01104 320.6 9.1
338(10) 0.01072 320.6 8.8
308(9) 0.01213 320.6 8.6
355(10) 0.00955 320.6 8.4
322(10) 0.01038 320.6 8.3
332(10) 0.01058 320.6 8.1
347(10) 0.01052 320.5 8.1
345(10) 0.01082 320.5 8.0
341(10) 0.01023 320.5 7.9
347(10) 0.00977 320.5 7.8
329(10) 0.01060 320.5 7.8
350(10) 0.01028 320.5 7.8
354(10) 0.01053 320.5 7.8
339(10) 0.01024 320.4 7.8
351(11) 0.00896 320.4 7.9
320(10) 0.01098 320.4 8.0
341(10) 0.01093 320.4 8.1
339(9) 0.01108 320.4 8.3
328(10) 0.01048 320.4 8.6
312(10) 0.01049 320.3 9.0
333(10) 0.01056 320.3 9.5
317(9) 0.01179 320.3 10.2
330(10) 0.01096 320.3 11.0
354(10) 0.00958 320.3 11.9
350(10) 0.00932 320.3 13.1
335(10) 0.01016 320.3 14.5
324(9) 0.01154 320.2 16.1
349(10) 0.01030 320.2 17.8
337(10) 0.01037 320.2 19.5
345(10) 0.00968 320.2 21.2
346(10) 0.00998 320.2 22.4
323(9) 0.01144 320.2 23.1
347(10) 0.01048 320.1 23.1
340(10) 0.01010 320.1 22.3
330(10) 0.01015 320.1 21.0
313(9) 0.01138 320.1 19.3
320(9) 0.01154 320.1 17.6
327(10) 0.01104 320.1 16.0
327(10) 0.01039 320.1 14.5
350(10) 0.00967 320.0 13.1
331(9) 0.01112 320.0 12.0
342(10) 0.01089 320.0 11.1
338(10) 0.01024 320.0 10.4
350(10) 0.00935 320.0 9.8
323(10) 0.01051 320.0 9.3
352(10) 0.01008 319.9 9.0
336(10) 0.01106 319.9 8.8
321(10) 0.01087 319.9 8.6
345(10) 0.00941 319.9 8.5
309(9) 0.01125 319.9 8.4
344(10) 0.01064 319.9 8.4
329(9) 0.01121 319.8 8.4
337(10) 0.01022 319.8 8.4
331(10) 0.01024 319.8 8.4
367(11) 0.00896 319.8 8.5
329(9) 0.01123 319.8 8.5
319(9) 0.01181 319.8 8.6
321(10) 0.01094 319.9 8.7
345(10) 0.00955 320.0 8.8
340(10) 0.01013 320.1 9.0
355(10) 0.01023 320.2 9.1
309(9) 0.01203 320.3 9.3
312(9) 0.01128 320.4 9.4
343(10) 0.00955 320.5 9.6
334(10) 0.01036 320.5 9.8
320(9) 0.01160 320.6 10.0
319(9) 0.01170 320.7 10.2
320(10) 0.01063 320.8 10.4
309(10) 0.01049 320.9 10.7
325(10) 0.01068 321.0 10.9
328(9) 0.01142 321.1 11.2
337(10) 0.01064 321.2 11.5
328(10) 0.01042 321.3 11.8
327(10) 0.01030 321.3 12.1
333(10) 0.01041 321.4 12.4
334(9) 0.01118 321.5 12.8
327(9) 0.01124 321.6 13.1
357(10) 0.00934 321.7 13.5
345(10) 0.00998 321.8 13.9
337(10) 0.01044 321.9 14.3
332(9) 0.01123 322.0 14.7
335(10) 0.01057 322.1 15.2
347(10) 0.01010 322.1 15.6
327(10) 0.01086 322.2 16.1
355(10) 0.01009 322.3 16.5
347(10) 0.01065 322.4 17.0
338(10) 0.01072 322.5 17.4
369(11) 0.00881 322.6 17.9
355(10) 0.00953 322.7 18.3
358(10) 0.00980 322.8 18.7
363(10) 0.01035 322.9 19.1
311(9) 0.01144 323.0 19.5
341(10) 0.01011 323.0 19.9
356(10) 0.00992 323.1 20.3
326(9) 0.01121 323.2 20.7
335(10) 0.01106 323.3 21.1
353(10) 0.00979 323.4 21.6
357(10) 0.00953 323.5 22.1
340(10) 0.01001 323.6 22.6
335(10) 0.01046 323.7 23.1
333(9) 0.01120 323.8 23.7
349(10) 0.00983 323.8 24.4
332(10) 0.01010 323.9 25.1
358(10) 0.00987 324.0 25.8
373(10) 0.00979 324.1 26.7
361(10) 0.01037 324.2 27.6
382(11) 0.00871 324.3 28.7
375(11) 0.00872 324.4 29.8
351(10) 0.00983 324.5 31.1
360(10) 0.01027 324.6 32.6
355(10) 0.01045 324.7 34.3
375(11) 0.00907 324.7 36.2
363(10) 0.00917 324.8 38.4
359(10) 0.00992 324.9 40.9
356(10) 0.01040 325.0 44.0
368(10) 0.01013 325.1 47.7
402(11) 0.00871 325.2 52.5
406(11) 0.00823 325.3 58.7
405(11) 0.00836 325.4 67.0
381(10) 0.00972 325.5 78.2
418(11) 0.00882 325.5 93.0
461(12) 0.00738 325.6 112.4
435(11) 0.00758 325.7 136.6
453(12) 0.00747 325.8 165.3
494(12) 0.00744 325.9 197.1
529(12) 0.00694 326.0 228.6
553(13) 0.00633 326.1 254.0
580(13) 0.00567 326.2 266.6
559(13) 0.00621 326.3 262.8
543(12) 0.00684 326.3 245.2
498(12) 0.00730 326.4 220.9
453(11) 0.00762 326.5 196.4
430(11) 0.00806 326.6 175.6
460(11) 0.00780 326.7 160.9
490(11) 0.00761 326.8 152.5
463(11) 0.00774 326.9 150.2
466(12) 0.00740 327.0 152.8
507(12) 0.00662 327.1 158.6
539(12) 0.00646 327.2 165.4
512(12) 0.00734 327.2 170.7
474(12) 0.00747 327.3 172.2
499(12) 0.00670 327.4 168.6
461(11) 0.00761 327.5 160.0
447(11) 0.00793 327.6 147.8
468(11) 0.00799 327.7 133.8
454(12) 0.00734 327.8 119.4
425(11) 0.00806 327.9 105.8
400(11) 0.00862 328.0 93.6
413(11) 0.00873 328.0 83.0
416(11) 0.00896 328.1 74.0
405(11) 0.00831 328.2 66.6
396(11) 0.00864 328.3 60.7
407(11) 0.00846 328.4 56.1
383(10) 0.00919 328.5 52.5
376(10) 0.00999 328.6 49.8
398(11) 0.00846 328.7 47.8
385(11) 0.00845 328.8 46.4
398(11) 0.00843 328.9 45.5
375(10) 0.00982 328.9 44.9
381(10) 0.00957 329.0 44.5
378(11) 0.00907 329.1 44.5
398(11) 0.00798 329.2 44.5
386(11) 0.00894 329.3 44.8
370(10) 0.01000 329.4 45.2
371(10) 0.00977 329.5 45.7
375(10) 0.00918 329.6 46.3
391(11) 0.00822 329.7 46.9
404(11) 0.00868 329.7 47.7
401(10) 0.00921 329.8 48.6
406(10) 0.00908 329.9 49.5
393(10) 0.00921 330.0 50.7
407(11) 0.00791 330.1 52.0
401(11) 0.00840 330.2 53.8
377(10) 0.00988 330.3 56.0
389(10) 0.00947 330.4 58.9
396(11) 0.00867 330.5 62.8
375(11) 0.00879 330.6 67.8
400(11) 0.00862 330.6 74.1
373(10) 0.00989 330.7 81.8
374(10) 0.00990 330.8 90.5
413(11) 0.00873 330.9 99.6
412(11) 0.00823 331.0 108.0
408(11) 0.00814 331.1 113.8
414(11) 0.00903 331.2 115.2
399(11) 0.00894 331.3 111.8
416(11) 0.00829 331.4 104.7
402(11) 0.00862 331.4 96.1
409(11) 0.00858 331.5 87.6
376(10) 0.00988 331.6 80.2
406(11) 0.00871 331.7 74.6
374(11) 0.00906 331.8 70.7
373(11) 0.00905 331.9 68.6
389(10) 0.00913 332.0 67.8
395(10) 0.00942 332.1 67.8
409(11) 0.00826 332.2 68.1
371(10) 0.00936 332.2 67.9
395(11) 0.00871 332.3 66.5
383(10) 0.00930 332.4 63.8
378(10) 0.00974 332.5 59.8
387(11) 0.00891 332.6 55.1
396(11) 0.00852 332.7 50.1
402(11) 0.00844 332.8 45.3
377(10) 0.00971 332.9 40.8
403(10) 0.00938 333.0 36.7
370(10) 0.00937 333.1 33.1
371(11) 0.00885 333.1 30.1
348(10) 0.01021 333.2 27.5
340(10) 0.01058 333.3 25.2
356(10) 0.01057 333.4 23.3
387(11) 0.00888 333.5 21.7
353(10) 0.00938 333.6 20.3
366(10) 0.00934 333.7 19.2
377(10) 0.00966 333.8 18.1
345(10) 0.01091 333.9 17.2
344(10) 0.01032 333.9 16.4
364(11) 0.00874 334.0 15.6
328(9) 0.01109 334.1 14.9
342(10) 0.01097 334.2 14.3
344(10) 0.01065 334.3 13.7
342(10) 0.01053 334.4 13.2
340(10) 0.00963 334.5 12.7
334(10) 0.01084 334.6 12.2
350(10) 0.01060 334.7 11.8
330(9) 0.01139 334.8 11.4
338(10) 0.01022 334.8 11.0
338(10) 0.00994 334.9 10.7
379(11) 0.00898 335.0 10.4
363(10) 0.01033 335.1 10.1
359(10) 0.01011 335.2 9.8
337(10) 0.00995 335.3 9.6
334(10) 0.00969 335.4 9.3
323(10) 0.01017 335.5 9.1
319(9) 0.01156 335.6 8.8
329(10) 0.01083 335.6 8.6
342(10) 0.01000 335.7 8.4
371(11) 0.00861 335.8 8.3
367(10) 0.00914 335.9 8.1
353(10) 0.01055 336.0 7.9
346(10) 0.01006 336.1 7.8
355(10) 0.00982 336.2 7.6
361(10) 0.00938 336.3 7.5
360(10) 0.00998 336.4 7.3
350(10) 0.01038 336.4 7.2
320(10) 0.01107 336.5 7.1
336(10) 0.00986 336.6 7.0
321(10) 0.01065 336.7 6.9
347(10) 0.01036 336.8 6.8
331(9) 0.01123 336.9 6.7
376(11) 0.00907 337.0 6.6
359(10) 0.00937 337.1 6.5
358(10) 0.00984 337.2 6.4
356(10) 0.01028 337.3 6.4
341(10) 0.01088 337.3 6.3
330(10) 0.01054 337.4 6.2
358(10) 0.00914 337.5 6.1
337(10) 0.01029 337.6 6.1
373(10) 0.00990 337.7 6.0
374(10) 0.00979 337.8 6.0
344(10) 0.01011 337.9 5.9
339(10) 0.00997 338.0 5.8
331(10) 0.01076 338.1 5.8
350(10) 0.01064 338.1 5.7
362(10) 0.01037 338.2 5.7
352(10) 0.00980 338.3 5.6
330(10) 0.00982 338.4 5.6
338(10) 0.00996 338.5 5.6
318(9) 0.01178 338.6 5.5
333(10) 0.01103 338.7 5.5
322(9) 0.01123 338.8 5.5
336(10) 0.00981 338.9 5.4
349(10) 0.00981 339.0 5.4
362(10) 0.01032 339.0 5.4
345(10) 0.01065 339.1 5.4
339(10) 0.01019 339.2 5.3
341(10) 0.00969 339.3 5.3
335(10) 0.01014 339.4 5.3
310(9) 0.01195 339.5 5.3
344(10) 0.01068 339.6 5.3
331(10) 0.01043 339.7 5.3
351(11) 0.00906 339.8 5.3
335(10) 0.01026 339.8 5.3
337(10) 0.01095 339.9 5.3
356(10) 0.01015 340.0 5.3
359(10) 0.00966 340.1 5.3
341(10) 0.01027 340.2 5.3
333(10) 0.01061 340.3 5.3
347(10) 0.01070 340.4 5.3
324(10) 0.01101 340.5 5.3
339(10) 0.01029 340.6 5.3
330(10) 0.01040 340.7 5.3
346(10) 0.01005 340.7 5.3
339(10) 0.01091 340.8 5.4
346(10) 0.01049 340.9 5.4
361(10) 0.00920 341.0 5.4
334(10) 0.01041 341.1 5.4
362(10) 0.00979 341.2 5.5
342(10) 0.01090 341.3 5.5
353(10) 0.01007 341.4 5.5
349(10) 0.00952 341.5 5.6
335(10) 0.01037 341.5 5.6
336(10) 0.01104 341.6 5.7
342(10) 0.01077 341.7 5.7
311(9) 0.01109 341.8 5.8
320(10) 0.01047 341.9 5.8
335(10) 0.01021 342.0 5.9
339(10) 0.01083 342.1 5.9
324(9) 0.01139 342.2 6.0
335(10) 0.01008 342.3 6.1
338(10) 0.00943 342.3 6.1
339(10) 0.01021 342.4 6.2
373(10) 0.00990 342.5 6.3
369(10) 0.01014 342.6 6.4
343(10) 0.01046 342.7 6.5
330(10) 0.01011 342.8 6.6
345(10) 0.01039 342.9 6.7
370(10) 0.00986 342.9 6.8
357(10) 0.01046 342.9 6.9
333(10) 0.01067 342.9 7.0
328(10) 0.00970 342.9 7.1
313(10) 0.01099 343.0 7.2
320(9) 0.01156 343.0 7.4
363(10) 0.01017 343.0 7.5
380(11) 0.00893 343.0 7.7
340(10) 0.00990 343.0 7.8
316(9) 0.01117 343.1 8.0
334(9) 0.01120 343.1 8.2
331(9) 0.01128 343.1 8.4
342(10) 0.01018 343.1 8.6
356(10) 0.00946 343.1 8.8
366(10) 0.00986 343.2 9.0
333(9) 0.01121 343.2 9.3
330(10) 0.01099 343.2 9.5
334(10) 0.01004 343.2 9.8
374(11) 0.00866 343.2 10.1
362(10) 0.00939 343.3 10.4
337(9) 0.01109 343.3 10.8
352(10) 0.01015 343.3 11.2
327(10) 0.01056 343.3 11.6
359(10) 0.00912 343.3 12.0
359(10) 0.00967 343.4 12.5
367(10) 0.01016 343.4 13.1
335(10) 0.01075 343.4 13.7
342(10) 0.00989 343.4 14.3
340(10) 0.01028 343.4 15.1
362(10) 0.00967 343.5 15.9
341(10) 0.01085 343.5 16.7
371(10) 0.00940 343.5 17.6
398(11) 0.00863 343.5 18.6
381(10) 0.00946 343.5 19.7
382(10) 0.00920 343.6 20.8
355(10) 0.01050 343.6 22.0
357(10) 0.00953 343.6 23.2
362(11) 0.00896 343.6 24.4
341(10) 0.01031 343.6 25.6
352(10) 0.01034 343.7 26.7
357(10) 0.01040 343.7 27.7
365(10) 0.00981 343.7 28.5
380(11) 0.00895 343.7 29.1
361(10) 0.00952 343.7 29.7
362(10) 0.00996 343.8 30.1
355(10) 0.01049 343.8 30.5
388(11) 0.00889 343.8 30.8
401(11) 0.00824 343.8 31.2
381(11) 0.00906 343.8 31.7
375(10) 0.00980 343.9 32.3
390(10) 0.00947 343.9 33.0
351(10) 0.01009 343.9 33.9
368(11) 0.00878 343.9 35.0
357(10) 0.01002 343.9 36.4
378(10) 0.00988 344.0 37.9
387(10) 0.00963 344.0 39.7
371(10) 0.00919 344.0 41.7
370(11) 0.00865 344.0 43.9
403(11) 0.00852 344.0 46.5
386(10) 0.00980 344.1 49.3
390(10) 0.00932 344.1 52.5
382(11) 0.00886 344.1 55.9
390(11) 0.00840 344.1 59.7
384(11) 0.00907 344.1 63.7
401(10) 0.00932 344.2 68.1
370(10) 0.00991 344.2 72.9
403(11) 0.00838 344.2 77.9
389(11) 0.00858 344.2 83.3
418(11) 0.00823 344.2 89.1
408(11) 0.00906 344.3 95.1
426(11) 0.00866 344.3 101.3
429(11) 0.00812 344.3 107.7
435(11) 0.00781 344.3 114.2
416(11) 0.00852 344.3 120.6
475(11) 0.00781 344.4 126.9
472(11) 0.00763 344.4 132.8
467(12) 0.00749 344.4 138.1
467(12) 0.00748 344.4 142.7
447(11) 0.00780 344.4 146.3
491(11) 0.00766 344.5 148.8
465(11) 0.00758 344.5 150.1
473(12) 0.00709 344.5 150.2
469(12) 0.00713 344.5 149.0
438(11) 0.00826 344.5 146.7
430(11) 0.00863 344.6 143.3
460(12) 0.00746 344.6 139.2
500(13) 0.00637 344.6 134.4
473(12) 0.00739 344.6 129.1
482(12) 0.00749 344.6 123.5
418(11) 0.00893 344.7 117.8
468(12) 0.00717 344.7 112.1
444(12) 0.00728 344.7 106.3
453(11) 0.00771 344.7 100.7
455(11) 0.00801 344.7 95.2
432(11) 0.00866 344.8 90.0
434(11) 0.00814 344.8 84.9
413(11) 0.00790 344.8 80.0
416(11) 0.00826 344.8 75.3
408(10) 0.00911 344.8 70.8
413(11) 0.00892 344.9 66.6
377(10) 0.00910 344.9 62.6
386(11) 0.00835 344.9 58.8
376(10) 0.00932 344.9 55.3
374(10) 0.01003 345.0 51.9
391(10) 0.00944 345.0 48.9
363(10) 0.00964 345.0 46.0
360(11) 0.00888 345.0 43.4
381(11) 0.00881 345.0 41.0
349(10) 0.01071 345.1 38.8
369(10) 0.01008 345.1 36.9
388(10) 0.00908 345.1 35.3
371(10) 0.00911 345.1 34.6
369(10) 0.00952 345.1 36.3
374(10) 0.00989 345.2 43.9
395(10) 0.00948 345.2 61.3
422(11) 0.00822 345.2 88.0
400(11) 0.00852 345.2 114.3
425(11) 0.00791 345.2 123.8
422(11) 0.00885 345.3 108.7
398(10) 0.00913 345.3 79.2
414(11) 0.00804 345.3 51.4
341(10) 0.01037 345.3 33.6
368(10) 0.00940 345.3 25.0
349(10) 0.01071 345.4 21.5
348(10) 0.01038 345.4 20.0
353(10) 0.00998 345.4 19.2
370(10) 0.00914 345.4 18.6
342(10) 0.01042 345.4 18.0
361(10) 0.01029 345.5 17.5
332(10) 0.01085 345.5 17.1
349(10) 0.00978 345.5 16.7
342(10) 0.00987 345.5 16.3
364(10) 0.00985 345.5 16.0
373(10) 0.01001 345.6 15.7
366(10) 0.00964 345.6 15.4
356(10) 0.00967 345.6 15.2
376(11) 0.00885 345.6 15.0
346(10) 0.01073 345.6 14.8
354(10) 0.01043 345.7 14.7
352(10) 0.00988 345.7 14.5
364(10) 0.00937 345.7 14.4
356(10) 0.00991 345.7 14.3
347(10) 0.01048 345.7 14.2
373(10) 0.01011 345.8 14.2
372(10) 0.00918 345.8 14.1
376(11) 0.00849 345.8 14.1
367(10) 0.00957 345.8 14.2
354(10) 0.01058 345.8 14.2
367(10) 0.01016 345.9 14.3
343(10) 0.01020 345.9 14.4
325(10) 0.01059 345.9 14.6
351(10) 0.01020 345.9 14.8
352(10) 0.01069 345.9 15.1
370(10) 0.01008 346.0 15.4
395(11) 0.00896 346.0 15.8
347(10) 0.00965 346.0 16.3
383(11) 0.00897 346.0 17.0
366(10) 0.01023 346.0 17.8
379(10) 0.00979 346.1 18.9
369(10) 0.00930 346.1 20.4
367(11) 0.00899 346.1 22.6
413(11) 0.00813 346.1 25.7
375(10) 0.00990 346.1 30.6
406(11) 0.00905 346.2 37.9
428(11) 0.00807 346.2 48.4
453(12) 0.00730 346.2 62.9
456(11) 0.00785 346.2 81.5
476(11) 0.00787 346.2 103.4
546(12) 0.00659 346.3 126.4
561(13) 0.00611 346.3 145.8
554(13) 0.00612 346.3 155.5
567(13) 0.00615 346.3 151.5
525(12) 0.00709 346.3 135.8
480(12) 0.00733 346.4 114.3
476(12) 0.00691 346.4 92.4
413(11) 0.00844 346.4 73.4
402(11) 0.00880 346.4 58.4
409(10) 0.00912 346.4 47.6
391(11) 0.00906 346.5 40.5
407(11) 0.00846 346.5 36.4
363(10) 0.00952 346.5 34.3
387(10) 0.00933 346.5 33.8
383(10) 0.00967 346.5 34.2
402(11) 0.00871 346.6 35.3
387(11) 0.00888 346.6 36.9
415(11) 0.00836 346.6 38.8
383(10) 0.00969 346.6 41.1
414(11) 0.00896 346.6 43.4
410(11) 0.00857 346.7 45.7
382(11) 0.00879 346.7 47.6
375(10) 0.00944 346.7 49.1
390(10) 0.00933 346.7 49.9
354(10) 0.01052 346.7 49.9
362(10) 0.00956 346.8 49.3
389(11) 0.00834 346.8 48.0
391(11) 0.00877 346.8 46.3
406(11) 0.00890 346.8 44.4
390(10) 0.00953 346.8 42.5
387(11) 0.00877 346.9 40.6
377(11) 0.00875 346.9 38.9
397(11) 0.00864 346.9 37.4
398(10) 0.00927 346.9 36.1
382(10) 0.00961 347.0 35.0
380(10) 0.00918 347.0 34.1
362(10) 0.00911 347.0 33.4
381(11) 0.00899 347.0 32.8
379(10) 0.00982 347.0 32.4
412(10) 0.00913 347.1 32.0
351(10) 0.01001 347.1 31.7
372(11) 0.00846 347.1 31.4
365(10) 0.00976 347.1 31.2
366(10) 0.00998 347.1 30.9
386(10) 0.00952 347.2 30.7
389(11) 0.00896 347.2 30.5
363(10) 0.00929 347.2 30.4
367(10) 0.00944 347.2 30.2
382(10) 0.00969 347.2 30.1
344(10) 0.01074 347.3 30.1
369(11) 0.00903 347.3 30.1
367(10) 0.00920 347.3 30.3
388(11) 0.00903 347.3 30.7
371(10) 0.01002 347.3 31.3
382(10) 0.00936 347.4 32.4
383(11) 0.00905 347.4 33.9
379(10) 0.00914 347.4 36.2
394(11) 0.00891 347.4 39.5
409(10) 0.00908 347.4 44.2
412(11) 0.00875 347.5 50.6
405(11) 0.00869 347.5 59.2
469(12) 0.00726 347.5 70.1
478(12) 0.00739 347.5 83.7
479(11) 0.00774 347.5 99.6
505(12) 0.00686 347.6 117.4
506(12) 0.00682 347.6 135.4
552(13) 0.00624 347.6 151.2
522(12) 0.00710 347.6 161.1
550(12) 0.00680 347.6 162.3
485(12) 0.00702 347.7 154.2
505(12) 0.00652 347.7 139.2
452(11) 0.00764 347.7 120.8
453(11) 0.00809 347.7 101.9
456(11) 0.00813 347.7 84.4
429(11) 0.00808 347.8 69.1
429(12) 0.00754 347.8 56.4
421(11) 0.00831 347.8 46.2
409(11) 0.00900 347.8 38.2
399(10) 0.00939 347.8 32.1
405(11) 0.00847 347.9 27.4
392(11) 0.00848 347.9 23.9
400(11) 0.00865 347.9 21.2
383(10) 0.00989 347.9 19.1
380(10) 0.00969 347.9 17.4
383(10) 0.00945 348.0 16.0
381(11) 0.00867 348.0 14.9
374(10) 0.00928 348.0 13.9
358(10) 0.01036 348.0 13.1
382(10) 0.00954 348.0 12.4
360(10) 0.00972 348.1 11.7
357(10) 0.00927 348.1 11.2
359(10) 0.00944 348.1 10.7
363(10) 0.01019 348.1 10.3
349(10) 0.01055 348.1 10.0
342(10) 0.01027 348.2 9.7
369(11) 0.00867 348.2 9.4
355(10) 0.00962 348.2 9.2
356(10) 0.01047 348.2 9.0
369(10) 0.01009 348.2 8.9
387(11) 0.00905 348.3 8.9
391(11) 0.00806 348.3 8.8
330(10) 0.01054 348.3 8.9
380(10) 0.00985 348.3 8.9
376(10) 0.00953 348.3 9.0
354(10) 0.01003 348.4 9.2
360(10) 0.00932 348.4 9.4
347(10) 0.01011 348.4 9.6
374(10) 0.00988 348.4 9.8
361(10) 0.00970 348.4 10.1
357(10) 0.00968 348.5 10.2
368(10) 0.00933 348.5 10.4
367(10) 0.00969 348.5 10.4
381(10) 0.00982 348.5 10.3
345(10) 0.01001 348.5 10.2
356(10) 0.00942 348.6 9.9
350(10) 0.01031 348.6 9.6
353(10) 0.01028 348.6 9.2
348(10) 0.01072 348.6 8.9
328(10) 0.01058 348.6 8.5
370(11) 0.00885 348.6 8.2
347(10) 0.01019 348.5 7.9
347(10) 0.01033 348.5 7.6
367(10) 0.01011 348.5 7.4
382(11) 0.00890 348.5 7.1
392(11) 0.00837 348.4 7.0
340(10) 0.01043 348.4 6.8
324(9) 0.01136 348.4 6.7
329(9) 0.01146 348.4 6.6
322(9) 0.01148 348.4 6.6
356(10) 0.00942 348.3 6.5
369(10) 0.00944 348.3 6.5
376(10) 0.00987 348.3 6.5
372(10) 0.01000 348.3 6.5
366(10) 0.00977 348.3 6.6
360(10) 0.00918 348.2 6.6
335(10) 0.01070 348.2 6.7
359(10) 0.01037 348.2 6.8
358(10) 0.01012 348.2 6.9
340(10) 0.00986 348.2 7.1
342(10) 0.00963 348.1 7.2
378(10) 0.00928 348.1 7.4
375(10) 0.00994 348.1 7.6
359(10) 0.01027 348.1 7.8
372(10) 0.00956 348.1 8.0
349(10) 0.00966 348.0 8.3
339(10) 0.01021 348.0 8.6
364(10) 0.01025 348.0 9.0
362(10) 0.01022 348.0 9.4
385(11) 0.00884 348.0 9.8
359(10) 0.00934 347.9 10.3
389(11) 0.00888 347.9 10.9
356(10) 0.01054 347.9 11.6
379(10) 0.00945 347.9 12.3
374(11) 0.00894 347.9 13.2
354(10) 0.00953 347.8 14.2
390(11) 0.00877 347.8 15.3
388(10) 0.00958 347.8 16.7
365(10) 0.00960 347.8 18.4
363(10) 0.00959 347.7 20.5
369(10) 0.00950 347.7 23.2
382(10) 0.00938 347.7 26.5
378(10) 0.00986 347.7 30.9
413(11) 0.00825 347.7 36.6
383(11) 0.00893 347.6 44.0
401(11) 0.00845 347.6 53.4
436(11) 0.00818 347.6 65.1
435(11) 0.00848 347.6 79.4
465(11) 0.00763 347.6 96.3
461(12) 0.00725 347.5 115.4
471(12) 0.00711 347.5 135.7
473(11) 0.00782 347.5 155.5
475(11) 0.00779 347.5 171.7
508(12) 0.00695 347.5 180.9
550(13) 0.00614 347.4 180.8
511(12) 0.00693 347.4 171.3
475(11) 0.00772 347.4 155.3
465(11) 0.00788 347.4 135.9
457(12) 0.00740 347.4 116.3
429(12) 0.00753 347.3 98.1
389(10) 0.00932 347.3 82.3
416(11) 0.00889 347.3 69.1
370(10) 0.01005 347.3 58.6
378(11) 0.00894 347.3 50.5
377(11) 0.00845 347.2 44.6
379(11) 0.00899 347.2 40.4
370(10) 0.01019 347.2 37.6
388(10) 0.00956 347.2 35.8
354(10) 0.00986 347.2 34.9
361(11) 0.00891 347.1 34.5
401(11) 0.00835 347.1 34.5
354(10) 0.01050 347.1 34.7
363(10) 0.01025 347.1 34.8
368(10) 0.00947 347.1 34.7
376(11) 0.00864 347.0 34.4
342(10) 0.00985 347.0 33.6
354(10) 0.01046 347.0 32.4
352(10) 0.01045 347.0 30.8
330(10) 0.01061 346.9 29.0
356(10) 0.00948 346.9 27.1
364(10) 0.00965 346.9 25.0
370(10) 0.01001 346.9 23.0
362(10) 0.00997 346.9 21.1
374(10) 0.00933 346.8 19.4
377(11) 0.00873 346.8 17.7
350(10) 0.00999 346.8 16.3
334(9) 0.01114 346.8 14.9
346(10) 0.01061 346.8 13.7
361(10) 0.00910 346.7 12.7
338(10) 0.01021 346.7 11.8
371(10) 0.00940 346.7 10.9
358(10) 0.01038 346.7 10.2
361(10) 0.00971 346.7 9.6
351(10) 0.00947 346.6 9.1
339(10) 0.01006 346.6 8.6
352(10) 0.01006 346.6 8.2
361(10) 0.01040 346.6 7.8
341(10) 0.01005 346.6 7.5
368(11) 0.00891 346.5 7.2
358(10) 0.00951 346.5 7.0
357(10) 0.01012 346.5 6.7
335(9) 0.01117 346.5 6.5
350(10) 0.01002 346.5 6.3
351(10) 0.00937 346.4 6.2
353(10) 0.00983 346.4 6.0
339(10) 0.01091 346.4 5.9
332(9) 0.01120 346.4 5.8
366(10) 0.00928 346.4 5.7
381(11) 0.00850 346.3 5.6
349(10) 0.00990 346.3 5.5
355(10) 0.01023 346.3 5.4
355(10) 0.01055 346.3 5.3
393(11) 0.00868 346.2 5.3
363(11) 0.00885 346.2 5.2
371(10) 0.00962 346.2 5.2
345(10) 0.01083 346.2 5.1
368(10) 0.01006 346.2 5.1
339(10) 0.01011 346.1 5.0
347(10) 0.00931 346.1 5.0
351(10) 0.00947 346.1 5.0
338(10) 0.01085 346.1 5.0
314(9) 0.01189 346.1 4.9
352(10) 0.00972 346.0 4.9
355(10) 0.00916 346.0 4.9
347(10) 0.01002 346.0 4.9
356(10) 0.01056 346.0 4.9
365(10) 0.01004 346.0 4.9
369(10) 0.00932 345.9 4.9
367(11) 0.00905 345.9 4.9
352(10) 0.00977 345.9 5.0
340(10) 0.01084 345.9 5.0
329(10) 0.01094 345.9 5.0
350(10) 0.01001 345.8 5.0
318(10) 0.01107 345.8 5.0
373(10) 0.00940 345.8 5.1
330(9) 0.01132 345.8 5.1
348(10) 0.01018 345.8 5.2
362(10) 0.00925 345.7 5.2
359(10) 0.00935 345.7 5.2
359(10) 0.00942 345.8 5.3
339(10) 0.01092 345.8 5.3
348(10) 0.00992 345.8 5.4
358(10) 0.00922 345.8 5.5
340(10) 0.00985 345.9 5.5
348(10) 0.01030 345.9 5.6
345(10) 0.01074 345.9 5.7
355(10) 0.01000 345.9 5.7
375(10) 0.00920 345.9 5.8
373(10) 0.00919 346.0 5.9
371(10) 0.00956 346.0 6.0
361(10) 0.01023 346.0 6.1
368(10) 0.00973 346.0 6.2
353(10) 0.00989 346.0 6.3
354(10) 0.00977 346.1 6.4
334(10) 0.01104 346.1 6.6
326(9) 0.01131 346.1 6.7
345(10) 0.01000 346.1 6.8
361(11) 0.00877 346.1 7.0
333(10) 0.01067 346.2 7.1
377(10) 0.00988 346.2 7.3
373(10) 0.00994 346.2 7.5
378(11) 0.00902 346.2 7.6
337(10) 0.00978 346.3 7.8
396(11) 0.00859 346.3 8.0
330(9) 0.01131 346.3 8.3
365(10) 0.01024 346.3 8.5
385(11) 0.00904 346.3 8.7
358(11) 0.00853 346.4 9.0
326(10) 0.01057 346.4 9.2
336(9) 0.01112 346.4 9.5
365(10) 0.01010 346.4 9.8
369(10) 0.00912 346.4 10.2
350(10) 0.00942 346.5 10.5
339(10) 0.01042 346.5 10.9
350(10) 0.01053 346.5 11.3
356(10) 0.01028 346.5 11.8
361(10) 0.00976 346.5 12.3
358(10) 0.00951 346.6 12.8
366(10) 0.00948 346.6 13.4
379(10) 0.00980 346.6 14.0
337(10) 0.01104 346.6 14.7
363(10) 0.00955 346.6 15.4
363(10) 0.00956 346.7 16.1
376(11) 0.00881 346.7 17.0
341(10) 0.01104 346.7 17.9
376(10) 0.00934 346.7 18.9
350(10) 0.00960 346.8 19.9
345(10) 0.00978 346.8 21.1
353(10) 0.01005 346.8 22.3
356(10) 0.01056 346.8 23.6
370(10) 0.00938 346.8 25.1
361(10) 0.00976 346.9 26.6
376(10) 0.00926 346.9 28.2
370(10) 0.00948 346.9 30.0
355(10) 0.01055 346.9 31.8
381(10) 0.00915 346.9 33.8
359(10) 0.00907 347.0 35.8
377(11) 0.00857 347.0 38.0
363(10) 0.00988 347.0 40.3
384(10) 0.00967 347.0 42.6
358(10) 0.00980 347.0 45.0
405(11) 0.00829 347.1 47.5
368(10) 0.00942 347.1 49.9
353(10) 0.01044 347.1 52.4
378(10) 0.00980 347.1 54.7
390(11) 0.00896 347.2 57.0
382(11) 0.00882 347.2 59.1
357(10) 0.01000 347.2 60.9
373(10) 0.00973 347.2 62.5
381(10) 0.00974 347.2 63.7
402(11) 0.00834 347.3 64.6
381(11) 0.00842 347.3 65.0
373(10) 0.00913 347.3 65.1
384(10) 0.00948 347.3 64.7
392(10) 0.00936 347.3 64.0
424(11) 0.00782 347.4 62.9
383(11) 0.00826 347.4 61.5
379(10) 0.00909 347.4 59.9
368(10) 0.00993 347.4 58.0
397(10) 0.00950 347.4 56.1
416(11) 0.00832 347.5 54.1
405(11) 0.00793 347.5 52.1
396(11) 0.00869 347.5 50.2
403(10) 0.00921 347.5 48.3
368(10) 0.01006 347.6 46.5
406(11) 0.00826 347.6 44.8
370(11) 0.00907 347.6 43.3
383(10) 0.00922 347.6 41.9
375(10) 0.00992 347.6 40.8
378(10) 0.00965 347.7 39.8
361(10) 0.00997 347.7 39.1
396(11) 0.00829 347.7 38.6
409(11) 0.00805 347.7 38.3
404(10) 0.00920 347.7 38.4
376(10) 0.00959 347.8 38.7
380(11) 0.00907 347.8 39.3
378(11) 0.00888 347.8 40.3
406(11) 0.00843 347.8 41.6
408(10) 0.00923 347.8 43.1
435(11) 0.00798 347.9 45.0
390(11) 0.00884 347.9 47.1
402(11) 0.00848 347.9 49.4
457(11) 0.00773 347.9 51.8
400(10) 0.00925 347.9 54.0
430(11) 0.00820 348.0 56.0
421(11) 0.00825 348.0 57.5
396(11) 0.00890 348.0 58.2
428(11) 0.00836 348.0 58.3
415(11) 0.00897 348.1 57.6
420(11) 0.00835 348.1 56.4
408(11) 0.00849 348.1 54.8
447(12) 0.00751 348.1 53.1
410(11) 0.00879 348.1 51.3
423(11) 0.00881 348.2 49.7
435(11) 0.00807 348.2 48.4
400(11) 0.00835 348.2 47.3
418(11) 0.00829 348.2 46.6
460(11) 0.00794 348.2 46.3
401(10) 0.00927 348.3 46.4
395(11) 0.00896 348.3 46.8
380(11) 0.00906 348.3 47.7
412(11) 0.00852 348.3 48.9
421(11) 0.00894 348.3 50.3
418(11) 0.00875 348.4 51.7
421(11) 0.00800 348.4 52.7
399(11) 0.00805 348.4 53.3
395(11) 0.00874 348.4 53.3
396(10) 0.00938 348.5 53.0
419(11) 0.00892 348.5 52.7
409(11) 0.00894 348.5 52.4
433(12) 0.00747 348.5 52.3
419(11) 0.00824 348.5 52.1
392(10) 0.00949 348.6 52.1
437(11) 0.00851 348.6 52.0
416(11) 0.00821 348.6 51.8
423(12) 0.00748 348.6 51.6
436(11) 0.00788 348.6 51.3
421(11) 0.00881 348.7 50.8
431(11) 0.00846 348.7 50.3
420(11) 0.00826 348.7 49.6
423(11) 0.00782 348.7 48.8
385(11) 0.00889 348.7 48.0
387(10) 0.00944 348.8 47.0
409(11) 0.00883 348.8 46.0
390(10) 0.00907 348.8 45.0
401(11) 0.00825 348.8 43.9
401(11) 0.00859 348.8 42.9
409(11) 0.00894 348.9 41.8
418(11) 0.00857 348.9 40.7
401(11) 0.00846 348.9 39.6
377(11) 0.00884 348.9 38.4
397(11) 0.00898 349.0 37.3
406(11) 0.00903 349.0 36.2
386(10) 0.00937 349.0 35.1
399(11) 0.00870 349.0 34.0
401(11) 0.00855 349.0 32.9
406(11) 0.00864 349.1 31.8
374(10) 0.01003 349.1 30.8
347(10) 0.00980 349.1 29.7
377(11) 0.00853 349.1 28.6
363(10) 0.00909 349.1 27.6
382(10) 0.00907 349.2 26.6
364(10) 0.01018 349.2 25.7
362(10) 0.00939 349.2 24.7
359(10) 0.00914 349.2 23.8
383(11) 0.00904 349.2 22.9
394(10) 0.00910 349.3 22.1
386(10) 0.00973 349.3 21.3
392(11) 0.00886 349.3 20.5
368(10) 0.00914 349.3 19.8
359(10) 0.00978 349.4 19.0
376(10) 0.00961 349.4 18.4
393(10) 0.00946 349.4 17.7
382(11) 0.00893 349.4 17.1
375(11) 0.00832 349.4 16.5
361(10) 0.00965 349.5 16.0
389(10) 0.00952 349.5 15.5
366(10) 0.01002 349.5 15.0
343(10) 0.01020 349.5 14.5
380(11) 0.00831 349.5 14.1
376(10) 0.00918 349.6 13.6
369(10) 0.01004 349.6 13.2
381(10) 0.00967 349.6 12.9
388(11) 0.00879 349.6 12.5
373(11) 0.00843 349.6 12.2
338(10) 0.01009 349.7 11.9
371(10) 0.01009 349.7 11.6
372(10) 0.00993 349.7 11.3
403(11) 0.00853 349.7 11.0
382(11) 0.00845 349.8 10.8
353(10) 0.00991 349.8 10.5
380(10) 0.00968 349.8 10.3
398(10) 0.00909 349.8 10.1
367(10) 0.00981 349.8 9.9
365(10) 0.00911 349.9 9.7
318(10) 0.01090 349.9 9.5
359(10) 0.01044 349.9 9.4
349(10) 0.01006 349.9 9.2
354(10) 0.00994 349.9 9.1
340(10) 0.01023 350.0 8.9
368(10) 0.00954 350.0 8.8
358(10) 0.01039 350.0 8.7
352(10) 0.00986 350.0 8.6
354(10) 0.00949 350.0 8.5
363(10) 0.00957 350.1 8.5
390(10) 0.00930 350.1 8.4
375(10) 0.00984 350.1 8.4
360(10) 0.00990 350.1 8.3
359(10) 0.00926 350.1 8.3
366(10) 0.00971 350.2 8.3
366(10) 0.01002 350.2 8.3
355(10) 0.01037 350.2 8.4
382(11) 0.00907 350.2 8.4
345(10) 0.01017 350.3 8.5
354(10) 0.00994 350.3 8.6
361(10) 0.01000 350.3 8.7
371(10) 0.01002 350.3 8.8
367(10) 0.00923 350.3 8.9
332(10) 0.01018 350.4 9.1
368(10) 0.00958 350.4 9.2
359(10) 0.01024 350.4 9.4
339(10) 0.01106 350.4 9.5
359(10) 0.00977 350.4 9.6
379(11) 0.00821 350.5 9.7
361(10) 0.00973 350.5 9.9
365(10) 0.01024 350.5 10.0
340(10) 0.01086 350.5 10.1
353(10) 0.00958 350.5 10.3
356(11) 0.00883 350.6 10.5
363(10) 0.00934 350.6 10.7
379(10) 0.00986 350.6 10.9
388(10) 0.00945 350.6 11.2
393(11) 0.00856 350.7 11.5
390(11) 0.00807 350.7 11.9
354(10) 0.00984 350.7 12.3
373(10) 0.01007 350.7 12.7
376(10) 0.00952 350.7 13.1
376(11) 0.00888 350.8 13.7
367(10) 0.00913 350.8 14.2
378(10) 0.00932 350.8 14.8
394(10) 0.00942 350.8 15.5
384(10) 0.00947 350.8 16.2
344(10) 0.01029 350.9 17.1
376(11) 0.00882 350.9 18.0
399(11) 0.00866 350.9 19.2
369(10) 0.01011 350.9 20.5
368(10) 0.00966 350.9 22.0
363(10) 0.00984 351.0 23.8
385(11) 0.00872 351.0 25.9
388(11) 0.00890 351.0 28.2
385(10) 0.00964 351.0 30.8
386(10) 0.00927 351.1 33.6
402(11) 0.00859 351.1 36.4
399(11) 0.00819 351.1 39.0
354(10) 0.00984 351.1 41.2
390(10) 0.00958 351.1 42.6
376(10) 0.00973 351.2 42.9
393(11) 0.00856 351.2 42.0
378(10) 0.00922 351.2 40.2
356(10) 0.01003 351.2 37.6
342(10) 0.01081 351.2 34.6
354(10) 0.00961 351.3 31.6
368(11) 0.00870 351.3 28.7
367(11) 0.00903 351.3 26.0
363(10) 0.01004 351.3 23.6
362(10) 0.01041 351.3 21.5
375(10) 0.00934 351.4 19.8
365(10) 0.00942 351.4 18.3
361(10) 0.00976 351.4 17.1
344(10) 0.01081 351.4 16.1
380(10) 0.00971 351.4 15.4
346(10) 0.00971 351.5 14.8
358(10) 0.00924 351.5 14.4
386(11) 0.00892 351.5 14.0
388(10) 0.00963 351.5 13.8
387(10) 0.00963 351.6 13.7
350(10) 0.00998 351.6 13.7
378(11) 0.00851 351.6 13.7
372(10) 0.00927 351.6 13.8
376(10) 0.00995 351.6 14.0
388(10) 0.00948 351.7 14.2
350(10) 0.01013 351.7 14.4
374(11) 0.00873 351.7 14.7
370(10) 0.00964 351.7 15.1
352(10) 0.01049 351.7 15.5
387(10) 0.00953 351.8 16.0
381(10) 0.00925 351.8 16.6
372(11) 0.00898 351.8 17.2
384(10) 0.00907 351.8 17.9
387(10) 0.00962 351.8 18.7
386(10) 0.00958 351.9 19.6
386(10) 0.00922 351.9 20.7
391(11) 0.00858 351.9 21.9
396(11) 0.00867 351.9 23.4
373(10) 0.00989 352.0 25.1
405(11) 0.00890 352.0 27.2
387(11) 0.00881 352.0 29.7
386(11) 0.00873 352.0 32.7
387(11) 0.00870 352.0 36.2
381(10) 0.00981 352.1 40.5
416(11) 0.00854 352.1 45.5
431(11) 0.00791 352.1 51.4
424(11) 0.00790 352.1 58.1
413(11) 0.00869 352.1 65.8
436(11) 0.00841 352.2 74.2
432(11) 0.00845 352.2 83.2
434(11) 0.00795 352.2 92.4
476(12) 0.00725 352.2 101.1
491(12) 0.00732 352.2 108.4
483(11) 0.00773 352.3 113.3
488(12) 0.00707 352.3 115.0
500(12) 0.00684 352.3 113.3
497(12) 0.00704 352.3 108.5
429(11) 0.00839 352.4 101.5
433(11) 0.00849 352.4 93.3
467(12) 0.00718 352.4 84.7
445(12) 0.00728 352.4 76.4
408(11) 0.00856 352.4 68.6
432(11) 0.00838 352.5 61.7
404(10) 0.00924 352.5 55.6
415(11) 0.00827 352.5 50.4
424(11) 0.00757 352.5 46.0
405(11) 0.00883 352.5 42.3
419(11) 0.00891 352.6 39.3
400(10) 0.00917 352.6 36.8
374(10) 0.00940 352.6 34.7
402(11) 0.00787 352.6 33.1
411(11) 0.00831 352.6 31.7
385(10) 0.00986 352.7 30.5
357(10) 0.01021 352.7 29.5
375(10) 0.00912 352.7 28.6
404(11) 0.00788 352.7 27.9
395(11) 0.00880 352.7 27.2
403(10) 0.00927 352.8 26.6
362(10) 0.01032 352.8 26.0
374(10) 0.00936 352.8 25.5
371(11) 0.00850 352.8 25.0
387(11) 0.00897 352.9 24.5
380(10) 0.00975 352.9 24.1
366(10) 0.00994 352.9 23.6
364(10) 0.00995 352.9 23.2
380(10) 0.00909 352.9 22.8
382(11) 0.00892 353.0 22.4
380(10) 0.00991 353.0 22.0
360(10) 0.01007 353.0 21.6
350(10) 0.00993 353.0 21.2
409(11) 0.00800 353.0 20.8
370(10) 0.00939 353.1 20.4
359(10) 0.01028 353.1 20.0
375(10) 0.00969 353.1 19.6
360(10) 0.00989 353.1 19.3
370(10) 0.00930 353.1 18.9
369(10) 0.00938 353.2 18.5
384(10) 0.00969 353.2 18.2
399(11) 0.00892 353.2 17.8
388(11) 0.00870 353.2 17.4
374(10) 0.00932 353.3 17.1
380(10) 0.00926 353.3 16.8
394(10) 0.00945 353.3 16.4
362(10) 0.00999 353.3 16.1
366(10) 0.00918 353.3 15.8
382(11) 0.00883 353.4 15.5
377(10) 0.00959 353.4 15.2
363(10) 0.01005 353.4 14.9
378(11) 0.00874 353.4 14.6
390(11) 0.00855 353.4 14.4
374(10) 0.00944 353.5 14.1
367(10) 0.00991 353.5 13.8
350(10) 0.01063 353.5 13.6
344(10) 0.00962 353.5 13.4
354(10) 0.00931 353.5 13.1
354(10) 0.00963 353.6 12.9
363(10) 0.00988 353.6 12.7
352(10) 0.01062 353.6 12.5
339(10) 0.01026 353.6 12.4
345(10) 0.00930 353.6 12.2
360(10) 0.00965 353.7 12.1
389(10) 0.00945 353.7 12.0
376(10) 0.00981 353.7 11.8
356(10) 0.01016 353.7 11.7
361(10) 0.00923 353.8 11.6
386(11) 0.00906 353.8 11.5
367(10) 0.01000 353.8 11.5
385(10) 0.00960 353.8 11.4
364(10) 0.00975 353.8 11.4
383(11) 0.00855 353.9 11.3
388(11) 0.00888 353.9 11.3
349(10) 0.01075 353.9 11.3
353(10) 0.01057 353.9 11.3
365(10) 0.00946 353.9 11.3
341(10) 0.00960 354.0 11.3
373(11) 0.00902 354.0 11.4
347(10) 0.01068 354.0 11.4
343(10) 0.01061 354.0 11.5
352(10) 0.00968 354.0 11.5
344(10) 0.00966 354.1 11.6
368(10) 0.00943 354.1 11.7
369(10) 0.00995 354.1 11.8
351(10) 0.01039 354.1 11.9
383(11) 0.00857 354.2 12.0
361(10) 0.00972 354.2 12.2
371(10) 0.00978 354.2 12.3
378(10) 0.00983 354.2 12.4
360(10) 0.01002 354.2 12.6
407(11) 0.00824 354.3 12.7
366(10) 0.00920 354.3 12.9
382(10) 0.00922 354.3 13.1
366(10) 0.01019 354.3 13.2
346(10) 0.01007 354.3 13.4
354(10) 0.00946 354.4 13.6
341(10) 0.01047 354.4 13.7
388(11) 0.00906 354.4 13.9
376(10) 0.00992 354.4 14.0
383(11) 0.00880 354.4 14.1
378(11) 0.00867 354.5 14.3
344(10) 0.01034 354.5 14.4
363(10) 0.00994 354.5 14.5
337(10) 0.01107 354.5 14.6
356(10) 0.00983 354.5 14.6
365(10) 0.00921 354.6 14.6
391(11) 0.00859 354.6 14.6
339(10) 0.01083 354.6 14.5
361(10) 0.01023 354.6 14.5
364(10) 0.00937 354.6 14.3
375(11) 0.00871 354.7 14.2
349(10) 0.01021 354.7 14.0
353(10) 0.01050 354.7 13.8
350(10) 0.01068 354.7 13.6
357(10) 0.00996 354.8 13.4
372(11) 0.00873 354.8 13.1
348(10) 0.00984 354.8 12.9
345(10) 0.01062 354.8 12.6
389(10) 0.00961 354.8 12.3
367(10) 0.00967 354.9 12.0
374(11) 0.00870 354.9 11.7
372(10) 0.00916 354.9 11.4
362(10) 0.01036 354.9 11.1
372(10) 0.00961 354.9 10.8
348(10) 0.01012 355.0 10.5
353(10) 0.00942 355.0 10.2
374(10) 0.00940 355.0 9.9
322(9) 0.01144 355.0 9.6
349(10) 0.01032 355.0 9.3
367(10) 0.00909 355.1 9.1
360(10) 0.00928 355.1 8.8
368(10) 0.00934 355.1 8.6
381(10) 0.00978 355.1 8.3
382(10) 0.00933 355.1 8.1
387(10) 0.00908 355.2 7.9
355(10) 0.00991 355.2 7.7
384(11) 0.00881 355.2 7.5
370(10) 0.01005 355.2 7.4
337(10) 0.01053 355.2 7.2
349(10) 0.00964 355.3 7.0
359(10) 0.00973 355.3 6.9
373(10) 0.00950 355.3 6.7
346(10) 0.01069 355.3 6.6
358(10) 0.00984 355.3 6.5
333(10) 0.01008 355.4 6.4
355(10) 0.00966 355.4 6.3
366(10) 0.00996 355.4 6.2
374(10) 0.01001 355.4 6.1
340(10) 0.01064 355.4 6.1
361(10) 0.00937 355.5 6.0
362(10) 0.00966 355.5 6.0
357(10) 0.01029 355.5 6.0
367(10) 0.01007 355.5 5.9
392(11) 0.00848 355.5 5.9
366(10) 0.00919 355.6 5.9
371(10) 0.00922 355.6 6.0
351(10) 0.01020 355.6 6.0
384(10) 0.00966 355.6 6.1
358(10) 0.00975 355.6 6.2
359(11) 0.00893 355.7 6.3
345(10) 0.01007 355.7 6.4
365(10) 0.01010 355.7 6.7
366(10) 0.01018 355.7 6.9
348(10) 0.00989 355.7 7.3
362(11) 0.00901 355.8 7.9
379(10) 0.00911 355.8 8.6
358(10) 0.01020 355.8 9.8
372(10) 0.00986 355.8 11.6
358(10) 0.00963 355.9 14.0
378(11) 0.00839 355.9 17.4
369(10) 0.00951 355.9 21.8
382(10) 0.00982 355.9 27.0
411(10) 0.00912 355.9 32.7
412(11) 0.00863 356.0 38.0
407(11) 0.00819 356.0 41.7
415(11) 0.00843 356.0 42.2
391(10) 0.00961 356.0 39.5
397(11) 0.00906 356.0 34.6
371(11) 0.00900 356.1 29.0
359(11) 0.00906 356.1 23.5
362(10) 0.00941 356.1 18.9
342(10) 0.01087 356.1 15.2
352(10) 0.01009 356.1 12.5
366(10) 0.00930 356.2 10.6
353(10) 0.00969 356.2 9.3
370(10) 0.00941 356.2 8.4
348(10) 0.01061 356.2 7.8
365(10) 0.00983 356.2 7.4
353(10) 0.00976 356.3 7.1
353(10) 0.00980 356.3 6.9
375(10) 0.00937 356.3 6.8
369(10) 0.01010 356.3 6.7
376(10) 0.00965 356.3 6.6
367(10) 0.00979 356.4 6.6
379(11) 0.00886 356.4 6.6
379(10) 0.00938 356.4 6.6
333(10) 0.01108 356.4 6.7
342(10) 0.01036 356.4 6.7
360(10) 0.00915 356.5 6.8
353(10) 0.00988 356.5 6.9
364(10) 0.01001 356.5 7.0
367(10) 0.01023 356.5 7.2
375(10) 0.00911 356.5 7.3
342(10) 0.00995 356.6 7.5
374(10) 0.00917 356.6 7.7
382(10) 0.00917 356.6 7.9
389(10) 0.00957 356.6 8.2
349(10) 0.01000 356.6 8.4
360(10) 0.00940 356.7 8.7
392(11) 0.00885 356.7 9.0
406(10) 0.00911 356.7 9.4
354(10) 0.01050 356.7 9.7
334(10) 0.01032 356.7 10.1
375(11) 0.00895 356.8 10.6
361(10) 0.00988 356.8 11.0
362(10) 0.01030 356.8 11.5
371(10) 0.00976 356.8 12.1
378(10) 0.00948 356.8 12.6
383(11) 0.00850 356.9 13.2
386(10) 0.00911 356.9 13.8
399(10) 0.00910 356.9 14.5
382(10) 0.00966 356.9 15.1
363(10) 0.00978 357.0 15.7
367(10) 0.00911 357.0 16.3
388(11) 0.00893 357.0 16.9
364(10) 0.01019 357.0 17.5
368(10) 0.01020 357.0 18.0
375(10) 0.00955 357.1 18.5
371(11) 0.00870 357.1 18.9
354(10) 0.00992 357.1 19.2
363(10) 0.01025 357.1 19.4
375(10) 0.00985 357.1 19.7
361(10) 0.00983 357.2 19.8
379(11) 0.00877 357.2 19.9
375(10) 0.00951 357.2 20.0
364(10) 0.01022 357.2 20.1
372(10) 0.00990 357.2 20.1
376(10) 0.00932 357.3 20.2
347(10) 0.01013 357.3 20.3
357(10) 0.01018 357.3 20.4
368(10) 0.01007 357.3 20.4
397(11) 0.00899 357.3 20.5
372(10) 0.00941 357.4 20.6
373(10) 0.00945 357.4 20.8
365(10) 0.01001 357.4 20.9
379(10) 0.00979 357.4 21.0
369(10) 0.00932 357.4 21.1
350(10) 0.00955 357.5 21.2
373(10) 0.00926 357.5 21.3
372(10) 0.00958 357.5 21.4
365(10) 0.01015 357.5 21.4
331(10) 0.01045 357.5 21.5
354(10) 0.00924 357.6 21.5
378(10) 0.00909 357.6 21.5
379(10) 0.00955 357.6 21.5
411(10) 0.00908 357.6 21.5
398(11) 0.00862 357.6 21.6
362(10) 0.00921 357.7 21.6
401(11) 0.00865 357.7 21.7
377(10) 0.00971 357.7 21.9
353(10) 0.01059 357.7 22.1
358(10) 0.01045 357.7 22.4
372(10) 0.00923 357.8 22.8
370(10) 0.00962 357.8 23.4
384(10) 0.00974 357.8 24.2
344(10) 0.01089 357.8 25.3
351(10) 0.01008 357.8 26.8
386(11) 0.00820 357.9 28.8
386(11) 0.00890 357.9 31.4
377(10) 0.00981 357.9 34.8
366(10) 0.01011 357.9 39.1
392(11) 0.00893 357.9 44.5
413(11) 0.00779 358.0 50.8
412(11) 0.00833 358.0 58.2
428(11) 0.00864 358.0 66.2
403(10) 0.00919 358.0 74.4
413(11) 0.00861 358.1 81.8
423(11) 0.00795 358.1 87.2
457(11) 0.00764 358.1 89.4
456(11) 0.00820 358.1 88.1
421(11) 0.00850 358.1 83.7
416(11) 0.00835 358.2 77.6
425(11) 0.00806 358.2 71.1
403(11) 0.00886 358.2 65.0
439(11) 0.00839 358.2 60.0
385(10) 0.00940 358.2 56.4
439(11) 0.00788 358.3 54.1
428(11) 0.00800 358.3 53.3
384(11) 0.00907 358.3 53.7
441(11) 0.00841 358.3 55.2
424(11) 0.00850 358.3 57.4
419(11) 0.00811 358.4 60.0
406(11) 0.00854 358.4 62.6
409(11) 0.00860 358.4 64.6
415(11) 0.00906 358.4 65.6
396(11) 0.00878 358.4 65.6
400(11) 0.00864 358.5 64.6
414(11) 0.00850 358.5 63.0
446(11) 0.00796 358.5 61.0
424(11) 0.00879 358.5 59.1
438(11) 0.00776 358.5 57.3
421(11) 0.00789 358.6 55.7
406(11) 0.00846 358.6 54.3
444(11) 0.00809 358.6 53.0
430(11) 0.00866 358.6 51.7
410(11) 0.00813 358.6 50.4
386(11) 0.00840 358.7 49.0
399(11) 0.00855 358.7 47.4
389(10) 0.00929 358.7 45.6
383(10) 0.00974 358.7 43.6
404(11) 0.00846 358.7 41.5
397(11) 0.00814 358.8 39.2
384(11) 0.00881 358.8 37.0
372(10) 0.00996 358.8 34.7
394(10) 0.00941 358.8 32.5
398(11) 0.00857 358.8 30.3
376(11) 0.00855 358.9 28.2
378(10) 0.00916 358.9 26.3
366(10) 0.01017 358.9 24.4
370(10) 0.01003 358.9 22.7
379(10) 0.00911 358.9 21.2
364(11) 0.00893 359.0 19.7
376(10) 0.00909 359.0 18.4
368(10) 0.01015 359.0 17.2
381(10) 0.00969 359.0 16.1
389(11) 0.00885 359.0 15.2
357(10) 0.00962 359.1 14.3
346(10) 0.01002 359.1 13.4
341(10) 0.01096 359.1 12.7
361(10) 0.01011 359.1 12.0
358(10) 0.00984 359.2 11.4
362(10) 0.00936 359.2 10.9
399(11) 0.00879 359.2 10.4
381(10) 0.00974 359.2 9.9
371(10) 0.00972 359.2 9.5
355(10) 0.00997 359.3 9.1
381(11) 0.00898 359.3 8.8
371(10) 0.00947 359.3 8.5
371(10) 0.00997 359.3 8.2
363(10) 0.00994 359.3 8.0
365(10) 0.00941 359.4 7.7
379(11) 0.00881 359.4 7.5
356(10) 0.01000 359.4 7.3
352(10) 0.01053 359.4 7.2
352(10) 0.00999 359.4 7.0
371(10) 0.00910 359.5 6.8
358(10) 0.00934 359.5 6.8
355(10) 0.00984 359.5 6.6
355(10) 0.01051 359.5 6.5
357(10) 0.00978 359.5 6.4
379(11) 0.00887 359.6 6.3
332(10) 0.01073 359.6 6.2
332(9) 0.01111 359.6 6.1
351(10) 0.01058 359.6 6.0
351(10) 0.00983 359.6 6.0
356(10) 0.00946 359.7 5.9
342(10) 0.00996 359.7 5.8
352(10) 0.01024 359.7 5.8
345(10) 0.01083 359.7 5.7
346(10) 0.01004 359.7 5.7
336(10) 0.00986 359.8 5.7
345(10) 0.01009 359.8 5.6
336(10) 0.01103 359.8 5.7
368(10) 0.01002 359.8 5.7
365(10) 0.00987 359.8 5.7
337(10) 0.00994 359.9 5.7
356(10) 0.00986 359.9 5.7
351(10) 0.01037 359.9 5.7
346(10) 0.01055 359.9 5.7
348(10) 0.01013 359.9 5.7
369(11) 0.00867 360.0 5.7
384(11) 0.00901 360.0 5.7
334(9) 0.01120 360.0 5.7
346(10) 0.01070 360.0 5.7
357(10) 0.00991 360.0 5.8
356(10) 0.00936 360.1 5.8
377(10) 0.00918 360.1 5.8
368(10) 0.01017 360.1 5.9
373(10) 0.00985 360.1 5.9
370(10) 0.00923 360.1 6.0
333(10) 0.00987 360.1 6.0
367(10) 0.00950 360.0 6.1
365(10) 0.01022 360.0 6.2
354(10) 0.01024 359.9 6.2
350(10) 0.00963 359.9 6.3
348(10) 0.00948 359.9 6.4
371(10) 0.00924 359.8 6.5
351(10) 0.01054 359.8 6.6
358(10) 0.00980 359.7 6.8
373(10) 0.00912 359.7 6.9
361(10) 0.00933 359.6 7.0
366(10) 0.00943 359.6 7.2
366(10) 0.01024 359.5 7.4
365(10) 0.00983 359.5 7.5
364(10) 0.00949 359.5 7.7
372(11) 0.00894 359.4 7.9
332(10) 0.01065 359.4 8.2
370(10) 0.01012 359.3 8.4
359(10) 0.00986 359.3 8.6
370(10) 0.00910 359.2 8.9
343(10) 0.01011 359.2 9.2
374(10) 0.00960 359.1 9.5
369(10) 0.01020 359.1 9.8
372(10) 0.00962 359.1 10.2
371(10) 0.00950 359.0 10.5
361(10) 0.00992 359.0 10.9
369(10) 0.00981 358.9 11.3
375(10) 0.00984 358.9 11.7
396(11) 0.00889 358.8 12.1
360(10) 0.00936 358.8 12.6
363(10) 0.00954 358.7 13.0
364(10) 0.01001 358.7 13.4
353(10) 0.01050 358.7 13.9
385(11) 0.00889 358.6 14.3
348(10) 0.00969 358.6 14.8
379(11) 0.00903 358.5 15.2
347(10) 0.01061 358.5 15.7
347(10) 0.01067 358.4 16.1
351(10) 0.00983 358.4 16.5
363(10) 0.00929 358.3 16.9
389(11) 0.00904 358.3 17.3
374(10) 0.00992 358.3 17.6
380(10) 0.00970 358.2 18.0
374(10) 0.00918 358.2 18.5
376(11) 0.00883 358.1 18.9
358(10) 0.00981 358.1 19.5
377(10) 0.00987 358.0 20.2
398(10) 0.00919 358.0 21.0
369(10) 0.00952 358.0 22.0
376(11) 0.00887 357.9 23.2
393(11) 0.00866 357.9 24.5
366(10) 0.01012 357.8 26.0
384(10) 0.00938 357.8 27.6
360(10) 0.00996 357.7 29.1
408(11) 0.00797 357.7 30.3
407(11) 0.00828 357.6 31.2
407(10) 0.00913 357.6 31.7
396(10) 0.00924 357.6 31.9
416(11) 0.00839 357.5 32.2
423(11) 0.00808 357.5 32.7
394(11) 0.00897 357.4 33.9
396(10) 0.00941 357.4 36.2
410(11) 0.00896 357.3 40.1
430(11) 0.00801 357.3 46.6
431(11) 0.00775 357.2 57.1
456(11) 0.00768 357.2 73.5
460(11) 0.00810 357.2 97.7
521(12) 0.00669 357.1 130.9
560(13) 0.00605 357.1 172.9
569(13) 0.00613 357.0 220.8
648(14) 0.00538 357.0 267.5
690(14) 0.00540 356.9 301.2
667(14) 0.00522 356.9 308.0
576(13) 0.00596 356.8 284.4
551(13) 0.00623 356.8 240.6
543(12) 0.00668 356.8 190.5
496(12) 0.00743 356.7 144.0
468(12) 0.00734 356.7 106.0
440(12) 0.00752 356.6 77.8
417(11) 0.00835 356.6 58.3
413(11) 0.00899 356.5 45.7
398(10) 0.00933 356.5 37.8
426(11) 0.00804 356.4 32.9
396(11) 0.00831 356.4 29.7
372(10) 0.00956 356.4 27.6
392(10) 0.00938 356.3 26.2
409(11) 0.00894 356.3 25.1
356(10) 0.00988 356.2 24.3
369(11) 0.00901 356.2 23.8
390(10) 0.00907 356.1 23.5
387(10) 0.00969 356.1 23.3
397(10) 0.00921 356.1 23.2
386(10) 0.00919 356.0 23.2
391(11) 0.00839 356.0 23.3
399(11) 0.00853 355.9 23.6
396(10) 0.00948 355.9 23.9
411(11) 0.00903 355.8 24.2
408(11) 0.00887 355.8 24.7
383(11) 0.00894 355.7 25.2
387(11) 0.00886 355.7 25.7
369(10) 0.01001 355.7 26.3
389(10) 0.00942 355.6 27.0
417(11) 0.00838 355.6 27.7
404(11) 0.00870 355.5 28.5
394(11) 0.00892 355.5 29.3
392(10) 0.00951 355.4 30.2
381(10) 0.00938 355.4 31.1
395(11) 0.00889 355.3 32.1
406(11) 0.00850 355.3 33.1
373(10) 0.00957 355.3 34.2
408(10) 0.00908 355.2 35.3
418(11) 0.00849 355.2 36.4
384(10) 0.00908 355.1 37.6
385(11) 0.00887 355.1 38.9
418(11) 0.00838 355.0 40.2
435(11) 0.00848 355.0 41.6
411(11) 0.00849 354.9 43.0
395(11) 0.00847 354.9 44.5
401(11) 0.00873 354.9 46.1
390(10) 0.00922 354.8 47.9
399(10) 0.00931 354.8 49.7
419(11) 0.00816 354.7 51.7
476(12) 0.00689 354.7 53.9
409(11) 0.00834 354.6 56.4
410(11) 0.00888 354.6 59.1
451(11) 0.00819 354.5 62.2
462(12) 0.00713 354.5 65.7
402(11) 0.00840 354.5 69.7
430(11) 0.00800 354.4 74.1
432(11) 0.00830 354.4 79.2
437(11) 0.00840 354.3 84.9
425(11) 0.00819 354.3 91.3
491(12) 0.00658 354.2 98.3
509(12) 0.00691 354.2 105.9
545(12) 0.00666 354.2 114.0
501(12) 0.00736 354.1 122.3
504(12) 0.00707 354.1 130.5
535(13) 0.00592 354.0 138.0
495(12) 0.00705 354.0 144.2
510(12) 0.00727 353.9 148.4
534(12) 0.00685 353.9 150.1
512(12) 0.00696 353.8 149.2
511(13) 0.00607 353.8 145.8
493(12) 0.00705 353.8 140.3
499(12) 0.00747 353.7 133.5
505(12) 0.00724 353.7 125.9
449(11) 0.00778 353.6 118.0
472(12) 0.00696 353.6 110.2
423(11) 0.00852 353.5 102.7
413(11) 0.00895 353.5 95.6
431(11) 0.00844 353.4 89.0
435(11) 0.00807 353.4 83.0
430(11) 0.00796 353.4 77.5
444(11) 0.00800 353.3 72.4
430(11) 0.00859 353.3 67.8
426(11) 0.00849 353.2 63.6
444(11) 0.00760 353.2 59.7
397(11) 0.00876 353.1 56.3
401(11) 0.00855 353.1 53.1
432(11) 0.00855 353.0 50.1
417(11) 0.00834 353.0 47.4
421(11) 0.00796 353.0 44.9
392(11) 0.00893 352.9 42.7
399(11) 0.00883 352.9 40.5
414(11) 0.00897 352.8 38.5
385(10) 0.00925 352.8 36.7
399(11) 0.00883 352.7 35.0
397(11) 0.00877 352.7 33.4
381(10) 0.00948 352.6 31.9
386(10) 0.00953 352.6 30.5
382(10) 0.00934 352.6 29.2
441(12) 0.00737 352.5 28.1
385(11) 0.00894 352.5 27.0
388(10) 0.00947 352.4 25.9
392(10) 0.00948 352.4 25.0
383(11) 0.00878 352.3 24.2
377(11) 0.00878 352.3 23.4
386(11) 0.00902 352.2 22.7
362(10) 0.00998 352.2 22.0
388(10) 0.00967 352.2 21.5
410(11) 0.00862 352.1 21.0
357(10) 0.00940 352.1 20.5
372(10) 0.00908 352.0 20.1
374(10) 0.00986 352.0 19.8
367(10) 0.01005 351.9 19.5
386(11) 0.00906 351.9 19.3
386(11) 0.00835 351.9 19.2
380(10) 0.00948 351.8 19.1
383(10) 0.00971 351.8 19.1
363(10) 0.01038 351.7 19.1
383(11) 0.00901 351.7 19.2
382(11) 0.00867 351.6 19.3
383(10) 0.00922 351.6 19.6
389(10) 0.00953 351.5 19.9
373(10) 0.00983 351.5 20.3
419(11) 0.00795 351.5 20.9
392(11) 0.00828 351.4 21.5
390(11) 0.00882 351.4 22.3
375(10) 0.01008 351.3 23.2
387(10) 0.00940 351.3 24.4
384(10) 0.00914 351.2 25.8
397(11) 0.00843 351.2 27.5
420(11) 0.00827 351.1 29.5
398(10) 0.00935 351.1 31.9
384(10) 0.00938 351.1 34.8
415(11) 0.00813 351.0 38.2
420(11) 0.00825 351.0 42.3
396(11) 0.00882 350.9 47.1
408(10) 0.00921 350.9 52.7
405(11) 0.00887 350.8 59.1
448(12) 0.00743 350.8 66.4
468(12) 0.00712 350.7 74.6
480(12) 0.00736 350.7 83.5
444(11) 0.00839 350.7 93.1
505(12) 0.00703 350.6 102.9
496(12) 0.00708 350.6 112.6
516(12) 0.00675 350.5 121.5
542(12) 0.00651 350.5 128.8
513(12) 0.00722 350.4 133.6
514(12) 0.00677 350.4 135.5
535(13) 0.00633 350.3 134.3
555(13) 0.00620 350.3 130.0
493(12) 0.00747 350.3 123.3
482(11) 0.00776 350.2 114.8
502(12) 0.00691 350.2 105.4
462(11) 0.00757 350.1 95.5
465(12) 0.00752 350.1 85.8
443(11) 0.00832 350.0 76.6
397(10) 0.00936 350.0 68.1
448(12) 0.00752 350.0 60.5
416(11) 0.00797 349.9 53.6
397(11) 0.00902 349.9 47.7
409(10) 0.00912 349.8 42.5
410(11) 0.00887 349.8 38.1
389(11) 0.00892 349.7 34.3
394(11) 0.00825 349.7 31.1
390(11) 0.00896 349.6 28.4
381(10) 0.00985 349.6 26.2
395(10) 0.00940 349.6 24.3
384(10) 0.00934 349.5 22.8
395(11) 0.00834 349.5 21.5
394(10) 0.00922 349.4 20.4
366(10) 0.01023 349.4 19.6
370(10) 0.00994 349.3 18.8
370(10) 0.00989 349.3 18.2
381(11) 0.00885 349.2 17.7
348(10) 0.01026 349.2 17.2
340(10) 0.01101 349.2 16.8
363(10) 0.00988 349.1 16.4
332(10) 0.01052 349.1 16.0
363(10) 0.00917 349.0 15.6
374(10) 0.00952 349.0 15.1
374(10) 0.00991 348.9 14.7
342(10) 0.01055 348.9 14.2
367(10) 0.00931 348.8 13.7
363(10) 0.00919 348.8 13.2
381(11) 0.00893 348.8 12.7
376(10) 0.00991 348.7 12.3
328(9) 0.01111 348.7 11.8
347(10) 0.00995 348.6 11.3
381(11) 0.00886 348.6 10.9
364(10) 0.00952 348.5 10.5
359(10) 0.01032 348.5 10.1
366(10) 0.00976 348.4 9.7
350(10) 0.01014 348.4 9.3
348(10) 0.00991 348.4 8.9
373(10) 0.00966 348.3 8.6
342(10) 0.01086 348.3 8.3
368(10) 0.00945 348.2 8.0
359(10) 0.00946 348.2 7.7
386(11) 0.00889 348.1 7.4
375(10) 0.00952 348.1 7.2
340(10) 0.01086 348.1 6.9
352(10) 0.00969 348.0 6.7
349(10) 0.00949 348.0 6.5
351(10) 0.00994 347.9 6.3
381(10) 0.00947 347.9 6.2
377(10) 0.00992 347.8 6.0
352(10) 0.01003 347.8 5.9
371(11) 0.00869 347.7 5.7
340(10) 0.01027 347.7 5.6
365(10) 0.00995 347.7 5.5
368(10) 0.01008 347.6 5.4
371(10) 0.00961 347.6 5.3
388(11) 0.00852 347.5 5.2
361(10) 0.00992 347.5 5.1
375(10) 0.00993 347.4 5.1
359(10) 0.01037 347.4 5.0
358(10) 0.00978 347.3 5.0
365(11) 0.00898 347.3 4.9
376(10) 0.00918 347.3 4.9
358(10) 0.01029 347.2 4.8
384(10) 0.00964 347.2 4.8
339(10) 0.01068 347.1 4.8
387(11) 0.00851 347.1 4.7
339(10) 0.01045 347.0 4.7
352(10) 0.01050 347.0 4.7
343(10) 0.01051 346.9 4.6
336(10) 0.01039 346.9 4.6
366(11) 0.00850 346.9 4.5
343(10) 0.01012 346.8 4.5
349(10) 0.01071 346.8 4.4
345(10) 0.01051 346.7 4.4
350(10) 0.00984 346.7 4.3
354(10) 0.00921 346.6 4.2
359(10) 0.00977 346.6 4.2
366(10) 0.01018 346.5 4.1
359(10) 0.01000 346.5 4.1
340(10) 0.01021 346.5 4.0
362(10) 0.00914 346.4 4.0
360(10) 0.00970 346.4 4.0
339(10) 0.01096 346.3 3.9
380(10) 0.00922 346.3 3.9
336(10) 0.01040 346.2 3.9
351(10) 0.00947 346.2 3.8
323(10) 0.01091 346.1 3.8
349(10) 0.01065 346.1 3.8
378(10) 0.00939 346.1 3.8
339(10) 0.01029 346.0 3.8
357(10) 0.00973 346.0 3.7
362(10) 0.00995 345.9 3.7
352(10) 0.01051 345.9 3.7
349(10) 0.01022 345.8 3.7
376(11) 0.00893 345.8 3.7
374(10) 0.00950 345.8 3.7
363(10) 0.01015 345.7 3.7
344(10) 0.01085 345.8 3.7
360(10) 0.00965 345.8 3.7
364(10) 0.00926 345.8 3.7
403(11) 0.00820 345.8 3.8
356(10) 0.01054 345.9 3.8
365(10) 0.01019 345.9 3.8
345(10) 0.00985 345.9 3.8
314(10) 0.01045 346.0 3.8
325(10) 0.01101 346.0 3.8
354(10) 0.01051 346.0 3.9
342(10) 0.01095 346.0 3.9
329(10) 0.01054 346.1 3.9
352(11) 0.00905 346.1 4.0
348(10) 0.00987 346.1 4.0
340(10) 0.01068 346.1 4.0
353(10) 0.01050 346.2 4.1
340(10) 0.01021 346.2 4.1
354(11) 0.00906 346.2 4.1
342(10) 0.01017 346.2 4.2
325(9) 0.01150 346.3 4.2
344(10) 0.01057 346.3 4.3
364(10) 0.00960 346.3 4.4
338(10) 0.00972 346.3 4.4
351(10) 0.00989 346.4 4.5
352(10) 0.01054 346.4 4.5
364(10) 0.01018 346.4 4.6
378(10) 0.00926 346.4 4.7
350(10) 0.00938 346.5 4.8
325(10) 0.01032 346.5 4.9
342(10) 0.01084 346.5 5.0
366(10) 0.00968 346.5 5.1
351(10) 0.01016 346.6 5.2
359(10) 0.00944 346.6 5.3
356(10) 0.00990 346.6 5.4
320(9) 0.01159 346.7 5.5
340(10) 0.01063 346.7 5.6
358(10) 0.00953 346.7 5.7
333(10) 0.01026 346.7 5.9
362(10) 0.00967 346.8 6.0
344(10) 0.01082 346.8 6.1
343(10) 0.01034 346.8 6.3
336(10) 0.01056 346.8 6.4
340(10) 0.01035 346.9 6.6
353(10) 0.01029 346.9 6.8
372(10) 0.01003 346.9 6.9
361(10) 0.00947 346.9 7.1
374(11) 0.00882 347.0 7.3
360(10) 0.00936 347.0 7.4
343(10) 0.01061 347.0 7.6
345(10) 0.01082 347.0 7.8
360(10) 0.00942 347.1 8.0
369(11) 0.00892 347.1 8.2
348(10) 0.01021 347.1 8.4
397(10) 0.00915 347.1 8.6
344(10) 0.01072 347.2 8.8
366(10) 0.00940 347.2 9.1
350(10) 0.00922 347.2 9.3
315(9) 0.01144 347.2 9.6
363(10) 0.01000 347.3 9.9
343(10) 0.01092 347.3 10.2
376(10) 0.00915 347.3 10.5
396(11) 0.00806 347.4 10.9
396(11) 0.00860 347.4 11.2
390(10) 0.00954 347.4 11.7
339(9) 0.01116 347.4 12.1
362(10) 0.00941 347.5 12.7
333(10) 0.00939 347.5 13.2
333(10) 0.01045 347.5 13.8
360(10) 0.01039 347.5 14.5
366(10) 0.01015 347.6 15.3
346(10) 0.01034 347.6 16.1
371(10) 0.00907 347.6 17.0
374(10) 0.00943 347.6 17.9
375(10) 0.00992 347.7 19.0
385(10) 0.00946 347.7 20.1
349(10) 0.00964 347.7 21.4
374(11) 0.00876 347.7 22.8
404(11) 0.00838 347.8 24.2
369(10) 0.01001 347.8 25.8
365(10) 0.00969 347.8 27.5
389(11) 0.00870 347.8 29.3
391(11) 0.00854 347.9 31.2
375(10) 0.00929 347.9 33.3
391(10) 0.00944 347.9 35.4
402(11) 0.00891 347.9 37.7
395(11) 0.00875 348.0 40.0
403(11) 0.00862 348.0 42.4
404(11) 0.00864 348.0 44.9
412(10) 0.00909 348.1 47.3
441(11) 0.00789 348.1 49.7
410(11) 0.00850 348.1 52.0
421(11) 0.00806 348.1 54.2
423(11) 0.00852 348.2 56.2
406(10) 0.00920 348.2 57.9
393(10) 0.00919 348.2 59.3
412(11) 0.00839 348.2 60.3
392(11) 0.00900 348.3 60.8
371(10) 0.00987 348.3 60.9
369(10) 0.01003 348.3 60.5
367(10) 0.00928 348.3 59.7
385(11) 0.00882 348.4 58.5
400(11) 0.00877 348.4 56.9
403(11) 0.00898 348.4 55.0
371(10) 0.01007 348.4 52.9
369(10) 0.00975 348.5 50.7
399(11) 0.00815 348.5 48.3
391(10) 0.00918 348.5 45.8
399(10) 0.00928 348.5 43.4
399(10) 0.00922 348.6 41.0
377(10) 0.00946 348.6 38.6
387(11) 0.00830 348.6 36.3
388(11) 0.00897 348.6 34.1
365(10) 0.01019 348.7 32.1
375(10) 0.00973 348.7 30.1
369(10) 0.00930 348.7 28.3
356(10) 0.00908 348.8 26.5
353(10) 0.00983 348.8 24.9
357(10) 0.01027 348.8 23.4
358(10) 0.01051 348.8 22.0
359(10) 0.00965 348.9 20.7
358(10) 0.00923 348.9 19.6
379(10) 0.00918 348.9 18.5
367(10) 0.01006 348.9 17.5
389(10) 0.00916 349.0 16.6
376(11) 0.00885 349.0 15.8
331(10) 0.01042 349.0 15.0
353(10) 0.00980 349.0 14.4
343(10) 0.01079 349.1 13.8
380(10) 0.00956 349.1 13.2
366(10) 0.00967 349.1 12.7
368(10) 0.00927 349.1 12.3
363(10) 0.00934 349.2 11.9
322(9) 0.01152 349.2 11.6
335(10) 0.01038 349.2 11.3
356(10) 0.00981 349.2 11.1
352(10) 0.00978 349.3 10.9
335(10) 0.01043 349.3 10.7
352(10) 0.01063 349.3 10.6
348(10) 0.01017 349.4 10.5
352(10) 0.00967 349.4 10.4
377(11) 0.00875 349.4 10.3
368(10) 0.00956 349.4 10.2
369(10) 0.01016 349.5 10.2
345(10) 0.00946 349.5 10.1
347(10) 0.00967 349.5 10.0
350(10) 0.00986 349.5 10.0
358(10) 0.01005 349.6 9.9
335(9) 0.01123 349.6 9.7
352(10) 0.00975 349.6 9.6
365(10) 0.00927 349.6 9.5
373(10) 0.00941 349.7 9.3
332(10) 0.01104 349.7 9.1
361(10) 0.01033 349.7 8.9
351(10) 0.00983 349.7 8.6
347(10) 0.00928 349.8 8.4
358(10) 0.00945 349.8 8.2
339(10) 0.01073 349.8 7.9
366(10) 0.01007 349.8 7.7
355(10) 0.00955 349.9 7.5
324(10) 0.01015 349.9 7.3
364(10) 0.00956 349.9 7.1
362(10) 0.01031 349.9 6.9
343(10) 0.01097 350.0 6.7
328(10) 0.01049 350.0 6.5
358(10) 0.00909 350.0 6.3
354(10) 0.00982 350.1 6.2
381(10) 0.00940 350.1 6.0
332(10) 0.01105 350.1 5.9
362(10) 0.00964 350.1 5.8
349(10) 0.00934 350.2 5.7
337(10) 0.01024 350.2 5.6
323(9) 0.01139 350.2 5.5
361(10) 0.01015 350.2 5.4
375(11) 0.00907 350.3 5.3
357(11) 0.00880 350.3 5.3
344(10) 0.01036 350.3 5.2
362(10) 0.01023 350.3 5.1
391(10) 0.00916 350.4 5.1
331(10) 0.01050 350.4 5.0
335(10) 0.00970 350.4 5.0
371(10) 0.00907 350.4 5.0
355(10) 0.01055 350.5 4.9
338(10) 0.01097 350.5 4.9
343(10) 0.01032 350.5 4.9
358(10) 0.00951 350.5 4.9
357(10) 0.00979 350.6 4.9
378(10) 0.00987 350.6 4.9
347(10) 0.01030 350.6 4.9
343(10) 0.00974 350.6 4.9
342(10) 0.00963 350.7 4.9
348(10) 0.01011 350.7 4.9
338(9) 0.01120 350.7 4.9
354(10) 0.00969 350.8 4.9
348(10) 0.00976 350.8 4.9
366(10) 0.00936 350.8 5.0
361(10) 0.00992 350.8 5.0
380(10) 0.00985 350.9 5.1
330(10) 0.01010 350.9 5.1
326(10) 0.01009 350.9 5.2
365(11) 0.00897 350.9 5.2
359(10) 0.00993 351.0 5.3
370(10) 0.01011 351.0 5.4
352(10) 0.00951 351.0 5.5
329(10) 0.01011 351.0 5.7
352(10) 0.00990 351.1 5.8
366(10) 0.01024 351.1 6.0
380(10) 0.00978 351.1 6.2
371(10) 0.00981 351.1 6.4
374(11) 0.00885 351.2 6.7
390(11) 0.00872 351.2 7.1
375(10) 0.00968 351.2 7.5
369(10) 0.01009 351.2 8.1
400(11) 0.00876 351.3 9.0
373(11) 0.00830 351.3 10.3
365(10) 0.00941 351.3 12.6
379(10) 0.00991 351.3 16.8
383(10) 0.00970 351.4 23.8
390(10) 0.00916 351.4 34.9
412(11) 0.00772 351.4 50.6
433(11) 0.00818 351.5 69.8
467(11) 0.00794 351.5 89.4
461(11) 0.00794 351.5 103.6
452(11) 0.00766 351.5 106.2
423(11) 0.00813 351.6 95.8
405(11) 0.00872 351.6 77.7
409(11) 0.00904 351.6 58.2
400(10) 0.00908 351.6 41.4
383(10) 0.00925 351.7 29.0
366(10) 0.00931 351.7 21.0
377(11) 0.00906 351.7 16.4
367(10) 0.01013 351.7 14.0
385(10) 0.00952 351.8 12.9
379(10) 0.00935 351.8 12.3
376(11) 0.00883 351.8 12.0
360(10) 0.00967 351.8 11.9
363(10) 0.01014 351.9 11.8
375(10) 0.00970 351.9 11.9
362(10) 0.00930 351.9 12.0
385(11) 0.00855 351.9 12.3
389(11) 0.00897 352.0 12.7
379(10) 0.00980 352.0 13.2
381(10) 0.00940 352.0 13.8
362(10) 0.00961 352.0 14.4
381(11) 0.00871 352.1 15.2
399(11) 0.00860 352.1 15.9
367(10) 0.01013 352.1 16.7
387(11) 0.00869 352.2 17.6
393(11) 0.00839 352.2 18.5
357(10) 0.00969 352.2 19.3
385(10) 0.00908 352.2 20.2
383(10) 0.00967 352.3 21.1
380(11) 0.00897 352.3 21.8
384(11) 0.00902 352.3 22.5
395(11) 0.00890 352.3 23.1
389(10) 0.00935 352.4 23.5
414(11) 0.00901 352.4 23.7
381(10) 0.00925 352.4 23.8
389(11) 0.00842 352.4 23.6
408(11) 0.00834 352.5 23.3
381(10) 0.00974 352.5 22.9
355(10) 0.01053 352.5 22.3
395(11) 0.00862 352.5 21.7
387(11) 0.00839 352.6 20.9
386(11) 0.00903 352.6 20.2
369(10) 0.01022 352.6 19.4
384(10) 0.00969 352.6 18.6
378(10) 0.00914 352.7 17.9
386(11) 0.00830 352.7 17.2
371(10) 0.00936 352.7 16.5
379(10) 0.00992 352.7 15.9
373(10) 0.00993 352.8 15.3
369(10) 0.00944 352.8 14.8
334(10) 0.01030 352.8 14.4
361(10) 0.00949 352.9 14.0
380(10) 0.00974 352.9 13.7
387(10) 0.00944 352.9 13.4
374(10) 0.00917 352.9 13.2
357(10) 0.00939 353.0 13.0
372(10) 0.00929 353.0 12.9
372(10) 0.01014 353.0 12.8
360(10) 0.01014 353.0 12.8
375(10) 0.00928 353.1 12.9
352(10) 0.00959 353.1 12.9
347(10) 0.01006 353.1 13.1
354(10) 0.01049 353.1 13.2
352(10) 0.01045 353.2 13.5
352(10) 0.00966 353.2 13.7
344(10) 0.00973 353.2 14.0
366(10) 0.00970 353.2 14.4
362(10) 0.01034 353.3 14.7
384(10) 0.00908 353.3 15.2
341(10) 0.01028 353.3 15.6
328(10) 0.01105 353.3 16.1
359(10) 0.00981 353.4 16.7
373(10) 0.01006 353.4 17.2
366(10) 0.00950 353.4 17.8
367(11) 0.00889 353.5 18.4
379(11) 0.00896 353.5 19.0
359(10) 0.01010 353.5 19.6
360(10) 0.01026 353.5 20.1
365(10) 0.00929 353.6 20.7
342(10) 0.01002 353.6 21.3
365(10) 0.00976 353.6 21.8
364(10) 0.00997 353.6 22.3
379(10) 0.00986 353.7 22.7
379(10) 0.00933 353.7 23.1
388(11) 0.00851 353.7 23.4
378(10) 0.00933 353.7 23.6
367(10) 0.01004 353.8 23.9
357(10) 0.01052 353.8 24.1
342(10) 0.01029 353.8 24.2
363(11) 0.00903 353.8 24.4
369(10) 0.00950 353.9 24.6
371(10) 0.01011 353.9 24.9
376(10) 0.00987 353.9 25.2
349(10) 0.00987 353.9 25.6
365(11) 0.00867 354.0 26.0
366(10) 0.00938 354.0 26.6
379(10) 0.00981 354.0 27.2
388(10) 0.00959 354.0 27.7
374(10) 0.00912 354.1 28.3
357(10) 0.00916 354.1 28.7
380(11) 0.00895 354.1 28.9
393(10) 0.00933 354.2 29.0
371(10) 0.00990 354.2 28.8
380(10) 0.00926 354.2 28.5
388(11) 0.00855 354.2 28.2
371(10) 0.00948 354.3 27.9
345(10) 0.01072 354.3 27.8
372(10) 0.00986 354.3 27.7
382(11) 0.00888 354.3 27.8
367(10) 0.00923 354.4 28.0
370(11) 0.00905 354.4 28.3
369(10) 0.01007 354.3 28.5
346(10) 0.01033 354.3 28.8
361(10) 0.00940 354.3 28.8
372(11) 0.00905 354.3 28.8
363(10) 0.00965 354.2 28.7
342(10) 0.01095 354.2 28.6
370(10) 0.00949 354.2 28.5
342(10) 0.01056 354.1 28.4
401(11) 0.00835 354.1 28.4
354(10) 0.01004 354.1 28.4
347(10) 0.01066 354.1 28.4
392(10) 0.00916 354.0 28.4
375(10) 0.00934 354.0 28.4
384(11) 0.00891 354.0 28.4
339(10) 0.01063 353.9 28.3
338(10) 0.01096 353.9 28.1
348(10) 0.00995 353.9 28.0
353(10) 0.00944 353.8 27.8
377(11) 0.00896 353.8 27.5
348(10) 0.01033 353.8 27.2
336(10) 0.01106 353.8 26.8
354(10) 0.01007 353.7 26.5
365(11) 0.00887 353.7 26.0
383(11) 0.00886 353.7 25.6
392(10) 0.00944 353.6 25.2
368(10) 0.00998 353.6 24.7
352(10) 0.00999 353.6 24.3
372(11) 0.00859 353.6 23.9
359(10) 0.00964 353.5 23.5
375(10) 0.00989 353.5 23.1
347(10) 0.01068 353.5 22.7
355(10) 0.00990 353.4 22.4
389(11) 0.00823 353.4 22.1
357(10) 0.00955 353.4 22.0
372(10) 0.00996 353.3 21.9
351(10) 0.01047 353.3 22.1
371(11) 0.00892 353.3 22.6
383(11) 0.00858 353.3 23.7
372(10) 0.00909 353.2 25.8
368(10) 0.00997 353.2 29.4
401(10) 0.00929 353.2 34.8
385(10) 0.00937 353.1 41.9
400(11) 0.00799 353.1 50.2
404(11) 0.00847 353.1 58.0
412(11) 0.00898 353.0 63.0
393(10) 0.00951 353.0 63.0
372(10) 0.00952 353.0 58.4
375(11) 0.00888 353.0 51.4
381(11) 0.00884 352.9 44.4
388(10) 0.00964 352.9 38.6
391(10) 0.00934 352.9 34.2
381(11) 0.00893 352.8 31.1
353(10) 0.00965 352.8 28.6
400(11) 0.00844 352.8 26.6
366(10) 0.01008 352.8 24.8
354(10) 0.01006 352.7 23.3
375(11) 0.00866 352.7 22.1
351(10) 0.00987 352.7 21.1
379(10) 0.00941 352.6 20.5
387(10) 0.00969 352.6 20.2
398(11) 0.00879 352.6 20.1
370(10) 0.00953 352.5 20.3
367(10) 0.00925 352.5 20.7
346(10) 0.01034 352.5 21.3
375(10) 0.00995 352.5 22.0
404(11) 0.00851 352.4 22.8
361(10) 0.00925 352.4 23.7
374(10) 0.00923 352.4 24.6
376(10) 0.00974 352.3 25.4
408(10) 0.00911 352.3 26.1
412(11) 0.00875 352.3 26.9
372(11) 0.00898 352.3 27.7
355(10) 0.01003 352.2 28.7
402(11) 0.00905 352.2 29.7
376(10) 0.00987 352.2 31.0
403(11) 0.00862 352.1 32.4
386(11) 0.00864 352.1 33.9
359(10) 0.00974 352.1 35.5
350(10) 0.01079 352.0 37.1
406(10) 0.00915 352.0 38.7
413(11) 0.00832 352.0 40.2
408(11) 0.00783 352.0 41.6
391(11) 0.00873 351.9 42.7
389(10) 0.00943 351.9 43.7
400(10) 0.00929 351.9 44.5
381(10) 0.00921 351.8 45.2
385(11) 0.00842 351.8 46.1
385(10) 0.00910 351.8 47.2
414(11) 0.00901 351.8 48.7
378(10) 0.00963 351.7 50.6
400(11) 0.00881 351.7 52.9
385(11) 0.00853 351.7 55.2
380(10) 0.00920 351.6 57.3
378(10) 0.00992 351.6 58.5
387(10) 0.00948 351.6 58.1
418(11) 0.00838 351.5 56.0
392(11) 0.00863 351.5 52.5
399(11) 0.00863 351.5 48.2
372(10) 0.01005 351.5 43.9
371(10) 0.00953 351.4 39.7
365(10) 0.00947 351.4 36.2
368(11) 0.00906 351.4 33.1
385(11) 0.00864 351.3 30.7
387(10) 0.00961 351.3 28.9
328(10) 0.01075 351.3 27.5
371(11) 0.00900 351.3 26.5
375(11) 0.00882 351.2 25.9
366(10) 0.00969 351.2 25.6
351(10) 0.01048 351.2 25.4
367(10) 0.00932 351.1 25.5
385(11) 0.00873 351.1 25.7
334(10) 0.01019 351.1 26.0
346(10) 0.01028 351.0 26.4
396(10) 0.00929 351.0 26.9
352(10) 0.01005 351.0 27.6
373(11) 0.00893 351.0 28.4
365(10) 0.00950 350.9 29.5
388(10) 0.00916 350.9 31.0
394(10) 0.00931 350.9 32.9
423(11) 0.00836 350.8 35.6
401(11) 0.00830 350.8 39.0
392(11) 0.00867 350.8 43.2
406(11) 0.00903 350.8 48.2
432(11) 0.00846 350.7 53.4
398(11) 0.00862 350.7 57.9
391(11) 0.00809 350.7 60.5
384(11) 0.00878 350.6 60.2
390(10) 0.00937 350.6 57.2
412(11) 0.00896 350.6 52.6
382(10) 0.00929 350.5 47.6
400(11) 0.00812 350.5 43.1
363(10) 0.00974 350.5 39.2
390(10) 0.00925 350.5 36.2
344(10) 0.01085 350.4 33.9
377(11) 0.00898 350.4 32.1
381(11) 0.00830 350.4 30.8
368(10) 0.00922 350.3 29.7
365(10) 0.01027 350.3 28.8
385(10) 0.00961 350.3 28.0
363(10) 0.00974 350.3 27.3
372(11) 0.00875 350.2 26.6
382(10) 0.00911 350.2 25.9
364(10) 0.01016 350.2 25.3
347(10) 0.01054 350.1 24.6
380(10) 0.00955 350.1 23.9
397(11) 0.00831 350.1 23.2
395(11) 0.00850 350.0 22.5
362(10) 0.01026 350.0 21.8
344(10) 0.01067 350.0 21.1
335(10) 0.01081 350.0 20.4
383(11) 0.00868 349.9 19.8
350(10) 0.00989 349.9 19.1
365(10) 0.01021 349.9 18.5
388(11) 0.00893 349.8 18.0
361(10) 0.00912 349.8 17.5
341(10) 0.00981 349.8 17.0
365(10) 0.00933 349.7 16.5
336(9) 0.01121 349.7 16.1
345(10) 0.01032 349.7 15.7
359(10) 0.00927 349.7 15.3
345(10) 0.00961 349.6 15.0
369(10) 0.00950 349.6 14.7
341(10) 0.01095 349.6 14.4
345(10) 0.01029 349.5 14.2
353(10) 0.00947 349.5 13.9
337(10) 0.01012 349.5 13.7
367(10) 0.00978 349.5 13.5
375(10) 0.00994 349.4 13.4
365(10) 0.00923 349.4 13.2
391(11) 0.00826 349.4 13.1
345(10) 0.01049 349.3 13.0
352(10) 0.01030 349.3 12.9
379(10) 0.00992 349.3 12.9
345(10) 0.00974 349.2 12.8
367(11) 0.00880 349.2 12.8
351(10) 0.00971 349.2 12.8
373(10) 0.00980 349.2 12.8
351(10) 0.01064 349.1 12.8
356(10) 0.00982 349.1 12.8
348(10) 0.00935 349.1 12.9
348(10) 0.00999 349.0 12.9
357(10) 0.01026 349.0 13.0
344(10) 0.01077 349.0 13.1
363(11) 0.00900 349.0 13.2
338(10) 0.01002 348.9 13.3
372(10) 0.00940 348.9 13.5
356(10) 0.01041 348.9 13.6
354(10) 0.01053 348.8 13.8
361(10) 0.01001 348.8 14.0
375(11) 0.00870 348.8 14.2
366(10) 0.00947 348.7 14.5
354(10) 0.01054 348.7 14.7
374(10) 0.00993 348.7 15.0
345(10) 0.00990 348.7 15.3
344(10) 0.00985 348.6 15.6
354(10) 0.01011 348.6 16.0
338(10) 0.01085 348.6 16.4
347(10) 0.01069 348.5 16.8
356(10) 0.00962 348.5 17.3
353(10) 0.00948 348.5 17.8
340(10) 0.01037 348.5 18.4
375(10) 0.00997 348.4 19.0
352(10) 0.01031 348.4 19.7
395(11) 0.00853 348.4 20.4
386(11) 0.00860 348.3 21.2
365(10) 0.00956 348.3 22.1
374(10) 0.00994 348.3 23.1
372(10) 0.00947 348.2 24.1
376(10) 0.00913 348.2 25.2
386(11) 0.00885 348.2 26.4
394(11) 0.00899 348.2 27.6
384(10) 0.00973 348.1 28.9
368(10) 0.00957 348.1 30.2
397(11) 0.00852 348.1 31.4
376(11) 0.00897 348.0 32.5
388(10) 0.00930 348.0 33.5
361(10) 0.01029 348.0 34.2
385(10) 0.00929 348.0 34.8
413(11) 0.00815 347.9 35.1
385(10) 0.00911 347.9 35.3
386(10) 0.00931 347.9 35.3
383(10) 0.00972 347.8 35.3
392(11) 0.00880 347.8 35.2
366(11) 0.00900 347.8 35.2
371(10) 0.00928 347.7 35.2
389(10) 0.00949 347.7 35.2
389(10) 0.00954 347.7 35.3
370(10) 0.00985 347.7 35.5
372(11) 0.00880 347.6 35.8
373(10) 0.00929 347.6 36.1
401(10) 0.00932 347.6 36.5
389(10) 0.00959 347.5 36.9
397(11) 0.00860 347.5 37.4
372(11) 0.00847 347.5 38.0
405(11) 0.00856 347.5 38.6
401(10) 0.00928 347.4 39.2
414(11) 0.00904 347.4 39.9
387(10) 0.00921 347.4 40.5
415(11) 0.00766 347.3 41.2
400(11) 0.00851 347.3 41.9
403(10) 0.00922 347.3 42.6
398(10) 0.00928 347.2 43.3
409(11) 0.00839 347.2 43.9
397(11) 0.00818 347.2 44.5
411(11) 0.00822 347.2 45.1
392(10) 0.00950 347.1 45.6
398(10) 0.00926 347.1 46.1
390(11) 0.00903 347.1 46.5
387(11) 0.00890 347.0 46.9
394(11) 0.00868 347.0 47.2
396(10) 0.00944 347.0 47.4
419(11) 0.00864 347.0 47.5
367(10) 0.00922 346.9 47.6
381(11) 0.00865 346.9 47.6
381(10) 0.00921 346.9 47.6
405(10) 0.00918 346.8 47.5
383(10) 0.00951 346.8 47.4
381(11) 0.00903 346.8 47.2
406(11) 0.00836 346.7 46.9
381(10) 0.00931 346.7 46.6
388(10) 0.00951 346.7 46.3
376(10) 0.00944 346.7 46.0
383(11) 0.00890 346.6 45.5
407(11) 0.00840 346.6 45.1
385(11) 0.00904 346.6 44.6
361(10) 0.01045 346.5 44.1
386(11) 0.00869 346.5 43.5
389(11) 0.00839 346.5 42.9
396(11) 0.00904 346.4 42.2
431(11) 0.00851 346.4 41.5
415(11) 0.00896 346.4 40.8
418(11) 0.00808 346.4 40.0
386(11) 0.00882 346.3 39.3
375(10) 0.00963 346.3 38.5
402(10) 0.00908 346.3 37.6
378(10) 0.00978 346.2 36.8
344(10) 0.01012 346.2 36.0
371(11) 0.00862 346.2 35.2
400(11) 0.00891 346.2 34.4
369(10) 0.01011 346.1 33.6
386(10) 0.00969 346.1 32.8
391(11) 0.00888 346.1 32.0
381(11) 0.00896 346.0 31.3
382(11) 0.00905 346.0 30.5
380(10) 0.00979 346.0 29.8
378(10) 0.00971 345.9 29.1
380(10) 0.00909 345.9 28.4
358(11) 0.00892 345.9 27.7
372(10) 0.00962 345.9 27.0
396(10) 0.00939 345.8 26.4
356(10) 0.01055 345.8 25.8
355(10) 0.00985 345.8 25.2
368(11) 0.00897 345.7 24.6
373(10) 0.00939 345.7 24.1
395(10) 0.00946 345.7 23.6
385(10) 0.00965 345.7 23.1
368(10) 0.00943 345.6 22.7
366(11) 0.00894 345.6 22.3
351(10) 0.01014 345.6 21.9
369(10) 0.01008 345.5 21.6
354(10) 0.01025 345.5 21.3
376(10) 0.00926 345.5 21.1
385(11) 0.00870 345.4 20.9
370(10) 0.00953 345.4 20.7
386(10) 0.00946 345.4 20.6
368(10) 0.00986 345.4 20.4
377(11) 0.00854 345.3 20.4
383(11) 0.00871 345.3 20.3
367(10) 0.00966 345.3 20.3
355(10) 0.01057 345.2 20.3
369(10) 0.00937 345.2 20.4
379(11) 0.00888 345.2 20.5
340(10) 0.01058 345.2 20.6
359(10) 0.00993 345.1 20.7
355(10) 0.01042 345.1 20.9
366(10) 0.00935 345.1 21.1
349(10) 0.00994 345.0 21.4
365(10) 0.00957 345.0 21.7
370(10) 0.00981 345.0 22.1
375(10) 0.00998 344.9 22.5
387(11) 0.00875 344.9 23.1
362(10) 0.00926 344.9 23.6
358(10) 0.00978 344.9 24.3
375(10) 0.00973 344.8 25.1
353(10) 0.01056 344.8 26.1
381(11) 0.00877 344.8 27.2
397(11) 0.00827 344.7 28.5
392(11) 0.00851 344.7 30.0
367(10) 0.00999 344.7 31.7
359(10) 0.01034 344.7 33.7
365(10) 0.00937 344.6 36.0
364(11) 0.00866 344.6 38.6
368(10) 0.00928 344.6 41.6
372(10) 0.00965 344.5 44.9
377(10) 0.00994 344.5 48.5
397(11) 0.00870 344.5 52.5
421(12) 0.00752 344.4 56.7
407(11) 0.00850 344.4 61.0
400(10) 0.00942 344.4 65.3
407(11) 0.00901 344.4 69.4
395(11) 0.00870 344.3 72.9
406(11) 0.00786 344.3 75.5
421(11) 0.00837 344.3 76.9
427(11) 0.00870 344.2 76.9
430(11) 0.00862 344.2 75.4
386(10) 0.00913 344.2 72.7
403(11) 0.00805 344.2 69.0
372(10) 0.00986 344.1 64.6
423(11) 0.00866 344.1 60.0
399(10) 0.00922 344.1 55.2
402(11) 0.00856 344.0 50.6
383(11) 0.00906 344.0 46.2
369(10) 0.00935 344.0 42.2
365(10) 0.01016 343.9 38.5
383(10) 0.00926 343.9 35.2
358(10) 0.00955 343.9 32.2
337(10) 0.01020 343.9 29.6
387(11) 0.00870 343.8 27.3
364(10) 0.01013 343.8 25.2
367(10) 0.00975 343.8 23.4
339(10) 0.01040 343.7 21.8
351(10) 0.00991 343.7 20.5
339(10) 0.01037 343.7 19.2
351(10) 0.01058 343.7 18.2
357(10) 0.01011 343.6 17.2
368(10) 0.00935 343.6 16.3
349(10) 0.00994 343.6 15.6
350(10) 0.01016 343.5 14.9
354(10) 0.01038 343.5 14.2
366(10) 0.00913 343.5 13.7
357(10) 0.00933 343.4 13.2
359(10) 0.00971 343.4 12.7
339(10) 0.01050 343.4 12.2
322(9) 0.01172 343.4 11.8
351(10) 0.00968 343.3 11.5
338(10) 0.01003 343.3 11.1
361(10) 0.00975 343.3 10.8
350(10) 0.01057 343.2 10.5
342(10) 0.01088 343.2 10.2
352(10) 0.00961 343.2 10.0
341(10) 0.00974 343.1 9.7
338(10) 0.01048 343.1 9.5
351(10) 0.01063 343.1 9.3
357(10) 0.01032 343.1 9.1
336(10) 0.01058 343.0 8.9
368(11) 0.00845 343.0 8.7
344(10) 0.01032 343.0 8.6
353(10) 0.01046 342.9 8.4
357(10) 0.01029 342.9 8.3
342(10) 0.01040 342.9 8.1
367(11) 0.00858 342.9 8.0
321(10) 0.01087 342.8 7.9
331(9) 0.01125 342.8 7.8
360(10) 0.01011 342.8 7.7
330(10) 0.01039 342.8 7.6
352(10) 0.00913 342.8 7.5
331(10) 0.01069 342.7 7.4
326(9) 0.01137 342.7 7.3
364(10) 0.00978 342.7 7.3
346(10) 0.01025 342.7 7.2
358(10) 0.00931 342.7 7.2
333(10) 0.01013 342.6 7.1
345(10) 0.01086 342.6 7.1
336(10) 0.01073 342.6 7.1
360(10) 0.00926 342.6 7.1
367(11) 0.00895 342.6 7.1
362(10) 0.00936 342.5 7.1
349(10) 0.01074 342.5 7.1
365(10) 0.00967 342.5 7.1
329(10) 0.01003 342.5 7.2
344(10) 0.00993 342.5 7.3
348(10) 0.01038 342.4 7.3
350(10) 0.01051 342.4 7.3
350(10) 0.01019 342.4 7.4
352(10) 0.00970 342.4 7.4
355(10) 0.01003 342.4 7.5
389(11) 0.00906 342.3 7.6
352(10) 0.01051 342.3 7.7
344(10) 0.00972 342.3 7.9
346(10) 0.00949 342.3 8.3
341(10) 0.01029 342.3 8.7
385(10) 0.00966 342.2 9.5
387(10) 0.00958 342.2 10.6
356(10) 0.00981 342.2 12.4
376(11) 0.00875 342.2 15.1
376(10) 0.00931 342.2 18.9
404(11) 0.00900 342.1 23.9
386(10) 0.00972 342.1 29.9
386(10) 0.00923 342.1 36.2
412(11) 0.00782 342.1 41.6
395(11) 0.00896 342.1 44.2
378(10) 0.00980 342.0 42.9
387(10) 0.00964 342.0 38.4
366(10) 0.00981 342.0 32.3
384(11) 0.00855 342.0 26.2
385(11) 0.00891 342.0 20.9
345(10) 0.01085 341.9 16.8
334(9) 0.01134 341.9 13.8
364(10) 0.00939 341.9 11.8
359(11) 0.00902 341.9 10.6
349(10) 0.01008 341.9 9.9
371(10) 0.00973 341.8 9.4
360(10) 0.01044 341.8 9.2
354(10) 0.00977 341.8 9.1
389(11) 0.00819 341.8 9.0
378(11) 0.00894 341.8 9.1
368(10) 0.01024 341.8 9.1
388(10) 0.00931 341.7 9.2
348(10) 0.00998 341.7 9.4
343(10) 0.00973 341.7 9.6
347(10) 0.01002 341.7 9.8
335(9) 0.01109 341.7 10.1
366(10) 0.01013 341.6 10.4
364(10) 0.00976 341.6 10.7
360(10) 0.00953 341.6 11.1
347(10) 0.01018 341.6 11.5
338(10) 0.01096 341.6 11.9
361(10) 0.00987 341.5 12.4
351(10) 0.01018 341.5 12.9
371(10) 0.00909 341.5 13.5
366(10) 0.00926 341.5 14.1
376(10) 0.01004 341.5 14.7
355(10) 0.00996 341.4 15.4
350(10) 0.00953 341.4 16.1
337(10) 0.01015 341.4 16.9
377(11) 0.00904 341.4 17.6
418(11) 0.00895 341.4 18.5
346(10) 0.01001 341.3 19.3
352(10) 0.00977 341.3 20.2
368(10) 0.00929 341.3 21.0
351(10) 0.01019 341.3 21.9
337(9) 0.01110 341.3 22.8
362(10) 0.00948 341.2 23.7
365(11) 0.00906 341.2 24.5
351(10) 0.01010 341.2 25.3
384(10) 0.00951 341.2 26.0
375(10) 0.00990 341.2 26.7
352(10) 0.00994 341.1 27.3
375(11) 0.00885 341.1 27.8
360(10) 0.00976 341.1 28.2
384(10) 0.00962 341.1 28.6
387(10) 0.00948 341.1 28.8
377(11) 0.00899 341.0 29.0
368(11) 0.00875 341.0 29.0
368(10) 0.00945 341.0 28.9
374(10) 0.00988 341.0 28.8
388(10) 0.00951 341.0 28.5
365(10) 0.00993 340.9 28.1
351(10) 0.00969 340.9 27.7
364(10) 0.00949 340.9 27.1
341(10) 0.01089 340.9 26.5
366(10) 0.01004 340.9 25.8
364(10) 0.00997 340.8 25.0
363(10) 0.00914 340.8 24.2
353(10) 0.00995 340.8 23.3
357(10) 0.01034 340.8 22.5
352(10) 0.01064 340.8 21.6
361(10) 0.00939 340.8 20.8
366(11) 0.00892 340.7 19.9
351(10) 0.01005 340.7 19.1
395(10) 0.00946 340.7 18.3
354(10) 0.01023 340.7 17.6
325(10) 0.01057 340.7 16.7
332(10) 0.01024 340.6 15.9
368(10) 0.00911 340.6 15.0
372(10) 0.00999 340.6 14.2
337(10) 0.01098 340.6 13.4
332(10) 0.01050 340.6 12.6
357(10) 0.00933 340.5 11.9
348(10) 0.01034 340.5 11.3
363(10) 0.01021 340.5 10.7
343(10) 0.01015 340.5 10.2
326(10) 0.01032 340.5 9.7
344(10) 0.00997 340.4 9.3
332(10) 0.01100 340.4 8.8
366(10) 0.01014 340.4 8.4
346(10) 0.01023 340.4 8.1
333(10) 0.01032 340.4 7.8
355(10) 0.00962 340.3 7.5
370(10) 0.00968 340.3 7.2
366(10) 0.01018 340.3 6.9
353(10) 0.00978 340.3 6.7
364(11) 0.00906 340.3 6.5
358(10) 0.00946 340.2 6.3
336(10) 0.01052 340.2 6.1
341(10) 0.01093 340.2 5.9
352(10) 0.00997 340.2 5.7
353(10) 0.00945 340.2 5.6
353(10) 0.00980 340.1 5.5
353(10) 0.01031 340.1 5.3
346(10) 0.01086 340.1 5.2
366(10) 0.00929 340.1 5.1
340(10) 0.00949 340.1 5.0
362(10) 0.00954 340.0 4.9
332(10) 0.01102 340.0 4.9
361(10) 0.01033 340.0 4.8
361(10) 0.00934 340.0 4.7
357(10) 0.00916 340.0 4.7
345(10) 0.01012 339.9 4.6
344(10) 0.01080 339.9 4.6
330(9) 0.01119 339.9 4.6
347(10) 0.01011 339.9 4.6
336(10) 0.00964 339.9 4.6
359(10) 0.00956 339.8 4.6
353(10) 0.01069 339.8 4.7
356(10) 0.01009 339.8 4.7
371(10) 0.00948 339.8 4.8
340(10) 0.00988 339.8 5.0
339(10) 0.00990 339.8 5.2
339(10) 0.01095 339.7 5.4
332(10) 0.01092 339.7 5.8
343(10) 0.01023 339.7 6.3
341(10) 0.00982 339.7 7.0
351(10) 0.00964 339.7 7.9
337(10) 0.01096 339.6 9.0
338(10) 0.01077 339.6 10.5
374(10) 0.00923 339.6 12.2
356(10) 0.00957 339.6 14.2
353(10) 0.00980 339.6 16.3
346(10) 0.01079 339.5 18.4
348(10) 0.01035 339.5 20.0
347(10) 0.00976 339.5 20.9
360(10) 0.00946 339.5 20.8
354(10) 0.01007 339.5 19.7
343(10) 0.01094 339.4 17.8
363(10) 0.00958 339.4 15.7
351(10) 0.00987 339.4 13.6
328(10) 0.01083 339.4 11.6
348(10) 0.01005 339.4 9.9
363(10) 0.01030 339.3 8.5
320(10) 0.01092 339.3 7.4
335(10) 0.01000 339.3 6.6
358(10) 0.00968 339.3 5.9
355(10) 0.01035 339.3 5.4
353(10) 0.01054 339.2 5.0
336(10) 0.00992 339.2 4.7
337(10) 0.00938 339.2 4.5
352(10) 0.00965 339.2 4.4
359(10) 0.01039 339.2 4.2
365(10) 0.01007 339.1 4.1
357(10) 0.00984 339.1 4.0
364(11) 0.00876 339.1 4.0
339(10) 0.01043 339.1 3.9
358(10) 0.01041 339.1 3.8
335(9) 0.01125 339.0 3.8
349(10) 0.01011 339.0 3.7
349(10) 0.00922 339.0 3.6
377(10) 0.00926 339.0 3.6
314(9) 0.01193 339.0 3.5
379(10) 0.00962 338.9 3.5
357(10) 0.00971 338.9 3.5
368(11) 0.00871 338.9 3.4
325(10) 0.01098 338.9 3.4
356(10) 0.01039 338.9 3.4
352(10) 0.01035 338.8 3.3
350(10) 0.00994 338.8 3.3
347(10) 0.00974 338.8 3.3
352(10) 0.00990 338.8 3.3
349(10) 0.01054 338.8 3.3
349(10) 0.01059 338.8 3.2
337(10) 0.01014 338.7 3.2
330(10) 0.01021 338.7 3.2
340(10) 0.01015 338.7 3.2
318(9) 0.01178 338.7 3.2
314(9) 0.01121 338.7 3.2
313(9) 0.01114 338.6 3.2
353(10) 0.00930 338.6 3.2
328(10) 0.01081 338.6 3.2
332(9) 0.01133 338.6 3.2
338(10) 0.01038 338.6 3.3
345(10) 0.00984 338.5 3.3
348(10) 0.01003 338.5 3.3
368(10) 0.00960 338.5 3.3
355(10) 0.01051 338.5 3.3
342(10) 0.01056 338.5 3.2
339(10) 0.01012 338.4 3.2
353(10) 0.00953 338.4 3.2
338(10) 0.01073 338.4 3.2
335(10) 0.01104 338.4 3.2
336(10) 0.01002 338.4 3.2
346(10) 0.00948 338.3 3.2
337(10) 0.01005 338.3 3.1
357(10) 0.01012 338.3 3.1
337(10) 0.01105 338.3 3.1
328(10) 0.01070 338.3 3.1
330(10) 0.00997 338.2 3.0
331(10) 0.01029 338.2 3.0
323(9) 0.01136 338.2 3.0
328(9) 0.01135 338.2 2.9
338(10) 0.01021 338.2 2.9
321(10) 0.01011 338.1 2.8
326(10) 0.01092 338.1 2.8
351(10) 0.01046 338.1 2.8
338(9) 0.01112 338.1 2.7
347(10) 0.00976 338.1 2.7
341(10) 0.00912 338.0 2.7
317(9) 0.01133 338.0 2.6
318(9) 0.01148 338.0 2.6
366(10) 0.01006 338.0 2.5
347(10) 0.00967 338.0 2.5
332(10) 0.00980 337.9 2.5
345(10) 0.01014 337.9 2.4
375(10) 0.00990 337.9 2.4
340(10) 0.01070 337.9 2.4
338(10) 0.01009 337.9 2.3
340(10) 0.00973 337.8 2.3
348(10) 0.01003 337.8 2.3
374(10) 0.00997 337.8 2.2
349(10) 0.01051 337.8 2.2
344(10) 0.00982 337.8 2.2
355(10) 0.00942 337.8 2.2
357(10) 0.00965 337.7 2.1
334(10) 0.01103 337.7 2.1
359(10) 0.01013 337.7 2.1
375(10) 0.00922 337.7 2.1
349(10) 0.00986 337.7 2.1
326(10) 0.01062 337.6 2.0
357(10) 0.01034 337.6 2.0
328(10) 0.01093 337.6 2.0
325(10) 0.01060 337.6 2.0
336(10) 0.01008 337.6 2.0
334(10) 0.01043 337.5 2.0
334(9) 0.01116 337.5 2.0
357(10) 0.00986 337.5 2.0
361(10) 0.00916 337.5 1.9
364(10) 0.00959 337.5 1.9
348(10) 0.01007 337.4 1.9
347(10) 0.01066 337.4 1.9
336(10) 0.01054 337.4 1.9
388(11) 0.00876 337.4 1.9
369(10) 0.00946 337.4 1.9
330(10) 0.01091 337.3 1.9
356(10) 0.01042 337.3 1.9
382(11) 0.00903 337.3 1.9
339(10) 0.00967 337.3 1.9
324(10) 0.01091 337.3 1.9
354(10) 0.01011 337.2 1.9
340(10) 0.01098 337.2 1.9
354(10) 0.00970 337.2 1.9
356(10) 0.00923 337.2 1.9
352(10) 0.00993 337.2 2.0
361(10) 0.01028 337.1 2.0
356(10) 0.01043 337.1 2.0
353(10) 0.00994 337.1 2.0
365(10) 0.00937 337.1 2.0
348(10) 0.01012 337.1 2.0
350(10) 0.01071 337.1 2.0
352(10) 0.01053 337.2 2.0
331(10) 0.01088 337.2 2.1
326(10) 0.01006 337.2 2.1
358(10) 0.00948 337.3 2.1
322(9) 0.01167 337.3 2.1
328(9) 0.01133 337.3 2.1
311(9) 0.01140 337.4 2.1
365(11) 0.00866 337.4 2.1
344(10) 0.01014 337.4 2.2
360(10) 0.01045 337.5 2.2
358(10) 0.01016 337.5 2.2
320(9) 0.01152 337.5 2.2
351(10) 0.00959 337.5 2.2
339(10) 0.01072 337.6 2.2
346(10) 0.01077 337.6 2.2
340(10) 0.01049 337.6 2.3
352(10) 0.00964 337.7 2.3
329(10) 0.00981 337.7 2.3
342(10) 0.00985 337.7 2.3
338(10) 0.01095 337.8 2.3
353(10) 0.01021 337.8 2.3
348(10) 0.01008 337.8 2.4
326(10) 0.01057 337.9 2.4
335(10) 0.01075 337.9 2.4
327(9) 0.01129 337.9 2.4
377(10) 0.00943 338.0 2.4
342(10) 0.01065 338.0 2.5
364(10) 0.00936 338.0 2.5
321(9) 0.01116 338.1 2.5
352(10) 0.01066 338.1 2.5
349(10) 0.00973 338.1 2.6
373(11) 0.00902 338.1 2.6
361(10) 0.00977 338.2 2.6
365(10) 0.01004 338.2 2.7
383(10) 0.00973 338.2 2.7
352(10) 0.01010 338.3 2.7
343(10) 0.00988 338.3 2.8
353(10) 0.01009 338.3 2.8
380(10) 0.00942 338.4 2.9
343(10) 0.01092 338.4 2.9
363(10) 0.00946 338.4 3.0
328(10) 0.01020 338.5 3.0
329(10) 0.01066 338.5 3.1
309(9) 0.01202 338.5 3.2
326(9) 0.01134 338.6 3.2
346(10) 0.00991 338.6 3.3
346(10) 0.00919 338.6 3.4
338(10) 0.01035 338.7 3.5
327(9) 0.01129 338.7 3.5
368(10) 0.01014 338.7 3.6
350(10) 0.01005 338.7 3.7
358(11) 0.00905 338.8 3.9
334(10) 0.01049 338.8 4.0
362(10) 0.01023 338.8 4.1
374(10) 0.00994 338.9 4.2
376(10) 0.00913 338.9 4.3
331(10) 0.00985 338.9 4.5
345(10) 0.00973 339.0 4.6
337(10) 0.01092 339.0 4.8
352(10) 0.01053 339.0 5.0
345(10) 0.01006 339.1 5.2
338(10) 0.00934 339.1 5.4
333(10) 0.01022 339.1 5.6
347(10) 0.01059 339.2 5.8
374(10) 0.00993 339.2 6.0
370(10) 0.00951 339.2 6.3
358(10) 0.00944 339.3 6.6
337(10) 0.01015 339.3 6.9
351(10) 0.01057 339.3 7.2
355(10) 0.00970 339.3 7.5
310(9) 0.01171 339.4 7.9
341(10) 0.01004 339.4 8.3
366(10) 0.00952 339.4 8.7
345(10) 0.01076 339.5 9.2
347(10) 0.01030 339.5 9.6
376(10) 0.00907 339.5 10.2
351(10) 0.00991 339.6 10.8
358(10) 0.00983 339.6 11.4
384(10) 0.00967 339.6 12.1
370(10) 0.00967 339.7 12.8
379(10) 0.00922 339.7 13.6
383(11) 0.00898 339.7 14.5
360(10) 0.00997 339.8 15.4
358(10) 0.01050 339.8 16.4
376(11) 0.00898 339.8 17.5
381(11) 0.00875 339.8 18.6
366(10) 0.00969 339.9 19.9
346(10) 0.01047 339.9 21.2
375(10) 0.00988 339.9 22.6
376(10) 0.00927 340.0 24.1
352(10) 0.00989 340.0 25.7
389(11) 0.00889 340.0 27.4
397(10) 0.00908 340.1 29.1
413(10) 0.00908 340.1 30.9
389(10) 0.00907 340.1 32.7
392(11) 0.00826 340.2 34.5
360(10) 0.00956 340.2 36.1
374(10) 0.00987 340.2 37.6
389(10) 0.00950 340.3 38.9
381(11) 0.00903 340.3 39.9
393(11) 0.00799 340.3 40.5
387(11) 0.00860 340.4 40.7
400(10) 0.00924 340.4 40.5
384(10) 0.00946 340.4 39.9
373(10) 0.00953 340.4 39.0
368(11) 0.00906 340.5 37.9
370(10) 0.00973 340.5 36.6
389(10) 0.00950 340.5 35.3
378(10) 0.00981 340.6 33.9
392(11) 0.00881 340.6 32.5
382(11) 0.00880 340.6 31.2
392(11) 0.00854 340.7 30.0
349(10) 0.01067 340.7 28.9
373(10) 0.00982 340.7 27.9
356(10) 0.00993 340.8 27.0
347(10) 0.00932 340.8 26.2
375(10) 0.00916 340.8 25.4
370(10) 0.01001 340.9 24.7
383(10) 0.00938 340.9 24.0
356(10) 0.00983 340.9 23.4
336(10) 0.01009 341.0 22.7
338(10) 0.01029 341.0 22.0
357(10) 0.01048 341.0 21.4
353(10) 0.00982 341.0 20.7
350(10) 0.00959 341.1 20.0
366(10) 0.00944 341.1 19.3
376(10) 0.00934 341.1 18.6
376(10) 0.00994 341.2 17.9
353(10) 0.01017 341.2 17.3
364(11) 0.00905 341.2 16.7
366(10) 0.00908 341.3 16.1
364(10) 0.00985 341.3 15.6
349(10) 0.01066 341.3 15.1
336(10) 0.01087 341.4 14.6
343(10) 0.01015 341.4 14.2
335(10) 0.00979 341.4 13.8
365(10) 0.00985 341.5 13.5
357(10) 0.01032 341.5 13.2
367(10) 0.00928 341.5 13.0
356(10) 0.00962 341.6 12.8
361(10) 0.00928 341.6 12.6
338(10) 0.01071 341.6 12.5
376(10) 0.00977 341.6 12.4
367(10) 0.00967 341.7 12.3
369(11) 0.00866 341.7 12.3
374(10) 0.00909 341.7 12.3
332(10) 0.01096 341.8 12.3
346(10) 0.01062 341.8 12.4
365(10) 0.00933 341.8 12.4
384(11) 0.00805 341.9 12.5
351(10) 0.00966 341.9 12.6
337(10) 0.01093 341.9 12.7
362(10) 0.01010 342.0 12.7
384(11) 0.00891 342.0 12.8
374(11) 0.00883 342.0 12.9
375(10) 0.00917 342.1 13.0
368(10) 0.00988 342.1 13.0
353(10) 0.01065 342.1 13.1
346(10) 0.01033 342.2 13.1
370(11) 0.00878 342.2 13.2
358(10) 0.00950 342.2 13.2
340(10) 0.01092 342.2 13.2
375(10) 0.00983 342.3 13.2
358(10) 0.00981 342.3 13.2
345(10) 0.00972 342.3 13.3
363(10) 0.00934 342.4 13.4
375(10) 0.00995 342.4 13.5
373(10) 0.00958 342.4 13.9
337(10) 0.00988 342.5 14.4
344(10) 0.00982 342.5 15.2
370(10) 0.00921 342.5 16.4
365(10) 0.01007 342.6 18.0
324(9) 0.01110 342.6 20.0
367(11) 0.00897 342.6 22.3
359(10) 0.00930 342.7 24.5
335(10) 0.01041 342.7 26.1
341(10) 0.01093 342.7 26.5
367(10) 0.00961 342.8 25.5
343(10) 0.01037 342.8 23.5
353(10) 0.00973 342.8 21.0
345(10) 0.01038 342.8 18.5
360(10) 0.01038 342.9 16.3
390(11) 0.00859 342.9 14.6
369(11) 0.00862 342.9 13.2
318(10) 0.01094 343.0 12.3
320(9) 0.01126 343.0 11.6
346(10) 0.01077 343.0 11.1
346(10) 0.01008 343.1 10.8
354(10) 0.00946 343.1 10.6
357(10) 0.00989 343.1 10.4
350(10) 0.01039 343.2 10.4
330(9) 0.01121 343.2 10.3
340(10) 0.01016 343.2 10.2
368(11) 0.00890 343.3 10.2
360(10) 0.01005 343.3 10.2
363(10) 0.01029 343.3 10.3
352(10) 0.01047 343.3 10.3
359(10) 0.00948 343.4 10.4
351(11) 0.00889 343.4 10.5
353(10) 0.00984 343.4 10.6
339(10) 0.01075 343.5 10.7
361(10) 0.01024 343.5 10.9
337(10) 0.01059 343.5 11.0
351(11) 0.00905 343.6 11.1
368(10) 0.00963 343.6 11.3
366(10) 0.01009 343.6 11.4
328(9) 0.01130 343.7 11.5
373(10) 0.00917 343.7 11.7
346(10) 0.00942 343.7 11.8
381(11) 0.00882 343.8 12.0
375(10) 0.00978 343.8 12.1
368(10) 0.01001 343.8 12.3
357(10) 0.01009 343.9 12.4
359(10) 0.00955 343.9 12.6
394(11) 0.00870 343.9 12.8
389(10) 0.00959 343.9 12.9
353(10) 0.01015 344.0 13.1
351(10) 0.01008 344.0 13.3
358(10) 0.00912 344.0 13.5
355(10) 0.00953 344.1 13.6
364(10) 0.01026 344.1 13.8
357(10) 0.01003 344.1 13.9
369(11) 0.00879 344.2 14.1
337(10) 0.00995 344.2 14.2
363(10) 0.00958 344.2 14.3
366(10) 0.01015 344.3 14.3
366(10) 0.00950 344.3 14.4
369(10) 0.00932 344.3 14.4
390(11) 0.00843 344.4 14.5
366(10) 0.00967 344.4 14.5
357(10) 0.01045 344.4 14.4
359(10) 0.00958 344.5 14.4
393(11) 0.00844 344.5 14.3
374(10) 0.00926 344.5 14.2
358(10) 0.00996 344.5 14.1
375(10) 0.00991 344.6 14.0
334(10) 0.01005 344.6 13.9
362(10) 0.00923 344.6 13.9
355(10) 0.00943 344.7 13.8
363(10) 0.00981 344.7 14.0
370(10) 0.01000 344.7 14.3
355(10) 0.01019 344.8 14.9
381(11) 0.00846 344.8 15.7
364(10) 0.00946 344.8 16.6
356(10) 0.01034 344.9 17.5
376(10) 0.00989 344.9 17.9
361(10) 0.00972 344.9 17.4
373(11) 0.00870 345.0 16.3
378(10) 0.00922 345.0 14.9
366(10) 0.01002 345.0 13.5
369(10) 0.01008 345.1 12.3
352(10) 0.01007 345.1 11.5
353(10) 0.00909 345.1 10.9
360(10) 0.00949 345.1 10.4
337(9) 0.01118 345.2 10.1
339(10) 0.01095 345.2 9.9
336(10) 0.01030 345.2 9.8
343(10) 0.00936 345.3 9.6
358(10) 0.00941 345.3 9.5
353(10) 0.01050 345.3 9.3
356(10) 0.01032 345.4 9.2
341(10) 0.01051 345.4 9.0
363(10) 0.00911 345.4 8.8
365(10) 0.00939 345.5 8.6
362(10) 0.01029 345.5 8.3
322(9) 0.01151 345.5 8.1
361(10) 0.00948 345.6 7.9
360(10) 0.00937 345.6 7.7
341(10) 0.01027 345.6 7.6
351(10) 0.01058 345.7 7.5
370(10) 0.00986 345.7 7.4
371(10) 0.00924 345.7 7.3
363(10) 0.00921 345.7 7.3
341(10) 0.01046 345.8 7.4
374(10) 0.00994 345.8 7.5
357(10) 0.00980 345.8 7.6
356(10) 0.00981 345.9 7.8
333(10) 0.01013 345.9 8.0
329(10) 0.01075 345.9 8.3
347(10) 0.01068 346.0 8.6
333(10) 0.01071 346.0 8.9
332(10) 0.01016 346.0 9.3
354(10) 0.00962 346.1 9.6
348(10) 0.01035 346.1 9.9
367(10) 0.01008 346.1 10.1
346(10) 0.01035 346.2 10.3
351(10) 0.00933 346.2 10.3
356(10) 0.00937 346.2 10.3
322(9) 0.01149 346.3 10.1
345(10) 0.01085 346.3 9.9
331(10) 0.01077 346.3 9.6
342(10) 0.00951 346.3 9.3
344(10) 0.01010 346.4 9.0
347(10) 0.01047 346.4 8.7
344(10) 0.01088 346.4 8.5
327(9) 0.01131 346.5 8.2
343(10) 0.00947 346.5 8.0
366(11) 0.00905 346.5 7.9
347(10) 0.01073 346.6 7.8
341(10) 0.01091 346.6 7.8
343(10) 0.01035 346.6 7.9
371(11) 0.00871 346.7 8.0
343(10) 0.00989 346.7 8.3
367(10) 0.01013 346.7 8.6
369(10) 0.00999 346.8 9.2
333(10) 0.01032 346.8 9.9
362(11) 0.00878 346.8 11.0
368(10) 0.00970 346.8 12.6
366(10) 0.01005 346.9 14.9
399(10) 0.00932 346.9 18.1
372(10) 0.00956 346.9 22.5
384(11) 0.00852 347.0 28.2
379(10) 0.00907 347.0 35.3
402(10) 0.00928 347.0 43.5
417(11) 0.00874 347.1 52.2
408(11) 0.00885 347.1 60.2
408(11) 0.00803 347.1 65.4
389(11) 0.00883 347.2 66.2
410(11) 0.00893 347.2 62.3
375(10) 0.00994 347.2 55.1
397(11) 0.00866 347.3 46.6
357(10) 0.00918 347.3 38.4
384(11) 0.00874 347.3 31.2
363(10) 0.01017 347.4 25.4
392(10) 0.00924 347.4 21.1
365(10) 0.00947 347.4 18.1
376(11) 0.00905 347.4 16.2
353(10) 0.01031 347.5 15.2
364(10) 0.01029 347.5 15.1
390(10) 0.00912 347.5 15.7
382(10) 0.00912 347.6 16.9
370(10) 0.00924 347.6 18.6
372(10) 0.00981 347.6 20.5
375(10) 0.00984 347.7 22.5
384(10) 0.00931 347.7 23.9
381(10) 0.00909 347.7 24.3
389(11) 0.00884 347.8 23.5
380(10) 0.00952 347.8 21.5
362(10) 0.01023 347.8 19.1
350(10) 0.00976 347.9 16.5
334(10) 0.01002 347.9 14.2
341(10) 0.01011 347.9 12.2
353(10) 0.01024 348.0 10.6
351(10) 0.01066 348.0 9.3
346(10) 0.01004 348.0 8.3
365(11) 0.00865 348.0 7.5
346(10) 0.01034 348.1 7.0
362(10) 0.01002 348.1 6.5
347(10) 0.01080 348.1 6.1
339(10) 0.00979 348.2 5.8
337(10) 0.00929 348.2 5.5
335(10) 0.01053 348.2 5.2
344(10) 0.01084 348.3 5.0
337(10) 0.01084 348.3 4.8
348(10) 0.00954 348.3 4.6
358(11) 0.00867 348.4 4.4
340(10) 0.01020 348.4 4.2
320(9) 0.01166 348.4 4.0
344(10) 0.01065 348.5 3.9
335(10) 0.01064 348.5 3.7
325(10) 0.00991 348.5 3.6
339(10) 0.01008 348.6 3.4
323(9) 0.01141 348.6 3.3
321(9) 0.01136 348.6 3.2
325(10) 0.01059 348.6 3.1
344(10) 0.00962 348.6 3.0
341(10) 0.00996 348.6 2.9
344(10) 0.01081 348.6 2.8
333(10) 0.01056 348.6 2.7
355(10) 0.00989 348.6 2.6
370(10) 0.00913 348.6 2.5
356(10) . . .
346(10) . . .
325(9) . . .
349(10) . . .
326(10) . . .
326(10) . . .
345(10) . . .
342(10) . . .
343(10) . . .
337(10) . . .
318(10) . . .
332(9) . . .
342(10) . . .
320(10) . . .
330(10) . . .
317(9) . . .
336(10) . . .
327(10) . . .
343(10) . . .
351(10) . . .
329(10) . . .
356(10) . . .
340(10) . . .
337(10) . . .
330(10) . . .
367(10) . . .
344(10) . . .
345(10) . . .
341(10) . . .
329(10) . . .
328(9) . . .
356(10) . . .
323(10) . . .
339(10) . . .
333(10) . . .
351(10) . . .
364(10) . . .
326(10) . . .
336(10) . . .
332(10) . . .
348(10) . . .
328(9) . . .
358(10) . . .
338(10) . . .
323(9) . . .
334(9) . . .
336(10) . . .
339(10) . . .
354(10) . . .
357(10) . . .
345(10) . . .
352(10) . . .
336(10) . . .
329(10) . . .
348(10) . . .
340(10) . . .
344(10) . . .
335(10) . . .
334(10) . . .
346(10) . . .
350(10) . . .
335(10) . . .
318(10) . . .
336(10) . . .
341(10) . . .
352(10) . . .
345(10) . . .
335(10) . . .
348(10) . . .
356(10) . . .
347(10) . . .
330(10) . . .
353(10) . . .
367(10) . . .
335(10) . . .
347(10) . . .
337(10) . . .
352(10) . . .
358(10) . . .
338(10) . . .
305(9) . . .
318(10) . . .
351(11) . . .
357(10) . . .
329(9) . . .
306(9) . . .
339(10) . . .
345(10) . . .
327(10) . . .
367(10) . . .
344(10) . . .
359(10) . . .
343(10) . . .
337(10) . . .
328(9) . . .
330(10) . . .
358(10) . . .
354(10) . . .
344(10) . . .
329(9) . . .
356(10) . . .
340(10) . . .
330(10) . . .
341(10) . . .
347(10) . . .
340(10) . . .
324(10) . . .
327(10) . . .
334(10) . . .
325(9) . . .
360(10) . . .
357(10) . . .
363(10) . . .
350(10) . . .
347(10) . . .
326(9) . . .
341(10) . . .
322(10) . . .
358(10) . . .
344(10) . . .
330(10) . . .
347(10) . . .
357(10) . . .
342(10) . . .
355(10) . . .
373(10) . . .
343(10) . . .
354(10) . . .
354(10) . . .
373(10) . . .
356(10) . . .
363(11) . . .
367(10) . . .
316(9) . . .
349(10) . . .
328(10) . . .
370(11) . . .
365(10) . . .
369(10) . . .
373(10) . . .
354(10) . . .
378(11) . . .
349(10) . . .
361(10) . . .
362(10) . . .
380(10) . . .
361(10) . . .
375(10) . . .
355(10) . . .
345(10) . . .
364(10) . . .
364(10) . . .
367(10) . . .
320(9) . . .
360(10) . . .
369(10) . . .
399(11) . . .
338(10) . . .
356(10) . . .
357(10) . . .
363(10) . . .
360(10) . . .
361(10) . . .
316(9) . . .
337(10) . . .
335(10) . . .
356(10) . . .
341(10) . . .
351(10) . . .
348(10) . . .
340(10) . . .
322(10) . . .
352(10) . . .
340(10) . . .
348(10) . . .
344(10) . . .
358(10) . . .
337(10) . . .
343(10) . . .
346(10) . . .
347(10) . . .
347(10) . . .
315(9) . . .
349(10) . . .
335(10) . . .
314(10) . . .
347(10) . . .
340(10) . . .
311(9) . . .
370(10) . . .
336(10) . . .
343(10) . . .
336(10) . . .
299(9) . . .
332(10) . . .
333(10) . . .
352(10) . . .
338(10) . . .
296(9) . . .
325(10) . . .
328(10) . . .
338(10) . . .
354(10) . . .
373(10) . . .
336(10) . . .
344(10) . . .
316(10) . . .
318(9) . . .
336(10) . . .
346(10) . . .
348(10) . . .
335(10) . . .
334(9) . . .
365(10) . . .
320(10) . . .
345(10) . . .
374(10) . . .
340(10) . . .
350(10) . . .
327(10) . . .
352(10) . . .
370(10) . . .
377(10) . . .
349(10) . . .
398(11) . . .
368(10) . . .
335(10) . . .
343(10) . . .
348(10) . . .
350(10) . . .
346(10) . . .
354(10) . . .
357(10) . . .
344(10) . . .
364(11) . . .
338(10) . . .
344(10) . . .
346(10) . . .
339(10) . . .
360(10) . . .
341(10) . . .
322(9) . . .
321(9) . . .
325(10) . . .
332(10) . . .
345(10) . . .
338(10) . . .
361(10) . . .
338(10) . . .
347(10) . . .
355(10) . . .
345(10) . . .
363(10) . . .
345(10) . . .
345(10) . . .
376(11) . . .
356(10) . . .
354(10) . . .
365(10) . . .
355(10) . . .
367(10) . . .
382(10) . . .
377(11) . . .
372(10) . . .
402(11) . . .
426(11) . . .
395(10) . . .
436(11) . . .
425(11) . . .
436(11) . . .
420(11) . . .
407(11) . . .
392(11) . . .
383(11) . . .
379(11) . . .
413(11) . . .
402(10) . . .
394(11) . . .
397(11) . . .
415(11) . . .
400(10) . . .
407(11) . . .
381(10) . . .
395(11) . . .
336(10) . . .
338(10) . . .
331(9) . . .
363(10) . . .
376(11) . . .
314(9) . . .
339(10) . . .
341(10) . . .
337(10) . . .
348(10) . . .
352(10) . . .
335(9) . . .
330(9) . . .
342(10) . . .
329(10) . . .
327(10) . . .
301(9) . . .
340(10) . . .
359(10) . . .
337(10) . . .
312(9) . . .
338(9) . . .
334(10) . . .
323(10) . . .
320(10) . . .
329(10) . . .
319(9) . . .
298(9) . . .
352(10) . . .
348(10) . . .
322(10) . . .
323(9) . . .
343(10) . . .
341(10) . . .
336(10) . . .
329(10) . . .
340(10) . . .
341(10) . . .
317(10) . . .
329(10) . . .
307(9) . . .
325(9) . . .
335(10) . . .
348(10) . . .
344(10) . . .
319(9) . . .
332(9) . . .
307(9) . . .
308(10) . . .
354(10) . . .
353(10) . . .
314(9) . . .
328(10) . . .
313(10) . . .
346(10) . . .
329(9) . . .
333(9) . . .
338(10) . . .
326(10) . . .
336(10) . . .
317(9) . . .
335(9) . . .
338(10) . . .
339(10) . . .
350(10) . . .
351(10) . . .
347(10) . . .
309(9) . . .
318(10) . . .
335(10) . . .
330(9) . . .
317(9) . . .
329(10) . . .
328(10) . . .
325(10) . . .
331(9) . . .
340(10) . . .
319(10) . . .
314(10) . . .
338(10) . . .
322(9) . . .
306(9) . . .
332(10) . . .
339(10) . . .
327(10) . . .
314(9) . . .
315(10) . . .
312(10) . . .
315(9) . . .
322(9) . . .
311(9) . . .
335(10) . . .
333(10) . . .
339(10) . . .
333(10) . . .
317(9) . . .
316(10) . . .
328(10) . . .
322(9) . . .
328(9) . . .
338(10) . . .
318(10) . . .
298(10) . . .
334(10) . . .
330(9) . . .
323(9) . . .
321(10) . . .
324(10) . . .
336(10) . . .
335(9) . . .
339(10) . . .
302(9) . . .
334(10) . . .
335(10) . . .
324(9) . . .
330(10) . . .
317(10) . . .
324(10) . . .
330(10) . . .
308(9) . . .
308(9) . . .
317(10) . . .
328(10) . . .
332(10) . . .
311(9) . . .
313(9) . . .
340(10) . . .
324(10) . . .
330(10) . . .
324(9) . . .
341(10) . . .
327(10) . . .
326(10) . . .
302(9) . . .
313(9) . . .
340(10) . . .
321(10) . . .
327(10) . . .
326(10) . . .
309(9) . . .
310(10) . . .
309(10) . . .
328(10) . . .
326(9) . . .
322(9) . . .
313(9) . . .
334(10) . . .
309(9) . . .
306(9) . . .
342(10) . . .
317(10) . . .
317(10) . . .
364(10) . . .
357(10) . . .
345(10) . . .
356(10) . . .
343(10) . . .
361(10) . . .
328(9) . . .
334(10) . . .
365(10) . . .
343(10) . . .
325(10) . . .
373(10) . . .
360(10) . . .
352(10) . . .
349(10) . . .
354(10) . . .
355(10) . . .
340(10) . . .
347(10) . . .
350(10) . . .
348(10) . . .
335(10) . . .
327(10) . . .
325(10) . . .
334(10) . . .
347(10) . . .
365(10) . . .
354(10) . . .
327(10) . . .
333(10) . . .
320(9) . . .
327(9) . . .
340(10) . . .
345(10) . . .
359(10) . . .
325(9) . . .
327(9) . . .
315(10) . . .
373(10) . . .
380(11) . . .
366(10) . . .
382(10) . . .
333(10) . . .
374(11) . . .
371(10) . . .
377(10) . . .
383(10) . . .
366(10) . . .
359(11) . . .
390(11) . . .
389(10) . . .
370(10) . . .
361(10) . . .
358(11) . . .
345(10) . . .
356(10) . . .
323(9) . . .
332(10) . . .
318(10) . . .
333(10) . . .
327(9) . . .
343(10) . . .
361(10) . . .
330(10) . . .
336(10) . . .
309(9) . . .
336(10) . . .
293(9) . . .
312(10) . . .
322(10) . . .
297(9) . . .
313(9) . . .
332(10) . . .
325(10) . . .
300(9) . . .
293(9) . . .
299(9) . . .
298(9) . . .
300(9) . . .
309(9) . . .
322(9) . . .
317(10) . . .
300(9) . . .
286(9) . . .
319(9) . . .
314(9) . . .
284(9) . . .
282(9) . . .
287(9) . . .
313(9) . . .
267(8) . . .
287(9) . . .
309(10) . . .
318(10) . . .
300(9) . . .
303(9) . . .
327(10) . . .
324(10) . . .
316(10) . . .
309(9) . . .
314(9) . . .
303(9) . . .
333(10) . . .
290(9) . . .
295(9) . . .
309(9) . . .
275(9) . . .
286(9) . . .
320(10) . . .
333(9) . . .
328(9) . . .
270(9) . . .
278(9) . . .
324(10) . . .
283(9) . . .
276(9) . . .
276(9) . . .
293(9) . . .
318(10) . . .
299(9) . . .
271(9) . . .
316(10) . . .
301(9) . . .
309(9) . . .
311(9) . . .
294(9) . . .
298(9) . . .
309(9) . . .
316(9) . . .
296(9) . . .
315(9) . . .
289(9) . . .
310(10) . . .
290(9) . . .
310(9) . . .
312(10) . . .
299(9) . . .
314(9) . . .
313(9) . . .
311(9) . . .
298(9) . . .
324(10) . . .
293(9) . . .
294(9) . . .
309(9) . . .
310(9) . . .
329(10) . . .
305(9) . . .
311(9) . . .
317(9) . . .
301(9) . . .
314(10) . . .
314(10) . . .
294(9) . . .
320(9) . . .
299(9) . . .
297(10) . . .
291(9) . . .
297(9) . . .
314(9) . . .
296(9) . . .
297(10) . . .
328(10) . . .
291(9) . . .
282(9) . . .
314(9) . . .
317(10) . . .
301(9) . . .
296(9) . . .
302(9) . . .
316(9) . . .
290(9) . . .
313(10) . . .
328(9) . . .
273(9) . . .
289(9) . . .
303(9) . . .
290(9) . . .
306(9) . . .
308(9) . . .
346(10) . . .
300(9) . . .
293(9) . . .
315(9) . . .
302(9) . . .
285(9) . . .
305(9) . . .
289(9) . . .
294(9) . . .
310(9) . . .
315(10) . . .
308(9) . . .
294(9) . . .
293(9) . . .
288(9) . . .
314(10) . . .
299(9) . . .
301(9) . . .
307(9) . . .
279(9) . . .
290(9) . . .
311(9) . . .
293(9) . . .
306(9) . . .
293(9) . . .
276(9) . . .
316(9) . . .
281(9) . . .
320(9) . . .
297(9) . . .
299(10) . . .
308(9) . . .
301(9) . . .
311(9) . . .
296(9) . . .
304(10) . . .
320(10) . . .
340(10) . . .
330(10) . . .
331(10) . . .
333(10) . . .
322(10) . . .
305(9) . . .
327(10) . . .
333(10) . . .
310(9) . . .
323(10) . . .
284(9) . . .
316(10) . . .
324(10) . . .
299(9) . . .
298(9) . . .
319(9) . . .
297(9) . . .
320(10) . . .
305(10) . . .
303(9) . . .
304(9) . . .
312(10) . . .
332(10) . . .
321(10) . . .
299(9) . . .
309(9) . . .
320(10) . . .
349(10) . . .
311(9) . . .
355(10) . . .
325(9) . . .
344(10) . . .
343(10) . . .
328(10) . . .
297(9) . . .
338(10) . . .
304(9) . . .
320(10) . . .
322(10) . . .
334(10) . . .
326(9) . . .
326(10) . . .
311(10) . . .
294(9) . . .
320(9) . . .
322(9) . . .
298(9) . . .
309(10) . . .
301(9) . . .
301(9) . . .
287(9) . . .
281(9) . . .
297(9) . . .
339(10) . . .
266(8) . . .
284(9) . . .
298(9) . . .
291(9) . . .
316(10) . . .
293(9) . . .
276(9) . . .
293(9) . . .
312(9) . . .
296(9) . . .
307(9) . . .
302(9) . . .
280(9) . . .
274(9) . . .
284(9) . . .
279(9) . . .
286(9) . . .
286(9) . . .
274(9) . . .
291(9) . . .
291(9) . . .
288(9) . . .
276(9) . . .
310(10) . . .
292(9) . . .
287(9) . . .
290(9) . . .
287(9) . . .
280(9) . . .
306(9) . . .
280(9) . . .
273(9) . . .
281(9) . . .
286(9) . . .
287(9) . . .
309(9) . . .
291(9) . . .
276(9) . . .
300(9) . . .
271(9) . . .
265(8) . . .
280(9) . . .
288(9) . . .
300(9) . . .
291(9) . . .
285(9) . . .
280(9) . . .
273(9) . . .
281(9) . . .
301(9) . . .
294(9) . . .
275(9) . . .
299(9) . . .
287(9) . . .
275(9) . . .
292(9) . . .
310(10) . . .
265(9) . . .
264(9) . . .
278(9) . . .
289(9) . . .
281(9) . . .
287(9) . . .
275(9) . . .
257(8) . . .
277(9) . . .
298(9) . . .
291(9) . . .
273(9) . . .
274(9) . . .
298(9) . . .
285(9) . . .
296(9) . . .
286(9) . . .
281(9) . . .
292(10) . . .
288(9) . . .
296(9) . . .
292(9) . . .
312(9) . . .
288(9) . . .
304(9) . . .
315(9) . . .
292(9) . . .
283(9) . . .
300(9) . . .
275(9) . . .
274(9) . . .
308(9) . . .
301(9) . . .
300(9) . . .
286(9) . . .
293(9) . . .
293(9) . . .
303(9) . . .
317(10) . . .
308(10) . . .
312(9) . . .
318(9) . . .
298(9) . . .
319(10) . . .
322(10) . . .
293(9) . . .
314(9) . . .
296(9) . . .
306(10) . . .
298(9) . . .
319(9) . . .
340(10) . . .
289(9) . . .
299(9) . . .
297(9) . . .
319(9) . . .
308(9) . . .
300(9) . . .
284(9) . . .
259(9) . . .
297(9) . . .
281(9) . . .
316(10) . . .
279(9) . . .
284(9) . . .
288(9) . . .
291(9) . . .
286(9) . . .
314(10) . . .
284(9) . . .
281(9) . . .
283(9) . . .
276(9) . . .
277(9) . . .
270(9) . . .
282(9) . . .
283(9) . . .
287(9) . . .
289(9) . . .
274(9) . . .
268(9) . . .
282(9) . . .
293(9) . . .
290(9) . . .
293(9) . . .
278(9) . . .
283(9) . . .
309(10) . . .
288(9) . . .
289(9) . . .
277(9) . . .
285(9) . . .
313(9) . . .
299(9) . . .
313(9) . . .
322(9) . . .
307(9) . . .
310(10) . . .
289(9) . . .
318(9) . . .
319(9) . . .
341(10) . . .
304(9) . . .
300(9) . . .
316(9) . . .
308(9) . . .
299(9) . . .
331(10) . . .
314(9) . . .
313(9) . . .
327(9) . . .
338(10) . . .
294(9) . . .
311(9) . . .
293(9) . . .
291(9) . . .
290(9) . . .
301(10) . . .
289(9) . . .
278(9) . . .
275(9) . . .
285(9) . . .
296(10) . . .
297(9) . . .
278(9) . . .
279(9) . . .
268(9) . . .
282(9) . . .
259(9) . . .
297(9) . . .
281(9) . . .
279(9) . . .
274(9) . . .
269(9) . . .
280(9) . . .
288(9) . . .
280(9) . . .
270(9) . . .
262(8) . . .
260(8) . . .
274(9) . . .
266(9) . . .
284(10) . . .
267(9) . . .
281(9) . . .
268(9) . . .
267(9) . . .
259(9) . . .
263(9) . . .
260(8) . . .
262(9) . . .
246(9) . . .
257(9) . . .
258(9) . . .
270(9) . . .
273(9) . . .
254(9) . . .
256(9) . . .
284(9) . . .
263(8) . . .
271(9) . . .
239(9) . . .
267(9) . . .
253(8) . . .
270(8) . . .
251(9) . . .
256(9) . . .
254(9) . . .
259(8) . . .
281(9) . . .
266(9) . . .
249(9) . . .
252(8) . . .
282(9) . . .
265(9) . . .
272(9) . . .
270(9) . . .
260(9) . . .
266(8) . . .
309(9) . . .
275(9) . . .
240(9) . . .
248(9) . . .
280(9) . . .
261(8) . . .
266(9) . . .
274(9) . . .
252(8) . . .
232(8) . . .
248(8) . . .
255(9) . . .
255(9) . . .
258(9) . . .
270(8) . . .
269(9) . . .
277(9) . . .
274(9) . . .
255(8) . . .
254(8) . . .
261(9) . . .
270(9) . . .
270(9) . . .
249(8) . . .
262(8) . . .
261(9) . . .
278(9) . . .
245(9) . . .
246(8) . . .
247(8) . . .
268(9) . . .
268(9) . . .
256(9) . . .
239(8) . . .
268(9) . . .
252(9) . . .
242(9) . . .
239(8) . . .
260(9) . . .
253(8) . . .
259(9) . . .
270(9) . . .
248(8) . . .
249(8) . . .
261(8) . . .
266(9) . . .
253(9) . . .
269(9) . . .
272(9) . . .
277(9) . . .
249(8) . . .
250(9) . . .
255(9) . . .
247(8) . . .
256(8) . . .
249(9) . . .
253(9) . . .
272(9) . . .
272(9) . . .
248(8) . . .
257(9) . . .
250(9) . . .
238(8) . . .
250(8) . . .
263(9) . . .
259(9) . . .
274(9) . . .
256(9) . . .
264(8) . . .
253(8) . . .
255(9) . . .
263(9) . . .
290(9) . . .
298(9) . . .
280(9) . . .
265(9) . . .
251(9) . . .
261(8) . . .
288(9) . . .
272(9) . . .
243(8) . . .
243(8) . . .
259(9) . . .
249(8) . . .
258(9) . . .
260(9) . . .
269(9) . . .
281(9) . . .
276(9) . . .
289(9) . . .
281(9) . . .
273(9) . . .
277(9) . . .
266(9) . . .
279(9) . . .
274(9) . . .
253(8) . . .
255(8) . . .
255(8) . . .
249(9) . . .
248(9) . . .
274(9) . . .
257(8) . . .
283(9) . . .
281(9) . . .
266(9) . . .
263(9) . . .
264(8) . . .
268(9) . . .
237(8) . . .
230(8) . . .
271(9) . . .
251(8) . . .
239(8) . . .
266(9) . . .
263(9) . . .
238(8) . . .
258(8) . . .
244(8) . . .
265(9) . . .
269(9) . . .
259(9) . . .
246(8) . . .
283(9) . . .
249(8) . . .
254(9) . . .
281(9) . . .
258(8) . . .
257(9) . . .
244(9) . . .
265(9) . . .
265(9) . . .
244(8) . . .
234(8) . . .
250(9) . . .
252(8) . . .
245(8) . . .
255(8) . . .
247(9) . . .
274(9) . . .
264(9) . . .
254(8) . . .
266(9) . . .
258(9) . . .
241(9) . . .
243(8) . . .
274(9) . . .
263(8) . . .
276(9) . . .
250(9) . . .
275(9) . . .
240(8) . . .
256(8) . . .
245(8) . . .
246(9) . . .
275(9) . . .
258(8) . . .
249(8) . . .
256(9) . . .
247(8) . . .
261(9) . . .
270(9) . . .
289(9) . . .
235(8) . . .
242(8) . . .
249(9) . . .
248(8) . . .
237(8) . . .
243(8) . . .
244(8) . . .
262(9) . . .
241(8) . . .
231(8) . . .
262(9) . . .
247(8) . . .
254(9) . . .
268(9) . . .
266(9) . . .
236(8) . . .
248(8) . . .
268(9) . . .
234(8) . . .
240(8) . . .
276(9) . . .
248(9) . . .
253(8) . . .
268(8) . . .
254(9) . . .
248(9) . . .
257(9) . . .
247(8) . . .
244(8) . . .
257(9) . . .
239(9) . . .
279(9) . . .
265(8) . . .
269(9) . . .
248(8) . . .
246(9) . . .
271(9) . . .
248(8) . . .
243(8) . . .
252(9) . . .
263(9) . . .
271(9) . . .
267(8) . . .
238(8) . . .
239(8) . . .
246(9) . . .
260(9) . . .
245(8) . . .
246(8) . . .
269(9) . . .
248(9) . . .
239(8) . . .
234(8) . . .
257(9) . . .
249(9) . . .
238(8) . . .
238(8) . . .
242(8) . . .
230(8) . . .
236(8) . . .
266(9) . . .
257(9) . . .
243(8) . . .
255(9) . . .
271(9) . . .
209(8) . . .
243(8) . . .
238(8) . . .
251(9) . . .
250(9) . . .
251(9) . . .
268(9) . . .
260(8) . . .
235(8) . . .
235(9) . . .
234(8) . . .
230(8) . . .
269(8) . . .
247(8) . . .
236(8) . . .
265(9) . . .
228(8) . . .
244(8) . . .
252(9) . . .
240(8) . . .
245(8) . . .
232(8) . . .
248(8) . . .
246(9) . . .
245(9) . . .
229(8) . . .
216(8) . . .
222(8) . . .
219(8) . . .
251(9) . . .
260(9) . . .
244(8) . . .
234(8) . . .
214(8) . . .
226(8) . . .
256(9) . . .
236(8) . . .
251(8) . . .
234(8) . . .
219(8) . . .
224(8) . . .
228(8) . . .
229(8) . . .
238(8) . . .
236(8) . . .
249(9) . . .
256(8) . . .
249(8) . . .
271(9) . . .
238(8) . . .
229(8) . . .
235(8) . . .
255(9) . . .
221(8) . . .
254(9) . . .
244(8) . . .
235(8) . . .
263(9) . . .
213(8) . . .
244(8) . . .
225(8) . . .
234(8) . . .
248(8) . . .
248(9) . . .
242(8) . . .
245(8) . . .
236(8) . . .
262(9) . . .
231(8) . . .
237(8) . . .
228(8) . . .
236(8) . . .
231(8) . . .
251(9) . . .
240(8) . . .
246(8) . . .
238(8) . . .
245(8) . . .
221(8) . . .
236(8) . . .
227(8) . . .
230(8) . . .
255(9) . . .
248(9) . . .
241(9) . . .
244(8) . . .
250(8) . . .
217(8) . . .
231(8) . . .
233(8) . . .
247(8) . . .
224(8) . . .
244(8) . . .
242(8) . . .
221(8) . . .
238(8) . . .
223(8) . . .
258(9) . . .
240(8) . . .
259(9) . . .
244(8) . . .
242(8) . . .
241(8) . . .
253(9) . . .
238(8) . . .
255(8) . . .
234(8) . . .
241(8) . . .
232(8) . . .
244(8) . . .
244(8) . . .
234(8) . . .
248(9) . . .
273(9) . . .
253(8) . . .
277(9) . . .
237(8) . . .
250(9) . . .
251(8) . . .
258(8) . . .
255(8) . . .
250(8) . . .
284(9) . . .
297(9) . . .
308(9) . . .
307(9) . . .
292(9) . . .
326(10) . . .
257(9) . . .
256(8) . . .
245(8) . . .
256(9) . . .
241(9) . . .
270(9) . . .
274(9) . . .
270(9) . . .
266(9) . . .
263(9) . . .
264(9) . . .
268(9) . . .
273(9) . . .
283(9) . . .
282(9) . . .
243(8) . . .
256(8) . . .
266(9) . . .
272(9) . . .
267(9) . . .
245(8) . . .
250(8) . . .
253(8) . . .
247(9) . . .
252(9) . . .
242(8) . . .
226(8) . . .
249(8) . . .
261(9) . . .
245(8) . . .
259(8) . . .
260(8) . . .
259(9) . . .
249(9) . . .
239(8) . . .
250(8) . . .
241(8) . . .
230(8) . . .
256(9) . . .
247(8) . . .
261(8) . . .
244(8) . . .
254(9) . . .
263(9) . . .
272(9) . . .
246(8) . . .
263(8) . . .
249(8) . . .
237(8) . . .
254(8) . . .
262(8) . . .
237(8) . . .
249(9) . . .
258(9) . . .
249(9) . . .
224(8) . . .
224(8) . . .
244(8) . . .
251(9) . . .
235(8) . . .
236(8) . . .
252(9) . . .
255(9) . . .
230(8) . . .
236(8) . . .
238(8) . . .
239(8) . . .
246(8) . . .
241(9) . . .
225(8) . . .
238(8) . . .
259(9) . . .
237(8) . . .
234(8) . . .
238(8) . . .
254(8) . . .
269(9) . . .
230(8) . . .
247(9) . . .
224(8) . . .
268(8) . . .
230(8) . . .
253(9) . . .
244(8) . . .
247(8) . . .
257(8) . . .
262(9) . . .
274(9) . . .
267(9) . . .
270(9) . . .
253(8) . . .
262(9) . . .
253(9) . . .
262(9) . . .
258(8) . . .
261(8) . . .
243(8) . . .
255(9) . . .
249(9) . . .
258(8) . . .
248(8) . . .
245(9) . . .
231(8) . . .
237(8) . . .
244(8) . . .
233(8) . . .
218(8) . . .
247(9) . . .
236(8) . . .
259(8) . . .
248(8) . . .
229(8) . . .
241(9) . . .
262(9) . . .
252(8) . . .
241(8) . . .
256(9) . . .
253(9) . . .
246(8) . . .
251(8) . . .
245(8) . . .
249(8) . . .
258(9) . . .
268(9) . . .
274(9) . . .
256(9) . . .
252(9) . . .
246(8) . . .
271(9) . . .
268(8) . . .
278(9) . . .
284(9) . . .
271(9) . . .
305(9) . . .
282(9) . . .
267(9) . . .
257(9) . . .
267(9) . . .
274(9) . . .
262(8) . . .
252(9) . . .
242(9) . . .
239(8) . . .
237(8) . . .
236(8) . . .
228(8) . . .
240(9) . . .
237(8) . . .
242(8) . . .
252(8) . . .
235(8) . . .
259(9) . . .
256(9) . . .
256(8) . . .
292(9) . . .
243(8) . . .
234(8) . . .
236(8) . . .
235(8) . . .
252(8) . . .
244(8) . . .
256(9) . . .
232(8) . . .
227(8) . . .
246(8) . . .
228(8) . . .
272(9) . . .
254(8) . . .
221(8) . . .
232(8) . . .
245(8) . . .
249(9) . . .
234(8) . . .
232(8) . . .
240(9) . . .
236(8) . . .
229(8) . . .
227(8) . . .
232(8) . . .
232(8) . . .
219(8) . . .
243(8) . . .
227(8) . . .
231(8) . . .
269(9) . . .
232(8) . . .
244(8) . . .
225(8) . . .
214(8) . . .
221(8) . . .
221(8) . . .
208(8) . . .
212(8) . . .
235(8) . . .
235(8) . . .
248(9) . . .
220(8) . . .
228(8) . . .
237(8) . . .
234(8) . . .
231(8) . . .
232(8) . . .
246(8) . . .
234(8) . . .
231(8) . . .
230(8) . . .
229(8) . . .
225(8) . . .
229(8) . . .
227(8) . . .
241(8) . . .
235(8) . . .
229(8) . . .
226(8) . . .
215(8) . . .
224(8) . . .
239(8) . . .
223(8) . . .
214(8) . . .
219(8) . . .
246(9) . . .
260(9) . . .
252(8) . . .
249(8) . . .
228(8) . . .
241(9) . . .
260(8) . . .
237(8) . . .
223(8) . . .
223(8) . . .
223(8) . . .
239(8) . . .
228(8) . . .
216(8) . . .
227(9) . . .
217(8) . . .
220(8) . . .
246(8) . . .
234(8) . . .
233(8) . . .
237(8) . . .
235(8) . . .
252(8) . . .
238(8) . . .
231(9) . . .
243(8) . . .
231(8) . . .
219(8) . . .
207(8) . . .
241(9) . . .
241(8) . . .
224(8) . . .
224(8) . . .
223(8) . . .
212(8) . . .
224(8) . . .
225(8) . . .
220(8) . . .
227(8) . . .
214(8) . . .
233(8) . . .
238(8) . . .
207(8) . . .
221(8) . . .
206(8) . . .
218(8) . . .
223(8) . . .
214(8) . . .
218(8) . . .
238(8) . . .
229(8) . . .
212(8) . . .
203(8) . . .
215(8) . . .
221(8) . . .
236(8) . . .
219(8) . . .
209(8) . . .
198(8) . . .
217(8) . . .
251(8) . . .
222(8) . . .
227(8) . . .
207(8) . . .
216(8) . . .
223(8) . . .
228(8) . . .
220(8) . . .
211(8) . . .
221(8) . . .
235(8) . . .
272(9) . . .
234(8) . . .
230(8) . . .
248(8) . . .
267(9) . . .
230(8) . . .
235(8) . . .
230(8) . . .
219(8) . . .
227(8) . . .
238(8) . . .
210(8) . . .
219(8) . . .
235(8) . . .
235(8) . . .
221(8) . . .
207(8) . . .
213(8) . . .
209(8) . . .
227(8) . . .
219(8) . . .
223(8) . . .
226(8) . . .
214(8) . . .
210(8) . . .
240(8) . . .
218(8) . . .
212(8) . . .
203(8) . . .
224(8) . . .
233(8) . . .
228(8) . . .
220(8) . . .
223(8) . . .
217(8) . . .
238(8) . . .
234(8) . . .
234(8) . . .
225(8) . . .
214(8) . . .
219(8) . . .
226(8) . . .
227(8) . . .
209(8) . . .
222(8) . . .
245(8) . . .
240(9) . . .
230(8) . . .
219(8) . . .
228(8) . . .
214(8) . . .
228(8) . . .
224(8) . . .
213(8) . . .
207(7) . . .
229(8) . . .
235(9) . . .
241(8) . . .
233(8) . . .
239(8) . . .
230(8) . . .
260(9) . . .
241(8) . . .
241(8) . . .
251(8) . . .
244(8) . . .
238(9) . . .
241(8) . . .
250(8) . . .
242(8) . . .
231(8) . . .
210(8) . . .
226(8) . . .
250(8) . . .
253(9) . . .
230(8) . . .
229(8) . . .
226(8) . . .
235(8) . . .
243(8) . . .
219(8) . . .
225(8) . . .
239(8) . . .
223(8) . . .
231(8) . . .
227(8) . . .
223(8) . . .
219(8) . . .
218(8) . . .
223(8) . . .
207(8) . . .
233(8) . . .
218(8) . . .
213(8) . . .
228(8) . . .
214(8) . . .
222(8) . . .
202(7) . . .
237(8) . . .
226(8) . . .
232(9) . . .
226(8) . . .
223(8) . . .
220(8) . . .
224(8) . . .
213(8) . . .
211(8) . . .
220(8) . . .
220(8) . . .
211(8) . . .
229(8) . . .
226(8) . . .
245(8) . . .
228(8) . . .
220(8) . . .
221(8) . . .
221(8) . . .
218(8) . . .
208(8) . . .
213(8) . . .
216(8) . . .
212(8) . . .
212(8) . . .
237(8) . . .
211(8) . . .
218(8) . . .
222(8) . . .
198(7) . . .
204(8) . . .
209(8) . . .
190(7) . . .
196(7) . . .
211(8) . . .
203(8) . . .
218(8) . . .
211(8) . . .
204(8) . . .
208(7) . . .
209(8) . . .
211(8) . . .
225(8) . . .
225(8) . . .
216(8) . . .
212(8) . . .
216(8) . . .
210(8) . . .
211(8) . . .
221(8) . . .
197(7) . . .
230(9) . . .
212(8) . . .
224(8) . . .
214(8) . . .
227(8) . . .
220(8) . . .
234(8) . . .
226(8) . . .
222(8) . . .
205(8) . . .
210(8) . . .
189(7) . . .
215(8) . . .
203(7) . . .
213(8) . . .
202(8) . . .
232(8) . . .
222(8) . . .
214(8) . . .
200(8) . . .
211(8) . . .
227(8) . . .
236(8) . . .
209(8) . . .
230(8) . . .
205(8) . . .
199(8) . . .
218(8) . . .
212(8) . . .
226(8) . . .
218(8) . . .
211(8) . . .
217(8) . . .
248(9) . . .
209(8) . . .
217(8) . . .
225(8) . . .
216(8) . . .
233(8) . . .
198(8) . . .
202(8) . . .
221(8) . . .
211(7) . . .
209(8) . . .
222(8) . . .
235(8) . . .
212(8) . . .
226(8) . . .
209(8) . . .
191(8) . . .
204(8) . . .
204(7) . . .
212(8) . . .
214(8) . . .
223(8) . . .
197(7) . . .
221(8) . . .
224(8) . . .
208(8) . . .
224(9) . . .
218(8) . . .
217(8) . . .
212(8) . . .
211(8) . . .
211(8) . . .
236(8) . . .
219(8) . . .
233(8) . . .
219(8) . . .
203(8) . . .
207(8) . . .
213(8) . . .
224(8) . . .
219(8) . . .
216(8) . . .
204(8) . . .
197(7) . . .
208(8) . . .
230(8) . . .
212(8) . . .
213(8) . . .
226(8) . . .
239(8) . . .
217(8) . . .
248(8) . . .
260(9) . . .
236(8) . . .
220(8) . . .
227(8) . . .
252(9) . . .
247(8) . . .
257(8) . . .
259(9) . . .
259(9) . . .
261(9) . . .
254(8) . . .
258(8) . . .
262(9) . . .
245(9) . . .
246(8) . . .
236(8) . . .
249(8) . . .
265(9) . . .
240(9) . . .
222(8) . . .
231(8) . . .
237(8) . . .
242(8) . . .
227(8) . . .
228(8) . . .
221(8) . . .
201(7) . . .
222(8) . . .
225(8) . . .
228(8) . . .
209(7) . . .
203(8) . . .
236(8) . . .
217(8) . . .
216(8) . . .
211(8) . . .
206(8) . . .
216(8) . . .
226(8) . . .
206(8) . . .
210(8) . . .
226(8) . . .
224(8) . . .
223(8) . . .
206(8) . . .
205(7) . . .
196(7) . . .
188(7) . . .
217(8) . . .
228(8) . . .
204(7) . . .
191(7) . . .
197(8) . . .
205(8) . . .
213(8) . . .
216(8) . . .
232(8) . . .
220(8) . . .
221(8) . . .
213(8) . . .
207(7) . . .
234(8) . . .
212(8) . . .
208(8) . . .
214(8) . . .
197(7) . . .
203(8) . . .
224(8) . . .
225(8) . . .
231(8) . . .
215(8) . . .
210(8) . . .
214(8) . . .
210(8) . . .
228(8) . . .
199(7) . . .
219(8) . . .
220(8) . . .
217(8) . . .
223(8) . . .
228(8) . . .
218(8) . . .
214(8) . . .
218(8) . . .
216(8) . . .
205(8) . . .
202(8) . . .
218(8) . . .
215(8) . . .
219(8) . . .
211(8) . . .
185(7) . . .
184(7) . . .
188(7) . . .
196(7) . . .
218(8) . . .
219(8) . . .
216(8) . . .
213(8) . . .
226(8) . . .
215(8) . . .
214(8) . . .
208(8) . . .
240(8) . . .
212(8) . . .
221(8) . . .
202(8) . . .
197(7) . . .
190(7) . . .
223(8) . . .
216(8) . . .
224(8) . . .
217(8) . . .
232(8) . . .
223(8) . . .
219(8) . . .
189(8) . . .
216(8) . . .
197(7) . . .
233(8) . . .
236(8) . . .
207(8) . . .
206(8) . . .
220(8) . . .
222(8) . . .
212(8) . . .
199(8) . . .
213(8) . . .
208(8) . . .
210(8) . . .
217(8) . . .
228(8) . . .
197(7) . . .
212(8) . . .
212(8) . . .
218(8) . . .
220(8) . . .
204(8) . . .
198(7) . . .
231(8) . . .
218(8) . . .
209(8) . . .
199(7) . . .
187(7) . . .
237(8) . . .
214(8) . . .
213(8) . . .
212(8) . . .
205(7) . . .
225(8) . . .
231(8) . . .
214(8) . . .
219(8) . . .
208(8) . . .
209(8) . . .
199(8) . . .
217(8) . . .
216(8) . . .
213(8) . . .
208(8) . . .
230(8) . . .
211(8) . . .
198(7) . . .
207(7) . . .
231(8) . . .
212(8) . . .
211(8) . . .
216(8) . . .
206(7) . . .
211(8) . . .
223(8) . . .
208(8) . . .
201(7) . . .
186(7) . . .
200(8) . . .
218(8) . . .
216(8) . . .
224(8) . . .
210(8) . . .
220(8) . . .
234(8) . . .
220(8) . . .
219(8) . . .
218(8) . . .
222(8) . . .
209(8) . . .
201(8) . . .
199(7) . . .
228(8) . . .
205(8) . . .
209(8) . . .
219(8) . . .
227(8) . . .
216(8) . . .
196(8) . . .
204(8) . . .
233(8) . . .
220(8) . . .
223(8) . . .
235(8) . . .
244(8) . . .
212(8) . . .
213(8) . . .
208(8) . . .
213(8) . . .
229(8) . . .
227(8) . . .
224(8) . . .
212(8) . . .
229(8) . . .
200(8) . . .
205(8) . . .
209(7) . . .
234(8) . . .
219(8) . . .
219(8) . . .
215(8) . . .
234(8) . . .
246(8) . . .
233(8) . . .
242(8) . . .
238(8) . . .
250(8) . . .
262(9) . . .
243(9) . . .
249(9) . . .
254(8) . . .
238(8) . . .
234(8) . . .
216(8) . . .
203(8) . . .
213(7) . . .
230(8) . . .
225(8) . . .
205(8) . . .
211(8) . . .
206(7) . . .
199(7) . . .
210(8) . . .
229(8) . . .
210(8) . . .
224(8) . . .
229(8) . . .
201(8) . . .
202(8) . . .
224(8) . . .
217(8) . . .
205(8) . . .
215(8) . . .
225(8) . . .
212(8) . . .
210(7) . . .
216(8) . . .
207(8) . . .
213(8) . . .
237(8) . . .
215(8) . . .
228(8) . . .
224(8) . . .
209(8) . . .
219(8) . . .
204(7) . . .
228(8) . . .
215(8) . . .
221(8) . . .
216(8) . . .
235(8) . . .
221(8) . . .
212(8) . . .
218(8) . . .
235(8) . . .
223(8) . . .
224(8) . . .
214(8) . . .
215(8) . . .
198(7) . . .
217(8) . . .
203(8) . . .
231(8) . . .
207(8) . . .
209(7) . . .
212(8) . . .
203(7) . . .
222(8) . . .
222(8) . . .
203(7) . . .
202(7) . . .
223(8) . . .
213(8) . . .
195(8) . . .
228(8) . . .
201(7) . . .
216(8) . . .
186(7) . . .
229(8) . . .
227(8) . . .
213(8) . . .
224(8) . . .
247(9) . . .
212(8) . . .
214(8) . . .
221(8) . . .
221(8) . . .
201(7) . . .
216(8) . . .
209(8) . . .
207(8) . . .
209(8) . . .
216(8) . . .
210(7) . . .
237(8) . . .
216(8) . . .
198(8) . . .
213(8) . . .
216(8) . . .
215(8) . . .
236(8) . . .
215(8) . . .
221(8) . . .
211(8) . . .
225(8) . . .
195(7) . . .
205(8) . . .
210(8) . . .
231(8) . . .
228(8) . . .
228(8) . . .
236(8) . . .
209(8) . . .
224(8) . . .
232(8) . . .
232(8) . . .
209(8) . . .
220(8) . . .
222(8) . . .
234(8) . . .
221(8) . . .
239(8) . . .
218(8) . . .
210(8) . . .
228(8) . . .
225(8) . . .
206(8) . . .
230(8) . . .
236(8) . . .
247(8) . . .
233(8) . . .
270(9) . . .
272(9) . . .
263(8) . . .
260(9) . . .
249(9) . . .
230(8) . . .
246(8) . . .
232(8) . . .
241(8) . . .
217(8) . . .
219(8) . . .
226(8) . . .
256(8) . . .
245(8) . . .
211(8) . . .
233(8) . . .
235(8) . . .
225(8) . . .
234(8) . . .
231(8) . . .
230(8) . . .
221(8) . . .
241(8) . . .
222(8) . . .
204(8) . . .
209(8) . . .
222(8) . . .
216(8) . . .
221(8) . . .
201(8) . . .
228(8) . . .
203(7) . . .
214(8) . . .
212(8) . . .
212(8) . . .
213(8) . . .
197(7) . . .
220(8) . . .
197(7) . . .
209(8) . . .
214(8) . . .
214(8) . . .
200(7) . . .
223(8) . . .
210(8) . . .
208(8) . . .
212(8) . . .
201(7) . . .
196(8) . . .
221(8) . . .
222(8) . . .
231(8) . . .
221(8) . . .
209(8) . . .
213(8) . . .
200(7) . . .
214(8) . . .
212(8) . . .
222(8) . . .
210(8) . . .
222(8) . . .
193(7) . . .
205(8) . . .
219(8) . . .
220(8) . . .
215(8) . . .
195(7) . . .
195(7) . . .
217(8) . . .
197(8) . . .
203(8) . . .
216(8) . . .
215(8) . . .
212(8) . . .
226(8) . . .
209(7) . . .
217(8) . . .
220(8) . . .
206(8) . . .
174(7) . . .
206(7) . . .
214(8) . . .
210(8) . . .
216(8) . . .
191(7) . . .
208(8) . . .
227(8) . . .
210(8) . . .
224(8) . . .
222(8) . . .
220(8) . . .
218(8) . . .
213(8) . . .
217(8) . . .
227(8) . . .
199(7) . . .
201(8) . . .
206(8) . . .
218(8) . . .
213(8) . . .
220(8) . . .
207(8) . . .
223(8) . . .
225(8) . . .
193(7) . . .
211(8) . . .
209(8) . . .
207(8) . . .
220(8) . . .
226(8) . . .
220(8) . . .
205(8) . . .
229(8) . . .
223(8) . . .
195(7) . . .
209(7) . . .
218(8) . . .
242(9) . . .
226(8) . . .
210(8) . . .
229(8) . . .
200(7) . . .
219(8) . . .
201(8) . . .
211(7) . . .
197(7) . . .
201(8) . . .
199(8) . . .
221(8) . . .
221(8) . . .
214(8) . . .
229(8) . . .
223(8) . . .
242(8) . . .
244(8) . . .
233(8) . . .
227(8) . . .
233(8) . . .
259(9) . . .
257(8) . . .
250(8) . . .
244(8) . . .
235(8) . . .
245(8) . . .
263(8) . . .
242(8) . . .
256(9) . . .
238(8) . . .
239(8) . . .
257(8) . . .
248(8) . . .
239(8) . . .
263(9) . . .
250(8) . . .
236(8) . . .
241(8) . . .
224(8) . . .
219(8) . . .
215(8) . . .
231(8) . . .
236(8) . . .
217(8) . . .
220(8) . . .
212(8) . . .
207(7) . . .
212(8) . . .
209(8) . . .
211(8) . . .
230(8) . . .
228(8) . . .
232(8) . . .
237(9) . . .
204(8) . . .
204(7) . . .
200(7) . . .
233(8) . . .
176(7) . . .
207(8) . . .
212(8) . . .
208(7) . . .
211(8) . . .
197(8) . . .
202(8) . . .
231(8) . . .
201(7) . . .
197(8) . . .
202(8) . . .
190(7) . . .
212(8) . . .
226(8) . . .
207(8) . . .
218(8) . . .
223(8) . . .
200(7) . . .
206(8) . . .
200(8) . . .
215(8) . . .
219(8) . . .
205(7) . . .
202(7) . . .
191(8) . . .
211(8) . . .
199(7) . . .
199(7) . . .
201(8) . . .
233(8) . . .
210(8) . . .
213(8) . . .
197(7) . . .
223(8) . . .
200(8) . . .
220(8) . . .
234(8) . . .
229(8) . . .
237(8) . . .
209(8) . . .
205(8) . . .
215(8) . . .
207(7) . . .
205(8) . . .
217(8) . . .
206(7) . . .
215(8) . . .
202(8) . . .
205(8) . . .
234(8) . . .
239(8) . . .
224(8) . . .
210(8) . . .
214(8) . . .
234(9) . . .
222(8) . . .
209(7) . . .
217(8) . . .
214(8) . . .
218(8) . . .
223(8) . . .
229(8) . . .
208(7) . . .
232(8) . . .
231(8) . . .
194(7) . . .
203(7) . . .
215(8) . . .
202(8) . . .
202(8) . . .
211(8) . . .
204(7) . . .
206(8) . . .
216(8) . . .
224(8) . . .
184(7) . . .
196(7) . . .
196(8) . . .
212(8) . . .
201(7) . . .
214(8) . . .
199(7) . . .
204(8) . . .
215(8) . . .
206(8) . . .
216(8) . . .
218(8) . . .
204(8) . . .
211(8) . . .
216(8) . . .
209(8) . . .
210(7) . . .
202(7) . . .
220(8) . . .
216(8) . . .
207(7) . . .
207(7) . . .
245(9) . . .
203(8) . . .
214(8) . . .
191(7) . . .
221(8) . . .
210(8) . . .
221(8) . . .
205(8) . . .
207(7) . . .
212(8) . . .
221(8) . . .
219(8) . . .
216(8) . . .
234(8) . . .
217(8) . . .
230(8) . . .
222(8) . . .
232(8) . . .
228(8) . . .
229(8) . . .
228(8) . . .
227(8) . . .
237(8) . . .
248(8) . . .
230(8) . . .
241(8) . . .
248(8) . . .
251(8) . . .
246(8) . . .
244(8) . . .
251(9) . . .
258(9) . . .
227(8) . . .
240(8) . . .
232(8) . . .
240(8) . . .
229(8) . . .
238(8) . . .
237(8) . . .
218(8) . . .
234(8) . . .
243(8) . . .
211(8) . . .
206(7) . . .
230(8) . . .
227(8) . . .
226(8) . . .
228(8) . . .
214(8) . . .
206(8) . . .
226(8) . . .
221(8) . . .
199(7) . . .
205(8) . . .
219(8) . . .
217(8) . . .
209(8) . . .
214(8) . . .
219(8) . . .
216(8) . . .
215(8) . . .
215(8) . . .
217(8) . . .
194(7) . . .
215(8) . . .
202(8) . . .
220(8) . . .
208(7) . . .
205(7) . . .
215(8) . . .
214(8) . . .
216(8) . . .
200(7) . . .
218(8) . . .
219(8) . . .
214(8) . . .
207(8) . . .
189(7) . . .
195(8) . . .
210(8) . . .
204(8) . . .
227(8) . . .
221(8) . . .
226(8) . . .
212(8) . . .
228(8) . . .
221(8) . . .
192(7) . . .
209(8) . . .
228(8) . . .
223(8) . . .
196(7) . . .
201(7) . . .
214(8) . . .
202(8) . . .
189(7) . . .
183(7) . . .
209(8) . . .
213(8) . . .
195(8) . . .
214(8) . . .
209(8) . . .
214(8) . . .
233(8) . . .
204(8) . . .
216(8) . . .
215(8) . . .
218(8) . . .
220(8) . . .
217(8) . . .
218(8) . . .
215(8) . . .
204(7) . . .
211(8) . . .
206(8) . . .
208(8) . . .
212(8) . . .
196(7) . . .
232(8) . . .
208(8) . . .
207(8) . . .
213(8) . . .
184(7) . . .
195(8) . . .
209(8) . . .
211(8) . . .
208(8) . . .
213(8) . . .
204(8) . . .
219(8) . . .
205(8) . . .
212(8) . . .
209(8) . . .
222(8) . . .
190(7) . . .
203(7) . . .
216(8) . . .
205(8) . . .
222(8) . . .
205(8) . . .
210(8) . . .
203(7) . . .
223(8) . . .
212(8) . . .
220(8) . . .
216(8) . . .
216(8) . . .
216(8) . . .
237(9) . . .
224(8) . . .
197(7) . . .
217(8) . . .
238(8) . . .
213(8) . . .
210(8) . . .
219(8) . . .
222(8) . . .
220(8) . . .
221(8) . . .
241(8) . . .
223(8) . . .
212(8) . . .
205(8) . . .
201(8) . . .
216(8) . . .
220(8) . . .
201(7) . . .
210(8) . . .
229(8) . . .
223(8) . . .
218(8) . . .
220(8) . . .
214(8) . . .
208(8) . . .
227(8) . . .
218(8) . . .
207(8) . . .
206(8) . . .
203(8) . . .
204(7) . . .
219(8) . . .
200(8) . . .
200(8) . . .
198(8) . . .
214(8) . . .
202(7) . . .
204(8) . . .
207(8) . . .
204(8) . . .
219(8) . . .
205(7) . . .
194(7) . . .
179(7) . . .
197(7) . . .
216(8) . . .
192(7) . . .
220(8) . . .
209(8) . . .
211(8) . . .
201(7) . . .
207(7) . . .
234(8) . . .
193(8) . . .
181(7) . . .
219(8) . . .
208(8) . . .
205(8) . . .
208(8) . . .
202(8) . . .
199(7) . . .
209(7) . . .
211(8) . . .
203(8) . . .
194(7) . . .
201(7) . . .
216(8) . . .
196(8) . . .
203(8) . . .
215(8) . . .
212(8) . . .
211(8) . . .
211(8) . . .
199(8) . . .
205(8) . . .
202(7) . . .
227(8) . . .
238(8) . . .
225(8) . . .
221(8) . . .
210(8) . . .
215(8) . . .
227(8) . . .
226(8) . . .
213(8) . . .
204(7) . . .
225(8) . . .
253(9) . . .
262(9) . . .
231(8) . . .
237(8) . . .
248(8) . . .
224(8) . . .
216(8) . . .
212(8) . . .
229(8) . . .
225(8) . . .
223(8) . . .
212(8) . . .
227(8) . . .
231(8) . . .
242(8) . . .
231(8) . . .
245(8) . . .
243(8) . . .
219(8) . . .
233(8) . . .
246(9) . . .
256(9) . . .
262(8) . . .
248(8) . . .
252(9) . . .
264(9) . . .
261(9) . . .
243(8) . . .
241(8) . . .
224(8) . . .
253(9) . . .
232(8) . . .
223(8) . . .
246(8) . . .
236(8) . . .
237(8) . . .
221(8) . . .
224(8) . . .
231(8) . . .
224(8) . . .
244(8) . . .
245(9) . . .
204(7) . . .
227(8) . . .
227(8) . . .
222(8) . . .
239(8) . . .
219(8) . . .
225(8) . . .
216(8) . . .
207(8) . . .
234(8) . . .
224(8) . . .
211(8) . . .
222(8) . . .
215(8) . . .
196(7) . . .
215(8) . . .
194(7) . . .
204(8) . . .
196(7) . . .
203(7) . . .
217(8) . . .
184(7) . . .
207(8) . . .
209(8) . . .
223(8) . . .
188(7) . . .
211(8) . . .
226(8) . . .
224(8) . . .
236(8) . . .
224(8) . . .
224(8) . . .
216(8) . . .
208(8) . . .
208(7) . . .
212(8) . . .
224(8) . . .
196(8) . . .
217(8) . . .
230(8) . . .
234(8) . . .
207(8) . . .
222(8) . . .
208(8) . . .
218(8) . . .
211(8) . . .
197(8) . . .
195(8) . . .
206(8) . . .
222(8) . . .
213(8) . . .
180(7) . . .
211(8) . . .
215(8) . . .
213(8) . . .
215(8) . . .
202(8) . . .
207(8) . . .
211(8) . . .
217(8) . . .
225(8) . . .
216(8) . . .
209(8) . . .
212(8) . . .
222(8) . . .
212(8) . . .
204(8) . . .
201(8) . . .
185(7) . . .
201(7) . . .
223(8) . . .
202(8) . . .
217(8) . . .
201(8) . . .
210(7) . . .
214(8) . . .
209(8) . . .
189(7) . . .
196(7) . . .
193(7) . . .
186(7) . . .
223(8) . . .
204(8) . . .
190(7) . . .
225(8) . . .
211(8) . . .
192(8) . . .
190(7) . . .
220(8) . . .
208(8) . . .
216(8) . . .
198(8) . . .
201(8) . . .
214(8) . . .
222(8) . . .
210(8) . . .
209(8) . . .
191(7) . . .
201(7) . . .
188(7) . . .
210(8) . . .
197(8) . . .
204(8) . . .
222(8) . . .
208(8) . . .
203(8) . . .
195(8) . . .
204(8) . . .
211(8) . . .
214(8) . . .
217(8) . . .
208(8) . . .
189(7) . . .
221(8) . . .
193(8) . . .
184(7) . . .
221(8) . . .
220(8) . . .
200(7) . . .
202(8) . . .
192(8) . . .
214(8) . . .
195(7) . . .
224(8) . . .
232(8) . . .
207(8) . . .
217(8) . . .
214(8) . . .
215(8) . . .
224(8) . . .
204(8) . . .
212(8) . . .
218(8) . . .
203(7) . . .
192(7) . . .
205(8) . . .
211(8) . . .
233(8) . . .
234(8) . . .
221(8) . . .
211(8) . . .
222(8) . . .
213(8) . . .
225(8) . . .
228(8) . . .
221(8) . . .
202(8) . . .
216(8) . . .
216(8) . . .
225(8) . . .
218(8) . . .
196(7) . . .
233(8) . . .
221(8) . . .
220(8) . . .
210(8) . . .
233(8) . . .
243(8) . . .
215(8) . . .
210(8) . . .
212(8) . . .
195(7) . . .
208(8) . . .
217(8) . . .
187(7) . . .
220(8) . . .
207(8) . . .
214(8) . . .
224(8) . . .
200(8) . . .
219(8) . . .
211(8) . . .
218(8) . . .
215(8) . . .
237(9) . . .
235(8) . . .
209(8) . . .
200(7) . . .
215(8) . . .
232(8) . . .
221(8) . . .
211(7) . . .
212(8) . . .
218(8) . . .
204(8) . . .
220(8) . . .
186(7) . . .
172(7) . . .
202(8) . . .
215(8) . . .
205(8) . . .
191(7) . . .
199(7) . . .
226(8) . . .
201(8) . . .
208(8) . . .
202(7) . . .
195(7) . . .
199(8) . . .
201(8) . . .
217(8) . . .
211(8) . . .
216(8) . . .
229(8) . . .
233(8) . . .
236(8) . . .
241(8) . . .
239(8) . . .
253(9) . . .
224(8) . . .
213(8) . . .
227(8) . . .
237(8) . . .
230(8) . . .
219(8) . . .
216(8) . . .
219(8) . . .
216(8) . . .
226(8) . . .
206(8) . . .
211(8) . . .
208(7) . . .
214(8) . . .
206(8) . . .
225(8) . . .
215(8) . . .
218(8) . . .
222(8) . . .
233(9) . . .
234(8) . . .
220(8) . . .
223(8) . . .
217(8) . . .
211(8) . . .
221(8) . . .
227(8) . . .
223(8) . . .
232(8) . . .
212(8) . . .
205(8) . . .
189(7) . . .
226(8) . . .
221(8) . . .
209(8) . . .
185(7) . . .
208(7) . . .
215(8) . . .
215(8) . . .
172(7) . . .
206(8) . . .
199(7) . . .
187(7) . . .
212(8) . . .
190(7) . . .
196(7) . . .
213(8) . . .
204(8) . . .
195(8) . . .
205(8) . . .
216(8) . . .
194(7) . . .
202(8) . . .
191(7) . . .
202(8) . . .
204(7) . . .
222(8) . . .
225(8) . . .
200(8) . . .
203(8) . . .
214(8) . . .
208(7) . . .
213(8) . . .
204(8) . . .
206(8) . . .
203(7) . . .
209(8) . . .
191(7) . . .
197(8) . . .
216(8) . . .
209(8) . . .
197(7) . . .
197(7) . . .
203(8) . . .
208(8) . . .
228(8) . . .
196(7) . . .
197(7) . . .
211(8) . . .
208(8) . . .
214(8) . . .
216(8) . . .
210(8) . . .
204(8) . . .
206(8) . . .
216(8) . . .
209(8) . . .
203(8) . . .
198(8) . . .
196(8) . . .
188(7) . . .
194(7) . . .
196(8) . . .
189(7) . . .
194(8) . . .
187(7) . . .
197(7) . . .
200(8) . . .
197(8) . . .
218(8) . . .
199(7) . . .
195(7) . . .
220(8) . . .
203(8) . . .
187(7) . . .
214(8) . . .
210(8) . . .
197(8) . . .
210(8) . . .
224(8) . . .
205(7) . . .
188(7) . . .
205(8) . . .
207(8) . . .
194(7) . . .
214(8) . . .
208(8) . . .
205(8) . . .
208(8) . . .
217(8) . . .
215(8) . . .
181(7) . . .
203(8) . . .
211(8) . . .
210(7) . . .
216(8) . . .
203(8) . . .
225(8) . . .
224(8) . . .
219(8) . . .
210(8) . . .
201(8) . . .
215(8) . . .
215(8) . . .
213(8) . . .
203(8) . . .
204(8) . . .
196(8) . . .
202(8) . . .
204(7) . . .
208(8) . . .
226(8) . . .
212(8) . . .
209(8) . . .
212(8) . . .
208(8) . . .
208(8) . . .
225(8) . . .
212(8) . . .
209(8) . . .
219(8) . . .
197(8) . . .
195(8) . . .
195(7) . . .
215(8) . . .
187(7) . . .
204(8) . . .
208(8) . . .
198(7) . . .
199(7) . . .
173(7) . . .
207(8) . . .
214(8) . . .
192(7) . . .
199(7) . . .
196(7) . . .
221(8) . . .
217(8) . . .
196(7) . . .
194(7) . . .
216(8) . . .
207(8) . . .
186(7) . . .
191(7) . . .
203(7) . . .
209(8) . . .
211(8) . . .
212(8) . . .
220(8) . . .
197(7) . . .
220(8) . . .
200(8) . . .
213(8) . . .
217(8) . . .
219(8) . . .
206(8) . . .
199(8) . . .
212(8) . . .
224(8) . . .
229(8) . . .
201(8) . . .
207(8) . . .
203(8) . . .
216(8) . . .
210(8) . . .
219(8) . . .
208(8) . . .
204(8) . . .
195(7) . . .
213(8) . . .
204(8) . . .
201(8) . . .
208(8) . . .
216(8) . . .
217(8) . . .
224(8) . . .
197(7) . . .
200(7) . . .
219(8) . . .
201(8) . . .
194(7) . . .
195(7) . . .
203(8) . . .
213(8) . . .
201(7) . . .
208(8) . . .
206(8) . . .
201(7) . . .
207(7) . . .
199(7) . . .
191(8) . . .
209(8) . . .
202(7) . . .
192(7) . . .
197(7) . . .
192(8) . . .
193(8) . . .
211(8) . . .
206(7) . . .
201(7) . . .
226(8) . . .
200(8) . . .
202(7) . . .
206(8) . . .
207(8) . . .
196(8) . . .
192(7) . . .
209(7) . . .
223(8) . . .
208(8) . . .
190(7) . . .
198(7) . . .
201(7) . . .
207(8) . . .
211(8) . . .
205(8) . . .
196(7) . . .
209(8) . . .
205(8) . . .
214(8) . . .
203(8) . . .
185(7) . . .
191(7) . . .
200(8) . . .
210(8) . . .
208(8) . . .
199(8) . . .
205(7) . . .
212(8) . . .
222(8) . . .
215(8) . . .
207(8) . . .
196(7) . . .
193(7) . . .
218(8) . . .
229(8) . . .
229(8) . . .
216(8) . . .
220(8) . . .
218(8) . . .
206(8) . . .
213(8) . . .
198(7) . . .
207(8) . . .
205(8) . . .
192(7) . . .
183(7) . . .
202(7) . . .
219(8) . . .
204(8) . . .
193(7) . . .
179(7) . . .
201(7) . . .
209(8) . . .
197(8) . . .
199(8) . . .
183(7) . . .
193(7) . . .
190(7) . . .
211(8) . . .
183(7) . . .
198(7) . . .
195(7) . . .
185(7) . . .
212(8) . . .
193(7) . . .
195(7) . . .
206(8) . . .
198(8) . . .
223(8) . . .
193(7) . . .
207(7) . . .
217(8) . . .
195(8) . . .
186(7) . . .
186(7) . . .
218(8) . . .
189(7) . . .
199(8) . . .
226(8) . . .
218(8) . . .
218(8) . . .
203(8) . . .
205(8) . . .
203(8) . . .
215(8) . . .
214(8) . . .
203(8) . . .
196(8) . . .
207(8) . . .
199(7) . . .
201(7) . . .
214(8) . . .
216(8) . . .
224(8) . . .
219(8) . . .
231(8) . . .
194(7) . . .
223(8) . . .
202(8) . . .
200(7) . . .
213(8) . . .
205(8) . . .
211(8) . . .
205(8) . . .
207(7) . . .
182(7) . . .
197(8) . . .
204(8) . . .
212(8) . . .
214(8) . . .
208(8) . . .
177(7) . . .
183(7) . . .
176(7) . . .
198(7) . . .
217(8) . . .
219(8) . . .
208(8) . . .
208(8) . . .
218(8) . . .
185(7) . . .
207(8) . . .
198(8) . . .
203(8) . . .
195(7) . . .
191(8) . . .
204(8) . . .
178(7) . . .
198(8) . . .
194(7) . . .
193(8) . . .
186(7) . . .
201(8) . . .
196(7) . . .
211(8) . . .
212(8) . . .
181(7) . . .
185(7) . . .
193(7) . . .
186(7) . . .
211(8) . . .
188(8) . . .
191(8) . . .
209(8) . . .
207(7) . . .
175(7) . . .
202(8) . . .
202(8) . . .
208(8) . . .
219(8) . . .
189(7) . . .
196(8) . . .
213(8) . . .
193(7) . . .
189(7) . . .
214(8) . . .
207(8) . . .
205(8) . . .
196(7) . . .
176(7) . . .
195(8) . . .
207(8) . . .
197(7) . . .
202(7) . . .
211(8) . . .
211(8) . . .
203(8) . . .
214(8) . . .
192(7) . . .
209(8) . . .
203(8) . . .
206(8) . . .
201(8) . . .
217(8) . . .
223(8) . . .
217(8) . . .
211(8) . . .
226(8) . . .
185(7) . . .
187(7) . . .
197(8) . . .
205(8) . . .
198(7) . . .
215(8) . . .
217(8) . . .
201(8) . . .
197(8) . . .
198(7) . . .
194(7) . . .
195(7) . . .
209(8) . . .
209(8) . . .
211(8) . . .
209(7) . . .
207(8) . . .
197(8) . . .
194(7) . . .
200(7) . . .
207(8) . . .
189(7) . . .
195(8) . . .
205(8) . . .
214(8) . . .
225(8) . . .
227(8) . . .
225(8) . . .
214(8) . . .
206(7) . . .
222(8) . . .
189(7) . . .
204(8) . . .
213(8) . . .
220(8) . . .
193(7) . . .
207(8) . . .
202(8) . . .
229(8) . . .
202(7) . . .
209(8) . . .
208(8) . . .
222(8) . . .
206(8) . . .
197(7) . . .
229(8) . . .
210(8) . . .
202(8) . . .
209(8) . . .
215(8) . . .
191(8) . . .
194(8) . . .
199(8) . . .
218(8) . . .
195(7) . . .
234(8) . . .
209(8) . . .
201(8) . . .
214(8) . . .
214(8) . . .
190(7) . . .
202(8) . . .
214(8) . . .
197(7) . . .
185(7) . . .
181(7) . . .
194(8) . . .
208(8) . . .
177(7) . . .
205(8) . . .
185(7) . . .
208(8) . . .
195(7) . . .
201(7) . . .
195(7) . . .
203(8) . . .
193(8) . . .
186(7) . . .
198(7) . . .
194(7) . . .
211(8) . . .
214(8) . . .
190(7) . . .
196(7) . . .
199(7) . . .
191(7) . . .
193(8) . . .
194(7) . . .
195(7) . . .
186(7) . . .
195(8) . . .
202(8) . . .
190(7) . . .
188(7) . . .
210(8) . . .
211(8) . . .
202(8) . . .
212(8) . . .
196(7) . . .
214(8) . . .
215(8) . . .
208(8) . . .
191(7) . . .
208(7) . . .
218(8) . . .
207(8) . . .
181(7) . . .
211(8) . . .
194(7) . . .
191(8) . . .
205(8) . . .
196(7) . . .
193(7) . . .
186(7) . . .
190(8) . . .
202(8) . . .
200(8) . . .
181(7) . . .
205(7) . . .
191(7) . . .
188(7) . . .
204(8) . . .
196(7) . . .
188(7) . . .
191(7) . . .
184(8) . . .
174(7) . . .
195(7) . . .
187(7) . . .
208(8) . . .
202(8) . . .
174(7) . . .
194(7) . . .
208(8) . . .
175(7) . . .
191(8) . . .
189(7) . . .
182(7) . . .
178(7) . . .
195(8) . . .
202(8) . . .
194(7) . . .
223(8) . . .
217(8) . . .
207(8) . . .
185(7) . . .
188(7) . . .
196(7) . . .
184(7) . . .
175(7) . . .
212(8) . . .
208(8) . . .
190(7) . . .
206(8) . . .
183(7) . . .
205(8) . . .
212(8) . . .
194(7) . . .
190(7) . . .
194(8) . . .
198(8) . . .
184(7) . . .
194(7) . . .
183(7) . . .
206(8) . . .
185(7) . . .
192(7) . . .
178(7) . . .
190(7) . . .
192(8) . . .
184(7) . . .
185(7) . . .
198(8) . . .
198(7) . . .
189(8) . . .
177(7) . . .
190(7) . . .
199(7) . . .
194(8) . . .
186(8) . . .
182(7) . . .
232(8) . . .
199(7) . . .
186(7) . . .
198(8) . . .
193(8) . . .
186(7) . . .
183(7) . . .
189(8) . . .
189(7) . . .
194(8) . . .
198(7) . . .
180(7) . . .
175(7) . . .
195(8) . . .
195(7) . . .
215(8) . . .
206(8) . . .
182(7) . . .
190(7) . . .
193(7) . . .
192(7) . . .
196(7) . . .
205(8) . . .
201(8) . . .
191(7) . . .
194(7) . . .
202(8) . . .
194(8) . . .
204(8) . . .
181(7) . . .
186(7) . . .
183(7) . . .
181(7) . . .
176(7) . . .
176(7) . . .
189(7) . . .
195(8) . . .
185(8) . . .
180(7) . . .
190(7) . . .
175(7) . . .
199(8) . . .
190(8) . . .
182(7) . . .
178(7) . . .
186(7) . . .
200(8) . . .
198(8) . . .
187(7) . . .
209(7) . . .
205(8) . . .
186(7) . . .
208(8) . . .
197(8) . . .
196(7) . . .
191(7) . . .
194(7) . . .
202(8) . . .
200(8) . . .
194(7) . . .
211(8) . . .
204(8) . . .
216(8) . . .
183(7) . . .
222(8) . . .
196(7) . . .
185(7) . . .
190(7) . . .
179(7) . . .
185(7) . . .
187(8) . . .
185(7) . . .
205(8) . . .
189(7) . . .
199(7) . . .
210(8) . . .
186(7) . . .
190(7) . . .
182(7) . . .
173(7) . . .
199(8) . . .
178(7) . . .
190(7) . . .
187(7) . . .
180(7) . . .
170(7) . . .
186(8) . . .
189(8) . . .
186(7) . . .
193(7) . . .
193(7) . . .
199(8) . . .
189(8) . . .
181(7) . . .
193(7) . . .
192(7) . . .
198(8) . . .
172(7) . . .
180(7) . . .
190(7) . . .
188(7) . . .
186(7) . . .
205(8) . . .
183(7) . . .
195(7) . . .
185(7) . . .
194(8) . . .
157(7) . . .
197(7) . . .
219(8) . . .
195(7) . . .
177(7) . . .
191(7) . . .
193(7) . . .
209(8) . . .
172(7) . . .
189(7) . . .
192(7) . . .
187(7) . . .
188(7) . . .
203(8) . . .
191(7) . . .
193(7) . . .
181(7) . . .
188(7) . . .
189(8) . . .
198(7) . . .
190(7) . . .
156(6) . . .
196(7) . . .
205(8) . . .
188(7) . . .
199(7) . . .
213(8) . . .
201(7) . . .
216(8) . . .
202(8) . . .
189(7) . . .
182(7) . . .
193(7) . . .
195(8) . . .
178(7) . . .
192(7) . . .
196(7) . . .
178(7) . . .
190(8) . . .
191(7) . . .
201(7) . . .
189(7) . . .
197(8) . . .
198(8) . . .
170(7) . . .
199(7) . . .
187(7) . . .
194(7) . . .
204(8) . . .
206(8) . . .
191(7) . . .
190(7) . . .
208(8) . . .
216(8) . . .
206(8) . . .
204(7) . . .
222(8) . . .
217(8) . . .
223(8) . . .
220(8) . . .
229(8) . . .
202(8) . . .
184(7) . . .
184(7) . . .
191(7) . . .
210(8) . . .
197(8) . . .
194(8) . . .
200(8) . . .
194(7) . . .
217(8) . . .
183(7) . . .
198(8) . . .
185(7) . . .
168(7) . . .
178(7) . . .
205(8) . . .
209(8) . . .
198(8) . . .
192(7) . . .
186(7) . . .
191(7) . . .
197(8) . . .
192(8) . . .
208(8) . . .
218(8) . . .
203(8) . . .
221(8) . . .
203(8) . . .
179(7) . . .
200(8) . . .
197(7) . . .
193(8) . . .
163(7) . . .
188(7) . . .
204(8) . . .
199(8) . . .
179(7) . . .
212(8) . . .
188(7) . . .
186(7) . . .
210(8) . . .
206(8) . . .
200(7) . . .
178(7) . . .
195(8) . . .
194(8) . . .
209(8) . . .
171(7) . . .
215(8) . . .
194(7) . . .
189(7) . . .
202(8) . . .
184(7) . . .
188(7) . . .
215(8) . . .
200(8) . . .
203(8) . . .
185(7) . . .
182(7) . . .
204(8) . . .
204(8) . . .
222(8) . . .
191(7) . . .
233(8) . . .
196(7) . . .
203(8) . . .
198(8) . . .
195(7) . . .
208(8) . . .
213(8) . . .
201(8) . . .
202(8) . . .
207(7) . . .
197(7) . . .
202(8) . . .
198(8) . . .
186(7) . . .
192(7) . . .
187(7) . . .
196(8) . . .
186(7) . . .
200(8) . . .
193(7) . . .
196(7) . . .
218(8) . . .
191(7) . . .
192(8) . . .
206(7) . . .
209(8) . . .
208(8) . . .
185(7) . . .
195(8) . . .
186(7) . . .
180(7) . . .
189(8) . . .
185(7) . . .
216(8) . . .
195(7) . . .
200(8) . . .
185(7) . . .
187(7) . . .
186(7) . . .
189(7) . . .
207(8) . . .
186(7) . . .
187(7) . . .
195(7) . . .
200(7) . . .
194(8) . . .
211(8) . . .
170(7) . . .
193(7) . . .
206(7) . . .
206(8) . . .
198(8) . . .
181(7) . . .
195(7) . . .
204(8) . . .
183(7) . . .
190(8) . . .
179(7) . . .
234(8) . . .
188(7) . . .
190(7) . . .
188(8) . . .
176(7) . . .
177(7) . . .
188(7) . . .
188(8) . . .
196(8) . . .
201(8) . . .
211(8) . . .
189(7) . . .
181(7) . . .
182(7) . . .
206(8) . . .
204(7) . . .
189(7) . . .
201(8) . . .
191(8) . . .
196(8) . . .
195(7) . . .
188(7) . . .
185(7) . . .
197(8) . . .
180(7) . . .
197(7) . . .
222(8) . . .
193(8) . . .
194(7) . . .
202(7) . . .
198(7) . . .
203(8) . . .
183(7) . . .
195(8) . . .
184(7) . . .
186(7) . . .
203(8) . . .
173(7) . . .
201(8) . . .
180(7) . . .
200(7) . . .
200(8) . . .
197(8) . . .
191(7) . . .
171(7) . . .
182(7) . . .
177(7) . . .
175(7) . . .
166(7) . . .
191(7) . . .
193(7) . . .
196(7) . . .
201(8) . . .
183(7) . . .
174(7) . . .
187(7) . . .
208(8) . . .
212(8) . . .
193(7) . . .
205(7) . . .
188(7) . . .
202(8) . . .
193(8) . . .
203(8) . . .
191(7) . . .
189(7) . . .
189(7) . . .
179(7) . . .
188(8) . . .
199(7) . . .
187(7) . . .
197(8) . . .
214(8) . . .
189(7) . . .
193(7) . . .
197(8) . . .
197(8) . . .
207(8) . . .
193(7) . . .
187(7) . . .
208(8) . . .
195(8) . . .
204(8) . . .
221(8) . . .
207(7) . . .
188(7) . . .
189(8) . . .
178(7) . . .
199(8) . . .
191(7) . . .
213(8) . . .
179(7) . . .
185(7) . . .
197(7) . . .
189(7) . . .
199(8) . . .
185(7) . . .
192(7) . . .
188(7) . . .
191(7) . . .
206(8) . . .
203(8) . . .
206(8) . . .
186(7) . . .
179(7) . . .
192(7) . . .
188(8) . . .
180(7) . . .
187(7) . . .
197(7) . . .
190(7) . . .
201(8) . . .
192(7) . . .
213(8) . . .
189(7) . . .
193(7) . . .
209(8) . . .
215(8) . . .
176(7) . . .
181(7) . . .
190(7) . . .
199(8) . . .
197(8) . . .
207(7) . . .
200(8) . . .
212(8) . . .
193(7) . . .
215(8) . . .
193(7) . . .
205(8) . . .
190(7) . . .
208(8) . . .
224(8) . . .
210(7) . . .
190(7) . . .
206(8) . . .
203(8) . . .
209(8) . . .
212(8) . . .
229(8) . . .
220(8) . . .
196(7) . . .
208(8) . . .
201(7) . . .
208(8) . . .
197(8) . . .
205(8) . . .
206(7) . . .
197(7) . . .
179(7) . . .
214(8) . . .
206(8) . . .
212(8) . . .
211(8) . . .
215(8) . . .
220(8) . . .
208(8) . . .
200(7) . . .
194(7) . . .
190(7) . . .
189(8) . . .
203(8) . . .
189(7) . . .
184(7) . . .
188(7) . . .
168(7) . . .
206(8) . . .
192(7) . . .
198(8) . . .
185(7) . . .
203(8) . . .
217(8) . . .
210(7) . . .
203(8) . . .
184(7) . . .
191(8) . . .
173(7) . . .
193(7) . . .
205(8) . . .
192(8) . . .
184(7) . . .
181(7) . . .
185(7) . . .
188(8) . . .
189(7) . . .
196(8) . . .
188(7) . . .
188(7) . . .
184(7) . . .
180(7) . . .
208(8) . . .
209(8) . . .
181(7) . . .
213(8) . . .
209(8) . . .
214(8) . . .
189(7) . . .
189(7) . . .
188(7) . . .
183(7) . . .
196(8) . . .
173(7) . . .
186(7) . . .
199(8) . . .
187(7) . . .
206(8) . . .
199(7) . . .
207(8) . . .
187(7) . . .
174(7) . . .
191(8) . . .
179(7) . . .
206(8) . . .
205(8) . . .
190(7) . . .
185(7) . . .
196(7) . . .
182(7) . . .
166(7) . . .
204(8) . . .
169(7) . . .
170(7) . . .
188(7) . . .
188(8) . . .
193(8) . . .
192(7) . . .
193(7) . . .
176(7) . . .
193(8) . . .
181(7) . . .
177(7) . . .
187(7) . . .
187(7) . . .
178(7) . . .
178(7) . . .
193(7) . . .
187(7) . . .
172(7) . . .
180(7) . . .
197(8) . . .
210(8) . . .
189(7) . . .
186(7) . . .
187(8) . . .
201(8) . . .
194(7) . . .
181(7) . . .
190(7) . . .
185(8) . . .
191(8) . . .
177(7) . . .
193(7) . . .
164(7) . . .
192(8) . . .
196(8) . . .
177(7) . . .
185(7) . . .
190(7) . . .
166(7) . . .
162(7) . . .
182(7) . . .
181(7) . . .
186(7) . . .
186(7) . . .
206(8) . . .
186(7) . . .
201(7) . . .
216(8) . . .
178(7) . . .
181(7) . . .
188(7) . . .
183(7) . . .
182(7) . . .
195(8) . . .
182(7) . . .
193(7) . . .
186(7) . . .
184(7) . . .
189(8) . . .
175(7) . . .
179(7) . . .
170(7) . . .
170(7) . . .
192(7) . . .
185(7) . . .
166(7) . . .
183(7) . . .
194(8) . . .
193(7) . . .
190(7) . . .
187(7) . . .
186(7) . . .
183(7) . . .
193(7) . . .
189(7) . . .
184(7) . . .
181(8) . . .
185(8) . . .
191(7) . . .
199(7) . . .
189(7) . . .
178(7) . . .
200(8) . . .
213(8) . . .
192(7) . . .
193(7) . . .
175(7) . . .
162(7) . . .
180(7) . . .
192(7) . . .
188(7) . . .
192(8) . . .
189(8) . . .
189(7) . . .
180(7) . . .
204(8) . . .
201(8) . . .
183(7) . . .
186(7) . . .
199(7) . . .
180(7) . . .
193(8) . . .
196(7) . . .
212(8) . . .
195(7) . . .
203(8) . . .
189(7) . . .
180(7) . . .
194(8) . . .
179(7) . . .
198(7) . . .
184(7) . . .
190(7) . . .
179(7) . . .
178(7) . . .
193(8) . . .
199(8) . . .
212(8) . . .
207(7) . . .
214(8) . . .
187(7) . . .
202(8) . . .
200(7) . . .
192(7) . . .
189(7) . . .
175(7) . . .
204(8) . . .
193(7) . . .
186(7) . . .
195(7) . . .
170(7) . . .
185(8) . . .
201(8) . . .
199(7) . . .
174(7) . . .
175(7) . . .
199(8) . . .
190(7) . . .
201(7) . . .
183(7) . . .
193(7) . . .
188(8) . . .
177(7) . . .
199(7) . . .
187(7) . . .
189(8) . . .
193(8) . . .
183(7) . . .
193(7) . . .
194(7) . . .
187(7) . . .
178(7) . . .
193(7) . . .
185(7) . . .
174(7) . . .
170(7) . . .
194(8) . . .
191(7) . . .
185(7) . . .
193(8) . . .
179(7) . . .
189(7) . . .
188(7) . . .
203(7) . . .
213(8) . . .
174(7) . . .
179(7) . . .
193(7) . . .
208(7) . . .
192(7) . . .
177(7) . . .
187(7) . . .
189(7) . . .
188(7) . . .
197(8) . . .
169(7) . . .
188(8) . . .
197(7) . . .
193(7) . . .
181(7) . . .
170(7) . . .
173(7) . . .
172(7) . . .
182(7) . . .
166(7) . . .
175(7) . . .
200(8) . . .
201(7) . . .
176(7) . . .
173(7) . . .
182(7) . . .
188(7) . . .
181(7) . . .
166(7) . . .
179(7) . . .
189(7) . . .
186(7) . . .
205(7) . . .
177(7) . . .
179(7) . . .
175(7) . . .
183(7) . . .
177(7) . . .
179(7) . . .
202(8) . . .
196(8) . . .
182(7) . . .
201(7) . . .
184(7) . . .
178(7) . . .
182(7) . . .
200(7) . . .
185(7) . . .
191(8) . . .
199(8) . . .
192(7) . . .
204(7) . . .
174(7) . . .
183(7) . . .
182(7) . . .
179(7) . . .
198(7) . . .
191(7) . . .
207(8) . . .
207(8) . . .
190(7) . . .
190(7) . . .
172(7) . . .
172(7) . . .
171(7) . . .
197(8) . . .
190(7) . . .
200(7) . . .
172(7) . . .
175(7) . . .
196(8) . . .
207(7) . . .
186(7) . . .
179(7) . . .
186(8) . . .
191(7) . . .
197(7) . . .
188(7) . . .
188(7) . . .
198(8) . . .
178(7) . . .
180(7) . . .
167(7) . . .
189(8) . . .
184(7) . . .
186(7) . . .
184(7) . . .
196(7) . . .
170(7) . . .
171(7) . . .
188(7) . . .
187(7) . . .
190(7) . . .
192(8) . . .
189(7) . . .
191(7) . . .
183(7) . . .
197(8) . . .
211(8) . . .
195(7) . . .
182(7) . . .
189(7) . . .
182(7) . . .
185(7) . . .
195(8) . . .
202(7) . . .
204(7) . . .
191(7) . . .
197(8) . . .
188(7) . . .
178(7) . . .
195(7) . . .
165(7) . . .
187(8) . . .
188(7) . . .
187(7) . . .
204(7) . . .
178(7) . . .
181(7) . . .
204(8) . . .
201(7) . . .
189(7) . . .
203(8) . . .
186(8) . . .
188(8) . . .
172(7) . . .
192(7) . . .
185(7) . . .
198(8) . . .
203(8) . . .
202(7) . . .
187(7) . . .
199(8) . . .
202(8) . . .
188(7) . . .
181(7) . . .
177(7) . . .
181(7) . . .
185(7) . . .
192(7) . . .
186(7) . . .
189(7) . . .
181(7) . . .
194(8) . . .
190(7) . . .
185(7) . . .
195(7) . . .
187(8) . . .
186(7) . . .
192(7) . . .
180(7) . . .
175(7) . . .
167(7) . . .
179(7) . . .
194(7) . . .
195(7) . . .
166(7) . . .
179(8) . . .
165(7) . . .
168(7) . . .
188(7) . . .
213(8) . . .
198(8) . . .
193(7) . . .
177(7) . . .
181(7) . . .
188(7) . . .
187(8) . . .
186(7) . . .
170(7) . . .
189(7) . . .
200(8) . . .
188(8) . . .
174(7) . . .
192(7) . . .
170(7) . . .
187(7) . . .
191(8) . . .
183(7) . . .
172(7) . . .
182(7) . . .
195(7) . . .
188(7) . . .
184(7) . . .
179(7) . . .
197(7) . . .
179(7) . . .
187(7) . . .
180(7) . . .
188(7) . . .
180(7) . . .
181(7) . . .
205(8) . . .
183(7) . . .
178(7) . . .
214(8) . . .
181(7) . . .
172(7) . . .
187(7) . . .
180(7) . . .
210(8) . . .
189(7) . . .
185(7) . . .
205(8) . . .
199(7) . . .
188(7) . . .
199(8) . . .
184(7) . . .
186(7) . . .
195(7) . . .
189(7) . . .
184(8) . . .
177(7) . . .
196(7) . . .
198(7) . . .
190(7) . . .
179(8) . . .
192(8) . . .
166(7) . . .
165(7) . . .
184(7) . . .
199(8) . . .
210(8) . . .
213(8) . . .
186(7) . . .
186(7) . . .
206(8) . . .
206(8) . . .
215(8) . . .
186(7) . . .
183(7) . . .
184(7) . . .
192(7) . . .
176(7) . . .
186(7) . . .
188(7) . . .
207(8) . . .
195(8) . . .
186(7) . . .
195(8) . . .
204(8) . . .
189(8) . . .
184(7) . . .
193(7) . . .
199(8) . . .
187(8) . . .
178(7) . . .
199(7) . . .
190(7) . . .
200(7) . . .
201(8) . . .
199(8) . . .
190(7) . . .
192(7) . . .
180(7) . . .
173(7) . . .
187(8) . . .
175(7) . . .
179(7) . . .
178(7) . . .
177(7) . . .
192(7) . . .
190(7) . . .
171(7) . . .
185(7) . . .
173(7) . . .
178(7) . . .
191(7) . . .
177(7) . . .
178(7) . . .
208(8) . . .
183(7) . . .
186(7) . . .
194(7) . . .
201(8) . . .
198(8) . . .
160(7) . . .
175(7) . . .
200(7) . . .
202(8) . . .
192(7) . . .
197(7) . . .
201(7) . . .
196(7) . . .
209(8) . . .
201(8) . . .
192(8) . . .
202(7) . . .
208(8) . . .
206(8) . . .
196(8) . . .
203(8) . . .
187(7) . . .
199(7) . . .
206(8) . . .
205(8) . . .
181(7) . . .
174(7) . . .
195(7) . . .
198(8) . . .
183(7) . . .
182(7) . . .
191(7) . . .
190(7) . . .
204(8) . . .
184(7) . . .
182(7) . . .
179(7) . . .
172(7) . . .
192(8) . . .
190(7) . . .
184(7) . . .
186(7) . . .
210(8) . . .
204(8) . . .
177(7) . . .
181(7) . . .
180(7) . . .
202(8) . . .
181(8) . . .
170(7) . . .
176(7) . . .
180(7) . . .
194(8) . . .
183(8) . . .
184(8) . . .
189(7) . . .
180(7) . . .
176(7) . . .
164(7) . . .
195(7) . . .
186(7) . . .
187(7) . . .
198(8) . . .
188(8) . . .
182(7) . . .
193(7) . . .
184(7) . . .
188(7) . . .
198(8) . . .
211(8) . . .
194(7) . . .
183(7) . . .
191(7) . . .
178(7) . . .
178(7) . . .
191(7) . . .
200(8) . . .
201(8) . . .
178(7) . . .
169(7) . . .
187(7) . . .
183(7) . . .
182(7) . . .
188(7) . . .
178(7) . . .
188(7) . . .
201(8) . . .
205(8) . . .
176(7) . . .
189(7) . . .
193(7) . . .
186(7) . . .
184(7) . . .
188(8) . . .
179(7) . . .
179(7) . . .
177(7) . . .
166(7) . . .
197(8) . . .
195(7) . . .
189(7) . . .
206(8) . . .
180(7) . . .
186(7) . . .
170(7) . . .
192(7) . . .
183(7) . . .
180(7) . . .
180(7) . . .
183(7) . . .
184(7) . . .
184(7) . . .
184(7) . . .
190(8) . . .
190(7) . . .
185(7) . . .
179(7) . . .
172(7) . . .
196(7) . . .
207(7) . . .
186(7) . . .
184(7) . . .
173(7) . . .
183(7) . . .
178(7) . . .
170(7) . . .
170(7) . . .
172(7) . . .
170(7) . . .
191(7) . . .
166(7) . . .
176(7) . . .
199(8) . . .
179(7) . . .
180(7) . . .
191(8) . . .
188(8) . . .
183(7) . . .
176(7) . . .
185(7) . . .
199(8) . . .
208(8) . . .
179(7) . . .
182(7) . . .
166(7) . . .
169(7) . . .
174(7) . . .
167(7) . . .
184(7) . . .
198(7) . . .
174(7) . . .
178(7) . . .
194(8) . . .
188(7) . . .
189(7) . . .
173(7) . . .
175(7) . . .
181(7) . . .
180(7) . . .
172(7) . . .
183(7) . . .
188(7) . . .
172(7) . . .
186(7) . . .
184(7) . . .
179(7) . . .
188(8) . . .
178(7) . . .
193(7) . . .
177(7) . . .
185(7) . . .
182(7) . . .
177(7) . . .
179(7) . . .
163(7) . . .
176(7) . . .
179(7) . . .
179(7) . . .
177(7) . . .
196(7) . . .
200(8) . . .
180(7) . . .
182(7) . . .
193(7) . . .
198(8) . . .
178(7) . . .
194(8) . . .
181(7) . . .
199(7) . . .
183(7) . . .
205(8) . . .
188(7) . . .
189(7) . . .
199(7) . . .
186(7) . . .
182(8) . . .
171(7) . . .
174(7) . . .
175(7) . . .
178(7) . . .
184(8) . . .
197(8) . . .
176(7) . . .
199(7) . . .
176(7) . . .
184(7) . . .
176(7) . . .
182(7) . . .
182(7) . . .
157(7) . . .
177(7) . . .
183(7) . . .
204(7) . . .
166(7) . . .
177(7) . . .
183(7) . . .
212(8) . . .
185(7) . . .
204(8) . . .
184(7) . . .
180(7) . . .
189(7) . . .
205(7) . . .
180(7) . . .
167(7) . . .
165(7) . . .
164(7) . . .
179(7) . . .
200(8) . . .
187(8) . . .
201(8) . . .
193(7) . . .
186(7) . . .
188(8) . . .
179(8) . . .
177(7) . . .
203(7) . . .
170(7) . . .
180(7) . . .
186(8) . . .
176(7) . . .
184(7) . . .
182(7) . . .
182(7) . . .
175(8) . . .
181(7) . . .
166(7) . . .
176(7) . . .
186(7) . . .
170(7) . . .
156(7) . . .
169(7) . . .
182(7) . . .
166(7) . . .
180(7) . . .
170(7) . . .
195(7) . . .
185(7) . . .
184(7) . . .
188(7) . . .
173(7) . . .
167(7) . . .
163(7) . . .
186(7) . . .
178(7) . . .
180(7) . . .
165(7) . . .
192(7) . . .
174(7) . . .
179(7) . . .
179(7) . . .
161(7) . . .
185(7) . . .
183(7) . . .
178(8) . . .
165(7) . . .
170(7) . . .
169(7) . . .
170(7) . . .
177(7) . . .
171(7) . . .
173(7) . . .
164(7) . . .
189(8) . . .
175(7) . . .
187(7) . . .
177(7) . . .
163(7) . . .
194(8) . . .
193(7) . . .
177(7) . . .
175(7) . . .
172(7) . . .
164(7) . . .
179(7) . . .
164(7) . . .
178(7) . . .
190(8) . . .
185(8) . . .
181(7) . . .
194(7) . . .
196(7) . . .
193(7) . . .
190(8) . . .
168(7) . . .
177(7) . . .
167(7) . . .
170(7) . . .
179(7) . . .
185(7) . . .
191(7) . . .
193(7) . . .
186(7) . . .
174(7) . . .
185(7) . . .
175(7) . . .
181(7) . . .
170(7) . . .
170(7) . . .
176(7) . . .
188(7) . . .
177(7) . . .
183(7) . . .
196(8) . . .
182(7) . . .
170(7) . . .
191(7) . . .
183(7) . . .
187(7) . . .
181(7) . . .
172(7) . . .
184(7) . . .
180(7) . . .
170(7) . . .
169(7) . . .
166(7) . . .
172(7) . . .
163(7) . . .
169(7) . . .
204(7) . . .
184(7) . . .
165(7) . . .
186(7) . . .
180(7) . . .
190(7) . . .
191(7) . . .
183(7) . . .
162(7) . . .
158(7) . . .
187(7) . . .
191(7) . . .
174(7) . . .
189(8) . . .
185(7) . . .
172(7) . . .
182(7) . . .
165(7) . . .
201(8) . . .
182(7) . . .
161(7) . . .
181(7) . . .
155(7) . . .
169(7) . . .
171(7) . . .
193(7) . . .
172(7) . . .
174(7) . . .
206(8) . . .
172(7) . . .
164(7) . . .
165(7) . . .
171(7) . . .
170(7) . . .
182(7) . . .
165(7) . . .
164(7) . . .
177(7) . . .
156(7) . . .
170(7) . . .
176(7) . . .
159(7) . . .
164(7) . . .
172(7) . . .
183(7) . . .
140(6) . . .
172(7) . . .
176(7) . . .
174(7) . . .
180(7) . . .
184(7) . . .
166(7) . . .
180(8) . . .
191(8) . . .
165(7) . . .
159(7) . . .
153(7) . . .
169(7) . . .
170(7) . . .
165(7) . . .
169(7) . . .
159(7) . . .
183(8) . . .
164(7) . . .
180(7) . . .
179(7) . . .
177(7) . . .
165(7) . . .
170(7) . . .
166(7) . . .
173(7) . . .
166(7) . . .
164(7) . . .
162(7) . . .
161(7) . . .
166(7) . . .
169(7) . . .
189(7) . . .
173(7) . . .
174(7) . . .
190(7) . . .
192(8) . . .
178(7) . . .
187(7) . . .
171(7) . . .
170(7) . . .
163(7) . . .
180(7) . . .
164(7) . . .
173(7) . . .
175(7) . . .
159(7) . . .
168(7) . . .
176(7) . . .
181(7) . . .
168(7) . . .
143(7) . . .
151(6) . . .
185(7) . . .
166(7) . . .
154(7) . . .
159(7) . . .
182(7) . . .
161(7) . . .
191(7) . . .
172(7) . . .
165(7) . . .
169(7) . . .
170(7) . . .
177(7) . . .
182(7) . . .
168(7) . . .
185(7) . . .
169(7) . . .
157(7) . . .
163(7) . . .
162(7) . . .
171(7) . . .
159(7) . . .
170(7) . . .
186(7) . . .
164(7) . . .
162(7) . . .
181(7) . . .
170(7) . . .
156(7) . . .
165(7) . . .
162(7) . . .
166(7) . . .
183(7) . . .
190(8) . . .
191(7) . . .
179(7) . . .
165(7) . . .
174(7) . . .
168(7) . . .
172(7) . . .
169(7) . . .
175(7) . . .
182(7) . . .
175(7) . . .
180(7) . . .
175(7) . . .
170(7) . . .
179(7) . . .
172(7) . . .
150(6) . . .
158(7) . . .
152(6) . . .
192(7) . . .
153(6) . . .
172(7) . . .
181(7) . . .
162(7) . . .
179(7) . . .
167(7) . . .
173(7) . . .
157(6) . . .
168(7) . . .
179(7) . . .
176(8) . . .
152(7) . . .
194(7) . . .
173(7) . . .
168(7) . . .
158(7) . . .
157(7) . . .
159(7) . . .
151(6) . . .
178(7) . . .
186(8) . . .
152(7) . . .
168(7) . . .
180(7) . . .
169(7) . . .
176(7) . . .
168(7) . . .
169(7) . . .
169(7) . . .
175(7) . . .
167(7) . . .
174(7) . . .
160(7) . . .
175(7) . . .
180(7) . . .
164(7) . . .
174(7) . . .
175(7) . . .
166(7) . . .
166(7) . . .
167(7) . . .
164(7) . . .
164(7) . . .
180(7) . . .
195(8) . . .
172(7) . . .
188(7) . . .
161(7) . . .
161(7) . . .
173(7) . . .
170(7) . . .
166(7) . . .
157(6) . . .
174(7) . . .
176(7) . . .
159(7) . . .
175(7) . . .
156(6) . . .
168(7) . . .
167(7) . . .
156(7) . . .
152(6) . . .
177(7) . . .
154(7) . . .
163(7) . . .
173(7) . . .
177(7) . . .
170(7) . . .
166(7) . . .
172(7) . . .
174(7) . . .
168(7) . . .
173(7) . . .
176(7) . . .
180(7) . . .
161(7) . . .
170(7) . . .
175(7) . . .
175(7) . . .
167(7) . . .
172(7) . . .
191(7) . . .
174(7) . . .
191(8) . . .
161(7) . . .
167(7) . . .
187(7) . . .
162(7) . . .
161(7) . . .
171(7) . . .
156(7) . . .
161(7) . . .
165(7) . . .
153(7) . . .
189(8) . . .
175(7) . . .
169(7) . . .
147(6) . . .
163(7) . . .
198(8) . . .
174(7) . . .
169(7) . . .
193(8) . . .
170(7) . . .
166(7) . . .
175(7) . . .
163(7) . . .
161(7) . . .
162(7) . . .
175(7) . . .
173(7) . . .
175(7) . . .
183(7) . . .
180(8) . . .
177(7) . . .
170(7) . . .
159(7) . . .
164(7) . . .
181(8) . . .
170(7) . . .
182(7) . . .
192(7) . . .
183(7) . . .
181(7) . . .
170(7) . . .
181(7) . . .
164(7) . . .
173(7) . . .
178(7) . . .
182(7) . . .
157(7) . . .
164(7) . . .
171(7) . . .
166(7) . . .
156(7) . . .
177(7) . . .
190(7) . . .
184(7) . . .
169(7) . . .
199(7) . . .
179(7) . . .
174(7) . . .
190(8) . . .
166(7) . . .
189(7) . . .
167(7) . . .
180(7) . . .
178(7) . . .
201(8) . . .
163(7) . . .
168(7) . . .
187(7) . . .
177(7) . . .
168(7) . . .
160(7) . . .
149(6) . . .
172(7) . . .
169(7) . . .
153(7) . . .
170(7) . . .
171(7) . . .
186(7) . . .
155(7) . . .
157(7) . . .
189(7) . . .
162(7) . . .
181(7) . . .
171(7) . . .
186(7) . . .
175(7) . . .
166(7) . . .
156(7) . . .
187(8) . . .
175(7) . . .
165(7) . . .
175(7) . . .
176(7) . . .
178(7) . . .
173(7) . . .
152(6) . . .
178(7) . . .
180(7) . . .
167(7) . . .
176(7) . . .
176(7) . . .
162(7) . . .
174(7) . . .
180(7) . . .
195(8) . . .
185(7) . . .
172(7) . . .
176(7) . . .
159(7) . . .
174(7) . . .
171(7) . . .
165(7) . . .
173(7) . . .
171(7) . . .
155(7) . . .
146(6) . . .
176(7) . . .
162(7) . . .
154(7) . . .
159(7) . . .
164(7) . . .
155(7) . . .
160(7) . . .
175(7) . . .
188(7) . . .
179(7) . . .
174(7) . . .
168(7) . . .
171(7) . . .
177(7) . . .
183(7) . . .
178(7) . . .
180(7) . . .
173(7) . . .
164(7) . . .
154(6) . . .
161(7) . . .
171(7) . . .
168(7) . . .
161(7) . . .
171(7) . . .
168(7) . . .
182(7) . . .
185(7) . . .
172(7) . . .
178(7) . . .
196(8) . . .
171(7) . . .
158(7) . . .
178(7) . . .
179(7) . . .
167(7) . . .
188(8) . . .
161(7) . . .
181(7) . . .
176(7) . . .
167(7) . . .
184(7) . . .
163(7) . . .
187(7) . . .
177(7) . . .
195(8) . . .
173(7) . . .
159(7) . . .
153(6) . . .
188(8) . . .
170(7) . . .
176(7) . . .
177(7) . . .
173(7) . . .
167(7) . . .
166(7) . . .
174(7) . . .
176(7) . . .
183(7) . . .
156(7) . . .
159(7) . . .
168(7) . . .
168(7) . . .
180(7) . . .
155(7) . . .
164(7) . . .
158(7) . . .
164(7) . . .
168(7) . . .
174(7) . . .
146(7) . . .
149(7) . . .
188(7) . . .
177(7) . . .
169(7) . . .
174(7) . . .
188(7) . . .
157(6) . . .
150(6) . . .
168(7) . . .
164(7) . . .
143(6) . . .
157(7) . . .
166(7) . . .
166(7) . . .
172(7) . . .
149(6) . . .
171(7) . . .
160(7) . . .
172(7) . . .
161(7) . . .
151(6) . . .
166(7) . . .
179(7) . . .
177(7) . . .
175(7) . . .
166(7) . . .
154(6) . . .
157(7) . . .
178(7) . . .
175(7) . . .
166(7) . . .
176(7) . . .
158(7) . . .
175(7) . . .
172(7) . . .
172(7) . . .
169(7) . . .
174(7) . . .
160(7) . . .
160(7) . . .
155(6) . . .
156(6) . . .
148(7) . . .
177(7) . . .
167(7) . . .
178(7) . . .
174(7) . . .
166(7) . . .
150(7) . . .
161(7) . . .
155(6) . . .
177(7) . . .
181(7) . . .
171(7) . . .
187(7) . . .
162(7) . . .
176(7) . . .
173(7) . . .
178(7) . . .
171(7) . . .
148(6) . . .
162(7) . . .
155(7) . . .
164(7) . . .
162(7) . . .
157(6) . . .
148(6) . . .
173(7) . . .
157(7) . . .
160(7) . . .
164(7) . . .
168(7) . . .
175(7) . . .
158(7) . . .
172(7) . . .
152(6) . . .
145(7) . . .
152(7) . . .
170(7) . . .
176(7) . . .
160(7) . . .
177(7) . . .
163(7) . . .
156(7) . . .
166(7) . . .
157(6) . . .
160(7) . . .
176(7) . . .
166(7) . . .
168(7) . . .
171(7) . . .
144(6) . . .
154(7) . . .
166(7) . . .
163(7) . . .
167(7) . . .
162(7) . . .
147(7) . . .
168(7) . . .
163(7) . . .
153(6) . . .
149(7) . . .
156(7) . . .
156(7) . . .
162(7) . . .
176(7) . . .
153(6) . . .
163(7) . . .
156(7) . . .
156(7) . . .
161(7) . . .
153(7) . . .
164(7) . . .
157(7) . . .
167(7) . . .
153(7) . . .
168(7) . . .
172(7) . . .
174(7) . . .
155(7) . . .
173(7) . . .
185(8) . . .
157(7) . . .
177(7) . . .
165(7) . . .
182(7) . . .
145(6) . . .
157(7) . . .
156(7) . . .
168(7) . . .
156(7) . . .
171(7) . . .
166(7) . . .
151(6) . . .
174(7) . . .
162(7) . . .
179(8) . . .
155(7) . . .
158(7) . . .
185(7) . . .
169(7) . . .
163(7) . . .
155(7) . . .
156(7) . . .
180(7) . . .
182(7) . . .
175(7) . . .
162(7) . . .
187(7) . . .
184(7) . . .
166(7) . . .
191(8) . . .
179(7) . . .
167(7) . . .
171(7) . . .
190(7) . . .
172(7) . . .
176(7) . . .
171(7) . . .
175(7) . . .
162(7) . . .
161(7) . . .
151(6) . . .
164(7) . . .
174(7) . . .
173(7) . . .
153(7) . . .
155(6) . . .
167(7) . . .
162(7) . . .
161(7) . . .
177(7) . . .
162(7) . . .
148(6) . . .
162(7) . . .
184(8) . . .
164(7) . . .
179(7) . . .
150(6) . . .
169(7) . . .
163(7) . . .
159(7) . . .
151(6) . . .
167(7) . . .
166(7) . . .
170(7) . . .
159(7) . . .
165(7) . . .
163(7) . . .
164(7) . . .
173(7) . . .
173(7) . . .
174(7) . . .
170(7) . . .
171(7) . . .
181(7) . . .
171(7) . . .
165(7) . . .
153(6) . . .
150(7) . . .
184(8) . . .
169(7) . . .
178(7) . . .
152(6) . . .
166(7) . . .
174(7) . . .
162(7) . . .
158(6) . . .
165(7) . . .
166(7) . . .
165(7) . . .
169(7) . . .
161(7) . . .
170(7) . . .
160(7) . . .
160(7) . . .
153(7) . . .
180(7) . . .
143(6) . . .
167(7) . . .
156(7) . . .
171(7) . . .
161(7) . . .
171(7) . . .
155(7) . . .
151(7) . . .
172(7) . . .
143(6) . . .
144(6) . . .
137(6) . . .
150(6) . . .
151(6) . . .
163(7) . . .
163(7) . . .
174(7) . . .
172(7) . . .
165(7) . . .
159(7) . . .
158(7) . . .
169(7) . . .
177(7) . . .
168(7) . . .
165(7) . . .
171(7) . . .
155(7) . . .
173(7) . . .
173(7) . . .
160(7) . . .
166(7) . . .
160(7) . . .
161(7) . . .
168(7) . . .
173(7) . . .
165(7) . . .
155(7) . . .
150(7) . . .
185(7) . . .
151(6) . . .
175(7) . . .
176(7) . . .
153(7) . . .
165(7) . . .
153(6) . . .
154(7) . . .
162(7) . . .
156(7) . . .
147(6) . . .
164(7) . . .
164(7) . . .
175(7) . . .
170(7) . . .
154(6) . . .
175(7) . . .
170(7) . . .
149(7) . . .
150(7) . . .
145(6) . . .
144(6) . . .
176(7) . . .
161(7) . . .
160(7) . . .
181(7) . . .
174(7) . . .
167(7) . . .
153(6) . . .
165(7) . . .
164(7) . . .
162(7) . . .
161(7) . . .
164(7) . . .
167(7) . . .
164(7) . . .
160(7) . . .
157(7) . . .
154(7) . . .
154(6) . . .
163(7) . . .
147(6) . . .
157(7) . . .
161(7) . . .
163(7) . . .
147(6) . . .
163(7) . . .
148(7) . . .
145(7) . . .
158(7) . . .
165(7) . . .
173(7) . . .
172(7) . . .
175(7) . . .
160(7) . . .
165(7) . . .
177(7) . . .
155(7) . . .
138(6) . . .
156(6) . . .
143(6) . . .
159(7) . . .
167(7) . . .
181(7) . . .
176(7) . . .
164(7) . . .
179(7) . . .
173(7) . . .
144(6) . . .
168(7) . . .
163(7) . . .
192(8) . . .
180(7) . . .
143(6) . . .
173(7) . . .
178(7) . . .
160(7) . . .
168(7) . . .
138(6) . . .
141(6) . . .
154(7) . . .
168(7) . . .
169(7) . . .
178(7) . . .
165(7) . . .
159(7) . . .
158(7) . . .
179(7) . . .
156(6) . . .
165(7) . . .
161(7) . . .
159(7) . . .
147(6) . . .
153(6) . . .
168(7) . . .
162(7) . . .
156(7) . . .
166(7) . . .
147(6) . . .
143(6) . . .
160(7) . . .
143(7) . . .
161(7) . . .
160(7) . . .
184(7) . . .
171(7) . . .
170(7) . . .
172(7) . . .
159(7) . . .
181(7) . . .
164(7) . . .
165(7) . . .
171(7) . . .
144(6) . . .
162(7) . . .
155(7) . . .
162(7) . . .
166(7) . . .
174(7) . . .
152(7) . . .
160(7) . . .
167(7) . . .
146(6) . . .
159(7) . . .
172(7) . . .
170(7) . . .
178(7) . . .
153(6) . . .
161(7) . . .
162(7) . . .
162(7) . . .
146(7) . . .
166(7) . . .
146(6) . . .
157(7) . . .
151(7) . . .
161(7) . . .
164(7) . . .
167(7) . . .
171(7) . . .
156(7) . . .
178(7) . . .
154(7) . . .
164(7) . . .
165(7) . . .
165(7) . . .
160(7) . . .
154(6) . . .
167(7) . . .
154(7) . . .
172(7) . . .
161(7) . . .
138(6) . . .
163(7) . . .
178(7) . . .
148(7) . . .
155(7) . . .
147(6) . . .
147(6) . . .
156(7) . . .
169(7) . . .
155(7) . . .
166(7) . . .
157(7) . . .
164(7) . . .
161(7) . . .
158(7) . . .
158(7) . . .
143(6) . . .
158(7) . . .
179(7) . . .
168(7) . . .
170(7) . . .
147(6) . . .
144(6) . . .
149(6) . . .
170(7) . . .
159(7) . . .
167(7) . . .
179(8) . . .
162(7) . . .
156(7) . . .
155(7) . . .
172(7) . . .
174(7) . . .
164(7) . . .
185(7) . . .
176(7) . . .
172(7) . . .
171(7) . . .
168(7) . . .
163(7) . . .
173(7) . . .
170(7) . . .
154(7) . . .
174(7) . . .
161(7) . . .
152(7) . . .
147(6) . . .
161(7) . . .
155(7) . . .
161(7) . . .
183(7) . . .
175(7) . . .
178(7) . . .
158(7) . . .
160(7) . . .
145(6) . . .
178(7) . . .
176(7) . . .
164(7) . . .
157(7) . . .
152(7) . . .
170(7) . . .
148(6) . . .
161(7) . . .
155(6) . . .
168(7) . . .
152(7) . . .
165(7) . . .
166(7) . . .
170(7) . . .
166(7) . . .
162(7) . . .
167(7) . . .
154(7) . . .
167(7) . . .
143(6) . . .
159(7) . . .
159(7) . . .
155(7) . . .
158(7) . . .
147(6) . . .
180(8) . . .
154(7) . . .
152(6) . . .
175(7) . . .
165(7) . . .
174(7) . . .
167(7) . . .
162(7) . . .
158(7) . . .
153(7) . . .
152(7) . . .
159(7) . . .
139(6) . . .
153(6) . . .
154(7) . . .
154(7) . . .
169(7) . . .
154(6) . . .
158(7) . . .
152(7) . . .
154(7) . . .
154(7) . . .
172(7) . . .
153(6) . . .
162(7) . . .
162(7) . . .
153(7) . . .
169(7) . . .
168(7) . . .
163(7) . . .
165(7) . . .
152(7) . . .
174(7) . . .
159(7) . . .
144(6) . . .
156(7) . . .
163(7) . . .
174(7) . . .
167(7) . . .
165(7) . . .
152(7) . . .
159(7) . . .
162(7) . . .
159(7) . . .
158(7) . . .
128(6) . . .
153(6) . . .
158(6) . . .
164(7) . . .
142(7) . . .
158(7) . . .
151(6) . . .
163(7) . . .
154(7) . . .
146(7) . . .
168(7) . . .
154(6) . . .
168(7) . . .
167(7) . . .
178(8) . . .
148(7) . . .
149(6) . . .
136(6) . . .
149(7) . . .
163(7) . . .
141(6) . . .
145(6) . . .
160(7) . . .
155(7) . . .
160(7) . . .
161(7) . . .
156(6) . . .
139(6) . . .
152(7) . . .
148(7) . . .
153(7) . . .
149(6) . . .
176(7) . . .
164(7) . . .
151(7) . . .
130(6) . . .
154(6) . . .
163(7) . . .
161(7) . . .
150(7) . . .
156(7) . . .
156(7) . . .
168(7) . . .
150(7) . . .
152(7) . . .
144(6) . . .
144(6) . . .
160(7) . . .
164(7) . . .
150(7) . . .
169(7) . . .
168(7) . . .
156(7) . . .
144(7) . . .
153(7) . . .
153(6) . . .
155(6) . . .
152(7) . . .
158(7) . . .
145(6) . . .
164(7) . . .
160(7) . . .
172(7) . . .
138(7) . . .
134(6) . . .
156(6) . . .
158(7) . . .
167(7) . . .
161(7) . . .
151(7) . . .
152(6) . . .
153(6) . . .
159(7) . . .
149(7) . . .
156(7) . . .
154(6) . . .
150(6) . . .
140(6) . . .
167(7) . . .
158(7) . . .
173(7) . . .
144(6) . . .
156(7) . . .
149(7) . . .
167(7) . . .
167(7) . . .
166(7) . . .
167(7) . . .
168(7) . . .
159(7) . . .
148(6) . . .
174(7) . . .
162(7) . . .
153(7) . . .
145(6) . . .
164(7) . . .
154(7) . . .
170(7) . . .
156(7) . . .
163(7) . . .
124(6) . . .
155(7) . . .
142(7) . . .
141(6) . . .
156(7) . . .
155(6) . . .
152(7) . . .
135(6) . . .
161(7) . . .
161(7) . . .
160(7) . . .
154(6) . . .
169(7) . . .
157(7) . . .
147(6) . . .
141(6) . . .
157(7) . . .
154(7) . . .
171(7) . . .
153(6) . . .
143(6) . . .
157(7) . . .
166(7) . . .
159(7) . . .
151(6) . . .
151(6) . . .
143(6) . . .
159(7) . . .
158(7) . . .
153(6) . . .
159(7) . . .
159(7) . . .
174(7) . . .
150(7) . . .
168(7) . . .
151(7) . . .
164(7) . . .
160(7) . . .
168(7) . . .
140(6) . . .
158(7) . . .
148(6) . . .
167(7) . . .
177(7) . . .
165(7) . . .
149(6) . . .
159(7) . . .
154(7) . . .
157(7) . . .
170(7) . . .
155(7) . . .
163(7) . . .
182(7) . . .
142(6) . . .
167(7) . . .
172(7) . . .
161(7) . . .
162(7) . . .
152(7) . . .
171(7) . . .
156(7) . . .
147(7) . . .
167(7) . . .
149(6) . . .
163(7) . . .
138(6) . . .
149(7) . . .
156(7) . . .
144(6) . . .
145(6) . . .
171(7) . . .
163(7) . . .
141(6) . . .
168(7) . . .
162(7) . . .
150(6) . . .
159(7) . . .
166(7) . . .
169(7) . . .
139(6) . . .
147(7) . . .
155(7) . . .
162(7) . . .
138(6) . . .
163(7) . . .
155(7) . . .
150(7) . . .
151(7) . . .
172(7) . . .
164(7) . . .
148(7) . . .
162(7) . . .
136(6) . . .
155(6) . . .
175(7) . . .
170(7) . . .
148(7) . . .
158(7) . . .
156(7) . . .
160(7) . . .
142(7) . . .
147(7) . . .
147(6) . . .
154(6) . . .
151(7) . . .
151(7) . . .
155(7) . . .
160(7) . . .
172(7) . . .
148(7) . . .
149(7) . . .
164(7) . . .
153(6) . . .
155(6) . . .
158(7) . . .
146(7) . . .
154(7) . . .
163(7) . . .
150(6) . . .
159(7) . . .
157(7) . . .
145(6) . . .
153(6) . . .
162(7) . . .
162(7) . . .
159(7) . . .
139(6) . . .
159(7) . . .
143(6) . . .
146(6) . . .
158(7) . . .
157(7) . . .
159(7) . . .
149(7) . . .
168(7) . . .
165(7) . . .
160(7) . . .
172(7) . . .
163(7) . . .
176(7) . . .
154(7) . . .
160(7) . . .
148(6) . . .
138(6) . . .
140(7) . . .
148(7) . . .
163(7) . . .
163(7) . . .
167(7) . . .
171(7) . . .
166(7) . . .
139(6) . . .
171(7) . . .
159(7) . . .
161(7) . . .
145(6) . . .
154(6) . . .
148(6) . . .
162(7) . . .
155(7) . . .
182(7) . . .
158(7) . . .
166(7) . . .
139(6) . . .
144(7) . . .
146(7) . . .
151(6) . . .
180(7) . . .
155(7) . . .
168(7) . . .
153(6) . . .
157(6) . . .
157(7) . . .
156(7) . . .
162(7) . . .
154(7) . . .
158(7) . . .
168(7) . . .
163(7) . . .
157(7) . . .
146(7) . . .
161(7) . . .
149(6) . . .
168(7) . . .
153(7) . . .
155(7) . . .
146(6) . . .
158(7) . . .
160(7) . . .
147(7) . . .
162(7) . . .
139(6) . . .
155(7) . . .
174(7) . . .
132(6) . . .
172(7) . . .
168(7) . . .
188(8) . . .
165(7) . . .
178(7) . . .
185(7) . . .
180(7) . . .
177(7) . . .
187(7) . . .
177(7) . . .
174(7) . . .
156(6) . . .
146(6) . . .
171(7) . . .
162(7) . . .
167(7) . . .
175(7) . . .
167(7) . . .
151(7) . . .
160(7) . . .
170(7) . . .
156(6) . . .
145(6) . . .
157(7) . . .
164(7) . . .
163(7) . . .
175(7) . . .
161(7) . . .
167(7) . . .
145(7) . . .
153(6) . . .
154(7) . . .
145(7) . . .
164(7) . . .
154(7) . . .
169(7) . . .
153(6) . . .
147(6) . . .
157(7) . . .
155(7) . . .
159(7) . . .
157(7) . . .
172(7) . . .
172(7) . . .
164(7) . . .
165(7) . . .
163(7) . . .
145(6) . . .
175(7) . . .
173(7) . . .
149(6) . . .
146(6) . . .
193(8) . . .
193(8) . . .
166(7) . . .
155(6) . . .
152(7) . . .
161(7) . . .
152(7) . . .
173(7) . . .
181(7) . . .
163(7) . . .
178(7) . . .
177(7) . . .
168(7) . . .
183(7) . . .
189(7) . . .
193(8) . . .
189(7) . . .
194(7) . . .
195(7) . . .
203(8) . . .
189(8) . . .
177(7) . . .
187(7) . . .
176(7) . . .
174(7) . . .
184(7) . . .
172(7) . . .
157(6) . . .
169(7) . . .
172(7) . . .
170(7) . . .
181(7) . . .
157(7) . . .
162(7) . . .
172(7) . . .
172(7) . . .
178(7) . . .
167(7) . . .
151(6) . . .
157(7) . . .
172(7) . . .
180(7) . . .
177(7) . . .
191(7) . . .
172(7) . . .
166(7) . . .
148(6) . . .
177(7) . . .
174(7) . . .
169(7) . . .
162(7) . . .
172(7) . . .
187(7) . . .
185(7) . . .
183(7) . . .
169(7) . . .
187(7) . . .
194(7) . . .
156(7) . . .
181(7) . . .
162(7) . . .
175(7) . . .
184(7) . . .
170(7) . . .
185(8) . . .
158(7) . . .
161(7) . . .
178(7) . . .
166(7) . . .
180(8) . . .
167(7) . . .
151(6) . . .
177(7) . . .
176(7) . . .
160(7) . . .
166(7) . . .
191(7) . . .
178(7) . . .
170(7) . . .
169(7) . . .
164(7) . . .
176(7) . . .
177(7) . . .
170(7) . . .
172(7) . . .
170(7) . . .
182(7) . . .
208(8) . . .
191(7) . . .
182(7) . . .
184(7) . . .
168(7) . . .
160(7) . . .
169(7) . . .
153(7) . . .
149(7) . . .
151(6) . . .
171(7) . . .
178(7) . . .
187(7) . . .
177(7) . . .
173(7) . . .
163(7) . . .
169(7) . . .
163(7) . . .
159(7) . . .
168(7) . . .
172(7) . . .
160(7) . . .
163(7) . . .
171(7) . . .
176(7) . . .
180(7) . . .
160(7) . . .
178(7) . . .
154(6) . . .
155(6) . . .
175(7) . . .
158(7) . . .
167(7) . . .
161(7) . . .
150(6) . . .
166(7) . . .
158(7) . . .
152(7) . . .
153(6) . . .
172(7) . . .
170(7) . . .
154(7) . . .
149(7) . . .
171(7) . . .
158(7) . . .
158(7) . . .
164(7) . . .
157(7) . . .
148(6) . . .
165(7) . . .
175(7) . . .
156(7) . . .
139(6) . . .
147(6) . . .
149(6) . . .
147(6) . . .
150(7) . . .
155(7) . . .
130(6) . . .
154(7) . . .
167(7) . . .
158(7) . . .
156(7) . . .
162(7) . . .
145(6) . . .
159(7) . . .
150(7) . . .
161(7) . . .
168(7) . . .
147(6) . . .
166(7) . . .
166(7) . . .
165(7) . . .
162(7) . . .
165(7) . . .
170(7) . . .
156(7) . . .
153(6) . . .
158(7) . . .
150(7) . . .
157(7) . . .
157(7) . . .
160(7) . . .
160(7) . . .
135(6) . . .
153(7) . . .
150(7) . . .
165(7) . . .
170(7) . . .
173(7) . . .
174(7) . . .
156(7) . . .
147(6) . . .
165(7) . . .
167(7) . . .
163(7) . . .
142(6) . . .
156(6) . . .
152(7) . . .
149(7) . . .
177(7) . . .
157(7) . . .
151(6) . . .
161(7) . . .
163(7) . . .
141(6) . . .
153(7) . . .
161(7) . . .
172(7) . . .
163(7) . . .
163(7) . . .
158(7) . . .
153(7) . . .
153(7) . . .
160(7) . . .
165(7) . . .
157(7) . . .
169(7) . . .
162(7) . . .
151(7) . . .
150(7) . . .
162(7) . . .
165(7) . . .
166(7) . . .
176(8) . . .
156(7) . . .
168(7) . . .
158(7) . . .
173(7) . . .
165(7) . . .
159(7) . . .
167(7) . . .
166(7) . . .
151(7) . . .
168(7) . . .
170(7) . . .
170(7) . . .
148(6) . . .
147(6) . . .
172(7) . . .
152(7) . . .
165(7) . . .
153(6) . . .
158(7) . . .
159(7) . . .
163(7) . . .
139(6) . . .
144(6) . . .
146(6) . . .
153(7) . . .
154(7) . . .
142(6) . . .
155(7) . . .
151(7) . . .
137(7) . . .
154(7) . . .
173(7) . . .
157(7) . . .
159(7) . . .
157(7) . . .
145(6) . . .
158(7) . . .
145(6) . . .
146(7) . . .
155(7) . . .
144(6) . . .
131(6) . . .
160(7) . . .
161(7) . . .
174(7) . . .
167(7) . . .
146(6) . . .
162(7) . . .
150(7) . . .
153(7) . . .
160(7) . . .
163(7) . . .
162(7) . . .
153(7) . . .
172(7) . . .
162(7) . . .
166(7) . . .
170(7) . . .
149(7) . . .
168(7) . . .
184(7) . . .
165(7) . . .
183(7) . . .
145(7) . . .
172(7) . . .
159(7) . . .
149(7) . . .
165(7) . . .
156(7) . . .
156(7) . . .
161(7) . . .
152(6) . . .
166(7) . . .
164(7) . . .
164(7) . . .
185(7) . . .
164(7) . . .
163(7) . . .
147(7) . . .
144(6) . . .
162(7) . . .
169(7) . . .
180(7) . . .
186(8) . . .
157(7) . . .
164(7) . . .
146(7) . . .
144(6) . . .
168(7) . . .
164(7) . . .
156(6) . . .
150(7) . . .
152(7) . . .
146(6) . . .
157(7) . . .
151(6) . . .
172(7) . . .
139(6) . . .
192(8) . . .
156(6) . . .
161(7) . . .
159(7) . . .
143(7) . . .
140(6) . . .
156(6) . . .
158(7) . . .
145(6) . . .
172(7) . . .
174(7) . . .
177(7) . . .
169(7) . . .
161(7) . . .
173(7) . . .
156(7) . . .
130(6) . . .
144(6) . . .
130(6) . . .
165(7) . . .
159(7) . . .
150(6) . . .
154(7) . . .
154(7) . . .
158(7) . . .
147(6) . . .
161(7) . . .
166(7) . . .
178(7) . . .
147(7) . . .
164(7) . . .
147(6) . . .
165(7) . . .
156(7) . . .
143(7) . . .
166(7) . . .
155(6) . . .
151(7) . . .
156(7) . . .
176(7) . . .
181(7) . . .
144(6) . . .
154(7) . . .
150(7) . . .
161(7) . . .
146(6) . . .
147(6) . . .
154(7) . . .
148(7) . . .
153(6) . . .
153(7) . . .
150(6) . . .
182(7) . . .
169(7) . . .
149(7) . . .
148(6) . . .
134(6) . . .
146(6) . . .
168(7) . . .
169(7) . . .
157(7) . . .
156(7) . . .
161(7) . . .
156(7) . . .
159(7) . . .
156(7) . . .
149(6) . . .
149(7) . . .
154(7) . . .
178(7) . . .
165(7) . . .
163(7) . . .
167(7) . . .
156(7) . . .
159(7) . . .
146(6) . . .
144(7) . . .
149(7) . . .
152(7) . . .
167(7) . . .
157(7) . . .
157(7) . . .
154(7) . . .
161(7) . . .
155(7) . . .
156(6) . . .
142(7) . . .
139(7) . . .
140(6) . . .
158(7) . . .
146(6) . . .
146(7) . . .
143(6) . . .
148(7) . . .
153(7) . . .
177(7) . . .
168(7) . . .
156(7) . . .
159(7) . . .
151(6) . . .
154(6) . . .
158(7) . . .
145(7) . . .
143(7) . . .
160(7) . . .
176(7) . . .
153(6) . . .
154(7) . . .
149(7) . . .
161(7) . . .
170(7) . . .
153(7) . . .
155(7) . . .
148(7) . . .
144(6) . . .
154(6) . . .
164(7) . . .
180(8) . . .
161(7) . . .
151(6) . . .
142(6) . . .
136(6) . . .
165(7) . . .
138(6) . . .
154(6) . . .
170(7) . . .
168(7) . . .
150(6) . . .
152(7) . . .
163(7) . . .
158(7) . . .
139(6) . . .
134(6) . . .
148(6) . . .
166(7) . . .
149(7) . . .
156(7) . . .
160(7) . . .
155(6) . . .
165(7) . . .
156(7) . . .
134(6) . . .
165(7) . . .
165(7) . . .
154(6) . . .
145(6) . . .
150(7) . . .
145(7) . . .
138(6) . . .
142(6) . . .
130(6) . . .
166(7) . . .
170(7) . . .
171(7) . . .
160(7) . . .
155(7) . . .
141(6) . . .
144(6) . . .
149(6) . . .
152(6) . . .
163(7) . . .
148(7) . . .
144(6) . . .
158(7) . . .
158(6) . . .
160(7) . . .
175(8) . . .
153(7) . . .
156(6) . . .
158(7) . . .
164(7) . . .
182(7) . . .
159(7) . . .
149(6) . . .
169(7) . . .
161(7) . . .
175(7) . . .
163(7) . . .
141(6) . . .
147(6) . . .
147(6) . . .
150(7) . . .
156(7) . . .
162(7) . . .
164(7) . . .
144(7) . . .
178(8) . . .
140(6) . . .
152(6) . . .
147(6) . . .
154(7) . . .
139(6) . . .
161(7) . . .
157(6) . . .
128(6) . . .
159(7) . . .
166(7) . . .
156(7) . . .
157(7) . . .
166(7) . . .
155(7) . . .
129(6) . . .
151(6) . . .
164(7) . . .
159(7) . . .
172(7) . . .
141(6) . . .
150(6) . . .
148(6) . . .
145(6) . . .
175(7) . . .
169(7) . . .
145(6) . . .
145(6) . . .
158(7) . . .
143(7) . . .
161(7) . . .
149(6) . . .
151(6) . . .
167(7) . . .
156(7) . . .
152(7) . . .
155(7) . . .
161(7) . . .
163(7) . . .
153(7) . . .
159(7) . . .
161(7) . . .
149(7) . . .
152(7) . . .
148(7) . . .
173(7) . . .
166(7) . . .
168(7) . . .
158(7) . . .
156(7) . . .
154(7) . . .
150(6) . . .
150(7) . . .
175(7) . . .
166(7) . . .
145(7) . . .
147(6) . . .
167(7) . . .
163(7) . . .
166(7) . . .
178(7) . . .
165(7) . . .
169(7) . . .
187(7) . . .
168(7) . . .
148(7) . . .
157(7) . . .
163(7) . . .
143(6) . . .
157(7) . . .
152(7) . . .
142(7) . . .
146(6) . . .
146(6) . . .
144(6) . . .
159(7) . . .
147(6) . . .
162(7) . . .
166(7) . . .
145(6) . . .
161(7) . . .
142(6) . . .
145(6) . . .
142(6) . . .
137(6) . . .
139(6) . . .
163(7) . . .
143(6) . . .
139(6) . . .
134(6) . . .
149(7) . . .
144(7) . . .
152(6) . . .
160(7) . . .
159(7) . . .
183(7) . . .
171(7) . . .
165(7) . . .
166(7) . . .
177(7) . . .
154(7) . . .
126(6) . . .
140(6) . . .
140(6) . . .
143(7) . . .
136(6) . . .
141(6) . . .
155(6) . . .
163(7) . . .
134(6) . . .
131(6) . . .
136(6) . . .
137(6) . . .
148(7) . . .
148(7) . . .
147(7) . . .
163(7) . . .
141(6) . . .
143(6) . . .
142(7) . . .
149(7) . . .
128(6) . . .
130(6) . . .
141(6) . . .
140(6) . . .
147(7) . . .
134(6) . . .
153(6) . . .
139(7) . . .
137(7) . . .
149(7) . . .
162(7) . . .
131(6) . . .
133(6) . . .
152(7) . . .
146(7) . . .
142(6) . . .
145(6) . . .
148(7) . . .
135(6) . . .
154(7) . . .
143(6) . . .
154(7) . . .
142(6) . . .
146(7) . . .
145(7) . . .
149(6) . . .
147(7) . . .
143(6) . . .
143(7) . . .
152(7) . . .
152(6) . . .
155(7) . . .
150(7) . . .
157(7) . . .
158(7) . . .
133(6) . . .
150(7) . . .
172(7) . . .
162(7) . . .
173(7) . . .
144(6) . . .
152(7) . . .
156(7) . . .
145(6) . . .
162(7) . . .
141(6) . . .
145(6) . . .
159(7) . . .
154(7) . . .
147(6) . . .
165(7) . . .
156(7) . . .
156(7) . . .
148(6) . . .
153(6) . . .
152(7) . . .
151(6) . . .
143(7) . . .
160(7) . . .
144(6) . . .
143(6) . . .
150(7) . . .
138(6) . . .
138(6) . . .
156(6) . . .
147(6) . . .
146(6) . . .
142(7) . . .
157(7) . . .
163(7) . . .
155(7) . . .
143(6) . . .
145(7) . . .
146(6) . . .
150(6) . . .
149(6) . . .
157(7) . . .
155(7) . . .
161(7) . . .
157(6) . . .
146(6) . . .
156(7) . . .
157(7) . . .
165(7) . . .
168(7) . . .
163(7) . . .
138(6) . . .
126(6) . . .
145(7) . . .
147(6) . . .
154(7) . . .
147(7) . . .
148(7) . . .
143(6) . . .
135(6) . . .
150(7) . . .
138(6) . . .
155(7) . . .
148(6) . . .
156(6) . . .
133(6) . . .
148(7) . . .
150(7) . . .
146(6) . . .
145(6) . . .
145(7) . . .
143(7) . . .
141(6) . . .
142(6) . . .
148(6) . . .
133(6) . . .
148(7) . . .
151(7) . . .
150(6) . . .
155(7) . . .
152(7) . . .
163(7) . . .
155(7) . . .
160(7) . . .
141(6) . . .
150(7) . . .
162(7) . . .
155(7) . . .
155(6) . . .
155(7) . . .
140(6) . . .
138(7) . . .
142(6) . . .
147(6) . . .
136(6) . . .
141(7) . . .
143(6) . . .
153(7) . . .
152(6) . . .
133(6) . . .
153(7) . . .
152(7) . . .
145(6) . . .
146(6) . . .
141(6) . . .
140(6) . . .
154(7) . . .
164(7) . . .
161(7) . . .
153(7) . . .
156(7) . . .
145(6) . . .
127(6) . . .
142(6) . . .
148(6) . . .
144(7) . . .
138(6) . . .
166(7) . . .
134(6) . . .
154(7) . . .
151(7) . . .
144(6) . . .
152(6) . . .
144(6) . . .
140(6) . . .
134(6) . . .
161(7) . . .
140(6) . . .
149(7) . . .
151(7) . . .
163(7) . . .
155(7) . . .
131(6) . . .
133(6) . . .
132(6) . . .
147(7) . . .
154(7) . . .
141(6) . . .
143(6) . . .
158(7) . . .
155(7) . . .
162(7) . . .
135(6) . . .
150(7) . . .
140(6) . . .
140(6) . . .
159(7) . . .
163(7) . . .
139(6) . . .
136(6) . . .
141(6) . . .
147(6) . . .
156(7) . . .
145(7) . . .
125(6) . . .
135(6) . . .
149(6) . . .
139(6) . . .
157(7) . . .
166(7) . . .
143(6) . . .
147(6) . . .
137(6) . . .
144(7) . . .
142(7) . . .
161(7) . . .
156(6) . . .
133(6) . . .
157(7) . . .
137(6) . . .
138(6) . . .
150(6) . . .
153(6) . . .
142(6) . . .
141(6) . . .
148(7) . . .
128(6) . . .
147(6) . . .
154(7) . . .
147(7) . . .
156(7) . . .
151(6) . . .
147(6) . . .
145(7) . . .
145(7) . . .
135(6) . . .
136(6) . . .
132(6) . . .
143(6) . . .
138(6) . . .
147(6) . . .
153(6) . . .
137(6) . . .
138(6) . . .
160(7) . . .
140(6) . . .
136(6) . . .
152(7) . . .
153(7) . . .
145(7) . . .
127(6) . . .
137(6) . . .
154(7) . . .
139(6) . . .
147(6) . . .
152(6) . . .
142(6) . . .
141(6) . . .
153(7) . . .
142(7) . . .
138(6) . . .
130(6) . . .
152(7) . . .
130(6) . . .
152(7) . . .
145(6) . . .
149(6) . . .
164(7) . . .
125(6) . . .
133(6) . . .
149(6) . . .
135(6) . . .
149(7) . . .
137(6) . . .
136(6) . . .
150(6) . . .
135(6) . . .
152(7) . . .
136(6) . . .
151(7) . . .
152(6) . . .
137(6) . . .
165(7) . . .
144(6) . . .
129(6) . . .
141(6) . . .
147(6) . . .
144(6) . . .
147(7) . . .
136(6) . . .
139(6) . . .
146(6) . . .
155(7) . . .
157(7) . . .
144(6) . . .
144(6) . . .
149(6) . . .
137(6) . . .
139(6) . . .
145(6) . . .
132(6) . . .
139(6) . . .
156(7) . . .
151(6) . . .
153(7) . . .
161(7) . . .
136(6) . . .
150(7) . . .
134(6) . . .
138(6) . . .
145(6) . . .
151(7) . . .
160(7) . . .
127(6) . . .
143(6) . . .
144(6) . . .
153(7) . . .
151(7) . . .
144(7) . . .
153(6) . . .
142(6) . . .
167(7) . . .
147(7) . . .
142(6) . . .
153(6) . . .
154(6) . . .
157(7) . . .
141(7) . . .
134(6) . . .
127(6) . . .
160(7) . . .
162(7) . . .
137(7) . . .
138(6) . . .
139(6) . . .
147(6) . . .
148(6) . . .
147(7) . . .
150(7) . . .
146(6) . . .
157(7) . . .
159(7) . . .
142(6) . . .
154(7) . . .
163(7) . . .
152(6) . . .
145(6) . . .
159(7) . . .
142(6) . . .
142(6) . . .
147(6) . . .
152(7) . . .
148(7) . . .
151(7) . . .
158(7) . . .
144(6) . . .
150(7) . . .
137(6) . . .
140(6) . . .
156(7) . . .
148(7) . . .
145(7) . . .
139(6) . . .
143(6) . . .
142(6) . . .
147(7) . . .
153(7) . . .
151(6) . . .
145(6) . . .
149(6) . . .
142(6) . . .
145(7) . . .
136(6) . . .
151(6) . . .
148(6) . . .
137(6) . . .
135(6) . . .
153(7) . . .
147(6) . . .
149(6) . . .
157(7) . . .
143(7) . . .
136(6) . . .
148(6) . . .
152(6) . . .
147(6) . . .
132(6) . . .
127(6) . . .
129(6) . . .
138(6) . . .
146(7) . . .
148(7) . . .
139(6) . . .
132(6) . . .
137(6) . . .
136(6) . . .
158(7) . . .
143(6) . . .
153(6) . . .
147(6) . . .
132(6) . . .
138(6) . . .
151(7) . . .
157(7) . . .
142(6) . . .
146(6) . . .
146(6) . . .
140(6) . . .
159(7) . . .
146(6) . . .
141(6) . . .
153(7) . . .
140(6) . . .
129(6) . . .
157(7) . . .
141(7) . . .
141(6) . . .
137(6) . . .
134(6) . . .
147(7) . . .
142(7) . . .
145(7) . . .
157(6) . . .
131(6) . . .
148(7) . . .
139(7) . . .
152(7) . . .
147(6) . . .
154(7) . . .
157(7) . . .
149(7) . . .
160(7) . . .
144(6) . . .
141(6) . . .
160(7) . . .
160(7) . . .
151(7) . . .
139(6) . . .
135(6) . . .
162(7) . . .
158(7) . . .
148(6) . . .
135(6) . . .
154(7) . . .
133(6) . . .
140(6) . . .
153(7) . . .
142(6) . . .
147(7) . . .
157(7) . . .
167(7) . . .
141(6) . . .
146(6) . . .
136(6) . . .
149(7) . . .
142(6) . . .
148(6) . . .
167(7) . . .
159(7) . . .
147(7) . . .
151(7) . . .
140(6) . . .
155(6) . . .
151(6) . . .
148(7) . . .
160(7) . . .
143(6) . . .
149(6) . . .
146(7) . . .
140(7) . . .
147(7) . . .
146(6) . . .
146(6) . . .
154(7) . . .
146(7) . . .
143(6) . . .
148(6) . . .
138(6) . . .
137(6) . . .
161(7) . . .
149(7) . . .
142(6) . . .
160(7) . . .
138(6) . . .
156(7) . . .
152(7) . . .
151(6) . . .
182(7) . . .
174(7) . . .
159(7) . . .
165(7) . . .
174(7) . . .
167(7) . . .
156(7) . . .
159(7) . . .
154(7) . . .
174(7) . . .
174(7) . . .
159(7) . . .
170(7) . . .
165(7) . . .
151(6) . . .
138(6) . . .
146(7) . . .
156(7) . . .
152(6) . . .
138(6) . . .
135(6) . . .
166(7) . . .
145(7) . . .
141(6) . . .
141(6) . . .
140(6) . . .
147(7) . . .
133(6) . . .
152(6) . . .
143(6) . . .
157(7) . . .
144(7) . . .
159(7) . . .
168(7) . . .
169(7) . . .
166(7) . . .
154(7) . . .
156(7) . . .
149(6) . . .
153(6) . . .
148(6) . . .
148(7) . . .
138(6) . . .
165(7) . . .
167(7) . . .
170(7) . . .
146(7) . . .
151(7) . . .
163(7) . . .
146(6) . . .
151(7) . . .
147(7) . . .
138(6) . . .
151(6) . . .
156(7) . . .
144(7) . . .
155(7) . . .
163(7) . . .
152(6) . . .
141(6) . . .
156(7) . . .
152(7) . . .
160(7) . . .
147(6) . . .
142(6) . . .
141(6) . . .
162(7) . . .
165(7) . . .
145(6) . . .
144(7) . . .
153(7) . . .
148(6) . . .
162(7) . . .
147(6) . . .
162(7) . . .
142(6) . . .
146(6) . . .
152(6) . . .
147(6) . . .
151(7) . . .
142(6) . . .
151(7) . . .
153(6) . . .
138(6) . . .
168(7) . . .
168(7) . . .
148(7) . . .
159(7) . . .
163(7) . . .
159(7) . . .
163(7) . . .
151(7) . . .
151(6) . . .
165(7) . . .
167(7) . . .
165(7) . . .
162(7) . . .
161(7) . . .
139(6) . . .
161(7) . . .
150(7) . . .
150(7) . . .
179(7) . . .
154(6) . . .
161(7) . . .
153(7) . . .
163(7) . . .
175(7) . . .
165(7) . . .
157(7) . . .
164(7) . . .
166(7) . . .
174(7) . . .
154(7) . . .
166(7) . . .
155(7) . . .
159(7) . . .
156(6) . . .
158(7) . . .
159(7) . . .
145(7) . . .
157(7) . . .
162(7) . . .
157(7) . . .
172(7) . . .
152(7) . . .
166(7) . . .
164(7) . . .
151(6) . . .
153(7) . . .
152(6) . . .
169(7) . . .
165(7) . . .
162(7) . . .
149(7) . . .
167(7) . . .
184(7) . . .
143(6) . . .
148(7) . . .
152(7) . . .
143(6) . . .
149(6) . . .
158(7) . . .
163(7) . . .
145(7) . . .
147(7) . . .
148(6) . . .
149(6) . . .
155(7) . . .
141(6) . . .
146(7) . . .
148(6) . . .
156(7) . . .
153(7) . . .
145(6) . . .
155(7) . . .
144(6) . . .
159(7) . . .
150(7) . . .
149(7) . . .
132(6) . . .
137(6) . . .
126(6) . . .
136(6) . . .
132(6) . . .
139(6) . . .
163(7) . . .
162(7) . . .
149(7) . . .
153(7) . . .
140(6) . . .
159(7) . . .
149(7) . . .
148(7) . . .
147(7) . . .
153(6) . . .
165(7) . . .
145(7) . . .
149(7) . . .
162(7) . . .
167(7) . . .
148(6) . . .
161(7) . . .
150(7) . . .
170(7) . . .
161(7) . . .
160(7) . . .
147(7) . . .
149(7) . . .
150(7) . . .
158(7) . . .
157(7) . . .
144(7) . . .
160(7) . . .
148(7) . . .
152(6) . . .
156(6) . . .
144(6) . . .
161(7) . . .
164(7) . . .
153(6) . . .
137(6) . . .
163(7) . . .
158(7) . . .
167(7) . . .
150(6) . . .
149(6) . . .
148(7) . . .
150(7) . . .
143(6) . . .
151(6) . . .
151(7) . . .
151(7) . . .
161(7) . . .
163(7) . . .
157(6) . . .
159(7) . . .
141(7) . . .
148(7) . . .
165(7) . . .
166(7) . . .
162(7) . . .
157(7) . . .
156(7) . . .
161(7) . . .
171(7) . . .
150(7) . . .
162(7) . . .
167(7) . . .
162(7) . . .
172(7) . . .
169(7) . . .
152(7) . . .
163(7) . . .
158(7) . . .
156(6) . . .
157(7) . . .
153(7) . . .
154(7) . . .
145(6) . . .
141(6) . . .
167(7) . . .
147(7) . . .
158(7) . . .
149(6) . . .
150(6) . . .
154(6) . . .
168(7) . . .
141(7) . . .
150(6) . . .
153(7) . . .
145(6) . . .
150(7) . . .
152(7) . . .
162(7) . . .
158(7) . . .
144(6) . . .
142(6) . . .
175(7) . . .
145(6) . . .
154(7) . . .
147(7) . . .
126(6) . . .
152(7) . . .
144(6) . . .
142(6) . . .
165(7) . . .
155(7) . . .
147(6) . . .
153(6) . . .
144(7) . . .
166(7) . . .
152(7) . . .
151(7) . . .
149(6) . . .
170(7) . . .
145(6) . . .
142(6) . . .
153(6) . . .
167(7) . . .
140(6) . . .
150(7) . . .
163(7) . . .
149(6) . . .
152(6) . . .
166(7) . . .
145(7) . . .
152(7) . . .
138(6) . . .
156(7) . . .
146(6) . . .
164(7) . . .
147(6) . . .
145(6) . . .
160(7) . . .
141(6) . . .
145(7) . . .
142(6) . . .
159(7) . . .
129(6) . . .
146(7) . . .
147(7) . . .
145(6) . . .
155(6) . . .
169(7) . . .
150(7) . . .
147(7) . . .
150(7) . . .
166(7) . . .
142(6) . . .
161(7) . . .
148(6) . . .
142(6) . . .
134(6) . . .
145(7) . . .
151(7) . . .
146(6) . . .
160(7) . . .
151(6) . . .
143(6) . . .
137(6) . . .
159(7) . . .
133(6) . . .
148(6) . . .
136(6) . . .
153(7) . . .
133(6) . . .
153(6) . . .
149(6) . . .
159(7) . . .
142(7) . . .
149(6) . . .
163(7) . . .
159(7) . . .
140(6) . . .
166(7) . . .
146(6) . . .
146(6) . . .
153(7) . . .
144(6) . . .
169(7) . . .
160(7) . . .
154(6) . . .
151(6) . . .
179(7) . . .
163(7) . . .
154(7) . . .
166(7) . . .
160(7) . . .
153(7) . . .
169(7) . . .
156(7) . . .
163(7) . . .
147(6) . . .
151(7) . . .
155(7) . . .
147(6) . . .
147(6) . . .
157(7) . . .
155(7) . . .
142(6) . . .
139(6) . . .
158(6) . . .
151(7) . . .
145(6) . . .
145(6) . . .
145(6) . . .
159(7) . . .
161(7) . . .
159(7) . . .
162(7) . . .
147(6) . . .
148(6) . . .
147(6) . . .
143(7) . . .
142(6) . . .
145(6) . . .
141(6) . . .
132(6) . . .
150(7) . . .
143(6) . . .
153(6) . . .
156(6) . . .
154(7) . . .
148(7) . . .
156(7) . . .
169(7) . . .
144(6) . . .
131(6) . . .
138(6) . . .
152(7) . . .
154(6) . . .
151(6) . . .
145(6) . . .
137(6) . . .
132(6) . . .
121(6) . . .
139(6) . . .
143(6) . . .
134(6) . . .
153(7) . . .
147(6) . . .
154(7) . . .
142(6) . . .
138(6) . . .
128(6) . . .
145(6) . . .
138(6) . . .
141(6) . . .
144(6) . . .
140(6) . . .
147(6) . . .
146(6) . . .
148(6) . . .
156(7) . . .
128(6) . . .
139(6) . . .
133(6) . . .
146(7) . . .
154(7) . . .
159(7) . . .
164(7) . . .
153(7) . . .
146(7) . . .
152(7) . . .
157(7) . . .
136(6) . . .
139(6) . . .
149(7) . . .
137(6) . . .
154(6) . . .
132(6) . . .
146(7) . . .
162(7) . . .
153(7) . . .
145(6) . . .
149(6) . . .
135(6) . . .
148(7) . . .
146(6) . . .
161(7) . . .
147(6) . . .
139(6) . . .
154(7) . . .
161(7) . . .
160(7) . . .
146(6) . . .
142(7) . . .
143(7) . . .
127(6) . . .
144(6) . . .
161(7) . . .
139(6) . . .
143(7) . . .
130(6) . . .
141(6) . . .
143(6) . . .
132(6) . . .
155(7) . . .
162(7) . . .
169(7) . . .
160(7) . . .
163(7) . . .
155(7) . . .
149(6) . . .
165(7) . . .
156(7) . . .
151(7) . . .
156(7) . . .
149(6) . . .
144(6) . . .
141(6) . . .
134(6) . . .
127(6) . . .
151(6) . . .
138(6) . . .
141(6) . . .
155(7) . . .
145(7) . . .
140(6) . . .
132(6) . . .
153(7) . . .
149(7) . . .
138(6) . . .
150(6) . . .
136(6) . . .
148(7) . . .
155(7) . . .
159(7) . . .
148(6) . . .
144(6) . . .
154(7) . . .
153(7) . . .
152(6) . . .
156(7) . . .
146(6) . . .
149(7) . . .
152(7) . . .
129(6) . . .
140(6) . . .
150(6) . . .
137(6) . . .
136(6) . . .
147(7) . . .
147(6) . . .
160(7) . . .
140(6) . . .
157(7) . . .
155(7) . . .
152(6) . . .
158(7) . . .
158(7) . . .
148(7) . . .
142(6) . . .
155(6) . . .
167(7) . . .
159(7) . . .
161(7) . . .
151(6) . . .
154(6) . . .
157(7) . . .
143(7) . . .
165(7) . . .
157(7) . . .
152(6) . . .
152(7) . . .
153(7) . . .
149(7) . . .
153(6) . . .
156(6) . . .
162(7) . . .
162(7) . . .
153(7) . . .
150(6) . . .
149(6) . . .
147(6) . . .
164(7) . . .
164(7) . . .
159(7) . . .
153(6) . . .
159(7) . . .
163(7) . . .
156(7) . . .
142(6) . . .
127(6) . . .
146(7) . . .
186(8) . . .
158(7) . . .
168(7) . . .
159(7) . . .
163(7) . . .
148(7) . . .
151(7) . . .
155(6) . . .
151(6) . . .
158(7) . . .
150(7) . . .
145(6) . . .
157(6) . . .
143(6) . . .
145(6) . . .
160(7) . . .
147(6) . . .
162(7) . . .
152(7) . . .
166(7) . . .
145(7) . . .
145(6) . . .
145(6) . . .
152(7) . . .
150(7) . . .
149(7) . . .
151(6) . . .
140(6) . . .
148(6) . . .
152(7) . . .
147(6) . . .
151(6) . . .
136(6) . . .
152(7) . . .
155(7) . . .
139(6) . . .
159(7) . . .
142(6) . . .
157(7) . . .
148(7) . . .
142(6) . . .
139(6) . . .
150(6) . . .
142(7) . . .
131(6) . . .
144(7) . . .
151(6) . . .
163(7) . . .
157(7) . . .
167(7) . . .
137(6) . . .
165(7) . . .
144(6) . . .
137(6) . . .
154(7) . . .
148(7) . . .
133(6) . . .
141(6) . . .
161(7) . . .
157(7) . . .
157(7) . . .
152(6) . . .
147(6) . . .
151(7) . . .
134(6) . . .
155(7) . . .
139(6) . . .
140(6) . . .
149(7) . . .
160(7) . . .
164(7) . . .
154(6) . . .
135(6) . . .
164(7) . . .
155(7) . . .
142(6) . . .
152(6) . . .
124(6) . . .
122(6) . . .
139(6) . . .
139(6) . . .
144(6) . . .
151(7) . . .
142(7) . . .
159(7) . . .
145(6) . . .
137(6) . . .
142(6) . . .
145(6) . . .
165(7) . . .
168(7) . . .
145(6) . . .
152(6) . . .
150(7) . . .
136(6) . . .
140(6) . . .
143(6) . . .
144(6) . . .
142(7) . . .
160(7) . . .
140(6) . . .
150(6) . . .
147(7) . . .
137(6) . . .
135(6) . . .
150(6) . . .
169(7) . . .
158(7) . . .
156(7) . . .
163(7) . . .
156(6) . . .
150(6) . . .
159(7) . . .
131(6) . . .
155(7) . . .
157(7) . . .
136(6) . . .
133(6) . . .
142(6) . . .
151(7) . . .
150(6) . . .
151(7) . . .
153(7) . . .
147(6) . . .
142(6) . . .
147(6) . . .
140(6) . . .
139(6) . . .
156(7) . . .
146(6) . . .
141(6) . . .
144(6) . . .
162(7) . . .
158(7) . . .
158(7) . . .
137(6) . . .
140(6) . . .
147(7) . . .
164(7) . . .
127(6) . . .
137(6) . . .
152(7) . . .
142(7) . . .
164(7) . . .
144(6) . . .
145(6) . . .
137(6) . . .
141(7) . . .
142(6) . . .
134(6) . . .
139(6) . . .
139(6) . . .
163(7) . . .
146(7) . . .
145(6) . . .
143(6) . . .
158(7) . . .
135(6) . . .
144(6) . . .
143(6) . . .
149(6) . . .
156(7) . . .
141(7) . . .
144(7) . . .
146(6) . . .
154(7) . . .
166(7) . . .
167(7) . . .
155(7) . . .
148(6) . . .
144(6) . . .
152(7) . . .
152(7) . . .
141(6) . . .
167(7) . . .
153(7) . . .
135(6) . . .
149(7) . . .
153(7) . . .
160(7) . . .
156(7) . . .
157(7) . . .
161(7) . . .
147(6) . . .
175(7) . . .
149(6) . . .
164(7) . . .
157(7) . . .
154(7) . . .
150(6) . . .
165(7) . . .
154(7) . . .
163(7) . . .
152(6) . . .
155(6) . . .
159(7) . . .
150(7) . . .
153(7) . . .
140(6) . . .
162(7) . . .
153(7) . . .
167(7) . . .
171(7) . . .
157(6) . . .
145(6) . . .
163(7) . . .
139(6) . . .
151(7) . . .
134(6) . . .
144(6) . . .
139(6) . . .
158(7) . . .
153(7) . . .
130(6) . . .
145(6) . . .
163(7) . . .
136(6) . . .
140(6) . . .
157(7) . . .
152(7) . . .
147(6) . . .
154(7) . . .
149(6) . . .
154(6) . . .
159(7) . . .
166(7) . . .
139(6) . . .
164(7) . . .
154(6) . . .
135(6) . . .
147(7) . . .
152(7) . . .
148(7) . . .
154(6) . . .
133(6) . . .
151(7) . . .
156(7) . . .
156(7) . . .
145(6) . . .
142(7) . . .
140(7) . . .
148(7) . . .
150(6) . . .
153(6) . . .
153(7) . . .
145(7) . . .
159(7) . . .
131(6) . . .
143(6) . . .
139(6) . . .
144(7) . . .
149(7) . . .
159(7) . . .
136(6) . . .
142(6) . . .
146(7) . . .
155(7) . . .
149(6) . . .
159(7) . . .
150(7) . . .
155(7) . . .
149(7) . . .
155(6) . . .
148(6) . . .
154(7) . . .
161(7) . . .
148(7) . . .
138(6) . . .
144(6) . . .
146(7) . . .
143(6) . . .
146(6) . . .
151(6) . . .
142(6) . . .
149(7) . . .
153(7) . . .
146(6) . . .
147(6) . . .
148(7) . . .
144(7) . . .
158(7) . . .
156(6) . . .
150(6) . . .
137(7) . . .
148(7) . . .
139(6) . . .
141(6) . . .
151(6) . . .
152(7) . . .
132(6) . . .
151(7) . . .
148(6) . . .
140(6) . . .
139(6) . . .
141(7) . . .
145(7) . . .
132(6) . . .
134(6) . . .
146(6) . . .
140(6) . . .
150(6) . . .
139(6) . . .
167(7) . . .
154(7) . . .
138(6) . . .
138(6) . . .
156(6) . . .
144(6) . . .
143(6) . . .
160(7) . . .
161(7) . . .
145(6) . . .
154(7) . . .
162(7) . . .
146(7) . . .
154(7) . . .
145(6) . . .
131(6) . . .
133(6) . . .
140(6) . . .
145(6) . . .
144(6) . . .
148(6) . . .
157(7) . . .
151(7) . . .
148(6) . . .
147(6) . . .
151(7) . . .
147(7) . . .
141(6) . . .
154(7) . . .
134(6) . . .
154(7) . . .
157(7) . . .
142(6) . . .
130(6) . . .
155(6) . . .
145(6) . . .
149(7) . . .
142(6) . . .
145(6) . . .
146(6) . . .
128(6) . . .
146(7) . . .
154(7) . . .
154(6) . . .
145(6) . . .
154(7) . . .
137(6) . . .
146(6) . . .
142(6) . . .
149(6) . . .
162(7) . . .
159(7) . . .
145(7) . . .
141(6) . . .
150(6) . . .
157(7) . . .
151(7) . . .
142(6) . . .
167(7) . . .
151(7) . . .
146(6) . . .
149(7) . . .
151(7) . . .
144(6) . . .
146(6) . . .
150(7) . . .
150(7) . . .
149(6) . . .
148(6) . . .
141(6) . . .
147(7) . . .
154(7) . . .
133(6) . . .
142(6) . . .
145(7) . . .
138(6) . . .
142(6) . . .
142(6) . . .
148(6) . . .
135(6) . . .
150(7) . . .
173(7) . . .
145(6) . . .
146(6) . . .
161(7) . . .
152(7) . . .
133(6) . . .
159(7) . . .
148(6) . . .
151(6) . . .
146(7) . . .
137(6) . . .
152(6) . . .
141(6) . . .
161(7) . . .
141(7) . . .
156(7) . . .
154(6) . . .
139(6) . . .
144(6) . . .
148(7) . . .
140(6) . . .
145(6) . . .
155(7) . . .
139(6) . . .
157(7) . . .
146(6) . . .
147(6) . . .
144(6) . . .
135(6) . . .
150(7) . . .
143(6) . . .
145(6) . . .
137(6) . . .
149(6) . . .
158(7) . . .
141(6) . . .
128(6) . . .
151(7) . . .
130(6) . . .
125(6) . . .
146(6) . . .
143(6) . . .
140(6) . . .
148(7) . . .
149(6) . . .
147(6) . . .
132(6) . . .
148(7) . . .
137(6) . . .
150(7) . . .
158(7) . . .
154(6) . . .
152(7) . . .
141(6) . . .
156(7) . . .
142(6) . . .
132(6) . . .
142(6) . . .
119(6) . . .
136(6) . . .
147(6) . . .
155(6) . . .
151(6) . . .
146(7) . . .
157(7) . . .
153(6) . . .
149(6) . . .
138(6) . . .
138(7) . . .
145(7) . . .
154(6) . . .
154(7) . . .
149(6) . . .
143(6) . . .
151(7) . . .
148(6) . . .
130(6) . . .
153(7) . . .
157(7) . . .
166(7) . . .
143(6) . . .
151(7) . . .
138(6) . . .
155(7) . . .
141(6) . . .
147(6) . . .
143(6) . . .
141(6) . . .
140(6) . . .
153(7) . . .
151(6) . . .
150(6) . . .
144(6) . . .
155(7) . . .
159(7) . . .
158(7) . . .
151(7) . . .
135(6) . . .
135(6) . . .
138(6) . . .
140(6) . . .
138(6) . . .
133(6) . . .
134(6) . . .
137(6) . . .
136(6) . . .
140(6) . . .
144(7) . . .
141(6) . . .
159(7) . . .
146(6) . . .
146(7) . . .
150(7) . . .
141(6) . . .
161(7) . . .
145(6) . . .
144(6) . . .
147(7) . . .
153(7) . . .
134(6) . . .
136(6) . . .
147(7) . . .
139(7) . . .
149(7) . . .
149(6) . . .
135(6) . . .
150(7) . . .
148(7) . . .
149(7) . . .
152(6) . . .
162(7) . . .
154(6) . . .
149(7) . . .
148(7) . . .
145(6) . . .
144(6) . . .
163(7) . . .
138(6) . . .
137(6) . . .
150(6) . . .
135(6) . . .
144(6) . . .
159(7) . . .
164(7) . . .
156(6) . . .
157(7) . . .
173(7) . . .
152(6) . . .
154(7) . . .
150(6) . . .
125(6) . . .
123(6) . . .
170(7) . . .
166(7) . . .
143(6) . . .
143(6) . . .
146(7) . . .
158(7) . . .
155(7) . . .
144(6) . . .
146(7) . . .
131(6) . . .
146(6) . . .
137(6) . . .
134(6) . . .
149(7) . . .
148(7) . . .
145(6) . . .
138(6) . . .
139(6) . . .
147(6) . . .
160(7) . . .
126(6) . . .
137(6) . . .
130(6) . . .
141(6) . . .
135(6) . . .
137(6) . . .
126(6) . . .
153(7) . . .
151(7) . . .
152(7) . . .
157(7) . . .
148(6) . . .
145(6) . . .
144(6) . . .
133(6) . . .
147(6) . . .
144(6) . . .
158(7) . . .
157(7) . . .
154(7) . . .
139(6) . . .
145(6) . . .
143(6) . . .
115(6) . . .
141(7) . . .
144(6) . . .
149(6) . . .
137(6) . . .
146(7) . . .
128(6) . . .
137(6) . . .
137(6) . . .
138(6) . . .
135(7) . . .
153(7) . . .
155(7) . . .
150(6) . . .
147(6) . . .
134(6) . . .
146(7) . . .
137(6) . . .
150(6) . . .
141(6) . . .
168(7) . . .
141(6) . . .
138(6) . . .
138(6) . . .
142(6) . . .
152(7) . . .
148(7) . . .
146(6) . . .
136(6) . . .
155(7) . . .
163(7) . . .
140(6) . . .
139(6) . . .
142(6) . . .
140(6) . . .
145(7) . . .
135(6) . . .
146(6) . . .
145(6) . . .
132(6) . . .
135(6) . . .
154(7) . . .
136(6) . . .
141(6) . . .
129(6) . . .
144(7) . . .
149(7) . . .
145(6) . . .
157(7) . . .
140(6) . . .
152(7) . . .
147(6) . . .
129(6) . . .
149(7) . . .
150(7) . . .
144(6) . . .
155(7) . . .
145(6) . . .
156(7) . . .
163(7) . . .
154(7) . . .
143(6) . . .
153(6) . . .
151(7) . . .
134(6) . . .
141(6) . . .
138(6) . . .
149(6) . . .
147(6) . . .
147(7) . . .
143(6) . . .
132(6) . . .
136(6) . . .
125(6) . . .
138(7) . . .
144(6) . . .
149(6) . . .
159(7) . . .
139(6) . . .
143(7) . . .
130(6) . . .
138(6) . . .
139(6) . . .
135(6) . . .
130(6) . . .
154(7) . . .
149(6) . . .
139(6) . . .
147(7) . . .
158(7) . . .
131(6) . . .
145(6) . . .
143(6) . . .
175(7) . . .
149(7) . . .
138(6) . . .
127(6) . . .
143(6) . . .
133(6) . . .
148(7) . . .
150(6) . . .
134(6) . . .
140(6) . . .
152(7) . . .
150(7) . . .
134(6) . . .
139(6) . . .
142(7) . . .
157(7) . . .
135(6) . . .
146(6) . . .
154(6) . . .
166(7) . . .
143(7) . . .
129(6) . . .
138(6) . . .
143(6) . . .
138(6) . . .
148(7) . . .
141(6) . . .
154(6) . . .
158(6) . . .
158(7) . . .
158(7) . . .
155(7) . . .
152(6) . . .
147(6) . . .
152(7) . . .
138(6) . . .
138(6) . . .
141(6) . . .
136(6) . . .
144(6) . . .
149(7) . . .
141(6) . . .
146(6) . . .
158(6) . . .
143(6) . . .
143(7) . . .
142(6) . . .
144(6) . . .
131(6) . . .
147(7) . . .
162(7) . . .
147(6) . . .
142(6) . . .
141(6) . . .
158(7) . . .
145(6) . . .
144(6) . . .
145(6) . . .
141(6) . . .
152(7) . . .
141(6) . . .
139(6) . . .
145(6) . . .
139(6) . . .
145(7) . . .
142(6) . . .
152(7) . . .
150(6) . . .
166(7) . . .
152(7) . . .
139(6) . . .
145(6) . . .
161(7) . . .
138(6) . . .
141(7) . . .
138(6) . . .
161(7) . . .
139(6) . . .
146(6) . . .
155(7) . . .
161(7) . . .
144(6) . . .
146(6) . . .
157(7) . . .
151(7) . . .
153(7) . . .
141(6) . . .
139(6) . . .
148(6) . . .
143(6) . . .
144(6) . . .
140(6) . . .
175(7) . . .
141(6) . . .
116(6) . . .
136(6) . . .
144(6) . . .
152(6) . . .
163(7) . . .
150(6) . . .
144(6) . . .
138(6) . . .
147(6) . . .
151(7) . . .
155(7) . . .
143(6) . . .
152(6) . . .
151(6) . . .
155(7) . . .
151(7) . . .
152(6) . . .
137(6) . . .
146(6) . . .
143(7) . . .
147(7) . . .
145(6) . . .
166(7) . . .
140(6) . . .
132(7) . . .
151(7) . . .
155(6) . . .
144(6) . . .
152(7) . . .
152(7) . . .
150(7) . . .
155(6) . . .
147(6) . . .
147(7) . . .
143(7) . . .
140(6) . . .
160(7) . . .
150(6) . . .
142(6) . . .
137(6) . . .
158(7) . . .
160(7) . . .
151(6) . . .
156(7) . . .
146(7) . . .
145(7) . . .
136(6) . . .
151(6) . . .
147(7) . . .
148(7) . . .
161(7) . . .
144(6) . . .
136(6) . . .
136(6) . . .
160(7) . . .
159(7) . . .
160(7) . . .
137(6) . . .
160(7) . . .
157(7) . . .
148(7) . . .
157(6) . . .
158(7) . . .
156(7) . . .
154(7) . . .
149(6) . . .
140(6) . . .
135(6) . . .
139(6) . . .
144(6) . . .
145(6) . . .
143(6) . . .
149(7) . . .
142(6) . . .
157(7) . . .
139(6) . . .
135(6) . . .
139(6) . . .
144(7) . . .
142(7) . . .
141(6) . . .
134(6) . . .
145(6) . . .
134(6) . . .
139(6) . . .
152(6) . . .
152(6) . . .
144(6) . . .
129(6) . . .
141(7) . . .
147(6) . . .
157(7) . . .
150(7) . . .
149(7) . . .
138(6) . . .
144(6) . . .
160(7) . . .
145(6) . . .
150(7) . . .
141(6) . . .
149(6) . . .
139(6) . . .
138(6) . . .
145(7) . . .
144(6) . . .
154(6) . . .
143(6) . . .
146(7) . . .
150(7) . . .
141(6) . . .
132(6) . . .
146(6) . . .
151(6) . . .
153(7) . . .
153(6) . . .
148(6) . . .
164(7) . . .
149(7) . . .
149(7) . . .
142(6) . . .
138(6) . . .
175(7) . . .
150(7) . . .
144(6) . . .
137(6) . . .
138(6) . . .
144(7) . . .
135(6) . . .
138(6) . . .
142(6) . . .
134(6) . . .
156(7) . . .
152(7) . . .
162(7) . . .
146(6) . . .
129(6) . . .
130(6) . . .
145(7) . . .
151(7) . . .
137(6) . . .
148(6) . . .
149(7) . . .
148(7) . . .
159(7) . . .
149(6) . . .
147(6) . . .
138(6) . . .
152(7) . . .
138(6) . . .
148(6) . . .
149(6) . . .
143(6) . . .
166(7) . . .
144(6) . . .
147(6) . . .
164(7) . . .
149(7) . . .
151(7) . . .
141(6) . . .
147(6) . . .
142(6) . . .
144(7) . . .
133(6) . . .
131(6) . . .
138(6) . . .
138(6) . . .
131(6) . . .
150(7) . . .
134(6) . . .
126(6) . . .
147(7) . . .
137(6) . . .
121(6) . . .
130(6) . . .
131(6) . . .
150(7) . . .
144(7) . . .
156(7) . . .
125(6) . . .
144(6) . . .
137(6) . . .
139(7) . . .
141(6) . . .
166(7) . . .
132(6) . . .
135(6) . . .
154(7) . . .
144(6) . . .
158(7) . . .
156(6) . . .
149(7) . . .
114(6) . . .
148(7) . . .
141(6) . . .
144(6) . . .
158(7) . . .
135(6) . . .
138(6) . . .
146(6) . . .
138(6) . . .
146(6) . . .
145(6) . . .
136(6) . . .
139(6) . . .
143(6) . . .
137(6) . . .
148(7) . . .
139(6) . . .
139(6) . . .
148(7) . . .
146(7) . . .
136(6) . . .
138(6) . . .
140(6) . . .
146(6) . . .
144(6) . . .
143(6) . . .
145(6) . . .
144(6) . . .
127(6) . . .
147(7) . . .
149(7) . . .
130(6) . . .
150(6) . . .
154(7) . . .
147(6) . . .
155(7) . . .
140(6) . . .
147(6) . . .
139(6) . . .
146(7) . . .
147(6) . . .
145(6) . . .
142(6) . . .
153(7) . . .
146(7) . . .
149(7) . . .
135(6) . . .
147(6) . . .
148(6) . . .
135(6) . . .
124(6) . . .
138(6) . . .
140(6) . . .
149(7) . . .
158(7) . . .
144(6) . . .
148(6) . . .
137(6) . . .
138(6) . . .
156(7) . . .
138(6) . . .
128(6) . . .
130(6) . . .
131(6) . . .
154(7) . . .
137(6) . . .
137(6) . . .
135(6) . . .
142(7) . . .
148(7) . . .
140(6) . . .
145(6) . . .
144(7) . . .
140(6) . . .
152(7) . . .
133(6) . . .
134(6) . . .
153(7) . . .
129(6) . . .
122(6) . . .
135(6) . . .
139(6) . . .
153(7) . . .
151(7) . . .
148(6) . . .
148(6) . . .
146(6) . . .
135(6) . . .
128(6) . . .
144(6) . . .
120(6) . . .
149(6) . . .
156(7) . . .
149(7) . . .
151(7) . . .
139(6) . . .
138(6) . . .
141(6) . . .
152(7) . . .
153(7) . . .
147(6) . . .
141(6) . . .
154(7) . . .
133(6) . . .
141(6) . . .
141(6) . . .
155(6) . . .
151(7) . . .
134(6) . . .
146(7) . . .
145(6) . . .
133(6) . . .
146(7) . . .
154(7) . . .
139(6) . . .
141(6) . . .
130(6) . . .
153(7) . . .
148(7) . . .
148(7) . . .
157(7) . . .
152(7) . . .
142(6) . . .
157(7) . . .
142(6) . . .
140(6) . . .
141(6) . . .
143(7) . . .
137(6) . . .
138(6) . . .
143(6) . . .
144(6) . . .
145(7) . . .
140(6) . . .
140(6) . . .
142(6) . . .
144(7) . . .
133(6) . . .
132(6) . . .
139(6) . . .
129(6) . . .
123(6) . . .
133(6) . . .
142(6) . . .
154(6) . . .
129(6) . . .
121(6) . . .
138(6) . . .
167(7) . . .
144(6) . . .
141(6) . . .
143(7) . . .
149(7) . . .
127(6) . . .
126(6) . . .
138(6) . . .
127(6) . . .
141(7) . . .
152(7) . . .
144(6) . . .
154(7) . . .
140(6) . . .
136(6) . . .
122(6) . . .
136(6) . . .
135(6) . . .
142(6) . . .
137(6) . . .
138(6) . . .
143(6) . . .
142(6) . . .
130(6) . . .
139(6) . . .
134(6) . . .
137(6) . . .
148(6) . . .
124(6) . . .
132(6) . . .
129(6) . . .
149(6) . . .
151(7) . . .
144(7) . . .
144(6) . . .
135(6) . . .
148(6) . . .
144(6) . . .
140(7) . . .
134(6) . . .
139(6) . . .
138(6) . . .
133(6) . . .
140(7) . . .
138(6) . . .
138(6) . . .
141(6) . . .
136(6) . . .
134(6) . . .
149(6) . . .
150(6) . . .
137(6) . . .
129(6) . . .
150(7) . . .
153(7) . . .
142(6) . . .
136(6) . . .
142(6) . . .
139(6) . . .
148(7) . . .
141(6) . . .
140(6) . . .
136(6) . . .
134(6) . . .
135(6) . . .
136(6) . . .
123(6) . . .
140(7) . . .
129(6) . . .
126(6) . . .
135(6) . . .
143(7) . . .
158(7) . . .
133(6) . . .
144(6) . . .
131(6) . . .
151(7) . . .
134(6) . . .
142(6) . . .
155(7) . . .
139(6) . . .
142(6) . . .
140(6) . . .
122(6) . . .
156(6) . . .
128(6) . . .
132(6) . . .
142(7) . . .
138(6) . . .
139(6) . . .
137(6) . . .
141(6) . . .
131(6) . . .
140(6) . . .
135(6) . . .
147(6) . . .
151(7) . . .
128(6) . . .
133(6) . . .
141(6) . . .
124(6) . . .
149(6) . . .
145(7) . . .
153(7) . . .
133(6) . . .
145(6) . . .
132(6) . . .
140(6) . . .
144(6) . . .
146(6) . . .
156(7) . . .
140(6) . . .
146(7) . . .
145(6) . . .
145(6) . . .
154(7) . . .
140(6) . . .
147(7) . . .
149(6) . . .
159(7) . . .
139(6) . . .
136(6) . . .
146(7) . . .
141(6) . . .
160(7) . . .
153(7) . . .
146(6) . . .
131(6) . . .
136(6) . . .
145(6) . . .
141(6) . . .
145(6) . . .
157(7) . . .
145(6) . . .
151(6) . . .
138(6) . . .
136(6) . . .
127(6) . . .
143(6) . . .
151(6) . . .
150(7) . . .
140(7) . . .
131(6) . . .
121(6) . . .
134(6) . . .
132(6) . . .
141(6) . . .
153(7) . . .
157(7) . . .
145(6) . . .
137(6) . . .
138(6) . . .
130(6) . . .
126(6) . . .
139(6) . . .
140(6) . . .
128(6) . . .
151(7) . . .
148(6) . . .
140(6) . . .
146(7) . . .
140(6) . . .
137(6) . . .
133(6) . . .
144(6) . . .
149(6) . . .
129(6) . . .
128(6) . . .
132(6) . . .
140(6) . . .
138(6) . . .
142(7) . . .
145(7) . . .
129(6) . . .
141(6) . . .
152(7) . . .
141(6) . . .
141(6) . . .
133(6) . . .
142(7) . . .
129(6) . . .
136(6) . . .
152(7) . . .
125(6) . . .
129(6) . . .
130(6) . . .
130(6) . . .
127(6) . . .
128(6) . . .
121(6) . . .
142(7) . . .
133(6) . . .
147(6) . . .
136(6) . . .
127(6) . . .
135(7) . . .
148(7) . . .
134(6) . . .
148(6) . . .
128(6) . . .
143(7) . . .
144(7) . . .
141(6) . . .
120(6) . . .
125(6) . . .
134(6) . . .
140(7) . . .
138(6) . . .
156(7) . . .
140(6) . . .
137(6) . . .
126(6) . . .
140(6) . . .
131(6) . . .
140(6) . . .
136(6) . . .
142(6) . . .
140(6) . . .
121(6) . . .
142(6) . . .
140(7) . . .
125(6) . . .
117(6) . . .
131(6) . . .
119(6) . . .
134(6) . . .
147(6) . . .
157(7) . . .
123(6) . . .
125(6) . . .
141(6) . . .
144(6) . . .
146(6) . . .
145(6) . . .
127(6) . . .
138(6) . . .
134(6) . . .
154(7) . . .
122(6) . . .
138(6) . . .
141(6) . . .
145(6) . . .
136(6) . . .
138(6) . . .
132(6) . . .
147(6) . . .
137(6) . . .
135(6) . . .
139(6) . . .
138(6) . . .
138(6) . . .
138(6) . . .
139(6) . . .
124(6) . . .
135(6) . . .
148(7) . . .
131(6) . . .
134(6) . . .
137(6) . . .
139(6) . . .
128(6) . . .
158(7) . . .
132(6) . . .
132(6) . . .
137(6) . . .
136(6) . . .
137(6) . . .
137(6) . . .
149(6) . . .
130(6) . . .
137(6) . . .
140(6) . . .
126(6) . . .
146(7) . . .
127(6) . . .
124(6) . . .
145(6) . . .
141(6) . . .
132(6) . . .
124(6) . . .
141(6) . . .
150(6) . . .
143(6) . . .
147(7) . . .
120(6) . . .
131(6) . . .
128(6) . . .
121(6) . . .
138(7) . . .
146(7) . . .
147(6) . . .
134(6) . . .
136(6) . . .
111(6) . . .
141(6) . . .
132(6) . . .
135(6) . . .
152(7) . . .
123(6) . . .
142(6) . . .
138(6) . . .
125(6) . . .
134(6) . . .
136(7) . . .
136(6) . . .
130(6) . . .
124(6) . . .
138(6) . . .
138(6) . . .
130(6) . . .
147(6) . . .
130(6) . . .
140(6) . . .
130(6) . . .
143(7) . . .
122(6) . . .
146(6) . . .
135(6) . . .
126(6) . . .
132(6) . . .
131(6) . . .
165(7) . . .
127(6) . . .
133(6) . . .
148(7) . . .
135(6) . . .
146(7) . . .
115(6) . . .
145(7) . . .
132(6) . . .
125(6) . . .
137(6) . . .
124(6) . . .
128(6) . . .
137(6) . . .
136(6) . . .
138(6) . . .
143(7) . . .
137(6) . . .
145(6) . . .
144(6) . . .
132(6) . . .
130(6) . . .
129(6) . . .
125(6) . . .
133(6) . . .
145(7) . . .
142(7) . . .
154(7) . . .
147(6) . . .
129(6) . . .
146(7) . . .
138(7) . . .
145(7) . . .
144(6) . . .
142(6) . . .
144(6) . . .
134(6) . . .
131(6) . . .
131(6) . . .
117(6) . . .
130(6) . . .
143(7) . . .
155(7) . . .
150(6) . . .
124(6) . . .
129(6) . . .
132(6) . . .
135(6) . . .
122(6) . . .
131(6) . . .
135(6) . . .
143(7) . . .
144(7) . . .
133(6) . . .
137(6) . . .
127(6) . . .
122(6) . . .
140(6) . . .
129(6) . . .
129(6) . . .
120(6) . . .
117(6) . . .
126(6) . . .
134(6) . . .
114(6) . . .
128(6) . . .
128(6) . . .
125(6) . . .
131(6) . . .
149(7) . . .
132(6) . . .
118(6) . . .
126(6) . . .
136(6) . . .
139(6) . . .
132(6) . . .
145(6) . . .
140(6) . . .
135(6) . . .
148(6) . . .
120(6) . . .
149(7) . . .
153(6) . . .
143(6) . . .
132(6) . . .
155(7) . . .
132(6) . . .
140(6) . . .
130(6) . . .
139(6) . . .
135(6) . . .
127(6) . . .
127(6) . . .
145(6) . . .
139(6) . . .
124(6) . . .
149(7) . . .
144(6) . . .
133(6) . . .
123(6) . . .
134(6) . . .
150(6) . . .
128(6) . . .
147(6) . . .
140(6) . . .
146(7) . . .
137(6) . . .
141(6) . . .
147(6) . . .
135(6) . . .
129(6) . . .
130(6) . . .
124(6) . . .
135(6) . . .
140(7) . . .
125(6) . . .
155(7) . . .
139(6) . . .
125(6) . . .
144(7) . . .
118(6) . . .
112(6) . . .
133(6) . . .
133(6) . . .
131(6) . . .
152(7) . . .
138(6) . . .
130(6) . . .
133(6) . . .
136(6) . . .
139(6) . . .
130(6) . . .
128(6) . . .
126(6) . . .
151(7) . . .
129(6) . . .
116(6) . . .
143(6) . . .
140(6) . . .
144(6) . . .
143(6) . . .
147(6) . . .
137(6) . . .
131(6) . . .
122(6) . . .
143(6) . . .
143(6) . . .
131(6) . . .
139(6) . . .
141(6) . . .
144(7) . . .
124(6) . . .
132(6) . . .
138(6) . . .
143(7) . . .
138(6) . . .
145(6) . . .
131(6) . . .
134(6) . . .
134(6) . . .
143(6) . . .
148(6) . . .
127(6) . . .
131(6) . . .
138(6) . . .
133(6) . . .
136(6) . . .
131(6) . . .
127(6) . . .
140(6) . . .
136(6) . . .
138(6) . . .
126(6) . . .
129(6) . . .
145(7) . . .
138(6) . . .
139(6) . . .
137(6) . . .
147(7) . . .
147(6) . . .
136(6) . . .
127(6) . . .
142(6) . . .
141(7) . . .
130(6) . . .
146(6) . . .
122(6) . . .
127(6) . . .
129(6) . . .
139(6) . . .
140(6) . . .
135(6) . . .
133(6) . . .
157(7) . . .
124(6) . . .
121(6) . . .
142(6) . . .
147(6) . . .
148(7) . . .
123(6) . . .
132(6) . . .
135(6) . . .
124(6) . . .
134(6) . . .
132(6) . . .
125(6) . . .
124(6) . . .
138(7) . . .
124(6) . . .
130(6) . . .
133(6) . . .
123(6) . . .
134(6) . . .
136(6) . . .
143(6) . . .
147(6) . . .
151(6) . . .
142(7) . . .
114(6) . . .
130(6) . . .
138(6) . . .
140(6) . . .
137(6) . . .
136(6) . . .
122(6) . . .
141(6) . . .
113(6) . . .
133(6) . . .
151(7) . . .
141(6) . . .
140(6) . . .
139(6) . . .
132(6) . . .
145(7) . . .
131(6) . . .
119(6) . . .
132(6) . . .
117(6) . . .
148(6) . . .
137(6) . . .
135(6) . . .
140(6) . . .
125(6) . . .
123(6) . . .
129(6) . . .
136(6) . . .
141(6) . . .
140(7) . . .
142(6) . . .
134(6) . . .
140(6) . . .
130(6) . . .
135(6) . . .
167(7) . . .
121(6) . . .
125(6) . . .
132(6) . . .
122(6) . . .
128(6) . . .
131(6) . . .
128(6) . . .
132(6) . . .
134(6) . . .
128(6) . . .
113(6) . . .
115(6) . . .
136(7) . . .
118(6) . . .
123(6) . . .
140(6) . . .
132(6) . . .
138(7) . . .
142(7) . . .
131(6) . . .
127(6) . . .
123(6) . . .
135(7) . . .
119(6) . . .
129(6) . . .
127(6) . . .
138(6) . . .
122(6) . . .
122(6) . . .
125(6) . . .
129(6) . . .
120(6) . . .
140(6) . . .
133(6) . . .
141(6) . . .
129(6) . . .
131(6) . . .
147(7) . . .
131(6) . . .
149(6) . . .
115(6) . . .
120(6) . . .
139(6) . . .
132(6) . . .
132(6) . . .
135(6) . . .
122(6) . . .
135(6) . . .
134(6) . . .
156(6) . . .
142(6) . . .
151(7) . . .
151(7) . . .
128(6) . . .
129(6) . . .
127(6) . . .
133(6) . . .
141(6) . . .
119(6) . . .
118(6) . . .
141(6) . . .
138(6) . . .
121(6) . . .
140(6) . . .
138(6) . . .
114(6) . . .
144(7) . . .
138(6) . . .
145(6) . . .
130(6) . . .
142(6) . . .
130(6) . . .
125(6) . . .
141(6) . . .
147(6) . . .
122(6) . . .
149(7) . . .
140(6) . . .
129(6) . . .
131(6) . . .
113(6) . . .
129(7) . . .
125(6) . . .
133(6) . . .
125(6) . . .
131(6) . . .
137(7) . . .
137(6) . . .
125(6) . . .
129(6) . . .
127(6) . . .
132(6) . . .
121(6) . . .
138(6) . . .
131(6) . . .
135(6) . . .
125(6) . . .
128(6) . . .
147(6) . . .
136(6) . . .
138(6) . . .
132(6) . . .
144(6) . . .
134(6) . . .
125(6) . . .
116(6) . . .
133(6) . . .
136(6) . . .
123(6) . . .
124(6) . . .
123(6) . . .
128(6) . . .
138(6) . . .
141(6) . . .
141(7) . . .
137(7) . . .
154(7) . . .
139(6) . . .
133(6) . . .
126(6) . . .
127(6) . . .
129(6) . . .
134(6) . . .
142(6) . . .
134(6) . . .
140(7) . . .
140(6) . . .
140(6) . . .
130(6) . . .
130(6) . . .
141(7) . . .
128(6) . . .
120(6) . . .
124(6) . . .
137(6) . . .
127(6) . . .
116(6) . . .
128(6) . . .
140(6) . . .
123(6) . . .
130(6) . . .
127(6) . . .
124(6) . . .
118(6) . . .
125(6) . . .
131(6) . . .
117(6) . . .
127(6) . . .
132(6) . . .
129(6) . . .
139(6) . . .
138(6) . . .
117(6) . . .
122(6) . . .
119(6) . . .
130(6) . . .
129(6) . . .
139(6) . . .
135(6) . . .
127(6) . . .
127(6) . . .
132(6) . . .
123(6) . . .
134(6) . . .
132(6) . . .
130(6) . . .
147(6) . . .
129(6) . . .
125(6) . . .
127(6) . . .
128(6) . . .
145(6) . . .
138(6) . . .
143(6) . . .
135(6) . . .
129(6) . . .
129(6) . . .
145(6) . . .
143(6) . . .
137(7) . . .
128(6) . . .
138(6) . . .
133(6) . . .
132(6) . . .
144(7) . . .
124(6) . . .
128(6) . . .
130(6) . . .
134(6) . . .
129(6) . . .
121(6) . . .
118(6) . . .
119(6) . . .
125(6) . . .
130(6) . . .
109(5) . . .
151(6) . . .
141(6) . . .
139(6) . . .
139(6) . . .
121(6) . . .
115(6) . . .
124(6) . . .
135(6) . . .
136(6) . . .
133(6) . . .
121(6) . . .
126(6) . . .
133(6) . . .
114(6) . . .
124(6) . . .
124(6) . . .
130(6) . . .
137(6) . . .
126(6) . . .
116(6) . . .
123(6) . . .
130(6) . . .
117(6) . . .
135(6) . . .
119(6) . . .
120(6) . . .
127(6) . . .
140(7) . . .
128(6) . . .
134(6) . . .
137(6) . . .
143(6) . . .
125(6) . . .
121(6) . . .
126(6) . . .
128(6) . . .
130(6) . . .
142(7) . . .
121(6) . . .
128(6) . . .
125(6) . . .
144(7) . . .
118(6) . . .
130(6) . . .
140(6) . . .
132(6) . . .
114(6) . . .
121(6) . . .
131(6) . . .
143(6) . . .
128(6) . . .
141(7) . . .
134(6) . . .
146(6) . . .
137(6) . . .
136(6) . . .
126(6) . . .
134(6) . . .
122(6) . . .
129(6) . . .
119(6) . . .
121(6) . . .
137(6) . . .
133(6) . . .
128(6) . . .
125(6) . . .
129(6) . . .
126(6) . . .
125(6) . . .
130(6) . . .
128(6) . . .
110(6) . . .
129(6) . . .
133(6) . . .
137(6) . . .
129(6) . . .
124(6) . . .
142(7) . . .
138(6) . . .
106(5) . . .
121(6) . . .
132(6) . . .
124(6) . . .
130(6) . . .
139(6) . . .
131(6) . . .
123(6) . . .
134(6) . . .
140(6) . . .
139(6) . . .
120(6) . . .
122(6) . . .
146(7) . . .
138(6) . . .
132(6) . . .
137(6) . . .
124(6) . . .
131(6) . . .
150(6) . . .
123(6) . . .
124(6) . . .
136(6) . . .
128(6) . . .
141(6) . . .
121(6) . . .
122(6) . . .
135(6) . . .
136(6) . . .
139(6) . . .
130(6) . . .
148(7) . . .
145(6) . . .
130(6) . . .
130(6) . . .
119(6) . . .
138(7) . . .
142(7) . . .
131(6) . . .
144(6) . . .
144(7) . . .
128(6) . . .
142(6) . . .
147(6) . . .
131(6) . . .
143(6) . . .
144(7) . . .
133(6) . . .
108(5) . . .
142(6) . . .
138(6) . . .
118(6) . . .
137(6) . . .
128(6) . . .
151(6) . . .
114(6) . . .
128(6) . . .
140(6) . . .
130(6) . . .
133(6) . . .
120(6) . . .
140(6) . . .
137(6) . . .
122(6) . . .
141(6) . . .
131(6) . . .
129(6) . . .
131(7) . . .
122(6) . . .
134(6) . . .
127(6) . . .
137(6) . . .
124(6) . . .
141(6) . . .
123(6) . . .
149(7) . . .
132(6) . . .
120(6) . . .
138(6) . . .
127(6) . . .
140(7) . . .
124(6) . . .
130(6) . . .
126(6) . . .
129(6) . . .
134(7) . . .
126(6) . . .
124(6) . . .
137(6) . . .
140(6) . . .
141(6) . . .
134(6) . . .
128(6) . . .
127(6) . . .
134(6) . . .
132(6) . . .
141(7) . . .
134(6) . . .
128(6) . . .
128(6) . . .
142(7) . . .
126(6) . . .
121(6) . . .
113(6) . . .
137(6) . . .
138(7) . . .
142(7) . . .
121(6) . . .
133(6) . . .
114(6) . . .
130(6) . . .
113(6) . . .
118(6) . . .
135(6) . . .
131(6) . . .
124(6) . . .
142(6) . . .
136(6) . . .
127(6) . . .
115(6) . . .
109(6) . . .
134(6) . . .
129(6) . . .
137(6) . . .
118(6) . . .
134(6) . . .
145(6) . . .
136(6) . . .
123(6) . . .
130(6) . . .
112(6) . . .
142(6) . . .
126(6) . . .
122(6) . . .
139(6) . . .
140(6) . . .
127(6) . . .
123(6) . . .
122(6) . . .
144(7) . . .
149(7) . . .
126(6) . . .
129(6) . . .
131(6) . . .
127(6) . . .
117(6) . . .
151(6) . . .
132(6) . . .
135(6) . . .
146(7) . . .
124(6) . . .
118(6) . . .
148(6) . . .
146(6) . . .
131(6) . . .
126(6) . . .
144(6) . . .
126(6) . . .
140(7) . . .
141(7) . . .
121(6) . . .
139(6) . . .
137(6) . . .
127(6) . . .
132(6) . . .
120(6) . . .
155(6) . . .
137(6) . . .
147(7) . . .
126(6) . . .
120(6) . . .
136(6) . . .
115(6) . . .
134(6) . . .
140(6) . . .
133(6) . . .
131(6) . . .
130(6) . . .
117(6) . . .
122(6) . . .
144(6) . . .
120(6) . . .
125(6) . . .
132(6) . . .
126(6) . . .
128(6) . . .
148(6) . . .
143(6) . . .
120(6) . . .
142(7) . . .
129(6) . . .
118(6) . . .
127(6) . . .
132(6) . . .
119(6) . . .
139(6) . . .
134(6) . . .
134(6) . . .
133(6) . . .
135(6) . . .
121(6) . . .
144(6) . . .
124(6) . . .
122(6) . . .
123(6) . . .
135(6) . . .
154(6) . . .
137(6) . . .
135(6) . . .
134(6) . . .
135(6) . . .
118(6) . . .
128(6) . . .
125(6) . . .
140(6) . . .
124(6) . . .
143(6) . . .
131(6) . . .
148(7) . . .
135(6) . . .
137(6) . . .
130(6) . . .
113(6) . . .
121(6) . . .
151(7) . . .
126(6) . . .
142(6) . . .
133(6) . . .
131(6) . . .
132(6) . . .
119(6) . . .
117(6) . . .
122(6) . . .
131(6) . . .
119(6) . . .
140(6) . . .
145(7) . . .
125(6) . . .
131(6) . . .
149(6) . . .
130(6) . . .
128(6) . . .
143(7) . . .
124(6) . . .
118(6) . . .
120(6) . . .
133(6) . . .
140(7) . . .
124(6) . . .
130(6) . . .
135(6) . . .
119(6) . . .
130(6) . . .
117(6) . . .
123(6) . . .
135(6) . . .
114(6) . . .
139(7) . . .
120(6) . . .
123(6) . . .
130(6) . . .
132(6) . . .
123(6) . . .
148(7) . . .
131(6) . . .
126(6) . . .
116(6) . . .
124(6) . . .
136(6) . . .
128(6) . . .
118(6) . . .
124(6) . . .
141(7) . . .
141(6) . . .
124(6) . . .
123(6) . . .
122(6) . . .
122(6) . . .
126(6) . . .
122(6) . . .
117(6) . . .
118(6) . . .
118(6) . . .
115(6) . . .
118(6) . . .
123(6) . . .
126(6) . . .
126(6) . . .
141(6) . . .
136(6) . . .
125(6) . . .
117(6) . . .
135(6) . . .
135(6) . . .
143(6) . . .
129(6) . . .
132(6) . . .
106(6) . . .
132(6) . . .
109(5) . . .
118(6) . . .
127(6) . . .
113(6) . . .
142(6) . . .
122(6) . . .
133(6) . . .
129(6) . . .
142(6) . . .
136(6) . . .
119(6) . . .
121(6) . . .
119(6) . . .
123(6) . . .
125(6) . . .
137(6) . . .
127(6) . . .
121(6) . . .
132(6) . . .
121(6) . . .
113(6) . . .
131(6) . . .
121(6) . . .
133(6) . . .
131(6) . . .
118(6) . . .
133(6) . . .
126(6) . . .
133(6) . . .
132(6) . . .
137(6) . . .
134(6) . . .
127(6) . . .
136(6) . . .
138(6) . . .
134(6) . . .
113(6) . . .
129(6) . . .
133(6) . . .
123(6) . . .
127(6) . . .
137(7) . . .
130(6) . . .
129(6) . . .
108(5) . . .
126(6) . . .
128(6) . . .
127(6) . . .
135(6) . . .
124(6) . . .
132(6) . . .
128(6) . . .
123(6) . . .
111(5) . . .
133(6) . . .
121(6) . . .
130(6) . . .
121(6) . . .
122(6) . . .
138(6) . . .
121(6) . . .
134(6) . . .
120(6) . . .
122(6) . . .
143(6) . . .
131(6) . . .
123(6) . . .
130(6) . . .
117(6) . . .
133(6) . . .
129(6) . . .
125(6) . . .
119(6) . . .
128(6) . . .
140(6) . . .
136(6) . . .
122(6) . . .
120(6) . . .
135(6) . . .
126(6) . . .
131(6) . . .
126(6) . . .
132(6) . . .
109(5) . . .
113(6) . . .
135(6) . . .
134(6) . . .
126(6) . . .
134(6) . . .
121(6) . . .
129(6) . . .
133(6) . . .
122(6) . . .
144(6) . . .
134(6) . . .
122(6) . . .
126(6) . . .
136(6) . . .
131(6) . . .
124(6) . . .
129(6) . . .
129(6) . . .
134(6) . . .
130(6) . . .
128(6) . . .
131(7) . . .
126(6) . . .
129(6) . . .
123(6) . . .
126(6) . . .
127(6) . . .
113(6) . . .
127(6) . . .
129(6) . . .
136(6) . . .
144(7) . . .
141(6) . . .
135(6) . . .
122(6) . . .
118(6) . . .
118(6) . . .
125(6) . . .
124(6) . . .
119(6) . . .
141(7) . . .
147(7) . . .
130(6) . . .
119(6) . . .
124(6) . . .
120(6) . . .
118(6) . . .
118(6) . . .
130(6) . . .
112(6) . . .
113(6) . . .
137(7) . . .
127(6) . . .
142(6) . . .
129(6) . . .
138(7) . . .
122(6) . . .
127(6) . . .
113(6) . . .
115(6) . . .
123(6) . . .
120(6) . . .
113(6) . . .
138(6) . . .
107(5) . . .
132(6) . . .
137(6) . . .
128(6) . . .
118(6) . . .
132(6) . . .
145(7) . . .
140(7) . . .
133(6) . . .
112(5) . . .
123(6) . . .
136(7) . . .
107(5) . . .
115(6) . . .
131(6) . . .
120(6) . . .
120(6) . . .
115(6) . . .
147(6) . . .
143(6) . . .
119(6) . . .
119(6) . . .
105(6) . . .
114(6) . . .
115(6) . . .
115(6) . . .
134(6) . . .
123(6) . . .
130(6) . . .
142(6) . . .
125(6) . . .
118(6) . . .
126(6) . . .
129(6) . . .
117(6) . . .
113(6) . . .
123(6) . . .
130(6) . . .
133(6) . . .
124(6) . . .
141(7) . . .
121(6) . . .
128(6) . . .
121(6) . . .
128(6) . . .
126(6) . . .
125(6) . . .
134(6) . . .
128(6) . . .
127(6) . . .
132(6) . . .
109(5) . . .
120(6) . . .
124(6) . . .
129(6) . . .
117(6) . . .
114(6) . . .
121(6) . . .
123(6) . . .
108(6) . . .
126(6) . . .
126(6) . . .
119(6) . . .
115(6) . . .
110(6) . . .
117(6) . . .
119(6) . . .
118(6) . . .
128(6) . . .
127(6) . . .
108(6) . . .
122(6) . . .
128(6) . . .
135(6) . . .
126(6) . . .
133(6) . . .
114(6) . . .
123(6) . . .
103(5) . . .
115(6) . . .
120(6) . . .
102(5) . . .
108(5) . . .
107(6) . . .
117(6) . . .
121(6) . . .
107(5) . . .
117(6) . . .
107(6) . . .
122(6) . . .
113(6) . . .
120(6) . . .
119(6) . . .
123(6) . . .
112(6) . . .
102(5) . . .
129(6) . . .
129(6) . . .
125(6) . . .
125(6) . . .
113(6) . . .
125(6) . . .
129(6) . . .
128(6) . . .
140(7) . . .
123(6) . . .
128(6) . . .
126(6) . . .
143(7) . . .
106(6) . . .
117(6) . . .
135(6) . . .
125(6) . . .
134(6) . . .
127(6) . . .
134(6) . . .
133(6) . . .
112(5) . . .
123(6) . . .
136(6) . . .
132(6) . . .
106(5) . . .
127(6) . . .
125(6) . . .
133(6) . . .
107(6) . . .
118(6) . . .
119(6) . . .
133(6) . . .
121(6) . . .
126(6) . . .
120(6) . . .
118(6) . . .
128(6) . . .
141(7) . . .
118(6) . . .
113(6) . . .
117(6) . . .
134(6) . . .
126(6) . . .
126(6) . . .
111(5) . . .
116(6) . . .
120(6) . . .
118(6) . . .
125(6) . . .
129(6) . . .
121(6) . . .
120(6) . . .
115(6) . . .
121(6) . . .
110(5) . . .
126(6) . . .
121(6) . . .
125(6) . . .
129(6) . . .
125(6) . . .
119(6) . . .
130(7) . . .
135(6) . . .
112(6) . . .
119(6) . . .
127(6) . . .
135(6) . . .
125(6) . . .
127(6) . . .
137(6) . . .
131(6) . . .
118(6) . . .
124(6) . . .
118(6) . . .
129(6) . . .
122(6) . . .
137(7) . . .
131(6) . . .
133(6) . . .
124(6) . . .
117(6) . . .
125(6) . . .
126(6) . . .
111(5) . . .
123(6) . . .
134(6) . . .
128(6) . . .
128(6) . . .
105(5) . . .
123(6) . . .
111(6) . . .
125(6) . . .
130(6) . . .
141(6) . . .
124(6) . . .
126(6) . . .
121(6) . . .
134(6) . . .
137(6) . . .
132(6) . . .
123(6) . . .
109(6) . . .
119(6) . . .
121(6) . . .
128(6) . . .
121(6) . . .
125(6) . . .
131(6) . . .
129(6) . . .
128(6) . . .
117(6) . . .
122(6) . . .
108(5) . . .
135(6) . . .
115(6) . . .
134(7) . . .
126(6) . . .
116(6) . . .
124(6) . . .
129(6) . . .
123(6) . . .
117(6) . . .
108(5) . . .
117(6) . . .
125(6) . . .
127(6) . . .
116(6) . . .
111(6) . . .
115(6) . . .
124(6) . . .
132(6) . . .
125(6) . . .
111(5) . . .
105(5) . . .
117(6) . . .
118(6) . . .
116(6) . . .
121(6) . . .
137(6) . . .
130(6) . . .
130(6) . . .
125(6) . . .
116(6) . . .
107(6) . . .
123(6) . . .
117(6) . . .
105(5) . . .
112(6) . . .
114(6) . . .
114(6) . . .
118(6) . . .
119(6) . . .
123(6) . . .
111(6) . . .
113(6) . . .
117(6) . . .
112(5) . . .
117(6) . . .
127(6) . . .
127(6) . . .
125(6) . . .
125(6) . . .
126(6) . . .
126(6) . . .
124(6) . . .
112(6) . . .
129(6) . . .
124(6) . . .
134(6) . . .
120(6) . . .
112(6) . . .
137(6) . . .
122(6) . . .
127(6) . . .
118(6) . . .
100(5) . . .
133(6) . . .
125(6) . . .
111(6) . . .
115(6) . . .
127(6) . . .
122(6) . . .
127(6) . . .
112(6) . . .
107(6) . . .
121(6) . . .
120(6) . . .
120(6) . . .
122(6) . . .
124(6) . . .
127(6) . . .
127(6) . . .
121(6) . . .
136(6) . . .
136(6) . . .
107(5) . . .
128(6) . . .
117(6) . . .
114(6) . . .
132(6) . . .
124(6) . . .
131(6) . . .
126(6) . . .
120(6) . . .
127(6) . . .
119(6) . . .
121(6) . . .
134(6) . . .
108(6) . . .
135(6) . . .
108(5) . . .
123(6) . . .
119(6) . . .
112(6) . . .
126(6) . . .
115(6) . . .
109(6) . . .
132(6) . . .
116(6) . . .
127(6) . . .
113(6) . . .
122(6) . . .
116(6) . . .
126(6) . . .
121(6) . . .
133(6) . . .
135(6) . . .
111(6) . . .
112(6) . . .
120(6) . . .
116(6) . . .
122(6) . . .
120(6) . . .
125(6) . . .
103(5) . . .
124(6) . . .
133(6) . . .
123(6) . . .
131(6) . . .
124(6) . . .
109(5) . . .
115(6) . . .
149(7) . . .
130(6) . . .
124(6) . . .
126(6) . . .
128(6) . . .
114(6) . . .
109(6) . . .
129(6) . . .
116(6) . . .
107(6) . . .
107(6) . . .
113(6) . . .
128(6) . . .
107(5) . . .
119(6) . . .
111(6) . . .
122(6) . . .
119(6) . . .
124(6) . . .
136(6) . . .
110(6) . . .
125(6) . . .
107(5) . . .
110(6) . . .
119(6) . . .
115(6) . . .
122(6) . . .
121(6) . . .
130(6) . . .
136(6) . . .
114(6) . . .
117(6) . . .
119(6) . . .
145(6) . . .
124(6) . . .
119(6) . . .
124(6) . . .
114(6) . . .
119(6) . . .
113(6) . . .
132(6) . . .
127(6) . . .
123(6) . . .
107(5) . . .
133(6) . . .
119(6) . . .
121(6) . . .
115(6) . . .
117(6) . . .
120(6) . . .
131(6) . . .
131(6) . . .
121(6) . . .
127(6) . . .
106(5) . . .
121(6) . . .
111(5) . . .
111(6) . . .
120(6) . . .
115(6) . . .
112(6) . . .
117(6) . . .
123(6) . . .
124(6) . . .
122(6) . . .
118(6) . . .
120(6) . . .
125(6) . . .
115(6) . . .
125(6) . . .
116(6) . . .
108(5) . . .
114(6) . . .
116(6) . . .
123(6) . . .
124(6) . . .
121(6) . . .
132(6) . . .
121(6) . . .
121(6) . . .
114(6) . . .
125(6) . . .
134(6) . . .
120(6) . . .
112(6) . . .
119(6) . . .
118(6) . . .
130(6) . . .
116(6) . . .
115(6) . . .
120(6) . . .
118(6) . . .
119(6) . . .
116(6) . . .
99(5) . . .
108(6) . . .
117(6) . . .
125(6) . . .
117(6) . . .
107(6) . . .
105(5) . . .
131(6) . . .
111(6) . . .
122(6) . . .
110(6) . . .
123(6) . . .
117(6) . . .
122(6) . . .
120(6) . . .
114(6) . . .
116(6) . . .
120(6) . . .
121(6) . . .
120(6) . . .
111(6) . . .
115(6) . . .
110(5) . . .
123(6) . . .
121(6) . . .
119(6) . . .
116(6) . . .
108(5) . . .
115(6) . . .
121(6) . . .
129(6) . . .
110(5) . . .
118(6) . . .
120(6) . . .
101(6) . . .
122(6) . . .
133(6) . . .
113(6) . . .
117(6) . . .
119(6) . . .
127(6) . . .
124(6) . . .
117(6) . . .
112(6) . . .
124(6) . . .
100(5) . . .
94(5) . . .
127(6) . . .
121(6) . . .
104(6) . . .
117(6) . . .
116(6) . . .
121(6) . . .
110(6) . . .
122(6) . . .
124(6) . . .
122(6) . . .
94(5) . . .
119(6) . . .
115(6) . . .
105(5) . . .
128(6) . . .
127(6) . . .
137(6) . . .
118(6) . . .
114(6) . . .
123(6) . . .
124(6) . . .
111(6) . . .
125(6) . . .
128(6) . . .
111(5) . . .
118(6) . . .
120(6) . . .
116(6) . . .
115(6) . . .
118(6) . . .
116(6) . . .
109(6) . . .
138(6) . . .
118(6) . . .
129(6) . . .
106(5) . . .
120(6) . . .
122(6) . . .
121(6) . . .
130(6) . . .
131(6) . . .
123(6) . . .
113(6) . . .
122(6) . . .
126(6) . . .
124(6) . . .
107(6) . . .
116(6) . . .
107(5) . . .
113(6) . . .
117(6) . . .
112(6) . . .
121(6) . . .
113(6) . . .
110(6) . . .
140(7) . . .
110(6) . . .
112(6) . . .
122(6) . . .
122(6) . . .
118(6) . . .
119(6) . . .
119(6) . . .
128(6) . . .
127(6) . . .
126(6) . . .
121(6) . . .
137(6) . . .
120(6) . . .
113(6) . . .
120(6) . . .
129(6) . . .
131(6) . . .
133(6) . . .
119(6) . . .
118(6) . . .
122(6) . . .
120(6) . . .
114(6) . . .
122(6) . . .
137(7) . . .
112(6) . . .
113(5) . . .
107(5) . . .
128(6) . . .
103(6) . . .
112(6) . . .
127(6) . . .
101(5) . . .
111(6) . . .
115(6) . . .
120(6) . . .
115(6) . . .
112(6) . . .
113(6) . . .
102(5) . . .
117(6) . . .
113(6) . . .
122(6) . . .
119(6) . . .
118(6) . . .
124(6) . . .
128(6) . . .
128(6) . . .
113(6) . . .
120(6) . . .
109(6) . . .
124(6) . . .
114(6) . . .
112(6) . . .
121(6) . . .
107(5) . . .
120(6) . . .
98(5) . . .
125(6) . . .
133(6) . . .
119(6) . . .
123(6) . . .
113(6) . . .
118(6) . . .
129(6) . . .
112(6) . . .
108(5) . . .
111(6) . . .
123(6) . . .
114(6) . . .
119(6) . . .
119(6) . . .
123(6) . . .
124(6) . . .
133(6) . . .
113(5) . . .
118(6) . . .
114(6) . . .
109(6) . . .
127(6) . . .
116(6) . . .
122(6) . . .
132(6) . . .
128(6) . . .
121(6) . . .
123(6) . . .
110(5) . . .
123(6) . . .
117(6) . . .
121(6) . . .
137(6) . . .
112(6) . . .
106(6) . . .
123(6) . . .
129(6) . . .
122(6) . . .
126(6) . . .
140(6) . . .
127(6) . . .
131(6) . . .
114(6) . . .
107(6) . . .
124(6) . . .
140(6) . . .
141(6) . . .
118(6) . . .
117(6) . . .
126(6) . . .
119(6) . . .
119(6) . . .
119(6) . . .
111(6) . . .
104(6) . . .
125(6) . . .
115(6) . . .
125(6) . . .
123(6) . . .
114(6) . . .
107(6) . . .
119(6) . . .
110(5) . . .
118(6) . . .
126(6) . . .
100(5) . . .
123(6) . . .
129(6) . . .
124(6) . . .
135(7) . . .
134(6) . . .
115(6) . . .
117(6) . . .
111(6) . . .
119(6) . . .
102(5) . . .
109(5) . . .
107(5) . . .
129(6) . . .
125(6) . . .
108(6) . . .
114(6) . . .
110(6) . . .
98(5) . . .
106(6) . . .
113(6) . . .
112(6) . . .
117(6) . . .
118(6) . . .
104(6) . . .
120(6) . . .
106(5) . . .
107(5) . . .
129(6) . . .
117(6) . . .
116(6) . . .
121(6) . . .
113(6) . . .
106(5) . . .
127(6) . . .
122(6) . . .
117(6) . . .
117(6) . . .
115(6) . . .
123(6) . . .
119(6) . . .
103(5) . . .
101(5) . . .
110(6) . . .
124(6) . . .
107(5) . . .
118(6) . . .
112(6) . . .
109(6) . . .
108(6) . . .
106(5) . . .
99(5) . . .
114(6) . . .
121(6) . . .
102(5) . . .
116(6) . . .
123(6) . . .
119(6) . . .
112(6) . . .
124(6) . . .
119(6) . . .
113(6) . . .
125(6) . . .
110(6) . . .
109(6) . . .
126(6) . . .
114(6) . . .
114(6) . . .
120(6) . . .
103(6) . . .
103(5) . . .
108(5) . . .
109(6) . . .
105(6) . . .
118(6) . . .
113(6) . . .
107(6) . . .
116(6) . . .
120(6) . . .
132(6) . . .
106(5) . . .
120(6) . . .
107(6) . . .
106(6) . . .
106(5) . . .
111(6) . . .
106(5) . . .
117(6) . . .
118(6) . . .
119(6) . . .
123(6) . . .
122(6) . . .
119(6) . . .
107(6) . . .
115(6) . . .
109(5) . . .
115(6) . . .
112(6) . . .
121(6) . . .
103(5) . . .
105(5) . . .
104(6) . . .
91(5) . . .
105(6) . . .
117(6) . . .
101(5) . . .
116(6) . . .
122(6) . . .
109(5) . . .
101(5) . . .
90(5) . . .
87(5) . . .
127(6) . . .
102(5) . . .
106(5) . . .
106(5) . . .
107(6) . . .
105(6) . . .
100(5) . . .
116(6) . . .
109(5) . . .
110(5) . . .
104(5) . . .
125(6) . . .
126(6) . . .
131(6) . . .
120(6) . . .
101(5) . . .
97(5) . . .
114(6) . . .
117(6) . . .
116(6) . . .
116(6) . . .
117(6) . . .
124(6) . . .
128(6) . . .
118(6) . . .
113(6) . . .
109(6) . . .
115(6) . . .
122(6) . . .
134(7) . . .
117(6) . . .
100(5) . . .
111(5) . . .
123(6) . . .
118(6) . . .
115(6) . . .
126(6) . . .
119(6) . . .
119(6) . . .
116(6) . . .
118(6) . . .
123(6) . . .
117(6) . . .
127(6) . . .
123(6) . . .
128(6) . . .
105(5) . . .
122(6) . . .
114(6) . . .
116(6) . . .
102(5) . . .
117(6) . . .
96(5) . . .
106(6) . . .
106(6) . . .
131(6) . . .
115(6) . . .
124(6) . . .
113(6) . . .
107(6) . . .
120(6) . . .
117(6) . . .
105(5) . . .
115(6) . . .
112(6) . . .
101(5) . . .
113(6) . . .
122(6) . . .
130(6) . . .
127(6) . . .
110(5) . . .
123(6) . . .
106(5) . . .
120(6) . . .
120(6) . . .
98(5) . . .
128(6) . . .
121(6) . . .
110(6) . . .
117(6) . . .
121(6) . . .
118(6) . . .
107(5) . . .
113(6) . . .
116(6) . . .
102(5) . . .
118(6) . . .
118(6) . . .
111(6) . . .
101(5) . . .
102(5) . . .
108(5) . . .
115(6) . . .
113(6) . . .
122(6) . . .
120(6) . . .
130(6) . . .
114(6) . . .
124(6) . . .
117(6) . . .
122(6) . . .
109(5) . . .
114(6) . . .
118(6) . . .
114(6) . . .
127(6) . . .
110(5) . . .
112(6) . . .
116(6) . . .
115(6) . . .
100(5) . . .
122(6) . . .
120(6) . . .
118(6) . . .
114(6) . . .
123(6) . . .
107(6) . . .
110(6) . . .
123(6) . . .
120(6) . . .
115(6) . . .
106(5) . . .
116(6) . . .
112(6) . . .
103(5) . . .
117(6) . . .
114(6) . . .
104(5) . . .
112(6) . . .
108(5) . . .
127(6) . . .
116(6) . . .
91(5) . . .
109(6) . . .
113(6) . . .
123(6) . . .
118(6) . . .
102(6) . . .
108(6) . . .
106(5) . . .
119(6) . . .
102(5) . . .
101(5) . . .
122(6) . . .
125(6) . . .
118(6) . . .
119(6) . . .
112(6) . . .
98(5) . . .
124(6) . . .
116(6) . . .
111(6) . . .
106(6) . . .
105(6) . . .
104(5) . . .
110(6) . . .
103(6) . . .
94(5) . . .
108(6) . . .
115(6) . . .
118(6) . . .
112(6) . . .
97(5) . . .
107(6) . . .
107(5) . . .
108(6) . . .
111(6) . . .
121(6) . . .
131(6) . . .
119(6) . . .
119(6) . . .
115(6) . . .
113(6) . . .
109(6) . . .
112(5) . . .
119(6) . . .
111(6) . . .
105(6) . . .
97(5) . . .
113(5) . . .
116(6) . . .
116(6) . . .
115(6) . . .
119(6) . . .
119(6) . . .
107(6) . . .
113(6) . . .
105(6) . . .
105(5) . . .
111(5) . . .
110(6) . . .
109(6) . . .
116(6) . . .
121(6) . . .
121(6) . . .
112(6) . . .
118(6) . . .
120(6) . . .
114(5) . . .
109(5) . . .
115(6) . . .
120(6) . . .
93(5) . . .
121(6) . . .
115(6) . . .
105(5) . . .
116(6) . . .
108(6) . . .
113(5) . . .
112(5) . . .
116(6) . . .
104(6) . . .
109(6) . . .
100(5) . . .
105(5) . . .
120(6) . . .
117(6) . . .
131(6) . . .
95(5) . . .
111(6) . . .
115(6) . . .
113(6) . . .
103(5) . . .
113(6) . . .
110(6) . . .
116(6) . . .
103(5) . . .
112(6) . . .
105(5) . . .
114(6) . . .
114(6) . . .
109(6) . . .
109(6) . . .
107(5) . . .
92(5) . . .
118(6) . . .
98(5) . . .
98(5) . . .
104(5) . . .
92(5) . . .
108(6) . . .
113(6) . . .
111(6) . . .
119(6) . . .
121(6) . . .
107(6) . . .
104(5) . . .
119(6) . . .
100(5) . . .
104(5) . . .
106(6) . . .
91(5) . . .
99(5) . . .
117(6) . . .
118(6) . . .
110(6) . . .
117(6) . . .
126(6) . . .
113(6) . . .
113(6) . . .
120(6) . . .
123(6) . . .
117(6) . . .
110(6) . . .
109(6) . . .
113(6) . . .
121(6) . . .
116(6) . . .
124(6) . . .
115(6) . . .
116(6) . . .
111(6) . . .
96(5) . . .
97(5) . . .
126(6) . . .
105(6) . . .
108(6) . . .
123(6) . . .
104(5) . . .
106(6) . . .
110(6) . . .
122(6) . . .
105(5) . . .
104(5) . . .
121(6) . . .
113(6) . . .
123(6) . . .
112(6) . . .
109(6) . . .
101(5) . . .
120(6) . . .
117(6) . . .
107(5) . . .
112(6) . . .
111(6) . . .
121(6) . . .
106(5) . . .
103(5) . . .
116(6) . . .
115(6) . . .
120(6) . . .
121(6) . . .
113(6) . . .
119(6) . . .
110(6) . . .
112(6) . . .
105(5) . . .
102(5) . . .
112(6) . . .
102(5) . . .
109(5) . . .
111(6) . . .
101(5) . . .
112(6) . . .
94(5) . . .
117(6) . . .
116(6) . . .
125(6) . . .
116(6) . . .
99(5) . . .
102(5) . . .
112(6) . . .
118(6) . . .
111(6) . . .
112(6) . . .
118(6) . . .
114(6) . . .
107(6) . . .
110(6) . . .
114(6) . . .
114(6) . . .
116(6) . . .
109(6) . . .
97(5) . . .
118(6) . . .
108(5) . . .
108(5) . . .
123(6) . . .
107(6) . . .
103(5) . . .
112(5) . . .
92(5) . . .
116(6) . . .
102(6) . . .
117(6) . . .
97(5) . . .
108(5) . . .
123(6) . . .
109(6) . . .
111(6) . . .
103(5) . . .
116(6) . . .
126(6) . . .
114(6) . . .
107(5) . . .
112(6) . . .
112(6) . . .
104(5) . . .
102(6) . . .
104(6) . . .
106(5) . . .
123(6) . . .
115(6) . . .
116(6) . . .
122(6) . . .
123(6) . . .
111(6) . . .
114(6) . . .
107(6) . . .
106(5) . . .
111(5) . . .
118(6) . . .
109(6) . . .
114(6) . . .
114(6) . . .
118(6) . . .
104(6) . . .
116(6) . . .
126(6) . . .
121(6) . . .
116(6) . . .
115(6) . . .
118(6) . . .
111(5) . . .
122(6) . . .
119(6) . . .
109(6) . . .
102(6) . . .
102(5) . . .
112(6) . . .
107(5) . . .
115(6) . . .
97(5) . . .
109(6) . . .
116(6) . . .
120(6) . . .
111(6) . . .
120(6) . . .
104(5) . . .
116(6) . . .
117(6) . . .
109(6) . . .
119(6) . . .
119(6) . . .
117(6) . . .
119(6) . . .
115(6) . . .
121(6) . . .
106(6) . . .
112(6) . . .
109(6) . . .
123(6) . . .
117(6) . . .
120(6) . . .
110(5) . . .
112(6) . . .
106(5) . . .
114(6) . . .
122(6) . . .
101(5) . . .
114(6) . . .
132(6) . . .
110(6) . . .
107(5) . . .
113(6) . . .
107(6) . . .
120(6) . . .
106(6) . . .
100(5) . . .
103(5) . . .
110(5) . . .
120(6) . . .
105(5) . . .
117(6) . . .
108(5) . . .
107(6) . . .
120(6) . . .
119(6) . . .
121(6) . . .
117(6) . . .
113(6) . . .
114(6) . . .
99(5) . . .
110(5) . . .
108(5) . . .
101(5) . . .
100(6) . . .
119(6) . . .
112(5) . . .
95(5) . . .
119(6) . . .
106(6) . . .
116(6) . . .
108(5) . . .
117(6) . . .
124(6) . . .
113(6) . . .
109(6) . . .
121(6) . . .
130(6) . . .
107(6) . . .
98(5) . . .
115(6) . . .
112(6) . . .
105(5) . . .
109(6) . . .
103(5) . . .
118(6) . . .
103(5) . . .
99(5) . . .
104(5) . . .
114(6) . . .
121(6) . . .
107(5) . . .
111(6) . . .
98(5) . . .
109(6) . . .
103(5) . . .
107(5) . . .
107(6) . . .
121(6) . . .
109(6) . . .
102(5) . . .
95(5) . . .
111(6) . . .
100(6) . . .
114(6) . . .
97(5) . . .
102(5) . . .
104(5) . . .
113(6) . . .
106(6) . . .
101(5) . . .
106(5) . . .
109(6) . . .
123(6) . . .
115(6) . . .
117(6) . . .
108(5) . . .
109(6) . . .
102(6) . . .
105(5) . . .
106(5) . . .
116(6) . . .
103(5) . . .
121(6) . . .
112(6) . . .
119(6) . . .
109(5) . . .
120(6) . . .
113(6) . . .
118(6) . . .
117(6) . . .
98(5) . . .
102(5) . . .
116(6) . . .
110(6) . . .
109(5) . . .
93(5) . . .
112(6) . . .
114(6) . . .
101(5) . . .
94(5) . . .
93(5) . . .
106(6) . . .
98(5) . . .
108(5) . . .
108(5) . . .
109(6) . . .
106(6) . . .
100(5) . . .
102(5) . . .
121(6) . . .
99(5) . . .
100(6) . . .
110(6) . . .
113(6) . . .
96(5) . . .
102(6) . . .
86(5) . . .
109(6) . . .
96(5) . . .
107(5) . . .
107(6) . . .
124(6) . . .
109(5) . . .
109(5) . . .
105(5) . . .
119(6) . . .
112(6) . . .
116(6) . . .
108(5) . . .
116(6) . . .
109(6) . . .
112(6) . . .
114(6) . . .
115(6) . . .
109(5) . . .
113(6) . . .
125(6) . . .
115(6) . . .
111(6) . . .
115(6) . . .
121(6) . . .
117(6) . . .
122(6) . . .
108(5) . . .
101(5) . . .
103(5) . . .
124(6) . . .
121(6) . . .
115(6) . . .
108(6) . . .
102(6) . . .
99(5) . . .
104(5) . . .
100(5) . . .
99(5) . . .
115(6) . . .
113(6) . . .
101(5) . . .
116(6) . . .
112(6) . . .
99(5) . . .
105(6) . . .
113(6) . . .
109(5) . . .
100(5) . . .
101(5) . . .
117(6) . . .
112(6) . . .
111(5) . . .
105(6) . . .
113(6) . . .
119(6) . . .
118(6) . . .
116(6) . . .
102(5) . . .
117(6) . . .
114(6) . . .
107(5) . . .
107(5) . . .
115(6) . . .
100(5) . . .
112(6) . . .
106(5) . . .
104(5) . . .
112(6) . . .
99(5) . . .
101(5) . . .
96(5) . . .
93(5) . . .
95(5) . . .
109(6) . . .
113(6) . . .
124(6) . . .
111(5) . . .
105(6) . . .
109(6) . . .
98(5) . . .
119(6) . . .
110(6) . . .
113(6) . . .
121(6) . . .
100(5) . . .
101(5) . . .
88(5) . . .
109(6) . . .
115(6) . . .
108(5) . . .
113(5) . . .
111(6) . . .
121(6) . . .
110(5) . . .
112(6) . . .
108(5) . . .
111(6) . . .
106(6) . . .
109(6) . . .
98(5) . . .
93(5) . . .
116(6) . . .
109(6) . . .
104(5) . . .
107(5) . . .
110(5) . . .
106(5) . . .
100(6) . . .
104(5) . . .
114(6) . . .
113(5) . . .
105(5) . . .
97(5) . . .
100(5) . . .
102(5) . . .
110(5) . . .
102(5) . . .
102(5) . . .
104(6) . . .
92(5) . . .
99(5) . . .
110(6) . . .
116(6) . . .
101(6) . . .
107(5) . . .
109(6) . . .
104(6) . . .
106(6) . . .
109(6) . . .
121(6) . . .
102(5) . . .
111(6) . . .
122(6) . . .
98(5) . . .
118(6) . . .
113(6) . . .
109(6) . . .
103(5) . . .
101(5) . . .
102(5) . . .
126(6) . . .
109(6) . . .
107(5) . . .
109(5) . . .
110(5) . . .
91(5) . . .
113(6) . . .
109(6) . . .
101(5) . . .
119(6) . . .
102(6) . . .
91(5) . . .
111(6) . . .
106(5) . . .
106(5) . . .
109(6) . . .
98(6) . . .
106(6) . . .
108(5) . . .
101(5) . . .
99(6) . . .
100(6) . . .
117(6) . . .
100(5) . . .
105(5) . . .
118(6) . . .
100(5) . . .
112(6) . . .
93(5) . . .
101(5) . . .
97(5) . . .
114(6) . . .
106(5) . . .
96(5) . . .
96(5) . . .
109(6) . . .
115(6) . . .
110(6) . . .
117(6) . . .
112(6) . . .
95(5) . . .
105(6) . . .
116(6) . . .
96(5) . . .
105(5) . . .
121(6) . . .
110(6) . . .
112(6) . . .
96(5) . . .
107(6) . . .
116(6) . . .
102(5) . . .
102(5) . . .
106(5) . . .
109(6) . . .
110(6) . . .
119(6) . . .
114(6) . . .
103(5) . . .
97(6) . . .
88(5) . . .
102(5) . . .
99(5) . . .
116(6) . . .
127(6) . . .
102(6) . . .
118(6) . . .
117(6) . . .
95(5) . . .
101(5) . . .
94(5) . . .
98(5) . . .
109(6) . . .
95(5) . . .
107(6) . . .
118(6) . . .
103(5) . . .
113(6) . . .
93(5) . . .
98(5) . . .
111(6) . . .
114(6) . . .
120(6) . . .
100(5) . . .
109(6) . . .
114(6) . . .
100(5) . . .
107(5) . . .
118(6) . . .
112(6) . . .
110(6) . . .
110(5) . . .
125(6) . . .
105(5) . . .
100(5) . . .
105(6) . . .
95(5) . . .
110(5) . . .
106(6) . . .
100(5) . . .
96(5) . . .
100(5) . . .
111(6) . . .
104(5) . . .
105(6) . . .
91(5) . . .
97(5) . . .
105(5) . . .
92(5) . . .
105(6) . . .
109(6) . . .
108(6) . . .
93(5) . . .
114(6) . . .
102(6) . . .
128(6) . . .
92(5) . . .
113(6) . . .
111(6) . . .
104(6) . . .
93(5) . . .
113(6) . . .
106(5) . . .
112(6) . . .
95(5) . . .
113(6) . . .
115(6) . . .
102(5) . . .
106(5) . . .
118(6) . . .
119(6) . . .
118(6) . . .
109(6) . . .
101(6) . . .
103(5) . . .
109(6) . . .
105(5) . . .
114(6) . . .
122(6) . . .
110(6) . . .
95(5) . . .
104(5) . . .
117(6) . . .
106(6) . . .
111(6) . . .
100(5) . . .
110(5) . . .
100(5) . . .
111(6) . . .
109(6) . . .
109(5) . . .
107(5) . . .
103(5) . . .
109(6) . . .
89(5) . . .
114(6) . . .
110(5) . . .
98(5) . . .
106(6) . . .
116(6) . . .
121(6) . . .
109(5) . . .
109(6) . . .
112(6) . . .
99(5) . . .
120(6) . . .
107(5) . . .
95(5) . . .
106(6) . . .
117(6) . . .
108(5) . . .
106(5) . . .
108(6) . . .
105(6) . . .
98(5) . . .
103(5) . . .
118(6) . . .
113(6) . . .
105(6) . . .
101(5) . . .
94(5) . . .
115(6) . . .
108(6) . . .
104(5) . . .
124(6) . . .
111(6) . . .
129(6) . . .
129(6) . . .
107(5) . . .
118(6) . . .
98(5) . . .
99(5) . . .
117(6) . . .
109(6) . . .
105(5) . . .
110(5) . . .
119(6) . . .
107(5) . . .
127(6) . . .
100(5) . . .
97(5) . . .
94(5) . . .
107(6) . . .
111(6) . . .
107(5) . . .
121(6) . . .
102(5) . . .
96(5) . . .
95(5) . . .
98(5) . . .
111(5) . . .
116(6) . . .
103(5) . . .
103(5) . . .
99(5) . . .
102(5) . . .
110(6) . . .
115(6) . . .
102(5) . . .
89(5) . . .
97(5) . . .
104(5) . . .
116(6) . . .
102(5) . . .
98(5) . . .
92(5) . . .
111(6) . . .
96(5) . . .
108(6) . . .
113(5) . . .
109(5) . . .
108(5) . . .
109(6) . . .
113(6) . . .
98(5) . . .
102(5) . . .
90(5) . . .
102(6) . . .
96(5) . . .
104(5) . . .
115(6) . . .
105(5) . . .
102(6) . . .
106(5) . . .
112(5) . . .
117(6) . . .
94(5) . . .
93(5) . . .
110(6) . . .
97(5) . . .
97(5) . . .
103(5) . . .
108(6) . . .
96(5) . . .
109(5) . . .
88(5) . . .
105(6) . . .
100(5) . . .
101(5) . . .
103(5) . . .
100(5) . . .
104(6) . . .
101(5) . . .
116(6) . . .
116(6) . . .
108(6) . . .
108(6) . . .
108(6) . . .
116(6) . . .
112(6) . . .
98(5) . . .
107(6) . . .
110(6) . . .
94(5) . . .
93(5) . . .
103(5) . . .
101(6) . . .
115(6) . . .
105(5) . . .
87(5) . . .
102(6) . . .
104(6) . . .
93(5) . . .
99(5) . . .
100(5) . . .
108(6) . . .
119(6) . . .
105(6) . . .
93(5) . . .
89(5) . . .
105(6) . . .
117(6) . . .
100(5) . . .
92(5) . . .
95(5) . . .
102(6) . . .
96(5) . . .
102(5) . . .
105(5) . . .
96(5) . . .
100(5) . . .
103(6) . . .
103(5) . . .
98(5) . . .
108(6) . . .
113(6) . . .
102(5) . . .
112(6) . . .
98(5) . . .
113(6) . . .
110(6) . . .
100(5) . . .
104(5) . . .
101(5) . . .
108(6) . . .
96(5) . . .
104(6) . . .
104(5) . . .
110(6) . . .
97(5) . . .
97(5) . . .
99(5) . . .
92(5) . . .
105(5) . . .
118(6) . . .
98(6) . . .
96(5) . . .
108(5) . . .
110(6) . . .
98(5) . . .
91(5) . . .
94(5) . . .
100(5) . . .
108(6) . . .
96(5) . . .
118(6) . . .
102(5) . . .
109(5) . . .
109(6) . . .
111(6) . . .
113(6) . . .
103(6) . . .
107(5) . . .
110(6) . . .
106(6) . . .
94(5) . . .
102(5) . . .
95(5) . . .
106(5) . . .
98(6) . . .
89(5) . . .
98(5) . . .
102(5) . . .
96(5) . . .
99(5) . . .
104(6) . . .
100(5) . . .
96(5) . . .
111(6) . . .
93(5) . . .
108(6) . . .
110(5) . . .
98(5) . . .
103(5) . . .
113(6) . . .
91(5) . . .
97(5) . . .
105(5) . . .
83(5) . . .
91(5) . . .
109(6) . . .
98(5) . . .
87(5) . . .
96(5) . . .
110(6) . . .
104(5) . . .
97(5) . . .
103(5) . . .
97(6) . . .
95(5) . . .
86(5) . . .
93(5) . . .
85(5) . . .
99(5) . . .
100(5) . . .
110(6) . . .
100(5) . . .
97(5) . . .
96(5) . . .
101(5) . . .
106(6) . . .
117(6) . . .
110(5) . . .
113(6) . . .
99(5) . . .
94(5) . . .
91(5) . . .
99(5) . . .
103(5) . . .
109(6) . . .
106(5) . . .
110(5) . . .
104(6) . . .
89(5) . . .
96(5) . . .
89(5) . . .
106(5) . . .
108(5) . . .
95(5) . . .
98(5) . . .
98(5) . . .
119(6) . . .
115(6) . . .
88(5) . . .
98(5) . . .
100(5) . . .
106(5) . . .
86(5) . . .
95(6) . . .
100(5) . . .
110(5) . . .
102(5) . . .
101(5) . . .
109(6) . . .
97(5) . . .
93(5) . . .
96(5) . . .
102(6) . . .
105(6) . . .
109(6) . . .
105(5) . . .
97(5) . . .
100(5) . . .
88(5) . . .
107(6) . . .
97(5) . . .
112(6) . . .
114(6) . . .
98(5) . . .
106(6) . . .
102(5) . . .
102(5) . . .
105(6) . . .
100(6) . . .
96(5) . . .
95(5) . . .
103(5) . . .
114(6) . . .
96(5) . . .
98(5) . . .
95(5) . . .
93(5) . . .
89(5) . . .
115(6) . . .
103(5) . . .
106(5) . . .
95(5) . . .
88(5) . . .
103(5) . . .
105(5) . . .
118(6) . . .
103(5) . . .
109(6) . . .
106(5) . . .
95(5) . . .
101(5) . . .
99(5) . . .
103(6) . . .
92(5) . . .
103(5) . . .
122(6) . . .
114(6) . . .
97(6) . . .
96(5) . . .
103(5) . . .
103(5) . . .
98(5) . . .
107(6) . . .
110(6) . . .
104(5) . . .
96(5) . . .
104(5) . . .
97(5) . . .
99(5) . . .
104(5) . . .
104(5) . . .
90(5) . . .
98(6) . . .
94(5) . . .
97(5) . . .
100(5) . . .
96(5) . . .
104(5) . . .
101(5) . . .
91(5) . . .
95(5) . . .
100(5) . . .
100(5) . . .
106(5) . . .
108(5) . . .
111(6) . . .
99(5) . . .
98(5) . . .
102(5) . . .
103(5) . . .
106(6) . . .
92(5) . . .
107(5) . . .
101(5) . . .
87(5) . . .
95(5) . . .
97(5) . . .
89(5) . . .
101(5) . . .
106(5) . . .
92(5) . . .
92(5) . . .
110(6) . . .
101(5) . . .
90(5) . . .
94(5) . . .
107(6) . . .
96(5) . . .
104(5) . . .
104(5) . . .
103(6) . . .
114(6) . . .
113(6) . . .
97(5) . . .
94(5) . . .
102(5) . . .
102(6) . . .
111(6) . . .
113(5) . . .
107(5) . . .
95(5) . . .
103(6) . . .
96(5) . . .
96(5) . . .
98(5) . . .
116(6) . . .
111(6) . . .
103(5) . . .
101(5) . . .
97(5) . . .
99(5) . . .
117(6) . . .
109(6) . . .
97(5) . . .
106(5) . . .
100(5) . . .
95(5) . . .
101(5) . . .
94(5) . . .
95(5) . . .
95(5) . . .
87(5) . . .
91(5) . . .
102(5) . . .
105(5) . . .
112(6) . . .
102(5) . . .
103(5) . . .
106(5) . . .
96(5) . . .
89(5) . . .
100(6) . . .
110(5) . . .
98(5) . . .
91(5) . . .
101(6) . . .
107(6) . . .
109(6) . . .
93(5) . . .
98(5) . . .
99(6) . . .
108(6) . . .
89(5) . . .
99(5) . . .
104(6) . . .
89(5) . . .
84(5) . . .
89(5) . . .
98(5) . . .
86(5) . . .
101(6) . . .
86(5) . . .
83(5) . . .
86(5) . . .
90(5) . . .
92(5) . . .
85(5) . . .
102(5) . . .
97(5) . . .
94(5) . . .
98(5) . . .
93(5) . . .
89(5) . . .
93(5) . . .
84(5) . . .
106(5) . . .
95(5) . . .
103(5) . . .
88(5) . . .
91(5) . . .
88(5) . . .
97(5) . . .
104(5) . . .
89(5) . . .
98(5) . . .
98(5) . . .
104(5) . . .
114(6) . . .
104(6) . . .
100(6) . . .
106(5) . . .
110(5) . . .
92(5) . . .
111(6) . . .
96(5) . . .
105(6) . . .
95(5) . . .
92(5) . . .
78(5) . . .
100(6) . . .
112(6) . . .
104(5) . . .
94(5) . . .
97(5) . . .
111(6) . . .
106(6) . . .
92(5) . . .
98(5) . . .
97(5) . . .
97(5) . . .
98(5) . . .
121(6) . . .
98(5) . . .
107(6) . . .
119(6) . . .
96(5) . . .
102(5) . . .
96(5) . . .
109(6) . . .
104(6) . . .
95(5) . . .
98(5) . . .
81(5) . . .
91(5) . . .
86(5) . . .
89(5) . . .
92(5) . . .
107(5) . . .
95(5) . . .
95(5) . . .
91(5) . . .
97(5) . . .
107(6) . . .
105(6) . . .
92(5) . . .
86(5) . . .
91(5) . . .
108(6) . . .
96(5) . . .
109(6) . . .
99(5) . . .
98(5) . . .
101(5) . . .
106(6) . . .
89(5) . . .
101(5) . . .
100(5) . . .
92(5) . . .
99(5) . . .
107(6) . . .
99(5) . . .
111(6) . . .
108(5) . . .
102(5) . . .
107(6) . . .
107(5) . . .
110(5) . . .
114(6) . . .
106(6) . . .
99(6) . . .
100(5) . . .
102(5) . . .
99(5) . . .
96(5) . . .
96(5) . . .
92(5) . . .
100(5) . . .
104(6) . . .
101(5) . . .
93(5) . . .
90(5) . . .
100(5) . . .
99(5) . . .
102(5) . . .
100(5) . . .
92(5) . . .
94(5) . . .
90(5) . . .
107(6) . . .
98(5) . . .
99(5) . . .
102(5) . . .
105(6) . . .
102(5) . . .
103(5) . . .
95(5) . . .
99(5) . . .
88(5) . . .
96(5) . . .
120(6) . . .
103(5) . . .
96(5) . . .
106(6) . . .
104(5) . . .
111(5) . . .
97(5) . . .
93(5) . . .
99(6) . . .
96(5) . . .
81(5) . . .
101(5) . . .
104(5) . . .
107(6) . . .
82(5) . . .
92(5) . . .
98(5) . . .
102(5) . . .
91(5) . . .
98(5) . . .
107(5) . . .
108(6) . . .
92(5) . . .
95(5) . . .
95(5) . . .
109(6) . . .
101(5) . . .
106(6) . . .
111(6) . . .
91(5) . . .
96(5) . . .
101(5) . . .
98(5) . . .
93(5) . . .
105(5) . . .
95(5) . . .
93(5) . . .
108(6) . . .
101(5) . . .
100(5) . . .
94(5) . . .
88(5) . . .
93(5) . . .
90(5) . . .
102(5) . . .
102(5) . . .
95(5) . . .
92(5) . . .
102(5) . . .
111(5) . . .
113(6) . . .
101(6) . . .
83(5) . . .
97(5) . . .
91(5) . . .
96(5) . . .
103(6) . . .
90(5) . . .
91(5) . . .
102(5) . . .
98(5) . . .
91(5) . . .
97(5) . . .
93(5) . . .
102(5) . . .
93(5) . . .
108(6) . . .
89(5) . . .
91(5) . . .
104(5) . . .
97(5) . . .
113(6) . . .
100(5) . . .
98(5) . . .
102(5) . . .
97(5) . . .
83(5) . . .
80(5) . . .
80(5) . . .
91(5) . . .
100(5) . . .
88(5) . . .
103(6) . . .
95(5) . . .
99(5) . . .
99(5) . . .
97(5) . . .
92(5) . . .
74(4) . . .
95(5) . . .
104(5) . . .
109(6) . . .
92(5) . . .
99(5) . . .
98(5) . . .
94(5) . . .
104(6) . . .
100(5) . . .
89(5) . . .
91(5) . . .
94(5) . . .
97(5) . . .
102(5) . . .
105(5) . . .
102(5) . . .
105(6) . . .
95(5) . . .
103(5) . . .
90(5) . . .
87(5) . . .
96(5) . . .
94(5) . . .
92(5) . . .
83(5) . . .
86(5) . . .
95(5) . . .
102(6) . . .
94(5) . . .
99(5) . . .
97(5) . . .
91(5) . . .
92(6) . . .
99(6) . . .
104(5) . . .
97(5) . . .
90(5) . . .
95(5) . . .
93(5) . . .
110(5) . . .
101(5) . . .
106(5) . . .
99(5) . . .
94(5) . . .
82(5) . . .
98(5) . . .
95(5) . . .
94(5) . . .
82(5) . . .
83(5) . . .
104(6) . . .
92(5) . . .
89(5) . . .
101(5) . . .
101(5) . . .
104(6) . . .
89(5) . . .
100(5) . . .
100(5) . . .
96(5) . . .
96(5) . . .
107(6) . . .
102(5) . . .
77(5) . . .
96(5) . . .
105(6) . . .
105(6) . . .
98(5) . . .
114(6) . . .
90(5) . . .
95(5) . . .
110(6) . . .
112(6) . . .
84(5) . . .
97(5) . . .
94(5) . . .
93(5) . . .
90(5) . . .
87(5) . . .
99(5) . . .
98(5) . . .
99(6) . . .
92(5) . . .
106(5) . . .
104(5) . . .
100(5) . . .
102(6) . . .
98(5) . . .
97(5) . . .
99(5) . . .
96(5) . . .
86(5) . . .
93(5) . . .
107(5) . . .
102(5) . . .
98(5) . . .
99(5) . . .
86(5) . . .
95(5) . . .
95(5) . . .
91(5) . . .
94(5) . . .
92(5) . . .
101(5) . . .
97(5) . . .
98(5) . . .
91(5) . . .
96(5) . . .
109(6) . . .
109(6) . . .
110(6) . . .
96(5) . . .
86(5) . . .
96(5) . . .
105(6) . . .
96(5) . . .
105(5) . . .
105(5) . . .
100(5) . . .
100(5) . . .
95(6) . . .
102(5) . . .
95(5) . . .
98(5) . . .
91(5) . . .
87(5) . . .
110(6) . . .
89(5) . . .
99(5) . . .
95(5) . . .
105(6) . . .
91(5) . . .
87(5) . . .
102(5) . . .
88(5) . . .
100(5) . . .
88(5) . . .
94(5) . . .
104(5) . . .
94(5) . . .
92(5) . . .
83(5) . . .
93(5) . . .
101(6) . . .
95(5) . . .
92(5) . . .
86(5) . . .
105(5) . . .
92(5) . . .
96(5) . . .
107(6) . . .
74(4) . . .
98(5) . . .
96(5) . . .
103(6) . . .
87(5) . . .
98(5) . . .
95(5) . . .
95(5) . . .
95(5) . . .
104(6) . . .
100(5) . . .
97(5) . . .
90(5) . . .
105(6) . . .
100(5) . . .
96(5) . . .
105(5) . . .
105(5) . . .
105(6) . . .
90(5) . . .
91(5) . . .
99(5) . . .
111(6) . . .
99(6) . . .
109(6) . . .
102(5) . . .
98(5) . . .
92(5) . . .
96(6) . . .
78(5) . . .
90(5) . . .
87(5) . . .
94(5) . . .
93(5) . . .
98(5) . . .
96(5) . . .
102(6) . . .
96(5) . . .
98(5) . . .
87(5) . . .
98(5) . . .
109(6) . . .
101(5) . . .
112(6) . . .
92(5) . . .
102(5) . . .
113(6) . . .
103(6) . . .
101(6) . . .
101(5) . . .
89(5) . . .
96(5) . . .
90(5) . . .
93(5) . . .
89(5) . . .
106(5) . . .
98(5) . . .
109(6) . . .
92(5) . . .
103(5) . . .
95(5) . . .
94(5) . . .
101(6) . . .
95(5) . . .
100(5) . . .
107(5) . . .
104(6) . . .
88(5) . . .
103(5) . . .
90(5) . . .
87(5) . . .
85(5) . . .
97(5) . . .
88(5) . . .
92(5) . . .
89(5) . . .
92(5) . . .
107(6) . . .
97(5) . . .
103(5) . . .
87(5) . . .
99(5) . . .
87(5) . . .
98(5) . . .
115(6) . . .
96(5) . . .
103(5) . . .
98(5) . . .
95(5) . . .
96(5) . . .
93(5) . . .
95(5) . . .
93(5) . . .
88(5) . . .
102(5) . . .
95(5) . . .
100(5) . . .
84(5) . . .
98(5) . . .
101(5) . . .
102(5) . . .
94(5) . . .
92(5) . . .
99(5) . . .
89(5) . . .
99(5) . . .
99(6) . . .
100(5) . . .
88(5) . . .
102(5) . . .
98(5) . . .
99(6) . . .
97(5) . . .
103(5) . . .
101(5) . . .
89(5) . . .
96(5) . . .
101(5) . . .
87(5) . . .
98(5) . . .
85(5) . . .
89(5) . . .
100(5) . . .
89(5) . . .
98(5) . . .
97(6) . . .
81(5) . . .
98(5) . . .
106(5) . . .
96(5) . . .
94(5) . . .
90(5) . . .
92(5) . . .
92(5) . . .
82(5) . . .
75(5) . . .
86(5) . . .
86(5) . . .
102(5) . . .
99(5) . . .
108(6) . . .
109(6) . . .
89(5) . . .
104(5) . . .
95(5) . . .
107(6) . . .
105(5) . . .
100(5) . . .
109(5) . . .
86(5) . . .
108(6) . . .
90(5) . . .
84(5) . . .
94(5) . . .
95(5) . . .
107(6) . . .
88(5) . . .
95(5) . . .
109(5) . . .
106(6) . . .
90(5) . . .
89(5) . . .
91(5) . . .
97(5) . . .
91(5) . . .
96(6) . . .
98(5) . . .
97(5) . . .
84(5) . . .
90(5) . . .
84(5) . . .
97(5) . . .
91(5) . . .
99(5) . . .
98(5) . . .
94(5) . . .
95(5) . . .
96(5) . . .
92(5) . . .
88(5) . . .
102(6) . . .
89(5) . . .
80(5) . . .
88(5) . . .
98(5) . . .
97(5) . . .
94(5) . . .
95(5) . . .
100(5) . . .
99(5) . . .
89(5) . . .
102(5) . . .
99(5) . . .
92(5) . . .
84(5) . . .
94(5) . . .
103(5) . . .
115(6) . . .
92(5) . . .
100(5) . . .
114(6) . . .
102(5) . . .
100(5) . . .
83(5) . . .
87(5) . . .
93(5) . . .
100(5) . . .
96(5) . . .
98(5) . . .
93(5) . . .
100(5) . . .
96(5) . . .
95(5) . . .
100(5) . . .
86(5) . . .
88(5) . . .
83(5) . . .
94(5) . . .
84(5) . . .
92(5) . . .
96(5) . . .
84(5) . . .
106(5) . . .
87(5) . . .
101(6) . . .
104(6) . . .
104(5) . . .
90(5) . . .
97(5) . . .
105(6) . . .
110(6) . . .
91(5) . . .
96(5) . . .
91(5) . . .
79(5) . . .
94(5) . . .
100(5) . . .
96(5) . . .
87(5) . . .
89(5) . . .
94(5) . . .
93(5) . . .
98(5) . . .
89(5) . . .
89(5) . . .
93(5) . . .
105(5) . . .
83(5) . . .
94(5) . . .
98(5) . . .
98(5) . . .
77(5) . . .
76(5) . . .
87(5) . . .
89(5) . . .
102(5) . . .
98(5) . . .
90(5) . . .
99(5) . . .
103(5) . . .
95(5) . . .
101(5) . . .
89(5) . . .
81(5) . . .
89(5) . . .
104(5) . . .
86(5) . . .
94(5) . . .
88(5) . . .
84(5) . . .
101(5) . . .
111(6) . . .
95(5) . . .
94(5) . . .
89(5) . . .
92(5) . . .
87(5) . . .
86(5) . . .
93(5) . . .
96(5) . . .
93(5) . . .
95(5) . . .
109(6) . . .
101(6) . . .
86(5) . . .
82(5) . . .
80(5) . . .
105(6) . . .
106(6) . . .
104(6) . . .
93(5) . . .
97(5) . . .
97(5) . . .
93(5) . . .
92(5) . . .
97(5) . . .
92(5) . . .
95(5) . . .
77(5) . . .
95(5) . . .
89(5) . . .
92(5) . . .
90(5) . . .
90(5) . . .
85(5) . . .
119(6) . . .
102(5) . . .
100(5) . . .
89(5) . . .
85(5) . . .
86(5) . . .
93(5) . . .
94(5) . . .
93(5) . . .
102(5) . . .
102(5) . . .
91(5) . . .
83(5) . . .
92(5) . . .
99(5) . . .
90(5) . . .
84(5) . . .
97(6) . . .
97(5) . . .
97(5) . . .
95(5) . . .
94(5) . . .
97(6) . . .
102(6) . . .
105(5) . . .
88(5) . . .
94(5) . . .
90(5) . . .
88(5) . . .
97(5) . . .
81(5) . . .
99(5) . . .
98(5) . . .
86(5) . . .
93(5) . . .
109(6) . . .
101(6) . . .
104(6) . . .
101(6) . . .
95(5) . . .
97(5) . . .
101(5) . . .
93(5) . . .
83(5) . . .
86(5) . . .
78(5) . . .
96(5) . . .
92(5) . . .
104(5) . . .
114(6) . . .
94(5) . . .
96(5) . . .
94(5) . . .
94(5) . . .
89(5) . . .
90(5) . . .
97(5) . . .
100(5) . . .
96(5) . . .
95(5) . . .
92(5) . . .
84(5) . . .
79(5) . . .
104(5) . . .
96(5) . . .
96(5) . . .
87(5) . . .
89(5) . . .
95(5) . . .
89(5) . . .
101(5) . . .
94(5) . . .
96(6) . . .
88(5) . . .
86(5) . . .
89(5) . . .
78(5) . . .
82(5) . . .
99(5) . . .
104(5) . . .
100(5) . . .
88(5) . . .
83(5) . . .
93(5) . . .
91(5) . . .
88(5) . . .
84(5) . . .
93(5) . . .
91(5) . . .
106(6) . . .
85(5) . . .
101(6) . . .
87(5) . . .
91(5) . . .
98(5) . . .
89(5) . . .
98(5) . . .
97(5) . . .
97(5) . . .
84(5) . . .
102(6) . . .
112(6) . . .
114(6) . . .
102(5) . . .
92(5) . . .
86(5) . . .
95(6) . . .
92(5) . . .
96(5) . . .
102(5) . . .
98(5) . . .
86(5) . . .
102(5) . . .
79(5) . . .
92(5) . . .
96(5) . . .
86(5) . . .
80(5) . . .
91(5) . . .
78(5) . . .
85(5) . . .
90(5) . . .
103(5) . . .
95(5) . . .
104(5) . . .
95(5) . . .
104(6) . . .
95(5) . . .
100(5) . . .
88(5) . . .
94(5) . . .
96(5) . . .
100(5) . . .
92(5) . . .
95(5) . . .
85(5) . . .
97(5) . . .
96(5) . . .
95(5) . . .
100(6) . . .
98(6) . . .
87(5) . . .
97(5) . . .
90(5) . . .
98(5) . . .
95(5) . . .
102(5) . . .
110(5) . . .
88(5) . . .
91(5) . . .
88(5) . . .
101(5) . . .
96(5) . . .
95(5) . . .
99(5) . . .
97(5) . . .
86(5) . . .
81(5) . . .
91(5) . . .
96(5) . . .
97(5) . . .
93(5) . . .
91(5) . . .
95(5) . . .
89(5) . . .
89(5) . . .
94(5) . . .
109(6) . . .
97(5) . . .
93(6) . . .
97(5) . . .
95(5) . . .
93(5) . . .
106(5) . . .
97(5) . . .
94(5) . . .
92(5) . . .
88(5) . . .
96(5) . . .
95(5) . . .
97(6) . . .
87(5) . . .
96(5) . . .
95(5) . . .
97(5) . . .
86(5) . . .
89(5) . . .
80(5) . . .
91(5) . . .
96(5) . . .
95(5) . . .
88(5) . . .
92(5) . . .
78(5) . . .
100(6) . . .
95(5) . . .
91(5) . . .
90(5) . . .
69(5) . . .
85(5) . . .
89(5) . . .
90(5) . . .
84(5) . . .
95(5) . . .
103(6) . . .
99(5) . . .
90(5) . . .
85(5) . . .
90(5) . . .
83(5) . . .
91(5) . . .
83(5) . . .
86(5) . . .
91(5) . . .
78(5) . . .
96(5) . . .
94(5) . . .
107(5) . . .
111(6) . . .
92(5) . . .
78(5) . . .
82(5) . . .
81(5) . . .
96(5) . . .
94(5) . . .
76(5) . . .
88(5) . . .
91(5) . . .
88(5) . . .
86(5) . . .
91(5) . . .
95(5) . . .
88(5) . . .
88(5) . . .
102(6) . . .
89(5) . . .
95(5) . . .
101(6) . . .
114(6) . . .
103(5) . . .
93(5) . . .
86(5) . . .
91(5) . . .
99(5) . . .
88(5) . . .
89(5) . . .
98(5) . . .
111(6) . . .
94(5) . . .
96(5) . . .
84(5) . . .
90(5) . . .
91(5) . . .
89(5) . . .
95(5) . . .
86(5) . . .
104(6) . . .
88(5) . . .
91(5) . . .
77(5) . . .
90(5) . . .
87(5) . . .
90(5) . . .
91(5) . . .
90(5) . . .
98(5) . . .
98(5) . . .
95(5) . . .
79(5) . . .
78(5) . . .
84(5) . . .
97(5) . . .
85(5) . . .
83(5) . . .
88(5) . . .
94(5) . . .
94(5) . . .
84(5) . . .
87(5) . . .
81(5) . . .
86(5) . . .
85(5) . . .
85(5) . . .
95(5) . . .
94(5) . . .
92(5) . . .
96(5) . . .
101(6) . . .
79(5) . . .
103(5) . . .
97(5) . . .
94(5) . . .
91(5) . . .
98(5) . . .
88(5) . . .
87(5) . . .
87(5) . . .
87(5) . . .
90(5) . . .
88(5) . . .
97(5) . . .
89(5) . . .
96(5) . . .
102(5) . . .
93(5) . . .
98(5) . . .
87(5) . . .
79(5) . . .
99(5) . . .
99(5) . . .
104(6) . . .
94(5) . . .
84(5) . . .
104(5) . . .
87(5) . . .
102(6) . . .
94(5) . . .
93(5) . . .
73(4) . . .
96(5) . . .
92(5) . . .
92(5) . . .
87(5) . . .
90(5) . . .
86(5) . . .
86(5) . . .
94(6) . . .
78(5) . . .
75(4) . . .
92(5) . . .
104(6) . . .
94(5) . . .
105(6) . . .
92(5) . . .
100(5) . . .
102(6) . . .
74(5) . . .
80(5) . . .
88(5) . . .
92(5) . . .
89(5) . . .
107(6) . . .
86(5) . . .
85(5) . . .
98(5) . . .
99(5) . . .
86(5) . . .
91(5) . . .
88(5) . . .
89(5) . . .
78(5) . . .
91(5) . . .
79(5) . . .
77(5) . . .
90(5) . . .
90(5) . . .
89(5) . . .
96(5) . . .
84(5) . . .
101(6) . . .
91(5) . . .
105(5) . . .
97(5) . . .
92(5) . . .
86(5) . . .
91(5) . . .
85(5) . . .
89(5) . . .
94(5) . . .
84(5) . . .
103(6) . . .
89(5) . . .
90(5) . . .
89(5) . . .
94(5) . . .
91(5) . . .
88(5) . . .
87(5) . . .
87(5) . . .
91(5) . . .
86(5) . . .
83(5) . . .
75(4) . . .
101(5) . . .
88(5) . . .
100(6) . . .
93(5) . . .
92(5) . . .
95(5) . . .
96(5) . . .
88(5) . . .
107(6) . . .
92(5) . . .
82(5) . . .
97(5) . . .
80(5) . . .
88(5) . . .
92(5) . . .
99(5) . . .
93(5) . . .
85(5) . . .
89(5) . . .
88(5) . . .
84(5) . . .
103(6) . . .
100(5) . . .
85(5) . . .
106(5) . . .
108(6) . . .
91(5) . . .
104(6) . . .
93(5) . . .
95(5) . . .
105(6) . . .
93(5) . . .
88(5) . . .
90(5) . . .
95(5) . . .
89(5) . . .
92(5) . . .
98(5) . . .
85(5) . . .
91(5) . . .
102(5) . . .
88(5) . . .
87(5) . . .
91(5) . . .
92(5) . . .
87(5) . . .
88(5) . . .
94(5) . . .
83(5) . . .
106(5) . . .
94(5) . . .
86(5) . . .
82(5) . . .
86(5) . . .
95(5) . . .
77(5) . . .
97(6) . . .
88(5) . . .
88(5) . . .
89(5) . . .
82(5) . . .
90(5) . . .
91(5) . . .
76(5) . . .
105(5) . . .
97(5) . . .
79(5) . . .
89(5) . . .
89(5) . . .
98(5) . . .
84(5) . . .
96(5) . . .
89(5) . . .
98(5) . . .
102(6) . . .
86(5) . . .
92(5) . . .
91(5) . . .
86(5) . . .
91(5) . . .
89(5) . . .
83(5) . . .
90(5) . . .
88(5) . . .
100(5) . . .
94(5) . . .
88(5) . . .
99(5) . . .
86(5) . . .
93(5) . . .
86(5) . . .
92(5) . . .
81(5) . . .
82(5) . . .
96(5) . . .
80(5) . . .
104(6) . . .
82(5) . . .
88(5) . . .
94(5) . . .
86(5) . . .
83(5) . . .
94(5) . . .
90(5) . . .
99(5) . . .
81(5) . . .
65(4) . . .
87(5) . . .
84(5) . . .
101(5) . . .
98(5) . . .
90(5) . . .
89(5) . . .
82(5) . . .
86(5) . . .
90(5) . . .
90(5) . . .
101(5) . . .
80(5) . . .
86(5) . . .
88(5) . . .
92(5) . . .
71(4) . . .
99(6) . . .
91(5) . . .
102(5) . . .
93(5) . . .
79(5) . . .
96(5) . . .
97(5) . . .
92(5) . . .
96(5) . . .
106(5) . . .
80(5) . . .
98(6) . . .
82(5) . . .
89(5) . . .
112(5) . . .
88(5) . . .
92(5) . . .
106(6) . . .
84(5) . . .
83(5) . . .
92(5) . . .
82(5) . . .
101(5) . . .
112(6) . . .
67(4) . . .
87(5) . . .
88(5) . . .
91(5) . . .
87(5) . . .
92(5) . . .
97(5) . . .
84(5) . . .
86(5) . . .
89(5) . . .
96(5) . . .
97(5) . . .
91(5) . . .
82(5) . . .
93(5) . . .
88(5) . . .
94(5) . . .
79(5) . . .
92(5) . . .
106(5) . . .
79(5) . . .
82(5) . . .
86(5) . . .
88(5) . . .
82(5) . . .
79(5) . . .
87(5) . . .
82(5) . . .
86(5) . . .
83(5) . . .
78(5) . . .
84(5) . . .
96(5) . . .
93(5) . . .
82(5) . . .
96(5) . . .
96(5) . . .
88(5) . . .
99(5) . . .
70(4) . . .
104(6) . . .
94(5) . . .
96(5) . . .
88(5) . . .
79(5) . . .
90(5) . . .
79(5) . . .
92(5) . . .
85(5) . . .
87(5) . . .
77(5) . . .
90(5) . . .
96(5) . . .
91(5) . . .
79(5) . . .
82(5) . . .
102(5) . . .
83(5) . . .
76(5) . . .
82(5) . . .
85(5) . . .
90(5) . . .
90(5) . . .
90(5) . . .
87(5) . . .
76(5) . . .
83(5) . . .
85(5) . . .
84(5) . . .
86(5) . . .
82(5) . . .
84(5) . . .
91(5) . . .
91(5) . . .
102(5) . . .
87(5) . . .
88(5) . . .
89(5) . . .
90(5) . . .
76(5) . . .
92(5) . . .
88(5) . . .
80(5) . . .
89(5) . . .
88(5) . . .
84(5) . . .
100(5) . . .
86(5) . . .
87(5) . . .
86(5) . . .
82(5) . . .
87(5) . . .
99(5) . . .
85(5) . . .
91(5) . . .
85(5) . . .
80(5) . . .
97(5) . . .
76(5) . . .
74(5) . . .
79(5) . . .
88(5) . . .
83(5) . . .
98(5) . . .
95(5) . . .
79(5) . . .
81(5) . . .
88(5) . . .
105(5) . . .
92(5) . . .
85(5) . . .
93(5) . . .
94(5) . . .
92(5) . . .
92(5) . . .
84(5) . . .
95(5) . . .
79(5) . . .
74(5) . . .
84(5) . . .
85(5) . . .
86(5) . . .
86(5) . . .
77(5) . . .
91(5) . . .
82(5) . . .
95(5) . . .
87(5) . . .
75(5) . . .
101(6) . . .
91(5) . . .
88(5) . . .
85(5) . . .
87(5) . . .
92(5) . . .
77(5) . . .
87(5) . . .
77(5) . . .
73(5) . . .
71(5) . . .
83(5) . . .
96(5) . . .
88(5) . . .
78(5) . . .
89(5) . . .
84(5) . . .
84(5) . . .
81(5) . . .
87(5) . . .
83(5) . . .
90(5) . . .
87(5) . . .
91(5) . . .
91(5) . . .
89(5) . . .
85(5) . . .
86(5) . . .
83(5) . . .
86(5) . . .
79(5) . . .
90(5) . . .
88(5) . . .
92(5) . . .
101(6) . . .
84(5) . . .
89(5) . . .
91(5) . . .
87(5) . . .
86(5) . . .
87(5) . . .
80(5) . . .
78(5) . . .
84(5) . . .
92(5) . . .
92(5) . . .
89(5) . . .
85(5) . . .
79(5) . . .
92(5) . . .
82(5) . . .
95(5) . . .
97(5) . . .
98(5) . . .
98(6) . . .
77(5) . . .
87(5) . . .
87(5) . . .
77(5) . . .
82(5) . . .
97(5) . . .
96(5) . . .
71(4) . . .
83(5) . . .
95(6) . . .
109(6) . . .
93(5) . . .
91(5) . . .
82(5) . . .
97(6) . . .
89(5) . . .
92(5) . . .
102(5) . . .
89(5) . . .
94(5) . . .
87(5) . . .
98(5) . . .
76(5) . . .
68(4) . . .
83(5) . . .
93(5) . . .
93(5) . . .
83(5) . . .
81(5) . . .
76(5) . . .
84(5) . . .
103(5) . . .
83(5) . . .
91(5) . . .
87(5) . . .
90(5) . . .
83(5) . . .
89(5) . . .
80(5) . . .
80(5) . . .
95(5) . . .
72(4) . . .
81(5) . . .
86(5) . . .
81(5) . . .
85(5) . . .
77(5) . . .
82(5) . . .
94(5) . . .
85(5) . . .
82(5) . . .
76(5) . . .
84(5) . . .
82(5) . . .
89(5) . . .
96(5) . . .
99(5) . . .
78(5) . . .
82(5) . . .
82(5) . . .
90(5) . . .
93(5) . . .
93(5) . . .
87(5) . . .
85(5) . . .
84(5) . . .
89(5) . . .
95(5) . . .
80(5) . . .
95(5) . . .
78(5) . . .
82(5) . . .
90(5) . . .
84(5) . . .
82(5) . . .
100(5) . . .
77(5) . . .
95(5) . . .
88(5) . . .
108(6) . . .
99(5) . . .
89(5) . . .
83(5) . . .
88(5) . . .
104(5) . . .
96(5) . . .
80(5) . . .
91(5) . . .
89(5) . . .
86(5) . . .
91(5) . . .
101(5) . . .
81(5) . . .
85(5) . . .
82(5) . . .
85(5) . . .
91(5) . . .
82(5) . . .
92(5) . . .
78(5) . . .
89(5) . . .
93(5) . . .
88(5) . . .
91(5) . . .
86(5) . . .
101(5) . . .
90(5) . . .
81(5) . . .
89(5) . . .
86(5) . . .
94(5) . . .
89(5) . . .
75(5) . . .
83(5) . . .
95(5) . . .
111(6) . . .
91(5) . . .
90(5) . . .
88(5) . . .
97(5) . . .
92(5) . . .
84(5) . . .
75(5) . . .
73(5) . . .
90(5) . . .
85(5) . . .
79(5) . . .
82(5) . . .
79(5) . . .
83(5) . . .
87(5) . . .
86(5) . . .
88(5) . . .
91(5) . . .
96(5) . . .
78(5) . . .
78(5) . . .
89(5) . . .
72(4) . . .
85(5) . . .
92(5) . . .
70(4) . . .
78(5) . . .
76(5) . . .
90(5) . . .
94(5) . . .
82(5) . . .
90(5) . . .
97(5) . . .
87(5) . . .
87(5) . . .
96(5) . . .
79(5) . . .
91(5) . . .
84(5) . . .
98(5) . . .
88(5) . . .
93(5) . . .
83(5) . . .
79(5) . . .
86(5) . . .
92(6) . . .
82(5) . . .
77(5) . . .
87(5) . . .
84(5) . . .
82(5) . . .
75(5) . . .
72(4) . . .
83(5) . . .
88(5) . . .
79(5) . . .
83(5) . . .
82(5) . . .
97(5) . . .
82(5) . . .
87(6) . . .
80(5) . . .
86(5) . . .
83(5) . . .
105(5) . . .
85(5) . . .
88(5) . . .
89(5) . . .
95(5) . . .
97(5) . . .
77(5) . . .
79(5) . . .
69(4) . . .
85(5) . . .
87(5) . . .
94(5) . . .
90(5) . . .
86(5) . . .
86(5) . . .
73(5) . . .
81(5) . . .
87(5) . . .
92(5) . . .
87(5) . . .
83(5) . . .
91(5) . . .
99(5) . . .
80(5) . . .
84(5) . . .
91(5) . . .
89(5) . . .
95(5) . . .
87(5) . . .
81(5) . . .
81(5) . . .
79(5) . . .
77(5) . . .
73(4) . . .
77(5) . . .
86(5) . . .
85(5) . . .
98(5) . . .
90(5) . . .
79(5) . . .
86(5) . . .
72(5) . . .
90(5) . . .
81(5) . . .
80(5) . . .
76(5) . . .
90(5) . . .
87(5) . . .
86(5) . . .
78(5) . . .
87(5) . . .
96(5) . . .
82(5) . . .
94(5) . . .
93(5) . . .
91(5) . . .
88(5) . . .
90(5) . . .
84(5) . . .
80(5) . . .
74(5) . . .
78(5) . . .
87(5) . . .
74(5) . . .
80(5) . . .
97(5) . . .
89(5) . . .
75(5) . . .
81(5) . . .
84(5) . . .
87(5) . . .
95(5) . . .
79(5) . . .
81(5) . . .
73(5) . . .
86(5) . . .
89(5) . . .
76(5) . . .
78(5) . . .
91(5) . . .
96(5) . . .
78(5) . . .
89(5) . . .
76(5) . . .
72(5) . . .
86(5) . . .
81(5) . . .
85(5) . . .
72(5) . . .
85(5) . . .
70(4) . . .
77(5) . . .
71(4) . . .
86(5) . . .
82(5) . . .
90(5) . . .
96(5) . . .
90(5) . . .
79(5) . . .
80(5) . . .
84(5) . . .
88(5) . . .
88(5) . . .
75(5) . . .
80(5) . . .
78(5) . . .
78(5) . . .
78(5) . . .
89(5) . . .
95(5) . . .
86(5) . . .
82(5) . . .
79(5) . . .
77(5) . . .
102(6) . . .
84(5) . . .
82(5) . . .
75(5) . . .
88(5) . . .
86(5) . . .
96(5) . . .
79(5) . . .
88(5) . . .
96(5) . . .
94(5) . . .
84(5) . . .
95(5) . . .
79(5) . . .
90(5) . . .
83(5) . . .
86(5) . . .
83(5) . . .
91(5) . . .
89(5) . . .
79(5) . . .
91(5) . . .
69(4) . . .
74(5) . . .
82(5) . . .
86(5) . . .
69(4) . . .
87(5) . . .
85(5) . . .
75(5) . . .
89(5) . . .
84(5) . . .
94(5) . . .
90(5) . . .
75(5) . . .
72(5) . . .
79(5) . . .
83(5) . . .
63(4) . . .
68(5) . . .
84(5) . . .
89(5) . . .
99(5) . . .
79(5) . . .
77(5) . . .
83(5) . . .
76(5) . . .
80(5) . . .
84(5) . . .
89(5) . . .
75(5) . . .
80(5) . . .
78(5) . . .
90(5) . . .
78(5) . . .
92(5) . . .
91(5) . . .
83(5) . . .
69(5) . . .
75(5) . . .
84(5) . . .
76(5) . . .
91(5) . . .
82(5) . . .
79(5) . . .
84(5) . . .
96(5) . . .
80(5) . . .
75(5) . . .
91(5) . . .
80(5) . . .
77(5) . . .
85(5) . . .
77(5) . . .
85(5) . . .
90(5) . . .
78(5) . . .
73(4) . . .
80(5) . . .
81(5) . . .
87(5) . . .
81(5) . . .
88(5) . . .
82(5) . . .
74(5) . . .
76(5) . . .
86(5) . . .
83(5) . . .
93(5) . . .
92(5) . . .
91(5) . . .
82(5) . . .
82(5) . . .
76(5) . . .
73(4) . . .
98(5) . . .
75(5) . . .
79(5) . . .
95(5) . . .
83(5) . . .
82(5) . . .
96(5) . . .
88(5) . . .
82(5) . . .
80(5) . . .
86(5) . . .
93(5) . . .
79(5) . . .
79(5) . . .
77(5) . . .
88(5) . . .
69(4) . . .
74(5) . . .
90(5) . . .
78(5) . . .
80(5) . . .
97(5) . . .
89(5) . . .
85(5) . . .
86(5) . . .
74(5) . . .
89(5) . . .
80(5) . . .
77(5) . . .
80(5) . . .
91(5) . . .
87(5) . . .
86(5) . . .
79(5) . . .
84(5) . . .
71(4) . . .
78(5) . . .
83(5) . . .
90(5) . . .
81(5) . . .
80(5) . . .
82(5) . . .
81(5) . . .
89(5) . . .
84(5) . . .
82(5) . . .
80(5) . . .
77(5) . . .
85(5) . . .
78(5) . . .
94(5) . . .
79(5) . . .
84(5) . . .
76(4) . . .
85(5) . . .
72(5) . . .
90(5) . . .
94(5) . . .
86(5) . . .
74(4) . . .
87(5) . . .
66(4) . . .
92(5) . . .
87(5) . . .
81(5) . . .
79(5) . . .
91(5) . . .
78(5) . . .
78(5) . . .
76(5) . . .
70(4) . . .
85(6) . . .
69(5) . . .
73(4) . . .
77(5) . . .
80(5) . . .
78(5) . . .
72(5) . . .
83(5) . . .
83(5) . . .
81(5) . . .
85(5) . . .
77(5) . . .
79(5) . . .
85(5) . . .
70(4) . . .
70(4) . . .
79(5) . . .
76(5) . . .
77(5) . . .
86(5) . . .
95(5) . . .
91(5) . . .
82(5) . . .
76(5) . . .
94(5) . . .
82(5) . . .
82(5) . . .
80(5) . . .
77(5) . . .
88(5) . . .
87(5) . . .
67(4) . . .
85(5) . . .
83(5) . . .
81(5) . . .
92(5) . . .
82(5) . . .
115(6) . . .
95(5) . . .
75(5) . . .
88(5) . . .
88(5) . . .
88(5) . . .
86(5) . . .
80(5) . . .
73(4) . . .
94(5) . . .
88(5) . . .
80(5) . . .
74(5) . . .
88(5) . . .
88(5) . . .
79(5) . . .
81(5) . . .
90(5) . . .
89(5) . . .
76(5) . . .
77(5) . . .
92(5) . . .
87(5) . . .
87(5) . . .
88(5) . . .
85(5) . . .
81(5) . . .
80(5) . . .
89(5) . . .
96(5) . . .
84(5) . . .
73(4) . . .
84(5) . . .
86(5) . . .
99(5) . . .
85(5) . . .
89(5) . . .
80(5) . . .
76(5) . . .
95(5) . . .
82(5) . . .
81(5) . . .
84(5) . . .
74(5) . . .
76(5) . . .
83(5) . . .
84(5) . . .
82(5) . . .
84(5) . . .
85(5) . . .
79(5) . . .
82(5) . . .
86(5) . . .
84(5) . . .
77(5) . . .
88(5) . . .
78(5) . . .
81(5) . . .
83(5) . . .
79(5) . . .
87(5) . . .
79(5) . . .
74(5) . . .
80(5) . . .
70(4) . . .
82(5) . . .
82(5) . . .
86(5) . . .
89(5) . . .
86(5) . . .
87(5) . . .
79(5) . . .
78(5) . . .
82(5) . . .
86(5) . . .
82(5) . . .
94(5) . . .
85(5) . . .
73(4) . . .
75(5) . . .
71(4) . . .
78(5) . . .
82(5) . . .
84(5) . . .
76(5) . . .
79(5) . . .
68(4) . . .
97(5) . . .
88(5) . . .
86(5) . . .
84(5) . . .
85(5) . . .
72(5) . . .
76(5) . . .
85(5) . . .
91(5) . . .
84(5) . . .
89(5) . . .
90(5) . . .
81(5) . . .
92(5) . . .
76(5) . . .
77(5) . . .
81(5) . . .
78(5) . . .
87(5) . . .
83(5) . . .
84(5) . . .
78(5) . . .
87(5) . . .
81(5) . . .
78(5) . . .
97(5) . . .
81(5) . . .
75(5) . . .
78(5) . . .
82(5) . . .
80(5) . . .
88(5) . . .
79(5) . . .
82(5) . . .
88(5) . . .
80(5) . . .
89(5) . . .
92(5) . . .
78(5) . . .
67(4) . . .
79(5) . . .
85(5) . . .
80(5) . . .
81(5) . . .
83(5) . . .
74(4) . . .
77(5) . . .
81(5) . . .
77(5) . . .
88(5) . . .
84(5) . . .
62(4) . . .
75(5) . . .
80(5) . . .
92(5) . . .
90(5) . . .
87(5) . . .
79(5) . . .
80(5) . . .
76(5) . . .
69(4) . . .
78(5) . . .
78(5) . . .
74(5) . . .
85(5) . . .
85(5) . . .
90(5) . . .
76(5) . . .
75(5) . . .
79(5) . . .
82(5) . . .
74(5) . . .
77(5) . . .
91(5) . . .
84(5) . . .
80(5) . . .
85(5) . . .
81(5) . . .
89(5) . . .
87(5) . . .
75(5) . . .
88(5) . . .
76(5) . . .
86(5) . . .
83(5) . . .
67(4) . . .
73(5) . . .
80(5) . . .
70(4) . . .
82(5) . . .
76(5) . . .
79(5) . . .
72(5) . . .
84(5) . . .
82(5) . . .
79(5) . . .
83(5) . . .
80(5) . . .
88(5) . . .
85(5) . . .
73(5) . . .
77(5) . . .
73(4) . . .
84(5) . . .
72(4) . . .
85(5) . . .
78(5) . . .
87(5) . . .
88(5) . . .
81(5) . . .
77(5) . . .
76(5) . . .
76(5) . . .
68(4) . . .
69(4) . . .
73(4) . . .
77(5) . . .
86(5) . . .
79(5) . . .
78(5) . . .
86(5) . . .
88(5) . . .
79(5) . . .
73(5) . . .
87(5) . . .
79(5) . . .
61(4) . . .
69(5) . . .
80(5) . . .
94(5) . . .
85(5) . . .
100(6) . . .
75(5) . . .
81(5) . . .
80(5) . . .
82(5) . . .
88(5) . . .
73(5) . . .
82(5) . . .
74(5) . . .
82(5) . . .
89(5) . . .
90(5) . . .
80(5) . . .
73(4) . . .
81(5) . . .
83(5) . . .
77(5) . . .
78(5) . . .
74(5) . . .
79(5) . . .
73(5) . . .
78(5) . . .
79(5) . . .
77(5) . . .
71(4) . . .
74(5) . . .
74(5) . . .
73(4) . . .
83(5) . . .
85(5) . . .
75(5) . . .
62(4) . . .
72(4) . . .
70(4) . . .
80(5) . . .
87(5) . . .
85(5) . . .
92(5) . . .
85(5) . . .
83(5) . . .
73(5) . . .
70(4) . . .
66(4) . . .
81(5) . . .
84(5) . . .
83(5) . . .
82(5) . . .
73(4) . . .
79(5) . . .
84(5) . . .
73(5) . . .
74(5) . . .
84(5) . . .
86(5) . . .
77(5) . . .
70(4) . . .
87(5) . . .
76(5) . . .
93(6) . . .
66(4) . . .
83(5) . . .
75(4) . . .
74(5) . . .
73(5) . . .
89(5) . . .
88(5) . . .
64(4) . . .
73(5) . . .
85(5) . . .
69(5) . . .
72(5) . . .
82(5) . . .
70(5) . . .
71(5) . . .
70(4) . . .
72(5) . . .
82(5) . . .
71(4) . . .
86(5) . . .
82(5) . . .
81(5) . . .
79(5) . . .
73(4) . . .
82(5) . . .
83(5) . . .
87(5) . . .
73(5) . . .
75(5) . . .
78(5) . . .
80(5) . . .
81(5) . . .
84(5) . . .
76(5) . . .
72(5) . . .
78(5) . . .
82(5) . . .
67(4) . . .
71(4) . . .
89(5) . . .
71(4) . . .
91(5) . . .
76(5) . . .
74(5) . . .
74(5) . . .
84(5) . . .
93(5) . . .
83(5) . . .
91(5) . . .
84(5) . . .
80(5) . . .
75(4) . . .
73(5) . . .
71(5) . . .
72(4) . . .
77(5) . . .
76(5) . . .
87(5) . . .
79(5) . . .
73(5) . . .
71(4) . . .
77(5) . . .
89(5) . . .
94(5) . . .
79(5) . . .
76(5) . . .
78(5) . . .
71(4) . . .
83(5) . . .
86(5) . . .
77(5) . . .
71(4) . . .
88(5) . . .
84(5) . . .
78(5) . . .
78(5) . . .
78(5) . . .
94(5) . . .
83(5) . . .
70(5) . . .
67(4) . . .
76(5) . . .
76(5) . . .
77(5) . . .
81(5) . . .
81(5) . . .
82(5) . . .
73(4) . . .
76(5) . . .
69(4) . . .
81(5) . . .
76(5) . . .
77(5) . . .
78(5) . . .
83(5) . . .
65(4) . . .
64(4) . . .
68(5) . . .
78(5) . . .
87(5) . . .
81(5) . . .
81(5) . . .
75(5) . . .
82(5) . . .
71(5) . . .
70(4) . . .
72(5) . . .
87(5) . . .
88(5) . . .
87(5) . . .
85(5) . . .
72(4) . . .
73(5) . . .
70(5) . . .
70(4) . . .
71(4) . . .
76(5) . . .
78(5) . . .
78(5) . . .
98(6) . . .
91(5) . . .
79(5) . . .
89(5) . . .
87(5) . . .
75(4) . . .
83(5) . . .
80(5) . . .
65(4) . . .
80(5) . . .
76(4) . . .
76(4) . . .
80(5) . . .
80(5) . . .
81(5) . . .
79(5) . . .
87(5) . . .
71(5) . . .
76(5) . . .
87(5) . . .
96(5) . . .
79(5) . . .
85(5) . . .
81(5) . . .
74(4) . . .
89(5) . . .
78(5) . . .
91(5) . . .
80(5) . . .
96(5) . . .
80(5) . . .
72(4) . . .
82(5) . . .
81(5) . . .
89(5) . . .
77(5) . . .
73(5) . . .
67(5) . . .
77(5) . . .
87(5) . . .
88(5) . . .
78(5) . . .
89(5) . . .
80(5) . . .
86(5) . . .
83(5) . . .
72(5) . . .
80(5) . . .
82(5) . . .
71(4) . . .
89(5) . . .
75(5) . . .
80(5) . . .
76(5) . . .
80(5) . . .
87(5) . . .
78(5) . . .
87(5) . . .
81(5) . . .
89(5) . . .
86(5) . . .
70(4) . . .
89(5) . . .
72(4) . . .
81(5) . . .
70(4) . . .
64(4) . . .
72(5) . . .
68(4) . . .
85(5) . . .
86(5) . . .
81(5) . . .
91(5) . . .
92(5) . . .
85(5) . . .
76(5) . . .
80(5) . . .
76(5) . . .
72(5) . . .
78(5) . . .
78(5) . . .
70(4) . . .
81(5) . . .
84(5) . . .
80(5) . . .
92(5) . . .
72(5) . . .
73(5) . . .
66(4) . . .
78(5) . . .
77(5) . . .
75(5) . . .
80(5) . . .
69(4) . . .
68(4) . . .
72(4) . . .
73(5) . . .
90(5) . . .
82(5) . . .
79(5) . . .
73(5) . . .
80(5) . . .
73(5) . . .
75(5) . . .
75(4) . . .
81(5) . . .
82(5) . . .
83(5) . . .
86(5) . . .
71(4) . . .
73(5) . . .
76(5) . . .
78(5) . . .
62(4) . . .
69(4) . . .
89(5) . . .
71(5) . . .
82(5) . . .
93(5) . . .
83(5) . . .
88(5) . . .
89(5) . . .
86(5) . . .
78(5) . . .
78(5) . . .
79(5) . . .
96(6) . . .
71(4) . . .
78(5) . . .
75(5) . . .
73(5) . . .
90(5) . . .
72(5) . . .
76(5) . . .
89(5) . . .
75(5) . . .
80(5) . . .
77(5) . . .
85(5) . . .
77(5) . . .
83(5) . . .
80(5) . . .
71(4) . . .
68(4) . . .
69(4) . . .
84(5) . . .
86(5) . . .
66(4) . . .
82(5) . . .
85(5) . . .
80(5) . . .
85(5) . . .
81(5) . . .
77(5) . . .
71(4) . . .
76(5) . . .
77(5) . . .
77(5) . . .
76(4) . . .
77(5) . . .
84(5) . . .
79(5) . . .
74(4) . . .
85(5) . . .
85(5) . . .
76(5) . . .
75(5) . . .
74(4) . . .
67(4) . . .
73(5) . . .
74(5) . . .
74(5) . . .
66(4) . . .
72(4) . . .
83(5) . . .
85(5) . . .
78(5) . . .
87(5) . . .
80(5) . . .
73(5) . . .
91(5) . . .
85(5) . . .
101(5) . . .
81(5) . . .
74(5) . . .
74(5) . . .
80(5) . . .
81(5) . . .
81(5) . . .
88(5) . . .
78(5) . . .
68(4) . . .
79(5) . . .
74(5) . . .
76(5) . . .
80(5) . . .
83(5) . . .
71(4) . . .
77(5) . . .
89(5) . . .
72(4) . . .
89(5) . . .
76(5) . . .
79(5) . . .
79(5) . . .
76(5) . . .
77(5) . . .
78(5) . . .
87(5) . . .
78(5) . . .
79(5) . . .
75(5) . . .
67(4) . . .
69(5) . . .
78(5) . . .
85(5) . . .
79(5) . . .
77(5) . . .
88(5) . . .
86(5) . . .
67(4) . . .
76(5) . . .
85(5) . . .
94(5) . . .
77(5) . . .
84(5) . . .
80(5) . . .
77(5) . . .
77(5) . . .
85(5) . . .
71(4) . . .
82(5) . . .
77(5) . . .
79(5) . . .
79(5) . . .
67(4) . . .
69(4) . . .
70(4) . . .
70(5) . . .
80(5) . . .
71(4) . . .
80(5) . . .
81(5) . . .
83(5) . . .
88(5) . . .
76(5) . . .
76(5) . . .
93(5) . . .
74(4) . . .
92(5) . . .
75(5) . . .
65(4) . . .
74(5) . . .
65(4) . . .
79(5) . . .
78(5) . . .
80(5) . . .
74(5) . . .
78(5) . . .
86(5) . . .
78(5) . . .
92(5) . . .
92(5) . . .
77(5) . . .
69(4) . . .
71(4) . . .
75(5) . . .
75(5) . . .
67(5) . . .
76(5) . . .
79(5) . . .
81(5) . . .
80(5) . . .
81(5) . . .
79(5) . . .
80(5) . . .
82(5) . . .
82(5) . . .
68(5) . . .
74(5) . . .
89(5) . . .
73(5) . . .
71(4) . . .
76(5) . . .
79(5) . . .
74(4) . . .
65(4) . . .
82(5) . . .
70(4) . . .
80(5) . . .
82(5) . . .
70(4) . . .
75(5) . . .
84(5) . . .
88(5) . . .
83(5) . . .
61(4) . . .
85(5) . . .
86(5) . . .
78(5) . . .
74(5) . . .
72(4) . . .
63(4) . . .
86(5) . . .
79(5) . . .
71(4) . . .
79(5) . . .
84(5) . . .
77(5) . . .
81(5) . . .
78(5) . . .
69(4) . . .
77(5) . . .
81(5) . . .
77(5) . . .
68(4) . . .
73(4) . . .
78(5) . . .
72(4) . . .
80(5) . . .
75(4) . . .
77(5) . . .
76(5) . . .
70(5) . . .
71(4) . . .
84(5) . . .
67(4) . . .
71(5) . . .
73(5) . . .
70(4) . . .
78(5) . . .
80(5) . . .
77(5) . . .
80(5) . . .
91(5) . . .
81(5) . . .
73(5) . . .
85(5) . . .
79(5) . . .
82(5) . . .
80(5) . . .
64(4) . . .
71(5) . . .
86(5) . . .
86(5) . . .
79(5) . . .
78(5) . . .
74(5) . . .
84(5) . . .
71(4) . . .
81(5) . . .
72(4) . . .
78(5) . . .
84(5) . . .
72(4) . . .
78(5) . . .
73(5) . . .
72(5) . . .
70(4) . . .
75(4) . . .
84(5) . . .
77(5) . . .
73(5) . . .
76(5) . . .
90(5) . . .
75(5) . . .
81(5) . . .
79(5) . . .
71(4) . . .
78(5) . . .
82(5) . . .
79(5) . . .
72(4) . . .
79(5) . . .
77(5) . . .
84(5) . . .
76(5) . . .
79(5) . . .
75(5) . . .
63(4) . . .
66(4) . . .
78(5) . . .
86(5) . . .
84(5) . . .
74(4) . . .
81(5) . . .
90(5) . . .
73(5) . . .
79(5) . . .
70(4) . . .
77(5) . . .
68(4) . . .
76(5) . . .
78(5) . . .
80(5) . . .
81(5) . . .
82(5) . . .
74(4) . . .
84(5) . . .
76(5) . . .
67(4) . . .
76(5) . . .
68(4) . . .
89(5) . . .
82(5) . . .
80(5) . . .
86(5) . . .
98(5) . . .
91(5) . . .
74(5) . . .
81(5) . . .
86(5) . . .
85(5) . . .
70(4) . . .
84(5) . . .
88(5) . . .
76(5) . . .
74(5) . . .
72(4) . . .
79(5) . . .
70(5) . . .
64(4) . . .
73(5) . . .
72(4) . . .
76(5) . . .
83(5) . . .
75(5) . . .
89(5) . . .
75(5) . . .
64(4) . . .
70(5) . . .
84(5) . . .
76(5) . . .
81(5) . . .
76(5) . . .
87(5) . . .
76(5) . . .
65(4) . . .
83(5) . . .
74(5) . . .
79(5) . . .
78(5) . . .
81(5) . . .
71(4) . . .
74(5) . . .
74(5) . . .
65(4) . . .
76(5) . . .
84(5) . . .
76(5) . . .
79(5) . . .
80(5) . . .
84(5) . . .
78(5) . . .
84(5) . . .
85(5) . . .
83(5) . . .
83(5) . . .
78(5) . . .
71(4) . . .
84(5) . . .
77(5) . . .
71(4) . . .
74(5) . . .
81(5) . . .
77(5) . . .
71(4) . . .
77(5) . . .
79(5) . . .
83(5) . . .
72(4) . . .
70(4) . . .
86(5) . . .
79(5) . . .
70(5) . . .
71(4) . . .
78(5) . . .
66(4) . . .
90(5) . . .
77(5) . . .
80(5) . . .
74(4) . . .
68(4) . . .
86(5) . . .
77(5) . . .
85(5) . . .
90(5) . . .
79(5) . . .
73(5) . . .
79(5) . . .
70(4) . . .
76(5) . . .
73(5) . . .
74(5) . . .
86(5) . . .
77(5) . . .
85(5) . . .
73(5) . . .
77(5) . . .
82(5) . . .
72(5) . . .
58(4) . . .
80(5) . . .
85(5) . . .
74(5) . . .
68(4) . . .
58(4) . . .
72(4) . . .
76(5) . . .
79(5) . . .
81(5) . . .
68(4) . . .
74(5) . . .
74(5) . . .
66(4) . . .
71(4) . . .
73(4) . . .
77(5) . . .
63(4) . . .
75(5) . . .
68(4) . . .
72(4) . . .
86(5) . . .
75(5) . . .
77(5) . . .
77(5) . . .
74(4) . . .
78(5) . . .
83(5) . . .
81(5) . . .
77(5) . . .
74(4) . . .
75(5) . . .
81(5) . . .
63(4) . . .
76(5) . . .
79(5) . . .
70(4) . . .
67(4) . . .
69(4) . . .
69(4) . . .
77(5) . . .
79(5) . . .
80(5) . . .
77(5) . . .
74(4) . . .
77(5) . . .
66(4) . . .
75(5) . . .
71(4) . . .
75(5) . . .
80(5) . . .
75(5) . . .
74(5) . . .
83(5) . . .
83(5) . . .
88(5) . . .
71(4) . . .
81(5) . . .
95(5) . . .
69(4) . . .
65(4) . . .
78(5) . . .
81(5) . . .
85(5) . . .
74(5) . . .
75(5) . . .
87(5) . . .
89(5) . . .
76(5) . . .
77(5) . . .
73(5) . . .
78(5) . . .
80(5) . . .
85(5) . . .
76(5) . . .
74(5) . . .
72(5) . . .
75(5) . . .
80(5) . . .
62(4) . . .
75(5) . . .
69(4) . . .
68(4) . . .
75(5) . . .
85(5) . . .
78(5) . . .
83(5) . . .
79(5) . . .
86(5) . . .
74(4) . . .
65(4) . . .
76(5) . . .
69(5) . . .
94(5) . . .
82(5) . . .
72(4) . . .
85(5) . . .
71(4) . . .
77(5) . . .
64(4) . . .
75(5) . . .
70(4) . . .
71(4) . . .
65(4) . . .
56(4) . . .
74(5) . . .
78(5) . . .
74(5) . . .
86(5) . . .
85(5) . . .
84(5) . . .
71(5) . . .
57(4) . . .
73(4) . . .
75(5) . . .
82(5) . . .
82(5) . . .
80(5) . . .
70(4) . . .
71(5) . . .
84(5) . . .
76(5) . . .
69(4) . . .
64(4) . . .
80(5) . . .
83(5) . . .
83(5) . . .
73(4) . . .
84(5) . . .
66(4) . . .
67(5) . . .
78(5) . . .
73(4) . . .
78(5) . . .
72(5) . . .
85(5) . . .
80(5) . . .
68(4) . . .
84(5) . . .
80(5) . . .
81(5) . . .
64(4) . . .
77(5) . . .
81(5) . . .
71(4) . . .
77(5) . . .
74(5) . . .
75(5) . . .
70(4) . . .
71(4) . . .
89(5) . . .
71(4) . . .
68(4) . . .
71(4) . . .
86(5) . . .
79(5) . . .
77(5) . . .
64(4) . . .
80(5) . . .
80(5) . . .
67(4) . . .
73(5) . . .
81(5) . . .
76(5) . . .
89(5) . . .
70(4) . . .
60(4) . . .
72(4) . . .
78(5) . . .
70(5) . . .
78(5) . . .
80(5) . . .
71(4) . . .
70(5) . . .
70(5) . . .
66(5) . . .
60(4) . . .
86(5) . . .
85(5) . . .
66(4) . . .
77(5) . . .
72(4) . . .
74(4) . . .
78(5) . . .
72(5) . . .
71(5) . . .
75(5) . . .
71(5) . . .
75(5) . . .
84(5) . . .
75(5) . . .
72(4) . . .
70(4) . . .
73(5) . . .
82(5) . . .
86(5) . . .
81(5) . . .
79(5) . . .
62(4) . . .
68(4) . . .
78(5) . . .
78(5) . . .
79(5) . . .
73(5) . . .
88(5) . . .
67(4) . . .
68(4) . . .
72(5) . . .
64(4) . . .
79(5) . . .
74(4) . . .
77(5) . . .
69(4) . . .
92(5) . . .
78(5) . . .
66(4) . . .
79(5) . . .
63(4) . . .
66(5) . . .
68(5) . . .
81(5) . . .
82(5) . . .
60(4) . . .
71(5) . . .
74(5) . . .
81(5) . . .
80(5) . . .
73(5) . . .
89(5) . . .
86(5) . . .
71(4) . . .
80(5) . . .
74(5) . . .
70(4) . . .
77(5) . . .
77(5) . . .
71(5) . . .
71(5) . . .
73(5) . . .
89(5) . . .
75(5) . . .
84(5) . . .
67(4) . . .
70(5) . . .
75(5) . . .
76(5) . . .
75(5) . . .
70(4) . . .
83(5) . . .
87(5) . . .
78(5) . . .
82(5) . . .
90(5) . . .
74(5) . . .
73(4) . . .
81(5) . . .
74(5) . . .
66(4) . . .
69(4) . . .
75(5) . . .
73(4) . . .
74(5) . . .
81(5) . . .
63(4) . . .
70(4) . . .
80(5) . . .
80(5) . . .
74(5) . . .
87(5) . . .
71(4) . . .
78(5) . . .
72(4) . . .
79(5) . . .
72(5) . . .
76(5) . . .
68(4) . . .
81(5) . . .
68(5) . . .
67(4) . . .
67(4) . . .
71(4) . . .
72(5) . . .
75(5) . . .
82(5) . . .
60(4) . . .
60(4) . . .
75(5) . . .
70(4) . . .
63(4) . . .
88(5) . . .
86(5) . . .
73(5) . . .
76(5) . . .
81(5) . . .
74(4) . . .
71(4) . . .
93(5) . . .
60(4) . . .
74(5) . . .
79(5) . . .
91(5) . . .
77(5) . . .
73(5) . . .
76(5) . . .
85(5) . . .
66(4) . . .
83(5) . . .
83(5) . . .
79(5) . . .
90(5) . . .
82(5) . . .
75(5) . . .
80(5) . . .
68(4) . . .
84(5) . . .
84(5) . . .
84(5) . . .
78(5) . . .
68(4) . . .
78(5) . . .
80(5) . . .
70(5) . . .
71(5) . . .
84(5) . . .
75(4) . . .
71(4) . . .
79(5) . . .
78(5) . . .
70(4) . . .
65(4) . . .
66(4) . . .
91(5) . . .
83(5) . . .
74(5) . . .
80(5) . . .
83(5) . . .
73(5) . . .
67(4) . . .
73(4) . . .
74(4) . . .
71(4) . . .
69(5) . . .
74(5) . . .
86(5) . . .
85(5) . . .
84(5) . . .
77(5) . . .
80(5) . . .
77(5) . . .
86(5) . . .
77(5) . . .
62(4) . . .
65(4) . . .
68(4) . . .
84(5) . . .
69(5) . . .
67(5) . . .
74(5) . . .
73(4) . . .
73(4) . . .
85(5) . . .
68(5) . . .
73(5) . . .
67(4) . . .
72(5) . . .
80(5) . . .
66(4) . . .
82(5) . . .
70(4) . . .
57(4) . . .
78(5) . . .
86(5) . . .
70(4) . . .
84(5) . . .
66(4) . . .
81(5) . . .
74(5) . . .
77(5) . . .
70(4) . . .
70(4) . . .
70(5) . . .
74(5) . . .
78(5) . . .
61(4) . . .
81(5) . . .
75(5) . . .
71(5) . . .
77(5) . . .
74(4) . . .
75(5) . . .
69(5) . . .
80(5) . . .
76(5) . . .
88(5) . . .
76(5) . . .
83(5) . . .
73(5) . . .
68(4) . . .
65(4) . . .
57(4) . . .
63(4) . . .
80(5) . . .
85(5) . . .
71(5) . . .
75(5) . . .
83(5) . . .
74(5) . . .
81(5) . . .
78(5) . . .
73(5) . . .
71(4) . . .
73(4) . . .
80(5) . . .
72(5) . . .
70(5) . . .
72(4) . . .
75(4) . . .
75(5) . . .
80(5) . . .
74(5) . . .
74(5) . . .
70(4) . . .
77(5) . . .
77(5) . . .
74(5) . . .
75(5) . . .
75(5) . . .
62(4) . . .
67(4) . . .
70(4) . . .
77(5) . . .
72(4) . . .
73(4) . . .
87(5) . . .
71(5) . . .
67(4) . . .
79(5) . . .
72(5) . . .
83(5) . . .
73(5) . . .
70(4) . . .
70(4) . . .
74(5) . . .
69(4) . . .
71(5) . . .
73(5) . . .
73(4) . . .
68(4) . . .
72(4) . . .
73(5) . . .
71(5) . . .
67(4) . . .
76(5) . . .
68(4) . . .
74(5) . . .
71(4) . . .
81(5) . . .
73(4) . . .
78(5) . . .
75(5) . . .
77(5) . . .
71(4) . . .
60(4) . . .
66(4) . . .
93(5) . . .
79(5) . . .
77(5) . . .
78(5) . . .
83(5) . . .
86(5) . . .
74(5) . . .
66(4) . . .
79(5) . . .
76(5) . . .
80(5) . . .
77(5) . . .
75(5) . . .
76(5) . . .
69(5) . . .
79(5) . . .
70(4) . . .
63(4) . . .
63(4) . . .
72(5) . . .
65(4) . . .
77(5) . . .
65(4) . . .
66(4) . . .
103(6) . . .
69(4) . . .
68(4) . . .
80(5) . . .
75(5) . . .
72(5) . . .
75(5) . . .
75(5) . . .
70(4) . . .
63(4) . . .
76(5) . . .
68(4) . . .
71(4) . . .
62(4) . . .
74(5) . . .
70(5) . . .
73(5) . . .
62(4) . . .
72(5) . . .
81(5) . . .
70(5) . . .
66(4) . . .
68(4) . . .
80(5) . . .
75(5) . . .
68(4) . . .
81(5) . . .
73(4) . . .
71(4) . . .
80(5) . . .
74(5) . . .
59(4) . . .
62(4) . . .
73(5) . . .
74(5) . . .
66(4) . . .
68(4) . . .
78(5) . . .
63(4) . . .
75(5) . . .
69(4) . . .
82(5) . . .
80(5) . . .
70(5) . . .
83(5) . . .
78(5) . . .
76(4) . . .
83(5) . . .
82(5) . . .
74(5) . . .
80(5) . . .
80(5) . . .
72(4) . . .
70(5) . . .
69(5) . . .
74(5) . . .
70(4) . . .
74(4) . . .
70(4) . . .
76(5) . . .
87(5) . . .
64(4) . . .
69(4) . . .
79(5) . . .
78(5) . . .
73(5) . . .
75(4) . . .
70(5) . . .
67(4) . . .
77(5) . . .
68(4) . . .
68(4) . . .
68(5) . . .
69(5) . . .
73(5) . . .
78(5) . . .
70(4) . . .
81(5) . . .
75(5) . . .
72(5) . . .
82(5) . . .
76(5) . . .
70(5) . . .
67(5) . . .
62(4) . . .
67(4) . . .
66(4) . . .
72(4) . . .
69(5) . . .
68(4) . . .
78(5) . . .
79(5) . . .
67(5) . . .
79(5) . . .
77(5) . . .
77(5) . . .
72(5) . . .
79(5) . . .
61(4) . . .
75(5) . . .
72(4) . . .
71(4) . . .
71(4) . . .
78(5) . . .
79(5) . . .
73(4) . . .
69(4) . . .
75(5) . . .
68(4) . . .
78(5) . . .
82(5) . . .
69(4) . . .
75(5) . . .
73(5) . . .
66(4) . . .
70(4) . . .
78(5) . . .
72(5) . . .
77(5) . . .
73(4) . . .
67(4) . . .
70(4) . . .
72(5) . . .
63(4) . . .
76(5) . . .
78(5) . . .
69(4) . . .
63(4) . . .
84(5) . . .
68(4) . . .
68(4) . . .
70(4) . . .
75(5) . . .
70(4) . . .
70(4) . . .
79(5) . . .
57(4) . . .
66(5) . . .
62(4) . . .
78(5) . . .
67(4) . . .
78(5) . . .
80(5) . . .
76(5) . . .
75(5) . . .
65(4) . . .
85(5) . . .
71(5) . . .
66(4) . . .
58(4) . . .
73(4) . . .
61(4) . . .
72(5) . . .
77(5) . . .
72(5) . . .
69(4) . . .
76(5) . . .
92(5) . . .
70(4) . . .
69(4) . . .
84(5) . . .
71(4) . . .
86(5) . . .
73(4) . . .
75(4) . . .
86(5) . . .
69(4) . . .
66(4) . . .
69(4) . . .
80(5) . . .
84(5) . . .
82(5) . . .
72(5) . . .
82(5) . . .
75(4) . . .
74(5) . . .
72(5) . . .
70(4) . . .
79(5) . . .
75(4) . . .
71(4) . . .
69(4) . . .
75(5) . . .
72(4) . . .
69(4) . . .
66(4) . . .
73(5) . . .
73(5) . . .
65(4) . . .
66(4) . . .
85(5) . . .
77(5) . . .
73(5) . . .
71(4) . . .
77(5) . . .
62(4) . . .
83(5) . . .
73(5) . . .
57(4) . . .
69(4) . . .
78(5) . . .
74(5) . . .
77(5) . . .
77(5) . . .
77(5) . . .
67(4) . . .
68(4) . . .
77(5) . . .
63(4) . . .
72(5) . . .
65(4) . . .
59(4) . . .
77(5) . . .
86(5) . . .
77(5) . . .
73(5) . . .
79(5) . . .
77(5) . . .
69(4) . . .
78(5) . . .
83(5) . . .
72(5) . . .
76(5) . . .
80(5) . . .
78(5) . . .
73(5) . . .
72(5) . . .
75(5) . . .
69(4) . . .
80(5) . . .
74(5) . . .
65(4) . . .
81(5) . . .
85(5) . . .
76(5) . . .
74(5) . . .
76(5) . . .
68(4) . . .
69(4) . . .
75(5) . . .
87(5) . . .
82(5) . . .
76(5) . . .
67(4) . . .
79(5) . . .
69(5) . . .
72(4) . . .
72(4) . . .
84(5) . . .
70(5) . . .
69(5) . . .
67(5) . . .
73(4) . . .
72(4) . . .
69(4) . . .
85(5) . . .
89(5) . . .
82(5) . . .
70(4) . . .
73(5) . . .
77(5) . . .
76(5) . . .
78(5) . . .
82(5) . . .
77(5) . . .
74(5) . . .
67(4) . . .
71(4) . . .
71(5) . . .
82(5) . . .
84(5) . . .
68(4) . . .
77(5) . . .
74(5) . . .
71(5) . . .
71(5) . . .
71(4) . . .
78(5) . . .
93(5) . . .
75(5) . . .
70(5) . . .
75(5) . . .
75(5) . . .
67(4) . . .
74(5) . . .
73(5) . . .
73(4) . . .
62(4) . . .
75(5) . . .
63(4) . . .
73(5) . . .
71(4) . . .
71(4) . . .
79(5) . . .
68(5) . . .
72(5) . . .
59(4) . . .
68(4) . . .
69(4) . . .
70(5) . . .
77(5) . . .
74(4) . . .
61(4) . . .
67(5) . . .
78(5) . . .
81(5) . . .
72(4) . . .
74(5) . . .
72(5) . . .
75(5) . . .
82(5) . . .
72(4) . . .
77(5) . . .
76(5) . . .
67(4) . . .
64(4) . . .
77(5) . . .
75(5) . . .
62(4) . . .
74(5) . . .
71(4) . . .
71(4) . . .
72(4) . . .
71(5) . . .
67(4) . . .
79(5) . . .
73(4) . . .
75(5) . . .
76(5) . . .
73(5) . . .
70(4) . . .
80(5) . . .
70(5) . . .
77(5) . . .
81(5) . . .
70(4) . . .
68(4) . . .
77(5) . . .
70(5) . . .
81(5) . . .
57(4) . . .
62(4) . . .
80(5) . . .
70(5) . . .
73(5) . . .
71(4) . . .
77(5) . . .
64(4) . . .
64(4) . . .
69(4) . . .
64(4) . . .
69(4) . . .
74(5) . . .
86(5) . . .
77(5) . . .
79(5) . . .
81(5) . . .
67(4) . . .
66(4) . . .
76(5) . . .
75(4) . . .
62(4) . . .
75(5) . . .
76(5) . . .
69(4) . . .
78(5) . . .
69(4) . . .
85(5) . . .
70(5) . . .
67(4) . . .
68(4) . . .
76(5) . . .
66(4) . . .
66(4) . . .
74(5) . . .
73(4) . . .
69(4) . . .
75(5) . . .
75(5) . . .
71(4) . . .
64(4) . . .
73(5) . . .
77(5) . . .
66(4) . . .
77(5) . . .
71(4) . . .
72(5) . . .
68(5) . . .
65(4) . . .
69(4) . . .
70(4) . . .
75(5) . . .
82(5) . . .
73(5) . . .
72(4) . . .
74(4) . . .
81(5) . . .
74(5) . . .
68(4) . . .
66(4) . . .
68(4) . . .
66(4) . . .
85(5) . . .
56(4) . . .
76(5) . . .
75(5) . . .
71(5) . . .
74(5) . . .
78(5) . . .
75(4) . . .
73(4) . . .
73(4) . . .
75(5) . . .
76(5) . . .
71(4) . . .
71(5) . . .
64(4) . . .
70(4) . . .
72(5) . . .
72(4) . . .
85(5) . . .
66(4) . . .
79(5) . . .
57(4) . . .
75(4) . . .
69(4) . . .
64(4) . . .
68(4) . . .
72(4) . . .
71(4) . . .
59(4) . . .
81(5) . . .
83(5) . . .
77(5) . . .
71(4) . . .
73(5) . . .
62(4) . . .
79(5) . . .
60(4) . . .
68(4) . . .
82(5) . . .
72(5) . . .
71(5) . . .
65(4) . . .
77(5) . . .
74(5) . . .
66(4) . . .
75(5) . . .
74(4) . . .
68(4) . . .
71(5) . . .
77(5) . . .
81(5) . . .
58(4) . . .
81(5) . . .
68(4) . . .
72(5) . . .
67(4) . . .
68(4) . . .
87(5) . . .
79(5) . . .
67(5) . . .
71(4) . . .
61(4) . . .
76(5) . . .
80(5) . . .
75(5) . . .
69(5) . . .
63(4) . . .
77(5) . . .
75(5) . . .
77(5) . . .
77(5) . . .
76(5) . . .
81(5) . . .
70(4) . . .
67(4) . . .
73(4) . . .
74(4) . . .
78(5) . . .
75(5) . . .
75(5) . . .
81(5) . . .
61(4) . . .
75(5) . . .
64(5) . . .
66(5) . . .
65(4) . . .
68(4) . . .
78(5) . . .
77(5) . . .
75(5) . . .
71(4) . . .
79(5) . . .
70(4) . . .
84(5) . . .
68(5) . . .
77(5) . . .
70(4) . . .
79(5) . . .
83(5) . . .
75(5) . . .
81(5) . . .
69(4) . . .
71(5) . . .
71(5) . . .
62(4) . . .
70(4) . . .
75(5) . . .
79(5) . . .
72(4) . . .
73(4) . . .
83(5) . . .
96(5) . . .
81(5) . . .
74(4) . . .
74(5) . . .
65(4) . . .
60(4) . . .
72(5) . . .
75(5) . . .
81(5) . . .
68(4) . . .
68(4) . . .
65(4) . . .
68(5) . . .
67(4) . . .
72(4) . . .
67(4) . . .
76(5) . . .
73(5) . . .
77(5) . . .
86(5) . . .
71(5) . . .
73(5) . . .
80(5) . . .
67(4) . . .
76(4) . . .
63(4) . . .
66(5) . . .
76(5) . . .
81(5) . . .
71(4) . . .
80(5) . . .
75(5) . . .
79(5) . . .
73(4) . . .
78(5) . . .
72(5) . . .
76(5) . . .
72(5) . . .
77(5) . . .
80(5) . . .
83(5) . . .
74(5) . . .
58(4) . . .
74(4) . . .
69(4) . . .
73(5) . . .
78(5) . . .
66(4) . . .
75(5) . . .
64(4) . . .
61(4) . . .
60(4) . . .
68(4) . . .
84(5) . . .
74(5) . . .
63(4) . . .
68(5) . . .
86(5) . . .
65(4) . . .
63(4) . . .
72(5) . . .
71(4) . . .
74(5) . . .
72(4) . . .
79(5) . . .
73(5) . . .
71(5) . . .
59(4) . . .
78(5) . . .
75(5) . . .
73(5) . . .
73(5) . . .
74(4) . . .
62(4) . . .
75(5) . . .
63(5) . . .
74(5) . . .
66(4) . . .
69(4) . . .
67(4) . . .
62(4) . . .
64(4) . . .
70(4) . . .
68(4) . . .
77(5) . . .
75(5) . . .
71(4) . . .
75(4) . . .
71(4) . . .
63(4) . . .
89(5) . . .
71(5) . . .
61(4) . . .
75(5) . . .
67(4) . . .
70(5) . . .
66(4) . . .
77(5) . . .
67(5) . . .
71(5) . . .
72(5) . . .
81(5) . . .
74(5) . . .
65(4) . . .
75(5) . . .
79(5) . . .
65(4) . . .
71(4) . . .
71(4) . . .
68(4) . . .
69(4) . . .
74(4) . . .
69(4) . . .
78(5) . . .
80(5) . . .
66(4) . . .
75(5) . . .
71(4) . . .
77(5) . . .
66(4) . . .
65(4) . . .
76(5) . . .
74(5) . . .
68(4) . . .
78(5) . . .
71(5) . . .
71(4) . . .
62(4) . . .
79(5) . . .
75(5) . . .
88(5) . . .
79(5) . . .
87(5) . . .
81(5) . . .
84(5) . . .
79(5) . . .
79(5) . . .
87(5) . . .
70(4) . . .
68(5) . . .
71(5) . . .
74(4) . . .
77(5) . . .
76(4) . . .
84(5) . . .
69(4) . . .
75(5) . . .
78(5) . . .
79(5) . . .
65(4) . . .
67(4) . . .
66(4) . . .
66(4) . . .
81(5) . . .
70(5) . . .
62(4) . . .
73(4) . . .
76(5) . . .
81(5) . . .
76(5) . . .
65(4) . . .
78(5) . . .
77(5) . . .
79(5) . . .
72(4) . . .
77(5) . . .
57(4) . . .
79(5) . . .
76(5) . . .
69(4) . . .
82(5) . . .
71(4) . . .
79(5) . . .
78(5) . . .
64(4) . . .
70(4) . . .
74(4) . . .
78(5) . . .
75(5) . . .
69(4) . . .
80(5) . . .
73(4) . . .
72(4) . . .
67(5) . . .
69(5) . . .
65(4) . . .
72(5) . . .
79(5) . . .
72(5) . . .
77(5) . . .
68(4) . . .
79(5) . . .
62(4) . . .
64(5) . . .
80(5) . . .
74(4) . . .
76(5) . . .
76(5) . . .
78(5) . . .
78(5) . . .
71(4) . . .
77(5) . . .
72(5) . . .
66(4) . . .
64(4) . . .
83(5) . . .
70(4) . . .
81(5) . . .
69(4) . . .
78(5) . . .
76(5) . . .
65(4) . . .
76(5) . . .
90(5) . . .
87(5) . . .
66(4) . . .
70(5) . . .
76(5) . . .
72(4) . . .
73(4) . . .
67(4) . . .
62(4) . . .
86(5) . . .
76(5) . . .
64(4) . . .
58(4) . . .
69(5) . . .
65(4) . . .
69(4) . . .
66(4) . . .
77(5) . . .
69(4) . . .
75(5) . . .
66(4) . . .
82(5) . . .
70(4) . . .
69(4) . . .
74(5) . . .
68(4) . . .
73(4) . . .
79(5) . . .
90(5) . . .
70(5) . . .
65(4) . . .
71(4) . . .
79(5) . . .
61(4) . . .
73(5) . . .
63(4) . . .
70(4) . . .
77(5) . . .
70(5) . . .
70(5) . . .
72(4) . . .
64(4) . . .
64(4) . . .
71(4) . . .
68(4) . . .
82(5) . . .
73(5) . . .
77(5) . . .
73(5) . . .
77(5) . . .
60(4) . . .
65(4) . . .
84(5) . . .
75(5) . . .
71(5) . . .
65(4) . . .
56(4) . . .
73(5) . . .
73(5) . . .
66(4) . . .
82(5) . . .
53(4) . . .
67(5) . . .
77(5) . . .
63(4) . . .
69(4) . . .
61(4) . . .
71(5) . . .
63(4) . . .
66(4) . . .
70(4) . . .
89(5) . . .
77(5) . . .
63(4) . . .
65(4) . . .
66(4) . . .
59(4) . . .
69(5) . . .
68(5) . . .
60(4) . . .
64(4) . . .
75(5) . . .
67(4) . . .
69(5) . . .
71(5) . . .
77(5) . . .
72(4) . . .
75(5) . . .
82(5) . . .
79(5) . . .
76(5) . . .
69(4) . . .
62(4) . . .
62(4) . . .
66(4) . . .
74(5) . . .
73(5) . . .
65(4) . . .
77(5) . . .
59(4) . . .
62(4) . . .
58(4) . . .
70(5) . . .
67(4) . . .
72(4) . . .
64(4) . . .
69(4) . . .
62(4) . . .
68(4) . . .
64(4) . . .
71(4) . . .
88(5) . . .
68(4) . . .
72(5) . . .
73(4) . . .
78(5) . . .
76(5) . . .
80(5) . . .
73(5) . . .
60(4) . . .
67(4) . . .
74(5) . . .
67(4) . . .
70(4) . . .
73(4) . . .
82(5) . . .
73(5) . . .
63(4) . . .
71(5) . . .
80(5) . . .
80(5) . . .
73(4) . . .
74(5) . . .
72(5) . . .
67(4) . . .
58(4) . . .
61(4) . . .
72(5) . . .
61(4) . . .
66(4) . . .
77(5) . . .
68(5) . . .
61(4) . . .
73(4) . . .
85(5) . . .
68(4) . . .
68(5) . . .
73(5) . . .
67(4) . . .
60(4) . . .
66(4) . . .
71(5) . . .
76(5) . . .
74(5) . . .
68(4) . . .
66(4) . . .
79(5) . . .
68(4) . . .
78(5) . . .
74(4) . . .
68(4) . . .
66(4) . . .
63(4) . . .
71(4) . . .
69(4) . . .
69(4) . . .
71(5) . . .
66(4) . . .
71(4) . . .
68(4) . . .
71(5) . . .
72(5) . . .
74(5) . . .
84(5) . . .
76(4) . . .
71(5) . . .
69(5) . . .
77(5) . . .
78(5) . . .
75(5) . . .
80(5) . . .
72(5) . . .
72(5) . . .
74(4) . . .
81(5) . . .
85(5) . . .
81(5) . . .
78(5) . . .
77(5) . . .
78(5) . . .
68(4) . . .
69(5) . . .
82(5) . . .
84(5) . . .
73(5) . . .
65(5) . . .
77(5) . . .
57(4) . . .
66(4) . . .
69(4) . . .
74(5) . . .
81(5) . . .
71(4) . . .
70(4) . . .
75(5) . . .
79(5) . . .
52(4) . . .
66(4) . . .
77(5) . . .
71(5) . . .
68(5) . . .
80(5) . . .
77(5) . . .
68(4) . . .
72(5) . . .
75(5) . . .
69(4) . . .
70(4) . . .
67(4) . . .
78(5) . . .
78(5) . . .
71(5) . . .
74(5) . . .
84(5) . . .
72(4) . . .
71(5) . . .
75(5) . . .
71(4) . . .
58(4) . . .
58(4) . . .
58(4) . . .
78(5) . . .
79(5) . . .
69(4) . . .
74(5) . . .
71(5) . . .
71(4) . . .
74(5) . . .
69(4) . . .
75(5) . . .
68(4) . . .
60(4) . . .
62(4) . . .
67(4) . . .
64(4) . . .
64(4) . . .
74(5) . . .
74(4) . . .
63(4) . . .
63(4) . . .
75(5) . . .
76(5) . . .
77(5) . . .
65(4) . . .
74(5) . . .
74(5) . . .
73(4) . . .
82(5) . . .
71(5) . . .
73(5) . . .
60(4) . . .
70(4) . . .
80(5) . . .
68(4) . . .
64(5) . . .
75(5) . . .
70(4) . . .
72(5) . . .
69(4) . . .
68(5) . . .
71(5) . . .
69(4) . . .
83(5) . . .
78(5) . . .
70(5) . . .
72(5) . . .
62(4) . . .
71(4) . . .
68(4) . . .
77(5) . . .
77(5) . . .
73(4) . . .
70(4) . . .
61(4) . . .
74(5) . . .
75(5) . . .
77(5) . . .
76(5) . . .
63(4) . . .
63(4) . . .
65(4) . . .
72(4) . . .
81(5) . . .
75(5) . . .
61(4) . . .
65(4) . . .
60(4) . . .
60(4) . . .
67(4) . . .
74(5) . . .
72(5) . . .
78(5) . . .
74(4) . . .
78(5) . . .
81(5) . . .
75(5) . . .
61(4) . . .
72(5) . . .
69(4) . . .
72(4) . . .
65(4) . . .
75(4) . . .
78(5) . . .
73(5) . . .
69(4) . . .
73(4) . . .
79(5) . . .
77(5) . . .
79(5) . . .
70(4) . . .
70(4) . . .
74(5) . . .
71(4) . . .
72(5) . . .
66(4) . . .
69(4) . . .
64(4) . . .
68(5) . . .
61(4) . . .
60(4) . . .
73(4) . . .
70(4) . . .
62(4) . . .
71(4) . . .
87(5) . . .
65(4) . . .
70(4) . . .
76(5) . . .
71(4) . . .
73(5) . . .
80(5) . . .
72(4) . . .
64(4) . . .
68(4) . . .
71(4) . . .
60(4) . . .
75(5) . . .
57(4) . . .
66(4) . . .
77(5) . . .
76(5) . . .
71(4) . . .
92(5) . . .
80(5) . . .
71(4) . . .
66(4) . . .
64(4) . . .
76(5) . . .
91(5) . . .
70(4) . . .
50(4) . . .
59(4) . . .
61(4) . . .
73(5) . . .
82(5) . . .
73(4) . . .
77(5) . . .
74(5) . . .
70(4) . . .
70(4) . . .
72(4) . . .
66(4) . . .
69(5) . . .
67(5) . . .
76(5) . . .
60(4) . . .
73(5) . . .
71(5) . . .
64(4) . . .
69(4) . . .
58(4) . . .
60(4) . . .
70(5) . . .
76(5) . . .
68(4) . . .
79(5) . . .
67(4) . . .
68(4) . . .
67(5) . . .
67(4) . . .
68(4) . . .
64(4) . . .
66(5) . . .
63(4) . . .
59(4) . . .
69(4) . . .
63(4) . . .
62(4) . . .
73(4) . . .
70(4) . . .
63(4) . . .
61(4) . . .
69(5) . . .
64(4) . . .
58(4) . . .
61(4) . . .
61(4) . . .
70(5) . . .
75(5) . . .
61(4) . . .
66(4) . . .
71(5) . . .
71(5) . . .
71(4) . . .
67(4) . . .
70(4) . . .
65(5) . . .
69(5) . . .
72(4) . . .
70(4) . . .
72(5) . . .
66(5) . . .
71(5) . . .
69(4) . . .
68(4) . . .
70(5) . . .
71(5) . . .
69(5) . . .
54(4) . . .
63(4) . . .
71(5) . . .
67(5) . . .
72(5) . . .
78(5) . . .
73(5) . . .
81(5) . . .
70(5) . . .
66(4) . . .
70(4) . . .
71(5) . . .
70(5) . . .
72(4) . . .
70(5) . . .
67(4) . . .
74(5) . . .
67(4) . . .
73(5) . . .
65(4) . . .
81(5) . . .
78(5) . . .
80(5) . . .
63(4) . . .
66(4) . . .
63(4) . . .
67(5) . . .
57(4) . . .
57(4) . . .
63(4) . . .
69(4) . . .
70(5) . . .
66(4) . . .
72(4) . . .
70(4) . . .
61(4) . . .
53(4) . . .
68(5) . . .
67(4) . . .
65(4) . . .
61(4) . . .
66(4) . . .
74(5) . . .
73(5) . . .
67(4) . . .
68(4) . . .
74(5) . . .
54(4) . . .
74(5) . . .
66(4) . . .
66(4) . . .
77(5) . . .
67(4) . . .
77(5) . . .
72(4) . . .
72(4) . . .
56(4) . . .
71(5) . . .
78(5) . . .
73(4) . . .
60(4) . . .
55(4) . . .
68(4) . . .
72(4) . . .
65(4) . . .
77(5) . . .
73(5) . . .
75(4) . . .
67(4) . . .
66(4) . . .
65(5) . . .
63(4) . . .
67(4) . . .
58(4) . . .
75(5) . . .
74(4) . . .
68(4) . . .
76(5) . . .
66(4) . . .
72(5) . . .
83(5) . . .
68(4) . . .
77(5) . . .
79(5) . . .
57(4) . . .
63(4) . . .
61(4) . . .
78(5) . . .
80(5) . . .
73(5) . . .
67(4) . . .
68(4) . . .
67(4) . . .
67(5) . . .
64(5) . . .
62(4) . . .
70(4) . . .
85(5) . . .
75(5) . . .
87(5) . . .
69(5) . . .
70(4) . . .
64(4) . . .
68(4) . . .
63(4) . . .
91(5) . . .
72(4) . . .
73(5) . . .
67(4) . . .
65(4) . . .
66(4) . . .
60(4) . . .
70(4) . . .
72(5) . . .
83(5) . . .
68(4) . . .
80(5) . . .
69(4) . . .
80(5) . . .
63(4) . . .
60(4) . . .
68(4) . . .
63(4) . . .
70(4) . . .
68(4) . . .
65(4) . . .
71(4) . . .
63(4) . . .
69(4) . . .
77(5) . . .
70(4) . . .
58(4) . . .
77(5) . . .
64(4) . . .
69(4) . . .
69(4) . . .
67(4) . . .
61(4) . . .
69(5) . . .
63(4) . . .
64(4) . . .
73(4) . . .
82(5) . . .
61(4) . . .
65(4) . . .
78(5) . . .
79(5) . . .
74(5) . . .
66(4) . . .
66(4) . . .
70(4) . . .
73(4) . . .
59(4) . . .
63(4) . . .
67(4) . . .
74(4) . . .
69(4) . . .
66(4) . . .
69(4) . . .
66(5) . . .
66(4) . . .
79(5) . . .
74(5) . . .
70(5) . . .
67(4) . . .
68(4) . . .
68(4) . . .
74(5) . . .
72(5) . . .
74(4) . . .
69(4) . . .
78(5) . . .
74(5) . . .
59(4) . . .
70(4) . . .
75(5) . . .
71(5) . . .
79(5) . . .
77(5) . . .
67(4) . . .
74(4) . . .
69(4) . . .
68(5) . . .
70(4) . . .
66(4) . . .
77(5) . . .
85(5) . . .
74(5) . . .
64(5) . . .
66(4) . . .
66(4) . . .
81(5) . . .
67(5) . . .
73(5) . . .
77(5) . . .
70(4) . . .
66(4) . . .
62(4) . . .
62(4) . . .
73(4) . . .
69(4) . . .
70(4) . . .
60(4) . . .
70(5) . . .
72(4) . . .
72(4) . . .
70(5) . . .
59(4) . . .
62(4) . . .
67(4) . . .
71(4) . . .
68(4) . . .
82(5) . . .
66(4) . . .
77(5) . . .
67(4) . . .
70(5) . . .
65(4) . . .
64(4) . . .
65(4) . . .
78(5) . . .
67(4) . . .
65(4) . . .
71(4) . . .
64(4) . . .
74(5) . . .
61(4) . . .
65(4) . . .
70(4) . . .
64(4) . . .
71(4) . . .
74(5) . . .
73(5) . . .
75(5) . . .
62(4) . . .
56(4) . . .
53(4) . . .
64(4) . . .
69(4) . . .
70(4) . . .
68(5) . . .
82(5) . . .
64(4) . . .
61(4) . . .
69(4) . . .
70(4) . . .
67(5) . . .
62(4) . . .
66(4) . . .
61(4) . . .
73(5) . . .
63(4) . . .
69(5) . . .
70(4) . . .
63(4) . . .
67(4) . . .
72(5) . . .
83(5) . . .
73(4) . . .
65(4) . . .
69(5) . . .
57(4) . . .
70(4) . . .
84(5) . . .
81(5) . . .
61(4) . . .
71(5) . . .
81(5) . . .
63(4) . . .
69(4) . . .
75(5) . . .
72(5) . . .
73(4) . . .
72(4) . . .
75(5) . . .
72(5) . . .
80(5) . . .
61(4) . . .
76(5) . . .
67(4) . . .
64(4) . . .
52(4) . . .
61(4) . . .
60(4) . . .
75(5) . . .
72(5) . . .
59(4) . . .
74(5) . . .
74(4) . . .
76(5) . . .
53(4) . . .
69(4) . . .
62(4) . . .
64(4) . . .
64(4) . . .
67(5) . . .
59(4) . . .
79(5) . . .
77(5) . . .
66(4) . . .
74(5) . . .
71(5) . . .
64(4) . . .
65(4) . . .
72(5) . . .
70(5) . . .
61(4) . . .
85(5) . . .
78(5) . . .
74(5) . . .
71(5) . . .
67(4) . . .
78(5) . . .
76(5) . . .
75(5) . . .
63(4) . . .
72(5) . . .
52(4) . . .
65(4) . . .
66(5) . . .
74(5) . . .
61(4) . . .
68(4) . . .
63(4) . . .
70(4) . . .
75(5) . . .
73(4) . . .
70(4) . . .
71(5) . . .
84(5) . . .
76(5) . . .
67(4) . . .
76(5) . . .
77(5) . . .
74(5) . . .
67(4) . . .
70(4) . . .
68(4) . . .
63(4) . . .
58(4) . . .
84(5) . . .
73(4) . . .
70(4) . . .
66(4) . . .
70(5) . . .
66(4) . . .
80(5) . . .
69(4) . . .
67(4) . . .
72(5) . . .
79(5) . . .
72(4) . . .
73(4) . . .
73(5) . . .
68(4) . . .
61(4) . . .
74(4) . . .
66(5) . . .
74(5) . . .
77(5) . . .
76(5) . . .
68(4) . . .
67(4) . . .
70(4) . . .
75(5) . . .
77(5) . . .
68(4) . . .
61(4) . . .
63(4) . . .
66(4) . . .
74(4) . . .
65(4) . . .
74(5) . . .
67(4) . . .
68(4) . . .
67(4) . . .
68(4) . . .
63(4) . . .
67(5) . . .
71(4) . . .
77(5) . . .
75(5) . . .
64(4) . . .
71(5) . . .
60(4) . . .
69(4) . . .
66(4) . . .
59(4) . . .
69(5) . . .
73(5) . . .
66(4) . . .
74(4) . . .
68(4) . . .
84(5) . . .
71(5) . . .
66(4) . . .
61(4) . . .
67(4) . . .
66(5) . . .
65(4) . . .
63(4) . . .
73(5) . . .
73(4) . . .
69(5) . . .
64(4) . . .
67(4) . . .
68(4) . . .
73(4) . . .
75(5) . . .
77(5) . . .
60(4) . . .
66(4) . . .
60(4) . . .
64(4) . . .
65(4) . . .
62(4) . . .
70(4) . . .
72(5) . . .
59(4) . . .
62(4) . . .
66(4) . . .
57(4) . . .
72(5) . . .
74(5) . . .
71(4) . . .
60(4) . . .
57(4) . . .
65(4) . . .
61(4) . . .
62(4) . . .
68(4) . . .
74(5) . . .
61(4) . . .
75(5) . . .
68(4) . . .
73(4) . . .
55(4) . . .
63(4) . . .
61(4) . . .
65(4) . . .
72(4) . . .
66(4) . . .
63(4) . . .
62(4) . . .
63(4) . . .
67(4) . . .
68(4) . . .
67(4) . . .
77(5) . . .
74(4) . . .
72(4) . . .
65(4) . . .
77(5) . . .
70(4) . . .
62(4) . . .
61(4) . . .
67(4) . . .
62(4) . . .
69(4) . . .
76(5) . . .
64(4) . . .
65(4) . . .
61(4) . . .
87(5) . . .
64(4) . . .
65(4) . . .
68(4) . . .
70(5) . . .
66(4) . . .
73(4) . . .
68(4) . . .
67(4) . . .
68(4) . . .
72(4) . . .
69(4) . . .
69(5) . . .
67(5) . . .
68(4) . . .
75(5) . . .
68(4) . . .
67(4) . . .
62(4) . . .
64(4) . . .
71(4) . . .
63(4) . . .
62(4) . . .
61(4) . . .
80(5) . . .
76(5) . . .
67(4) . . .
66(4) . . .
68(5) . . .
63(4) . . .
61(4) . . .
52(4) . . .
71(5) . . .
63(4) . . .
68(4) . . .
64(4) . . .
68(4) . . .
77(5) . . .
70(5) . . .
60(4) . . .
77(5) . . .
65(4) . . .
68(4) . . .
74(5) . . .
75(5) . . .
75(4) . . .
65(4) . . .
60(4) . . .
53(4) . . .
71(5) . . .
67(4) . . .
62(4) . . .
72(5) . . .
69(5) . . .
71(5) . . .
68(4) . . .
66(4) . . .
64(4) . . .
70(4) . . .
79(5) . . .
76(5) . . .
73(5) . . .
61(4) . . .
65(4) . . .
72(5) . . .
73(4) . . .
66(5) . . .
64(4) . . .
74(5) . . .
72(4) . . .
73(4) . . .
73(5) . . .
66(5) . . .
65(4) . . .
69(4) . . .
75(4) . . .
69(4) . . .
72(5) . . .
68(4) . . .
63(4) . . .
64(4) . . .
68(4) . . .
71(5) . . .
61(4) . . .
84(5) . . .
62(4) . . .
71(5) . . .
62(4) . . .
74(5) . . .
60(4) . . .
81(5) . . .
69(4) . . .
75(5) . . .
75(5) . . .
66(4) . . .
66(4) . . .
75(5) . . .
60(4) . . .
69(4) . . .
82(5) . . .
76(5) . . .
75(5) . . .
74(5) . . .
66(4) . . .
65(4) . . .
60(4) . . .
66(4) . . .
66(4) . . .
69(5) . . .
72(4) . . .
74(5) . . .
67(4) . . .
70(5) . . .
72(5) . . .
70(4) . . .
70(4) . . .
67(4) . . .
65(4) . . .
73(5) . . .
66(4) . . .
76(5) . . .
69(5) . . .
74(5) . . .
62(4) . . .
68(4) . . .
68(4) . . .
70(5) . . .
68(5) . . .
56(4) . . .
80(5) . . .
65(4) . . .
73(5) . . .
58(4) . . .
70(4) . . .
65(4) . . .
59(4) . . .
69(5) . . .
74(5) . . .
61(4) . . .
70(4) . . .
62(4) . . .
71(5) . . .
77(5) . . .
60(4) . . .
72(4) . . .
61(4) . . .
82(5) . . .
77(5) . . .
81(5) . . .
71(4) . . .
69(4) . . .
75(5) . . .
75(5) . . .
72(4) . . .
79(5) . . .
69(4) . . .
64(4) . . .
80(5) . . .
75(5) . . .
69(4) . . .
65(4) . . .
66(4) . . .
70(4) . . .
68(4) . . .
79(5) . . .
66(4) . . .
63(4) . . .
65(4) . . .
65(4) . . .
65(5) . . .
56(4) . . .
62(4) . . .
66(4) . . .
60(4) . . .
63(4) . . .
61(4) . . .
67(4) . . .
62(4) . . .
62(4) . . .
68(4) . . .
60(4) . . .
55(4) . . .
77(5) . . .
62(4) . . .
63(4) . . .
68(5) . . .
81(5) . . .
66(4) . . .
75(5) . . .
66(4) . . .
62(4) . . .
65(5) . . .
63(4) . . .
68(4) . . .
75(5) . . .
72(5) . . .
65(4) . . .
62(4) . . .
68(4) . . .
74(5) . . .
66(4) . . .
73(5) . . .
75(5) . . .
70(4) . . .
67(4) . . .
68(5) . . .
58(4) . . .
57(4) . . .
62(4) . . .
56(4) . . .
68(4) . . .
60(4) . . .
59(4) . . .
67(4) . . .
74(5) . . .
59(4) . . .
63(4) . . .
67(4) . . .
60(4) . . .
65(5) . . .
57(4) . . .
69(4) . . .
66(4) . . .
61(4) . . .
54(4) . . .
66(4) . . .
63(4) . . .
63(4) . . .
61(4) . . .
58(4) . . .
74(5) . . .
76(5) . . .
62(4) . . .
64(4) . . .
63(4) . . .
69(4) . . .
65(4) . . .
72(4) . . .
77(5) . . .
72(5) . . .
64(4) . . .
73(4) . . .
62(4) . . .
57(4) . . .
67(4) . . .
70(5) . . .
60(4) . . .
73(4) . . .
74(4) . . .
70(4) . . .
73(5) . . .
65(4) . . .
64(4) . . .
61(4) . . .
56(4) . . .
73(5) . . .
62(4) . . .
65(4) . . .
71(4) . . .
80(5) . . .
57(4) . . .
67(4) . . .
68(5) . . .
67(5) . . .
65(4) . . .
69(4) . . .
78(5) . . .
68(4) . . .
66(4) . . .
77(5) . . .
72(4) . . .
60(4) . . .
63(4) . . .
67(4) . . .
70(4) . . .
81(5) . . .
68(4) . . .
66(4) . . .
56(4) . . .
66(5) . . .
64(4) . . .
64(4) . . .
71(5) . . .
67(4) . . .
67(4) . . .
71(4) . . .
62(4) . . .
65(4) . . .
66(4) . . .
70(4) . . .
69(4) . . .
73(4) . . .
61(4) . . .
73(5) . . .
67(4) . . .
65(4) . . .
77(5) . . .
65(4) . . .
73(5) . . .
66(4) . . .
68(4) . . .
58(4) . . .
63(4) . . .
62(4) . . .
69(4) . . .
63(4) . . .
61(4) . . .
65(4) . . .
66(4) . . .
67(4) . . .
69(4) . . .
63(4) . . .
74(5) . . .
72(5) . . .
70(4) . . .
75(5) . . .
77(5) . . .
64(4) . . .
79(5) . . .
76(5) . . .
79(5) . . .
70(5) . . .
59(4) . . .
66(4) . . .
63(4) . . .
68(4) . . .
64(4) . . .
69(5) . . .
59(4) . . .
71(4) . . .
71(4) . . .
73(5) . . .
66(5) . . .
60(4) . . .
69(4) . . .
62(4) . . .
65(4) . . .
78(5) . . .
73(5) . . .
73(4) . . .
57(4) . . .
57(4) . . .
65(4) . . .
70(4) . . .
68(4) . . .
78(5) . . .
71(5) . . .
61(4) . . .
65(5) . . .
68(4) . . .
74(5) . . .
65(4) . . .
56(4) . . .
64(4) . . .
68(4) . . .
68(4) . . .
67(4) . . .
68(4) . . .
66(4) . . .
60(4) . . .
60(4) . . .
67(4) . . .
74(5) . . .
73(5) . . .
65(4) . . .
69(4) . . .
63(4) . . .
65(4) . . .
65(4) . . .
60(4) . . .
60(4) . . .
58(4) . . .
69(5) . . .
57(4) . . .
60(4) . . .
67(4) . . .
54(4) . . .
58(4) . . .
67(4) . . .
55(4) . . .
64(4) . . .
59(4) . . .
72(5) . . .
71(4) . . .
67(4) . . .
78(5) . . .
71(5) . . .
78(5) . . .
64(4) . . .
67(4) . . .
58(4) . . .
62(4) . . .
60(4) . . .
65(4) . . .
71(4) . . .
66(4) . . .
57(4) . . .
62(4) . . .
75(5) . . .
66(4) . . .
65(4) . . .
59(4) . . .
65(4) . . .
52(4) . . .
66(4) . . .
65(4) . . .
60(4) . . .
61(4) . . .
72(4) . . .
70(4) . . .
71(5) . . .
62(4) . . .
60(4) . . .
63(4) . . .
64(4) . . .
67(5) . . .
63(4) . . .
69(4) . . .
59(4) . . .
66(4) . . .
70(5) . . .
68(4) . . .
61(4) . . .
72(4) . . .
65(4) . . .
63(4) . . .
67(5) . . .
72(4) . . .
70(4) . . .
62(4) . . .
53(4) . . .
73(5) . . .
70(4) . . .
62(4) . . .
71(4) . . .
55(4) . . .
63(5) . . .
63(4) . . .
65(4) . . .
63(4) . . .
72(5) . . .
66(4) . . .
57(4) . . .
69(4) . . .
61(4) . . .
66(4) . . .
68(4) . . .
65(4) . . .
63(4) . . .
58(4) . . .
61(4) . . .
60(4) . . .
56(4) . . .
58(4) . . .
66(4) . . .
78(5) . . .
68(4) . . .
63(4) . . .
66(4) . . .
64(4) . . .
64(5) . . .
57(4) . . .
53(4) . . .
56(4) . . .
57(4) . . .
66(4) . . .
68(4) . . .
70(4) . . .
56(4) . . .
69(5) . . .
62(4) . . .
61(4) . . .
80(5) . . .
66(4) . . .
58(4) . . .
70(5) . . .
63(4) . . .
72(4) . . .
66(4) . . .
59(4) . . .
65(4) . . .
66(4) . . .
66(4) . . .
64(4) . . .
72(5) . . .
70(5) . . .
70(4) . . .
64(4) . . .
50(4) . . .
60(4) . . .
64(4) . . .
72(4) . . .
54(4) . . .
52(4) . . .
67(4) . . .
65(4) . . .
56(4) . . .
61(4) . . .
59(4) . . .
66(4) . . .
58(4) . . .
55(4) . . .
77(5) . . .
68(4) . . .
66(4) . . .
67(4) . . .
56(4) . . .
60(4) . . .
63(4) . . .
63(4) . . .
61(4) . . .
66(4) . . .
55(4) . . .
54(4) . . .
58(4) . . .
63(4) . . .
67(4) . . .
73(5) . . .
72(5) . . .
64(4) . . .
60(4) . . .
71(4) . . .
63(4) . . .
64(4) . . .
64(4) . . .
67(4) . . .
57(4) . . .
70(4) . . .
66(4) . . .
70(5) . . .
64(4) . . .
53(4) . . .
61(4) . . .
69(5) . . .
77(5) . . .
62(4) . . .
69(4) . . .
65(4) . . .
63(4) . . .
59(4) . . .
63(4) . . .
58(4) . . .
66(4) . . .
66(5) . . .
63(4) . . .
80(5) . . .
69(4) . . .
65(4) . . .
59(4) . . .
72(5) . . .
71(4) . . .
68(4) . . .
67(4) . . .
66(5) . . .
57(4) . . .
68(4) . . .
69(4) . . .
62(4) . . .
53(4) . . .
64(4) . . .
63(4) . . .
64(4) . . .
70(5) . . .
62(4) . . .
64(4) . . .
72(4) . . .
59(4) . . .
58(4) . . .
54(4) . . .
73(4) . . .
58(4) . . .
54(5) . . .
51(4) . . .
67(5) . . .
58(4) . . .
64(4) . . .
67(4) . . .
71(5) . . .
71(4) . . .
68(4) . . .
54(4) . . .
62(4) . . .
72(5) . . .
63(4) . . .
71(4) . . .
73(4) . . .
57(4) . . .
67(5) . . .
74(5) . . .
65(4) . . .
58(4) . . .
73(5) . . .
60(4) . . .
55(4) . . .
63(4) . . .
51(4) . . .
60(4) . . .
65(4) . . .
71(5) . . .
75(5) . . .
62(4) . . .
62(4) . . .
65(4) . . .
64(4) . . .
72(4) . . .
66(4) . . .
66(4) . . .
69(5) . . .
70(5) . . .
52(4) . . .
60(4) . . .
67(5) . . .
58(4) . . .
63(4) . . .
55(4) . . .
76(5) . . .
68(5) . . .
66(4) . . .
71(4) . . .
59(4) . . .
50(4) . . .
63(4) . . .
69(4) . . .
63(4) . . .
71(4) . . .
64(4) . . .
54(4) . . .
59(4) . . .
60(4) . . .
62(4) . . .
60(4) . . .
72(5) . . .
65(4) . . .
67(4) . . .
60(4) . . .
57(4) . . .
57(4) . . .
59(4) . . .
54(4) . . .
66(4) . . .
68(4) . . .
66(4) . . .
68(4) . . .
70(4) . . .
57(4) . . .
52(4) . . .
66(4) . . .
63(4) . . .
63(4) . . .
71(4) . . .
69(5) . . .
58(4) . . .
72(4) . . .
72(4) . . .
66(4) . . .
72(5) . . .
68(5) . . .
69(5) . . .
63(4) . . .
72(5) . . .
63(4) . . .
63(4) . . .
63(4) . . .
66(4) . . .
72(5) . . .
53(4) . . .
63(4) . . .
68(4) . . .
64(4) . . .
63(4) . . .
66(4) . . .
66(4) . . .
74(4) . . .
62(4) . . .
58(4) . . .
62(4) . . .
65(4) . . .
66(4) . . .
63(4) . . .
65(4) . . .
55(4) . . .
62(4) . . .
52(4) . . .
62(4) . . .
73(5) . . .
60(4) . . .
66(4) . . .
59(4) . . .
67(4) . . .
54(4) . . .
62(5) . . .
56(4) . . .
59(4) . . .
69(4) . . .
74(5) . . .
60(4) . . .
53(4) . . .
63(4) . . .
53(4) . . .
65(5) . . .
60(4) . . .
68(4) . . .
68(4) . . .
73(5) . . .
58(4) . . .
66(4) . . .
69(4) . . .
65(4) . . .
66(4) . . .
69(4) . . .
66(5) . . .
66(5) . . .
66(4) . . .
64(4) . . .
62(4) . . .
64(4) . . .
63(4) . . .
61(4) . . .
64(4) . . .
61(4) . . .
59(4) . . .
59(4) . . .
68(4) . . .
60(4) . . .
64(4) . . .
62(4) . . .
60(4) . . .
52(4) . . .
60(4) . . .
61(4) . . .
68(4) . . .
66(4) . . .
57(4) . . .
63(4) . . .
79(5) . . .
59(4) . . .
62(4) . . .
65(4) . . .
54(4) . . .
64(5) . . .
60(4) . . .
53(4) . . .
60(4) . . .
59(4) . . .
58(4) . . .
63(4) . . .
65(4) . . .
66(4) . . .
61(4) . . .
68(5) . . .
61(4) . . .
73(4) . . .
71(4) . . .
67(4) . . .
72(4) . . .
73(5) . . .
50(4) . . .
61(4) . . .
51(4) . . .
51(4) . . .
60(4) . . .
63(4) . . .
62(4) . . .
69(5) . . .
69(5) . . .
62(4) . . .
61(4) . . .
62(4) . . .
63(4) . . .
63(4) . . .
62(4) . . .
75(5) . . .
69(4) . . .
73(5) . . .
60(4) . . .
59(4) . . .
63(4) . . .
67(4) . . .
53(4) . . .
64(4) . . .
66(4) . . .
63(4) . . .
62(4) . . .
62(4) . . .
60(4) . . .
62(4) . . .
68(4) . . .
61(4) . . .
63(4) . . .
64(4) . . .
69(4) . . .
57(4) . . .
58(4) . . .
66(4) . . .
74(5) . . .
56(4) . . .
59(4) . . .
54(4) . . .
61(4) . . .
71(4) . . .
56(4) . . .
62(4) . . .
62(4) . . .
68(5) . . .
57(4) . . .
70(4) . . .
72(4) . . .
64(4) . . .
66(4) . . .
65(4) . . .
69(4) . . .
55(4) . . .
65(5) . . .
64(4) . . .
62(4) . . .
62(4) . . .
63(4) . . .
64(4) . . .
54(4) . . .
60(4) . . .
69(4) . . .
52(4) . . .
65(4) . . .
59(4) . . .
62(4) . . .
62(4) . . .
57(4) . . .
62(5) . . .
52(4) . . .
55(4) . . .
65(4) . . .
54(4) . . .
69(5) . . .
69(4) . . .
77(5) . . .
72(4) . . .
62(4) . . .
73(5) . . .
63(4) . . .
66(4) . . .
65(4) . . .
63(4) . . .
55(4) . . .
59(4) . . .
56(4) . . .
58(4) . . .
59(4) . . .
78(5) . . .
75(5) . . .
64(4) . . .
64(4) . . .
71(4) . . .
64(4) . . .
68(4) . . .
65(4) . . .
61(4) . . .
69(5) . . .
66(4) . . .
65(4) . . .
65(4) . . .
55(4) . . .
76(5) . . .
63(4) . . .
55(4) . . .
71(4) . . .
58(4) . . .
58(4) . . .
64(4) . . .
60(4) . . .
59(4) . . .
66(4) . . .
64(4) . . .
62(4) . . .
64(4) . . .
60(4) . . .
66(4) . . .
70(5) . . .
75(5) . . .
59(4) . . .
52(4) . . .
67(4) . . .
68(5) . . .
64(4) . . .
61(4) . . .
62(4) . . .
65(4) . . .
65(4) . . .
63(4) . . .
61(4) . . .
66(4) . . .
66(4) . . .
61(4) . . .
62(4) . . .
64(4) . . .
55(4) . . .
57(4) . . .
69(5) . . .
60(4) . . .
71(4) . . .
70(4) . . .
76(5) . . .
60(4) . . .
64(4) . . .
71(4) . . .
61(4) . . .
61(4) . . .
50(4) . . .
59(4) . . .
53(4) . . .
70(4) . . .
71(4) . . .
62(4) . . .
66(4) . . .
72(4) . . .
61(4) . . .
64(4) . . .
74(5) . . .
64(4) . . .
57(4) . . .
56(4) . . .
59(4) . . .
62(4) . . .
66(4) . . .
60(4) . . .
60(4) . . .
54(4) . . .
69(4) . . .
73(4) . . .
54(4) . . .
63(4) . . .
63(4) . . .
56(4) . . .
60(4) . . .
66(4) . . .
68(4) . . .
63(4) . . .
66(4) . . .
67(4) . . .
67(4) . . .
74(5) . . .
65(5) . . .
57(4) . . .
54(4) . . .
65(4) . . .
53(4) . . .
54(4) . . .
73(5) . . .
73(4) . . .
66(4) . . .
63(4) . . .
62(4) . . .
65(4) . . .
52(4) . . .
63(4) . . .
50(4) . . .
62(5) . . .
67(5) . . .
61(4) . . .
61(4) . . .
65(4) . . .
65(4) . . .
63(4) . . .
62(4) . . .
54(4) . . .
72(5) . . .
65(5) . . .
57(4) . . .
62(4) . . .
62(4) . . .
64(4) . . .
63(4) . . .
63(4) . . .
70(4) . . .
59(4) . . .
53(4) . . .
68(4) . . .
66(4) . . .
57(4) . . .
70(5) . . .
66(5) . . .
63(4) . . .
68(4) . . .
62(4) . . .
60(4) . . .
62(4) . . .
62(4) . . .
62(4) . . .
60(4) . . .
61(4) . . .
68(5) . . .
60(4) . . .
63(4) . . .
57(4) . . .
52(4) . . .
74(5) . . .
53(4) . . .
60(4) . . .
58(4) . . .
62(4) . . .
66(5) . . .
75(5) . . .
62(4) . . .
67(4) . . .
59(4) . . .
71(5) . . .
63(4) . . .
57(4) . . .
77(5) . . .
56(4) . . .
62(4) . . .
64(4) . . .
66(4) . . .
62(4) . . .
66(4) . . .
68(4) . . .
61(4) . . .
60(4) . . .
67(4) . . .
55(4) . . .
57(4) . . .
64(4) . . .
59(4) . . .
65(4) . . .
56(4) . . .
64(4) . . .
59(4) . . .
65(4) . . .
59(4) . . .
58(4) . . .
51(4) . . .
62(4) . . .
67(4) . . .
57(4) . . .
79(5) . . .
63(4) . . .
62(4) . . .
59(4) . . .
58(4) . . .
54(4) . . .
53(4) . . .
59(4) . . .
69(4) . . .
73(5) . . .
64(4) . . .
63(4) . . .
57(4) . . .
69(4) . . .
58(4) . . .
60(4) . . .
60(4) . . .
60(4) . . .
65(4) . . .
60(4) . . .
65(5) . . .
51(4) . . .
65(4) . . .
67(4) . . .
59(4) . . .
63(4) . . .
68(4) . . .
56(4) . . .
57(4) . . .
61(4) . . .
61(4) . . .
64(4) . . .
67(4) . . .
58(4) . . .
52(4) . . .
72(5) . . .
59(4) . . .
66(4) . . .
56(4) . . .
65(4) . . .
64(4) . . .
55(4) . . .
60(4) . . .
57(4) . . .
61(4) . . .
66(4) . . .
60(4) . . .
62(4) . . .
62(4) . . .
53(4) . . .
57(4) . . .
57(4) . . .
52(4) . . .
64(4) . . .
66(5) . . .
58(4) . . .
65(4) . . .
69(4) . . .
65(4) . . .
62(4) . . .
58(4) . . .
56(4) . . .
65(4) . . .
52(4) . . .
60(4) . . .
66(4) . . .
53(4) . . .
64(4) . . .
59(4) . . .
62(4) . . .
57(4) . . .
64(4) . . .
66(5) . . .
69(5) . . .
50(4) . . .
57(4) . . .
71(4) . . .
63(4) . . .
65(4) . . .
58(4) . . .
60(4) . . .
66(4) . . .
67(4) . . .
60(4) . . .
56(4) . . .
55(4) . . .
51(4) . . .
58(4) . . .
55(4) . . .
63(4) . . .
66(4) . . .
69(4) . . .
61(4) . . .
61(4) . . .
62(4) . . .
59(4) . . .
61(4) . . .
56(4) . . .
53(4) . . .
65(4) . . .
62(4) . . .
68(4) . . .
59(4) . . .
56(4) . . .
57(4) . . .
64(4) . . .
58(4) . . .
64(4) . . .
62(4) . . .
74(5) . . .
60(4) . . .
58(4) . . .
66(4) . . .
57(4) . . .
66(4) . . .
69(4) . . .
65(4) . . .
53(4) . . .
58(4) . . .
56(4) . . .
48(4) . . .
54(4) . . .
67(5) . . .
59(4) . . .
61(4) . . .
62(4) . . .
58(4) . . .
60(4) . . .
59(4) . . .
65(4) . . .
67(4) . . .
61(4) . . .
54(4) . . .
73(5) . . .
59(4) . . .
58(4) . . .
51(4) . . .
70(5) . . .
71(4) . . .
63(4) . . .
70(4) . . .
64(4) . . .
67(5) . . .
63(4) . . .
50(4) . . .
60(4) . . .
60(4) . . .
68(4) . . .
63(4) . . .
62(4) . . .
68(4) . . .
73(5) . . .
60(4) . . .
49(4) . . .
59(4) . . .
66(4) . . .
64(4) . . .
56(4) . . .
55(4) . . .
51(4) . . .
49(4) . . .
60(4) . . .
63(5) . . .
66(4) . . .
73(4) . . .
63(4) . . .
59(4) . . .
56(4) . . .
59(4) . . .
63(4) . . .
62(4) . . .
63(4) . . .
56(4) . . .
58(4) . . .
63(4) . . .
63(4) . . .
59(4) . . .
51(4) . . .
68(5) . . .
60(4) . . .
55(4) . . .
63(4) . . .
65(4) . . .
58(4) . . .
55(4) . . .
51(4) . . .
57(4) . . .
57(4) . . .
59(4) . . .
53(4) . . .
67(4) . . .
62(4) . . .
64(4) . . .
65(4) . . .
66(4) . . .
61(4) . . .
70(5) . . .
61(4) . . .
65(4) . . .
56(4) . . .
53(4) . . .
58(4) . . .
60(4) . . .
55(4) . . .
73(4) . . .
65(4) . . .
63(5) . . .
61(4) . . .
61(4) . . .
66(4) . . .
67(4) . . .
68(5) . . .
66(4) . . .
61(4) . . .
57(4) . . .
65(4) . . .
63(4) . . .
56(4) . . .
63(4) . . .
57(4) . . .
60(4) . . .
66(4) . . .
62(4) . . .
63(4) . . .
59(4) . . .
62(4) . . .
74(5) . . .
61(4) . . .
69(4) . . .
56(4) . . .
67(5) . . .
58(4) . . .
55(4) . . .
66(4) . . .
58(4) . . .
62(4) . . .
53(4) . . .
65(4) . . .
54(4) . . .
60(4) . . .
61(4) . . .
58(4) . . .
58(4) . . .
59(4) . . .
63(4) . . .
69(5) . . .
63(4) . . .
65(4) . . .
73(4) . . .
57(4) . . .
60(4) . . .
64(4) . . .
67(4) . . .
61(4) . . .
55(4) . . .
54(4) . . .
59(4) . . .
56(4) . . .
63(4) . . .
58(4) . . .
63(4) . . .
61(4) . . .
64(4) . . .
62(4) . . .
58(4) . . .
67(5) . . .
57(4) . . .
55(4) . . .
65(4) . . .
64(4) . . .
55(4) . . .
57(4) . . .
58(4) . . .
55(4) . . .
59(4) . . .
59(4) . . .
54(4) . . .
66(4) . . .
57(4) . . .
67(5) . . .
59(4) . . .
67(4) . . .
49(4) . . .
53(4) . . .
61(4) . . .
59(4) . . .
63(4) . . .
67(4) . . .
67(4) . . .
66(5) . . .
55(4) . . .
64(4) . . .
69(4) . . .
69(5) . . .
64(4) . . .
64(4) . . .
67(4) . . .
64(4) . . .
67(5) . . .
43.1(34) . . .
60(4) . . .
66(4) . . .
65(4) . . .
67(4) . . .
66(5) . . .
57(4) . . .
69(4) . . .
57(4) . . .
62(4) . . .
62(4) . . .
65(4) . . .
65(4) . . .
64(4) . . .
59(4) . . .
64(4) . . .
70(5) . . .
62(4) . . .
59(4) . . .
62(4) . . .
69(5) . . .
59(4) . . .
59(4) . . .
67(4) . . .
58(4) . . .
61(4) . . .
62(4) . . .
53(4) . . .
54(4) . . .
56(4) . . .
55(4) . . .
63(4) . . .
65(4) . . .
59(4) . . .
56(4) . . .
64(5) . . .
61(4) . . .
55(4) . . .
57(4) . . .
54(4) . . .
60(4) . . .
60(4) . . .
62(4) . . .
67(5) . . .
61(4) . . .
58(4) . . .
63(4) . . .
56(4) . . .
65(4) . . .
63(5) . . .
52(4) . . .
58(4) . . .
55(4) . . .
61(4) . . .
61(4) . . .
65(4) . . .
56(4) . . .
63(4) . . .
64(4) . . .
61(4) . . .
62(4) . . .
58(4) . . .
57(4) . . .
75(5) . . .
54(4) . . .
55(4) . . .
65(4) . . .
61(4) . . .
60(4) . . .
55(4) . . .
55(4) . . .
60(4) . . .
61(4) . . .
58(4) . . .
71(5) . . .
71(4) . . .
60(4) . . .
58(4) . . .
68(4) . . .
63(4) . . .
55(4) . . .
53(4) . . .
51(4) . . .
55(4) . . .
56(4) . . .
67(4) . . .
61(4) . . .
63(4) . . .
66(4) . . .
62(4) . . .
54(4) . . .
65(4) . . .
65(4) . . .
55(4) . . .
56(4) . . .
56(4) . . .
61(4) . . .
57(4) . . .
60(4) . . .
63(4) . . .
67(4) . . .
52(4) . . .
57(4) . . .
62(4) . . .
59(4) . . .
58(4) . . .
57(4) . . .
62(4) . . .
61(5) . . .
64(4) . . .
60(4) . . .
61(4) . . .
62(4) . . .
62(4) . . .
53(4) . . .
53(4) . . .
56(4) . . .
71(5) . . .
70(5) . . .
65(4) . . .
56(4) . . .
62(4) . . .
52(4) . . .
64(4) . . .
70(5) . . .
66(4) . . .
60(4) . . .
60(4) . . .
55(4) . . .
65(4) . . .
56(4) . . .
63(4) . . .
54(4) . . .
58(4) . . .
61(4) . . .
51(4) . . .
64(4) . . .
68(4) . . .
57(4) . . .
59(4) . . .
59(4) . . .
63(4) . . .
63(4) . . .
56(4) . . .
64(4) . . .
58(4) . . .
56(4) . . .
54(4) . . .
67(4) . . .
69(4) . . .
60(4) . . .
65(5) . . .
64(5) . . .
68(4) . . .
60(4) . . .
56(4) . . .
60(4) . . .
60(4) . . .
54(4) . . .
65(4) . . .
67(4) . . .
59(4) . . .
65(5) . . .
62(4) . . .
58(4) . . .
43.8(34) . . .
48(4) . . .
58(4) . . .
52(4) . . .
62(4) . . .
66(4) . . .
58(4) . . .
54(4) . . .
64(4) . . .
63(4) . . .
69(5) . . .
53(4) . . .
62(4) . . .
51(4) . . .
53(4) . . .
56(4) . . .
58(4) . . .
55(4) . . .
59(4) . . .
52(4) . . .
55(4) . . .
63(4) . . .
62(4) . . .
51(4) . . .
58(4) . . .
66(4) . . .
70(5) . . .
72(5) . . .
54(4) . . .
54(4) . . .
58(4) . . .
54(4) . . .
68(5) . . .
56(4) . . .
59(4) . . .
63(4) . . .
70(5) . . .
67(4) . . .
67(4) . . .
59(4) . . .
56(4) . . .
56(4) . . .
51(4) . . .
60(4) . . .
63(4) . . .
68(4) . . .
63(5) . . .
60(4) . . .
57(4) . . .
79(5) . . .
65(4) . . .
59(4) . . .
63(4) . . .
61(4) . . .
58(4) . . .
61(4) . . .
62(4) . . .
65(5) . . .
60(4) . . .
59(4) . . .
63(4) . . .
71(5) . . .
70(4) . . .
55(4) . . .
46(4) . . .
56(4) . . .
61(4) . . .
62(4) . . .
64(4) . . .
52(4) . . .
61(4) . . .
68(4) . . .
71(4) . . .
59(4) . . .
60(4) . . .
63(4) . . .
59(4) . . .
49(4) . . .
54(4) . . .
62(4) . . .
55(4) . . .
70(5) . . .
64(4) . . .
64(4) . . .
58(4) . . .
64(4) . . .
64(4) . . .
67(4) . . .
65(4) . . .
62(4) . . .
64(4) . . .
54(4) . . .
61(4) . . .
61(4) . . .
59(4) . . .
63(4) . . .
66(4) . . .
58(4) . . .
54(4) . . .
54(4) . . .
62(5) . . .
63(5) . . .
66(4) . . .
59(4) . . .
56(4) . . .
58(4) . . .
60(4) . . .
61(4) . . .
58(4) . . .
70(5) . . .
57(4) . . .
54(4) . . .
53(4) . . .
49(4) . . .
55(4) . . .
68(5) . . .
57(4) . . .
57(4) . . .
74(5) . . .
69(4) . . .
60(4) . . .
53(4) . . .
54(4) . . .
51(4) . . .
62(4) . . .
69(5) . . .
61(4) . . .
58(4) . . .
54(4) . . .
60(4) . . .
61(4) . . .
63(4) . . .
58(4) . . .
57(4) . . .
63(5) . . .
58(4) . . .
65(4) . . .
66(4) . . .
56(4) . . .
61(4) . . .
53(4) . . .
58(4) . . .
67(4) . . .
60(4) . . .
62(4) . . .
59(4) . . .
59(4) . . .
60(4) . . .
69(5) . . .
49(4) . . .
60(4) . . .
50(4) . . .
54(4) . . .
61(4) . . .
54(4) . . .
56(4) . . .
57(4) . . .
60(4) . . .
57(4) . . .
66(5) . . .
55(4) . . .
62(4) . . .
59(4) . . .
64(4) . . .
57(4) . . .
54(4) . . .
63(4) . . .
63(4) . . .
51(4) . . .
66(4) . . .
61(4) . . .
52(4) . . .
59(4) . . .
53(4) . . .
54(4) . . .
51(4) . . .
57(4) . . .
70(5) . . .
63(4) . . .
64(4) . . .
61(4) . . .
63(4) . . .
54(4) . . .
65(5) . . .
59(4) . . .
60(4) . . .
59(4) . . .
57(4) . . .
63(4) . . .
65(4) . . .
64(4) . . .
58(4) . . .
58(4) . . .
63(4) . . .
59(4) . . .
60(4) . . .
67(4) . . .
59(4) . . .
62(4) . . .
66(4) . . .
62(4) . . .
60(4) . . .
63(4) . . .
61(4) . . .
66(4) . . .
60(4) . . .
62(4) . . .
69(4) . . .
62(4) . . .
58(4) . . .
57(4) . . .
54(4) . . .
59(4) . . .
56(4) . . .
54(4) . . .
56(4) . . .
59(4) . . .
61(4) . . .
65(5) . . .
50(4) . . .
63(4) . . .
59(4) . . .
71(5) . . .
66(4) . . .
64(4) . . .
63(4) . . .
57(4) . . .
59(4) . . .
51(4) . . .
65(4) . . .
67(4) . . .
59(4) . . .
64(4) . . .
56(4) . . .
51(4) . . .
56(4) . . .
53(4) . . .
62(5) . . .
56(4) . . .
59(4) . . .
53(4) . . .
68(5) . . .
60(4) . . .
60(4) . . .
60(4) . . .
47(4) . . .
65(4) . . .
61(4) . . .
65(4) . . .
55(4) . . .
60(4) . . .
55(4) . . .
66(5) . . .
67(4) . . .
55(4) . . .
69(4) . . .
64(4) . . .
61(4) . . .
64(4) . . .
62(4) . . .
54(4) . . .
67(5) . . .
61(4) . . .
62(4) . . .
67(4) . . .
65(4) . . .
54(4) . . .
62(4) . . .
64(4) . . .
55(4) . . .
59(4) . . .
68(5) . . .
61(4) . . .
65(4) . . .
52(4) . . .
49(4) . . .
57(4) . . .
66(5) . . .
61(4) . . .
51(4) . . .
56(4) . . .
58(4) . . .
66(4) . . .
58(4) . . .
63(4) . . .
57(4) . . .
51(4) . . .
64(4) . . .
64(4) . . .
57(4) . . .
61(4) . . .
64(4) . . .
55(4) . . .
63(4) . . .
54(4) . . .
56(4) . . .
66(5) . . .
75(5) . . .
68(4) . . .
70(4) . . .
59(4) . . .
68(5) . . .
59(4) . . .
52(4) . . .
61(4) . . .
55(4) . . .
57(4) . . .
62(4) . . .
67(4) . . .
70(4) . . .
54(4) . . .
52(4) . . .
62(4) . . .
56(4) . . .
59(4) . . .
63(4) . . .
59(4) . . .
61(4) . . .
49(4) . . .
51(4) . . .
61(4) . . .
62(4) . . .
67(4) . . .
70(4) . . .
66(4) . . .
56(4) . . .
59(4) . . .
57(4) . . .
50(4) . . .
57(4) . . .
58(4) . . .
56(4) . . .
60(4) . . .
62(4) . . .
64(4) . . .
62(4) . . .
56(4) . . .
58(4) . . .
47(4) . . .
49(4) . . .
57(4) . . .
54(4) . . .
59(4) . . .
55(4) . . .
69(4) . . .
63(4) . . .
55(4) . . .
61(4) . . .
65(4) . . .
76(5) . . .
62(4) . . .
68(4) . . .
54(4) . . .
60(4) . . .
68(5) . . .
54(4) . . .
63(4) . . .
58(4) . . .
53(4) . . .
58(4) . . .
63(4) . . .
67(4) . . .
66(4) . . .
60(4) . . .
57(4) . . .
69(5) . . .
60(4) . . .
54(4) . . .
51(4) . . .
55(4) . . .
54(4) . . .
53(4) . . .
58(4) . . .
55(4) . . .
61(4) . . .
53(4) . . .
53(4) . . .
52(4) . . .
57(4) . . .
73(5) . . .
69(5) . . .
66(4) . . .
47(4) . . .
56(4) . . .
59(4) . . .
62(4) . . .
61(4) . . .
59(4) . . .
60(4) . . .
55(4) . . .
53(4) . . .
59(4) . . .
61(4) . . .
55(4) . . .
60(4) . . .
65(4) . . .
62(4) . . .
70(4) . . .
53(4) . . .
53(4) . . .
63(4) . . .
51(4) . . .
56(4) . . .
64(4) . . .
68(5) . . .
66(4) . . .
66(4) . . .
62(4) . . .
51(4) . . .
61(4) . . .
71(5) . . .
63(4) . . .
59(4) . . .
57(4) . . .
69(5) . . .
60(4) . . .
59(4) . . .
62(4) . . .
76(5) . . .
57(4) . . .
63(4) . . .
67(4) . . .
71(5) . . .
53(4) . . .
55(4) . . .
49(4) . . .
54(4) . . .
67(4) . . .
56(4) . . .
58(4) . . .
62(4) . . .
52(4) . . .
58(4) . . .
58(4) . . .
59(4) . . .
56(4) . . .
58(4) . . .
52(4) . . .
56(4) . . .
60(4) . . .
56(4) . . .
62(4) . . .
68(4) . . .
54(4) . . .
58(4) . . .
53(4) . . .
55(4) . . .
60(5) . . .
60(4) . . .
62(4) . . .
64(4) . . .
64(4) . . .
70(4) . . .
63(4) . . .
74(5) . . .
58(4) . . .
57(4) . . .
61(4) . . .
58(4) . . .
61(4) . . .
52(4) . . .
62(4) . . .
54(4) . . .
62(4) . . .
56(4) . . .
53(4) . . .
64(4) . . .
54(4) . . .
66(4) . . .
71(5) . . .
59(4) . . .
46(4) . . .
51(4) . . .
72(5) . . .
60(4) . . .
58(4) . . .
60(4) . . .
72(5) . . .
56(4) . . .
60(4) . . .
67(4) . . .
62(4) . . .
60(4) . . .
58(4) . . .
56(4) . . .
60(4) . . .
53(4) . . .
63(4) . . .
60(4) . . .
57(4) . . .
61(4) . . .
77(5) . . .
54(4) . . .
53(4) . . .
76(5) . . .
58(4) . . .
67(4) . . .
55(4) . . .
56(4) . . .
62(4) . . .
50(4) . . .
67(4) . . .
68(4) . . .
67(5) . . .
51(4) . . .
61(4) . . .
61(4) . . .
61(4) . . .
56(4) . . .
64(4) . . .
59(4) . . .
62(4) . . .
56(4) . . .
59(4) . . .
65(4) . . .
62(4) . . .
59(4) . . .
58(4) . . .
60(4) . . .
48(4) . . .
52(4) . . .
51(4) . . .
56(4) . . .
55(4) . . .
57(4) . . .
64(4) . . .
58(4) . . .
56(4) . . .
63(4) . . .
60(4) . . .
49(4) . . .
54(4) . . .
58(4) . . .
60(4) . . .
54(4) . . .
57(4) . . .
47(4) . . .
58(4) . . .
51(4) . . .
51(4) . . .
54(4) . . .
57(4) . . .
65(5) . . .
57(4) . . .
55(4) . . .
59(4) . . .
54(4) . . .
56(4) . . .
68(4) . . .
58(4) . . .
58(4) . . .
52(4) . . .
58(4) . . .
51(4) . . .
56(4) . . .
62(4) . . .
49(4) . . .
57(4) . . .
60(4) . . .
45.9(35) . . .
62(4) . . .
60(4) . . .
64(4) . . .
48(4) . . .
59(4) . . .
57(4) . . .
52(4) . . .
54(4) . . .
54(4) . . .
53(4) . . .
55(4) . . .
63(4) . . .
63(4) . . .
52(4) . . .
64(4) . . .
60(4) . . .
60(4) . . .
56(4) . . .
61(4) . . .
58(4) . . .
61(4) . . .
58(4) . . .
51(4) . . .
63(4) . . .
67(5) . . .
57(4) . . .
60(4) . . .
60(4) . . .
60(4) . . .
48(4) . . .
61(4) . . .
71(5) . . .
57(4) . . .
62(4) . . .
65(4) . . .
57(4) . . .
51(4) . . .
54(4) . . .
61(4) . . .
53(4) . . .
61(4) . . .
59(4) . . .
70(4) . . .
61(4) . . .
57(4) . . .
51(4) . . .
58(4) . . .
55(4) . . .
53(4) . . .
52(4) . . .
61(4) . . .
59(4) . . .
63(4) . . .
65(4) . . .
61(4) . . .
57(4) . . .
54(4) . . .
64(4) . . .
58(4) . . .
47(4) . . .
53(4) . . .
65(4) . . .
59(4) . . .
61(4) . . .
60(4) . . .
61(4) . . .
69(4) . . .
54(4) . . .
61(4) . . .
57(4) . . .
62(4) . . .
65(4) . . .
67(4) . . .
63(4) . . .
55(4) . . .
59(4) . . .
47(4) . . .
45.2(35) . . .
62(4) . . .
62(4) . . .
58(4) . . .
57(4) . . .
60(4) . . .
64(4) . . .
60(4) . . .
61(4) . . .
42.2(34) . . .
58(4) . . .
69(5) . . .
58(4) . . .
62(4) . . .
63(4) . . .
56(4) . . .
56(4) . . .
57(4) . . .
61(4) . . .
50(4) . . .
58(4) . . .
54(4) . . .
54(4) . . .
65(4) . . .
60(4) . . .
55(4) . . .
66(4) . . .
59(4) . . .
62(4) . . .
59(4) . . .
62(4) . . .
59(4) . . .
61(4) . . .
61(4) . . .
71(4) . . .
61(4) . . .
61(4) . . .
60(4) . . .
54(4) . . .
65(4) . . .
57(4) . . .
67(5) . . .
69(4) . . .
68(4) . . .
55(4) . . .
61(4) . . .
56(4) . . .
75(5) . . .
63(4) . . .
60(4) . . .
53(4) . . .
61(4) . . .
57(4) . . .
70(5) . . .
70(4) . . .
63(4) . . .
66(4) . . .
52(4) . . .
53(4) . . .
60(4) . . .
56(4) . . .
68(5) . . .
63(4) . . .
61(4) . . .
61(4) . . .
49(4) . . .
60(4) . . .
56(4) . . .
64(4) . . .
62(4) . . .
61(4) . . .
68(5) . . .
68(4) . . .
70(4) . . .
68(4) . . .
67(4) . . .
61(4) . . .
62(4) . . .
57(4) . . .
58(4) . . .
54(4) . . .
55(4) . . .
56(4) . . .
64(4) . . .
60(4) . . .
59(4) . . .
71(5) . . .
61(4) . . .
45.6(35) . . .
54(4) . . .
55(4) . . .
58(4) . . .
61(4) . . .
68(4) . . .
60(4) . . .
47(4) . . .
49(4) . . .
62(4) . . .
58(4) . . .
68(5) . . .
57(4) . . .
56(4) . . .
64(4) . . .
56(4) . . .
48(4) . . .
58(4) . . .
67(4) . . .
61(4) . . .
64(4) . . .
51(4) . . .
65(5) . . .
57(4) . . .
60(4) . . .
61(4) . . .
53(4) . . .
66(5) . . .
73(5) . . .
66(4) . . .
61(4) . . .
49(4) . . .
58(4) . . .
64(4) . . .
56(4) . . .
51(4) . . .
57(4) . . .
66(4) . . .
69(4) . . .
58(4) . . .
59(4) . . .
66(4) . . .
63(4) . . .
60(4) . . .
52(4) . . .
46(4) . . .
68(4) . . .
67(5) . . .
51(4) . . .
56(4) . . .
61(4) . . .
56(4) . . .
61(4) . . .
56(4) . . .
59(4) . . .
57(4) . . .
62(4) . . .
63(4) . . .
59(4) . . .
61(4) . . .
61(4) . . .
52(4) . . .
66(4) . . .
57(4) . . .
61(4) . . .
62(4) . . .
66(5) . . .
61(4) . . .
59(4) . . .
56(4) . . .
55(4) . . .
56(4) . . .
53(4) . . .
65(4) . . .
60(4) . . .
64(5) . . .
59(4) . . .
59(4) . . .
60(4) . . .
63(4) . . .
54(4) . . .
62(4) . . .
56(4) . . .
59(4) . . .
50(4) . . .
53(4) . . .
62(4) . . .
61(4) . . .
58(4) . . .
57(4) . . .
56(4) . . .
65(4) . . .
67(4) . . .
69(4) . . .
54(4) . . .
58(4) . . .
54(4) . . .
56(4) . . .
52(4) . . .
54(4) . . .
64(4) . . .
57(4) . . .
54(4) . . .
49(4) . . .
59(4) . . .
62(4) . . .
47(4) . . .
58(4) . . .
51(4) . . .
52(4) . . .
56(4) . . .
44(4) . . .
57(4) . . .
62(4) . . .
59(4) . . .
57(4) . . .
54(4) . . .
52(4) . . .
52(4) . . .
58(4) . . .
63(4) . . .
60(4) . . .
51(4) . . .
56(4) . . .
65(4) . . .
59(4) . . .
62(4) . . .
62(4) . . .
55(4) . . .
76(5) . . .
56(4) . . .
61(4) . . .
58(4) . . .
56(4) . . .
54(4) . . .
52(4) . . .
42.5(35) . . .
56(4) . . .
54(4) . . .
56(4) . . .
50(4) . . .
51(4) . . .
63(4) . . .
56(4) . . .
57(4) . . .
57(4) . . .
66(4) . . .
48(4) . . .
62(4) . . .
64(4) . . .
47(4) . . .
64(4) . . .
66(4) . . .
51(4) . . .
44.2(34) . . .
61(4) . . .
58(4) . . .
55(4) . . .
54(4) . . .
58(4) . . .
59(4) . . .
58(4) . . .
59(4) . . .
61(4) . . .
52(4) . . .
60(4) . . .
52(4) . . .
64(4) . . .
54(4) . . .
64(4) . . .
54(4) . . .
49(4) . . .
58(4) . . .
54(4) . . .
58(4) . . .
61(4) . . .
52(4) . . .
49(4) . . .
55(4) . . .
55(4) . . .
55(4) . . .
48(4) . . .
60(4) . . .
58(4) . . .
69(5) . . .
52(4) . . .
56(4) . . .
70(4) . . .
67(4) . . .
63(4) . . .
69(5) . . .
48(4) . . .
53(4) . . .
48(4) . . .
59(4) . . .
55(4) . . .
58(4) . . .
52(4) . . .
58(4) . . .
60(4) . . .
59(4) . . .
51(4) . . .
68(4) . . .
58(4) . . .
56(4) . . .
59(4) . . .
62(4) . . .
61(4) . . .
61(4) . . .
61(4) . . .
54(4) . . .
56(4) . . .
53(4) . . .
52(4) . . .
62(4) . . .
65(4) . . .
56(4) . . .
53(4) . . .
56(4) . . .
52(4) . . .
64(4) . . .
60(4) . . .
61(4) . . .
57(4) . . .
48(4) . . .
62(4) . . .
68(4) . . .
55(4) . . .
57(4) . . .
61(4) . . .
63(4) . . .
60(4) . . .
64(4) . . .
58(4) . . .
53(4) . . .
58(4) . . .
65(4) . . .
59(4) . . .
54(4) . . .
54(4) . . .
55(4) . . .
55(4) . . .
52(4) . . .
58(4) . . .
53(4) . . .
62(4) . . .
59(4) . . .
52(4) . . .
66(4) . . .
57(4) . . .
44.9(35) . . .
52(4) . . .
60(4) . . .
59(4) . . .
55(4) . . .
57(4) . . .
60(4) . . .
61(4) . . .
59(4) . . .
59(4) . . .
55(4) . . .
53(4) . . .
57(4) . . .
50(4) . . .
54(4) . . .
60(4) . . .
61(4) . . .
49(4) . . .
54(4) . . .
55(4) . . .
54(4) . . .
55(4) . . .
55(4) . . .
62(4) . . .
48(4) . . .
60(4) . . .
57(4) . . .
50(4) . . .
59(4) . . .
50(4) . . .
58(4) . . .
61(4) . . .
57(4) . . .
53(4) . . .
65(4) . . .
57(4) . . .
66(4) . . .
59(4) . . .
67(4) . . .
58(4) . . .
58(4) . . .
60(4) . . .
48(4) . . .
48(4) . . .
60(4) . . .
58(4) . . .
65(5) . . .
50(4) . . .
57(4) . . .
62(4) . . .
64(4) . . .
56(4) . . .
66(5) . . .
57(4) . . .
66(4) . . .
51(4) . . .
50(4) . . .
71(5) . . .
67(4) . . .
60(4) . . .
56(4) . . .
55(4) . . .
62(4) . . .
64(4) . . .
71(4) . . .
60(4) . . .
61(4) . . .
52(4) . . .
59(4) . . .
48(4) . . .
63(4) . . .
69(5) . . .
68(5) . . .
70(4) . . .
58(4) . . .
47(4) . . .
54(4) . . .
47(4) . . .
57(4) . . .
56(4) . . .
55(4) . . .
50(4) . . .
49(4) . . .
58(4) . . .
53(4) . . .
56(4) . . .
51(4) . . .
58(4) . . .
58(4) . . .
59(4) . . .
55(4) . . .
47(4) . . .
47(4) . . .
51(4) . . .
60(4) . . .
60(4) . . .
59(4) . . .
55(4) . . .
57(4) . . .
52(4) . . .
59(4) . . .
60(4) . . .
56(4) . . .
53(4) . . .
67(5) . . .
60(4) . . .
58(4) . . .
51(4) . . .
63(4) . . .
60(4) . . .
63(4) . . .
64(4) . . .
44.8(35) . . .
62(4) . . .
67(5) . . .
63(4) . . .
55(4) . . .
62(4) . . .
54(4) . . .
47(4) . . .
51(4) . . .
52(4) . . .
53(4) . . .
52(4) . . .
61(4) . . .
58(4) . . .
55(4) . . .
61(4) . . .
61(4) . . .
48(4) . . .
57(4) . . .
50(4) . . .
59(4) . . .
60(4) . . .
60(4) . . .
55(4) . . .
55(4) . . .
55(4) . . .
63(4) . . .
71(4) . . .
62(4) . . .
55(4) . . .
54(4) . . .
58(4) . . .
54(4) . . .
53(4) . . .
46(4) . . .
65(4) . . .
60(4) . . .
44(4) . . .
62(4) . . .
66(4) . . .
66(4) . . .
60(4) . . .
51(4) . . .
55(4) . . .
60(4) . . .
52(4) . . .
58(4) . . .
53(4) . . .
61(4) . . .
54(4) . . .
67(4) . . .
66(5) . . .
56(4) . . .
61(4) . . .
57(4) . . .
59(4) . . .
47(4) . . .
56(4) . . .
54(4) . . .
55(4) . . .
52(4) . . .
58(4) . . .
50(4) . . .
54(4) . . .
52(4) . . .
68(4) . . .
70(5) . . .
52(4) . . .
62(4) . . .
70(4) . . .
68(4) . . .
51(4) . . .
58(4) . . .
56(4) . . .
59(4) . . .
55(4) . . .
59(4) . . .
64(4) . . .
62(4) . . .
53(4) . . .
52(4) . . .
61(4) . . .
56(4) . . .
59(4) . . .
58(4) . . .
57(4) . . .
52(4) . . .
63(4) . . .
63(4) . . .
64(4) . . .
55(4) . . .
49(4) . . .
56(4) . . .
56(4) . . .
67(4) . . .
66(4) . . .
54(4) . . .
54(4) . . .
63(4) . . .
49(4) . . .
59(4) . . .
67(5) . . .
58(4) . . .
54(4) . . .
55(4) . . .
57(4) . . .
58(4) . . .
61(4) . . .
52(4) . . .
60(4) . . .
51(4) . . .
57(4) . . .
59(4) . . .
66(4) . . .
50(4) . . .
53(4) . . .
58(4) . . .
59(4) . . .
56(4) . . .
52(4) . . .
59(4) . . .
60(4) . . .
73(5) . . .
52(4) . . .
51(4) . . .
56(4) . . .
64(4) . . .
55(4) . . .
48(4) . . .
68(4) . . .
65(4) . . .
66(5) . . .
56(4) . . .
51(4) . . .
55(4) . . .
67(4) . . .
47(4) . . .
59(4) . . .
53(4) . . .
53(4) . . .
53(4) . . .
59(4) . . .
58(4) . . .
61(4) . . .
48(4) . . .
52(4) . . .
53(4) . . .
47(4) . . .
65(4) . . .
69(4) . . .
68(5) . . .
59(4) . . .
57(4) . . .
57(4) . . .
59(4) . . .
60(4) . . .
60(4) . . .
60(4) . . .
58(4) . . .
52(4) . . .
52(4) . . .
52(4) . . .
47(4) . . .
56(4) . . .
62(4) . . .
57(4) . . .
51(4) . . .
51(4) . . .
59(4) . . .
52(4) . . .
58(4) . . .
60(4) . . .
58(4) . . .
52(4) . . .
67(5) . . .
67(5) . . .
57(4) . . .
64(4) . . .
69(4) . . .
53(4) . . .
53(4) . . .
57(4) . . .
57(4) . . .
51(4) . . .
56(4) . . .
56(4) . . .
65(5) . . .
57(4) . . .
52(4) . . .
57(4) . . .
64(4) . . .
59(4) . . .
56(4) . . .
58(4) . . .
58(4) . . .
53(4) . . .
56(4) . . .
55(4) . . .
53(4) . . .
68(5) . . .
55(4) . . .
57(4) . . .
56(4) . . .
70(5) . . .
61(4) . . .
59(4) . . .
54(4) . . .
62(4) . . .
59(4) . . .
65(4) . . .
54(4) . . .
62(4) . . .
57(4) . . .
57(4) . . .
51(4) . . .
54(4) . . .
61(4) . . .
54(4) . . .
51(4) . . .
54(4) . . .
46(4) . . .
67(4) . . .
54(4) . . .
58(4) . . .
47(4) . . .
60(5) . . .
57(4) . . .
59(4) . . .
52(4) . . .
56(4) . . .
55(4) . . .
61(4) . . .
56(4) . . .
57(4) . . .
67(4) . . .
62(4) . . .
64(4) . . .
43.9(34) . . .
53(4) . . .
66(5) . . .
55(4) . . .
59(4) . . .
60(4) . . .
71(5) . . .
70(5) . . .
70(5) . . .
68(4) . . .
52(4) . . .
62(4) . . .
55(4) . . .
63(4) . . .
50(4) . . .
57(4) . . .
54(4) . . .
49(4) . . .
46.3(35) . . .
60(4) . . .
55(4) . . .
63(4) . . .
56(4) . . .
56(4) . . .
53(4) . . .
44.2(35) . . .
50(4) . . .
49(4) . . .
57(4) . . .
59(4) . . .
44(4) . . .
51(4) . . .
52(4) . . .
53(4) . . .
65(4) . . .
60(4) . . .
46(4) . . .
54(4) . . .
58(4) . . .
62(4) . . .
59(4) . . .
48(4) . . .
59(4) . . .
57(4) . . .
54(4) . . .
61(4) . . .
62(4) . . .
64(4) . . .
65(4) . . .
52(4) . . .
61(4) . . .
56(4) . . .
69(4) . . .
62(4) . . .
59(4) . . .
54(4) . . .
58(4) . . .
66(4) . . .
46(4) . . .
51(4) . . .
40.9(34) . . .
68(5) . . .
53(4) . . .
53(4) . . .
51(4) . . .
55(4) . . .
60(4) . . .
50(4) . . .
57(4) . . .
62(4) . . .
51(4) . . .
56(4) . . .
51(4) . . .
55(4) . . .
59(4) . . .
45(4) . . .
57(4) . . .
64(4) . . .
58(4) . . .
46.3(35) . . .
64(5) . . .
55(4) . . .
57(4) . . .
50(4) . . .
60(4) . . .
60(4) . . .
60(4) . . .
58(4) . . .
63(4) . . .
61(4) . . .
53(4) . . .
55(4) . . .
56(4) . . .
59(4) . . .
49(4) . . .
69(5) . . .
55(4) . . .
59(4) . . .
47(4) . . .
52(4) . . .
55(4) . . .
61(4) . . .
52(4) . . .
48(4) . . .
53(4) . . .
57(4) . . .
50(4) . . .
55(4) . . .
58(4) . . .
58(4) . . .
54(4) . . .
55(4) . . .
54(4) . . .
61(4) . . .
49(4) . . .
49(4) . . .
48(4) . . .
49(4) . . .
60(4) . . .
56(4) . . .
55(4) . . .
61(4) . . .
66(4) . . .
58(4) . . .
53(4) . . .
52(4) . . .
47(4) . . .
58(4) . . .
60(4) . . .
51(4) . . .
60(4) . . .
51(4) . . .
53(4) . . .
61(4) . . .
56(4) . . .
59(4) . . .
51(4) . . .
70(4) . . .
58(4) . . .
55(4) . . .
49(4) . . .
58(4) . . .
54(4) . . .
56(4) . . .
58(4) . . .
71(5) . . .
53(4) . . .
54(4) . . .
66(5) . . .
60(4) . . .
60(4) . . .
56(4) . . .
61(4) . . .
60(4) . . .
51(4) . . .
65(4) . . .
62(4) . . .
62(4) . . .
50(4) . . .
51(4) . . .
54(4) . . .
59(4) . . .
52(4) . . .
60(4) . . .
53(4) . . .
51(4) . . .
52(4) . . .
54(4) . . .
49(4) . . .
49(4) . . .
48(4) . . .
54(4) . . .
63(4) . . .
59(4) . . .
60(4) . . .
61(4) . . .
48(4) . . .
59(4) . . .
62(5) . . .
53(4) . . .
47(4) . . .
46(4) . . .
44(4) . . .
52(4) . . .
50(4) . . .
55(4) . . .
55(4) . . .
55(4) . . .
65(5) . . .
55(4) . . .
55(4) . . .
59(4) . . .
62(4) . . .
55(4) . . .
47(4) . . .
55(4) . . .
57(4) . . .
63(4) . . .
46(4) . . .
57(4) . . .
60(4) . . .
51(4) . . .
58(4) . . .
59(4) . . .
63(4) . . .
62(4) . . .
58(4) . . .
59(4) . . .
68(5) . . .
50(4) . . .
53(4) . . .
55(4) . . .
58(4) . . .
62(4) . . .
60(4) . . .
49(4) . . .
52(4) . . .
58(4) . . .
46.1(35) . . .
59(4) . . .
64(4) . . .
50(4) . . .
60(4) . . .
60(4) . . .
70(4) . . .
53(4) . . .
56(4) . . .
64(4) . . .
57(4) . . .
61(4) . . .
52(4) . . .
64(4) . . .
54(4) . . .
66(4) . . .
55(4) . . .
54(4) . . .
59(4) . . .
48(4) . . .
55(4) . . .
62(4) . . .
61(4) . . .
48(4) . . .
51(4) . . .
53(4) . . .
60(4) . . .
60(4) . . .
64(4) . . .
65(4) . . .
54(4) . . .
54(4) . . .
54(4) . . .
58(4) . . .
49(4) . . .
54(4) . . .
59(4) . . .
56(4) . . .
51(4) . . .
57(4) . . .
51(4) . . .
60(4) . . .
61(4) . . .
53(4) . . .
55(4) . . .
52(4) . . .
74(4) . . .
64(4) . . .
56(4) . . .
49(4) . . .
61(4) . . .
47(4) . . .
59(4) . . .
54(4) . . .
72(5) . . .
64(4) . . .
51(4) . . .
59(4) . . .
56(4) . . .
54(4) . . .
50(4) . . .
62(4) . . .
60(4) . . .
63(4) . . .
54(4) . . .
50(4) . . .
59(4) . . .
59(4) . . .
62(5) . . .
54(4) . . .
56(4) . . .
66(4) . . .
64(4) . . .
58(4) . . .
58(4) . . .
57(4) . . .
57(4) . . .
54(4) . . .
49(4) . . .
48(4) . . .
65(4) . . .
61(4) . . .
62(4) . . .
48(4) . . .
56(4) . . .
52(4) . . .
57(4) . . .
71(5) . . .
71(4) . . .
56(4) . . .
60(4) . . .
60(4) . . .
56(4) . . .
66(4) . . .
52(4) . . .
54(4) . . .
56(4) . . .
58(4) . . .
76(5) . . .
64(4) . . .
57(4) . . .
54(4) . . .
51(4) . . .
57(4) . . .
57(4) . . .
63(4) . . .
52(4) . . .
48(4) . . .
49(4) . . .
54(4) . . .
45.5(35) . . .
56(4) . . .
61(4) . . .
66(4) . . .
55(4) . . .
55(4) . . .
52(4) . . .
57(4) . . .
55(4) . . .
61(4) . . .
67(4) . . .
57(4) . . .
54(4) . . .
56(4) . . .
47(4) . . .
56(4) . . .
54(4) . . .
61(4) . . .
51(4) . . .
57(4) . . .
48(4) . . .
57(4) . . .
55(4) . . .
57(4) . . .
51(4) . . .
55(4) . . .
55(4) . . .
48(4) . . .
58(4) . . .
70(4) . . .
60(4) . . .
62(4) . . .
56(4) . . .
65(5) . . .
48(4) . . .
55(4) . . .
65(4) . . .
58(4) . . .
58(4) . . .
53(4) . . .
61(4) . . .
65(4) . . .
49(4) . . .
65(4) . . .
58(4) . . .
58(4) . . .
55(4) . . .
54(4) . . .
53(4) . . .
59(4) . . .
65(4) . . .
63(4) . . .
61(4) . . .
64(4) . . .
54(4) . . .
58(4) . . .
65(4) . . .
55(4) . . .
49(4) . . .
62(4) . . .
44(4) . . .
50(4) . . .
51(4) . . .
49(4) . . .
51(4) . . .
54(4) . . .
55(4) . . .
47(4) . . .
46(4) . . .
59(4) . . .
52(4) . . .
56(4) . . .
53(4) . . .
51(4) . . .
57(4) . . .
65(4) . . .
61(4) . . .
63(4) . . .
64(4) . . .
56(4) . . .
56(4) . . .
59(4) . . .
65(4) . . .
49(4) . . .
52(4) . . .
59(4) . . .
47(4) . . .
54(4) . . .
57(4) . . .
50(4) . . .
61(4) . . .
57(4) . . .
44.9(35) . . .
63(4) . . .
55(4) . . .
53(4) . . .
49(4) . . .
48(4) . . .
56(4) . . .
62(4) . . .
58(4) . . .
60(4) . . .
70(4) . . .
57(4) . . .
64(4) . . .
71(5) . . .
56(4) . . .
60(4) . . .
65(4) . . .
59(4) . . .
47(4) . . .
46(4) . . .
51(4) . . .
54(4) . . .
53(4) . . .
48(4) . . .
62(5) . . .
62(4) . . .
63(4) . . .
60(4) . . .
64(4) . . .
62(4) . . .
60(4) . . .
57(4) . . .
61(4) . . .
48(4) . . .
56(4) . . .
67(4) . . .
64(4) . . .
57(4) . . .
59(4) . . .
57(4) . . .
45.8(35) . . .
53(4) . . .
57(4) . . .
59(4) . . .
63(4) . . .
56(4) . . .
58(4) . . .
65(5) . . .
50(4) . . .
52(4) . . .
51(4) . . .
67(4) . . .
59(4) . . .
52(4) . . .
67(4) . . .
49(4) . . .
55(4) . . .
58(4) . . .
54(4) . . .
56(4) . . .
50(4) . . .
63(4) . . .
67(5) . . .
52(4) . . .
55(4) . . .
64(4) . . .
53(4) . . .
55(4) . . .
72(5) . . .
51(4) . . .
61(4) . . .
64(4) . . .
56(4) . . .
52(4) . . .
58(4) . . .
54(4) . . .
63(4) . . .
66(4) . . .
72(5) . . .
62(4) . . .
66(4) . . .
56(4) . . .
61(4) . . .
54(4) . . .
61(4) . . .
60(4) . . .
62(4) . . .
52(4) . . .
47(4) . . .
58(4) . . .
56(4) . . .
56(4) . . .
65(5) . . .
52(4) . . .
58(4) . . .
66(5) . . .
60(4) . . .
51(4) . . .
59(4) . . .
57(4) . . .
54(4) . . .
54(4) . . .
51(4) . . .
54(4) . . .
46(4) . . .
52(4) . . .
49(4) . . .
61(4) . . .
53(4) . . .
57(4) . . .
53(4) . . .
52(4) . . .
52(4) . . .
58(4) . . .
62(4) . . .
51(4) . . .
55(4) . . .
52(4) . . .
68(4) . . .
63(4) . . .
72(5) . . .
61(4) . . .
60(4) . . .
56(4) . . .
56(4) . . .
63(5) . . .
55(4) . . .
63(4) . . .
61(4) . . .
57(4) . . .
70(5) . . .
65(4) . . .
59(4) . . .
63(4) . . .
58(4) . . .
56(4) . . .
58(4) . . .
49(4) . . .
53(4) . . .
53(4) . . .
52(4) . . .
50(4) . . .
74(5) . . .
54(4) . . .
60(4) . . .
65(4) . . .
54(4) . . .
60(4) . . .
62(4) . . .
44.6(35) . . .
56(4) . . .
54(4) . . .
56(4) . . .
51(4) . . .
66(4) . . .
53(4) . . .
56(4) . . .
62(4) . . .
59(4) . . .
49(4) . . .
53(4) . . .
68(4) . . .
53(4) . . .
56(4) . . .
53(4) . . .
55(4) . . .
63(4) . . .
52(4) . . .
57(4) . . .
54(4) . . .
60(4) . . .
62(4) . . .
63(4) . . .
65(4) . . .
56(4) . . .
47(4) . . .
67(5) . . .
57(4) . . .
51(4) . . .
58(4) . . .
61(4) . . .
54(4) . . .
64(4) . . .
49(4) . . .
53(4) . . .
60(4) . . .
69(4) . . .
52(4) . . .
52(4) . . .
61(4) . . .
53(4) . . .
53(4) . . .
53(4) . . .
62(4) . . .
66(4) . . .
57(4) . . .
54(4) . . .
53(4) . . .
53(4) . . .
52(4) . . .
53(4) . . .
59(4) . . .
39.2(33) . . .
56(4) . . .
50(4) . . .
62(4) . . .
67(4) . . .
54(4) . . .
50(4) . . .
51(4) . . .
48(4) . . .
64(4) . . .
56(4) . . .
55(4) . . .
62(4) . . .
56(4) . . .
57(4) . . .
73(5) . . .
58(4) . . .
56(4) . . .
59(4) . . .
66(4) . . .
61(4) . . .
60(4) . . .
67(4) . . .
57(4) . . .
51(4) . . .
50(4) . . .
55(4) . . .
68(5) . . .
56(4) . . .
57(4) . . .
57(4) . . .
56(4) . . .
60(4) . . .
67(5) . . .
58(4) . . .
58(4) . . .
51(4) . . .
60(4) . . .
59(4) . . .
52(4) . . .
52(4) . . .
59(4) . . .
57(4) . . .
57(4) . . .
62(4) . . .
61(4) . . .
54(4) . . .
68(5) . . .
61(4) . . .
55(4) . . .
54(4) . . .
53(4) . . .
63(4) . . .
52(4) . . .
66(4) . . .
64(4) . . .
54(4) . . .
52(4) . . .
69(4) . . .
50(4) . . .
47(4) . . .
69(5) . . .
53(4) . . .
59(4) . . .
56(4) . . .
61(4) . . .
57(4) . . .
63(4) . . .
52(4) . . .
61(4) . . .
57(4) . . .
53(4) . . .
56(4) . . .
48(4) . . .
51(4) . . .
61(4) . . .
57(4) . . .
65(4) . . .
59(4) . . .
49(4) . . .
60(4) . . .
54(4) . . .
49(4) . . .
55(4) . . .
47(4) . . .
57(4) . . .
63(4) . . .
55(4) . . .
43.9(35) . . .
55(4) . . .
65(4) . . .
55(4) . . .
52(4) . . .
54(4) . . .
55(4) . . .
64(4) . . .
63(4) . . .
53(4) . . .
53(4) . . .
52(4) . . .
49(4) . . .
57(4) . . .
65(4) . . .
63(4) . . .
57(4) . . .
58(4) . . .
61(4) . . .
61(4) . . .
44(4) . . .
54(4) . . .
57(4) . . .
67(4) . . .
55(4) . . .
61(4) . . .
54(4) . . .
58(4) . . .
58(4) . . .
60(4) . . .
45(4) . . .
55(4) . . .
59(4) . . .
53(4) . . .
63(4) . . .
57(4) . . .
56(4) . . .
53(4) . . .
56(4) . . .
56(4) . . .
52(4) . . .
52(4) . . .
55(4) . . .
53(4) . . .
50(4) . . .
55(4) . . .
47(4) . . .
57(4) . . .
47(4) . . .
60(4) . . .
53(4) . . .
52(4) . . .
53(4) . . .
51(4) . . .
43.0(34) . . .
60(4) . . .
50(4) . . .
50(4) . . .
41.9(33) . . .
48(4) . . .
53(4) . . .
67(5) . . .
62(4) . . .
55(4) . . .
54(4) . . .
60(4) . . .
63(4) . . .
66(4) . . .
61(4) . . .
48(4) . . .
58(4) . . .
53(4) . . .
46(4) . . .
55(4) . . .
65(4) . . .
47(4) . . .
54(4) . . .
55(4) . . .
50(4) . . .
48(4) . . .
50(4) . . .
54(4) . . .
65(4) . . .
61(4) . . .
65(4) . . .
61(4) . . .
55(4) . . .
66(4) . . .
50(4) . . .
59(4) . . .
58(4) . . .
57(4) . . .
60(4) . . .
45.3(35) . . .
61(4) . . .
61(4) . . .
62(4) . . .
53(4) . . .
50(4) . . .
54(4) . . .
55(4) . . .
57(4) . . .
55(4) . . .
58(4) . . .
57(4) . . .
53(4) . . .
52(4) . . .
52(4) . . .
53(4) . . .
43.3(35) . . .
47(4) . . .
51(4) . . .
59(4) . . .
45(4) . . .
56(4) . . .
49(4) . . .
59(4) . . .
52(4) . . .
59(4) . . .
59(4) . . .
63(4) . . .
54(4) . . .
51(4) . . .
55(4) . . .
62(4) . . .
50(4) . . .
51(4) . . .
56(4) . . .
59(4) . . .
45(4) . . .
54(4) . . .
50(4) . . .
58(4) . . .
57(4) . . .
58(4) . . .
58(4) . . .
57(4) . . .
50(4) . . .
58(4) . . .
55(4) . . .
57(4) . . .
53(4) . . .
53(4) . . .
51(4) . . .
63(4) . . .
48(4) . . .
60(4) . . .
59(4) . . .
55(4) . . .
60(4) . . .
61(4) . . .
59(4) . . .
55(4) . . .
51(4) . . .
46(4) . . .
55(4) . . .
54(4) . . .
46(4) . . .
56(4) . . .
53(4) . . .
50(4) . . .
48(4) . . .
50(4) . . .
54(4) . . .
52(4) . . .
53(4) . . .
62(4) . . .
61(4) . . .
56(4) . . .
52(4) . . .
51(4) . . .
49(4) . . .
58(4) . . .
54(4) . . .
58(4) . . .
63(4) . . .
53(4) . . .
50(4) . . .
55(4) . . .
61(4) . . .
56(4) . . .
64(4) . . .
60(4) . . .
59(4) . . .
60(4) . . .
53(4) . . .
48(4) . . .
58(4) . . .
58(4) . . .
62(4) . . .
63(4) . . .
52(4) . . .
57(4) . . .
55(4) . . .
48(4) . . .
60(4) . . .
57(4) . . .
61(4) . . .
58(4) . . .
60(4) . . .
55(4) . . .
65(4) . . .
63(4) . . .
62(4) . . .
49(4) . . .
56(4) . . .
67(4) . . .
63(4) . . .
61(4) . . .
62(4) . . .
54(4) . . .
65(4) . . .
58(4) . . .
60(4) . . .
56(4) . . .
58(4) . . .
53(4) . . .
52(4) . . .
54(4) . . .
51(4) . . .
44.8(35) . . .
47(4) . . .
52(4) . . .
47(4) . . .
51(4) . . .
59(4) . . .
51(4) . . .
57(4) . . .
54(4) . . .
47(4) . . .
55(4) . . .
51(4) . . .
57(4) . . .
52(4) . . .
62(4) . . .
54(4) . . .
59(4) . . .
46(4) . . .
55(4) . . .
50(4) . . .
50(4) . . .
53(4) . . .
62(4) . . .
69(5) . . .
54(4) . . .
52(4) . . .
59(4) . . .
57(4) . . .
61(4) . . .
55(4) . . .
50(4) . . .
61(4) . . .
50(4) . . .
55(4) . . .
67(5) . . .
60(4) . . .
56(4) . . .
47.0(35) . . .
62(4) . . .
55(4) . . .
50(4) . . .
53(4) . . .
62(5) . . .
57(4) . . .
47(4) . . .
59(4) . . .
49(4) . . .
54(4) . . .
49(4) . . .
54(4) . . .
60(4) . . .
62(4) . . .
52(4) . . .
47(4) . . .
60(4) . . .
56(4) . . .
53(4) . . .
53(4) . . .
60(4) . . .
53(4) . . .
52(4) . . .
57(4) . . .
61(4) . . .
62(4) . . .
54(4) . . .
61(4) . . .
58(4) . . .
58(4) . . .
59(4) . . .
49(4) . . .
56(4) . . .
49(4) . . .
55(4) . . .
52(4) . . .
51(4) . . .
56(4) . . .
50(4) . . .
61(4) . . .
58(4) . . .
46(4) . . .
47(4) . . .
62(4) . . .
52(4) . . .
51(4) . . .
56(4) . . .
60(4) . . .
56(4) . . .
63(4) . . .
68(4) . . .
62(4) . . .
53(4) . . .
57(4) . . .
62(4) . . .
70(5) . . .
55(4) . . .
65(4) . . .
62(4) . . .
60(4) . . .
57(4) . . .
66(4) . . .
67(4) . . .
62(4) . . .
59(4) . . .
51(4) . . .
49(4) . . .
55(4) . . .
55(4) . . .
54(4) . . .
53(4) . . .
52(4) . . .
65(4) . . .
56(4) . . .
62(5) . . .
55(4) . . .
64(4) . . .
66(4) . . .
54(4) . . .
56(4) . . .
56(4) . . .
63(4) . . .
54(4) . . .
57(4) . . .
60(4) . . .
60(4) . . .
56(4) . . .
55(4) . . .
55(4) . . .
51(4) . . .
53(4) . . .
47(4) . . .
54(4) . . .
56(4) . . .
57(4) . . .
54(4) . . .
52(4) . . .
53(4) . . .
59(4) . . .
48(4) . . .
62(4) . . .
61(4) . . .
57(4) . . .
61(4) . . .
54(4) . . .
43.5(35) . . .
52(4) . . .
60(4) . . .
50(4) . . .
55(4) . . .
57(4) . . .
53(4) . . .
60(4) . . .
52(4) . . .
52(4) . . .
48(4) . . .
62(4) . . .
67(5) . . .
58(4) . . .
62(4) . . .
55(4) . . .
48(4) . . .
52(4) . . .
57(4) . . .
55(4) . . .
54(4) . . .
58(4) . . .
56(4) . . .
54(4) . . .
48(4) . . .
58(4) . . .
57(4) . . .
55(4) . . .
59(4) . . .
56(4) . . .
46(4) . . .
60(4) . . .
58(4) . . .
56(4) . . .
55(4) . . .
54(4) . . .
66(4) . . .
63(4) . . .
62(4) . . .
55(4) . . .
53(4) . . .
51(4) . . .
58(4) . . .
56(4) . . .
51(4) . . .
57(4) . . .
58(4) . . .
65(4) . . .
64(4) . . .
62(4) . . .
57(4) . . .
55(4) . . .
57(4) . . .
53(4) . . .
52(4) . . .
48(4) . . .
60(4) . . .
57(4) . . .
57(4) . . .
53(4) . . .
62(4) . . .
56(4) . . .
47(4) . . .
62(4) . . .
52(4) . . .
55(4) . . .
52(4) . . .
47(4) . . .
48(4) . . .
54(4) . . .
48(4) . . .
60(4) . . .
53(4) . . .
65(4) . . .
58(4) . . .
62(4) . . .
56(4) . . .
45.7(35) . . .
61(4) . . .
58(4) . . .
50(4) . . .
55(4) . . .
61(4) . . .
61(4) . . .
63(4) . . .
62(4) . . .
51(4) . . .
57(4) . . .
67(4) . . .
57(4) . . .
56(4) . . .
53(4) . . .
54(4) . . .
56(4) . . .
58(4) . . .
48(4) . . .
57(4) . . .
49(4) . . .
55(4) . . .
59(4) . . .
53(4) . . .
55(4) . . .
62(4) . . .
53(4) . . .
53(4) . . .
52(4) . . .
45(4) . . .
56(4) . . .
66(4) . . .
62(4) . . .
62(4) . . .
52(4) . . .
58(4) . . .
59(4) . . .
64(4) . . .
59(4) . . .
54(4) . . .
72(4) . . .
57(4) . . .
61(4) . . .
60(4) . . .
59(4) . . .
60(4) . . .
64(4) . . .
54(4) . . .
60(4) . . .
52(4) . . .
57(4) . . .
53(4) . . .
55(4) . . .
49(4) . . .
70(5) . . .
61(4) . . .
55(4) . . .
59(4) . . .
55(4) . . .
49(4) . . .
48(4) . . .
59(4) . . .
55(4) . . .
59(4) . . .
52(4) . . .
62(4) . . .
64(4) . . .
53(4) . . .
58(4) . . .
51(4) . . .
46(4) . . .
49(4) . . .
50(4) . . .
60(4) . . .
60(4) . . .
63(4) . . .
62(4) . . .
51(4) . . .
46(4) . . .
49(4) . . .
47(4) . . .
62(4) . . .
61(4) . . .
65(4) . . .
61(4) . . .
51(4) . . .
62(4) . . .
57(4) . . .
64(4) . . .
54(4) . . .
63(4) . . .
57(4) . . .
57(4) . . .
56(4) . . .
57(4) . . .
63(4) . . .
51(4) . . .
49(4) . . .
56(4) . . .
50(4) . . .
43.9(35) . . .
60(4) . . .
58(4) . . .
57(4) . . .
64(4) . . .
58(4) . . .
65(4) . . .
52(4) . . .
50(4) . . .
55(4) . . .
52(4) . . .
65(4) . . .
50(4) . . .
64(4) . . .
56(4) . . .
48(4) . . .
53(4) . . .
53(4) . . .
59(4) . . .
49(4) . . .
68(4) . . .
58(4) . . .
50(4) . . .
56(4) . . .
60(4) . . .
81(5) . . .
57(4) . . .
58(4) . . .
63(4) . . .
51(4) . . .
62(4) . . .
52(4) . . .
54(4) . . .
59(4) . . .
60(4) . . .
63(4) . . .
58(4) . . .
51(4) . . .
59(4) . . .
50(4) . . .
62(4) . . .
62(4) . . .
56(4) . . .
63(4) . . .
55(4) . . .
59(4) . . .
68(5) . . .
59(4) . . .
57(4) . . .
61(4) . . .
58(4) . . .
58(4) . . .
55(4) . . .
56(4) . . .
60(4) . . .
54(4) . . .
53(4) . . .
58(4) . . .
61(4) . . .
56(4) . . .
50(4) . . .
66(4) . . .
58(4) . . .
61(4) . . .
54(4) . . .
61(4) . . .
59(4) . . .
59(4) . . .
43.3(34) . . .
68(5) . . .
69(5) . . .
60(4) . . .
51(4) . . .
57(4) . . .
48(4) . . .
61(4) . . .
62(4) . . .
54(4) . . .
52(4) . . .
60(4) . . .
61(4) . . .
56(4) . . .
43.5(35) . . .
46(4) . . .
49(4) . . .
54(4) . . .
51(4) . . .
54(4) . . .
49(4) . . .
58(4) . . .
52(4) . . .
50(4) . . .
51(4) . . .
62(4) . . .
55(4) . . .
54(4) . . .
57(4) . . .
64(4) . . .
54(4) . . .
54(4) . . .
59(4) . . .
61(4) . . .
47(4) . . .
58(4) . . .
55(4) . . .
64(4) . . .
63(4) . . .
54(4) . . .
54(4) . . .
57(4) . . .
53(4) . . .
63(4) . . .
51(4) . . .
62(4) . . .
57(4) . . .
48(4) . . .
42.5(35) . . .
58(4) . . .
51(4) . . .
52(4) . . .
53(4) . . .
59(4) . . .
50(4) . . .
48(4) . . .
55(4) . . .
56(4) . . .
53(4) . . .
56(4) . . .
62(4) . . .
57(4) . . .
60(4) . . .
57(4) . . .
56(4) . . .
55(4) . . .
52(4) . . .
46.6(35) . . .
43.0(34) . . .
51(4) . . .
54(4) . . .
64(5) . . .
72(5) . . .
60(4) . . .
64(4) . . .
56(4) . . .
67(5) . . .
58(4) . . .
53(4) . . .
53(4) . . .
63(4) . . .
62(4) . . .
51(4) . . .
48(4) . . .
55(4) . . .
47(4) . . .
55(4) . . .
59(4) . . .
56(4) . . .
67(4) . . .
59(4) . . .
60(4) . . .
62(4) . . .
66(4) . . .
58(4) . . .
57(4) . . .
59(4) . . .
60(4) . . .
62(4) . . .
61(4) . . .
56(4) . . .
56(4) . . .
45(4) . . .
39.3(33) . . .
49(4) . . .
48(4) . . .
54(4) . . .
52(4) . . .
59(4) . . .
54(4) . . .
56(4) . . .
55(4) . . .
62(4) . . .
52(4) . . .
62(4) . . .
61(4) . . .
50(4) . . .
58(4) . . .
47(4) . . .
53(4) . . .
59(5) . . .
43.7(35) . . .
51(4) . . .
57(4) . . .
54(4) . . .
59(4) . . .
60(4) . . .
61(4) . . .
64(4) . . .
52(4) . . .
50(4) . . .
61(4) . . .
54(4) . . .
67(4) . . .
62(4) . . .
49(4) . . .
52(4) . . .
59(4) . . .
52(4) . . .
62(4) . . .
57(4) . . .
57(4) . . .
58(4) . . .
62(4) . . .
60(4) . . .
66(4) . . .
55(4) . . .
65(4) . . .
68(4) . . .
55(4) . . .
65(4) . . .
58(4) . . .
58(4) . . .
59(4) . . .
64(4) . . .
60(4) . . .
59(4) . . .
59(4) . . .
63(4) . . .
49(4) . . .
57(4) . . .
58(4) . . .
57(4) . . .
62(4) . . .
53(4) . . .
54(4) . . .
56(4) . . .
57(4) . . .
62(4) . . .
59(4) . . .
49(4) . . .
58(4) . . .
42.8(34) . . .
39.6(34) . . .
54(4) . . .
55(4) . . .
58(4) . . .
53(4) . . .
64(4) . . .
58(4) . . .
54(4) . . .
59(4) . . .
61(4) . . .
57(4) . . .
59(4) . . .
47(4) . . .
62(4) . . .
53(4) . . .
54(4) . . .
55(4) . . .
53(4) . . .
60(4) . . .
48(4) . . .
47(4) . . .
50(4) . . .
53(4) . . .
52(4) . . .
48(4) . . .
60(4) . . .
56(4) . . .
49(4) . . .
52(4) . . .
55(4) . . .
59(4) . . .
61(4) . . .
63(4) . . .
55(4) . . .
51(4) . . .
69(5) . . .
67(4) . . .
66(4) . . .
51(4) . . .
52(4) . . .
61(4) . . .
58(4) . . .
48(4) . . .
54(4) . . .
64(4) . . .
53(4) . . .
60(4) . . .
72(4) . . .
55(4) . . .
68(5) . . .
52(4) . . .
62(4) . . .
61(4) . . .
65(4) . . .
64(4) . . .
59(4) . . .
64(4) . . .
47(4) . . .
58(4) . . .
63(4) . . .
57(4) . . .
63(4) . . .
54(4) . . .
56(4) . . .
63(4) . . .
51(4) . . .
49(4) . . .
63(4) . . .
61(4) . . .
60(4) . . .
61(4) . . .
52(4) . . .
58(4) . . .
51(4) . . .
53(4) . . .
44(4) . . .
49(4) . . .
63(4) . . .
55(4) . . .
47(4) . . .
49(4) . . .
53(4) . . .
56(4) . . .
52(4) . . .
53(4) . . .
57(4) . . .
67(4) . . .
49(4) . . .
45(4) . . .
47(4) . . .
50(4) . . .
53(4) . . .
60(4) . . .
56(4) . . .
59(4) . . .
53(4) . . .
44.6(34) . . .
59(4) . . .
49(4) . . .
51(4) . . .
65(4) . . .
47(4) . . .
42.4(34) . . .
43.8(35) . . .
54(4) . . .
61(4) . . .
54(4) . . .
51(4) . . .
52(4) . . .
45(4) . . .
56(4) . . .
59(4) . . .
55(4) . . .
57(4) . . .
53(4) . . .
59(4) . . .
53(4) . . .
49(4) . . .
54(4) . . .
55(4) . . .
51(4) . . .
57(4) . . .
53(4) . . .
58(4) . . .
56(4) . . .
55(4) . . .
55(4) . . .
57(4) . . .
47(4) . . .
60(4) . . .
56(4) . . .
59(4) . . .
54(4) . . .
52(4) . . .
50(4) . . .
46(4) . . .
49(4) . . .
49(4) . . .
54(4) . . .
52(4) . . .
56(4) . . .
55(4) . . .
50(4) . . .
50(4) . . .
45(4) . . .
54(4) . . .
52(4) . . .
53(4) . . .
44(4) . . .
45(4) . . .
50(4) . . .
58(4) . . .
64(4) . . .
47(4) . . .
47(4) . . .
57(4) . . .
53(4) . . .
56(4) . . .
55(4) . . .
66(5) . . .
50(4) . . .
52(4) . . .
48(4) . . .
62(4) . . .
59(4) . . .
55(4) . . .
57(4) . . .
60(4) . . .
55(4) . . .
53(4) . . .
61(4) . . .
51(4) . . .
55(4) . . .
56(4) . . .
57(4) . . .
55(4) . . .
63(4) . . .
56(4) . . .
59(4) . . .
63(4) . . .
51(4) . . .
57(4) . . .
58(4) . . .
55(4) . . .
51(4) . . .
42.8(34) . . .
55(4) . . .
57(4) . . .
55(4) . . .
55(4) . . .
54(4) . . .
54(4) . . .
63(5) . . .
47(4) . . .
47(4) . . .
61(4) . . .
49(4) . . .
60(4) . . .
63(4) . . .
59(4) . . .
63(4) . . .
65(4) . . .
56(4) . . .
61(4) . . .
60(4) . . .
56(4) . . .
59(4) . . .
59(4) . . .
55(4) . . .
48(4) . . .
58(4) . . .
52(4) . . .
59(4) . . .
51(4) . . .
52(4) . . .
53(4) . . .
55(4) . . .
57(4) . . .
64(4) . . .
63(4) . . .
59(4) . . .
52(4) . . .
57(4) . . .
51(4) . . .
62(4) . . .
60(4) . . .
53(4) . . .
57(4) . . .
48(4) . . .
58(4) . . .
56(4) . . .
47(4) . . .
65(4) . . .
56(4) . . .
57(4) . . .
59(5) . . .
45(4) . . .
62(4) . . .
65(4) . . .
61(4) . . .
61(4) . . .
52(4) . . .
56(4) . . .
59(4) . . .
51(4) . . .
52(4) . . .
57(4) . . .
52(4) . . .
53(4) . . .
54(4) . . .
61(4) . . .
57(4) . . .
59(4) . . .
52(4) . . .
61(4) . . .
56(4) . . .
55(4) . . .
58(4) . . .
62(4) . . .
54(4) . . .
54(4) . . .
54(4) . . .
58(4) . . .
53(4) . . .
55(4) . . .
51(4) . . .
53(4) . . .
54(4) . . .
59(4) . . .
59(4) . . .
54(4) . . .
61(4) . . .
54(4) . . .
47(4) . . .
64(4) . . .
57(4) . . .
60(4) . . .
54(4) . . .
61(4) . . .
47(4) . . .
45(4) . . .
57(4) . . .
59(4) . . .
60(4) . . .
61(4) . . .
57(4) . . .
59(4) . . .
53(4) . . .
56(4) . . .
56(4) . . .
62(4) . . .
54(4) . . .
57(4) . . .
47(4) . . .
63(4) . . .
57(4) . . .
51(4) . . .
55(4) . . .
59(4) . . .
61(4) . . .
59(4) . . .
59(4) . . .
52(4) . . .
61(4) . . .
51(4) . . .
50(4) . . .
60(4) . . .
58(4) . . .
57(4) . . .
61(4) . . .
52(4) . . .
68(4) . . .
59(4) . . .
55(4) . . .
57(4) . . .
52(4) . . .
54(4) . . .
54(4) . . .
55(4) . . .
58(4) . . .
46(4) . . .
53(4) . . .
57(4) . . .
60(4) . . .
50(4) . . .
57(4) . . .
63(4) . . .
53(4) . . .
59(4) . . .
65(5) . . .
52(4) . . .
57(4) . . .
57(4) . . .
54(4) . . .
59(5) . . .
51(4) . . .
54(4) . . .
54(4) . . .
50(4) . . .
55(4) . . .
58(4) . . .
55(4) . . .
46(4) . . .
50(4) . . .
46(4) . . .
60(4) . . .
55(4) . . .
62(4) . . .
58(4) . . .
54(4) . . .
59(4) . . .
52(4) . . .
52(4) . . .
60(4) . . .
59(4) . . .
59(4) . . .
57(4) . . .
58(4) . . .
52(4) . . .
59(4) . . .
61(4) . . .
49(4) . . .
65(4) . . .
58(4) . . .
55(4) . . .
63(4) . . .
60(4) . . .
66(4) . . .
57(4) . . .
50(4) . . .
52(4) . . .
63(4) . . .
58(4) . . .
50(4) . . .
58(4) . . .
53(4) . . .
50(4) . . .
56(4) . . .
49(4) . . .
57(4) . . .
61(4) . . .
55(4) . . .
53(4) . . .
48(4) . . .
59(4) . . .
58(4) . . .
58(4) . . .
52(4) . . .
54(4) . . .
51(4) . . .
54(4) . . .
54(4) . . .
61(4) . . .
53(4) . . .
60(4) . . .
57(4) . . .
52(4) . . .
45(4) . . .
55(4) . . .
62(4) . . .
55(4) . . .
53(4) . . .
47.2(35) . . .
60(4) . . .
55(4) . . .
58(4) . . .
57(4) . . .
59(4) . . .
49(4) . . .
50(4) . . .
52(4) . . .
67(4) . . .
61(4) . . .
53(4) . . .
56(4) . . .
53(4) . . .
55(4) . . .
57(4) . . .
60(4) . . .
55(4) . . .
47(4) . . .
66(4) . . .
53(4) . . .
52(4) . . .
56(4) . . .
55(4) . . .
51(4) . . .
56(4) . . .
55(4) . . .
53(4) . . .
49(4) . . .
57(4) . . .
54(4) . . .
67(5) . . .
61(4) . . .
45(4) . . .
51(4) . . .
66(5) . . .
56(4) . . .
50(4) . . .
55(4) . . .
56(4) . . .
53(4) . . .
50(4) . . .
51(4) . . .
54(4) . . .
53(4) . . .
52(4) . . .
69(4) . . .
63(4) . . .
64(4) . . .
62(4) . . .
56(4) . . .
59(4) . . .
66(4) . . .
63(4) . . .
68(4) . . .
59(4) . . .
54(4) . . .
56(4) . . .
64(4) . . .
61(4) . . .
62(4) . . .
50(4) . . .
65(4) . . .
59(4) . . .
49(4) . . .
58(4) . . .
49(4) . . .
62(4) . . .
55(4) . . .
56(4) . . .
65(4) . . .
57(4) . . .
66(4) . . .
49(4) . . .
66(4) . . .
50(4) . . .
61(4) . . .
64(4) . . .
54(4) . . .
51(4) . . .
48(4) . . .
51(4) . . .
51(4) . . .
65(4) . . .
66(5) . . .
56(4) . . .
48(4) . . .
44.6(35) . . .
58(4) . . .
58(4) . . .
55(4) . . .
62(4) . . .
59(4) . . .
65(4) . . .
66(5) . . .
61(4) . . .
62(4) . . .
57(4) . . .
51(4) . . .
60(4) . . .
69(5) . . .
53(4) . . .
58(4) . . .
59(4) . . .
57(4) . . .
53(4) . . .
66(4) . . .
56(4) . . .
57(4) . . .
57(4) . . .
55(4) . . .
52(4) . . .
63(4) . . .
59(4) . . .
61(4) . . .
57(4) . . .
52(4) . . .
60(4) . . .
66(4) . . .
57(4) . . .
54(4) . . .
53(4) . . .
54(4) . . .
56(4) . . .
56(4) . . .
51(4) . . .
45.7(35) . . .
51(4) . . .
62(4) . . .
58(4) . . .
56(4) . . .
56(4) . . .
54(4) . . .
57(4) . . .
44.5(35) . . .
52(4) . . .
60(4) . . .
55(4) . . .
58(4) . . .
56(4) . . .
64(4) . . .
56(4) . . .
69(5) . . .
58(4) . . .
51(4) . . .
63(4) . . .
52(4) . . .
51(4) . . .
56(4) . . .
55(4) . . .
55(4) . . .
46(4) . . .
53(4) . . .
52(4) . . .
62(4) . . .
53(4) . . .
60(4) . . .
57(4) . . .
52(4) . . .
64(4) . . .
58(4) . . .
61(4) . . .
52(4) . . .
62(4) . . .
66(4) . . .
62(4) . . .
54(4) . . .
51(4) . . .
60(4) . . .
54(4) . . .
55(4) . . .
55(4) . . .
55(4) . . .
52(4) . . .
52(4) . . .
43.1(34) . . .
48(4) . . .
54(4) . . .
64(4) . . .
61(4) . . .
62(4) . . .
66(4) . . .
51(4) . . .
50(4) . . .
58(4) . . .
51(4) . . .
60(4) . . .
51(4) . . .
57(4) . . .
56(4) . . .
57(4) . . .
56(4) . . .
60(4) . . .
56(4) . . .
46.0(35) . . .
50(4) . . .
51(4) . . .
51(4) . . .
53(4) . . .
55(4) . . .
59(4) . . .
56(4) . . .
50(4) . . .
53(4) . . .
56(4) . . .
53(4) . . .
55(4) . . .
51(4) . . .
48(4) . . .
59(4) . . .
59(4) . . .
50(4) . . .
50(4) . . .
52(4) . . .
51(4) . . .
57(4) . . .
52(4) . . .
62(4) . . .
60(4) . . .
55(4) . . .
60(4) . . .
54(4) . . .
61(4) . . .
55(4) . . .
53(4) . . .
59(4) . . .
54(4) . . .
54(4) . . .
57(4) . . .
42.2(33) . . .
52(4) . . .
59(4) . . .
48(4) . . .
54(4) . . .
54(4) . . .
68(5) . . .
54(4) . . .
57(4) . . .
49(4) . . .
60(4) . . .
49(4) . . .
48(4) . . .
57(4) . . .
52(4) . . .
57(4) . . .
57(4) . . .
58(4) . . .
49(4) . . .
57(4) . . .
53(4) . . .
52(4) . . .
58(4) . . .
56(4) . . .
51(4) . . .
49(4) . . .
50(4) . . .
64(4) . . .
60(4) . . .
59(4) . . .
61(4) . . .
55(4) . . .
52(4) . . .
50(4) . . .
43.6(34) . . .
58(4) . . .
58(4) . . .
61(4) . . .
61(4) . . .
53(4) . . .
60(4) . . .
61(4) . . .
60(4) . . .
54(4) . . .
65(4) . . .
57(4) . . .
54(4) . . .
62(4) . . .
58(4) . . .
45(4) . . .
52(4) . . .
58(4) . . .
59(4) . . .
55(4) . . .
42.3(34) . . .
47(4) . . .
52(4) . . .
46(4) . . .
55(4) . . .
61(4) . . .
62(4) . . .
57(4) . . .
66(4) . . .
57(4) . . .
57(4) . . .
53(4) . . .
54(4) . . .
50(4) . . .
45(4) . . .
53(4) . . .
58(4) . . .
53(4) . . .
52(4) . . .
50(4) . . .
60(4) . . .
48(4) . . .
46(4) . . .
50(4) . . .
60(4) . . .
51(4) . . .
54(4) . . .
57(4) . . .
64(4) . . .
54(4) . . .
55(4) . . .
61(4) . . .
52(4) . . .
49(4) . . .
42.9(34) . . .
50(4) . . .
43(4) . . .
58(4) . . .
54(4) . . .
51(4) . . .
56(4) . . .
53(4) . . .
58(4) . . .
60(4) . . .
56(4) . . .
53(4) . . .
56(4) . . .
50(4) . . .
53(4) . . .
47(4) . . .
66(4) . . .
52(4) . . .
54(4) . . .
59(4) . . .
56(4) . . .
59(4) . . .
51(4) . . .
53(4) . . .
48(4) . . .
57(4) . . .
67(4) . . .
61(4) . . .
59(4) . . .
54(4) . . .
52(4) . . .
49(4) . . .
63(4) . . .
63(4) . . .
54(4) . . .
57(4) . . .
52(4) . . .
54(4) . . .
51(4) . . .
56(4) . . .
68(4) . . .
53(4) . . .
51(4) . . .
53(4) . . .
59(4) . . .
45.4(35) . . .
51(4) . . .
49(4) . . .
52(4) . . .
56(4) . . .
63(4) . . .
58(4) . . .
57(4) . . .
59(4) . . .
55(4) . . .
63(4) . . .
57(4) . . .
46(4) . . .
58(4) . . .
48(4) . . .
61(4) . . .
58(4) . . .
67(5) . . .
53(4) . . .
62(4) . . .
48(4) . . .
67(4) . . .
53(4) . . .
50(4) . . .
67(4) . . .
48(4) . . .
59(4) . . .
47(4) . . .
59(4) . . .
61(4) . . .
52(4) . . .
48(4) . . .
61(4) . . .
54(4) . . .
55(4) . . .
46(4) . . .
42(4) . . .
61(4) . . .
53(4) . . .
44.9(34) . . .
58(4) . . .
63(5) . . .
53(4) . . .
57(4) . . .
59(4) . . .
57(4) . . .
57(4) . . .
60(4) . . .
59(4) . . .
61(4) . . .
60(4) . . .
58(4) . . .
59(4) . . .
64(4) . . .
62(4) . . .
57(4) . . .
46(4) . . .
42.2(34) . . .
61(4) . . .
57(4) . . .
52(4) . . .
57(4) . . .
54(4) . . .
61(4) . . .
55(4) . . .
57(4) . . .
55(4) . . .
47(4) . . .
46(4) . . .
60(4) . . .
55(4) . . .
59(4) . . .
60(4) . . .
63(4) . . .
55(4) . . .
53(4) . . .
53(4) . . .
64(4) . . .
60(4) . . .
54(4) . . .
61(4) . . .
62(4) . . .
62(4) . . .
55(4) . . .
53(4) . . .
49(4) . . .
52(4) . . .
57(4) . . .
55(4) . . .
45.0(35) . . .
50(4) . . .
55(4) . . .
53(4) . . .
44.4(34) . . .
61(4) . . .
55(4) . . .
62(4) . . .
63(4) . . .
57(4) . . .
56(4) . . .
56(4) . . .
49(4) . . .
60(4) . . .
64(4) . . .
56(4) . . .
47(4) . . .
48(4) . . .
48(4) . . .
62(4) . . .
65(4) . . .
56(4) . . .
60(4) . . .
52(4) . . .
62(4) . . .
60(4) . . .
65(4) . . .
52(4) . . .
43.1(34) . . .
58(4) . . .
64(4) . . .
65(4) . . .
60(4) . . .
50(4) . . .
51(4) . . .
52(4) . . .
54(4) . . .
49(4) . . .
56(4) . . .
55(4) . . .
56(4) . . .
58(4) . . .
52(4) . . .
57(4) . . .
52(4) . . .
59(4) . . .
65(4) . . .
64(4) . . .
55(4) . . .
58(4) . . .
60(4) . . .
69(4) . . .
58(4) . . .
58(4) . . .
50(4) . . .
58(4) . . .
45.4(35) . . .
50(4) . . .
64(4) . . .
60(4) . . .
55(4) . . .
55(4) . . .
52(4) . . .
54(4) . . .
59(4) . . .
57(4) . . .
64(4) . . .
59(4) . . .
55(4) . . .
46(4) . . .
54(4) . . .
53(4) . . .
51(4) . . .
58(4) . . .
59(4) . . .
58(4) . . .
53(4) . . .
57(4) . . .
72(5) . . .
55(4) . . .
66(4) . . .
60(4) . . .
55(4) . . .
51(4) . . .
56(4) . . .
61(4) . . .
51(4) . . .
61(4) . . .
58(4) . . .
61(4) . . .
54(4) . . .
48(4) . . .
58(4) . . .
54(4) . . .
46(4) . . .
53(4) . . .
66(4) . . .
60(4) . . .
61(4) . . .
62(4) . . .
60(4) . . .
50(4) . . .
60(4) . . .
57(4) . . .
59(4) . . .
59(4) . . .
60(4) . . .
62(4) . . .
55(4) . . .
63(4) . . .
55(4) . . .
59(4) . . .
48(4) . . .
42.7(35) . . .
50(4) . . .
58(4) . . .
55(4) . . .
50(4) . . .
55(4) . . .
59(4) . . .
63(4) . . .
59(4) . . .
63(4) . . .
51(4) . . .
63(4) . . .
60(4) . . .
52(4) . . .
49(4) . . .
46(4) . . .
48(4) . . .
52(4) . . .
60(4) . . .
51(4) . . .
54(4) . . .
65(4) . . .
58(4) . . .
57(4) . . .
58(4) . . .
59(4) . . .
63(4) . . .
53(4) . . .
53(4) . . .
54(4) . . .
55(4) . . .
63(4) . . .
68(4) . . .
50(4) . . .
52(4) . . .
63(4) . . .
55(4) . . .
65(4) . . .
58(4) . . .
54(4) . . .
59(4) . . .
62(4) . . .
51(4) . . .
54(4) . . .
46(4) . . .
57(4) . . .
60(4) . . .
53(4) . . .
60(4) . . .
46(4) . . .
64(5) . . .
55(4) . . .
65(4) . . .
55(4) . . .
58(4) . . .
60(4) . . .
56(4) . . .
56(4) . . .
57(4) . . .
54(4) . . .
57(4) . . .
59(4) . . .
57(4) . . .
52(4) . . .
48(4) . . .
55(4) . . .
42.7(34) . . .
54(4) . . .
55(4) . . .
60(4) . . .
51(4) . . .
50(4) . . .
47(4) . . .
50(4) . . .
52(4) . . .
54(4) . . .
57(4) . . .
57(4) . . .
63(4) . . .
56(4) . . .
55(4) . . .
58(4) . . .
63(4) . . .
48(4) . . .
52(4) . . .
58(4) . . .
58(4) . . .
61(4) . . .
55(4) . . .
60(4) . . .
59(4) . . .
53(4) . . .
50(4) . . .
63(4) . . .
60(4) . . .
53(4) . . .
52(4) . . .
46(4) . . .
56(4) . . .
58(4) . . .
56(4) . . .
54(4) . . .
61(4) . . .
66(4) . . .
54(4) . . .
51(4) . . .
51(4) . . .
62(4) . . .
54(4) . . .
57(4) . . .
57(4) . . .
55(4) . . .
56(4) . . .
54(4) . . .
61(4) . . .
53(4) . . .
63(4) . . .
47(4) . . .
55(4) . . .
50(4) . . .
53(4) . . .
54(4) . . .
54(4) . . .
52(4) . . .
54(4) . . .
58(4) . . .
59(4) . . .
60(4) . . .
45(4) . . .
56(4) . . .
64(4) . . .
45.3(35) . . .
55(4) . . .
54(4) . . .
59(4) . . .
46.5(35) . . .
50(4) . . .
56(4) . . .
56(4) . . .
58(4) . . .
49(4) . . .
51(4) . . .
56(4) . . .
57(4) . . .
48(4) . . .
60(4) . . .
64(4) . . .
56(4) . . .
45(4) . . .
43(4) . . .
59(4) . . .
55(4) . . .
52(4) . . .
58(4) . . .
64(4) . . .
58(4) . . .
62(4) . . .
54(4) . . .
74(5) . . .
64(4) . . .
57(4) . . .
49(4) . . .
62(4) . . .
59(4) . . .
59(4) . . .
54(4) . . .
56(4) . . .
54(4) . . .
56(4) . . .
62(4) . . .
58(4) . . .
53(4) . . .
53(4) . . .
59(4) . . .
43.1(34) . . .
51(4) . . .
63(4) . . .
61(4) . . .
48(4) . . .
54(4) . . .
55(4) . . .
57(4) . . .
48(4) . . .
42(4) . . .
57(4) . . .
55(4) . . .
55(4) . . .
65(5) . . .
57(4) . . .
64(4) . . .
53(4) . . .
49(4) . . .
57(4) . . .
58(4) . . .
52(4) . . .
56(4) . . .
55(4) . . .
61(5) . . .
57(4) . . .
46(4) . . .
66(4) . . .
59(4) . . .
62(5) . . .
53(4) . . .
56(4) . . .
58(4) . . .
51(4) . . .
46(4) . . .
46(4) . . .
57(4) . . .
65(4) . . .
53(4) . . .
65(4) . . .
63(4) . . .
54(4) . . .
55(4) . . .
58(4) . . .
54(4) . . .
59(4) . . .
59(4) . . .
55(4) . . .
55(4) . . .
44(4) . . .
56(4) . . .
51(4) . . .
44.5(35) . . .
57(4) . . .
66(5) . . .
52(4) . . .
58(4) . . .
48(4) . . .
59(4) . . .
67(4) . . .
64(4) . . .
57(4) . . .
50(4) . . .
53(4) . . .
56(4) . . .
56(4) . . .
64(4) . . .
55(4) . . .
51(4) . . .
55(4) . . .
62(4) . . .
64(4) . . .
49(4) . . .
45(4) . . .
49(4) . . .
49(4) . . .
57(4) . . .
60(4) . . .
58(4) . . .
51(4) . . .
58(4) . . .
47(4) . . .
55(4) . . .
62(4) . . .
57(4) . . .
58(4) . . .
59(4) . . .
50(4) . . .
61(4) . . .
53(4) . . .
61(4) . . .
57(4) . . .
60(4) . . .
63(5) . . .
52(4) . . .
47(4) . . .
61(4) . . .
50(4) . . .
54(4) . . .
54(4) . . .
50(4) . . .
53(4) . . .
46(4) . . .
56(4) . . .
53(4) . . .
44.3(35) . . .
48(4) . . .
62(4) . . .
51(4) . . .
50(4) . . .
59(4) . . .
55(4) . . .
61(4) . . .
58(4) . . .
55(4) . . .
57(4) . . .
53(4) . . .
56(4) . . .
51(4) . . .
57(4) . . .
61(4) . . .
57(4) . . .
55(4) . . .
48(4) . . .
56(4) . . .
49(4) . . .
49(4) . . .
50(4) . . .
60(4) . . .
60(4) . . .
59(4) . . .
61(4) . . .
57(4) . . .
62(4) . . .
59(4) . . .
49(4) . . .
45(4) . . .
48(4) . . .
47(4) . . .
52(4) . . .
47(4) . . .
59(4) . . .
53(4) . . .
58(4) . . .
55(4) . . .
52(4) . . .
57(4) . . .
61(4) . . .
68(4) . . .
57(4) . . .
50(4) . . .
53(4) . . .
57(4) . . .
49(4) . . .
54(4) . . .
61(4) . . .
50(4) . . .
47(4) . . .
47(4) . . .
57(4) . . .
55(4) . . .
47(4) . . .
53(4) . . .
55(4) . . .
59(4) . . .
65(4) . . .
54(4) . . .
59(4) . . .
54(4) . . .
63(4) . . .
53(4) . . .
56(4) . . .
53(4) . . .
56(4) . . .
67(4) . . .
55(4) . . .
56(4) . . .
48(4) . . .
56(4) . . .
61(4) . . .
60(4) . . .
55(4) . . .
53(4) . . .
48(4) . . .
57(4) . . .
57(4) . . .
63(4) . . .
50(4) . . .
46(4) . . .
54(4) . . .
42.5(35) . . .
49(4) . . .
53(4) . . .
66(4) . . .
55(4) . . .
52(4) . . .
54(4) . . .
52(4) . . .
52(4) . . .
55(4) . . .
44(4) . . .
53(4) . . .
57(4) . . .
52(4) . . .
49(4) . . .
64(5) . . .
51(4) . . .
48(4) . . .
47(4) . . .
54(4) . . .
54(4) . . .
49(4) . . .
52(4) . . .
55(4) . . .
46(4) . . .
56(4) . . .
54(4) . . .
60(4) . . .
53(4) . . .
47(4) . . .
56(4) . . .
57(4) . . .
52(4) . . .
61(4) . . .
66(4) . . .
58(4) . . .
58(4) . . .
48(4) . . .
58(4) . . .
55(4) . . .
59(4) . . .
56(4) . . .
57(4) . . .
54(4) . . .
53(4) . . .
45(4) . . .
46(4) . . .
52(4) . . .
48(4) . . .
56(4) . . .
55(4) . . .
59(4) . . .
44(4) . . .
43.0(34) . . .
60(4) . . .
50(4) . . .
61(4) . . .
56(4) . . .
56(4) . . .
52(4) . . .
51(4) . . .
62(4) . . .
53(4) . . .
49(4) . . .
55(4) . . .
49(4) . . .
51(4) . . .
48(4) . . .
59(4) . . .
55(4) . . .
54(4) . . .
72(4) . . .
51(4) . . .
52(4) . . .
51(4) . . .
63(5) . . .
46(4) . . .
58(4) . . .
55(4) . . .
57(4) . . .
63(4) . . .
51(4) . . .
46(4) . . .
58(4) . . .
62(4) . . .
56(4) . . .
57(4) . . .
62(4) . . .
52(4) . . .
53(4) . . .
48(4) . . .
46(4) . . .
57(4) . . .
58(4) . . .
59(4) . . .
56(4) . . .
53(4) . . .
49(4) . . .
59(4) . . .
57(4) . . .
53(4) . . .
54(4) . . .
50(4) . . .
51(4) . . .
57(4) . . .
59(4) . . .
55(4) . . .
52(4) . . .
54(4) . . .
59(4) . . .
49(4) . . .
51(4) . . .
50(4) . . .
47(4) . . .
50(4) . . .
57(4) . . .
50(4) . . .
43(4) . . .
55(4) . . .
51(4) . . .
50(4) . . .
47(4) . . .
51(4) . . .
58(4) . . .
59(4) . . .
53(4) . . .
60(4) . . .
54(4) . . .
50(4) . . .
66(4) . . .
54(4) . . .
55(4) . . .
61(4) . . .
61(5) . . .
57(4) . . .
59(4) . . .
57(4) . . .
55(4) . . .
54(4) . . .
56(4) . . .
57(4) . . .
56(4) . . .
57(4) . . .
44.5(35) . . .
61(4) . . .
58(4) . . .
44.4(35) . . .
50(4) . . .
48(4) . . .
73(5) . . .
67(4) . . .
56(4) . . .
59(4) . . .
53(4) . . .
57(4) . . .
55(4) . . .
50(4) . . .
45(4) . . .
40.1(33) . . .
52(4) . . .
58(4) . . .
57(4) . . .
58(4) . . .
49(4) . . .
48(4) . . .
63(4) . . .
56(4) . . .
49(4) . . .
54(4) . . .
55(4) . . .
63(4) . . .
56(4) . . .
52(4) . . .
55(4) . . .
51(4) . . .
67(4) . . .
63(4) . . .
58(4) . . .
55(4) . . .
45(4) . . .
60(4) . . .
53(4) . . .
61(4) . . .
59(4) . . .
56(4) . . .
45.9(35) . . .
51(4) . . .
51(4) . . .
50(4) . . .
38.5(32) . . .
46(4) . . .
42.1(34) . . .
61(4) . . .
49(4) . . .
60(4) . . .
58(4) . . .
48(4) . . .
53(4) . . .
48(4) . . .
59(4) . . .
61(4) . . .
64(4) . . .
60(4) . . .
58(4) . . .
51(4) . . .
62(4) . . .
49(4) . . .
54(4) . . .
47(4) . . .
49(4) . . .
48(4) . . .
50(4) . . .
57(4) . . .
51(4) . . .
49(4) . . .
61(4) . . .
56(4) . . .
46(4) . . .
45(4) . . .
47(4) . . .
51(4) . . .
55(4) . . .
52(4) . . .
48(4) . . .
64(4) . . .
47(4) . . .
59(4) . . .
56(4) . . .
57(4) . . .
55(4) . . .
46(4) . . .
58(4) . . .
51(4) . . .
47(4) . . .
53(4) . . .
47(4) . . .
62(5) . . .
55(4) . . .
50(4) . . .
52(4) . . .
52(4) . . .
60(4) . . .
44(4) . . .
56(4) . . .
60(4) . . .
52(4) . . .
50(4) . . .
61(4) . . .
47(4) . . .
53(4) . . .
54(4) . . .
63(4) . . .
61(4) . . .
52(4) . . .
64(4) . . .
63(4) . . .
52(4) . . .
50(4) . . .
59(4) . . .
61(4) . . .
53(4) . . .
56(4) . . .
48(4) . . .
48(4) . . .
54(4) . . .
54(4) . . .
56(4) . . .
48(4) . . .
51(4) . . .
56(4) . . .
63(4) . . .
54(4) . . .
55(4) . . .
54(4) . . .
57(4) . . .
52(4) . . .
49(4) . . .
53(4) . . .
53(4) . . .
47(4) . . .
42.3(34) . . .
59(4) . . .
57(4) . . .
60(4) . . .
65(4) . . .
55(4) . . .
46(4) . . .
56(4) . . .
57(4) . . .
49(4) . . .
57(4) . . .
56(4) . . .
61(4) . . .
65(4) . . .
64(4) . . .
68(5) . . .
58(4) . . .
53(4) . . .
64(4) . . .
50(4) . . .
58(4) . . .
62(4) . . .
43.1(35) . . .
63(4) . . .
57(4) . . .
63(4) . . .
55(4) . . .
62(4) . . .
54(4) . . .
45(4) . . .
63(5) . . .
50(4) . . .
66(4) . . .
64(4) . . .
52(4) . . .
48(4) . . .
53(4) . . .
50(4) . . .
49(4) . . .
50(4) . . .
60(4) . . .
63(4) . . .
53(4) . . .
60(4) . . .
53(4) . . .
53(4) . . .
47(4) . . .
53(4) . . .
58(4) . . .
56(4) . . .
59(4) . . .
47(4) . . .
46.4(35) . . .
52(4) . . .
62(4) . . .
56(4) . . .
61(4) . . .
57(4) . . .
59(4) . . .
64(4) . . .
56(4) . . .
64(4) . . .
62(4) . . .
48(4) . . .
53(4) . . .
53(4) . . .
53(4) . . .
56(4) . . .
51(4) . . .
51(4) . . .
56(4) . . .
69(4) . . .
59(4) . . .
57(4) . . .
59(4) . . .
58(4) . . .
52(4) . . .
61(4) . . .
57(4) . . .
56(4) . . .
59(4) . . .
49(4) . . .
52(4) . . .
62(4) . . .
56(4) . . .
57(4) . . .
67(4) . . .
60(4) . . .
52(4) . . .
61(4) . . .
64(4) . . .
58(4) . . .
63(4) . . .
62(4) . . .
53(4) . . .
57(4) . . .
55(4) . . .
61(4) . . .
58(4) . . .
53(4) . . .
54(4) . . .
52(4) . . .
60(4) . . .
53(4) . . .
47(4) . . .
47(4) . . .
57(4) . . .
53(4) . . .
58(4) . . .
50(4) . . .
47(4) . . .
54(4) . . .
52(4) . . .
47(4) . . .
52(4) . . .
43.8(34) . . .
49(4) . . .
56(4) . . .
61(4) . . .
54(4) . . .
41.7(33) . . .
51(4) . . .
60(4) . . .
55(4) . . .
52(4) . . .
58(4) . . .
57(4) . . .
51(4) . . .
51(4) . . .
57(4) . . .
55(4) . . .
62(4) . . .
51(4) . . .
59(4) . . .
58(4) . . .
49(4) . . .
50(4) . . .
58(4) . . .
47(4) . . .
55(4) . . .
57(4) . . .
61(4) . . .
59(4) . . .
47(4) . . .
49(4) . . .
44.9(34) . . .
59(4) . . .
54(4) . . .
58(4) . . .
50(4) . . .
55(4) . . .
59(4) . . .
43.0(33) . . .
64(4) . . .
57(4) . . .
62(4) . . .
61(4) . . .
54(4) . . .
69(5) . . .
49(4) . . .
61(4) . . .
61(4) . . .
58(4) . . .
49(4) . . .
67(4) . . .
60(4) . . .
58(4) . . .
63(4) . . .
63(4) . . .
54(4) . . .
44.9(35) . . .
51(4) . . .
57(4) . . .
62(4) . . .
71(4) . . .
48(4) . . .
57(4) . . .
46(4) . . .
60(4) . . .
53(4) . . .
59(4) . . .
58(4) . . .
51(4) . . .
61(4) . . .
51(4) . . .
57(4) . . .
48(4) . . .
50(4) . . .
47(4) . . .
42.4(35) . . .
54(4) . . .
56(4) . . .
52(4) . . .
60(4) . . .
58(4) . . .
66(4) . . .
64(5) . . .
53(4) . . .
52(4) . . .
54(4) . . .
53(4) . . .
58(4) . . .
59(4) . . .
55(4) . . .
55(4) . . .
51(4) . . .
50(4) . . .
54(4) . . .
62(4) . . .
50(4) . . .
75(5) . . .
61(4) . . .
53(4) . . .
58(4) . . .
55(4) . . .
53(4) . . .
45.0(35) . . .
53(4) . . .
61(4) . . .
58(4) . . .
51(4) . . .
55(4) . . .
61(4) . . .
55(4) . . .
45(4) . . .
57(4) . . .
56(4) . . .
61(4) . . .
55(4) . . .
62(4) . . .
66(4) . . .
52(4) . . .
64(4) . . .
51(4) . . .
52(4) . . .
47(4) . . .
60(4) . . .
57(4) . . .
47(4) . . .
39.6(32) . . .
62(4) . . .
64(4) . . .
60(4) . . .
48(4) . . .
49(4) . . .
58(4) . . .
56(4) . . .
50(4) . . .
59(4) . . .
52(4) . . .
42(4) . . .
47(4) . . .
65(4) . . .
56(4) . . .
52(4) . . .
59(4) . . .
49(4) . . .
60(4) . . .
52(4) . . .
56(4) . . .
45(4) . . .
51(4) . . .
54(4) . . .
54(4) . . .
50(4) . . .
56(4) . . .
64(4) . . .
56(4) . . .
58(4) . . .
66(4) . . .
51(4) . . .
51(4) . . .
58(4) . . .
48(4) . . .
54(4) . . .
53(4) . . .
63(4) . . .
51(4) . . .
52(4) . . .
59(4) . . .
53(4) . . .
56(4) . . .
54(4) . . .
53(4) . . .
50(4) . . .
52(4) . . .
51(4) . . .
54(4) . . .
52(4) . . .
53(4) . . .
54(4) . . .
63(4) . . .
46(4) . . .
51(4) . . .
66(5) . . .
48(4) . . .
60(4) . . .
59(4) . . .
56(4) . . .
53(4) . . .
51(4) . . .
58(4) . . .
52(4) . . .
53(4) . . .
66(5) . . .
45(4) . . .
54(4) . . .
60(4) . . .
58(4) . . .
56(4) . . .
56(4) . . .
64(4) . . .
57(4) . . .
50(4) . . .
51(4) . . .
61(4) . . .
62(4) . . .
47(4) . . .
53(4) . . .
56(4) . . .
55(4) . . .
54(4) . . .
57(4) . . .
50(4) . . .
50(4) . . .
55(4) . . .
49(4) . . .
61(4) . . .
49(4) . . .
58(4) . . .
57(4) . . .
57(4) . . .
48(4) . . .
49(4) . . .
54(4) . . .
54(4) . . .
62(4) . . .
45(4) . . .
51(4) . . .
50(4) . . .
51(4) . . .
58(4) . . .
54(4) . . .
60(4) . . .
45(4) . . .
59(4) . . .
49(4) . . .
60(4) . . .
60(5) . . .
57(4) . . .
52(4) . . .
53(4) . . .
56(4) . . .
59(5) . . .
46(4) . . .
66(4) . . .
52(4) . . .
53(4) . . .
66(5) . . .
54(4) . . .
59(4) . . .
51(4) . . .
53(4) . . .
54(4) . . .
55(4) . . .
47(4) . . .
58(4) . . .
43(4) . . .
52(4) . . .
47(4) . . .
54(4) . . .
50(4) . . .
56(4) . . .
51(4) . . .
47(4) . . .
51(4) . . .
54(4) . . .
61(4) . . .
55(4) . . .
53(4) . . .
61(4) . . .
52(4) . . .
46(4) . . .
51(4) . . .
52(4) . . .
58(4) . . .
55(4) . . .
57(4) . . .
56(4) . . .
55(4) . . .
50(4) . . .
52(4) . . .
50(4) . . .
43(4) . . .
53(4) . . .
45(4) . . .
60(4) . . .
50(4) . . .
54(4) . . .
45.1(35) . . .
50(4) . . .
60(4) . . .
50(4) . . .
59(4) . . .
60(4) . . .
57(4) . . .
52(4) . . .
54(4) . . .
62(4) . . .
52(4) . . .
50(4) . . .
54(4) . . .
47(4) . . .
55(4) . . .
51(4) . . .
49(4) . . .
53(4) . . .
66(4) . . .
61(4) . . .
36.0(32) . . .
53(4) . . .
56(4) . . .
61(4) . . .
52(4) . . .
49(4) . . .
41.7(35) . . .
44(4) . . .
54(4) . . .
57(4) . . .
48(4) . . .
61(4) . . .
65(5) . . .
55(4) . . .
54(4) . . .
52(4) . . .
57(4) . . .
61(4) . . .
58(4) . . .
55(4) . . .
46(4) . . .
53(4) . . .
47(4) . . .
53(4) . . .
53(4) . . .
58(4) . . .
48(4) . . .
47(4) . . .
54(4) . . .
58(4) . . .
57(4) . . .
53(4) . . .
49(4) . . .
57(4) . . .
55(4) . . .
56(4) . . .
52(4) . . .
52(4) . . .
56(4) . . .
57(4) . . .
46(4) . . .
50(4) . . .
64(4) . . .
58(4) . . .
51(4) . . .
67(4) . . .
47(4) . . .
46(4) . . .
50(4) . . .
42.6(34) . . .
37.4(32) . . .
55(4) . . .
48(4) . . .
51(4) . . .
51(4) . . .
55(4) . . .
51(4) . . .
52(4) . . .
51(4) . . .
51(4) . . .
48(4) . . .
53(4) . . .
47(4) . . .
49(4) . . .
63(4) . . .
66(4) . . .
53(4) . . .
61(4) . . .
58(4) . . .
59(4) . . .
45(4) . . .
48(4) . . .
45.6(35) . . .
54(4) . . .
55(4) . . .
51(4) . . .
46(4) . . .
63(4) . . .
59(4) . . .
53(4) . . .
56(4) . . .
46(4) . . .
55(4) . . .
51(4) . . .
48(4) . . .
47(4) . . .
52(4) . . .
54(4) . . .
56(4) . . .
50(4) . . .
53(4) . . .
51(4) . . .
52(4) . . .
50(4) . . .
48(4) . . .
52(4) . . .
60(4) . . .
69(5) . . .
50(4) . . .
54(4) . . .
58(4) . . .
53(4) . . .
62(4) . . .
51(4) . . .
56(4) . . .
53(4) . . .
58(4) . . .
52(4) . . .
52(4) . . .
57(4) . . .
54(4) . . .
62(4) . . .
58(4) . . .
53(4) . . .
56(4) . . .
48(4) . . .
54(4) . . .
60(4) . . .
53(4) . . .
58(4) . . .
49(4) . . .
51(4) . . .
38.9(32) . . .
49(4) . . .
48(4) . . .
52(4) . . .
59(4) . . .
57(4) . . .
48(4) . . .
60(4) . . .
51(4) . . .
50(4) . . .
56(4) . . .
48(4) . . .
62(4) . . .
43.6(34) . . .
60(4) . . .
48(4) . . .
47(4) . . .
57(4) . . .
54(4) . . .
57(4) . . .
49(4) . . .
58(4) . . .
45(4) . . .
50(4) . . .
48(4) . . .
54(4) . . .
55(4) . . .
57(4) . . .
55(4) . . .
51(4) . . .
59(4) . . .
50(4) . . .
51(4) . . .
59(4) . . .
58(4) . . .
54(4) . . .
56(4) . . .
52(4) . . .
52(4) . . .
56(4) . . .
50(4) . . .
52(4) . . .
53(4) . . .
50(4) . . .
52(4) . . .
55(4) . . .
56(4) . . .
52(4) . . .
49(4) . . .
56(4) . . .
48(4) . . .
49(4) . . .
53(4) . . .
54(4) . . .
54(4) . . .
63(4) . . .
56(4) . . .
56(4) . . .
49(4) . . .
62(4) . . .
62(4) . . .
55(4) . . .
56(4) . . .
42.2(34) . . .
51(4) . . .
56(4) . . .
47(4) . . .
48(4) . . .
50(4) . . .
56(4) . . .
53(4) . . .
60(4) . . .
55(4) . . .
56(4) . . .
61(4) . . .
52(4) . . .
57(4) . . .
53(4) . . .
52(4) . . .
50(4) . . .
49(4) . . .
54(4) . . .
48(4) . . .
51(4) . . .
46(4) . . .
60(4) . . .
59(4) . . .
54(4) . . .
48(4) . . .
58(4) . . .
47(4) . . .
48(4) . . .
58(4) . . .
53(4) . . .
47(4) . . .
54(4) . . .
50(4) . . .
53(4) . . .
52(4) . . .
55(4) . . .
52(4) . . .
51(4) . . .
49(4) . . .
56(4) . . .
58(4) . . .
58(4) . . .
62(4) . . .
61(4) . . .
56(4) . . .
57(4) . . .
50(4) . . .
38.1(34) . . .
52(4) . . .
58(4) . . .
62(4) . . .
50(4) . . .
51(4) . . .
55(4) . . .
61(4) . . .
49(4) . . .
50(4) . . .
52(4) . . .
53(4) . . .
44.0(35) . . .
45(4) . . .
48(4) . . .
54(4) . . .
55(4) . . .
58(4) . . .
42.4(34) . . .
52(4) . . .
45(4) . . .
52(4) . . .
60(4) . . .
68(4) . . .
54(4) . . .
57(4) . . .
59(4) . . .
59(4) . . .
58(4) . . .
50(4) . . .
53(4) . . .
42(4) . . .
46(4) . . .
55(4) . . .
57(4) . . .
58(4) . . .
55(4) . . .
53(4) . . .
46(4) . . .
54(4) . . .
50(4) . . .
61(4) . . .
59(4) . . .
46(4) . . .
51(4) . . .
61(4) . . .
61(4) . . .
54(4) . . .
58(4) . . .
59(4) . . .
50(4) . . .
42.2(34) . . .
60(4) . . .
50(4) . . .
51(4) . . .
55(4) . . .
47(4) . . .
55(4) . . .
52(4) . . .
62(4) . . .
55(4) . . .
61(4) . . .
66(4) . . .
56(4) . . .
51(4) . . .
53(4) . . .
52(4) . . .
59(4) . . .
47(4) . . .
59(4) . . .
61(4) . . .
62(4) . . .
54(4) . . .
53(4) . . .
42.0(34) . . .
56(4) . . .
50(4) . . .
63(4) . . .
55(4) . . .
47(4) . . .
46(4) . . .
47(4) . . .
52(4) . . .
66(4) . . .
59(4) . . .
53(4) . . .
51(4) . . .
52(4) . . .
51(4) . . .
61(5) . . .
55(4) . . .
49(4) . . .
38.0(34) . . .
53(4) . . .
53(4) . . .
52(4) . . .
44.0(35) . . .
50(4) . . .
48(4) . . .
56(4) . . .
53(4) . . .
41.7(33) . . .
49(4) . . .
52(4) . . .
61(4) . . .
51(4) . . .
48(4) . . .
49(4) . . .
58(4) . . .
52(4) . . .
49(4) . . .
48(4) . . .
51(4) . . .
46(4) . . .
49(4) . . .
54(4) . . .
56(4) . . .
50(4) . . .
49(4) . . .
51(4) . . .
46(4) . . .
57(4) . . .
49(4) . . .
51(4) . . .
60(4) . . .
61(4) . . .
53(4) . . .
50(4) . . .
52(4) . . .
54(4) . . .
51(4) . . .
50(4) . . .
54(4) . . .
53(4) . . .
55(4) . . .
57(4) . . .
55(4) . . .
51(4) . . .
60(4) . . .
55(4) . . .
51(4) . . .
55(4) . . .
58(4) . . .
53(4) . . .
63(4) . . .
51(4) . . .
59(4) . . .
59(4) . . .
53(4) . . .
61(4) . . .
60(4) . . .
60(4) . . .
48(4) . . .
51(4) . . .
57(4) . . .
56(4) . . .
61(4) . . .
46(4) . . .
47(4) . . .
59(4) . . .
52(4) . . .
54(4) . . .
56(4) . . .
46(4) . . .
49(4) . . .
51(4) . . .
55(4) . . .
54(4) . . .
51(4) . . .
53(4) . . .
52(4) . . .
41.0(33) . . .
47(4) . . .
53(4) . . .
57(4) . . .
50(4) . . .
56(4) . . .
55(4) . . .
49(4) . . .
55(4) . . .
58(4) . . .
49(4) . . .
49(4) . . .
54(4) . . .
49(4) . . .
50(4) . . .
58(4) . . .
60(4) . . .
52(4) . . .
51(4) . . .
62(4) . . .
58(4) . . .
52(4) . . .
48(4) . . .
63(4) . . .
57(4) . . .
55(4) . . .
50(4) . . .
48(4) . . .
58(4) . . .
55(4) . . .
58(4) . . .
69(4) . . .
55(4) . . .
48(4) . . .
50(4) . . .
45(4) . . .
49(4) . . .
52(4) . . .
45(4) . . .
52(4) . . .
46(4) . . .
55(4) . . .
56(4) . . .
48(4) . . .
56(4) . . .
59(4) . . .
57(4) . . .
62(4) . . .
54(4) . . .
59(4) . . .
47(4) . . .
51(4) . . .
53(4) . . .
46(4) . . .
63(4) . . .
50(4) . . .
52(4) . . .
61(4) . . .
56(4) . . .
51(4) . . .
55(4) . . .
59(4) . . .
47(4) . . .
51(4) . . .
61(4) . . .
59(4) . . .
49(4) . . .
53(4) . . .
56(4) . . .
55(4) . . .
48(4) . . .
44(4) . . .
49(4) . . .
50(4) . . .
45(4) . . .
58(4) . . .
53(4) . . .
62(4) . . .
43(4) . . .
46(4) . . .
53(4) . . .
47(4) . . .
56(4) . . .
59(4) . . .
58(4) . . .
58(4) . . .
50(4) . . .
54(4) . . .
50(4) . . .
52(4) . . .
51(4) . . .
53(4) . . .
62(4) . . .
48(4) . . .
50(4) . . .
54(4) . . .
49(4) . . .
53(4) . . .
54(4) . . .
48(4) . . .
60(4) . . .
38.8(33) . . .
49(4) . . .
53(4) . . .
60(4) . . .
55(4) . . .
58(4) . . .
44.1(35) . . .
59(4) . . .
46(4) . . .
54(4) . . .
50(4) . . .
46(4) . . .
54(4) . . .
47(4) . . .
52(4) . . .
60(4) . . .
47(4) . . .
45(4) . . .
51(4) . . .
52(4) . . .
55(4) . . .
40.8(35) . . .
46(4) . . .
66(4) . . .
48(4) . . .
52(4) . . .
47(4) . . .
54(4) . . .
59(4) . . .
52(4) . . .
54(4) . . .
62(4) . . .
68(5) . . .
66(4) . . .
54(4) . . .
48(4) . . .
47(4) . . .
65(5) . . .
58(4) . . .
63(4) . . .
57(4) . . .
47(4) . . .
50(4) . . .
45(4) . . .
42.8(34) . . .
57(4) . . .
53(4) . . .
55(4) . . .
56(4) . . .
56(4) . . .
49(4) . . .
51(4) . . .
51(4) . . .
59(4) . . .
51(4) . . .
50(4) . . .
54(4) . . .
50(4) . . .
71(5) . . .
58(4) . . .
55(4) . . .
54(4) . . .
50(4) . . .
50(4) . . .
58(4) . . .
48(4) . . .
55(4) . . .
48(4) . . .
43.5(35) . . .
46(4) . . .
51(4) . . .
43(4) . . .
51(4) . . .
52(4) . . .
52(4) . . .
53(4) . . .
60(4) . . .
55(4) . . .
62(4) . . .
47(4) . . .
51(4) . . .
56(4) . . .
50(4) . . .
52(4) . . .
57(4) . . .
60(4) . . .
55(4) . . .
50(4) . . .
56(4) . . .
49(4) . . .
44(4) . . .
49(4) . . .
55(4) . . .
48(4) . . .
55(4) . . .
57(4) . . .
54(4) . . .
55(4) . . .
67(4) . . .
56(4) . . .
52(4) . . .
53(4) . . .
58(4) . . .
55(4) . . .
57(4) . . .
48(4) . . .
47(4) . . .
51(4) . . .
57(4) . . .
52(4) . . .
55(4) . . .
57(4) . . .
50(4) . . .
53(4) . . .
50(4) . . .
55(4) . . .
48(4) . . .
49(4) . . .
50(4) . . .
60(4) . . .
45(4) . . .
48(4) . . .
55(4) . . .
53(4) . . .
51(4) . . .
53(4) . . .
61(4) . . .
56(4) . . .
58(4) . . .
55(4) . . .
49(4) . . .
49(4) . . .
52(4) . . .
57(4) . . .
66(4) . . .
61(4) . . .
65(4) . . .
53(4) . . .
54(4) . . .
59(4) . . .
57(4) . . .
53(4) . . .
62(4) . . .
47(4) . . .
38.6(33) . . .
56(4) . . .
43.8(35) . . .
53(4) . . .
69(4) . . .
57(4) . . .
46(4) . . .
47(4) . . .
54(4) . . .
50(4) . . .
47(4) . . .
58(4) . . .
52(4) . . .
63(4) . . .
56(4) . . .
56(4) . . .
59(4) . . .
48(4) . . .
52(4) . . .
56(4) . . .
52(4) . . .
45(4) . . .
58(4) . . .
51(4) . . .
56(4) . . .
51(4) . . .
54(4) . . .
50(4) . . .
59(4) . . .
58(4) . . .
59(4) . . .
56(4) . . .
63(4) . . .
65(4) . . .
65(4) . . .
51(4) . . .
61(4) . . .
60(4) . . .
47(4) . . .
53(4) . . .
55(4) . . .
55(4) . . .
56(4) . . .
54(4) . . .
52(4) . . .
49(4) . . .
50(4) . . .
58(4) . . .
51(4) . . .
58(4) . . .
58(4) . . .
47(4) . . .
51(4) . . .
53(4) . . .
58(4) . . .
54(4) . . .
56(4) . . .
47(4) . . .
48(4) . . .
51(4) . . .
56(4) . . .
58(4) . . .
55(4) . . .
46(4) . . .
55(4) . . .
53(4) . . .
55(4) . . .
47(4) . . .
56(4) . . .
55(4) . . .
54(4) . . .
60(4) . . .
64(4) . . .
64(4) . . .
51(4) . . .
59(4) . . .
52(4) . . .
49(4) . . .
48(4) . . .
54(4) . . .
48(4) . . .
58(4) . . .
59(4) . . .
40.8(34) . . .
47(4) . . .
54(4) . . .
48(4) . . .
44.7(35) . . .
54(4) . . .
55(4) . . .
52(4) . . .
48(4) . . .
49(4) . . .
51(4) . . .
65(5) . . .
55(4) . . .
47(4) . . .
55(4) . . .
56(4) . . .
62(4) . . .
54(4) . . .
52(4) . . .
57(4) . . .
52(4) . . .
59(4) . . .
50(4) . . .
55(4) . . .
60(4) . . .
53(4) . . .
50(4) . . .
45(4) . . .
59(4) . . .
52(4) . . .
55(4) . . .
44(4) . . .
55(4) . . .
64(4) . . .
46(4) . . .
44(4) . . .
44(4) . . .
49(4) . . .
56(4) . . .
48(4) . . .
39(4) . . .
47(4) . . .
46.3(35) . . .
51(4) . . .
52(4) . . .
46(4) . . .
48(4) . . .
62(4) . . .
45(4) . . .
54(4) . . .
55(4) . . .
51(4) . . .
57(4) . . .
57(4) . . .
48(4) . . .
51(4) . . .
53(4) . . .
53(4) . . .
49(4) . . .
63(4) . . .
61(4) . . .
62(4) . . .
58(4) . . .
51(4) . . .
65(4) . . .
55(4) . . .
55(4) . . .
55(4) . . .
55(4) . . .
50(4) . . .
61(4) . . .
41.4(34) . . .
56(4) . . .
50(4) . . .
46(4) . . .
47(4) . . .
46(4) . . .
63(4) . . .
55(4) . . .
45(4) . . .
52(4) . . .
50(4) . . .
49(4) . . .
52(4) . . .
57(4) . . .
55(4) . . .
51(4) . . .
54(4) . . .
54(4) . . .
56(4) . . .
36.7(32) . . .
49(4) . . .
54(4) . . .
52(4) . . .
52(4) . . .
72(5) . . .
64(4) . . .
55(4) . . .
51(4) . . .
52(4) . . .
62(4) . . .
56(4) . . .
58(4) . . .
57(4) . . .
53(4) . . .
54(4) . . .
51(4) . . .
50(4) . . .
40.4(34) . . .
57(4) . . .
57(4) . . .
49(4) . . .
46(4) . . .
58(4) . . .
47(4) . . .
51(4) . . .
41.8(33) . . .
51(4) . . .
50(4) . . .
47(4) . . .
55(4) . . .
51(4) . . .
53(4) . . .
50(4) . . .
60(4) . . .
48(4) . . .
43.4(34) . . .
52(4) . . .
65(5) . . .
52(4) . . .
50(4) . . .
60(4) . . .
59(4) . . .
52(4) . . .
55(4) . . .
54(4) . . .
63(4) . . .
52(4) . . .
54(4) . . .
46(4) . . .
53(4) . . .
54(4) . . .
70(5) . . .
57(4) . . .
50(4) . . .
49(4) . . .
55(4) . . .
51(4) . . .
63(4) . . .
58(4) . . .
58(4) . . .
49(4) . . .
46(4) . . .
50(4) . . .
53(4) . . .
52(4) . . .
51(4) . . .
43(4) . . .
41(4) . . .
61(4) . . .
54(4) . . .
56(4) . . .
53(4) . . .
55(4) . . .
45(4) . . .
57(4) . . .
46(4) . . .
43.6(34) . . .
59(4) . . .
47(4) . . .
45(4) . . .
52(4) . . .
57(4) . . .
56(4) . . .
58(4) . . .
51(4) . . .
46(4) . . .
51(4) . . .
50(4) . . .
59(4) . . .
52(4) . . .
55(4) . . .
58(4) . . .
49(4) . . .
54(4) . . .
52(4) . . .
49(4) . . .
48(4) . . .
52(4) . . .
56(4) . . .
60(4) . . .
56(4) . . .
56(4) . . .
53(4) . . .
51(4) . . .
57(4) . . .
48(4) . . .
51(4) . . .
58(4) . . .
46.5(35) . . .
56(4) . . .
58(4) . . .
53(4) . . .
47(4) . . .
57(4) . . .
39.2(33) . . .
51(4) . . .
56(4) . . .
46(4) . . .
54(4) . . .
38.8(34) . . .
49(4) . . .
47(4) . . .
46(4) . . .
59(4) . . .
48(4) . . .
42.2(33) . . .
50(4) . . .
59(4) . . .
51(4) . . .
59(4) . . .
41.9(33) . . .
46(4) . . .
48(4) . . .
52(4) . . .
64(4) . . .
55(4) . . .
50(4) . . .
49(4) . . .
46(4) . . .
51(4) . . .
57(4) . . .
47(4) . . .
44.0(35) . . .
54(4) . . .
53(4) . . .
44(4) . . .
49(4) . . .
50(4) . . .
49(4) . . .
56(4) . . .
43.8(34) . . .
45.9(35) . . .
53(4) . . .
48(4) . . .
57(4) . . .
53(4) . . .
46(4) . . .
55(4) . . .
59(4) . . .
49(4) . . .
46(4) . . .
50(4) . . .
50(4) . . .
50(4) . . .
48(4) . . .
54(4) . . .
53(4) . . .
49(4) . . .
58(4) . . .
45(4) . . .
52(4) . . .
64(4) . . .
63(4) . . .
52(4) . . .
46(4) . . .
51(4) . . .
58(4) . . .
54(4) . . .
55(4) . . .
57(4) . . .
41.2(35) . . .
45(4) . . .
53(4) . . .
54(4) . . .
49(4) . . .
50(4) . . .
44.7(34) . . .
54(4) . . .
46(4) . . .
55(4) . . .
50(4) . . .
48(4) . . .
53(4) . . .
51(4) . . .
46(4) . . .
39.6(33) . . .
53(4) . . .
58(4) . . .
49(4) . . .
52(4) . . .
45(4) . . .
50(4) . . .
49(4) . . .
57(4) . . .
56(4) . . .
56(4) . . .
52(4) . . .
54(4) . . .
50(4) . . .
44(4) . . .
46(4) . . .
51(4) . . .
56(4) . . .
62(4) . . .
44(4) . . .
47(4) . . .
50(4) . . .
48(4) . . .
51(4) . . .
63(4) . . .
48(4) . . .
47(4) . . .
56(4) . . .
60(4) . . .
60(4) . . .
53(4) . . .
47(4) . . .
41.8(34) . . .
55(4) . . .
58(4) . . .
56(4) . . .
53(4) . . .
45.5(35) . . .
47(4) . . .
52(4) . . .
53(4) . . .
52(4) . . .
58(4) . . .
62(4) . . .
59(4) . . .
48(4) . . .
55(4) . . .
46(4) . . .
55(4) . . .
43.4(35) . . .
59(4) . . .
50(4) . . .
51(4) . . .
54(4) . . .
58(4) . . .
44(4) . . .
60(4) . . .
59(4) . . .
49(4) . . .
47(4) . . .
46(4) . . .
54(4) . . .
54(4) . . .
40.2(33) . . .
53(4) . . .
45.8(35) . . .
48(4) . . .
58(4) . . .
65(5) . . .
56(4) . . .
52(4) . . .
46(4) . . .
53(4) . . .
51(4) . . .
43(4) . . .
54(4) . . .
53(4) . . .
58(4) . . .
51(4) . . .
52(4) . . .
56(4) . . .
54(4) . . .
49(4) . . .
47(4) . . .
51(4) . . .
42.9(34) . . .
52(4) . . .
47(4) . . .
49(4) . . .
57(4) . . .
54(4) . . .
52(4) . . .
49(4) . . .
53(4) . . .
45(4) . . .
47(4) . . .
50(4) . . .
52(4) . . .
50(4) . . .
49(4) . . .
56(4) . . .
56(4) . . .
49(4) . . .
47(4) . . .
48(4) . . .
55(4) . . .
53(4) . . .
49(4) . . .
53(4) . . .
55(4) . . .
44.5(35) . . .
57(4) . . .
61(4) . . .
55(4) . . .
55(4) . . .
58(4) . . .
54(4) . . .
47(4) . . .
56(4) . . .
55(4) . . .
44.3(34) . . .
44(4) . . .
48(4) . . .
62(4) . . .
48(4) . . .
53(4) . . .
52(4) . . .
52(4) . . .
47(4) . . .
43.8(34) . . .
53(4) . . .
51(4) . . .
47(4) . . .
48(4) . . .
52(4) . . .
49(4) . . .
47(4) . . .
50(4) . . .
44(4) . . .
47(4) . . .
48(4) . . .
49(4) . . .
50(4) . . .
54(4) . . .
40.9(34) . . .
42(4) . . .
50(4) . . .
51(4) . . .
57(4) . . .
46(4) . . .
52(4) . . .
40.3(34) . . .
53(4) . . .
56(4) . . .
52(4) . . .
61(4) . . .
54(4) . . .
49(4) . . .
43.6(34) . . .
54(4) . . .
44(4) . . .
50(4) . . .
53(4) . . .
50(4) . . .
53(4) . . .
51(4) . . .
48(4) . . .
59(4) . . .
49(4) . . .
53(4) . . .
50(4) . . .
43(4) . . .
43.4(35) . . .
42.0(33) . . .
52(4) . . .
53(4) . . .
57(4) . . .
53(4) . . .
57(4) . . .
45(4) . . .
44(4) . . .
51(4) . . .
55(4) . . .
55(4) . . .
49(4) . . .
51(4) . . .
44(4) . . .
47(4) . . .
49(4) . . .
58(4) . . .
62(4) . . .
52(4) . . .
47(4) . . .
56(4) . . .
57(4) . . .
48(4) . . .
58(4) . . .
49(4) . . .
55(4) . . .
52(4) . . .
57(4) . . .
55(4) . . .
51(4) . . .
59(4) . . .
51(4) . . .
46(4) . . .
56(4) . . .
56(4) . . .
45(4) . . .
53(4) . . .
50(4) . . .
50(4) . . .
52(4) . . .
54(4) . . .
53(4) . . .
50(4) . . .
58(4) . . .
54(4) . . .
56(4) . . .
47(4) . . .
46(4) . . .
51(4) . . .
62(4) . . .
51(4) . . .
53(4) . . .
56(4) . . .
57(4) . . .
45(4) . . .
57(4) . . .
64(4) . . .
46(4) . . .
51(4) . . .
52(4) . . .
45(4) . . .
47(4) . . .
52(4) . . .
52(4) . . .
49(4) . . .
46(4) . . .
48(4) . . .
62(5) . . .
52(4) . . .
52(4) . . .
48(4) . . .
48(4) . . .
57(4) . . .
53(4) . . .
51(4) . . .
43.1(35) . . .
40.4(34) . . .
50(4) . . .
51(4) . . .
57(4) . . .
54(4) . . .
46(4) . . .
54(4) . . .
47(4) . . .
46(4) . . .
46(4) . . .
48(4) . . .
46(4) . . .
48(4) . . .
45(4) . . .
49(4) . . .
49(4) . . .
53(4) . . .
54(4) . . .
48(4) . . .
57(4) . . .
44(4) . . .
50(4) . . .
51(4) . . .
48(4) . . .
50(4) . . .
46(4) . . .
56(4) . . .
47(4) . . .
54(4) . . .
48(4) . . .
43(4) . . .
54(4) . . .
45.1(35) . . .
54(4) . . .
60(4) . . .
47(4) . . .
60(4) . . .
54(4) . . .
51(4) . . .
39.5(33) . . .
45(4) . . .
41.6(34) . . .
51(4) . . .
52(4) . . .
40.9(34) . . .
45(4) . . .
51(4) . . .
55(4) . . .
54(4) . . .
56(4) . . .
43.6(35) . . .
58(4) . . .
47(4) . . .
53(4) . . .
57(4) . . .
55(4) . . .
49(4) . . .
52(4) . . .
61(4) . . .
59(4) . . .
48(4) . . .
50(4) . . .
49(4) . . .
46(4) . . .
51(4) . . .
50(4) . . .
62(4) . . .
53(4) . . .
51(4) . . .
54(4) . . .
55(4) . . .
45(4) . . .
51(4) . . .
49(4) . . .
52(4) . . .
52(4) . . .
51(4) . . .
48(4) . . .
49(4) . . .
56(4) . . .
58(4) . . .
53(4) . . .
49(4) . . .
48(4) . . .
39(4) . . .
46(4) . . .
46(4) . . .
54(4) . . .
65(4) . . .
59(4) . . .
46(4) . . .
54(4) . . .
53(4) . . .
49(4) . . .
50(4) . . .
43(4) . . .
52(4) . . .
47(4) . . .
51(4) . . .
51(4) . . .
53(4) . . .
59(4) . . .
50(4) . . .
56(4) . . .
54(4) . . .
57(4) . . .
55(4) . . .
47(4) . . .
53(4) . . .
50(4) . . .
60(4) . . .
51(4) . . .
49(4) . . .
47(4) . . .
53(4) . . .
50(4) . . .
51(4) . . .
51(4) . . .
42(4) . . .
40.8(34) . . .
39.6(32) . . .
49(4) . . .
55(4) . . .
51(4) . . .
56(4) . . .
49(4) . . .
47(4) . . .
55(4) . . .
49(4) . . .
46(4) . . .
59(4) . . .
56(4) . . .
44(4) . . .
50(4) . . .
55(4) . . .
42.6(34) . . .
46(4) . . .
42.2(35) . . .
49(4) . . .
41.7(35) . . .
57(4) . . .
52(4) . . .
39.9(34) . . .
43(4) . . .
51(4) . . .
62(4) . . .
61(4) . . .
54(4) . . .
52(4) . . .
58(4) . . .
58(4) . . .
51(4) . . .
59(4) . . .
54(4) . . .
54(4) . . .
52(4) . . .
54(4) . . .
45.3(34) . . .
62(4) . . .
58(4) . . .
54(4) . . .
45(4) . . .
51(4) . . .
41.8(33) . . .
54(4) . . .
50(4) . . .
56(4) . . .
55(4) . . .
50(4) . . .
50(4) . . .
51(4) . . .
53(4) . . .
52(4) . . .
52(4) . . .
53(4) . . .
44.4(34) . . .
43(4) . . .
52(4) . . .
49(4) . . .
41.8(34) . . .
57(4) . . .
48(4) . . .
42(4) . . .
44.3(35) . . .
44(4) . . .
49(4) . . .
45(4) . . .
54(4) . . .
53(4) . . .
45.0(35) . . .
43.5(35) . . .
47(4) . . .
60(4) . . .
45(4) . . .
44.2(35) . . .
48(4) . . .
53(4) . . .
50(4) . . .
42(4) . . .
53(4) . . .
54(4) . . .
59(4) . . .
48(4) . . .
50(4) . . .
53(4) . . .
48(4) . . .
44(4) . . .
43(4) . . .
46(4) . . .
63(4) . . .
41.7(34) . . .
58(4) . . .
50(4) . . .
54(4) . . .
41.6(33) . . .
43(4) . . .
45(4) . . .
39.6(34) . . .
47(4) . . .
53(4) . . .
58(4) . . .
53(4) . . .
53(4) . . .
66(4) . . .
61(4) . . .
53(4) . . .
44(4) . . .
52(4) . . .
50(4) . . .
56(4) . . .
52(4) . . .
55(4) . . .
60(4) . . .
41.0(34) . . .
51(4) . . .
53(4) . . .
51(4) . . .
60(4) . . .
52(4) . . .
57(4) . . .
51(4) . . .
43(4) . . .
52(4) . . .
51(4) . . .
51(4) . . .
55(4) . . .
43(4) . . .
52(4) . . .
51(4) . . .
46(4) . . .
51(4) . . .
41.0(34) . . .
50(4) . . .
50(4) . . .
45(4) . . .
48(4) . . .
55(4) . . .
49(4) . . .
49(4) . . .
50(4) . . .
48(4) . . .
54(4) . . .
53(4) . . .
62(4) . . .
51(4) . . .
60(4) . . .
55(4) . . .
59(4) . . .
55(4) . . .
52(4) . . .
51(4) . . .
50(4) . . .
50(4) . . .
50(4) . . .
50(4) . . .
48(4) . . .
47(4) . . .
46(4) . . .
50(4) . . .
51(4) . . .
54(4) . . .
52(4) . . .
56(4) . . .
44.3(35) . . .
47(4) . . .
61(4) . . .
47(4) . . .
47(4) . . .
48(4) . . .
43(4) . . .
53(4) . . .
56(4) . . .
43.8(34) . . .
47(4) . . .
55(4) . . .
48(4) . . .
59(4) . . .
53(4) . . .
51(4) . . .
50(4) . . .
50(4) . . .
56(4) . . .
44.4(34) . . .
40.3(34) . . .
49(4) . . .
51(4) . . .
49(4) . . .
51(4) . . .
50(4) . . .
57(4) . . .
47(4) . . .
54(4) . . .
52(4) . . .
39.1(33) . . .
50(4) . . .
43(4) . . .
46(4) . . .
56(4) . . .
59(4) . . .
46(4) . . .
52(4) . . .
60(4) . . .
54(4) . . .
48(4) . . .
47(4) . . .
54(4) . . .
49(4) . . .
54(4) . . .
51(4) . . .
48(4) . . .
53(4) . . .
49(4) . . .
43.6(35) . . .
60(4) . . .
50(4) . . .
52(4) . . .
48(4) . . .
39.6(35) . . .
49(4) . . .
47(4) . . .
56(4) . . .
48(4) . . .
39.7(33) . . .
43(4) . . .
51(4) . . .
52(4) . . .
41.6(34) . . .
53(4) . . .
40.1(33) . . .
52(4) . . .
45(4) . . .
37.7(32) . . .
49(4) . . .
47(4) . . .
52(4) . . .
61(4) . . .
56(4) . . .
56(4) . . .
62(4) . . .
51(4) . . .
61(4) . . .
51(4) . . .
40.9(35) . . .
52(4) . . .
45(4) . . .
46.5(35) . . .
51(4) . . .
50(4) . . .
60(4) . . .
52(4) . . .
48(4) . . .
47(4) . . .
47(4) . . .
48(4) . . .
59(4) . . .
53(4) . . .
48(4) . . .
50(4) . . .
53(4) . . .
40.5(33) . . .
47(4) . . .
45.1(35) . . .
41.6(32) . . .
54(4) . . .
49(4) . . .
44.9(35) . . .
49(4) . . .
52(4) . . .
52(4) . . .
54(4) . . .
38.8(32) . . .
64(4) . . .
53(4) . . .
38.9(35) . . .
45(4) . . .
55(4) . . .
44(4) . . .
45(4) . . .
45(4) . . .
51(4) . . .
49(4) . . .
52(4) . . .
44.5(35) . . .
59(4) . . .
40.5(33) . . .
49(4) . . .
55(4) . . .
43(4) . . .
43.2(35) . . .
46(4) . . .
58(4) . . .
54(4) . . .
52(4) . . .
44.2(35) . . .
50(4) . . .
56(4) . . .
44.3(34) . . .
48(4) . . .
53(4) . . .
51(4) . . .
49(4) . . .
51(4) . . .
58(4) . . .
46(4) . . .
48(4) . . .
44(4) . . .
51(4) . . .
40.9(33) . . .
51(4) . . .
47(4) . . .
48(4) . . .
53(4) . . .
49(4) . . .
50(4) . . .
49(4) . . .
52(4) . . .
47(4) . . .
44(4) . . .
54(4) . . .
42.5(34) . . .
47(4) . . .
46(4) . . .
42.3(34) . . .
47(4) . . .
41.1(33) . . .
57(4) . . .
58(4) . . .
57(4) . . .
41.0(34) . . .
44.1(35) . . .
41.0(34) . . .
53(4) . . .
56(4) . . .
63(4) . . .
49(4) . . .
48(4) . . .
46(4) . . .
40.4(34) . . .
44(4) . . .
52(4) . . .
58(4) . . .
53(4) . . .
52(4) . . .
47(4) . . .
53(4) . . .
40.5(34) . . .
49(4) . . .
49(4) . . .
39.7(33) . . .
38.8(33) . . .
47(4) . . .
49(4) . . .
44(4) . . .
47(4) . . .
49(4) . . .
53(4) . . .
52(4) . . .
55(4) . . .
47(4) . . .
53(4) . . .
45(4) . . .
44(4) . . .
49(4) . . .
40.0(33) . . .
52(4) . . .
46(4) . . .
42(4) . . .
61(4) . . .
44.5(35) . . .
48(4) . . .
44.1(34) . . .
49(4) . . .
48(4) . . .
47(4) . . .
49(4) . . .
48(4) . . .
46(4) . . .
47(4) . . .
47(4) . . .
49(4) . . .
53(4) . . .
45(4) . . .
53(4) . . .
44.3(35) . . .
49(4) . . .
53(4) . . .
43(4) . . .
52(4) . . .
51(4) . . .
50(4) . . .
40.8(35) . . .
50(4) . . .
49(4) . . .
44.2(35) . . .
55(4) . . .
53(4) . . .
46(4) . . .
49(4) . . .
53(4) . . .
58(4) . . .
57(4) . . .
51(4) . . .
47(4) . . .
53(4) . . .
45(4) . . .
48(4) . . .
51(4) . . .
55(4) . . .
52(4) . . .
55(4) . . .
54(4) . . .
47(4) . . .
54(4) . . .
41.8(35) . . .
49(4) . . .
46(4) . . .
47(4) . . .
57(4) . . .
53(4) . . .
39.5(34) . . .
44(4) . . .
41.2(35) . . .
52(4) . . .
62(4) . . .
47(4) . . .
53(4) . . .
40.4(34) . . .
46.0(35) . . .
46(4) . . .
44(4) . . .
45(4) . . .
50(4) . . .
49(4) . . .
46(4) . . .
44(4) . . .
50(4) . . .
52(4) . . .
55(4) . . .
46(4) . . .
40.0(34) . . .
46(4) . . .
48(4) . . .
48(4) . . .
48(4) . . .
49(4) . . .
43.2(34) . . .
52(4) . . .
52(4) . . .
46(4) . . .
54(4) . . .
52(4) . . .
43.7(34) . . .
49(4) . . .
52(4) . . .
54(4) . . .
38.0(32) . . .
48(4) . . .
53(4) . . .
51(4) . . .
49(4) . . .
57(4) . . .
49(4) . . .
46(4) . . .
47(4) . . .
55(4) . . .
59(4) . . .
46(4) . . .
47(4) . . .
47(4) . . .
57(4) . . .
49(4) . . .
59(4) . . .
43.0(34) . . .
44(4) . . .
53(4) . . .
51(4) . . .
55(4) . . .
53(4) . . .
44(4) . . .
49(4) . . .
48(4) . . .
44.5(35) . . .
56(4) . . .
52(4) . . .
41.5(35) . . .
42(4) . . .
42.2(34) . . .
40.4(33) . . .
53(4) . . .
45.8(35) . . .
45(4) . . .
54(4) . . .
49(4) . . .
49(4) . . .
58(4) . . .
53(4) . . .
42.7(35) . . .
54(4) . . .
48(4) . . .
45(4) . . .
46(4) . . .
51(4) . . .
46(4) . . .
55(4) . . .
56(4) . . .
55(4) . . .
59(4) . . .
50(4) . . .
49(4) . . .
52(4) . . .
53(4) . . .
56(4) . . .
48(4) . . .
52(4) . . .
49(4) . . .
58(4) . . .
43.6(34) . . .
53(4) . . .
48(4) . . .
50(4) . . .
39.6(33) . . .
53(4) . . .
54(4) . . .
48(4) . . .
55(4) . . .
53(4) . . .
47(4) . . .
51(4) . . .
50(4) . . .
42(4) . . .
45(4) . . .
43.0(34) . . .
40.5(33) . . .
49(4) . . .
46(4) . . .
50(4) . . .
45(4) . . .
57(4) . . .
40.5(34) . . .
46(4) . . .
57(4) . . .
47(4) . . .
55(4) . . .
49(4) . . .
51(4) . . .
48(4) . . .
51(4) . . .
45(4) . . .
51(4) . . .
45.7(35) . . .
44.4(35) . . .
67(5) . . .
50(4) . . .
49(4) . . .
54(4) . . .
62(4) . . .
51(4) . . .
40.0(33) . . .
46(4) . . .
52(4) . . .
50(4) . . .
46(4) . . .
50(4) . . .
41.2(33) . . .
43.3(34) . . .
49(4) . . .
51(4) . . .
50(4) . . .
46(4) . . .
44.2(35) . . .
47(4) . . .
55(4) . . .
44(4) . . .
58(4) . . .
55(4) . . .
42.8(34) . . .
49(4) . . .
43.9(35) . . .
49(4) . . .
41.9(34) . . .
49(4) . . .
53(4) . . .
44(4) . . .
50(4) . . .
41.4(35) . . .
44(4) . . .
44(4) . . .
53(4) . . .
47(4) . . .
38.5(33) . . .
61(4) . . .
53(4) . . .
42.3(34) . . .
46(4) . . .
38.4(32) . . .
45(4) . . .
41.2(33) . . .
48(4) . . .
38.3(32) . . .
51(4) . . .
51(4) . . .
50(4) . . .
50(4) . . .
55(4) . . .
49(4) . . .
44.3(34) . . .
48(4) . . .
45(4) . . .
46(4) . . .
43.0(35) . . .
51(4) . . .
46(4) . . .
37.2(31) . . .
58(4) . . .
57(4) . . .
47(4) . . .
46(4) . . .
50(4) . . .
48(4) . . .
44.8(35) . . .
48(4) . . .
48(4) . . .
46(4) . . .
51(4) . . .
45(4) . . .
39.3(34) . . .
44(4) . . .
59(4) . . .
48(4) . . .
51(4) . . .
43.3(35) . . .
48(4) . . .
41.7(35) . . .
58(4) . . .
50(4) . . .
54(4) . . .
46(4) . . .
40(4) . . .
45.1(35) . . .
50(4) . . .
54(4) . . .
43.6(34) . . .
41.7(33) . . .
55(4) . . .
46(4) . . .
46(4) . . .
47(4) . . .
50(4) . . .
41.6(34) . . .
46(4) . . .
41.6(34) . . .
52(4) . . .
56(4) . . .
45.3(35) . . .
53(4) . . .
54(4) . . .
52(4) . . .
56(4) . . .
52(4) . . .
43(4) . . .
35.3(34) . . .
49(4) . . .
37.8(32) . . .
45(4) . . .
39.2(33) . . .
44(4) . . .
48(4) . . .
50(4) . . .
39.4(33) . . .
52(4) . . .
40.5(33) . . .
47(4) . . .
44(4) . . .
45(4) . . .
50(4) . . .
49(4) . . .
45(4) . . .
46(4) . . .
53(4) . . .
47(4) . . .
45(4) . . .
45(4) . . .
41.2(34) . . .
52(4) . . .
50(4) . . .
49(4) . . .
45(4) . . .
51(4) . . .
55(4) . . .
52(4) . . .
51(4) . . .
53(4) . . .
48(4) . . .
53(4) . . .
52(4) . . .
53(4) . . .
50(4) . . .
50(4) . . .
46(4) . . .
40.9(33) . . .
48(4) . . .
41.9(34) . . .
47(4) . . .
49(4) . . .
44(4) . . .
45(4) . . .
49(4) . . .
48(4) . . .
44(4) . . .
44(4) . . .
53(4) . . .
49(4) . . .
49(4) . . .
47(4) . . .
55(4) . . .
46(4) . . .
40.2(34) . . .
49(4) . . .
49(4) . . .
46(4) . . .
43.8(35) . . .
46(4) . . .
43(4) . . .
49(4) . . .
39.9(34) . . .
48(4) . . .
45.0(35) . . .
53(4) . . .
53(4) . . .
49(4) . . .
53(4) . . .
52(4) . . .
54(4) . . .
51(4) . . .
41.7(34) . . .
49(4) . . .
50(4) . . .
59(4) . . .
47(4) . . .
50(4) . . .
50(4) . . .
45(4) . . .
56(4) . . .
47(4) . . .
40.5(35) . . .
41.5(33) . . .
43.1(34) . . .
58(4) . . .
40.6(35) . . .
40.1(34) . . .
49(4) . . .
45(4) . . .
54(4) . . .
47(4) . . .
48(4) . . .
47(4) . . .
51(4) . . .
47(4) . . .
52(4) . . .
58(4) . . .
53(4) . . .
39.9(33) . . .
49(4) . . .
49(4) . . .
43.3(34) . . .
42.8(34) . . .
48(4) . . .
57(4) . . .
45(4) . . .
46(4) . . .
50(4) . . .
46(4) . . .
38.1(33) . . .
41.4(34) . . .
51(4) . . .
46(4) . . .
49(4) . . .
40(4) . . .
45(4) . . .
43.6(35) . . .
49(4) . . .
40.4(34) . . .
57(4) . . .
44(4) . . .
36.8(32) . . .
47(4) . . .
58(4) . . .
61(4) . . .
55(4) . . .
48(4) . . .
47(4) . . .
53(4) . . .
39.8(34) . . .
43(4) . . .
45(4) . . .
38.6(32) . . .
48(4) . . .
48(4) . . .
44(4) . . .
48(4) . . .
48(4) . . .
46(4) . . .
49(4) . . .
49(4) . . .
45.4(35) . . .
44.3(34) . . .
40.0(34) . . .
48(4) . . .
49(4) . . .
60(4) . . .
48(4) . . .
53(4) . . .
49(4) . . .
49(4) . . .
59(4) . . .
55(4) . . .
45(4) . . .
46(4) . . .
49(4) . . .
49(4) . . .
49(4) . . .
51(4) . . .
48(4) . . .
40.7(34) . . .
39.3(33) . . .
47(4) . . .
45(4) . . .
49(4) . . .
47(4) . . .
54(4) . . .
45(4) . . .
47(4) . . .
47(4) . . .
52(4) . . .
47(4) . . .
52(4) . . .
54(4) . . .
48(4) . . .
46(4) . . .
47(4) . . .
50(4) . . .
46(4) . . .
58(4) . . .
47(4) . . .
46(4) . . .
46(4) . . .
46(4) . . .
49(4) . . .
54(4) . . .
48(4) . . .
52(4) . . .
48(4) . . .
51(4) . . .
44.5(35) . . .
47(4) . . .
43(4) . . .
48(4) . . .
61(4) . . .
48(4) . . .
42.0(34) . . .
52(4) . . .
51(4) . . .
53(4) . . .
39.3(32) . . .
48(4) . . .
47(4) . . .
36.7(33) . . .
40.8(35) . . .
48(4) . . .
55(4) . . .
48(4) . . .
51(4) . . .
39.0(32) . . .
47(4) . . .
40.4(33) . . .
44(4) . . .
51(4) . . .
48(4) . . .
49(4) . . .
42.9(34) . . .
45(4) . . .
51(4) . . .
45(4) . . .
49(4) . . .
44(4) . . .
47(4) . . .
46(4) . . .
48(4) . . .
50(4) . . .
51(4) . . .
51(4) . . .
39.3(33) . . .
43.1(34) . . .
49(4) . . .
40.7(35) . . .
46(4) . . .
47(4) . . .
40.2(33) . . .
47(4) . . .
48(4) . . .
40.3(34) . . .
49(4) . . .
49(4) . . .
49(4) . . .
50(4) . . .
43(4) . . .
43.1(35) . . .
45.2(35) . . .
37.5(32) . . .
53(4) . . .
48(4) . . .
60(4) . . .
39.3(33) . . .
47(4) . . .
41.9(33) . . .
42(4) . . .
43(4) . . .
45.3(35) . . .
48(4) . . .
42.4(34) . . .
49(4) . . .
56(4) . . .
54(4) . . .
59(4) . . .
58(4) . . .
55(4) . . .
45(4) . . .
60(4) . . .
50(4) . . .
50(4) . . .
52(4) . . .
52(4) . . .
40.4(33) . . .
47(4) . . .
44(4) . . .
47(4) . . .
55(4) . . .
46(4) . . .
47(4) . . .
48(4) . . .
50(4) . . .
53(4) . . .
43.1(34) . . .
47(4) . . .
50(4) . . .
40.3(33) . . .
50(4) . . .
44.5(35) . . .
54(4) . . .
40.2(32) . . .
57(4) . . .
49(4) . . .
52(4) . . .
46(4) . . .
43(4) . . .
51(4) . . .
49(4) . . .
50(4) . . .
50(4) . . .
50(4) . . .
51(4) . . .
42.7(34) . . .
45.7(35) . . .
59(4) . . .
54(4) . . .
41(4) . . .
39.4(33) . . .
46(4) . . .
45(4) . . .
45(4) . . .
55(4) . . .
55(4) . . .
57(4) . . .
43.2(34) . . .
50(4) . . .
51(4) . . .
35.7(31) . . .
45(4) . . .
42(4) . . .
44(4) . . .
47(4) . . .
44.2(34) . . .
52(4) . . .
54(4) . . .
57(4) . . .
48(4) . . .
49(4) . . .
43(4) . . .
42(4) . . .
46(4) . . .
37.1(32) . . .
46(4) . . .
52(4) . . .
44(4) . . .
37.5(32) . . .
55(4) . . .
54(4) . . .
47(4) . . .
45(4) . . .
46(4) . . .
42.5(34) . . .
50(4) . . .
38.2(32) . . .
47(4) . . .
46(4) . . .
51(4) . . .
48(4) . . .
47(4) . . .
51(4) . . .
47(4) . . .
43.8(34) . . .
51(4) . . .
46(4) . . .
51(4) . . .
46(4) . . .
52(4) . . .
50(4) . . .
57(4) . . .
54(4) . . .
52(4) . . .
53(4) . . .
50(4) . . .
53(4) . . .
38.9(33) . . .
51(4) . . .
35.3(32) . . .
51(4) . . .
51(4) . . .
48(4) . . .
42.3(35) . . .
48(4) . . .
49(4) . . .
54(4) . . .
51(4) . . .
49(4) . . .
55(4) . . .
48(4) . . .
51(4) . . .
46(4) . . .
42(4) . . .
43.7(34) . . .
50(4) . . .
47(4) . . .
49(4) . . .
41.8(34) . . .
48(4) . . .
54(4) . . .
42.9(34) . . .
45(4) . . .
61(4) . . .
46(4) . . .
40.5(34) . . .
46(4) . . .
44(4) . . .
43.3(34) . . .
41.8(34) . . .
52(4) . . .
58(4) . . .
50(4) . . .
45(4) . . .
38.7(33) . . .
45(4) . . .
40.1(34) . . .
49(4) . . .
42.0(34) . . .
42.5(34) . . .
48(4) . . .
39(4) . . .
52(4) . . .
48(4) . . .
61(4) . . .
56(4) . . .
53(4) . . .
49(4) . . .
54(4) . . .
36.5(32) . . .
40.6(33) . . .
48(4) . . .
46(4) . . .
45(4) . . .
56(4) . . .
47(4) . . .
41.2(34) . . .
51(4) . . .
44.4(35) . . .
49(4) . . .
37.5(33) . . .
46(4) . . .
57(4) . . .
40.9(34) . . .
44.4(35) . . .
45(4) . . .
53(4) . . .
55(4) . . .
48(4) . . .
57(4) . . .
48(4) . . .
50(4) . . .
42.3(34) . . .
47(4) . . .
44(4) . . .
43(4) . . .
49(4) . . .
54(4) . . .
53(4) . . .
52(4) . . .
42.2(34) . . .
44(4) . . .
47(4) . . .
52(4) . . .
61(4) . . .
47(4) . . .
47(4) . . .
43.0(34) . . .
44.0(35) . . .
55(4) . . .
41(4) . . .
50(4) . . .
46.2(35) . . .
43(4) . . .
45(4) . . .
51(4) . . .
56(4) . . .
43.0(34) . . .
41(4) . . .
52(4) . . .
56(4) . . .
56(4) . . .
52(4) . . .
51(4) . . .
45.6(35) . . .
45(4) . . .
45(4) . . .
55(4) . . .
51(4) . . .
55(4) . . .
49(4) . . .
42.9(35) . . .
49(4) . . .
56(4) . . .
59(4) . . .
45(4) . . .
41.8(34) . . .
48(4) . . .
40.8(35) . . .
47(4) . . .
52(4) . . .
49(4) . . .
51(4) . . .
55(4) . . .
39.5(35) . . .
55(4) . . .
52(4) . . .
53(4) . . .
53(4) . . .
43(4) . . .
43(4) . . .
37.7(32) . . .
39.5(33) . . .
46(4) . . .
50(4) . . .
47(4) . . .
50(4) . . .
53(4) . . .
54(4) . . .
56(4) . . .
54(4) . . .
50(4) . . .
49(4) . . .
57(4) . . .
50(4) . . .
44.3(35) . . .
46(4) . . .
50(4) . . .
49(4) . . .
48(4) . . .
46(4) . . .
41.2(33) . . .
50(4) . . .
47(4) . . .
44.0(35) . . .
48(4) . . .
38.5(32) . . .
49(4) . . .
54(4) . . .
43(4) . . .
44(4) . . .
44.7(35) . . .
41.1(34) . . .
52(4) . . .
46(4) . . .
39.4(34) . . .
39.7(33) . . .
45(4) . . .
52(4) . . .
43.3(35) . . .
42.8(34) . . .
50(4) . . .
49(4) . . .
48(4) . . .
46(4) . . .
49(4) . . .
54(4) . . .
47(4) . . .
43(4) . . .
42(4) . . .
41.8(34) . . .
42.2(34) . . .
41.0(34) . . .
45(4) . . .
44(4) . . .
42.4(34) . . .
55(4) . . .
53(4) . . .
47(4) . . .
42.7(35) . . .
45(4) . . .
48(4) . . .
44(4) . . .
49(4) . . .
43.1(35) . . .
57(4) . . .
46(4) . . .
44.6(35) . . .
57(4) . . .
45(4) . . .
36.2(31) . . .
48(4) . . .
41(4) . . .
48(4) . . .
47(4) . . .
55(4) . . .
54(4) . . .
43(4) . . .
51(4) . . .
39.4(35) . . .
56(4) . . .
47(4) . . .
46(4) . . .
40.0(35) . . .
59(4) . . .
48(4) . . .
39.6(34) . . .
45(4) . . .
49(4) . . .
60(4) . . .
51(4) . . .
49(4) . . .
58(4) . . .
51(4) . . .
47(4) . . .
49(4) . . .
49(4) . . .
45(4) . . .
48(4) . . .
47(4) . . .
54(4) . . .
42.8(35) . . .
48(4) . . .
44(4) . . .
43.0(34) . . .
52(4) . . .
51(4) . . .
53(4) . . .
48(4) . . .
40.3(33) . . .
53(4) . . .
53(4) . . .
43(4) . . .
45(4) . . .
51(4) . . .
44.5(35) . . .
45(4) . . .
47(4) . . .
44(4) . . .
54(4) . . .
48(4) . . .
48(4) . . .
49(4) . . .
48(4) . . .
48(4) . . .
53(4) . . .
58(4) . . .
44.5(35) . . .
48(4) . . .
46(4) . . .
42(4) . . .
43(4) . . .
49(4) . . .
55(4) . . .
53(4) . . .
36.4(32) . . .
46(4) . . .
35.0(32) . . .
42.5(35) . . .
49(4) . . .
49(4) . . .
44(4) . . .
43.2(34) . . .
42.1(34) . . .
47(4) . . .
52(4) . . .
44(4) . . .
51(4) . . .
43.7(34) . . .
57(4) . . .
43.9(35) . . .
47(4) . . .
39.3(33) . . .
46(4) . . .
45(4) . . .
50(4) . . .
51(4) . . .
46(4) . . .
45(4) . . .
51(4) . . .
47(4) . . .
52(4) . . .
46(4) . . .
50(4) . . .
53(4) . . .
44.0(34) . . .
43(4) . . .
37.6(32) . . .
53(4) . . .
38.9(32) . . .
39.9(33) . . .
42(4) . . .
49(4) . . .
49(4) . . .
49(4) . . .
49(4) . . .
41.0(35) . . .
39(4) . . .
39.1(32) . . .
49(4) . . .
44(4) . . .
54(4) . . .
54(4) . . .
51(4) . . .
52(4) . . .
54(4) . . .
51(4) . . .
46(4) . . .
53(4) . . .
47(4) . . .
42(4) . . .
54(4) . . .
56(4) . . .
55(4) . . .
47(4) . . .
49(4) . . .
50(4) . . .
53(4) . . .
43.7(34) . . .
43.4(34) . . .
46(4) . . .
57(4) . . .
51(4) . . .
41.6(33) . . .
44.2(35) . . .
42(4) . . .
41.0(34) . . .
52(4) . . .
44.5(35) . . .
46(4) . . .
44(4) . . .
45(4) . . .
41.1(33) . . .
48(4) . . .
44(4) . . .
43(4) . . .
52(4) . . .
51(4) . . .
53(4) . . .
55(4) . . .
46(4) . . .
46(4) . . .
48(4) . . .
50(4) . . .
62(4) . . .
45(4) . . .
41.7(34) . . .
52(4) . . .
50(4) . . .
46(4) . . .
42(4) . . .
51(4) . . .
46(4) . . .
49(4) . . .
48(4) . . .
41(4) . . .
42.6(35) . . .
46(4) . . .
45(4) . . .
48(4) . . .
52(4) . . .
44.2(35) . . .
35.6(31) . . .
51(4) . . .
53(4) . . .
61(5) . . .
52(4) . . .
52(4) . . .
58(4) . . .
45(4) . . .
51(4) . . .
42.8(35) . . .
41.0(34) . . .
52(4) . . .
49(4) . . .
51(4) . . .
42(4) . . .
44.5(35) . . .
55(4) . . .
55(4) . . .
44(4) . . .
46(4) . . .
44.1(34) . . .
51(4) . . .
50(4) . . .
52(4) . . .
38.9(33) . . .
45.0(34) . . .
48(4) . . .
50(4) . . .
42.0(35) . . .
43(4) . . .
46(4) . . .
54(4) . . .
41(4) . . .
51(4) . . .
50(4) . . .
34.4(30) . . .
46(4) . . .
52(4) . . .
44.7(35) . . .
52(4) . . .
40.4(34) . . .
46(4) . . .
37.4(33) . . .
40.4(35) . . .
53(4) . . .
37.9(33) . . .
41(4) . . .
42(4) . . .
41.7(33) . . .
48(4) . . .
48(4) . . .
54(4) . . .
52(4) . . .
43(4) . . .
39.8(33) . . .
47(4) . . .
49(4) . . .
44(4) . . .
54(4) . . .
39.1(33) . . .
54(4) . . .
44(4) . . .
49(4) . . .
55(4) . . .
47(4) . . .
42.4(34) . . .
59(4) . . .
46(4) . . .
38.0(32) . . .
47(4) . . .
55(4) . . .
53(4) . . .
47(4) . . .
55(4) . . .
46(4) . . .
43.7(34) . . .
45(4) . . .
45(4) . . .
43.9(34) . . .
49(4) . . .
47(4) . . .
51(4) . . .
42.6(35) . . .
49(4) . . .
47(4) . . .
38.2(32) . . .
51(4) . . .
50(4) . . .
48(4) . . .
41.2(34) . . .
50(4) . . .
37.7(31) . . .
46(4) . . .
44.8(34) . . .
43(4) . . .
46(4) . . .
50(4) . . .
45.8(35) . . .
44.3(35) . . .
43(4) . . .
46(4) . . .
40.3(34) . . .
44.0(34) . . .
53(4) . . .
47(4) . . .
49(4) . . .
47(4) . . .
42.9(35) . . .
43.8(34) . . .
42.0(34) . . .
40.3(33) . . .
37.6(31) . . .
41.2(33) . . .
44.6(34) . . .
48(4) . . .
51(4) . . .
52(4) . . .
40.5(34) . . .
44.5(35) . . .
53(4) . . .
41(4) . . .
46(4) . . .
51(4) . . .
47(4) . . .
38.1(33) . . .
47(4) . . .
39.5(33) . . .
42.7(34) . . .
46(4) . . .
53(4) . . .
55(4) . . .
49(4) . . .
37.2(32) . . .
42.9(34) . . .
51(4) . . .
38.5(34) . . .
45(4) . . .
43.0(34) . . .
47(4) . . .
47(4) . . .
54(4) . . .
37.4(32) . . .
50(4) . . .
44(4) . . .
57(4) . . .
53(4) . . .
37.1(31) . . .
44.1(35) . . .
47(4) . . .
40.5(35) . . .
35.9(31) . . .
50(4) . . .
51(4) . . .
40.9(34) . . .
41(4) . . .
48(4) . . .
53(4) . . .
48(4) . . .
49(4) . . .
52(4) . . .
52(4) . . .
54(4) . . .
48(4) . . .
46(4) . . .
36.8(33) . . .
42.3(34) . . .
60(4) . . .
46(4) . . .
49(4) . . .
50(4) . . .
46(4) . . .
48(4) . . .
51(4) . . .
50(4) . . .
44(4) . . .
36.5(32) . . .
47(4) . . .
48(4) . . .
42.9(35) . . .
49(4) . . .
46(4) . . .
53(4) . . .
44.5(35) . . .
39.5(32) . . .
45(4) . . .
48(4) . . .
41.6(35) . . .
45(4) . . .
49(4) . . .
45(4) . . .
46(4) . . .
48(4) . . .
48(4) . . .
52(4) . . .
43(4) . . .
50(4) . . .
50(4) . . .
39.6(33) . . .
39.2(34) . . .
46(4) . . .
51(4) . . .
50(4) . . .
51(4) . . .
57(4) . . .
44.8(34) . . .
43.7(35) . . .
44.9(35) . . .
39.9(34) . . .
47(4) . . .
49(4) . . .
45(4) . . .
33.4(30) . . .
34.9(32) . . .
52(4) . . .
47(4) . . .
47(4) . . .
41.1(33) . . .
50(4) . . .
39.6(34) . . .
52(4) . . .
46(4) . . .
51(4) . . .
54(4) . . .
52(4) . . .
43(4) . . .
45(4) . . .
42.9(34) . . .
55(4) . . .
54(4) . . .
46(4) . . .
48(4) . . .
48(4) . . .
42(4) . . .
44(4) . . .
49(4) . . .
49(4) . . .
46(4) . . .
50(4) . . .
51(4) . . .
38.3(33) . . .
53(4) . . .
48(4) . . .
44(4) . . .
34.6(31) . . .
40.2(33) . . .
42.2(34) . . .
54(4) . . .
50(4) . . .
40.4(32) . . .
49(4) . . .
35.4(31) . . .
47(4) . . .
49(4) . . .
41.3(33) . . .
42.6(34) . . .
42.4(34) . . .
47(4) . . .
44(4) . . .
48(4) . . .
54(4) . . .
42.1(34) . . .
54(4) . . .
52(4) . . .
50(4) . . .
43.5(35) . . .
41.8(34) . . .
51(4) . . .
51(4) . . .
45.9(35) . . .
57(4) . . .
53(4) . . .
48(4) . . .
48(4) . . .
52(4) . . .
39.3(33) . . .
35.9(31) . . .
35.9(32) . . .
50(4) . . .
43.5(35) . . .
42.8(34) . . .
42.8(34) . . .
43.1(35) . . .
53(4) . . .
49(4) . . .
44.7(34) . . .
45(4) . . .
48(4) . . .
46(4) . . .
54(4) . . .
49(4) . . .
41(4) . . .
55(4) . . .
44(4) . . .
53(4) . . .
49(4) . . .
48(4) . . .
58(4) . . .
43.9(34) . . .
54(4) . . .
47(4) . . .
43(4) . . .
52(4) . . .
46(4) . . .
42.5(34) . . .
44.2(35) . . .
56(4) . . .
55(4) . . .
47(4) . . .
54(4) . . .
42.4(34) . . .
49(4) . . .
50(4) . . .
40.7(34) . . .
45(4) . . .
50(4) . . .
48(4) . . .
41(4) . . .
56(4) . . .
50(4) . . .
44.9(35) . . .
40.1(34) . . .
37(4) . . .
40.0(35) . . .
56(4) . . .
49(4) . . .
45(4) . . .
43(4) . . .
44.3(35) . . .
51(4) . . .
42.3(34) . . .
43.4(35) . . .
51(4) . . .
44(4) . . .
40.0(33) . . .
47(4) . . .
51(4) . . .
47(4) . . .
50(4) . . .
44.0(34) . . .
35.4(31) . . .
37.8(34) . . .
42.2(35) . . .
43(4) . . .
49(4) . . .
42.9(34) . . .
53(4) . . .
50(4) . . .
43.5(34) . . .
48(4) . . .
49(4) . . .
49(4) . . .
48(4) . . .
58(4) . . .
47(4) . . .
48(4) . . .
42(4) . . .
41(4) . . .
38.7(33) . . .
50(4) . . .
47(4) . . .
45(4) . . .
48(4) . . .
37.8(32) . . .
33.9(30) . . .
39.6(33) . . .
41(4) . . .
39.1(33) . . .
52(4) . . .
41.0(33) . . .
53(4) . . .
46(4) . . .
48(4) . . .
45.2(35) . . .
41.8(34) . . .
35.4(32) . . .
48(4) . . .
50(4) . . .
56(4) . . .
46(4) . . .
55(4) . . .
49(4) . . .
50(4) . . .
37.3(32) . . .
48(4) . . .
47(4) . . .
43.8(34) . . .
48(4) . . .
42.1(34) . . .
51(4) . . .
41(4) . . .
47(4) . . .
45(4) . . .
38.3(32) . . .
39.8(34) . . .
41.8(35) . . .
39.9(33) . . .
37.5(32) . . .
42.3(34) . . .
44(4) . . .
42(4) . . .
42.3(35) . . .
48(4) . . .
52(4) . . .
63(4) . . .
41.3(34) . . .
47(4) . . .
48(4) . . .
44(4) . . .
46(4) . . .
57(4) . . .
51(4) . . .
53(4) . . .
39.0(32) . . .
44(4) . . .
50(4) . . .
41.3(33) . . .
43.0(34) . . .
43.0(34) . . .
39.7(33) . . .
47(4) . . .
40.4(34) . . .
43.9(34) . . .
46(4) . . .
46(4) . . .
45(4) . . .
50(4) . . .
48(4) . . .
46(4) . . .
39.3(33) . . .
49(4) . . .
45(4) . . .
50(4) . . .
54(4) . . .
56(4) . . .
46(4) . . .
50(4) . . .
46.0(35) . . .
50(4) . . .
50(4) . . .
52(4) . . .
46(4) . . .
40.5(33) . . .
45(4) . . .
44(4) . . .
42.0(34) . . .
47(4) . . .
48(4) . . .
47(4) . . .
42.2(34) . . .
46.2(35) . . .
44.3(35) . . .
46(4) . . .
52(4) . . .
47(4) . . .
46(4) . . .
46(4) . . .
51(4) . . .
52(4) . . .
48(4) . . .
41.4(35) . . .
50(4) . . .
46(4) . . .
56(4) . . .
49(4) . . .
50(4) . . .
54(4) . . .
47(4) . . .
43.6(34) . . .
39.8(34) . . .
45(4) . . .
40.7(33) . . .
38.4(32) . . .
46(4) . . .
44(4) . . .
51(4) . . .
46(4) . . .
38.8(32) . . .
38.9(34) . . .
42(4) . . .
40.2(35) . . .
41.5(34) . . .
41.8(35) . . .
46(4) . . .
35.8(32) . . .
38.7(35) . . .
51(4) . . .
40.0(35) . . .
38.1(31) . . .
45(4) . . .
41.0(34) . . .
28.0(27) . . .
45(4) . . .
55(4) . . .
48(4) . . .
44(4) . . .
54(4) . . .
42.9(35) . . .
49(4) . . .
36.5(32) . . .
42.0(34) . . .
56(4) . . .
44.0(35) . . .
43.2(35) . . .
48(4) . . .
39.4(33) . . .
35.9(31) . . .
45(4) . . .
34.4(32) . . .
44(4) . . .
35.3(31) . . .
35.6(31) . . .
44.5(35) . . .
43(4) . . .
45(4) . . .
33.9(32) . . .
47(4) . . .
49(4) . . .
35.5(32) . . .
49(4) . . .
47(4) . . .
44.2(34) . . .
45(4) . . .
45(4) . . .
48(4) . . .
40.7(33) . . .
41.3(33) . . .
38.8(35) . . .
35.8(34) . . .
42.0(34) . . .
39.2(33) . . .
47(4) . . .
48(4) . . .
39.3(35) . . .
38.8(35) . . .
47(4) . . .
42(4) . . .
49(4) . . .
46(4) . . .
48(4) . . .
48(4) . . .
45(4) . . .
48(4) . . .
38.0(35) . . .
41.7(35) . . .
44(4) . . .
40.1(34) . . .
48(4) . . .
45(4) . . .
46(4) . . .
45(4) . . .
35.9(32) . . .
43(4) . . .
46(4) . . .
54(4) . . .
50(4) . . .
40.2(33) . . .
43(4) . . .
44(4) . . .
37.7(32) . . .
35.2(31) . . .
54(4) . . .
49(4) . . .
47(4) . . .
38.1(32) . . .
43(4) . . .
48(4) . . .
38.0(32) . . .
40.6(34) . . .
39.0(33) . . .
38.1(32) . . .
52(4) . . .
41.9(34) . . .
51(4) . . .
51(4) . . .
46(4) . . .
47(4) . . .
49(4) . . .
47(4) . . .
43.1(35) . . .
48(4) . . .
43.1(34) . . .
42.0(35) . . .
51(4) . . .
46(4) . . .
41.9(35) . . .
41.7(34) . . .
47(4) . . .
53(4) . . .
47(4) . . .
40.5(34) . . .
39(4) . . .
50(4) . . .
45(4) . . .
47(4) . . .
53(4) . . .
48(4) . . .
37.5(34) . . .
40.6(34) . . .
37.9(32) . . .
45(4) . . .
37.2(33) . . .
35.4(31) . . .
39.9(35) . . .
45.0(35) . . .
42(4) . . .
44(4) . . .
43(4) . . .
40.7(33) . . .
44.4(34) . . .
45(4) . . .
49(4) . . .
40.7(33) . . .
41.6(34) . . .
40.9(33) . . .
46(4) . . .
39.8(34) . . .
45(4) . . .
53(4) . . .
47(4) . . .
53(4) . . .
34.7(31) . . .
41.8(35) . . .
41.1(33) . . .
39.2(32) . . .
32.8(29) . . .
44(4) . . .
54(4) . . .
40.4(33) . . .
41.7(35) . . .
42(4) . . .
38(4) . . .
38.3(34) . . .
39.1(33) . . .
43.0(34) . . .
55(4) . . .
35.4(31) . . .
40(4) . . .
39.9(33) . . .
43.7(34) . . .
46(4) . . .
40(4) . . .
37.3(33) . . .
46(4) . . .
38.7(33) . . .
44(4) . . .
39.1(34) . . .
52(4) . . .
41.4(33) . . .
36.2(33) . . .
47(4) . . .
39.3(34) . . .
49(4) . . .
41.3(33) . . .
42(4) . . .
42(4) . . .
40.3(32) . . .
40.0(32) . . .
45.0(35) . . .
35.9(31) . . .
43(4) . . .
40.9(34) . . .
37.0(33) . . .
43.2(34) . . .
44(4) . . .
47(4) . . .
43(4) . . .
47(4) . . .
45(4) . . .
45(4) . . .
43(4) . . .
36.4(32) . . .
43.5(35) . . .
48(4) . . .
42.0(34) . . .
43(4) . . .
52(4) . . .
39.0(33) . . .
42.4(34) . . .
39.6(32) . . .
44(4) . . .
48(4) . . .
45.7(35) . . .
39.5(33) . . .
41.7(34) . . .
43.3(35) . . .
34.4(31) . . .
39.7(33) . . .
40.3(34) . . .
47(4) . . .
38.1(34) . . .
47(4) . . .
56(4) . . .
49(4) . . .
51(4) . . .
50(4) . . .
49(4) . . .
44.4(35) . . .
42.2(34) . . .
46(4) . . .
44.5(34) . . .
49(4) . . .
34.6(31) . . .
46(4) . . .
44(4) . . .
43(4) . . .
40.5(34) . . .
34.8(31) . . .
53(4) . . .
45(4) . . .
42(4) . . .
43.0(34) . . .
44.0(34) . . .
39.6(35) . . .
43(4) . . .
35.5(34) . . .
40.2(33) . . .
49(4) . . .
43.5(35) . . .
47(4) . . .
37.1(32) . . .
42(4) . . .
34.6(31) . . .
47(4) . . .
50(4) . . .
52(4) . . .
50(4) . . .
46(4) . . .
39.4(32) . . .
42.5(35) . . .
50(4) . . .
42.7(35) . . .
47(4) . . .
52(4) . . .
46(4) . . .
42.8(34) . . .
47(4) . . .
64(4) . . .
47(4) . . .
38.5(34) . . .
45(4) . . .
49(4) . . .
39.0(33) . . .
40.6(35) . . .
43(4) . . .
42(4) . . .
37.1(32) . . .
46(4) . . .
41.6(34) . . .
52(4) . . .
44(4) . . .
49(4) . . .
39.2(33) . . .
40.7(34) . . .
36.5(32) . . .
41.3(33) . . .
41.1(34) . . .
50(4) . . .
46(4) . . .
51(4) . . .
50(4) . . .
50(4) . . .
51(4) . . .
41.5(35) . . .
47(4) . . .
46(4) . . .
48(4) . . .
58(4) . . .
50(4) . . .
46(4) . . .
39.4(33) . . .
39.3(33) . . .
41.3(35) . . .
38.4(34) . . .
33.7(31) . . .
45(4) . . .
46(4) . . .
39.7(33) . . .
37.2(34) . . .
47(4) . . .
48(4) . . .
52(4) . . .
35.5(34) . . .
42(4) . . .
44.3(35) . . .
44.1(35) . . .
39.7(34) . . .
46(4) . . .
50(4) . . .
34.6(31) . . .
44(4) . . .
40.8(34) . . .
47(4) . . .
46(4) . . .
39.6(34) . . .
40.3(34) . . .
39.7(34) . . .
54(4) . . .
50(4) . . .
45(4) . . .
46(4) . . .
37.5(31) . . .
50(4) . . .
43(4) . . .
39.0(33) . . .
41.0(33) . . .
38.9(33) . . .
45(4) . . .
45.2(35) . . .
39.7(33) . . .
42.9(34) . . .
50(4) . . .
37.0(32) . . .
43(4) . . .
43.5(35) . . .
41.9(35) . . .
45(4) . . .
48(4) . . .
43.0(34) . . .
45(4) . . .
43.3(34) . . .
44(4) . . .
40(4) . . .
46(4) . . .
41.1(33) . . .
39.6(33) . . .
49(4) . . .
47(4) . . .
37.4(32) . . .
43.9(35) . . .
46(4) . . .
57(4) . . .
54(4) . . .
49(4) . . .
48(4) . . .
51(4) . . .
43(4) . . .
45(4) . . .
39.5(33) . . .
44.5(35) . . .
40.0(33) . . .
53(4) . . .
45(4) . . .
43(4) . . .
42.1(34) . . .
51(4) . . .
55(4) . . .
40.2(35) . . .
36.3(31) . . .
41.1(34) . . .
48(4) . . .
47.3(35) . . .
48(4) . . .
40.2(33) . . .
48(4) . . .
38(4) . . .
43(4) . . .
44(4) . . .
50(4) . . .
41.9(33) . . .
52(4) . . .
44.9(35) . . .
43(4) . . .
38.9(33) . . .
50(4) . . .
45(4) . . .
42(4) . . .
50(4) . . .
41.8(33) . . .
50(4) . . .
51(4) . . .
41(4) . . .
39.0(32) . . .
46(4) . . .
53(4) . . .
48(4) . . .
44(4) . . .
44(4) . . .
44.1(35) . . .
44.4(34) . . .
37.3(33) . . .
40.9(34) . . .
47(4) . . .
47(4) . . .
56(4) . . .
47(4) . . .
33.4(30) . . .
45(4) . . .
41.9(34) . . .
42.2(35) . . .
36.3(32) . . .
53(4) . . .
41.3(35) . . .
37.2(32) . . .
51(4) . . .
41.9(33) . . .
50(4) . . .
44.2(34) . . .
51(4) . . .
45.1(35) . . .
54(4) . . .
42(4) . . .
50(4) . . .
43.6(34) . . .
52(4) . . .
45(4) . . .
44(4) . . .
42.5(33) . . .
39.5(33) . . .
49(4) . . .
41.0(35) . . .
45(4) . . .
41.0(34) . . .
51(4) . . .
48(4) . . .
36.8(32) . . .
34.5(30) . . .
42.9(34) . . .
33.8(30) . . .
38.9(34) . . .
37.1(33) . . .
43(4) . . .
41.2(33) . . .
52(4) . . .
42(4) . . .
48(4) . . .
40(4) . . .
43.0(34) . . .
34.8(30) . . .
41.0(35) . . .
43(4) . . .
35.1(31) . . .
37.4(32) . . .
42.1(34) . . .
37.2(31) . . .
44(4) . . .
44(4) . . .
38.8(32) . . .
49(4) . . .
38.3(34) . . .
38.9(34) . . .
49(4) . . .
41.5(34) . . .
48(4) . . .
51(4) . . .
47(4) . . .
31.9(30) . . .
53(4) . . .
46(4) . . .
42.6(35) . . .
44(4) . . .
47(4) . . .
38.3(32) . . .
51(4) . . .
55(4) . . .
47(4) . . .
41(4) . . .
44.5(35) . . .
46(4) . . .
39.3(32) . . .
34.4(31) . . .
47(4) . . .
51(4) . . .
39(4) . . .
36.6(32) . . .
50(4) . . .
42.1(34) . . .
47(4) . . .
42(4) . . .
51(4) . . .
51(4) . . .
53(4) . . .
47(4) . . .
46(4) . . .
38.7(33) . . .
45(4) . . .
37.8(32) . . .
41.2(33) . . .
55(4) . . .
39.3(35) . . .
44(4) . . .
41.3(34) . . .
47(4) . . .
52(4) . . .
45(4) . . .
53(4) . . .
41.8(33) . . .
42.0(35) . . .
45(4) . . .
49(4) . . .
38.6(33) . . .
44.7(35) . . .
39.1(34) . . .
50(4) . . .
44(4) . . .
46(4) . . .
49(4) . . .
46(4) . . .
40.4(33) . . .
46(4) . . .
43(4) . . .
50(4) . . .
48(4) . . .
50(4) . . .
41.0(34) . . .
48(4) . . .
40.4(33) . . .
46(4) . . .
50(4) . . .
49(4) . . .
37.5(32) . . .
46(4) . . .
52(4) . . .
43(4) . . .
47(4) . . .
35.2(31) . . .
40.8(34) . . .
38.2(32) . . .
44(4) . . .
41(4) . . .
42.0(33) . . .
43.4(35) . . .
42(4) . . .
50(4) . . .
45(4) . . .
48(4) . . .
46(4) . . .
44(4) . . .
39(4) . . .
38(4) . . .
40.0(33) . . .
44.6(35) . . .
41.3(35) . . .
41(4) . . .
32.5(34) . . .
37.4(32) . . .
45(4) . . .
48(4) . . .
38.5(34) . . .
38.9(35) . . .
36.7(32) . . .
41.1(34) . . .
49(4) . . .
44.6(35) . . .
42(4) . . .
38.3(32) . . .
44.2(34) . . .
38.0(31) . . .
40.2(35) . . .
44(4) . . .
44.7(34) . . .
51(4) . . .
47(4) . . .
40.1(34) . . .
36.5(32) . . .
39.3(33) . . .
29.2(29) . . .
34.2(33) . . .
45(4) . . .
44.4(35) . . .
38.2(32) . . .
34.5(31) . . .
41.2(35) . . .
41(4) . . .
42.9(34) . . .
45(4) . . .
47(4) . . .
42.9(35) . . .
42.4(34) . . .
46(4) . . .
45(4) . . .
47(4) . . .
39.2(34) . . .
40.3(34) . . .
43.3(35) . . .
50(4) . . .
29.6(30) . . .
34.5(33) . . .
43(4) . . .
36.6(31) . . .
43(4) . . .
43(4) . . .
40(4) . . .
51(4) . . .
36.4(31) . . .
43.0(34) . . .
49(4) . . .
36.4(34) . . .
39.4(34) . . .
42.9(34) . . .
38.2(32) . . .
42(4) . . .
42(4) . . .
48(4) . . .
44.9(34) . . .
35.1(31) . . .
43(4) . . .
47(4) . . .
46(4) . . .
38.2(32) . . .
34.3(31) . . .
36.9(34) . . .
44(4) . . .
33.5(32) . . .
43.6(34) . . .
41(4) . . .
42.7(34) . . .
43(4) . . .
36.9(33) . . .
46(4) . . .
39.7(34) . . .
35.0(32) . . .
40.6(34) . . .
39.8(34) . . .
42.8(34) . . .
34.2(31) . . .
40(4) . . .
41(4) . . .
49(4) . . .
52(4) . . .
37.4(34) . . .
43(4) . . .
37.8(32) . . .
45.3(35) . . .
50(4) . . .
50(4) . . .
40(4) . . .
41.3(34) . . .
49(4) . . .
43.7(35) . . .
40.9(33) . . .
37.5(34) . . .
41.2(34) . . .
39.9(33) . . .
43.2(35) . . .
44(4) . . .
37.0(32) . . .
40.3(35) . . .
42.5(34) . . .
45(4) . . .
42(4) . . .
37.1(34) . . .
37.0(33) . . .
41.6(33) . . .
34.1(31) . . .
43(4) . . .
39.6(35) . . .
41(4) . . .
43.5(35) . . .
43.7(35) . . .
53(4) . . .
41.3(34) . . .
43.2(34) . . .
42.5(34) . . .
41.5(34) . . .
43(4) . . .
41.3(35) . . .
45(4) . . .
42.7(35) . . .
45(4) . . .
39.5(35) . . .
44(4) . . .
39.9(34) . . .
32.5(30) . . .
38.1(32) . . .
44(4) . . .
45(4) . . .
42.9(34) . . .
43.0(34) . . .
40.7(35) . . .
38.3(33) . . .
48(4) . . .
37.5(32) . . .
48(4) . . .
41(4) . . .
38.2(34) . . .
35.3(31) . . .
40.5(34) . . .
39.1(32) . . .
37.5(32) . . .
37.5(33) . . .
40(4) . . .
35.5(30) . . .
41.9(35) . . .
47(4) . . .
49(4) . . .
44(4) . . .
39.2(32) . . .
41.7(34) . . .
46(4) . . .
50(4) . . .
39(4) . . .
35.9(33) . . .
45.0(34) . . .
46(4) . . .
35.7(32) . . .
36.1(33) . . .
42.2(34) . . .
45(4) . . .
44.7(34) . . .
53(4) . . .
47(4) . . .
43.0(34) . . .
49(4) . . .
39.5(33) . . .
57(4) . . .
47(4) . . .
33.2(30) . . .
37.7(34) . . .
39.1(35) . . .
46(4) . . .
42.3(34) . . .
47(4) . . .
47(4) . . .
38.3(34) . . .
45(4) . . .
40.1(33) . . .
44.7(35) . . .
43(4) . . .
34.5(31) . . .
39.7(34) . . .
44.5(34) . . .
48(4) . . .
50(4) . . .
46(4) . . .
37.9(33) . . .
48(4) . . .
49(4) . . .
42(4) . . .
46(4) . . .
39.8(35) . . .
39.4(33) . . .
38.7(32) . . .
37.6(34) . . .
49(4) . . .
38.6(33) . . .
46(4) . . .
37.2(32) . . .
36.4(33) . . .
43(4) . . .
41(4) . . .
48(4) . . .
40.2(33) . . .
42.1(35) . . .
35.2(31) . . .
39.6(33) . . .
49(4) . . .
41.3(35) . . .
37.6(33) . . .
52(4) . . .
41.3(35) . . .
39.0(32) . . .
38.3(35) . . .
48(4) . . .
45(4) . . .
45(4) . . .
44.6(34) . . .
45(4) . . .
31.2(30) . . .
46(4) . . .
53(4) . . .
38.1(33) . . .
47(4) . . .
43.6(35) . . .
48(4) . . .
41.5(34) . . .
37.5(32) . . .
38.3(34) . . .
54(4) . . .
48(4) . . .
35.8(31) . . .
46(4) . . .
59(4) . . .
46(4) . . .
37.3(32) . . .
40.9(34) . . .
45.9(35) . . .
46(4) . . .
39(4) . . .
35.2(33) . . .
44.1(34) . . .
38.0(33) . . .
41(4) . . .
42(4) . . .
37.7(32) . . .
51(4) . . .
44.1(35) . . .
44.5(35) . . .
38.8(33) . . .
38.5(35) . . .
37.8(32) . . .
40.8(34) . . .
38.8(33) . . .
41(4) . . .
45(4) . . .
64(4) . . .
43.9(35) . . .
43(4) . . .
40.2(34) . . .
37.0(32) . . .
41.0(33) . . .
37.9(33) . . .
46(4) . . .
41.0(34) . . .
40(4) . . .
43.2(34) . . .
51(4) . . .
40.8(34) . . .
38.6(34) . . .
39.0(33) . . .
50(4) . . .
38.1(33) . . .
44(4) . . .
40.6(34) . . .
44(4) . . .
48(4) . . .
33.7(32) . . .
38.3(34) . . .
39.3(35) . . .
39.7(34) . . .
46(4) . . .
50(4) . . .
42(4) . . .
34.6(32) . . .
42.1(34) . . .
48(4) . . .
49(4) . . .
32.8(34) . . .
42(4) . . .
48(4) . . .
39.8(33) . . .
36.0(31) . . .
44(4) . . .
37.4(32) . . .
36.2(31) . . .
37.6(33) . . .
42.7(34) . . .
47(4) . . .
38.8(33) . . .
49(4) . . .
39.3(32) . . .
44(4) . . .
40(4) . . .
42.3(35) . . .
42.9(34) . . .
37.2(33) . . .
44(4) . . .
32.7(30) . . .
40.4(34) . . .
30.4(29) . . .
42.7(34) . . .
43(4) . . .
39.1(34) . . .
49(4) . . .
42.4(34) . . .
38.9(34) . . .
32.8(32) . . .
32.7(30) . . .
46(4) . . .
34.7(31) . . .
40.0(34) . . .
42(4) . . .
36.6(31) . . .
45(4) . . .
35.8(31) . . .
41.7(34) . . .
45(4) . . .
43.0(34) . . .
50(4) . . .
41.2(34) . . .
45(4) . . .
53(4) . . .
43(4) . . .
43.3(34) . . .
47(4) . . .
40.4(35) . . .
34.2(34) . . .
36.7(33) . . .
37.8(32) . . .
41.3(33) . . .
39.2(34) . . .
43(4) . . .
43.3(35) . . .
41.0(33) . . .
39.9(34) . . .
45(4) . . .
42.7(34) . . .
39.1(33) . . .
45(4) . . .
40.6(33) . . .
46(4) . . .
43(4) . . .
44(4) . . .
44.7(35) . . .
46(4) . . .
50(4) . . .
43(4) . . .
47(4) . . .
31.5(30) . . .
36.6(32) . . .
34.9(32) . . .
38.3(34) . . .
36.2(33) . . .
35.7(31) . . .
37.6(33) . . .
41.8(33) . . .
48(4) . . .
48(4) . . .
38.5(32) . . .
43.2(34) . . .
52(4) . . .
40(4) . . .
45(4) . . .
48(4) . . .
36.5(31) . . .
41(4) . . .
49(4) . . .
42.8(34) . . .
38.7(33) . . .
39.1(34) . . .
44(4) . . .
37.0(32) . . .
34.2(31) . . .
51(4) . . .
38.4(33) . . .
33.3(31) . . .
45(4) . . .
45.1(34) . . .
47(4) . . .
50(4) . . .
47(4) . . .
45(4) . . .
42.9(35) . . .
44.2(35) . . .
46.1(35) . . .
36.5(33) . . .
41.0(35) . . .
39.7(33) . . .
35.1(30) . . .
31.8(30) . . .
39.8(33) . . .
39.3(34) . . .
37.8(32) . . .
34.0(30) . . .
38.5(32) . . .
47(4) . . .
40.4(33) . . .
42.1(34) . . .
41.0(33) . . .
43.0(35) . . .
38.3(35) . . .
32.1(29) . . .
35.4(31) . . .
41.4(34) . . .
39.9(33) . . .
44(4) . . .
43.5(34) . . .
41.1(33) . . .
44(4) . . .
40.1(34) . . .
45(4) . . .
50(4) . . .
38.8(32) . . .
43(4) . . .
49(4) . . .
42.3(34) . . .
48(4) . . .
43.3(34) . . .
37.9(33) . . .
41.5(34) . . .
41.3(34) . . .
38.6(32) . . .
37.0(32) . . .
41.0(34) . . .
41(4) . . .
44(4) . . .
43.3(34) . . .
41.0(34) . . .
34.1(31) . . .
34.8(32) . . .
53(4) . . .
52(4) . . .
51(4) . . .
41.7(34) . . .
46(4) . . .
39.6(34) . . .
38.0(33) . . .
34.8(31) . . .
48(4) . . .
37.3(33) . . .
47(4) . . .
47(4) . . .
39.6(33) . . .
40.5(35) . . .
45(4) . . .
55(4) . . .
49(4) . . .
38.1(32) . . .
40.9(34) . . .
39.6(35) . . .
41.2(34) . . .
45.0(35) . . .
39.3(33) . . .
35.6(30) . . .
45(4) . . .
43(4) . . .
39.1(33) . . .
33.6(31) . . .
30.9(30) . . .
52(4) . . .
41.3(34) . . .
57(4) . . .
42(4) . . .
31.9(29) . . .
32.7(30) . . .
35.0(31) . . .
36.4(31) . . .
48(4) . . .
45(4) . . .
44(4) . . .
37.0(32) . . .
43.5(34) . . .
41(4) . . .
35.8(33) . . .
53(4) . . .
43.7(34) . . .
42.1(34) . . .
36.8(31) . . .
37.3(32) . . .
44(4) . . .
36.4(32) . . .
29.6(28) . . .
34.9(30) . . .
42(4) . . .
34.9(32) . . .
37.3(31) . . .
43.7(35) . . .
44(4) . . .
48(4) . . .
45(4) . . .
41.0(34) . . .
41.6(34) . . .
49(4) . . .
43(4) . . .
36.8(33) . . .
41.7(33) . . .
46(4) . . .
38.2(32) . . .
38.1(34) . . .
37.3(34) . . .
34.1(31) . . .
39.9(34) . . .
38.6(33) . . .
44(4) . . .
35.9(33) . . .
36.6(31) . . .
43(4) . . .
44(4) . . .
39.8(34) . . .
38.3(35) . . .
41.5(33) . . .
41.3(34) . . .
43(4) . . .
39.2(33) . . .
40.2(33) . . .
43.7(34) . . .
45(4) . . .
31.4(30) . . .
42.1(34) . . .
41(4) . . .
42.0(34) . . .
44.1(35) . . .
48(4) . . .
44(4) . . .
47(4) . . .
30.2(29) . . .
37.7(32) . . .
48(4) . . .
33.5(31) . . .
34.1(30) . . .
44(4) . . .
43(4) . . .
41(4) . . .
35.9(34) . . .
37.6(33) . . .
39.3(33) . . .
43(4) . . .
33.8(32) . . .
46(4) . . .
39.8(33) . . .
38.9(33) . . .
49(4) . . .
43.0(35) . . .
37.7(33) . . .
35.5(31) . . .
41(4) . . .
37.3(31) . . .
32.3(29) . . .
38.0(33) . . .
40.7(34) . . .
41.5(34) . . .
33.2(30) . . .
40.5(34) . . .
41(4) . . .
42.0(33) . . .
39.6(33) . . .
47(4) . . .
41.1(34) . . .
44(4) . . .
42.5(34) . . .
38.1(33) . . .
33.6(31) . . .
50(4) . . .
37.8(34) . . .
40.6(33) . . .
46(4) . . .
44(4) . . .
42.8(35) . . .
40.8(34) . . .
36.2(32) . . .
41(4) . . .
34.5(33) . . .
32.7(30) . . .
42.8(35) . . .
41.6(34) . . .
43(4) . . .
44(4) . . .
48(4) . . .
37.0(32) . . .
44.3(35) . . .
38.1(34) . . .
43(4) . . .
36.0(31) . . .
39.4(33) . . .
47(4) . . .
46(4) . . .
49(4) . . .
41.4(35) . . .
37.2(32) . . .
35.3(31) . . .
47(4) . . .
41.6(34) . . .
55(4) . . .
46(4) . . .
44(4) . . .
39.0(32) . . .
40.9(32) . . .
49(4) . . .
38.0(32) . . .
39.5(33) . . .
37.8(33) . . .
39.2(35) . . .
39.0(34) . . .
38.1(32) . . .
46(4) . . .
41.7(34) . . .
37.1(32) . . .
42.5(35) . . .
47(4) . . .
42(4) . . .
34.5(32) . . .
33.2(31) . . .
33.6(30) . . .
39.4(33) . . .
46(4) . . .
38.1(33) . . .
48(4) . . .
41.6(34) . . .
41.6(34) . . .
39.5(34) . . .
46(4) . . .
37.0(33) . . .
45(4) . . .
44.6(35) . . .
41(4) . . .
35.4(33) . . .
34.0(30) . . .
40.1(32) . . .
41.5(34) . . .
35.3(31) . . .
39.3(35) . . .
39.5(34) . . .
45(4) . . .
39.0(34) . . .
45(4) . . .
34.7(32) . . .
35.2(32) . . .
40.2(33) . . .
44.8(35) . . .
49(4) . . .
47(4) . . .
44.3(35) . . .
33.2(31) . . .
37.4(32) . . .
42(4) . . .
37.5(34) . . .
42(4) . . .
53(4) . . .
38.8(34) . . .
37.3(34) . . .
33.7(31) . . .
40.3(34) . . .
30.3(30) . . .
36.0(32) . . .
35.5(31) . . .
33.5(30) . . .
41.3(34) . . .
45(4) . . .
46(4) . . .
38.5(33) . . .
44(4) . . .
39.8(32) . . .
38.3(33) . . .
33.1(30) . . .
39.8(35) . . .
41.5(34) . . .
46(4) . . .
41.5(33) . . .
41(4) . . .
42(4) . . .
40.5(34) . . .
38.1(33) . . .
45.0(35) . . .
35.8(32) . . .
31.4(31) . . .
33.7(32) . . .
41.4(33) . . .
41.1(33) . . .
39.7(35) . . .
38(4) . . .
39.8(33) . . .
49(4) . . .
42.7(34) . . .
33.7(32) . . .
39(4) . . .
26.8(27) . . .
43.7(35) . . .
38.0(33) . . .
33.8(31) . . .
38.0(31) . . .
50(4) . . .
43.3(34) . . .
41.1(34) . . .
53(4) . . .
47(4) . . .
46(4) . . .
36.1(31) . . .
38.5(33) . . .
41(4) . . .
33.1(32) . . .
35.8(32) . . .
42.1(33) . . .
35.1(31) . . .
40.8(34) . . .
47(4) . . .
50(4) . . .
51(4) . . .
42.2(34) . . .
46(4) . . .
45(4) . . .
46(4) . . .
40.7(33) . . .
37.1(34) . . .
35.9(33) . . .
41.3(34) . . .
43(4) . . .
41.9(34) . . .
47(4) . . .
55(4) . . .
55(4) . . .
42.0(34) . . .
41.1(34) . . .
47(4) . . .
46(4) . . .
39.5(35) . . .
37.6(32) . . .
44.9(35) . . .
36.4(32) . . .
39(4) . . .
32.7(33) . . .
32.8(30) . . .
48(4) . . .
39.3(34) . . .
37.9(34) . . .
46(4) . . .
34.8(31) . . .
31.6(29) . . .
43.0(35) . . .
48(4) . . .
44(4) . . .
36.4(32) . . .
37.3(32) . . .
32.8(30) . . .
45(4) . . .
37.3(31) . . .
52(4) . . .
45(4) . . .
41(4) . . .
35.2(32) . . .
42.3(34) . . .
38.8(33) . . .
45(4) . . .
38.7(33) . . .
36.9(34) . . .
47(4) . . .
30.0(30) . . .
44(4) . . .
37.4(33) . . .
43(4) . . .
38.2(34) . . .
36.9(31) . . .
42(4) . . .
44(4) . . .
49(4) . . .
43.3(34) . . .
37.8(32) . . .
39.3(34) . . .
31.8(30) . . .
38(4) . . .
36.7(32) . . .
36.2(31) . . .
33.8(32) . . .
36.6(33) . . .
36.5(31) . . .
38.8(32) . . .
42.6(35) . . .
48(4) . . .
39(4) . . .
38.9(34) . . .
53(4) . . .
39.2(33) . . .
33.6(31) . . .
29.4(30) . . .
35.3(33) . . .
42.9(34) . . .
38.6(32) . . .
31.1(30) . . .
36(4) . . .
47(4) . . .
43.6(34) . . .
38.0(32) . . .
31.4(32) . . .
43(4) . . .
39.6(33) . . .
38.1(32) . . .
37.7(32) . . .
37.1(33) . . .
38.0(35) . . .
42(4) . . .
37.5(31) . . .
37.9(33) . . .
42(4) . . .
39.1(32) . . .
37.2(33) . . .
37.4(32) . . .
39(4) . . .
37.6(32) . . .
47(4) . . .
33.2(31) . . .
37.0(32) . . .
43.2(35) . . .
42.5(34) . . .
43.5(35) . . .
41.8(34) . . .
40.3(33) . . .
38.6(34) . . .
32.2(31) . . .
43(4) . . .
40.3(34) . . .
49(4) . . .
43.1(34) . . .
42(4) . . .
38.3(35) . . .
44(4) . . .
52(4) . . .
49(4) . . .
38.5(34) . . .
39.8(33) . . .
34.9(31) . . .
45.7(35) . . .
32.7(30) . . .
39.1(34) . . .
48(4) . . .
46(4) . . .
42.4(34) . . .
40.7(35) . . .
45(4) . . .
46(4) . . .
49(4) . . .
47(4) . . .
40.9(34) . . .
36.1(33) . . .
35.4(31) . . .
31.9(30) . . .
42(4) . . .
38.6(33) . . .
40.7(34) . . .
49(4) . . .
49(4) . . .
38.3(33) . . .
41(4) . . .
37.0(34) . . .
40.2(34) . . .
35.5(31) . . .
37.7(33) . . .
36.2(33) . . .
46(4) . . .
49(4) . . .
43.1(35) . . .
49(4) . . .
45(4) . . .
48(4) . . .
47(4) . . .
40.0(33) . . .
38.0(35) . . .
28.8(28) . . .
40(4) . . .
39.4(32) . . .
46(4) . . .
42.7(34) . . .
50(4) . . .
44(4) . . .
52(4) . . .
51(4) . . .
49(4) . . .
50(4) . . .
39.0(33) . . .
40.1(34) . . .
36.7(32) . . .
38.5(33) . . .
40(4) . . .
34.3(32) . . .
42.5(34) . . .
45.7(35) . . .
42(4) . . .
39(4) . . .
42.0(35) . . .
41.4(34) . . .
32.2(30) . . .
46(4) . . .
49(4) . . .
47(4) . . .
41.4(33) . . .
37.6(32) . . .
42(4) . . .
38.3(35) . . .
38.3(33) . . .
42.0(35) . . .
45(4) . . .
35.8(33) . . .
40(4) . . .
44(4) . . .
44.7(35) . . .
55(4) . . .
44(4) . . .
54(4) . . .
49(4) . . .
51(4) . . .
48(4) . . .
46(4) . . .
38.3(35) . . .
33.2(32) . . .
39.2(33) . . .
44.2(35) . . .
46(4) . . .
44(4) . . .
40.7(33) . . .
41.2(34) . . .
42.3(34) . . .
46(4) . . .
38.4(34) . . .
37.0(31) . . .
48(4) . . .
40.6(33) . . .
31.2(29) . . .
40(4) . . .
44.3(35) . . .
34.8(30) . . .
33.9(30) . . .
38.1(34) . . .
43(4) . . .
38.3(32) . . .
38.6(33) . . .
43(4) . . .
33.8(32) . . .
42(4) . . .
42.0(33) . . .
38.8(33) . . .
37.9(35) . . .
35.7(33) . . .
34.6(31) . . .
43.4(35) . . .
44.0(35) . . .
33.1(31) . . .
30.8(32) . . .
33.8(31) . . .
37.3(32) . . .
30.6(28) . . .
38.2(34) . . .
39.1(35) . . .
41.7(35) . . .
38.7(32) . . .
40(4) . . .
47(4) . . .
34.7(31) . . .
45(4) . . .
38.5(32) . . .
41.3(34) . . .
37.0(32) . . .
40.5(35) . . .
36.9(33) . . .
47(4) . . .
39.4(33) . . .
40.6(35) . . .
37.8(32) . . .
54(4) . . .
40.4(32) . . .
39.8(35) . . .
29.8(29) . . .
35.2(31) . . .
43(4) . . .
39.7(33) . . .
31.1(31) . . .
43(4) . . .
43(4) . . .
40.5(33) . . .
47(4) . . .
44(4) . . .
43(4) . . .
36.9(33) . . .
49(4) . . .
37.0(31) . . .
35.1(32) . . .
44(4) . . .
44(4) . . .
36.2(32) . . .
37.1(32) . . .
39.4(34) . . .
41(4) . . .
46(4) . . .
40.4(33) . . .
37.6(32) . . .
40.2(34) . . .
43(4) . . .
44(4) . . .
36.1(32) . . .
40.2(33) . . .
47(4) . . .
49(4) . . .
45(4) . . .
37.5(32) . . .
41.8(35) . . .
35.0(31) . . .
47(4) . . .
48(4) . . .
38.9(33) . . .
36.7(32) . . .
38(4) . . .
41(4) . . .
27.3(27) . . .
41.1(33) . . .
40.0(32) . . .
41(4) . . .
40(4) . . .
39.0(32) . . .
41.1(34) . . .
41.0(34) . . .
33.4(30) . . .
45(4) . . .
44.3(34) . . .
44(4) . . .
39.9(34) . . .
39.3(34) . . .
39.6(33) . . .
39.6(33) . . .
45(4) . . .
36.1(33) . . .
41(4) . . .
32.3(29) . . .
38.4(33) . . .
39.5(33) . . .
52(4) . . .
38.8(34) . . .
35.5(32) . . .
47(4) . . .
32.7(30) . . .
43(4) . . .
45(4) . . .
34.6(31) . . .
39.6(33) . . .
40.4(33) . . .
36.4(34) . . .
41(4) . . .
44(4) . . .
48(4) . . .
33.3(31) . . .
42(4) . . .
38.9(34) . . .
38.5(33) . . .
40.6(33) . . .
40.3(34) . . .
35.7(31) . . .
45(4) . . .
43(4) . . .
38.0(32) . . .
43.4(35) . . .
40.3(33) . . .
42(4) . . .
40.6(34) . . .
37.0(32) . . .
33.8(31) . . .
36.8(34) . . .
28.5(28) . . .
42.4(35) . . .
30.9(29) . . .
36.9(33) . . .
40(4) . . .
51(4) . . .
49(4) . . .
42.1(34) . . .
44(4) . . .
35.1(31) . . .
42(4) . . .
40.9(34) . . .
36.6(31) . . .
36.5(32) . . .
45(4) . . .
52(4) . . .
36.3(31) . . .
40.6(33) . . .
41(4) . . .
34.8(32) . . .
39(4) . . .
42.8(35) . . .
39.8(33) . . .
43(4) . . .
39.7(34) . . .
40(4) . . .
31.2(29) . . .
38.3(32) . . .
34.5(31) . . .
34.9(31) . . .
42(4) . . .
48(4) . . .
40.1(33) . . .
45(4) . . .
37.6(34) . . .
38.0(33) . . .
38.8(33) . . .
46(4) . . .
39.0(35) . . .
31.4(30) . . .
40(4) . . .
31.3(29) . . .
39.0(34) . . .
41.0(33) . . .
47(4) . . .
44(4) . . .
34.8(30) . . .
46(4) . . .
47(4) . . .
50(4) . . .
38.1(32) . . .
42.0(34) . . .
45(4) . . .
34.8(32) . . .
42(4) . . .
35.4(32) . . .
40.2(33) . . .
51(4) . . .
36.4(32) . . .
39.1(35) . . .
36.8(33) . . .
47(4) . . .
39.6(33) . . .
40(4) . . .
41.3(33) . . .
50(4) . . .
43.7(35) . . .
40(4) . . .
34.1(31) . . .
47(4) . . .
45(4) . . .
34.5(31) . . .
37.7(32) . . .
39(4) . . .
34.6(31) . . .
32.1(30) . . .
26.1(27) . . .
33.4(30) . . .
39(4) . . .
37.7(33) . . .
50(4) . . .
38.6(32) . . .
40(4) . . .
40.6(34) . . .
35.0(31) . . .
40.3(33) . . .
39.9(33) . . .
41.2(34) . . .
36.3(31) . . .
43.2(35) . . .
30.1(28) . . .
37.5(33) . . .
33.6(31) . . .
51(4) . . .
45(4) . . .
47(4) . . .
44.7(34) . . .
41.8(35) . . .
32.9(31) . . .
42(4) . . .
52(4) . . .
42.8(34) . . .
39.1(34) . . .
35.5(31) . . .
41.2(34) . . .
44.5(35) . . .
38.8(33) . . .
37.6(33) . . .
45(4) . . .
36.8(32) . . .
42.1(33) . . .
40.7(32) . . .
48(4) . . .
36.5(31) . . .
46(4) . . .
42.3(34) . . .
42.0(35) . . .
45(4) . . .
36.6(32) . . .
43.2(34) . . .
37.3(32) . . .
40.5(35) . . .
42(4) . . .
32.5(30) . . .
36.5(31) . . .
35.7(32) . . .
33.3(33) . . .
38(4) . . .
48(4) . . .
46(4) . . .
43.8(34) . . .
44.5(35) . . .
42(4) . . .
47(4) . . .
40.8(33) . . .
38.3(32) . . .
33.5(31) . . .
33.7(32) . . .
32.9(30) . . .
35.3(31) . . .
40.9(33) . . .
44(4) . . .
41.8(34) . . .
43.8(35) . . .
43.0(33) . . .
41(4) . . .
37.3(33) . . .
38.3(34) . . .
36.3(31) . . .
43.9(34) . . .
51(4) . . .
48(4) . . .
33.0(29) . . .
44(4) . . .
39.3(33) . . .
39.8(33) . . .
41(4) . . .
52(4) . . .
46(4) . . .
33.0(30) . . .
40.5(35) . . .
35(4) . . .
35.6(32) . . .
42.3(34) . . .
47(4) . . .
40(4) . . .
40(4) . . .
32.4(31) . . .
36.9(32) . . .
48(4) . . .
32.7(30) . . .
37.8(35) . . .
37.2(32) . . .
45(4) . . .
41.4(34) . . .
40.3(34) . . .
36.8(34) . . .
27.5(27) . . .
39.1(32) . . .
49(4) . . .
43(4) . . .
39(4) . . .
49(4) . . .
34.2(31) . . .
35.5(31) . . .
40.4(34) . . .
37(4) . . .
37.1(33) . . .
39.7(33) . . .
42.0(34) . . .
40(4) . . .
37.0(33) . . .
37.9(33) . . .
42.3(34) . . .
40.4(33) . . .
41(4) . . .
46(4) . . .
49(4) . . .
42.5(34) . . .
35.4(33) . . .
32.5(30) . . .
34.5(32) . . .
29.2(28) . . .
38.4(32) . . .
34.2(33) . . .
35.2(32) . . .
41.7(34) . . .
38.6(32) . . .
35.4(31) . . .
44(4) . . .
45(4) . . .
35.1(31) . . .
45(4) . . .
50(4) . . .
50(4) . . .
41(4) . . .
35.7(33) . . .
46(4) . . .
43.3(34) . . .
41.1(34) . . .
36.4(31) . . .
46(4) . . .
46(4) . . .
42.2(34) . . .
41.9(34) . . .
49(4) . . .
38.7(33) . . .
39.3(33) . . .
43.4(35) . . .
36.9(33) . . .
43(4) . . .
38.0(34) . . .
42.6(34) . . .
40.1(33) . . .
40(4) . . .
37.3(34) . . .
39.2(34) . . .
43.1(35) . . .
42.2(34) . . .
45(4) . . .
39.2(34) . . .
38(4) . . .
36.6(31) . . .
37.0(34) . . .
42(4) . . .
44(4) . . .
36.3(31) . . .
39.0(32) . . .
41.5(34) . . .
31.6(30) . . .
46(4) . . .
32.8(30) . . .
44.0(34) . . .
39.3(32) . . .
45(4) . . .
50(4) . . .
36.3(33) . . .
34.5(30) . . .
41.3(34) . . .
51(4) . . .
35.3(32) . . .
27.0(27) . . .
32.6(30) . . .
42.5(35) . . .
41(4) . . .
40.9(34) . . .
45(4) . . .
48(4) . . .
38.0(33) . . .
36.9(33) . . .
46(4) . . .
44.8(35) . . .
35.5(31) . . .
39.2(33) . . .
42(4) . . .
44(4) . . .
33.5(30) . . .
43.0(34) . . .
45(4) . . .
36.7(34) . . .
35.7(33) . . .
30.2(29) . . .
39.1(34) . . .
38(4) . . .
38.4(33) . . .
41.5(33) . . .
41.9(34) . . .
36.3(31) . . .
42(4) . . .
41.6(34) . . .
30.8(30) . . .
43.4(34) . . .
48(4) . . .
50(4) . . .
33.6(30) . . .
40.6(34) . . .
48(4) . . .
37.2(34) . . .
42(4) . . .
41.9(34) . . .
41.0(34) . . .
37.7(32) . . .
31.3(31) . . .
42(4) . . .
45(4) . . .
44(4) . . .
37.8(32) . . .
37.0(33) . . .
39.0(33) . . .
36.4(31) . . .
41(4) . . .
42.8(33) . . .
48(4) . . .
36.3(32) . . .
45(4) . . .
33.3(30) . . .
40.8(33) . . .
42(4) . . .
46(4) . . .
38.9(33) . . .
43.6(34) . . .
36.6(32) . . .
47(4) . . .
39.5(35) . . .
30.5(28) . . .
49(4) . . .
49(4) . . .
39.7(34) . . .
38(4) . . .
42(4) . . .
36.2(31) . . .
35.0(31) . . .
39.2(33) . . .
48(4) . . .
46(4) . . .
46(4) . . .
43.3(34) . . .
33.0(30) . . .
36.7(32) . . .
48(4) . . .
38.8(32) . . .
46(4) . . .
39.2(33) . . .
46(4) . . .
35.0(31) . . .
39.9(33) . . .
37.3(32) . . .
36.4(32) . . .
48(4) . . .
40.0(33) . . .
42.7(34) . . .
45(4) . . .
43.9(35) . . .
47(4) . . .
35.2(31) . . .
38.2(32) . . .
40(4) . . .
39.2(34) . . .
38.8(35) . . .
38.6(34) . . .
38.7(32) . . .
44.3(34) . . .
48(4) . . .
47(4) . . .
41.6(35) . . .
34.7(31) . . .
38.1(33) . . .
33.8(31) . . .
41.9(35) . . .
39.8(33) . . .
37.5(32) . . .
47(4) . . .
42(4) . . .
39.2(33) . . .
35.2(31) . . .
41.0(33) . . .
30.2(28) . . .
34.9(33) . . .
45(4) . . .
36.5(31) . . .
36.6(32) . . .
42.1(34) . . .
46(4) . . .
39.3(35) . . .
40.6(33) . . .
40.2(33) . . .
41(4) . . .
40(4) . . .
41(4) . . .
51(4) . . .
42.1(34) . . .
41.8(34) . . .
38.7(34) . . .
39(4) . . .
31.9(30) . . .
38.6(34) . . .
44(4) . . .
42(4) . . .
40.4(35) . . .
42.1(34) . . .
48(4) . . .
35.9(31) . . .
52(4) . . .
43.3(35) . . .
36.9(32) . . .
43(4) . . .
33.5(31) . . .
38.1(35) . . .
31.9(30) . . .
41.0(34) . . .
44(4) . . .
35.1(32) . . .
37.7(33) . . .
37.1(31) . . .
36.8(32) . . .
43(4) . . .
33.9(30) . . .
43(4) . . .
51(4) . . .
41.4(34) . . .
33.2(32) . . .
33.5(34) . . .
30.3(31) . . .
36.2(31) . . .
43(4) . . .
37.0(32) . . .
54(4) . . .
51(4) . . .
39.5(33) . . .
42.7(35) . . .
42(4) . . .
37.9(32) . . .
36.0(31) . . .
41.3(34) . . .
38.3(33) . . .
47(4) . . .
45(4) . . .
39.8(33) . . .
36.3(32) . . .
37.0(31) . . .
37.2(31) . . .
46(4) . . .
41.5(35) . . .
33.5(30) . . .
36.2(32) . . .
46(4) . . .
39(4) . . .
38.5(33) . . .
47(4) . . .
27.3(27) . . .
41.4(34) . . .
34.9(32) . . .
32.4(31) . . .
38.8(32) . . .
37.4(34) . . .
36.7(32) . . .
37.6(32) . . .
37.4(32) . . .
41.5(34) . . .
47(4) . . .
39.2(33) . . .
46(4) . . .
37.6(32) . . .
41.6(33) . . .
41.8(34) . . .
39.5(33) . . .
32.3(30) . . .
41.5(34) . . .
36.7(31) . . .
36.8(34) . . .
33.7(31) . . .
50(4) . . .
41.3(33) . . .
45.4(35) . . .
43.2(35) . . .
41(4) . . .
52(4) . . .
30.3(29) . . .
37.7(32) . . .
39(4) . . .
35.3(33) . . .
36.9(33) . . .
32.1(29) . . .
39.9(33) . . .
40.1(34) . . .
47(4) . . .
36.2(32) . . .
31.8(30) . . .
42.3(34) . . .
43(4) . . .
38.0(32) . . .
38.2(33) . . .
28.8(28) . . .
34.3(31) . . .
45(4) . . .
45(4) . . .
45(4) . . .
44(4) . . .
39.1(33) . . .
41(4) . . .
44(4) . . .
35.6(32) . . .
38.1(32) . . .
41.1(34) . . .
42(4) . . .
39.2(34) . . .
47(4) . . .
41.1(34) . . .
46(4) . . .
33.0(30) . . .
31.9(31) . . .
37.3(32) . . .
32.8(30) . . .
32.8(33) . . .
43(4) . . .
41.1(33) . . .
44(4) . . .
34.2(31) . . .
36.7(32) . . .
41(4) . . .
42(4) . . .
35.9(32) . . .
34.9(30) . . .
51(4) . . .
40(4) . . .
42(4) . . .
40.7(34) . . .
39.3(33) . . .
32.0(32) . . .
31.2(31) . . .
37.5(32) . . .
44.9(35) . . .
38.5(32) . . .
40.8(34) . . .
35.3(33) . . .
43(4) . . .
42.0(34) . . .
48(4) . . .
38.4(34) . . .
37.3(33) . . .
39(4) . . .
38.2(32) . . .
39.7(34) . . .
42(4) . . .
35.7(32) . . .
35.9(31) . . .
40.4(33) . . .
41(4) . . .
39(4) . . .
33.4(33) . . .
38.2(33) . . .
48(4) . . .
31.0(29) . . .
40.9(34) . . .
41(4) . . .
39.2(33) . . .
39.5(32) . . .
33.4(31) . . .
39.8(35) . . .
39.8(33) . . .
47(4) . . .
37.6(32) . . .
40.8(34) . . .
41(4) . . .
29.7(29) . . .
43(4) . . .
36.1(31) . . .
32.2(31) . . .
42(4) . . .
54(4) . . .
34.8(31) . . .
50(4) . . .
44(4) . . .
38.3(34) . . .
40.6(34) . . .
38.1(32) . . .
43(4) . . .
33.3(33) . . .
28.4(30) . . .
31.2(30) . . .
40.7(33) . . .
37.9(32) . . .
27.3(29) . . .
33.0(31) . . .
51(4) . . .
36.3(31) . . .
39.3(34) . . .
37.9(33) . . .
36.8(34) . . .
48(4) . . .
41.4(33) . . .
37.8(33) . . .
36.0(34) . . .
34.7(33) . . .
34.9(31) . . .
40.2(33) . . .
42.2(34) . . .
39.1(35) . . .
37.0(32) . . .
46(4) . . .
42.3(34) . . .
39.8(33) . . .
50(4) . . .
43.6(35) . . .
48(4) . . .
27.1(27) . . .
34.8(32) . . .
44(4) . . .
32.8(30) . . .
31.8(31) . . .
37.1(31) . . .
35.2(33) . . .
41(4) . . .
32.0(30) . . .
42.3(34) . . .
36.8(32) . . .
41.6(35) . . .
38.4(33) . . .
35.8(32) . . .
39.6(32) . . .
39.6(32) . . .
32.9(33) . . .
32.0(31) . . .
45(4) . . .
51(4) . . .
35.4(31) . . .
37.2(32) . . .
31.5(30) . . .
42.8(35) . . .
45(4) . . .
37.3(32) . . .
42.0(34) . . .
40(4) . . .
42.2(34) . . .
46(4) . . .
39.4(33) . . .
39.7(34) . . .
39.9(34) . . .
40.6(33) . . .
42.7(34) . . .
50(4) . . .
53(4) . . .
47(4) . . .
32.0(31) . . .
41.5(34) . . .
39.7(34) . . .
36.2(32) . . .
36.6(31) . . .
48(4) . . .
43.2(35) . . .
35.7(32) . . .
41(4) . . .
34.9(32) . . .
39.9(33) . . .
38.4(32) . . .
37.0(34) . . .
34.8(34) . . .
36.8(33) . . .
36.4(31) . . .
48(4) . . .
34.0(30) . . .
41.5(34) . . .
41(4) . . .
48(4) . . .
42.5(34) . . .
41.4(35) . . .
43(4) . . .
42(4) . . .
38.5(32) . . .
49(4) . . .
43(4) . . .
40(4) . . .
38.8(33) . . .
41.1(33) . . .
44.0(35) . . .
49(4) . . .
29.7(31) . . .
30.6(30) . . .
38.3(32) . . .
38.3(33) . . .
39.9(34) . . .
33.6(31) . . .
29.4(28) . . .
33.7(31) . . .
39.6(32) . . .
46(4) . . .
45(4) . . .
42.7(35) . . .
42.0(34) . . .
39.1(33) . . .
36.9(33) . . .
36.6(34) . . .
40.5(35) . . .
40.7(34) . . .
37.2(31) . . .
41.0(33) . . .
43(4) . . .
39.9(33) . . .
39.4(33) . . .
37.8(32) . . .
37.5(34) . . .
47(4) . . .
49(4) . . .
38.4(33) . . .
31.6(29) . . .
35.7(32) . . .
43(4) . . .
46(4) . . .
29.3(28) . . .
39.4(35) . . .
43.6(35) . . .
42.6(34) . . .
41.0(33) . . .
40.3(33) . . .
44(4) . . .
35.3(33) . . .
35.4(31) . . .
37.9(33) . . .
34.4(30) . . .
38.8(33) . . .
34.7(32) . . .
39(4) . . .
38.6(32) . . .
51(4) . . .
40.1(34) . . .
50(4) . . .
54(4) . . .
29.5(28) . . .
42.0(35) . . .
47(4) . . .
40(4) . . .
39.4(33) . . .
41.9(33) . . .
35.2(32) . . .
36.0(31) . . .
43(4) . . .
38.8(34) . . .
49(4) . . .
42.8(35) . . .
40.1(33) . . .
33.2(30) . . .
42(4) . . .
40.7(33) . . .
45.0(35) . . .
38.3(33) . . .
44(4) . . .
49(4) . . .
37.6(32) . . .
34.1(30) . . .
40.6(35) . . .
40.4(34) . . .
40.2(33) . . .
37.6(32) . . .
42.3(34) . . .
37.9(35) . . .
35.5(32) . . .
42(4) . . .
42.7(34) . . .
40.4(34) . . .
38.1(34) . . .
44(4) . . .
39.2(33) . . .
45.6(35) . . .
35.1(31) . . .
39.0(33) . . .
39.7(35) . . .
33.6(30) . . .
38.7(32) . . .
39.7(33) . . .
37.0(33) . . .
40.5(35) . . .
42.5(35) . . .
41.2(33) . . .
48(4) . . .
45(4) . . .
41.9(35) . . .
23.2(26) . . .
34.9(30) . . .
33.1(29) . . .
37.5(34) . . .
42(4) . . .
37.4(32) . . .
34.6(30) . . .
32.4(29) . . .
34.1(30) . . .
44(4) . . .
42.4(33) . . .
35.9(31) . . .
41.0(35) . . .
31.9(31) . . .
38.7(34) . . .
39.6(33) . . .
39.0(33) . . .
40.9(35) . . .
32.4(30) . . .
39(4) . . .
40.3(33) . . .
42(4) . . .
39(4) . . .
46(4) . . .
39.8(34) . . .
51(4) . . .
40.8(35) . . .
39.6(35) . . .
36.1(31) . . .
37.5(32) . . .
36.4(32) . . .
42(4) . . .
50(4) . . .
42.1(34) . . .
42.3(34) . . .
56(4) . . .
43.0(35) . . .
43(4) . . .
34.9(31) . . .
44(4) . . .
38.3(32) . . .
36.5(34) . . .
39(4) . . .
43(4) . . .
47(4) . . .
39.6(33) . . .
45(4) . . .
32.8(33) . . .
31.5(30) . . .
36.1(31) . . .
41.4(33) . . .
39.1(32) . . .
47(4) . . .
36.5(32) . . .
41.1(34) . . .
39.3(33) . . .
39.9(32) . . .
44(4) . . .
32.0(29) . . .
50(4) . . .
41.6(34) . . .
35.3(31) . . .
34.0(32) . . .
39.0(34) . . .
34.7(31) . . .
37.6(32) . . .
42(4) . . .
44(4) . . .
42.4(34) . . .
47(4) . . .
43(4) . . .
39.5(33) . . .
36.0(32) . . .
46(4) . . .
34.1(30) . . .
41.0(34) . . .
36.6(33) . . .
35.0(32) . . .
41.5(34) . . .
47(4) . . .
32.5(30) . . .
34.4(31) . . .
47(4) . . .
38.4(32) . . .
47(4) . . .
45(4) . . .
40.2(33) . . .
46(4) . . .
38.3(32) . . .
55(4) . . .
38.6(35) . . .
35.7(33) . . .
40.2(33) . . .
35.0(31) . . .
42.4(34) . . .
40.4(34) . . .
37.6(34) . . .
39.4(34) . . .
47(4) . . .
41.9(34) . . .
42.0(35) . . .
33.6(33) . . .
37.0(34) . . .
40.7(33) . . .
43.9(35) . . .
41.0(34) . . .
42(4) . . .
43(4) . . .
35.9(31) . . .
49(4) . . .
35.0(31) . . .
30.1(30) . . .
30.4(31) . . .
43.4(34) . . .
37.5(33) . . .
41(4) . . .
33.3(31) . . .
37.9(34) . . .
41.0(33) . . .
41.5(33) . . .
43(4) . . .
35.7(34) . . .
37.9(34) . . .
41.1(34) . . .
46(4) . . .
39.5(33) . . .
31.1(30) . . .
35.5(31) . . .
43.5(34) . . .
35.8(32) . . .
35.0(32) . . .
45(4) . . .
38.8(34) . . .
36.2(31) . . .
32.3(30) . . .
37.9(33) . . .
42.7(35) . . .
39.2(32) . . .
38.9(33) . . .
44(4) . . .
38.9(32) . . .
41.2(35) . . .
33.7(31) . . .
42.5(34) . . .
43.6(35) . . .
41(4) . . .
42.6(34) . . .
43.0(35) . . .
41.5(33) . . .
45(4) . . .
27.3(28) . . .
34.2(31) . . .
42.0(34) . . .
36.7(32) . . .
32.8(29) . . .
35.3(32) . . .
42(4) . . .
43.4(34) . . .
44.4(34) . . .
35.0(31) . . .
41(4) . . .
43(4) . . .
36.5(32) . . .
44.0(35) . . .
35.3(33) . . .
34.8(34) . . .
30.1(29) . . .
44.4(35) . . .
34.7(31) . . .
40.0(34) . . .
37.9(33) . . .
40(4) . . .
45.0(35) . . .
32.8(31) . . .
35.3(33) . . .
34.7(31) . . .
39.8(34) . . .
39.9(32) . . .
40.8(33) . . .
39(4) . . .
43(4) . . .
37.3(32) . . .
35.4(31) . . .
43.0(35) . . .
37.1(34) . . .
42(4) . . .
39.5(33) . . .
35.6(31) . . .
39.5(34) . . .
37.5(34) . . .
41.1(33) . . .
40.2(34) . . .
40.7(33) . . .
43(4) . . .
42(4) . . .
38.2(33) . . .
39.5(33) . . .
30.4(29) . . .
32.7(30) . . .
32.0(32) . . .
27.9(27) . . .
43.2(34) . . .
39.8(33) . . .
34.5(31) . . .
32.7(31) . . .
32.7(31) . . .
36.5(31) . . .
38.5(32) . . .
48(4) . . .
36.2(32) . . .
42.1(34) . . .
40.0(33) . . .
43.2(34) . . .
36.2(31) . . .
40.1(34) . . .
36.1(32) . . .
36.7(31) . . .
41.0(34) . . .
40.3(35) . . .
44(4) . . .
45(4) . . .
35.5(31) . . .
32.6(30) . . .
29.7(30) . . .
30.4(31) . . .
30.8(30) . . .
33.2(30) . . .
32.1(29) . . .
41.5(34) . . .
40.2(33) . . .
45(4) . . .
41.4(33) . . .
34.7(30) . . .
42(4) . . .
37.3(33) . . .
34.5(32) . . .
39.8(33) . . .
38.3(34) . . .
40.4(35) . . .
40.3(34) . . .
32.2(29) . . .
35.3(31) . . .
35.9(32) . . .
32.4(32) . . .
35.9(31) . . .
48(4) . . .
38.4(32) . . .
42(4) . . .
34.5(33) . . .
33.7(31) . . .
32.0(29) . . .
37.7(32) . . .
31.2(30) . . .
44(4) . . .
44(4) . . .
52(4) . . .
31.2(29) . . .
34.4(31) . . .
38.2(34) . . .
39.0(33) . . .
40.8(33) . . .
47(4) . . .
39(4) . . .
35.7(34) . . .
39.0(33) . . .
39.1(33) . . .
40.0(33) . . .
42(4) . . .
39(4) . . .
44(4) . . .
44.1(35) . . .
40.7(33) . . .
49(4) . . .
42(4) . . .
32.0(30) . . .
34.5(31) . . .
37.3(34) . . .
36.2(32) . . .
32.2(29) . . .
29.0(29) . . .
41.6(33) . . .
37.9(33) . . .
40(4) . . .
37.1(34) . . .
32.9(30) . . .
47(4) . . .
36.7(33) . . .
39.5(34) . . .
38.2(32) . . .
43.2(35) . . .
38.6(32) . . .
42(4) . . .
35.9(33) . . .
37.8(34) . . .
40.8(33) . . .
41.9(34) . . .
43(4) . . .
48(4) . . .
35.7(31) . . .
39.2(33) . . .
32.8(30) . . .
30.6(29) . . .
47(4) . . .
39.0(33) . . .
38.0(32) . . .
41(4) . . .
36.6(33) . . .
41(4) . . .
40.9(35) . . .
36.2(31) . . .
52(4) . . .
41.4(35) . . .
40.0(34) . . .
45(4) . . .
34.5(31) . . .
38.4(34) . . .
39.4(34) . . .
43(4) . . .
46(4) . . .
36.8(32) . . .
48(4) . . .
32.8(31) . . .
31.7(33) . . .
29.6(30) . . .
40.5(33) . . .
43.0(34) . . .
35.7(32) . . .
38.9(33) . . .
35.0(31) . . .
37.8(32) . . .
32.3(29) . . .
41(4) . . .
41(4) . . .
36.1(32) . . .
33.3(30) . . .
30.8(31) . . .
36.1(34) . . .
27.9(27) . . .
37.0(32) . . .
42.4(34) . . .
33.8(33) . . .
28.3(28) . . .
46(4) . . .
39.6(33) . . .
34.7(30) . . .
37.8(35) . . .
39.6(34) . . .
36.5(33) . . .
35.8(32) . . .
45.0(35) . . .
46(4) . . .
43(4) . . .
42(4) . . .
30.4(30) . . .
38.3(32) . . .
50(4) . . .
50(4) . . .
42.6(35) . . .
44.2(34) . . .
35.0(31) . . .
33.2(31) . . .
42(4) . . .
46(4) . . .
33.6(30) . . .
36.4(32) . . .
34.2(32) . . .
36.1(32) . . .
31.3(30) . . .
38.7(32) . . .
36.5(31) . . .
46(4) . . .
42(4) . . .
43.6(34) . . .
43.3(35) . . .
44(4) . . .
40.6(34) . . .
41.7(34) . . .
42.5(34) . . .
46(4) . . .
48(4) . . .
38.3(34) . . .
37.1(35) . . .
30.3(28) . . .
41.3(33) . . .
40(4) . . .
37.9(34) . . .
38.2(33) . . .
38.9(33) . . .
36.4(32) . . .
42(4) . . .
25.4(27) . . .
42(4) . . .
36.3(32) . . .
34.8(31) . . .
39.5(32) . . .
42(4) . . .
37.2(32) . . .
43.7(35) . . .
37.3(32) . . .
38.4(34) . . .
37(4) . . .
37.4(32) . . .
36.1(32) . . .
46(4) . . .
44(4) . . .
42(4) . . .
39.6(33) . . .
44.0(35) . . .
39.2(33) . . .
38.2(32) . . .
38.2(35) . . .
37.0(34) . . .
45.1(35) . . .
43.2(34) . . .
39(4) . . .
33.1(32) . . .
41(4) . . .
40.2(33) . . .
40.7(34) . . .
42(4) . . .
41(4) . . .
44(4) . . .
36.6(32) . . .
35.8(31) . . .
46(4) . . .
43.4(34) . . .
59(4) . . .
46.1(35) . . .
41.2(33) . . .
43(4) . . .
42.1(35) . . .
43.7(35) . . .
38.6(33) . . .
32.2(31) . . .
42(4) . . .
46(4) . . .
40.9(34) . . .
42.0(34) . . .
40.8(35) . . .
40(4) . . .
36.4(33) . . .
26.6(27) . . .
39.9(33) . . .
29.2(29) . . .
39(4) . . .
33.9(31) . . .
40.0(33) . . .
35.3(31) . . .
40.0(34) . . .
49(4) . . .
34.5(34) . . .
36.9(33) . . .
39.0(33) . . .
32.4(32) . . .
45(4) . . .
41(4) . . .
36.6(32) . . .
37.0(31) . . .
31.1(29) . . .
33.5(33) . . .
42(4) . . .
48(4) . . .
30.3(29) . . .
40(4) . . .
36.0(32) . . .
43(4) . . .
30.1(28) . . .
36.7(32) . . .
37.7(33) . . .
41(4) . . .
39.7(35) . . .
41.3(33) . . .
41(4) . . .
43(4) . . .
38.6(33) . . .
38.8(32) . . .
48(4) . . .
42.6(34) . . .
39.3(34) . . .
38.4(34) . . .
35.0(31) . . .
49(4) . . .
42.4(34) . . .
28.2(28) . . .
33.3(32) . . .
42.2(34) . . .
39.9(33) . . .
47(4) . . .
43.7(35) . . .
32.1(30) . . .
38.5(33) . . .
47(4) . . .
50(4) . . .
41(4) . . .
42.4(35) . . .
35.0(31) . . .
38.0(32) . . .
43(4) . . .
39.1(34) . . .
44(4) . . .
38.2(32) . . .
45.0(35) . . .
28.9(28) . . .
36.5(35) . . .
36.8(32) . . .
39.0(32) . . .
49(4) . . .
44(4) . . .
36.9(34) . . .
42(4) . . .
38.5(32) . . .
33.4(30) . . .
36.5(34) . . .
42(4) . . .
34.7(32) . . .
27.9(27) . . .
31.6(29) . . .
43(4) . . .
39.9(33) . . .
45(4) . . .
38.0(32) . . .
38.3(32) . . .
40.6(35) . . .
42(4) . . .
48(4) . . .
46(4) . . .
44(4) . . .
33.3(31) . . .
37.5(35) . . .
34.4(32) . . .
34.9(31) . . .
44(4) . . .
43(4) . . .
39.1(34) . . .
38.2(33) . . .
42.9(34) . . .
39.4(33) . . .
39(4) . . .
37.6(34) . . .
40.1(33) . . .
35.0(31) . . .
32.7(30) . . .
28.2(28) . . .
35.7(32) . . .
40.9(33) . . .
34.8(31) . . .
44(4) . . .
41(4) . . .
33.1(31) . . .
34.0(30) . . .
40.4(34) . . .
39(4) . . .
42(4) . . .
37.9(33) . . .
47(4) . . .
41.4(34) . . .
43.0(35) . . .
41.2(35) . . .
33.9(30) . . .
39.7(33) . . .
38.8(32) . . .
41.7(35) . . .
41.6(34) . . .
44.7(35) . . .
45(4) . . .
38.4(32) . . .
43(4) . . .
32.6(32) . . .
40.5(35) . . .
46(4) . . .
37.5(33) . . .
37.6(34) . . .
31.6(31) . . .
28.3(28) . . .
43.8(35) . . .
41.7(34) . . .
40.5(34) . . .
40.6(35) . . .
39.8(34) . . .
33.8(30) . . .
42.4(35) . . .
40.6(34) . . .
47(4) . . .
36.7(32) . . .
32.9(30) . . .
33.2(30) . . .
34.0(32) . . .
38.1(34) . . .
36.9(32) . . .
44(4) . . .
34.7(32) . . .
44(4) . . .
37.2(34) . . .
35.0(31) . . .
35.4(31) . . .
47(4) . . .
39(4) . . .
39.8(35) . . .
34.7(31) . . .
32.9(30) . . .
35.2(34) . . .
37(4) . . .
39.3(34) . . .
36.3(32) . . .
37.6(32) . . .
47(4) . . .
43(4) . . .
38.4(34) . . .
39.7(33) . . .
37.6(32) . . .
38.7(33) . . .
39.5(33) . . .
33.4(30) . . .
36.4(32) . . .
36.5(31) . . .
35.8(32) . . .
43(4) . . .
33.9(30) . . .
38.2(33) . . .
33.5(31) . . .
31.7(31) . . .
40(4) . . .
36.8(35) . . .
35.3(31) . . .
38.8(32) . . .
45(4) . . .
34.4(31) . . .
32.8(30) . . .
42.6(35) . . .
41(4) . . .
36.9(33) . . .
38.5(34) . . .
46(4) . . .
44.7(35) . . .
49(4) . . .
41.1(34) . . .
36.5(34) . . .
38.7(33) . . .
44.1(35) . . .
38.3(32) . . .
37.0(34) . . .
42(4) . . .
46(4) . . .
37.1(32) . . .
34.3(31) . . .
32.5(30) . . .
40.5(33) . . .
39.0(32) . . .
33.3(30) . . .
33.5(34) . . .
38(4) . . .
45(4) . . .
35.3(32) . . .
35.0(31) . . .
44(4) . . .
32.0(31) . . .
39.5(33) . . .
40.6(33) . . .
43.6(35) . . .
32.1(30) . . .
38.2(35) . . .
44(4) . . .
40.2(32) . . .
39.3(32) . . .
40(4) . . .
40(4) . . .
48(4) . . .
32.1(29) . . .
38.3(34) . . .
39.8(35) . . .
40.8(35) . . .
36.0(34) . . .
39.5(33) . . .
37.5(33) . . .
47(4) . . .
34.0(30) . . .
41(4) . . .
43.1(34) . . .
44(4) . . .
36.1(32) . . .
32.6(31) . . .
34.6(31) . . .
38.2(32) . . .
29.0(29) . . .
34.3(32) . . .
38.5(33) . . .
38.7(34) . . .
34.1(32) . . .
38.5(34) . . .
37.3(32) . . .
32.9(30) . . .
37.2(32) . . .
32.4(29) . . .
41.0(34) . . .
49(4) . . .
37.8(33) . . .
40.9(34) . . .
42.7(34) . . .
39.9(33) . . .
43(4) . . .
38.7(33) . . .
44.0(35) . . .
42.4(34) . . .
37.8(32) . . .
34.3(31) . . .
40.2(33) . . .
45.5(35) . . .
37.6(32) . . .
44(4) . . .
50(4) . . .
47(4) . . .
37.0(32) . . .
42.1(33) . . .
46(4) . . .
42(4) . . .
37.5(33) . . .
36.2(32) . . .
43.8(35) . . .
34.3(32) . . .
42(4) . . .
38.6(32) . . .
38.8(32) . . .
36.5(31) . . .
34.4(33) . . .
37(4) . . .
35.4(33) . . .
33.2(30) . . .
44.0(34) . . .
42(4) . . .
33.8(34) . . .
40.2(33) . . .
38.4(32) . . .
40.3(34) . . .
38.1(34) . . .
38.7(33) . . .
48(4) . . .
41.5(33) . . .
45(4) . . .
39.7(34) . . .
44(4) . . .
40.5(33) . . .
36.3(31) . . .
38.8(34) . . .
41(4) . . .
31.4(30) . . .
45(4) . . .
46(4) . . .
32.5(32) . . .
41(4) . . .
34.0(31) . . .
34.5(30) . . .
34.5(31) . . .
35.3(32) . . .
33.3(31) . . .
33.0(32) . . .
32.8(30) . . .
49(4) . . .
36.1(32) . . .
38(4) . . .
36.4(33) . . .
36.7(32) . . .
43.0(34) . . .
41.0(34) . . .
32.3(30) . . .
42(4) . . .
38.0(32) . . .
37.1(31) . . .
35.1(31) . . .
32.3(29) . . .
40.2(34) . . .
43.2(34) . . .
36.4(31) . . .
37.9(33) . . .
40.1(35) . . .
41(4) . . .
43.8(35) . . .
37.6(32) . . .
34.4(30) . . .
43(4) . . .
40.1(34) . . .
33.3(31) . . .
32.8(30) . . .
37.5(34) . . .
38(4) . . .
36.9(31) . . .
46(4) . . .
37.7(33) . . .
48(4) . . .
39.8(34) . . .
35.2(31) . . .
32.2(30) . . .
35.1(32) . . .
33.6(32) . . .
33.9(31) . . .
38.4(32) . . .
39.8(33) . . .
37.5(33) . . .
34.0(32) . . .
34.0(33) . . .
40.0(33) . . .
39.4(34) . . .
34.1(31) . . .
54(4) . . .
34.4(31) . . .
30.7(29) . . .
35.7(31) . . .
33.2(29) . . .
38(4) . . .
41(4) . . .
33.9(31) . . .
36.5(32) . . .
41.8(35) . . .
45(4) . . .
34.4(31) . . .
34.4(30) . . .
31.8(31) . . .
37(4) . . .
29.2(31) . . .
39(4) . . .
35.9(32) . . .
44.6(35) . . .
37.5(33) . . .
36.3(32) . . .
40.9(35) . . .
34.1(31) . . .
41.4(35) . . .
35.3(31) . . .
38.0(33) . . .
37.6(33) . . .
34.9(31) . . .
35.4(32) . . .
31.1(30) . . .
42(4) . . .
39.2(33) . . .
35.2(31) . . .
36.9(33) . . .
49(4) . . .
40(4) . . .
34.3(31) . . .
45(4) . . .
45(4) . . .
41(4) . . .
36.9(32) . . .
44(4) . . .
41.8(34) . . .
36.5(33) . . .
44(4) . . .
48(4) . . .
42.6(34) . . .
33.6(30) . . .
40.3(33) . . .
42(4) . . .
40.0(35) . . .
31.5(31) . . .
36.7(32) . . .
31.7(29) . . .
45(4) . . .
44(4) . . .
39.8(33) . . .
46(4) . . .
36.9(35) . . .
48(4) . . .
36.9(32) . . .
37.2(32) . . .
40.8(33) . . .
36.9(34) . . .
38.4(34) . . .
35(4) . . .
36.0(31) . . .
42.1(34) . . .
36.3(32) . . .
37.9(34) . . .
40.1(34) . . .
32.6(30) . . .
39.4(33) . . .
33.3(31) . . .
38.7(34) . . .
42(4) . . .
25.9(27) . . .
38.7(34) . . .
35.9(32) . . .
44(4) . . .
33.2(30) . . .
40.3(33) . . .
35.7(32) . . .
37.2(33) . . .
35.1(33) . . .
35.8(32) . . .
37.7(32) . . .
46(4) . . .
35.0(34) . . .
38.3(34) . . .
34.0(30) . . .
37.1(32) . . .
39.3(34) . . .
29.9(28) . . .
38.4(35) . . .
39.7(34) . . .
38.2(32) . . .
33.2(31) . . .
33.5(33) . . .
37.4(34) . . .
41.2(34) . . .
33.2(30) . . .
43(4) . . .
38(4) . . .
46(4) . . .
36.0(31) . . .
28.1(27) . . .
27.6(29) . . .
32.0(30) . . .
47(4) . . .
40.6(33) . . .
30.3(29) . . .
36(4) . . .
35.0(33) . . .
32.6(30) . . .
37.6(33) . . .
39.2(32) . . .
45(4) . . .
35.6(33) . . .
28.0(28) . . .
34.4(31) . . .
38.8(34) . . .
41.1(34) . . .
36.9(32) . . .
34.5(31) . . .
36.0(31) . . .
42.3(35) . . .
46(4) . . .
35.0(31) . . .
32.8(29) . . .
43.1(34) . . .
36.2(31) . . .
33.5(31) . . .
35.0(32) . . .
44(4) . . .
53(4) . . .
31.1(32) . . .
36.3(34) . . .
35.2(33) . . .
43.1(35) . . .
31.2(29) . . .
37.7(33) . . .
31.6(32) . . .
41.5(34) . . .
45.8(35) . . .
38.9(33) . . .
33.3(31) . . .
37(4) . . .
33.8(31) . . .
32.4(30) . . .
38.6(32) . . .
55(4) . . .
47(4) . . .
34.8(31) . . .
32.1(30) . . .
35.1(31) . . .
41.7(35) . . .
40(4) . . .
43(4) . . .
39.0(33) . . .
46(4) . . .
38.2(33) . . .
38.0(34) . . .
39.5(35) . . .
39.6(32) . . .
40.3(34) . . .
34.4(30) . . .
40(4) . . .
34.7(34) . . .
33.4(30) . . .
38.6(32) . . .
32.2(31) . . .
34.5(33) . . .
38.0(34) . . .
40.2(33) . . .
46(4) . . .
42(4) . . .
38.3(35) . . .
32.2(31) . . .
42.5(34) . . .
45(4) . . .
42.5(34) . . .
34.6(30) . . .
33.9(31) . . .
41.6(33) . . .
37.1(32) . . .
35.3(32) . . .
34.9(30) . . .
39.7(33) . . .
38.1(32) . . .
43(4) . . .
37.5(33) . . .
40(4) . . .
37(4) . . .
36.5(31) . . .
35.3(33) . . .
33.0(32) . . .
35.1(34) . . .
41.6(35) . . .
35.3(32) . . .
43(4) . . .
35.0(31) . . .
36.9(33) . . .
36.9(33) . . .
30.6(28) . . .
36.7(32) . . .
36.6(32) . . .
46(4) . . .
38.0(33) . . .
39.3(32) . . .
30.6(28) . . .
41(4) . . .
42(4) . . .
48(4) . . .
42(4) . . .
39(4) . . .
43(4) . . .
34.7(31) . . .
42.6(34) . . .
35.9(31) . . .
32.6(32) . . .
38.0(35) . . .
41.1(35) . . .
40.0(33) . . .
45(4) . . .
39.0(33) . . .
36.0(33) . . .
33.0(30) . . .
37.2(32) . . .
36.9(32) . . .
41(4) . . .
37.1(34) . . .
41.5(34) . . .
37.6(32) . . .
44(4) . . .
39.3(35) . . .
34.2(31) . . .
37.0(33) . . .
33.8(30) . . .
38.0(32) . . .
45(4) . . .
38(4) . . .
31.8(30) . . .
26.9(26) . . .
29.3(29) . . .
32.8(32) . . .
35.7(32) . . .
46(4) . . .
40.8(34) . . .
39.2(33) . . .
41(4) . . .
34.5(33) . . .
34.2(31) . . .
40.0(33) . . .
39.2(33) . . .
41(4) . . .
36.5(32) . . .
37.7(32) . . .
31.2(29) . . .
39.9(33) . . .
35.5(33) . . .
37.8(35) . . .
46(4) . . .
37.7(31) . . .
37.6(34) . . .
35.9(33) . . .
43(4) . . .
43.7(34) . . .
42.0(34) . . .
34.5(31) . . .
37.3(34) . . .
35.0(33) . . .
42.6(35) . . .
39.0(33) . . .
38(4) . . .
35.2(31) . . .
33.2(30) . . .
41.9(33) . . .
44(4) . . .
38.5(33) . . .
45(4) . . .
46(4) . . .
35.2(31) . . .
42(4) . . .
39.0(35) . . .
31.0(31) . . .
38.0(33) . . .
41.8(34) . . .
35.5(33) . . .
34.5(33) . . .
31.2(30) . . .
38.5(33) . . .
37.1(32) . . .
40.2(35) . . .
39(4) . . .
39.0(35) . . .
38.0(33) . . .
38.7(33) . . .
39.8(34) . . .
37.8(33) . . .
38(4) . . .
38.5(32) . . .
40.5(33) . . .
40.0(34) . . .
29.0(28) . . .
28.1(28) . . .
38.8(33) . . .
39.4(32) . . .
39(4) . . .
34.0(32) . . .
31.4(29) . . .
39.4(34) . . .
44.5(35) . . .
43(4) . . .
37.6(34) . . .
32.0(31) . . .
42.2(35) . . .
29.9(29) . . .
32.0(31) . . .
41(4) . . .
43(4) . . .
38.5(32) . . .
42.7(34) . . .
33.9(31) . . .
42(4) . . .
32.5(30) . . .
31.7(30) . . .
34.4(32) . . .
40.2(34) . . .
41.2(33) . . .
40.3(35) . . .
41.0(33) . . .
31.9(30) . . .
37.4(34) . . .
42.3(35) . . .
43.3(35) . . .
37.8(32) . . .
36.0(32) . . .
28.4(28) . . .
37.2(32) . . .
31.4(30) . . .
34.7(31) . . .
35.1(32) . . .
38.3(34) . . .
42(4) . . .
37.2(32) . . .
30.0(30) . . .
52(4) . . .
41(4) . . .
40.8(33) . . .
46(4) . . .
37.7(33) . . .
41.7(34) . . .
37.1(34) . . .
37.7(33) . . .
38.9(32) . . .
33.3(30) . . .
35.8(32) . . .
37.3(35) . . .
36.2(31) . . .
43(4) . . .
40.2(32) . . .
37.6(33) . . .
43(4) . . .
43(4) . . .
36.3(31) . . .
29.2(28) . . .
33.9(31) . . .
37.1(33) . . .
34.0(33) . . .
36.9(32) . . .
40.3(33) . . .
31.3(29) . . .
37.7(34) . . .
41.8(35) . . .
34.6(31) . . .
36.4(33) . . .
38.5(34) . . .
36.5(32) . . .
34.0(30) . . .
33.2(29) . . .
27.5(27) . . .
35.3(33) . . .
37(4) . . .
32.6(31) . . .
40.4(34) . . .
33.4(31) . . .
38(4) . . .
38.3(33) . . .
39.7(33) . . .
33.8(33) . . .
48(4) . . .
38.0(35) . . .
39.7(33) . . .
39.0(33) . . .
52(4) . . .
37.1(33) . . .
37.5(35) . . .
34.4(32) . . .
31.1(29) . . .
38.1(32) . . .
34.3(31) . . .
35(4) . . .
31.2(31) . . .
41.4(33) . . .
34.8(31) . . .
37.8(34) . . .
35.2(34) . . .
32.3(32) . . .
27.2(29) . . .
40.0(34) . . .
33.1(32) . . .
40.6(35) . . .
33.0(29) . . .
31.5(29) . . .
38.0(33) . . .
40(4) . . .
24.6(27) . . .
29.4(30) . . .
34.9(30) . . .
29.2(28) . . .
37.2(35) . . .
24.6(30) . . .
35.5(33) . . .
44.5(35) . . .
34.1(30) . . .
40.9(34) . . .
36.7(33) . . .
36.9(32) . . .
29.5(29) . . .
41.7(34) . . .
38.2(32) . . .
42(4) . . .
32.9(33) . . .
35.1(32) . . .
32.2(30) . . .
43(4) . . .
46(4) . . .
35.5(31) . . .
33.0(30) . . .
35.0(32) . . .
36.3(33) . . .
34.5(33) . . .
31.2(30) . . .
37.2(32) . . .
40(4) . . .
39.5(34) . . .
31.0(32) . . .
32.8(29) . . .
35.2(31) . . .
33.4(32) . . .
30.8(30) . . .
37(4) . . .
37.2(31) . . .
41.3(34) . . .
31.7(30) . . .
42(4) . . .
44.3(35) . . .
34.7(31) . . .
31.4(30) . . .
36.2(32) . . .
41.2(35) . . .
46(4) . . .
49(4) . . .
41.6(34) . . .
43(4) . . .
36.9(33) . . .
31.7(30) . . .
30.6(29) . . .
35.5(33) . . .
38.5(33) . . .
37.7(33) . . .
49(4) . . .
47(4) . . .
37.9(32) . . .
33.5(32) . . .
31.1(31) . . .
38.3(33) . . .
41.3(33) . . .
41.7(35) . . .
43(4) . . .
36.2(33) . . .
39.2(34) . . .
38.3(32) . . .
42(4) . . .
45(4) . . .
46(4) . . .
27.1(27) . . .
43.9(35) . . .
37.4(32) . . .
40.3(34) . . .
45(4) . . .
40.4(33) . . .
34.0(31) . . .
39.4(34) . . .
37.1(34) . . .
45(4) . . .
42.5(33) . . .
36.5(32) . . .
43.1(35) . . .
40(4) . . .
39.8(34) . . .
36.2(31) . . .
40.0(33) . . .
32.2(33) . . .
41(4) . . .
46(4) . . .
38.9(32) . . .
37.2(33) . . .
37(4) . . .
32.4(32) . . .
35.8(31) . . .
38.8(33) . . .
32.7(30) . . .
39.8(33) . . .
38.0(34) . . .
33.7(31) . . .
34.0(32) . . .
33.4(32) . . .
36.4(33) . . .
36.4(31) . . .
38.2(33) . . .
43.7(34) . . .
37.4(32) . . .
35.8(34) . . .
36.3(34) . . .
34.3(31) . . .
42.6(34) . . .
51(4) . . .
37.9(34) . . .
34.3(31) . . .
38.1(33) . . .
37.3(32) . . .
35.0(31) . . .
38.1(33) . . .
41(4) . . .
42.3(34) . . .
41.0(33) . . .
37.5(34) . . .
33.9(32) . . .
36.4(32) . . .
33.0(30) . . .
32.1(30) . . .
39.6(34) . . .
40.4(35) . . .
35.7(33) . . .
39.9(35) . . .
44.1(34) . . .
38.7(34) . . .
43(4) . . .
34.4(30) . . .
51(4) . . .
44.4(35) . . .
50(4) . . .
44(4) . . .
37.9(34) . . .
31.4(29) . . .
41.9(34) . . .
35.6(31) . . .
46(4) . . .
42.1(34) . . .
40.5(34) . . .
35.2(31) . . .
36.6(32) . . .
35.5(33) . . .
46(4) . . .
35.7(31) . . .
32.1(30) . . .
38.3(34) . . .
31.6(31) . . .
31.8(31) . . .
38.8(32) . . .
36.0(32) . . .
39(4) . . .
38.0(34) . . .
33.9(31) . . .
36.7(32) . . .
37.9(33) . . .
32.9(32) . . .
38.0(32) . . .
40(4) . . .
33.1(30) . . .
37.4(32) . . .
36.8(31) . . .
40.4(34) . . .
42(4) . . .
35.1(31) . . .
34.6(32) . . .
29.7(30) . . .
43(4) . . .
39.5(33) . . .
33.5(30) . . .
42(4) . . .
46(4) . . .
36.4(31) . . .
46(4) . . .
38.6(33) . . .
41.1(33) . . .
42(4) . . .
38.4(33) . . .
32.0(29) . . .
46.7(35) . . .
36.5(31) . . .
47(4) . . .
49(4) . . .
41.8(34) . . .
30.7(29) . . .
37.8(33) . . .
33.2(33) . . .
37.1(33) . . .
40.3(34) . . .
35.2(30) . . .
39.7(34) . . .
38.0(35) . . .
29.4(30) . . .
39.3(33) . . .
49(4) . . .
36.3(32) . . .
39.5(35) . . .
31.5(31) . . .
46(4) . . .
39.7(33) . . .
48(4) . . .
36.3(33) . . .
35.8(32) . . .
36.9(32) . . .
34.0(30) . . .
47(4) . . .
37.0(33) . . .
35.9(31) . . .
27.9(28) . . .
34.5(31) . . .
36.4(31) . . .
36.0(32) . . .
33.3(31) . . .
23.4(25) . . .
28.6(30) . . .
30.9(30) . . .
40(4) . . .
34.5(31) . . .
39.5(33) . . .
33.1(30) . . .
49(4) . . .
34.8(31) . . .
34.8(30) . . .
38.4(32) . . .
37.5(34) . . .
36.7(33) . . .
41(4) . . .
43.0(35) . . .
39.9(33) . . .
34.5(31) . . .
35.2(33) . . .
40.2(35) . . .
39.5(33) . . .
29.9(29) . . .
36.7(31) . . .
38.9(33) . . .
41(4) . . .
36.4(32) . . .
43.9(35) . . .
42.6(34) . . .
36.3(34) . . .
36.5(33) . . .
37.0(32) . . .
40.5(33) . . .
30.4(31) . . .
35.2(34) . . .
45(4) . . .
40.7(33) . . .
29.0(28) . . .
37.6(33) . . .
42(4) . . .
36.7(32) . . .
29.5(29) . . .
33.1(30) . . .
32.3(32) . . .
37.8(33) . . .
30.9(29) . . .
38.7(33) . . .
45(4) . . .
35.8(32) . . .
39.7(34) . . .
38.1(33) . . .
33.8(31) . . .
37.6(33) . . .
39.3(35) . . .
40.2(34) . . .
45(4) . . .
42.0(34) . . .
34.9(32) . . .
33.3(31) . . .
39.3(34) . . .
36.7(32) . . .
36.7(31) . . .
38.8(34) . . .
37.2(34) . . .
36.1(33) . . .
35.4(31) . . .
39.7(33) . . .
35.4(31) . . .
45(4) . . .
36.5(32) . . .
40.1(33) . . .
33.3(30) . . .
40(4) . . .
32.8(31) . . .
32.8(31) . . .
32.6(30) . . .
34.8(30) . . .
38(4) . . .
36.9(34) . . .
33.8(31) . . .
48(4) . . .
36.4(31) . . .
33.0(30) . . .
38.3(34) . . .
43(4) . . .
38.8(32) . . .
43.1(35) . . .
40.9(33) . . .
40(4) . . .
34.4(32) . . .
36.6(32) . . .
34.6(30) . . .
35.8(32) . . .
33.6(32) . . .
35.7(33) . . .
36.3(31) . . .
43(4) . . .
33.8(30) . . .
40.3(32) . . .
42.9(34) . . .
36.5(32) . . .
32.3(32) . . .
29.7(30) . . .
44(4) . . .
39.5(33) . . .
44.2(35) . . .
30.3(29) . . .
36.0(34) . . .
34.6(32) . . .
39.3(34) . . .
36.4(31) . . .
38.2(33) . . .
29.8(28) . . .
40(4) . . .
43(4) . . .
36.0(31) . . .
35.7(34) . . .
44(4) . . .
44(4) . . .
37.5(32) . . .
40.2(33) . . .
39.8(35) . . .
40(4) . . .
41.8(35) . . .
44.4(34) . . .
49(4) . . .
40.6(34) . . .
38(4) . . .
38(4) . . .
36.2(31) . . .
41.4(33) . . .
50(4) . . .
33.2(31) . . .
30.3(28) . . .
43.4(34) . . .
39.8(35) . . .
39.5(34) . . .
31.5(31) . . .
26.3(27) . . .
32.7(30) . . .
37.4(33) . . .
33.3(32) . . .
34.9(32) . . .
36.0(32) . . .
38.0(32) . . .
37.3(32) . . .
30.5(30) . . .
34.2(34) . . .
27.2(28) . . .
33.2(30) . . .
37.4(33) . . .
33.2(32) . . .
34.9(32) . . .
41.3(33) . . .
37.9(33) . . .
35.9(32) . . .
33.8(30) . . .
39.9(35) . . .
39.9(33) . . .
34.2(30) . . .
41(4) . . .
34.3(31) . . .
34.0(30) . . .
34.8(31) . . .
29.9(28) . . .
34.9(31) . . .
35.8(33) . . .
31.6(29) . . .
39.3(34) . . .
37.0(32) . . .
37.7(32) . . .
37.5(33) . . .
32.0(32) . . .
37.2(32) . . .
47(4) . . .
34.7(31) . . .
41(4) . . .
42.8(34) . . .
48(4) . . .
26.9(27) . . .
34.0(33) . . .
31.8(32) . . .
32.9(31) . . .
38.4(32) . . .
34.9(31) . . .
39.3(34) . . .
43(4) . . .
37.3(33) . . .
31.6(30) . . .
39.8(32) . . .
33.3(33) . . .
36.0(33) . . .
39.0(33) . . .
34.7(31) . . .
38.6(33) . . .
32.3(31) . . .
45(4) . . .
44(4) . . .
43.8(35) . . .
39.2(32) . . .
41.8(35) . . .
34.1(33) . . .
26.6(27) . . .
41.3(33) . . .
31.5(33) . . .
37(4) . . .
34.2(31) . . .
32.8(30) . . .
36.1(31) . . .
27.2(28) . . .
28.9(28) . . .
35.0(31) . . .
35.1(31) . . .
36.4(31) . . .
39.2(33) . . .
39.2(33) . . .
46(4) . . .
40.2(33) . . .
32.8(30) . . .
42(4) . . .
36.9(34) . . .
37.6(32) . . .
42.4(33) . . .
40.5(33) . . .
38.8(33) . . .
28.9(31) . . .
34.2(34) . . .
30.4(28) . . .
30.8(29) . . .
35.4(32) . . .
35(4) . . .
43(4) . . .
41.1(33) . . .
35.5(31) . . .
47(4) . . .
33.0(30) . . .
34.7(32) . . .
41.0(34) . . .
39.5(34) . . .
34.7(34) . . .
36.0(35) . . .
29.1(28) . . .
40.9(34) . . .
45.2(35) . . .
42(4) . . .
41(4) . . .
40.8(33) . . .
49(4) . . .
43.5(35) . . .
35.6(31) . . .
36.3(33) . . .
38.0(34) . . .
36.4(32) . . .
39.9(33) . . .
38.1(32) . . .
36.2(32) . . .
35.6(31) . . .
35.2(31) . . .
41(4) . . .
37.3(34) . . .
38.0(32) . . .
35.0(31) . . .
34.3(31) . . .
44.2(35) . . .
31.8(31) . . .
38.7(34) . . .
37.4(32) . . .
35.6(32) . . .
36.4(33) . . .
35.7(33) . . .
31.0(31) . . .
38.6(33) . . .
42.1(34) . . .
37.6(32) . . .
34.8(31) . . .
38.1(33) . . .
35.0(31) . . .
37.2(31) . . .
34.6(30) . . .
32.9(32) . . .
41.0(34) . . .
39.2(32) . . .
39.9(35) . . .
34.1(32) . . .
32.7(31) . . .
33.9(30) . . .
40.0(33) . . .
46(4) . . .
43(4) . . .
35.1(33) . . .
42(4) . . .
43.9(34) . . .
36.4(33) . . .
38.2(33) . . .
40(4) . . .
33.2(32) . . .
34.6(31) . . .
39.5(34) . . .
35.0(31) . . .
37.5(34) . . .
38.6(34) . . .
30.4(29) . . .
38.5(33) . . .
36.7(32) . . .
41.1(35) . . .
40.2(33) . . .
36.7(32) . . .
34.4(31) . . .
34.0(30) . . .
50(4) . . .
48(4) . . .
37.0(32) . . .
32.4(32) . . .
35.0(32) . . .
38.5(33) . . .
45.1(35) . . .
40.7(34) . . .
31.0(30) . . .
35.9(33) . . .
36.4(32) . . .
38.9(33) . . .
40.4(33) . . .
41.7(34) . . .
38.0(33) . . .
36.0(32) . . .
43.4(34) . . .
45(4) . . .
39.5(34) . . .
30.9(32) . . .
33.2(31) . . .
39.4(34) . . .
36.0(31) . . .
38.3(34) . . .
34.9(34) . . .
39.4(33) . . .
41.3(33) . . .
38.0(32) . . .
31.2(30) . . .
41(4) . . .
41.7(34) . . .
46(4) . . .
33.8(31) . . .
44(4) . . .
40(4) . . .
41.2(34) . . .
41.6(34) . . .
35.1(32) . . .
32.4(31) . . .
32.8(34) . . .
33.3(33) . . .
51(4) . . .
39.3(34) . . .
31.4(30) . . .
24.9(28) . . .
39.5(33) . . .
46(4) . . .
36.4(34) . . .
42(4) . . .
39(4) . . .
40.0(33) . . .
48(4) . . .
30.9(29) . . .
43(4) . . .
44(4) . . .
38.5(33) . . .
34.1(31) . . .
35.0(31) . . .
41(4) . . .
36.8(33) . . .
37.8(32) . . .
38.5(32) . . .
29.9(29) . . .
39(4) . . .
35.1(32) . . .
37.8(32) . . .
36.6(32) . . .
28.6(28) . . .
42(4) . . .
40.6(34) . . .
35.9(31) . . .
41.5(33) . . .
42.2(35) . . .
40.4(33) . . .
45(4) . . .
40.2(33) . . .
41.1(33) . . .
28.8(29) . . .
48(4) . . .
45(4) . . .
32.8(30) . . .
40.3(34) . . .
43(4) . . .
33.4(33) . . .
31.0(29) . . .
42.9(34) . . .
33.2(31) . . .
25.5(29) . . .
33.7(33) . . .
40.1(34) . . .
34.9(31) . . .
34.4(31) . . .
39.7(34) . . .
44(4) . . .
38.1(33) . . .
39.9(33) . . .
35.4(32) . . .
31.5(29) . . .
54(4) . . .
36.7(31) . . .
43.8(35) . . .
29.6(29) . . .
38(4) . . .
35.2(34) . . .
39.7(33) . . .
39.7(33) . . .
30.5(29) . . .
50(4) . . .
50(4) . . .
38.2(33) . . .
36.8(32) . . .
35.1(32) . . .
35.7(32) . . .
42(4) . . .
34.6(30) . . .
36.9(33) . . .
41(4) . . .
41(4) . . .
40.3(34) . . .
39.9(33) . . .
28.9(28) . . .
42(4) . . .
25.0(27) . . .
33.8(31) . . .
43.0(35) . . .
49(4) . . .
33.7(31) . . .
42(4) . . .
34.6(32) . . .
34.0(30) . . .
36.7(33) . . .
40(4) . . .
32.8(31) . . .
34.1(32) . . .
39.8(33) . . .
31.5(29) . . .
35.6(32) . . .
37.2(32) . . .
42.8(34) . . .
46(4) . . .
32.4(31) . . .
34.1(32) . . .
40.0(35) . . .
33.0(30) . . .
40.2(33) . . .
37.6(33) . . .
34.5(32) . . .
38.5(34) . . .
32.7(29) . . .
38.3(33) . . .
34.5(32) . . .
34.8(33) . . .
39.2(34) . . .
42(4) . . .
36.8(32) . . .
50(4) . . .
34.7(31) . . .
29.8(29) . . .
37.8(32) . . .
33.9(31) . . .
38.4(33) . . .
36.2(32) . . .
39.0(34) . . .
36.7(34) . . .
24.3(26) . . .
36.2(33) . . .
30.2(31) . . .
28.5(28) . . .
34.7(30) . . .
38.8(33) . . .
36.7(33) . . .
33.2(32) . . .
33.3(30) . . .
32.8(30) . . .
41.4(34) . . .
38.4(33) . . .
38.1(33) . . .
48(4) . . .
34.6(30) . . .
38.0(32) . . .
38.1(35) . . .
36.3(34) . . .
39.7(33) . . .
33.9(31) . . .
36.0(32) . . .
42(4) . . .
43.0(35) . . .
37.4(31) . . .
31.6(30) . . .
41.5(34) . . .
39.9(34) . . .
41(4) . . .
38.0(34) . . .
32.6(30) . . .
43(4) . . .
32.8(29) . . .
36.8(31) . . .
37.4(32) . . .
34.0(30) . . .
38.2(34) . . .
50(4) . . .
36.7(31) . . .
40.3(34) . . .
37.1(32) . . .
36.7(33) . . .
37.2(32) . . .
43(4) . . .
34.4(31) . . .
36.8(33) . . .
35.5(31) . . .
45(4) . . .
31.2(29) . . .
38.0(32) . . .
39.4(33) . . .
44.1(35) . . .
41(4) . . .
32.0(31) . . .
45(4) . . .
53(4) . . .
38.0(33) . . .
40.8(35) . . .
40.7(34) . . .
39.2(33) . . .
38.5(34) . . .
40.4(33) . . .
34.5(30) . . .
37.8(32) . . .
35.6(31) . . .
38.0(32) . . .
34.4(32) . . .
41(4) . . .
37.2(34) . . .
31.8(29) . . .
45(4) . . .
40(4) . . .
30.9(30) . . .
38.8(34) . . .
46(4) . . .
30.0(28) . . .
35.1(32) . . .
39(4) . . .
40.0(34) . . .
33.8(31) . . .
45(4) . . .
35.2(31) . . .
37.9(33) . . .
37.3(31) . . .
40.6(34) . . .
38.2(33) . . .
41(4) . . .
39.6(35) . . .
48(4) . . .
38.7(33) . . .
38.3(33) . . .
34.2(32) . . .
38.4(33) . . .
42.6(34) . . .
40.3(33) . . .
36.7(33) . . .
33.1(31) . . .
34.5(34) . . .
35.3(31) . . .
38.7(33) . . .
39.2(35) . . .
39.7(33) . . .
43(4) . . .
40.4(34) . . .
35.2(30) . . .
37.1(33) . . .
38.6(35) . . .
33.8(32) . . .
39.6(33) . . .
38.1(32) . . .
38.9(33) . . .
36.4(33) . . .
37.3(32) . . .
35.2(31) . . .
36.7(31) . . .
36.7(33) . . .
34.7(31) . . .
37.1(32) . . .
32.3(29) . . .
32.7(29) . . .
37.9(34) . . .
35.8(32) . . .
31.2(29) . . .
31.3(30) . . .
33.3(33) . . .
45(4) . . .
35.0(30) . . .
36.9(32) . . .
46(4) . . .
48(4) . . .
38.9(31) . . .
44(4) . . .
32.2(31) . . .
32.5(30) . . .
37.6(34) . . .
35.9(33) . . .
32.3(30) . . .
32.9(30) . . .
38.6(33) . . .
35.5(34) . . .
36.1(33) . . .
35.1(31) . . .
37.1(31) . . .
40.2(33) . . .
43(4) . . .
35.5(33) . . .
35.9(32) . . .
43(4) . . .
46(4) . . .
34.2(31) . . .
29.3(30) . . .
30.6(29) . . .
37.8(32) . . .
36.1(32) . . .
28.8(28) . . .
30.7(30) . . .
33.0(31) . . .
35.1(31) . . .
40.7(33) . . .
42.1(34) . . .
47(4) . . .
36.0(31) . . .
35.0(31) . . .
35.2(31) . . .
30.3(30) . . .
42(4) . . .
43.4(35) . . .
41.7(34) . . .
39.1(34) . . .
36.3(33) . . .
41.2(35) . . .
44(4) . . .
41.7(34) . . .
34.0(31) . . .
39(4) . . .
35.9(33) . . .
37.8(33) . . .
35.3(32) . . .
40.7(33) . . .
31.2(29) . . .
30.2(29) . . .
44(4) . . .
43.2(34) . . .
35.2(33) . . .
36.8(32) . . .
40.2(34) . . .
41(4) . . .
33.7(31) . . .
41.2(34) . . .
43(4) . . .
37.2(33) . . .
42(4) . . .
44.0(34) . . .
36.5(32) . . .
39.5(34) . . .
39.0(32) . . .
39.7(33) . . .
34.8(31) . . .
48(4) . . .
40.0(35) . . .
33.5(33) . . .
36.7(32) . . .
30.2(29) . . .
33.1(30) . . .
34.6(32) . . .
38.9(34) . . .
43.6(34) . . .
33.1(30) . . .
35.8(32) . . .
45(4) . . .
25.5(26) . . .
32.2(30) . . .
41.3(34) . . .
43(4) . . .
36.4(34) . . .
34.3(31) . . .
39.3(33) . . .
43.1(34) . . .
32.5(30) . . .
36.2(34) . . .
35.8(32) . . .
37.7(32) . . .
37.7(32) . . .
43(4) . . .
42(4) . . .
33.5(32) . . .
37.8(31) . . .
35.8(32) . . .
36.7(35) . . .
34.5(32) . . .
36.2(34) . . .
38.7(32) . . .
32.8(31) . . .
41(4) . . .
33.0(32) . . .
31.7(30) . . .
33.1(30) . . .
33.3(30) . . .
41(4) . . .
34.0(31) . . .
38.9(34) . . .
34.3(31) . . .
26.4(28) . . .
30.5(30) . . .
37.4(35) . . .
44(4) . . .
30.1(29) . . .
46(4) . . .
33.7(33) . . .
38(4) . . .
44.8(35) . . .
32.9(31) . . .
40.4(34) . . .
35.4(34) . . .
36.0(31) . . .
41.4(34) . . .
37.2(32) . . .
44(4) . . .
42(4) . . .
34.3(30) . . .
31.3(29) . . .
34.2(31) . . .
34.3(32) . . .
36.2(34) . . .
32.5(32) . . .
35.5(32) . . .
41.5(33) . . .
39.6(33) . . .
38.5(34) . . .
34.5(33) . . .
34.1(31) . . .
42.9(34) . . .
38.2(34) . . .
37.6(34) . . .
35.8(33) . . .
37.5(32) . . .
35.7(31) . . .
45(4) . . .
36.2(33) . . .
33.5(32) . . .
39.3(33) . . .
38.3(35) . . .
34.4(32) . . .
38.3(33) . . .
39.6(34) . . .
40.3(33) . . .
40.0(35) . . .
35.5(32) . . .
40.2(35) . . .
36.9(31) . . .
39.4(33) . . .
36.6(34) . . .
35.5(33) . . .
37.2(33) . . .
33.4(31) . . .
39.8(34) . . .
35.5(33) . . .
28.0(28) . . .
28.2(28) . . .
32.8(32) . . .
38.4(33) . . .
38.6(33) . . .
51(4) . . .
46(4) . . .
36.6(32) . . .
35.4(31) . . .
35.8(31) . . .
42(4) . . .
34.0(32) . . .
36.0(32) . . .
40.3(33) . . .
41(4) . . .
36(4) . . .
29.2(30) . . .
30.8(29) . . .
30.2(30) . . .
33.3(31) . . .
38.8(32) . . .
37.3(33) . . .
37.8(32) . . .
38.2(33) . . .
44(4) . . .
36.2(34) . . .
39(4) . . .
35.0(31) . . .
33.9(30) . . .
46(4) . . .
43.6(34) . . .
37.3(33) . . .
38.1(31) . . .
44(4) . . .
40.1(34) . . .
35.0(31) . . .
45(4) . . .
39.5(32) . . .
36.3(32) . . .
33.9(30) . . .
43(4) . . .
34.0(30) . . .
36.1(32) . . .
32.9(33) . . .
37.8(34) . . .
34.7(31) . . .
34.8(30) . . .
39.0(33) . . .
31.7(30) . . .
33.7(32) . . .
41.0(35) . . .
33.1(32) . . .
36.2(31) . . .
26.2(29) . . .
39(4) . . .
30.2(29) . . .
40.5(34) . . .
43.1(34) . . .
39.8(34) . . .
33.0(31) . . .
37.6(35) . . .
40.7(33) . . .
39.0(33) . . .
34.7(32) . . .
35.8(35) . . .
42.3(34) . . .
35.6(31) . . .
32.9(30) . . .
35.5(33) . . .
39(4) . . .
34.5(31) . . .
40.4(34) . . .
34.3(30) . . .
32.8(30) . . .
36.4(33) . . .
36.0(34) . . .
42.3(35) . . .
39.0(32) . . .
27.6(27) . . .
47(4) . . .
34.1(32) . . .
33.9(31) . . .
37.9(33) . . .
35.8(32) . . .
44(4) . . .
38.0(33) . . .
49(4) . . .
34.6(32) . . .
41.1(35) . . .
36.4(32) . . .
37.6(32) . . .
36.5(31) . . .
35.0(32) . . .
36.7(33) . . .
33.5(30) . . .
43.8(35) . . .
38.9(33) . . .
41.7(34) . . .
39.5(34) . . .
28.0(27) . . .
38.0(32) . . .
35.2(32) . . .
43(4) . . .
40(4) . . .
30.3(29) . . .
36.2(32) . . .
33.4(30) . . .
42.0(34) . . .
40(4) . . .
32.8(33) . . .
35.6(31) . . .
36.3(32) . . .
45(4) . . .
43(4) . . .
42.3(33) . . .
41.0(34) . . .
37.6(32) . . .
45(4) . . .
37(4) . . .
36.3(33) . . .
38.4(33) . . .
37.6(32) . . .
39.3(34) . . .
45(4) . . .
39.6(34) . . .
34.1(30) . . .
37.8(32) . . .
33.8(29) . . .
42(4) . . .
40.8(34) . . .
38.5(33) . . .
31.3(30) . . .
40(4) . . .
36.3(32) . . .
39.2(33) . . .
40.5(33) . . .
40.8(33) . . .
36.8(34) . . .
33.7(32) . . .
31.8(32) . . .
41.7(34) . . .
38.4(32) . . .
33.8(32) . . .
37.5(34) . . .
45(4) . . .
37.0(32) . . .
34.8(33) . . .
30.3(30) . . .
35.0(34) . . .
39.9(33) . . .
33.6(30) . . .
32.2(29) . . .
42(4) . . .
33.9(30) . . .
42.4(34) . . .
45.0(35) . . .
35.4(33) . . .
33.3(32) . . .
38.2(32) . . .
42.3(33) . . .
31.1(29) . . .
39.4(35) . . .
38(4) . . .
42(4) . . .
30.6(30) . . .
30.3(28) . . .
25.9(26) . . .
30.3(31) . . .
29.9(29) . . .
22.0(25) . . .
33.3(32) . . .
38.2(35) . . .
33.6(31) . . .
41(4) . . .
40.0(33) . . .
34.2(30) . . .
40.1(35) . . .
36.2(35) . . .
27.1(29) . . .
26.1(27) . . .
33.3(33) . . .
36.8(35) . . .
36.0(32) . . .
43(4) . . .
33.5(30) . . .
30.6(30) . . .
33.4(31) . . .
42(4) . . .
41.6(35) . . .
38.0(32) . . .
37.2(33) . . .
30.6(28) . . .
45(4) . . .
38.0(32) . . .
38.0(32) . . .
35.4(34) . . .
39(4) . . .
35.8(33) . . .
30.3(30) . . .
36.6(32) . . .
42(4) . . .
42.0(35) . . .
54(4) . . .
34.0(30) . . .
40.9(33) . . .
35.9(33) . . .
36.6(32) . . .
36.6(31) . . .
33.2(31) . . .
25.8(27) . . .
39.3(34) . . .
34.7(32) . . .
38.4(32) . . .
40.1(33) . . .
39.1(32) . . .
34.4(31) . . .
35.3(33) . . .
32.7(30) . . .
33.9(30) . . .
37.3(32) . . .
38.1(33) . . .
34.4(33) . . .
34.8(34) . . .
28.7(28) . . .
30.1(29) . . .
45(4) . . .
37.5(32) . . .
40.9(34) . . .
32.0(30) . . .
33.7(31) . . .
39.0(34) . . .
40(4) . . .
47(4) . . .
32.2(31) . . .
30.4(28) . . .
43(4) . . .
31.3(29) . . .
36.0(33) . . .
39.2(33) . . .
39.0(33) . . .
35.1(31) . . .
42(4) . . .
42(4) . . .
32.3(30) . . .
39.3(35) . . .
30.9(31) . . .
35.8(32) . . .
30.5(29) . . .
33.4(31) . . .
36.1(31) . . .
30.9(29) . . .
34.0(31) . . .
49(4) . . .
41.3(33) . . .
33.8(31) . . .
41(4) . . .
39.0(35) . . .
39.8(33) . . .
36.7(31) . . .
34.4(31) . . .
35.1(31) . . .
31.2(30) . . .
25.8(27) . . .
33.2(30) . . .
35(4) . . .
25.2(26) . . .
29.6(29) . . .
43.4(34) . . .
38.4(33) . . .
30.4(30) . . .
38(4) . . .
40.4(34) . . .
32.7(30) . . .
42(4) . . .
35.1(31) . . .
43(4) . . .
39.5(34) . . .
32.2(29) . . .
37.3(33) . . .
40.3(34) . . .
33.8(32) . . .
37.7(34) . . .
41.5(34) . . .
36.8(32) . . .
31.6(32) . . .
27.0(28) . . .
40(4) . . .
41.4(34) . . .
38.6(33) . . .
31.9(31) . . .
39.8(35) . . .
39.3(33) . . .
38.7(32) . . .
32.5(32) . . .
36.4(32) . . .
37.2(31) . . .
33.1(30) . . .
25.5(26) . . .
23.2(25) . . .
30.9(30) . . .
37.9(34) . . .
39(4) . . .
32.2(30) . . .
28.9(30) . . .
41(4) . . .
37.1(32) . . .
48(4) . . .
34.5(31) . . .
31.8(30) . . .
40(4) . . .
42.3(35) . . .
36.9(32) . . .
37.9(32) . . .
37.8(33) . . .
39.0(34) . . .
35.5(33) . . .
41.6(34) . . .
32.8(29) . . .
33.9(30) . . .
46(4) . . .
46(4) . . .
36.7(32) . . .
39.1(33) . . .
43(4) . . .
32.6(31) . . .
38.2(34) . . .
26.5(27) . . .
43.2(35) . . .
36.3(31) . . .
36.8(31) . . .
41(4) . . .
26.1(26) . . .
33.0(32) . . .
38.3(34) . . .
36.5(33) . . .
43(4) . . .
42.3(34) . . .
47(4) . . .
37.6(33) . . .
39(4) . . .
42(4) . . .
33.5(30) . . .
45(4) . . .
33.2(29) . . .
31.8(32) . . .
26.1(29) . . .
30.5(29) . . .
34.3(31) . . .
37.7(33) . . .
37.2(34) . . .
30.1(29) . . .
30.8(29) . . .
40(4) . . .
29.4(31) . . .
35.3(32) . . .
34.7(30) . . .
35.5(31) . . .
40.9(34) . . .
45(4) . . .
42.0(35) . . .
36.2(31) . . .
28.3(27) . . .
31.0(30) . . .
39(4) . . .
45(4) . . .
35.2(31) . . .
36.1(31) . . .
35.0(32) . . .
33.2(33) . . .
40.1(35) . . .
36.3(31) . . .
38.6(33) . . .
36.5(33) . . .
29.2(29) . . .
34.3(32) . . .
35.9(31) . . .
34.3(31) . . .
36.6(33) . . .
34.6(32) . . .
33.3(31) . . .
42.1(34) . . .
35.2(32) . . .
34.5(30) . . .
32.3(30) . . .
35.8(32) . . .
34.4(31) . . .
38.0(34) . . .
32.4(32) . . .
33.6(32) . . .
34.2(33) . . .
40.1(33) . . .
39.4(33) . . .
39(4) . . .
31.1(30) . . .
34.9(31) . . .
45(4) . . .
28.4(28) . . .
35.3(32) . . .
38.8(33) . . .
38.0(32) . . .
44.3(35) . . .
32.3(30) . . .
37.9(35) . . .
35.7(32) . . .
39.8(33) . . .
32.0(30) . . .
39.6(34) . . .
36.4(34) . . .
33.7(32) . . .
47(4) . . .
46(4) . . .
37.0(33) . . .
40(4) . . .
34.4(31) . . .
34.2(31) . . .
36.7(31) . . .
31.7(30) . . .
35.4(35) . . .
35.1(32) . . .
36.0(31) . . .
37.6(32) . . .
29.9(29) . . .
35.7(33) . . .
36.8(34) . . .
33.2(31) . . .
41.7(34) . . .
42.2(34) . . .
43(4) . . .
43.2(35) . . .
41.8(34) . . .
37.0(33) . . .
24.5(26) . . .
44(4) . . .
40.4(33) . . .
35.5(31) . . .
44(4) . . .
36.8(31) . . .
37.1(32) . . .
38.3(32) . . .
34.8(31) . . .
31.6(31) . . .
34.8(33) . . .
37.7(34) . . .
35.3(34) . . .
36.8(32) . . .
38.8(33) . . .
33.6(31) . . .
33.5(31) . . .
34.5(31) . . .
27.0(27) . . .
32.7(33) . . .
23.8(28) . . .
37.6(33) . . .
40.7(34) . . .
31.5(29) . . .
33.4(32) . . .
36.2(33) . . .
34.4(31) . . .
35.5(31) . . .
27.4(27) . . .
29.6(29) . . .
33.7(34) . . .
42(4) . . .
43.4(34) . . .
40.9(34) . . .
29.5(30) . . .
37.5(34) . . .
34.8(31) . . .
44.7(35) . . .
33.3(31) . . .
36.6(33) . . .
35.1(34) . . .
27.9(28) . . .
30.8(29) . . .
32.3(30) . . .
36.6(34) . . .
24.6(26) . . .
36.8(33) . . .
34.3(30) . . .
36.0(31) . . .
27.6(27) . . .
44(4) . . .
39.6(34) . . .
34.5(31) . . .
35.4(31) . . .
40.2(34) . . .
33.6(33) . . .
39.9(34) . . .
42.0(34) . . .
43(4) . . .
36.2(33) . . .
34.9(31) . . .
37.5(32) . . .
35.7(31) . . .
32.6(30) . . .
41(4) . . .
42.2(34) . . .
35.7(31) . . .
40.3(33) . . .
37.8(34) . . .
30.6(30) . . .
42(4) . . .
36.9(32) . . .
30.5(29) . . .
29.3(30) . . .
33.9(32) . . .
35.8(32) . . .
34(4) . . .
37.4(31) . . .
28.5(29) . . .
37(4) . . .
40.8(34) . . .
38.5(33) . . .
46(4) . . .
37.4(32) . . .
45(4) . . .
30.7(29) . . .
35.5(32) . . .
39.7(32) . . .
40.4(35) . . .
36.2(33) . . .
38.8(33) . . .
27.1(27) . . .
28.1(28) . . .
33.2(32) . . .
34.3(32) . . .
37.3(35) . . .
24.8(27) . . .
37.1(32) . . .
41.0(34) . . .
39.6(34) . . .
43(4) . . .
28.1(28) . . .
39.7(34) . . .
34.1(31) . . .
35.7(32) . . .
44(4) . . .
42.3(34) . . .
32.7(30) . . .
33.6(32) . . .
37.4(33) . . .
40.4(35) . . .
30.9(29) . . .
32.8(30) . . .
27.6(27) . . .
36.8(33) . . .
33.6(32) . . .
33.9(31) . . .
38.3(35) . . .
29.7(29) . . .
42(4) . . .
39.1(32) . . .
41.1(33) . . .
27.1(28) . . .
34.5(32) . . .
39.0(33) . . .
34.0(31) . . .
42.6(34) . . .
28.2(29) . . .
25.3(28) . . .
37.9(33) . . .
37.4(33) . . .
39.4(32) . . .
40.6(32) . . .
36.6(33) . . .
33.6(34) . . .
42.6(34) . . .
38.9(33) . . .
31.3(29) . . .
29.1(29) . . .
40.4(34) . . .
36.5(31) . . .
32.9(30) . . .
34.3(32) . . .
30.4(29) . . .
42(4) . . .
31.6(29) . . .
36.5(32) . . .
31.6(32) . . .
39(4) . . .
33.7(31) . . .
40.3(34) . . .
29.7(28) . . .
37.9(34) . . .
34.8(33) . . .
39.8(34) . . .
33.6(30) . . .
27.3(28) . . .
32.2(31) . . .
32.5(30) . . .
39.8(34) . . .
35.0(31) . . .
36.9(33) . . .
35.2(33) . . .
29.2(28) . . .
40.7(35) . . .
40.1(33) . . .
37.1(33) . . .
43(4) . . .
36.1(33) . . .
39.7(34) . . .
35.9(31) . . .
35.0(32) . . .
34.2(33) . . .
40(4) . . .
34.2(31) . . .
34.5(30) . . .
22.6(25) . . .
37(4) . . .
34.7(32) . . .
37.8(32) . . .
37.7(32) . . .
31.4(29) . . .
31.0(32) . . .
35.1(32) . . .
38.5(32) . . .
36.0(32) . . .
31.5(30) . . .
34.7(32) . . .
30.8(29) . . .
28.7(29) . . .
35.4(32) . . .
40.6(34) . . .
39(4) . . .
35.0(31) . . .
34.5(31) . . .
42.2(35) . . .
34.7(33) . . .
30.5(29) . . .
44(4) . . .
40.7(33) . . .
44(4) . . .
36.5(33) . . .
47(4) . . .
32.7(30) . . .
38.4(32) . . .
34.5(32) . . .
32.1(32) . . .
22.1(24) . . .
32.9(31) . . .
35.1(32) . . .
45(4) . . .
40.6(34) . . .
43(4) . . .
38.9(34) . . .
31.4(30) . . .
34.6(31) . . .
27.4(28) . . .
41(4) . . .
31.5(29) . . .
37.2(31) . . .
37(4) . . .
33.8(33) . . .
38.6(35) . . .
40.8(33) . . .
34.3(31) . . .
41(4) . . .
34.6(33) . . .
33.3(35) . . .
37.1(33) . . .
36.8(32) . . .
35.0(34) . . .
36.2(33) . . .
31.0(28) . . .
42.8(34) . . .
40.6(33) . . .
37.9(33) . . .
38.3(33) . . .
34.3(31) . . .
39.1(32) . . .
35.2(32) . . .
28.5(30) . . .
34.3(33) . . .
36.8(33) . . .
32.8(29) . . .
47(4) . . .
41.4(34) . . .
30.6(29) . . .
40.8(34) . . .
46(4) . . .
32.3(31) . . .
26.1(31) . . .
31.8(34) . . .
30.4(31) . . .
29.8(28) . . .
37.6(33) . . .
29.9(29) . . .
34.8(32) . . .
35.5(31) . . .
38.8(33) . . .
35.8(31) . . .
38.7(34) . . .
34.4(31) . . .
42.1(34) . . .
37.8(33) . . .
30.3(29) . . .
34.2(33) . . .
25.5(27) . . .
30.7(29) . . .
31.2(30) . . .
29.8(30) . . .
40(4) . . .
42(4) . . .
36.2(32) . . .
37.7(32) . . .
32.9(32) . . .
33.1(35) . . .
35.6(34) . . .
28.0(28) . . .
35.6(31) . . .
31.0(29) . . .
31.3(31) . . .
31.9(29) . . .
35.3(31) . . .
27.8(28) . . .
35.1(35) . . .
35.2(32) . . .
44(4) . . .
43.1(34) . . .
31.9(29) . . .
34.3(32) . . .
47(4) . . .
36.3(32) . . .
36.7(32) . . .
37.4(32) . . .
39.5(33) . . .
37.5(35) . . .
40.0(34) . . .
34.7(31) . . .
33.1(30) . . .
34.3(31) . . .
40.7(35) . . .
29.8(29) . . .
36.3(31) . . .
37.2(33) . . .
42(4) . . .
42(4) . . .
33.0(30) . . .
39.4(33) . . .
40.8(34) . . .
40(4) . . .
31.2(30) . . .
28.2(27) . . .
35.3(31) . . .
34.0(31) . . .
32.9(32) . . .
35.9(32) . . .
31.7(30) . . .
33.3(30) . . .
31.9(30) . . .
26.2(27) . . .
31.1(30) . . .
37.0(33) . . .
27.5(28) . . .
36.6(32) . . .
29.3(30) . . .
26.0(27) . . .
37.9(32) . . .
41.2(33) . . .
38.9(33) . . .
32.7(31) . . .
35.8(32) . . .
45(4) . . .
41.2(34) . . .
34.9(31) . . .
40(4) . . .
40.3(33) . . .
39.2(33) . . .
29.7(28) . . .
41.3(34) . . .
40.7(35) . . .
32.3(31) . . .
26.9(27) . . .
26.6(28) . . .
36.2(33) . . .
33.8(34) . . .
43(4) . . .
33.4(30) . . .
37.1(32) . . .
33.5(31) . . .
33.0(32) . . .
35.7(35) . . .
30.8(29) . . .
34.4(31) . . .
36.7(34) . . .
34.2(32) . . .
36.3(34) . . .
40.0(33) . . .
42(4) . . .
38.9(33) . . .
37.5(33) . . .
31.5(30) . . .
34.8(30) . . .
35.8(32) . . .
35.9(32) . . .
31.9(30) . . .
33.0(30) . . .
35.5(31) . . .
34.4(33) . . .
37.7(34) . . .
39.1(33) . . .
36.3(33) . . .
41.9(34) . . .
37.4(32) . . .
36.9(33) . . .
38.9(33) . . .
32.8(31) . . .
43.1(34) . . .
39.4(34) . . .
33.0(30) . . .
45(4) . . .
37.6(31) . . .
44(4) . . .
47(4) . . .
38.5(33) . . .
34.7(32) . . .
26.9(28) . . .
43.3(34) . . .
43(4) . . .
34.8(32) . . .
30.2(28) . . .
42.7(35) . . .
38.4(33) . . .
33.0(33) . . .
39(4) . . .
40.3(33) . . .
41.8(34) . . .
41.8(35) . . .
38.0(35) . . .
27.1(29) . . .
29.5(30) . . .
34.5(31) . . .
34.9(31) . . .
31.5(30) . . .
34.8(32) . . .
45(4) . . .
31.0(30) . . .
28.9(28) . . .
31.9(30) . . .
35.7(32) . . .
41(4) . . .
37.7(32) . . .
32.0(32) . . .
35.6(33) . . .
39.2(35) . . .
36.1(31) . . .
25.1(26) . . .
29.4(29) . . .
34.0(33) . . .
38.2(33) . . .
43(4) . . .
37.4(32) . . .
40.9(35) . . .
27.3(29) . . .
39.7(35) . . .
33.5(30) . . .
33.1(30) . . .
39(4) . . .
35.1(33) . . .
44(4) . . .
37.0(33) . . .
43.5(34) . . .
35.8(34) . . .
42.9(35) . . .
30.4(29) . . .
38.4(33) . . .
40.1(34) . . .
38.4(33) . . .
44(4) . . .
50(4) . . .
40.0(33) . . .
36.4(32) . . .
42.4(35) . . .
39.0(34) . . .
37.3(33) . . .
35.7(32) . . .
35.5(30) . . .
40.5(33) . . .
34.9(33) . . .
32.6(33) . . .
35.3(31) . . .
38.4(33) . . .
33.1(30) . . .
31.6(29) . . .
37.1(32) . . .
36.0(32) . . .
36.7(32) . . .
36.1(30) . . .
48(4) . . .
37.1(32) . . .
35.4(31) . . .
42.0(35) . . .
37.2(33) . . .
41(4) . . .
33.4(32) . . .
34.7(31) . . .
50(4) . . .
35.9(33) . . .
40.0(33) . . .
36.8(32) . . .
32.3(29) . . .
35.1(33) . . .
37.9(33) . . .
44(4) . . .
36.4(32) . . .
34.8(30) . . .
27.6(28) . . .
39(4) . . .
30.1(29) . . .
28.9(28) . . .
31.7(30) . . .
35.2(34) . . .
33.2(33) . . .
28.1(28) . . .
30.6(29) . . .
31.8(29) . . .
37.9(34) . . .
30.0(30) . . .
33.2(31) . . .
42.5(34) . . .
40.8(33) . . .
30.8(28) . . .
41(4) . . .
41.3(33) . . .
41.8(34) . . .
41.2(35) . . .
32.0(30) . . .
36.5(33) . . .
31.0(30) . . .
41.7(33) . . .
32.8(30) . . .
35.1(31) . . .
31.9(30) . . .
31.8(29) . . .
34.4(31) . . .
35.2(32) . . .
34.8(32) . . .
39.2(33) . . .
31.4(29) . . .
36.8(32) . . .
34.2(30) . . .
40.0(35) . . .
34.4(31) . . .
37.6(34) . . .
39.0(32) . . .
32.0(30) . . .
34.7(32) . . .
34.2(32) . . .
33.4(30) . . .
28.9(28) . . .
28.5(28) . . .
37.5(32) . . .
33.7(31) . . .
33.1(31) . . .
37.1(32) . . .
26.8(28) . . .
34.8(33) . . .
32.6(30) . . .
41.0(34) . . .
33.3(30) . . .
35.4(32) . . .
38.7(35) . . .
37.2(32) . . .
37.9(33) . . .
35.1(31) . . .
27.9(30) . . .
41(4) . . .
41(4) . . .
37.2(32) . . .
37.4(32) . . .
35.2(32) . . .
36.2(35) . . .
27.1(28) . . .
32.9(30) . . .
39.3(33) . . .
32.4(33) . . .
32.0(31) . . .
32.4(31) . . .
30.5(29) . . .
36.5(32) . . .
33.9(31) . . .
38.0(33) . . .
42.0(34) . . .
36.3(31) . . .
34.4(31) . . .
36.7(35) . . .
41(4) . . .
30.1(28) . . .
29.3(28) . . .
39.1(32) . . .
34.5(31) . . .
26.5(28) . . .
34.0(32) . . .
35.8(31) . . .
33.2(31) . . .
32.2(33) . . .
39(4) . . .
36.6(34) . . .
35.0(31) . . .
37(4) . . .
34.8(32) . . .
29.3(28) . . .
33.9(31) . . .
43.1(34) . . .
41.3(34) . . .
36.4(32) . . .
38.3(33) . . .
43.2(34) . . .
34.1(31) . . .
36.8(33) . . .
32.5(34) . . .
27.6(29) . . .
32.6(30) . . .
33.8(30) . . .
36.1(32) . . .
34.8(34) . . .
39.3(33) . . .
32.0(29) . . .
37.4(32) . . .
34.8(31) . . .
27.9(28) . . .
36.8(34) . . .
37.3(32) . . .
38.7(32) . . .
34.6(31) . . .
35.4(33) . . .
42.3(34) . . .
43.3(35) . . .
38.9(33) . . .
37.0(33) . . .
37.4(34) . . .
43(4) . . .
34.1(31) . . .
34.9(31) . . .
36.0(34) . . .
34.9(35) . . .
38.7(34) . . .
39.9(32) . . .
39.4(34) . . .
31.9(28) . . .
36.6(33) . . .
25.7(26) . . .
37.6(31) . . .
41(4) . . .
36.1(32) . . .
42(4) . . .
32.3(30) . . .
35.2(31) . . .
32.6(31) . . .
33.4(33) . . .
28.0(27) . . .
36.2(31) . . .
36.5(32) . . .
33.6(31) . . .
34.0(32) . . .
41(4) . . .
40.0(33) . . .
40.8(34) . . .
36.9(32) . . .
38.7(33) . . .
33.2(32) . . .
33.7(31) . . .
29.8(28) . . .
47(4) . . .
27.3(27) . . .
32.6(29) . . .
33.3(30) . . .
24.1(26) . . .
43(4) . . .
36.8(35) . . .
30.2(30) . . .
32.5(30) . . .
33.8(30) . . .
38.9(33) . . .
42(4) . . .
41.5(35) . . .
32.2(29) . . .
32.8(30) . . .
38(4) . . .
33.1(31) . . .
38.4(33) . . .
32.1(30) . . .
31.2(29) . . .
31.3(28) . . .
33.9(32) . . .
40(4) . . .
36.7(32) . . .
37.7(32) . . .
37.5(31) . . .
34.0(30) . . .
32.7(30) . . .
39.5(33) . . .
28.4(29) . . .
36.1(32) . . .
42(4) . . .
44.1(35) . . .
40.5(34) . . .
38.3(33) . . .
36.7(34) . . .
29.6(32) . . .
43(4) . . .
29.4(28) . . .
32.5(33) . . .
39(4) . . .
39.7(35) . . .
39.9(34) . . .
35.2(31) . . .
35.6(32) . . .
34.1(32) . . .
36.5(33) . . .
38.9(34) . . .
40.5(34) . . .
26.9(30) . . .
31.4(33) . . .
37.0(33) . . .
32.5(30) . . .
29.5(29) . . .
28.9(29) . . .
32.1(31) . . .
34.0(30) . . .
29.6(28) . . .
39.3(34) . . .
24.8(26) . . .
35.6(34) . . .
38.3(34) . . .
31.0(29) . . .
31.7(29) . . .
35.4(32) . . .
41(4) . . .
33.1(30) . . .
40.7(33) . . .
34.5(30) . . .
32.1(31) . . .
36.9(32) . . .
30.7(30) . . .
34.3(30) . . .
25.5(26) . . .
27.8(28) . . .
38.7(35) . . .
36.7(32) . . .
30.5(30) . . .
38.2(33) . . .
48(4) . . .
33.5(31) . . .
35.7(32) . . .
35.3(31) . . .
29.2(29) . . .
37.9(35) . . .
27.7(29) . . .
30.6(30) . . .
36.6(31) . . .
32.1(31) . . .
40(4) . . .
39.5(33) . . .
36.5(33) . . .
30.6(29) . . .
36.3(34) . . .
36(4) . . .
28.3(29) . . .
37.6(35) . . .
30.4(29) . . .
29.2(28) . . .
40(4) . . .
38(4) . . .
36.0(32) . . .
31.5(29) . . .
33.1(31) . . .
31.0(32) . . .
26.5(29) . . .
35.9(32) . . .
33.1(30) . . .
45(4) . . .
46(4) . . .
43.3(35) . . .
32.1(30) . . .
36.5(32) . . .
45(4) . . .
39.9(34) . . .
36.7(34) . . .
33.9(32) . . .
25.3(28) . . .
41(4) . . .
41(4) . . .
34.0(30) . . .
41.4(34) . . .
34.5(31) . . .
33.8(32) . . .
31.4(30) . . .
38.1(33) . . .
36.8(32) . . .
37.3(31) . . .
55(4) . . .
36.9(32) . . .
38(4) . . .
29.1(29) . . .
37.0(33) . . .
42.0(35) . . .
45(4) . . .
30.8(29) . . .
34.7(31) . . .
41.0(35) . . .
47(4) . . .
39.3(33) . . .
44.2(35) . . .
35.6(31) . . .
32.6(30) . . .
43(4) . . .
38.1(33) . . .
35.3(31) . . .
32.0(29) . . .
40.6(34) . . .
26.5(27) . . .
29.7(30) . . .
30.6(29) . . .
32.6(30) . . .
37.2(33) . . .
31.6(32) . . .
30.9(29) . . .
40.0(33) . . .
41.0(34) . . .
37.2(32) . . .
39(4) . . .
37.9(34) . . .
35.1(31) . . .
32.2(30) . . .
35.6(33) . . .
37.4(35) . . .
33.8(30) . . .
34.9(31) . . .
37.0(32) . . .
30.4(30) . . .
40(4) . . .
40.5(35) . . .
36.2(31) . . .
29.2(29) . . .
30.9(31) . . .
37.7(34) . . .
32.1(31) . . .
36.5(32) . . .
37.0(31) . . .
35.1(32) . . .
37.7(34) . . .
31.2(29) . . .
29.3(29) . . .
37.8(33) . . .
33.4(29) . . .
44(4) . . .
32.7(30) . . .
45(4) . . .
28.9(28) . . .
30.0(30) . . .
30.0(29) . . .
39.2(35) . . .
39.1(32) . . .
37.2(32) . . .
37.3(32) . . .
29.3(29) . . .
28.9(28) . . .
26.8(28) . . .
26.2(27) . . .
33.7(31) . . .
45(4) . . .
29.5(30) . . .
25.1(26) . . .
32.6(32) . . .
38.9(35) . . .
38.9(33) . . .
35.6(31) . . .
31.4(29) . . .
28.1(27) . . .
29.9(30) . . .
33.7(34) . . .
23.6(25) . . .
38.8(34) . . .
33.4(32) . . .
32.0(30) . . .
41.8(35) . . .
35.8(31) . . .
43.6(35) . . .
37.1(34) . . .
28.6(28) . . .
41.4(35) . . .
43.2(35) . . .
37.9(32) . . .
24.8(26) . . .
29.2(30) . . .
36.7(33) . . .
37.9(32) . . .
28.9(30) . . .
39.4(34) . . .
33.7(32) . . .
40(4) . . .
37.2(32) . . .
41.3(34) . . .
29.5(27) . . .
33.2(30) . . .
43(4) . . .
35.4(31) . . .
37.2(32) . . .
32.1(30) . . .
33.1(32) . . .
35.2(32) . . .
39.9(33) . . .
39.6(34) . . .
43(4) . . .
31.4(30) . . .
33.0(30) . . .
33.6(30) . . .
40.6(34) . . .
29.7(29) . . .
28.0(27) . . .
45(4) . . .
23.0(27) . . .
36.0(34) . . .
41(4) . . .
36.6(32) . . .
36.8(33) . . .
41.8(33) . . .
32.5(29) . . .
34.1(34) . . .
35.0(32) . . .
41.0(33) . . .
43.2(34) . . .
35.3(32) . . .
36.7(33) . . .
33.5(31) . . .
36.4(32) . . .
41.2(34) . . .
35.7(32) . . .
33.7(32) . . .
34.3(31) . . .
34.4(30) . . .
35.9(31) . . .
40.3(32) . . .
49(4) . . .
33.2(34) . . .
31.2(30) . . .
41.8(34) . . .
36.5(34) . . .
39(4) . . .
32.8(31) . . .
29.7(29) . . .
27.5(27) . . .
32.8(33) . . .
31.1(31) . . .
43.7(35) . . .
43.6(35) . . .
34.6(31) . . .
33.6(31) . . .
39.3(35) . . .
33.4(31) . . .
37.9(32) . . .
26.0(28) . . .
37(4) . . .
30.6(30) . . .
33.2(30) . . .
28.0(28) . . .
37.1(32) . . .
37.0(32) . . .
37.0(33) . . .
37.6(32) . . .
40.0(33) . . .
36.0(33) . . .
32.1(31) . . .
32.4(30) . . .
36.1(32) . . .
33.9(31) . . .
39.3(34) . . .
32.3(32) . . .
26.6(28) . . .
38.6(33) . . .
43.2(34) . . .
34.7(31) . . .
35.6(32) . . .
36.7(32) . . .
37.7(33) . . .
34.3(30) . . .
42.7(34) . . .
28.5(29) . . .
44(4) . . .
43.2(34) . . .
39.5(34) . . .
29.1(28) . . .
37.6(32) . . .
50(4) . . .
40.5(33) . . .
37.3(32) . . .
41.4(35) . . .
37.5(34) . . .
39.8(35) . . .
35.4(32) . . .
38.2(34) . . .
25.7(27) . . .
33.4(32) . . .
37.5(33) . . .
36.3(31) . . .
44(4) . . .
36.5(31) . . .
34.0(32) . . .
41.3(34) . . .
34.6(31) . . .
33.0(31) . . .
36.0(33) . . .
35.1(31) . . .
29.2(27) . . .
31.3(30) . . .
33.3(32) . . .
32.2(31) . . .
35.1(32) . . .
34.8(32) . . .
35.0(31) . . .
43.6(35) . . .
40.1(35) . . .
45(4) . . .
38.2(33) . . .
34.0(31) . . .
31.8(31) . . .
30.5(33) . . .
30.1(30) . . .
29.1(28) . . .
28.0(27) . . .
40.6(34) . . .
38.1(34) . . .
44(4) . . .
35.0(31) . . .
38.0(32) . . .
37.4(33) . . .
33.6(30) . . .
30.2(29) . . .
37.3(32) . . .
38.0(32) . . .
38.3(34) . . .
36(4) . . .
34.1(32) . . .
36.6(31) . . .
27.5(27) . . .
36.0(33) . . .
29.8(30) . . .
39(4) . . .
28.9(29) . . .
32.2(29) . . .
28.5(29) . . .
37(4) . . .
25.1(28) . . .
34.1(30) . . .
30.4(29) . . .
41(4) . . .
39.8(35) . . .
30.3(28) . . .
32.5(30) . . .
37.4(33) . . .
36.6(34) . . .
29.2(29) . . .
40.9(34) . . .
38.3(32) . . .
29.1(28) . . .
37.1(33) . . .
41(4) . . .
35.2(31) . . .
41.0(34) . . .
33.7(31) . . .
29.6(28) . . .
35.5(32) . . .
32.6(30) . . .
33.8(30) . . .
32.6(31) . . .
35.1(34) . . .
39.2(34) . . .
33.4(30) . . .
32.0(31) . . .
41.1(33) . . .
35.7(32) . . .
33.6(32) . . .
35.8(31) . . .
38.6(32) . . .
41.0(35) . . .
45(4) . . .
46(4) . . .
42.1(34) . . .
39.3(35) . . .
37.4(32) . . .
36.7(33) . . .
36.5(32) . . .
34.8(31) . . .
35.3(31) . . .
31.6(29) . . .
35.0(32) . . .
37.7(32) . . .
35.0(31) . . .
35.0(33) . . .
36.8(33) . . .
32.0(32) . . .
27.5(28) . . .
29.7(29) . . .
41.3(34) . . .
33.6(31) . . .
36.2(33) . . .
33.7(30) . . .
27.7(27) . . .
36.1(32) . . .
30.6(31) . . .
25.3(28) . . .
34.9(31) . . .
36.4(32) . . .
40(4) . . .
34.7(33) . . .
27.8(29) . . .
35.3(32) . . .
34.0(30) . . .
46(4) . . .
35.8(31) . . .
32.8(29) . . .
34.7(30) . . .
31.1(29) . . .
25.6(31) . . .
31.5(32) . . .
34.2(31) . . .
42.6(35) . . .
30.4(28) . . .
32.7(31) . . .
25.9(28) . . .
36.2(33) . . .
38.5(32) . . .
33.8(31) . . .
37.2(33) . . .
41(4) . . .
27.9(27) . . .
37.3(33) . . .
31.8(30) . . .
30.4(29) . . .
27.4(30) . . .
30.5(33) . . .
28.0(28) . . .
37.6(32) . . .
33.3(32) . . .
29.4(30) . . .
33.0(30) . . .
31.2(29) . . .
35.0(31) . . .
42(4) . . .
33.7(32) . . .
33.5(31) . . .
32.7(30) . . .
40.6(34) . . .
39.9(34) . . .
42(4) . . .
36.5(32) . . .
35.0(30) . . .
36.0(32) . . .
31.1(31) . . .
24.7(27) . . .
35.8(33) . . .
29.8(29) . . .
39.2(35) . . .
46(4) . . .
29.9(29) . . .
26.4(28) . . .
35.0(31) . . .
32.6(31) . . .
40(4) . . .
33.9(31) . . .
28.9(30) . . .
29.7(29) . . .
37.9(34) . . .
39.2(34) . . .
34.7(31) . . .
26.4(26) . . .
37.9(33) . . .
35.0(34) . . .
38(4) . . .
40.2(34) . . .
35.5(31) . . .
40.1(33) . . .
35.7(33) . . .
30.7(32) . . .
29.7(30) . . .
27.8(27) . . .
40.6(33) . . .
29.1(29) . . .
30.9(30) . . .
37(4) . . .
40.7(33) . . .
31.9(29) . . .
34.0(32) . . .
27.7(28) . . .
38.3(35) . . .
47(4) . . .
40.2(33) . . .
38.2(34) . . .
35.9(33) . . .
37.0(35) . . .
32.8(30) . . .
40.1(33) . . .
36.2(32) . . .
45(4) . . .
41.7(34) . . .
43.3(34) . . .
34.6(30) . . .
38.5(33) . . .
34.3(30) . . .
39.7(34) . . .
26.8(27) . . .
20.8(26) . . .
32.4(31) . . .
39.7(33) . . .
33.6(31) . . .
40.0(33) . . .
40.8(34) . . .
36.7(32) . . .
34.8(31) . . .
36.2(31) . . .
28.1(28) . . .
31.4(30) . . .
26.2(28) . . .
39.4(35) . . .
37.7(33) . . .
34.6(30) . . .
36.1(31) . . .
33.9(31) . . .
45(4) . . .
36.2(32) . . .
32.0(29) . . .
35.3(32) . . .
34.4(33) . . .
41.1(35) . . .
42.3(33) . . .
44(4) . . .
33.0(31) . . .
40(4) . . .
37.4(32) . . .
43.1(34) . . .
41.1(33) . . .
41(4) . . .
36.6(34) . . .
37.9(32) . . .
41.9(34) . . .
40.2(34) . . .
36.7(33) . . .
42(4) . . .
31.7(30) . . .
34.5(30) . . .
34.3(30) . . .
28.3(27) . . .
38.2(35) . . .
33.8(34) . . .
35.1(30) . . .
31.3(30) . . .
27.0(28) . . .
39(4) . . .
32.8(30) . . .
32.1(30) . . .
29.2(29) . . .
31.3(31) . . .
34.4(32) . . .
45(4) . . .
33.5(31) . . .
31.5(29) . . .
41(4) . . .
34.6(32) . . .
33.6(30) . . .
28.2(28) . . .
42.4(34) . . .
43.2(35) . . .
37.4(32) . . .
37.2(33) . . .
26.9(27) . . .
27.5(27) . . .
41(4) . . .
33.0(31) . . .
38.0(33) . . .
28.2(28) . . .
32.8(31) . . .
33.5(33) . . .
44(4) . . .
24.1(25) . . .
33.6(30) . . .
38.1(33) . . .
33.7(32) . . .
38.7(33) . . .
31.5(29) . . .
33.3(30) . . .
28.4(28) . . .
24.1(26) . . .
24.2(29) . . .
29.1(28) . . .
36.0(32) . . .
42(4) . . .
33.2(32) . . .
33.8(31) . . .
32.3(29) . . .
38.5(32) . . .
37.5(34) . . .
28.8(28) . . .
28.8(28) . . .
32.4(30) . . .
39.9(34) . . .
38.9(33) . . .
47(4) . . .
36.8(33) . . .
31.0(29) . . .
37.7(33) . . .
34.5(32) . . .
31.3(30) . . .
36.2(32) . . .
39.8(33) . . .
31.8(31) . . .
30.5(31) . . .
28.3(28) . . .
36.6(32) . . .
30.7(29) . . .
37.3(32) . . .
37.5(33) . . .
32.3(31) . . .
36.7(32) . . .
33.5(30) . . .
36.1(32) . . .
36.9(32) . . .
37.9(33) . . .
32.7(29) . . .
39.7(33) . . .
35.8(33) . . .
43(4) . . .
35.7(31) . . .
45.5(35) . . .
34.8(31) . . .
31.8(33) . . .
30.6(31) . . .
45(4) . . .
36.3(33) . . .
43.1(35) . . .
36.0(35) . . .
39.1(34) . . .
37.9(33) . . .
34.7(31) . . .
39.8(32) . . .
35.0(32) . . .
32.5(32) . . .
32.0(31) . . .
37.2(32) . . .
32.0(31) . . .
33.9(31) . . .
32.5(30) . . .
36.9(32) . . .
46(4) . . .
29.5(29) . . .
32.9(33) . . .
29.0(28) . . .
35.6(32) . . .
32.8(30) . . .
42(4) . . .
43(4) . . .
34.7(32) . . .
27.7(28) . . .
34.2(31) . . .
32.1(31) . . .
34.8(34) . . .
30.0(29) . . .
29.9(31) . . .
37.7(32) . . .
39.5(33) . . .
39(4) . . .
30.4(29) . . .
37.0(32) . . .
38.1(32) . . .
35.0(32) . . .
41(4) . . .
33.4(34) . . .
30.3(29) . . .
25.5(27) . . .
37.3(33) . . .
38.6(35) . . .
36.0(34) . . .
46(4) . . .
36.2(33) . . .
27.1(29) . . .
30.1(32) . . .
39.0(34) . . .
34.3(31) . . .
53(4) . . .
31.6(29) . . .
30.6(29) . . .
35.4(35) . . .
38.0(31) . . .
40.0(34) . . .
36.7(32) . . .
29.6(29) . . .
26.9(29) . . .
33.8(30) . . .
34.5(33) . . .
38(4) . . .
30.1(30) . . .
31.3(31) . . .
42.6(34) . . .
37.2(35) . . .
31.3(31) . . .
40(4) . . .
31.7(30) . . .
41.2(33) . . .
34.5(31) . . .
38.8(33) . . .
44(4) . . .
41.9(34) . . .
33.1(30) . . .
37.1(34) . . .
41(4) . . .
33.5(32) . . .
36.1(33) . . .
41.1(33) . . .
38.3(33) . . .
32.2(33) . . .
30.6(31) . . .
35.0(31) . . .
45.1(35) . . .
33.0(33) . . .
25.8(29) . . .
31.8(31) . . .
43.1(35) . . .
43.8(34) . . .
31.3(31) . . .
26.6(29) . . .
34.1(30) . . .
37.3(31) . . .
30.2(28) . . .
31.0(30) . . .
27.0(29) . . .
34.5(33) . . .
34.2(31) . . .
31.5(29) . . .
35.8(32) . . .
32.3(33) . . .
28.0(28) . . .
38.5(33) . . .
31.4(29) . . .
36.3(34) . . .
38.4(35) . . .
39(4) . . .
46(4) . . .
37.4(32) . . .
43(4) . . .
31.1(30) . . .
34.6(32) . . .
44.5(35) . . .
33.3(32) . . .
40(4) . . .
36.1(31) . . .
42(4) . . .
31.7(29) . . .
34.3(31) . . .
31.5(28) . . .
31.8(30) . . .
40(4) . . .
30.4(29) . . .
34.1(31) . . .
31.0(30) . . .
27.9(29) . . .
33.4(30) . . .
37.3(32) . . .
47(4) . . .
34.5(34) . . .
30.3(31) . . .
40.1(33) . . .
38.3(32) . . .
39.0(33) . . .
44(4) . . .
28.9(29) . . .
30.1(28) . . .
37.1(32) . . .
37(4) . . .
34.1(33) . . .
35.6(31) . . .
31.2(29) . . .
30.7(28) . . .
41(4) . . .
37.5(34) . . .
32.8(30) . . .
35.3(32) . . .
37.8(32) . . .
40.8(35) . . .
36.3(33) . . .
40.1(34) . . .
37.9(32) . . .
32.8(30) . . .
36.5(34) . . .
25.9(29) . . .
32.0(30) . . .
32.5(30) . . .
30.4(30) . . .
37.7(33) . . .
34.0(32) . . .
34.2(30) . . .
31.3(29) . . .
27.3(28) . . .
34.6(33) . . .
43(4) . . .
35.8(31) . . .
35.4(31) . . .
33.8(31) . . .
35.7(32) . . .
34.1(32) . . .
40.8(33) . . .
40.4(33) . . .
34.2(31) . . .
34.5(31) . . .
36.1(32) . . .
33.3(30) . . .
36.6(32) . . .
33.8(31) . . .
38.0(32) . . .
34.5(31) . . .
31.9(31) . . .
38.0(32) . . .
30.9(31) . . .
35.3(33) . . .
31.3(30) . . .
29.5(29) . . .
33.2(31) . . .
35.1(32) . . .
36.4(35) . . .
36.0(33) . . .
34.8(31) . . .
32.3(30) . . .
24.8(25) . . .
42(4) . . .
31.8(30) . . .
32.9(30) . . .
31.2(29) . . .
36.4(32) . . .
34.6(33) . . .
31.4(31) . . .
41.2(33) . . .
37.5(31) . . .
37(4) . . .
25.6(27) . . .
29.0(29) . . .
34.5(31) . . .
35.2(30) . . .
25.7(26) . . .
31.5(32) . . .
36.8(32) . . .
35.0(31) . . .
40.0(33) . . .
31.6(29) . . .
29.4(29) . . .
31.3(30) . . .
38.0(32) . . .
31.2(30) . . .
26.7(26) . . .
43(4) . . .
28.3(27) . . .
30.7(29) . . .
33.2(31) . . .
33.8(30) . . .
41.1(35) . . .
41.5(34) . . .
36.7(31) . . .
37(4) . . .
40(4) . . .
34.5(33) . . .
31.7(29) . . .
28.5(28) . . .
26.2(29) . . .
30.9(31) . . .
29.9(29) . . .
34.3(31) . . .
28.1(27) . . .
33.9(32) . . .
29.3(28) . . .
46(4) . . .
37.2(32) . . .
36.5(31) . . .
32.3(30) . . .
35.6(34) . . .
36.3(32) . . .
43.7(34) . . .
39.9(32) . . .
34.9(32) . . .
41(4) . . .
37.7(32) . . .
37.2(32) . . .
35.9(31) . . .
31.4(31) . . .
29.2(31) . . .
34.5(30) . . .
39.2(32) . . .
37.2(32) . . .
40.5(34) . . .
37.0(33) . . .
43(4) . . .
32.5(30) . . .
34.8(31) . . .
32.0(31) . . .
44(4) . . .
37.0(33) . . .
31.3(29) . . .
42.5(35) . . .
35.6(32) . . .
33.3(31) . . .
28.7(28) . . .
37.0(32) . . .
38.1(32) . . .
32.8(31) . . .
28.9(28) . . .
40(4) . . .
32.9(30) . . .
32.9(30) . . .
33.5(30) . . .
33.6(32) . . .
32.2(31) . . .
26.8(27) . . .
36.4(33) . . .
41(4) . . .
28.7(28) . . .
31.5(30) . . .
42.8(34) . . .
30.6(31) . . .
35.1(35) . . .
36.3(34) . . .
31.0(29) . . .
30.4(29) . . .
42.0(35) . . .
35.3(33) . . .
34.4(32) . . .
34.2(31) . . .
33.4(30) . . .
33.8(30) . . .
40(4) . . .
33.3(30) . . .
30.8(29) . . .
36.4(31) . . .
32.5(31) . . .
34.3(33) . . .
34.0(32) . . .
35.0(31) . . .
41.0(34) . . .
31.2(29) . . .
30.3(30) . . .
37.0(34) . . .
39.2(33) . . .
32.4(30) . . .
40(4) . . .
30.8(30) . . .
42(4) . . .
33.8(30) . . .
34.3(30) . . .
29.9(27) . . .
35.7(31) . . .
34.2(31) . . .
35.5(31) . . .
35.2(31) . . .
32.3(32) . . .
36.0(33) . . .
35.6(32) . . .
37.1(32) . . .
31.6(29) . . .
34.7(33) . . .
25.8(30) . . .
34.1(32) . . .
35.4(31) . . .
33.8(31) . . .
34.2(32) . . .
37.2(33) . . .
35.9(31) . . .
34.3(30) . . .
42(4) . . .
31.2(31) . . .
31.1(30) . . .
28.3(27) . . .
37.0(32) . . .
37.5(32) . . .
39.8(35) . . .
43(4) . . .
35.2(31) . . .
33.4(31) . . .
33.4(30) . . .
38.5(35) . . .
36.6(31) . . .
32.0(30) . . .
30.5(29) . . .
38.5(33) . . .
36.4(34) . . .
26.9(28) . . .
33.2(30) . . .
39.6(32) . . .
36.3(32) . . .
29.5(29) . . .
35.0(32) . . .
38.3(32) . . .
41.2(35) . . .
45(4) . . .
41.4(35) . . .
34.4(32) . . .
30.2(28) . . .
30.9(29) . . .
34.9(33) . . .
37.2(30) . . .
39.6(34) . . .
41.6(33) . . .
37.4(32) . . .
35.8(34) . . .
33.1(32) . . .
40(4) . . .
31.3(30) . . .
41.6(34) . . .
31.2(31) . . .
34.5(31) . . .
41.0(34) . . .
31.6(29) . . .
35.7(32) . . .
33.0(32) . . .
35.8(33) . . .
36.2(31) . . .
28.7(29) . . .
37.2(33) . . .
40(4) . . .
44(4) . . .
31.5(29) . . .
27.4(27) . . .
30.3(29) . . .
37(4) . . .
31.5(30) . . .
35.2(31) . . .
29.9(29) . . .
32.1(30) . . .
27.0(29) . . .
30.8(29) . . .
33.6(30) . . .
35.0(30) . . .
46(4) . . .
32.8(31) . . .
45(4) . . .
38.8(33) . . .
43.3(34) . . .
42(4) . . .
35.8(32) . . .
33.8(31) . . .
41.6(34) . . .
35.2(31) . . .
33.4(32) . . .
30.4(29) . . .
28.6(28) . . .
33.0(30) . . .
34.2(31) . . .
32.6(31) . . .
31.3(31) . . .
32.3(30) . . .
37.2(32) . . .
37.3(32) . . .
36.3(32) . . .
31.3(28) . . .
33.7(31) . . .
40.6(33) . . .
30.7(30) . . .
41.3(35) . . .
42(4) . . .
30.2(29) . . .
31.6(29) . . .
41(4) . . .
37.3(32) . . .
34.4(29) . . .
38.8(33) . . .
43.2(35) . . .
32.8(30) . . .
39.2(34) . . .
40(4) . . .
40.0(34) . . .
33.9(30) . . .
33.4(31) . . .
43(4) . . .
40.7(34) . . .
33.2(30) . . .
29.9(29) . . .
27.6(28) . . .
36.6(33) . . .
28.5(28) . . .
35.5(31) . . .
32.5(29) . . .
32.3(30) . . .
31.1(31) . . .
36.0(33) . . .
31.6(31) . . .
31.7(30) . . .
34.5(32) . . .
31.8(31) . . .
35.7(33) . . .
32.6(30) . . .
39.4(33) . . .
32.0(30) . . .
41(4) . . .
35.6(32) . . .
34.7(31) . . .
27.5(27) . . .
40(4) . . .
29.1(29) . . .
33.3(32) . . .
37.9(32) . . .
35.2(31) . . .
36.8(32) . . .
36.3(33) . . .
35.1(32) . . .
44.5(34) . . .
36.3(32) . . .
36.6(33) . . .
34.9(33) . . .
35.5(33) . . .
28.6(28) . . .
36.8(33) . . .
35.3(32) . . .
38.0(33) . . .
28.9(28) . . .
36.6(32) . . .
33.7(30) . . .
27.8(28) . . .
33.2(31) . . .
26.5(27) . . .
27.8(27) . . .
39.0(34) . . .
32.1(29) . . .
33.7(33) . . .
30.8(29) . . .
33.8(30) . . .
30.5(30) . . .
34.4(34) . . .
33.7(32) . . .
32.7(30) . . .
39.7(33) . . .
47(4) . . .
38(4) . . .
39(4) . . .
36.8(32) . . .
33.9(31) . . .
31.2(31) . . .
37(4) . . .
33.0(33) . . .
31.0(29) . . .
34.6(30) . . .
38.3(33) . . .
35.6(33) . . .
34.2(31) . . .
35.8(32) . . .
28.9(28) . . .
34.8(31) . . .
32.8(30) . . .
34.8(33) . . .
36.7(32) . . .
33.0(30) . . .
30.5(31) . . .
39(4) . . .
29.8(28) . . .
37.8(32) . . .
34.0(32) . . .
36.8(33) . . .
31.9(31) . . .
40.7(34) . . .
37.4(32) . . .
32.8(30) . . .
33.9(32) . . .
30.1(28) . . .
34.4(31) . . .
29.5(28) . . .
28.6(29) . . .
45(4) . . .
30.6(29) . . .
37.7(32) . . .
34.7(30) . . .
25.8(26) . . .
42(4) . . .
33.1(33) . . .
26.7(27) . . .
34.6(30) . . .
36.0(32) . . .
28.2(28) . . .
30.5(29) . . .
30.2(29) . . .
30.2(28) . . .
44(4) . . .
36.0(33) . . .
37.8(33) . . .
36.9(32) . . .
33.3(30) . . .
34.5(31) . . .
39(4) . . .
35.1(32) . . .
40.0(33) . . .
33.9(30) . . .
31.6(30) . . .
29.7(30) . . .
32.1(31) . . .
34.5(31) . . .
35.1(31) . . .
31.9(31) . . .
36.5(33) . . .
43(4) . . .
40.3(33) . . .
37.8(32) . . .
36.7(33) . . .
36.0(33) . . .
35.4(31) . . .
27.6(28) . . .
34.4(34) . . .
31.8(31) . . .
30.4(31) . . .
37.1(33) . . .
34.2(30) . . .
39.5(33) . . .
37.4(32) . . .
36.2(33) . . .
34.3(30) . . .
38.8(33) . . .
34.8(32) . . .
34.7(31) . . .
39.9(35) . . .
26.3(28) . . .
28.4(28) . . .
37.1(32) . . .
29.4(29) . . .
32.8(31) . . .
40.0(34) . . .
35.6(32) . . .
34.8(32) . . .
33.3(33) . . .
30.7(30) . . .
35.8(30) . . .
36.9(32) . . .
29.7(27) . . .
39.6(35) . . .
46(4) . . .
33.1(31) . . .
30.0(28) . . .
30.7(30) . . .
35.1(34) . . .
35.4(34) . . .
39.2(33) . . .
38.9(33) . . .
35.7(30) . . .
47(4) . . .
31.8(29) . . .
29.1(29) . . .
33.7(30) . . .
39.0(35) . . .
36.6(34) . . .
24.1(25) . . .
36.8(32) . . .
32.9(31) . . .
41(4) . . .
30.7(30) . . .
34(4) . . .
29.9(29) . . .
41.0(35) . . .
33.2(33) . . .
37.0(34) . . .
32.3(29) . . .
37.8(32) . . .
33.1(33) . . .
31.2(29) . . .
31.4(30) . . .
31.9(31) . . .
37.6(32) . . .
36.6(32) . . .
38.7(33) . . .
35.1(32) . . .
41.3(34) . . .
36.5(31) . . .
38.5(33) . . .
35.2(32) . . .
33.4(30) . . .
38.0(33) . . .
37.3(31) . . .
39.4(33) . . .
33.3(30) . . .
29.1(29) . . .
31.2(29) . . .
32.6(30) . . .
36.0(31) . . .
41(4) . . .
40.2(34) . . .
31.1(29) . . .
33.7(31) . . .
31.5(30) . . .
37(4) . . .
30.4(29) . . .
31.4(29) . . .
34.0(30) . . .
38.6(33) . . .
33.8(33) . . .
46(4) . . .
28.8(28) . . .
36.7(32) . . .
35.1(32) . . .
31.6(32) . . .
35.6(32) . . .
35.1(31) . . .
31.3(30) . . .
29.0(28) . . .
42(4) . . .
41.0(33) . . .
32.3(30) . . .
30.7(29) . . .
37.5(33) . . .
37.4(32) . . .
30.7(29) . . .
33.5(30) . . .
37.0(33) . . .
42.2(35) . . .
36.7(32) . . .
36.9(33) . . .
39.2(32) . . .
39.0(33) . . .
36.5(34) . . .
26.6(28) . . .
32.8(30) . . .
38.2(33) . . .
37.6(33) . . .
29.8(28) . . .
38.2(33) . . .
46(4) . . .
39.6(32) . . .
44(4) . . .
40(4) . . .
32.7(30) . . .
40.7(34) . . .
32.8(30) . . .
34.5(34) . . .
30.7(32) . . .
31.5(30) . . .
32.5(30) . . .
42.3(34) . . .
44(4) . . .
36.3(34) . . .
30.3(30) . . .
28.9(28) . . .
30.5(29) . . .
37.5(33) . . .
43(4) . . .
32.7(32) . . .
38.9(32) . . .
37.4(33) . . .
27.1(26) . . .
35.2(31) . . .
31.3(29) . . .
40.9(34) . . .
32.5(29) . . .
32.7(32) . . .
35.5(33) . . .
38.1(32) . . .
31.4(29) . . .
34.0(31) . . .
33.1(31) . . .
32.8(32) . . .
30.5(29) . . .
30.5(29) . . .
39.9(33) . . .
33.8(32) . . .
38.0(34) . . .
40.0(34) . . .
45(4) . . .
38.7(33) . . .
33.1(32) . . .
37.8(33) . . .
33.9(30) . . .
48(4) . . .
31.9(30) . . .
29.2(30) . . .
34.8(32) . . .
36.4(31) . . .
36.8(32) . . .
32.7(30) . . .
35.3(31) . . .
41.1(35) . . .
27.7(28) . . .
34.0(30) . . .
38.3(32) . . .
37(4) . . .
32.7(32) . . .
44.5(35) . . .
35.1(32) . . .
38.3(33) . . .
39(4) . . .
39.0(34) . . .
32.3(31) . . .
31.5(29) . . .
36.9(35) . . .
30.6(29) . . .
38.0(32) . . .
37.1(32) . . .
28.6(28) . . .
37.7(34) . . .
38.8(34) . . .
36.3(33) . . .
38.7(32) . . .
38.2(33) . . .
39.8(33) . . .
41(4) . . .
35.0(31) . . .
39.6(33) . . .
31.7(29) . . .
40.8(34) . . .
37.3(34) . . .
36.0(32) . . .
37.5(32) . . .
25.9(26) . . .
39(4) . . .
29.8(31) . . .
42.1(34) . . .
41.7(34) . . .
38.2(32) . . .
40.2(34) . . .
33.0(31) . . .
38.4(33) . . .
39.7(33) . . .
34.0(31) . . .
42(4) . . .
39.5(33) . . .
31.3(30) . . .
38.5(32) . . .
32.9(31) . . .
25.8(27) . . .
30.2(30) . . .
35.9(32) . . .
26.5(27) . . .
30.9(31) . . .
33.6(34) . . .
25.9(28) . . .
30.0(30) . . .
32.6(30) . . .
30.5(29) . . .
33.8(31) . . .
41.0(34) . . .
36.0(31) . . .
38.0(34) . . .
41(4) . . .
33.0(34) . . .
31.4(30) . . .
35.9(32) . . .
35.9(31) . . .
34.0(31) . . .
42(4) . . .
36.8(34) . . .
32.8(31) . . .
31.5(30) . . .
32.1(32) . . .
33.8(32) . . .
33.0(32) . . .
35.6(32) . . .
37.6(33) . . .
30.7(30) . . .
35.6(34) . . .
32.5(30) . . .
35.3(31) . . .
34.9(31) . . .
32.8(30) . . .
34(4) . . .
41(4) . . .
43.1(34) . . .
31.7(30) . . .
34.3(33) . . .
33.1(30) . . .
29.7(28) . . .
37.1(31) . . .
34.0(30) . . .
33.7(30) . . .
38.3(33) . . .
42.9(34) . . .
33.4(30) . . .
31.3(30) . . .
40(4) . . .
38.2(32) . . .
34.4(31) . . .
31.9(29) . . .
31.7(31) . . .
29.2(30) . . .
35.8(31) . . .
38.9(32) . . .
29.6(28) . . .
30.9(29) . . .
47(4) . . .
35.6(31) . . .
32.0(29) . . .
39.7(34) . . .
29.7(29) . . .
37.4(34) . . .
33.2(31) . . .
24.9(26) . . .
36.1(32) . . .
40.8(35) . . .
29.4(29) . . .
35.0(32) . . .
36.5(31) . . .
39.2(32) . . .
37.2(32) . . .
31.3(30) . . .
33.9(30) . . .
42.6(34) . . .
25.2(26) . . .
27.7(28) . . .
32.2(31) . . .
29.5(29) . . .
28.9(27) . . .
34.1(30) . . .
36.3(32) . . .
38.3(35) . . .
39.3(33) . . .
39.8(32) . . .
36.1(32) . . .
39.8(33) . . .
33.5(30) . . .
32.0(30) . . .
33.0(30) . . .
44(4) . . .
36(4) . . .
29.1(29) . . .
29.6(29) . . .
36.2(32) . . .
38.0(33) . . .
37.7(34) . . .
23.0(25) . . .
29.2(28) . . .
29.2(29) . . .
30.3(29) . . .
30.2(31) . . .
40.2(33) . . .
42.8(35) . . .
32.3(29) . . .
36.6(32) . . .
32.7(30) . . .
30.8(29) . . .
31.9(29) . . .
40.7(33) . . .
32.2(29) . . .
37.7(33) . . .
35.5(33) . . .
31.5(29) . . .
32.4(30) . . .
31.9(31) . . .
35.2(32) . . .
32.4(30) . . .
40.1(34) . . .
35.8(31) . . .
35.6(31) . . .
36.1(32) . . .
36.2(33) . . .
31.8(29) . . .
37.8(34) . . .
28.9(31) . . .
33.0(32) . . .
31.9(31) . . .
32.0(29) . . .
32.2(30) . . .
38.7(34) . . .
35.5(34) . . .
37.3(34) . . .
38.0(32) . . .
38.2(33) . . .
40(4) . . .
26.1(27) . . .
27.7(29) . . .
34.8(31) . . .
33.2(32) . . .
28.7(30) . . .
26.6(28) . . .
36.8(32) . . .
29.8(29) . . .
35.6(32) . . .
32.2(30) . . .
38.0(33) . . .
35.1(31) . . .
45.0(35) . . .
38.1(33) . . .
43(4) . . .
30.1(29) . . .
42.1(33) . . .
38.8(32) . . .
37.9(33) . . .
27.1(28) . . .
30.9(30) . . .
34.7(31) . . .
38.4(32) . . .
33.5(30) . . .
42(4) . . .
33.4(31) . . .
31.7(30) . . .
29.4(30) . . .
37.2(34) . . .
33.7(32) . . .
37.8(33) . . .
39.1(33) . . .
38.7(33) . . .
34.2(32) . . .
29.1(29) . . .
36.6(32) . . .
27.1(27) . . .
30.0(28) . . .
37.5(32) . . .
38(4) . . .
27.7(28) . . .
34.8(30) . . .
37(4) . . .
41(4) . . .
34.8(34) . . .
39(4) . . .
34.8(31) . . .
35.9(32) . . .
36.8(31) . . .
35.9(31) . . .
39.4(34) . . .
40.7(33) . . .
31.3(29) . . .
40.5(35) . . .
49(4) . . .
34.0(31) . . .
29.1(29) . . .
29.7(28) . . .
33.3(32) . . .
35.7(32) . . .
36.8(31) . . .
35.6(31) . . .
34.0(32) . . .
33.8(32) . . .
31.4(30) . . .
37.8(33) . . .
24.8(26) . . .
35.4(33) . . .
38.7(35) . . .
31.3(30) . . .
37.1(32) . . .
28.9(28) . . .
31.0(30) . . .
45(4) . . .
36.4(32) . . .
35.2(31) . . .
29.6(29) . . .
35.5(31) . . .
34.4(35) . . .
43(4) . . .
31.5(30) . . .
33.2(31) . . .
24.4(25) . . .
28.4(29) . . .
40(4) . . .
30.3(28) . . .
33.9(31) . . .
35.9(32) . . .
33.6(31) . . .
32.8(31) . . .
40.5(33) . . .
28.2(29) . . .
33.4(31) . . .
39(4) . . .
32.6(32) . . .
37.2(32) . . .
42.0(34) . . .
33.5(31) . . .
27.0(30) . . .
31.3(29) . . .
38.3(32) . . .
38.8(33) . . .
29.9(29) . . .
33.8(32) . . .
26.8(28) . . .
36.8(32) . . .
34.4(32) . . .
28.1(30) . . .
29.3(30) . . .
31.9(31) . . .
37.7(32) . . .
33.9(31) . . .
31.6(32) . . .
35(4) . . .
33.2(30) . . .
32.9(30) . . .
31.8(30) . . .
35.8(33) . . .
34.1(31) . . .
36.4(32) . . .
38.0(32) . . .
34.5(31) . . .
42(4) . . .
30.8(30) . . .
29.9(28) . . .
33.5(30) . . .
28.4(28) . . .
32.1(30) . . .
34.6(30) . . .
33.8(30) . . .
39.6(33) . . .
40.5(33) . . .
33.1(32) . . .
39.3(34) . . .
32.5(30) . . .
31.4(30) . . .
36.0(32) . . .
37.4(34) . . .
27.3(29) . . .
37.3(32) . . .
37.5(34) . . .
37.9(33) . . .
39.8(34) . . .
30.0(29) . . .
31.1(29) . . .
36.6(33) . . .
35.7(31) . . .
40(4) . . .
33.3(31) . . .
38.4(33) . . .
29.7(29) . . .
35.2(33) . . .
22.2(24) . . .
28.7(28) . . .
33.0(30) . . .
35.7(32) . . .
41(4) . . .
35.8(32) . . .
43(4) . . .
33.7(30) . . .
37.8(35) . . .
37.1(34) . . .
31.2(30) . . .
33.2(31) . . .
33.7(30) . . .
33.2(30) . . .
25.3(28) . . .
29.9(29) . . .
42.9(34) . . .
35.7(31) . . .
32.4(30) . . .
45(4) . . .
34.3(31) . . .
31.4(29) . . .
25.5(28) . . .
32.5(35) . . .
30.3(30) . . .
36.8(34) . . .
28.8(28) . . .
42.0(34) . . .
34.0(31) . . .
30.6(34) . . .
33.2(33) . . .
40.2(33) . . .
35.9(31) . . .
35.9(33) . . .
32.7(31) . . .
36.8(34) . . .
36.0(31) . . .
28.5(28) . . .
28.0(27) . . .
40.5(35) . . .
36.0(33) . . .
42.8(35) . . .
32.5(30) . . .
44(4) . . .
29.5(28) . . .
32.2(30) . . .
37.5(32) . . .
32.5(30) . . .
35.1(32) . . .
31.8(30) . . .
35.2(31) . . .
37.5(32) . . .
40.1(34) . . .
31.6(32) . . .
30.3(30) . . .
41.6(35) . . .
38.1(32) . . .
35.3(32) . . .
37(4) . . .
31.7(30) . . .
30.2(29) . . .
30.7(28) . . .
39(4) . . .
38(4) . . .
27.4(26) . . .
31.6(29) . . .
30.9(29) . . .
31.5(31) . . .
27.6(29) . . .
35.3(32) . . .
32.7(29) . . .
38.9(32) . . .
36.5(31) . . .
42.1(34) . . .
41.5(33) . . .
45.3(35) . . .
31.6(29) . . .
36.8(33) . . .
31.2(30) . . .
34.7(31) . . .
38.4(32) . . .
32.3(30) . . .
32.0(30) . . .
26.8(26) . . .
29.5(32) . . .
31.9(29) . . .
37.0(32) . . .
42(4) . . .
34.8(32) . . .
45(4) . . .
36.0(32) . . .
41.8(35) . . .
31.7(32) . . .
35(4) . . .
29.1(28) . . .
33.4(31) . . .
33.6(31) . . .
32.6(32) . . .
39.9(35) . . .
31.0(28) . . .
35.1(31) . . .
32.1(31) . . .
31.9(29) . . .
29.1(28) . . .
27.2(27) . . .
37.8(32) . . .
42(4) . . .
29.8(30) . . .
33.0(31) . . .
29.9(29) . . .
31.8(30) . . .
27.7(29) . . .
28.5(29) . . .
36.5(32) . . .
38.1(32) . . .
32.4(29) . . .
21.7(25) . . .
29.6(30) . . .
34.2(30) . . .
35.6(31) . . .
29.4(28) . . .
34.3(31) . . .
36.2(32) . . .
40.4(34) . . .
27.9(27) . . .
35.3(31) . . .
47(4) . . .
33.7(31) . . .
33.0(30) . . .
38.9(33) . . .
31.4(29) . . .
26.5(27) . . .
35.6(33) . . .
34.3(31) . . .
31.3(29) . . .
39.8(35) . . .
41.2(35) . . .
33.9(32) . . .
30.1(30) . . .
36.8(32) . . .
31.6(29) . . .
32.8(32) . . .
28.2(29) . . .
41.5(34) . . .
35.2(31) . . .
31.6(30) . . .
31.0(31) . . .
33.5(33) . . .
30.3(29) . . .
38.0(32) . . .
36.5(32) . . .
40(4) . . .
30.9(30) . . .
26.6(27) . . .
29.8(29) . . .
37.1(34) . . .
39.3(34) . . .
31.8(30) . . .
37.0(33) . . .
34.4(31) . . .
31.7(33) . . .
35.9(34) . . .
33.2(30) . . .
40.6(34) . . .
39.8(33) . . .
27.1(29) . . .
26.1(26) . . .
37.9(32) . . .
29.7(28) . . .
37.7(33) . . .
35.7(33) . . .
36(4) . . .
41(4) . . .
29.9(29) . . .
31.0(29) . . .
29.9(30) . . .
27.4(29) . . .
41(4) . . .
31.5(29) . . .
37.8(33) . . .
34.3(32) . . .
40(4) . . .
36.7(33) . . .
30.8(29) . . .
34.6(31) . . .
32.8(30) . . .
27.4(27) . . .
33.7(31) . . .
32.7(29) . . .
23.7(27) . . .
33.7(32) . . .
36.6(33) . . .
29.0(28) . . .
39.1(33) . . .
34.7(32) . . .
41(4) . . .
35.5(31) . . .
28.5(28) . . .
35.6(31) . . .
36.1(32) . . .
31.8(31) . . .
37.0(31) . . .
46(4) . . .
34.1(31) . . .
41.5(35) . . .
40.2(34) . . .
41(4) . . .
42.6(35) . . .
25.4(27) . . .
30.1(30) . . .
38(4) . . .
31.8(30) . . .
25.3(27) . . .
34.1(31) . . .
42(4) . . .
35.5(32) . . .
35.6(33) . . .
36.8(32) . . .
34.8(31) . . .
33.2(32) . . .
37.3(32) . . .
37.0(35) . . .
34.1(31) . . .
35.6(33) . . .
40.2(35) . . .
37.0(34) . . .
32.1(32) . . .
39.1(33) . . .
35.9(33) . . .
40(4) . . .
33.9(33) . . .
28.7(28) . . .
44(4) . . .
39.6(32) . . .
35.7(31) . . .
39.6(34) . . .
33.0(32) . . .
32.9(30) . . .
36.4(32) . . .
36.8(33) . . .
43(4) . . .
38.0(35) . . .
32.4(29) . . .
35.6(33) . . .
29.5(29) . . .
38.3(33) . . .
34.7(33) . . .
34.0(30) . . .
40.3(34) . . .
34.8(32) . . .
40(4) . . .
44(4) . . .
32.8(30) . . .
35.4(31) . . .
35.8(34) . . .
31.0(31) . . .
31.0(32) . . .
36.5(32) . . .
35.1(32) . . .
30.0(29) . . .
33.4(32) . . .
33.1(31) . . .
42.8(35) . . .
36.4(32) . . .
35.7(31) . . .
28.7(29) . . .
37.4(32) . . .
46(4) . . .
34.9(31) . . .
37.2(32) . . .
39.3(33) . . .
35.7(31) . . .
36.0(32) . . .
42.6(35) . . .
43(4) . . .
36.1(32) . . .
36.8(32) . . .
31.5(29) . . .
32.3(31) . . .
29.2(31) . . .
35.5(31) . . .
32.5(30) . . .
32.1(31) . . .
36.4(35) . . .
32.6(31) . . .
32.1(31) . . .
30.5(29) . . .
34.6(31) . . .
35.4(32) . . .
36.5(32) . . .
47(4) . . .
34.2(31) . . .
36.6(32) . . .
28.6(30) . . .
31.0(32) . . .
41(4) . . .
36.7(31) . . .
25.9(27) . . .
38.8(35) . . .
41(4) . . .
34.2(33) . . .
32.0(30) . . .
42.7(35) . . .
35.9(33) . . .
33.0(32) . . .
30.3(30) . . .
33.7(30) . . .
33.1(31) . . .
33.8(32) . . .
36.0(32) . . .
40.3(33) . . .
38.0(32) . . .
36.2(33) . . .
32.3(31) . . .
34.3(31) . . .
36.1(34) . . .
30.3(29) . . .
38.8(33) . . .
41(4) . . .
36.5(32) . . .
37.9(33) . . .
36.2(31) . . .
23.3(28) . . .
31.2(31) . . .
39.6(34) . . .
28.6(29) . . .
24.9(25) . . .
25.6(26) . . .
22.4(25) . . .
30.3(29) . . .
27.7(27) . . .
35.8(31) . . .
37.2(33) . . .
32.7(32) . . .
30.2(29) . . .
27.7(28) . . .
33.2(30) . . .
37.3(33) . . .
33.3(30) . . .
38.8(34) . . .
32.5(30) . . .
38.8(33) . . .
34.5(32) . . .
30.3(29) . . .
37.5(32) . . .
49(4) . . .
37.4(32) . . .
33.1(29) . . .
40.7(35) . . .
38.8(33) . . .
28.6(28) . . .
36.8(32) . . .
33.1(31) . . .
38(4) . . .
25.2(27) . . .
34.8(31) . . .
32.3(30) . . .
33.0(31) . . .
30.2(29) . . .
40.0(35) . . .
33.3(30) . . .
37.4(32) . . .
33.2(33) . . .
40(4) . . .
27.9(27) . . .
32.6(30) . . .
40.7(35) . . .
38.0(34) . . .
34.2(33) . . .
28.6(28) . . .
30.1(29) . . .
29.8(31) . . .
35.2(33) . . .
28.0(29) . . .
28.9(29) . . .
37.2(32) . . .
36.6(32) . . .
36.2(34) . . .
28.8(28) . . .
36.9(31) . . .
44.1(34) . . .
37.2(33) . . .
33.1(31) . . .
39(4) . . .
32.4(30) . . .
30.6(29) . . .
34.4(34) . . .
39(4) . . .
28.1(28) . . .
34.8(31) . . .
35.0(31) . . .
30.3(30) . . .
24.3(27) . . .
28.4(29) . . .
29.5(29) . . .
41.4(34) . . .
31.2(30) . . .
30.6(31) . . .
35.4(32) . . .
34.5(31) . . .
29.0(28) . . .
40(4) . . .
27.5(28) . . .
33.4(30) . . .
36.2(31) . . .
30.7(31) . . .
27.0(27) . . .
32.4(30) . . .
35.6(31) . . .
27.3(27) . . .
33.0(31) . . .
33.6(32) . . .
35.8(32) . . .
31.7(29) . . .
34.6(30) . . .
32.8(32) . . .
28.3(29) . . .
28.1(30) . . .
32.9(31) . . .
36.1(31) . . .
38.3(33) . . .
36.5(34) . . .
32.6(30) . . .
39.8(32) . . .
47(4) . . .
40(4) . . .
24.4(27) . . .
35.8(33) . . .
36.2(31) . . .
30.2(29) . . .
28.9(29) . . .
35.3(35) . . .
40.2(35) . . .
40.4(33) . . .
34.7(31) . . .
29.1(29) . . .
36.6(34) . . .
35.3(33) . . .
32.1(30) . . .
40.7(33) . . .
37.0(33) . . .
37(4) . . .
24.4(26) . . .
37.5(31) . . .
36.2(31) . . .
29.3(28) . . .
35.6(33) . . .
24.6(26) . . .
37.3(32) . . .
35.5(31) . . .
33.8(33) . . .
27.1(29) . . .
37.0(34) . . .
38.0(32) . . .
37.1(32) . . .
27.5(28) . . .
30.4(30) . . .
40.5(34) . . .
38.0(33) . . .
31.9(31) . . .
31.9(31) . . .
38.4(33) . . .
34.7(31) . . .
32.7(30) . . .
31.0(32) . . .
25.9(27) . . .
38.0(34) . . .
30.0(29) . . .
24.5(26) . . .
40(4) . . .
36.3(33) . . .
37.2(32) . . .
30.6(29) . . .
26.6(27) . . .
36.9(34) . . .
33.2(31) . . .
24.6(27) . . .
39.1(32) . . .
31.4(29) . . .
39(4) . . .
28.2(33) . . .
25.6(28) . . .
30.9(29) . . .
32.2(30) . . .
35.7(33) . . .
36.4(34) . . .
25.7(27) . . .
33.2(30) . . .
30.5(28) . . .
31.3(29) . . .
39(4) . . .
31.3(31) . . .
38.1(32) . . .
35.0(33) . . .
38.5(34) . . .
35.8(33) . . .
33.8(30) . . .
36.3(32) . . .
33.2(30) . . .
34.9(33) . . .
29.8(29) . . .
45(4) . . .
38.8(33) . . .
38.9(33) . . .
37.0(34) . . .
26.9(29) . . .
37.5(33) . . .
24.0(25) . . .
33.3(31) . . .
27.6(29) . . .
29.6(29) . . .
35.1(31) . . .
34.7(31) . . .
35.3(32) . . .
38.6(33) . . .
30.0(29) . . .
34.3(32) . . .
38.4(32) . . .
30.8(31) . . .
28.7(30) . . .
32.0(30) . . .
46(4) . . .
33.1(30) . . .
38.0(33) . . .
44(4) . . .
39.0(34) . . .
34.4(30) . . .
39.3(33) . . .
34.3(31) . . .
32.5(33) . . .
34.0(32) . . .
35.8(31) . . .
32.9(30) . . .
29.3(29) . . .
32.5(30) . . .
41.0(34) . . .
36.6(31) . . .
35.7(32) . . .
41(4) . . .
33.0(33) . . .
37.8(35) . . .
28.8(28) . . .
30.9(30) . . .
30.8(29) . . .
30.8(30) . . .
39(4) . . .
29.6(29) . . .
34.3(31) . . .
45(4) . . .
43(4) . . .
38.5(34) . . .
37.9(32) . . .
28.5(30) . . .
36.3(33) . . .
42(4) . . .
38.0(34) . . .
31.8(29) . . .
27.8(29) . . .
36(4) . . .
29.9(30) . . .
29.2(30) . . .
35.6(31) . . .
45(4) . . .
38.3(34) . . .
30.6(30) . . .
37.2(32) . . .
34.0(31) . . .
32.6(31) . . .
29.5(29) . . .
37(4) . . .
39.7(34) . . .
28.9(28) . . .
31.9(33) . . .
37(4) . . .
31.2(31) . . .
30.6(28) . . .
28.2(28) . . .
40(4) . . .
31.7(32) . . .
36.7(35) . . .
32.8(30) . . .
28.0(27) . . .
30.3(30) . . .
28.3(31) . . .
37.8(33) . . .
30.4(29) . . .
34.7(30) . . .
36.6(31) . . .
41(4) . . .
29.5(29) . . .
35.7(31) . . .
32.6(30) . . .
45(4) . . .
34.2(32) . . .
35.4(32) . . .
36.2(31) . . .
27.2(27) . . .
42(4) . . .
44(4) . . .
43(4) . . .
37.3(32) . . .
29.1(30) . . .
29.3(30) . . .
36.0(33) . . .
29.4(28) . . .
31.2(29) . . .
36.5(34) . . .
30.8(31) . . .
31.7(31) . . .
38.3(33) . . .
29.9(29) . . .
30.9(30) . . .
28.4(27) . . .
39.0(35) . . .
29.0(28) . . .
41.3(33) . . .
36.6(33) . . .
36.4(33) . . .
34.8(33) . . .
28.1(28) . . .
41.3(33) . . .
44(4) . . .
39.0(33) . . .
41.3(34) . . .
41.2(33) . . .
31.2(29) . . .
26.2(26) . . .
25.8(29) . . .
29.9(29) . . .
33.0(30) . . .
27.8(27) . . .
32.4(30) . . .
37.3(34) . . .
42.1(35) . . .
40.6(33) . . .
29.3(29) . . .
27.9(28) . . .
36.1(34) . . .
32.7(30) . . .
37.9(33) . . .
27.9(28) . . .
41(4) . . .
41(4) . . .
32.1(30) . . .
25.0(26) . . .
30.1(31) . . .
31.6(31) . . .
33.9(31) . . .
32.9(30) . . .
33.2(30) . . .
35.6(32) . . .
37.6(35) . . .
38.1(33) . . .
28.9(28) . . .
27.8(28) . . .
35.7(32) . . .
38.4(35) . . .
36.3(34) . . .
34.4(32) . . .
33.3(31) . . .
35.0(32) . . .
30.7(31) . . .
32.1(30) . . .
43.6(35) . . .
31.8(30) . . .
40.4(33) . . .
41(4) . . .
39.6(34) . . .
37.2(32) . . .
32.2(29) . . .
32.7(34) . . .
37.9(35) . . .
41.3(35) . . .
33.0(30) . . .
33.2(30) . . .
37.2(34) . . .
32.7(33) . . .
32.2(30) . . .
36.8(32) . . .
36.3(31) . . .
30.3(29) . . .
38.2(33) . . .
44(4) . . .
36.4(31) . . .
37.0(31) . . .
41.4(34) . . .
44(4) . . .
27.0(29) . . .
31.0(29) . . .
26.8(27) . . .
33.2(31) . . .
30.0(30) . . .
31.8(30) . . .
32.5(30) . . .
34.8(31) . . .
38.7(33) . . .
48(4) . . .
28.2(30) . . .
32.9(30) . . .
42(4) . . .
31.0(31) . . .
28.4(28) . . .
30.3(28) . . .
42.1(34) . . .
35.1(32) . . .
30.8(30) . . .
29.1(29) . . .
28.7(29) . . .
35.5(31) . . .
41.1(35) . . .
31.7(30) . . .
35.7(34) . . .
38.0(33) . . .
37.9(32) . . .
32.7(30) . . .
39.3(34) . . .
33.3(31) . . .
36.6(32) . . .
26.9(27) . . .
42(4) . . .
38.3(33) . . .
38.3(34) . . .
34.8(31) . . .
28.4(29) . . .
36.5(34) . . .
37(4) . . .
29.7(30) . . .
26.7(27) . . .
34.5(31) . . .
36.8(32) . . .
40(4) . . .
39.0(34) . . .
29.3(28) . . .
24.3(26) . . .
33.8(32) . . .
38(4) . . .
29.7(30) . . .
37.3(33) . . .
34.8(31) . . .
35.4(31) . . .
29.4(28) . . .
37.8(35) . . .
36.5(31) . . .
34.4(31) . . .
39.8(35) . . .
42(4) . . .
32.7(30) . . .
44.4(34) . . .
36.4(32) . . .
34.9(32) . . .
27.9(27) . . .
36.6(32) . . .
36.5(31) . . .
44(4) . . .
38.7(34) . . .
40.0(33) . . .
40.2(33) . . .
37.1(32) . . .
22.6(25) . . .
38(4) . . .
39(4) . . .
34.2(32) . . .
40.3(33) . . .
35.8(32) . . .
34.0(33) . . .
39.1(34) . . .
36.2(33) . . .
34.6(31) . . .
38(4) . . .
37.9(32) . . .
42(4) . . .
30.0(28) . . .
30.3(29) . . .
34.9(32) . . .
32.8(32) . . .
32.4(30) . . .
32.8(29) . . .
40.2(33) . . .
41(4) . . .
32.1(32) . . .
34.6(32) . . .
43.2(34) . . .
30.8(29) . . .
33.4(31) . . .
34.8(34) . . .
38.7(34) . . .
23.9(26) . . .
32.2(29) . . .
36.9(32) . . .
36.5(33) . . .
45(4) . . .
35.7(31) . . .
42.2(34) . . .
34.3(31) . . .
33.6(34) . . .
31.7(31) . . .
31.2(30) . . .
40.8(33) . . .
37.3(33) . . .
26.8(28) . . .
28.3(28) . . .
34.8(31) . . .
27.2(30) . . .
27.8(28) . . .
25.8(27) . . .
31.1(30) . . .
41.7(34) . . .
39.3(35) . . .
38.8(34) . . .
27.6(28) . . .
28.3(28) . . .
28.4(27) . . .
24.3(26) . . .
37.5(32) . . .
44.9(34) . . .
34.2(31) . . .
31.4(30) . . .
36.6(34) . . .
37.0(33) . . .
37.8(32) . . .
37.5(32) . . .
29.4(28) . . .
33.4(31) . . .
37(4) . . .
39.5(34) . . .
36.9(32) . . .
45(4) . . .
26.1(28) . . .
42(4) . . .
34.2(32) . . .
34.4(31) . . .
32.2(29) . . .
39.2(33) . . .
33.0(32) . . .
24.2(27) . . .
25.0(26) . . .
26.9(27) . . .
36.9(33) . . .
40(4) . . .
35.1(33) . . .
32.1(29) . . .
34.7(30) . . .
30.7(29) . . .
36.6(33) . . .
38.5(35) . . .
34.7(31) . . .
41.4(33) . . .
37.8(33) . . .
33.7(30) . . .
39.7(33) . . .
30.4(29) . . .
31.5(29) . . .
24.0(27) . . .
32.5(33) . . .
29.7(29) . . .
35.1(30) . . .
36.7(33) . . .
31.6(30) . . .
36.3(34) . . .
40.2(35) . . .
43.7(35) . . .
36.0(35) . . .
32.7(33) . . .
32.9(31) . . .
38.8(33) . . .
44.4(35) . . .
31.5(30) . . .
31.4(30) . . .
31.1(29) . . .
31.0(29) . . .
42.9(34) . . .
34.1(31) . . .
34.9(30) . . .
34.3(31) . . .
33.8(31) . . .
36.8(32) . . .
38.6(34) . . .
31.0(29) . . .
33.3(30) . . .
39.7(33) . . .
38.3(32) . . .
31.0(30) . . .
39(4) . . .
31.6(31) . . .
37.3(32) . . .
34.5(30) . . .
36.6(32) . . .
36.9(33) . . .
30.9(29) . . .
34.9(32) . . .
33.3(30) . . .
42(4) . . .
27.9(30) . . .
23.4(25) . . .
29.6(29) . . .
32.8(32) . . .
34.8(33) . . .
36.4(34) . . .
35.4(34) . . .
35.8(31) . . .
28.7(28) . . .
34.7(33) . . .
31.5(31) . . .
35.0(31) . . .
35.1(31) . . .
33.7(32) . . .
33.1(30) . . .
34.0(31) . . .
27.2(27) . . .
27.0(27) . . .
34.3(33) . . .
37(4) . . .
30.2(30) . . .
32.8(30) . . .
36.1(31) . . .
39.2(34) . . .
30.4(29) . . .
30.4(28) . . .
31.5(30) . . .
36.6(32) . . .
34.1(32) . . .
31.3(31) . . .
39.6(33) . . .
34.7(31) . . .
32.9(30) . . .
31.1(31) . . .
29.4(28) . . .
37.9(33) . . .
42.1(35) . . .
39.6(33) . . .
30.6(28) . . .
30.8(32) . . .
32.3(31) . . .
25.0(27) . . .
30.1(28) . . .
32.6(31) . . .
34.7(34) . . .
36.5(33) . . .
29.7(29) . . .
30.0(28) . . .
27.9(29) . . .
33.2(31) . . .
37.1(32) . . .
31.4(29) . . .
32.7(31) . . .
26.0(28) . . .
33.9(33) . . .
32.8(32) . . .
32.7(30) . . .
28.2(29) . . .
35(4) . . .
41(4) . . .
27.9(28) . . .
31.1(29) . . .
37.1(32) . . .
32.8(32) . . .
34.7(33) . . .
36.0(31) . . .
31.3(29) . . .
27.3(27) . . .
34.4(33) . . .
25.1(25) . . .
39.1(34) . . .
29.5(28) . . .
25.6(26) . . .
37.2(33) . . .
40.3(35) . . .
32.0(29) . . .
38.1(33) . . .
36.3(33) . . .
28.3(29) . . .
32.6(32) . . .
34.0(30) . . .
35.3(31) . . .
39.1(32) . . .
47(4) . . .
36.1(32) . . .
34.3(30) . . .
43.0(35) . . .
34.1(30) . . .
30.1(30) . . .
26.0(27) . . .
26.3(27) . . .
39.0(34) . . .
35.8(32) . . .
45(4) . . .
33.2(31) . . .
34.9(31) . . .
30.3(28) . . .
37.0(34) . . .
27.1(28) . . .
30.4(30) . . .
31.6(30) . . .
40.9(33) . . .
41.2(33) . . .
39(4) . . .
26.0(27) . . .
31.4(29) . . .
28.9(28) . . .
39(4) . . .
38(4) . . .
30.5(29) . . .
37.0(32) . . .
41.0(35) . . .
35.3(31) . . .
37.7(34) . . .
32.3(31) . . .
38.1(32) . . .
33.8(31) . . .
31.9(32) . . .
32.6(32) . . .
35.8(32) . . .
29.3(29) . . .
29.1(29) . . .
29.3(31) . . .
28.6(30) . . .
29.2(30) . . .
31.9(29) . . .
34.5(31) . . .
38.6(34) . . .
29.3(28) . . .
29.4(28) . . .
39.9(33) . . .
35.8(33) . . .
38.0(34) . . .
36.3(32) . . .
32.7(30) . . .
35.2(31) . . .
33.8(31) . . .
27.8(29) . . .
27.8(28) . . .
35.1(31) . . .
36.2(31) . . .
37.6(33) . . .
32.7(32) . . .
34.1(32) . . .
35.8(31) . . .
33.7(31) . . .
37.0(33) . . .
36(4) . . .
31.6(30) . . .
31.5(30) . . .
31.6(30) . . .
26.2(27) . . .
32.5(33) . . .
35.4(34) . . .
38.7(33) . . .
32.1(30) . . .
28.6(29) . . .
34.8(34) . . .
32.1(30) . . .
25.6(26) . . .
28.2(28) . . .
31.7(30) . . .
34.4(30) . . .
42.8(34) . . .
37.8(31) . . .
26.9(27) . . .
40.0(33) . . .
31.5(30) . . .
32.5(30) . . .
37.9(33) . . .
46(4) . . .
32.7(28) . . .
34.7(31) . . .
43(4) . . .
38.1(32) . . .
29.8(28) . . .
38.4(32) . . .
27.9(27) . . .
32.8(32) . . .
33.4(31) . . .
31.9(32) . . .
32.5(32) . . .
33.9(31) . . .
34.7(31) . . .
37.7(32) . . .
39.1(34) . . .
39(4) . . .
29.4(30) . . .
32.4(31) . . .
36.2(31) . . .
37.3(33) . . .
36.4(33) . . .
28.3(28) . . .
34.3(31) . . .
32.0(29) . . .
31.8(30) . . .
35.1(33) . . .
28.6(29) . . .
33.3(31) . . .
32.4(30) . . .
38.2(34) . . .
31.0(30) . . .
31.4(29) . . .
38.5(32) . . .
29.8(30) . . .
35.7(32) . . .
35.3(33) . . .
28.5(29) . . .
35.4(31) . . .
26.7(29) . . .
33.3(33) . . .
33.6(31) . . .
43(4) . . .
39.5(33) . . .
37.2(33) . . .
28.8(31) . . .
39(4) . . .
33.2(32) . . .
32.5(31) . . .
39.1(34) . . .
38.7(34) . . .
26.6(28) . . .
31.0(29) . . .
27.3(27) . . .
31.7(31) . . .
35.5(34) . . .
29.9(28) . . .
37.4(34) . . .
26.1(26) . . .
31.6(29) . . .
39.3(34) . . .
32.3(30) . . .
31.5(29) . . .
28.2(27) . . .
34.2(32) . . .
33.3(32) . . .
34.0(32) . . .
33.5(30) . . .
34.2(31) . . .
29.6(31) . . .
41(4) . . .
39.5(34) . . .
35.7(32) . . .
26.7(27) . . .
32.4(30) . . .
28.4(29) . . .
27.3(29) . . .
32.5(30) . . .
32.3(29) . . .
30.8(29) . . .
27.4(28) . . .
28.6(29) . . .
36.0(30) . . .
34.7(32) . . .
37.2(32) . . .
34.4(33) . . .
31.5(30) . . .
34.1(31) . . .
39(4) . . .
38.6(34) . . .
46(4) . . .
43(4) . . .
41.3(34) . . .
36.4(32) . . .
32.3(32) . . .
33.3(32) . . .
32.4(31) . . .
33.0(30) . . .
33.3(32) . . .
41(4) . . .
37.9(35) . . .
30.6(29) . . .
34.4(31) . . .
39.4(34) . . .
32.9(31) . . .
37(4) . . .
24.6(26) . . .
28.6(28) . . .
33.6(31) . . .
38(4) . . .
30.1(31) . . .
27.4(30) . . .
32.3(30) . . .
32.2(31) . . .
28.2(30) . . .
34.8(32) . . .
34.9(31) . . .
37.9(32) . . .
33.9(32) . . .
35.6(35) . . .
34.6(32) . . .
30.6(29) . . .
33.0(30) . . .
31.5(31) . . .
37.1(35) . . .
32.8(30) . . .
33.2(31) . . .
30.1(28) . . .
36.7(32) . . .
33.7(33) . . .
33.2(30) . . .
30.9(30) . . .
34.8(32) . . .
34.9(30) . . .
38.3(33) . . .
34.9(31) . . .
30.0(28) . . .
35.6(33) . . .
31.2(29) . . .
32.4(29) . . .
34.0(31) . . .
34.3(31) . . .
30.2(30) . . .
25.7(26) . . .
39.2(34) . . .
28.0(28) . . .
32.0(30) . . .
39.0(34) . . .
29.7(30) . . .
32.4(32) . . .
29.2(29) . . .
33.4(30) . . .
33.5(31) . . .
48(4) . . .
46(4) . . .
41.7(34) . . .
31.4(29) . . .
34.4(32) . . .
25.5(28) . . .
28.1(29) . . .
32.5(30) . . .
28.6(28) . . .
37.1(32) . . .
34.9(31) . . .
32.1(30) . . .
32.0(29) . . .
40.8(34) . . .
34.0(31) . . .
37.1(34) . . .
38.5(33) . . .
33.0(30) . . .
33.4(30) . . .
36.7(33) . . .
29.6(31) . . .
32.8(30) . . .
35.0(32) . . .
28.9(28) . . .
31.9(31) . . .
40(4) . . .
32.5(32) . . .
34.7(31) . . .
37.6(32) . . .
34.0(32) . . .
42(4) . . .
39.7(34) . . .
40.5(33) . . .
34.8(31) . . .
33.6(31) . . .
39.2(35) . . .
37.5(33) . . .
29.8(28) . . .
40.0(33) . . .
34.0(31) . . .
39.5(34) . . .
34.5(31) . . .
37.9(32) . . .
36.3(32) . . .
41(4) . . .
36.2(32) . . .
35.1(31) . . .
26.7(27) . . .
26.1(28) . . .
31.6(31) . . .
34.2(31) . . .
30.6(29) . . .
34.4(31) . . .
33.7(31) . . .
35.1(31) . . .
35.5(31) . . .
33.9(30) . . .
31.6(29) . . .
31.8(32) . . .
47(4) . . .
33.7(34) . . .
29.5(28) . . .
34.6(30) . . .
37.8(32) . . .
33.9(30) . . .
35.9(30) . . .
33.8(30) . . .
30.9(30) . . .
41(4) . . .
31.3(29) . . .
36.0(32) . . .
28.1(28) . . .
28.8(28) . . .
29.5(31) . . .
35.9(33) . . .
36.0(31) . . .
37.3(32) . . .
42.8(34) . . .
39.5(34) . . .
38.1(34) . . .
36.0(32) . . .
34.6(30) . . .
35.9(31) . . .
33.5(31) . . .
37.4(33) . . .
30.4(29) . . .
37.0(32) . . .
30.3(29) . . .
32.3(31) . . .
40(4) . . .
28.1(28) . . .
23.6(25) . . .
37(4) . . .
29.5(30) . . .
28.0(28) . . .
26.4(30) . . .
26.9(27) . . .
24.1(27) . . .
33.4(34) . . .
35(4) . . .
32.7(31) . . .
31.3(29) . . .
38.3(34) . . .
36.8(34) . . .
34.2(31) . . .
30.3(29) . . .
30.9(30) . . .
43(4) . . .
35.8(33) . . .
38.9(33) . . .
33.6(30) . . .
28.9(28) . . .
35.5(33) . . .
31.6(32) . . .
36.4(33) . . .
37.1(32) . . .
44.5(34) . . .
41(4) . . .
23.9(27) . . .
32.5(33) . . .
38.0(32) . . .
33.3(30) . . .
35.9(30) . . .
38.9(34) . . .
28.5(28) . . .
30.2(29) . . .
36.3(33) . . .
44(4) . . .
37.1(32) . . .
30.1(28) . . .
32.7(30) . . .
34.8(31) . . .
34.5(30) . . .
33.9(32) . . .
28.8(28) . . .
30.3(29) . . .
28.5(28) . . .
31.6(30) . . .
26.2(27) . . .
26.4(27) . . .
39.2(33) . . .
42(4) . . .
34.7(31) . . .
31.0(32) . . .
28.6(29) . . .
33.3(30) . . .
35.5(32) . . .
31.8(30) . . .
38(4) . . .
30.2(29) . . .
36.6(32) . . .
29.2(31) . . .
34.3(33) . . .
30.0(31) . . .
23.6(26) . . .
33.5(30) . . .
31.8(30) . . .
33.1(32) . . .
37.1(33) . . .
36.1(32) . . .
28.5(28) . . .
34.2(32) . . .
32.5(32) . . .
29.6(27) . . .
36.5(31) . . .
30.9(29) . . .
32.1(30) . . .
37(4) . . .
30.8(29) . . .
34.3(30) . . .
36.2(32) . . .
30.9(30) . . .
30.3(30) . . .
29.9(30) . . .
35.9(32) . . .
30.1(28) . . .
39.0(33) . . .
35.9(31) . . .
39.4(33) . . .
31.7(30) . . .
29.0(29) . . .
25.5(26) . . .
41(4) . . .
34.0(30) . . .
33.5(30) . . .
25.2(27) . . .
29.9(28) . . .
31.3(29) . . .
36.0(32) . . .
35.4(31) . . .
41.5(34) . . .
32.4(30) . . .
37.2(32) . . .
39.2(34) . . .
37.1(32) . . .
38.9(33) . . .
33.7(32) . . .
31.1(31) . . .
35.3(32) . . .
32.3(30) . . .
30.3(29) . . .
32.5(31) . . .
31.1(31) . . .
31.8(31) . . .
32.8(30) . . .
34.1(33) . . .
40.2(34) . . .
36.7(31) . . .
36.7(32) . . .
29.8(29) . . .
30.3(29) . . .
35.9(31) . . .
43(4) . . .
37.8(32) . . .
31.7(29) . . .
40(4) . . .
34.3(33) . . .
34.5(35) . . .
31.4(29) . . .
27.7(27) . . .
30.6(28) . . .
35.7(32) . . .
33.0(30) . . .
36.6(32) . . .
36.3(32) . . .
38.0(34) . . .
34.0(31) . . .
36.5(32) . . .
51(4) . . .
40.5(34) . . .
30.2(30) . . .
35.4(32) . . .
39.8(33) . . .
49(4) . . .
43.2(34) . . .
37.0(34) . . .
32.8(32) . . .
31.1(29) . . .
34.8(31) . . .
34.3(31) . . .
33.2(32) . . .
26.5(27) . . .
38.0(33) . . .
30.8(29) . . .
29.9(30) . . .
33.2(31) . . .
31.4(30) . . .
25.5(26) . . .
36.1(32) . . .
43(4) . . .
37.3(34) . . .
33.0(30) . . .
30.6(31) . . .
32.6(29) . . .
41(4) . . .
43(4) . . .
38.0(34) . . .
37.0(33) . . .
33.3(30) . . .
29.9(29) . . .
43(4) . . .
35.4(32) . . .
29.9(28) . . .
31.2(30) . . .
32.8(31) . . .
28.7(30) . . .
30.5(29) . . .
35.3(30) . . .
33.5(32) . . .
37.0(32) . . .
39.7(33) . . .
38.8(33) . . .
35.9(31) . . .
31.5(29) . . .
35.5(33) . . .
27.6(30) . . .
40(4) . . .
33.5(30) . . .
22.8(25) . . .
26.9(28) . . .
37(4) . . .
33.1(31) . . .
31.9(30) . . .
34.0(30) . . .
34.4(32) . . .
42(4) . . .
35.0(31) . . .
36.2(32) . . .
38(4) . . .
26.6(28) . . .
36.0(33) . . .
38.6(32) . . .
41.9(34) . . .
38.7(33) . . .
30.4(29) . . .
30.8(29) . . .
40(4) . . .
37.3(31) . . .
29.4(29) . . .
36(4) . . .
40(4) . . .
31.1(29) . . .
35.4(31) . . .
35.1(31) . . .
38(4) . . .
35.5(34) . . .
38.0(33) . . .
29.1(28) . . .
36.6(34) . . .
34.3(33) . . .
35.3(33) . . .
33.0(30) . . .
39.6(34) . . .
35.0(32) . . .
31.4(31) . . .
22.5(24) . . .
31.1(29) . . .
38.3(32) . . .
31.0(31) . . .
40(4) . . .
32.4(30) . . .
42(4) . . .
41.2(33) . . .
36.3(32) . . .
34.9(31) . . .
41.4(34) . . .
38.6(33) . . .
35.6(33) . . .
31.4(31) . . .
30.5(32) . . .
33.6(31) . . .
34.0(30) . . .
39.9(34) . . .
35.0(31) . . .
33.5(32) . . .
38.8(34) . . .
25.8(27) . . .
29.8(28) . . .
35.0(31) . . .
32.6(30) . . .
30.4(31) . . .
30.3(29) . . .
31.6(30) . . .
30.6(31) . . .
32.4(30) . . .
29.7(28) . . .
29.5(29) . . .
34.6(31) . . .
34.5(30) . . .
44(4) . . .
46(4) . . .
36.9(31) . . .
31.9(32) . . .
34.1(33) . . .
39(4) . . .
34.8(33) . . .
31.9(30) . . .
42(4) . . .
32.0(32) . . .
38.0(33) . . .
42(4) . . .
29.5(28) . . .
35.3(31) . . .
40.5(35) . . .
34.6(32) . . .
25.8(26) . . .
33.5(30) . . .
44(4) . . .
29.9(30) . . .
33.2(32) . . .
35.7(31) . . .
26.2(27) . . .
38.8(33) . . .
31.6(32) . . .
30.2(33) . . .
32.8(30) . . .
35.2(31) . . .
40.9(34) . . .
41(4) . . .
28.6(30) . . .
32.8(30) . . .
30.7(29) . . .
36.3(33) . . .
38(4) . . .
31.1(32) . . .
26.8(27) . . .
31.1(32) . . .
29.6(29) . . .
34.3(32) . . .
36.0(32) . . .
32.2(30) . . .
27.1(27) . . .
24.5(25) . . .
39(4) . . .
41.5(35) . . .
31.5(29) . . .
37.9(33) . . .
31.0(30) . . .
35.5(34) . . .
36.9(32) . . .
36.3(31) . . .
41(4) . . .
29.4(28) . . .
37(4) . . .
29.2(29) . . .
44.8(35) . . .
35.8(31) . . .
38.0(34) . . .
36.5(34) . . .
25.6(26) . . .
34.3(30) . . .
29.0(29) . . .
35.4(33) . . .
36.0(31) . . .
45.1(35) . . .
35.7(31) . . .
36.4(34) . . .
35.2(34) . . .
29.3(28) . . .
30.3(29) . . .
32.5(30) . . .
34.9(32) . . .
45(4) . . .
42.4(35) . . .
35.5(32) . . .
35.5(32) . . .
33.5(34) . . .
31.6(33) . . .
31.9(30) . . .
31.1(28) . . .
26.4(28) . . .
30.7(32) . . .
38.3(34) . . .
37.5(33) . . .
39.0(32) . . .
31.0(30) . . .
37.3(32) . . .
35.8(31) . . .
33.1(31) . . .
33.4(30) . . .
36.2(33) . . .
31.2(31) . . .
30.1(28) . . .
37.3(34) . . .
31.0(29) . . .
30.2(29) . . .
36.5(33) . . .
45(4) . . .
29.9(28) . . .
29.9(28) . . .
38.6(34) . . .
36(4) . . .
31.8(31) . . .
38.6(33) . . .
41.6(34) . . .
32.8(30) . . .
33.2(31) . . .
32.5(32) . . .
37.7(33) . . .
37.5(32) . . .
30.4(31) . . .
39(4) . . .
34.4(31) . . .
36.8(31) . . .
34.1(32) . . .
36.4(33) . . .
30.7(31) . . .
35.1(31) . . .
42.3(35) . . .
26.5(26) . . .
33.6(31) . . .
31.7(31) . . .
29.2(29) . . .
24.4(26) . . .
30.7(29) . . .
36.4(33) . . .
36.5(32) . . .
27.4(27) . . .
34.7(31) . . .
40.8(33) . . .
31.7(31) . . .
28.1(30) . . .
39.9(35) . . .
37.1(32) . . .
36.3(31) . . .
29.5(30) . . .
31.3(30) . . .
34.7(31) . . .
26.7(27) . . .
37.0(32) . . .
38.5(33) . . .
40(4) . . .
42(4) . . .
38.4(33) . . .
33.3(30) . . .
31.8(32) . . .
33.3(31) . . .
34.5(32) . . .
31.9(29) . . .
33.7(33) . . .
33.5(30) . . .
43(4) . . .
34.7(30) . . .
36.2(31) . . .
30.0(29) . . .
33.5(32) . . .
29.6(28) . . .
30.5(29) . . .
26.1(28) . . .
32.8(32) . . .
28.7(30) . . .
36(4) . . .
35.3(33) . . .
39.8(33) . . .
34.8(32) . . .
32.3(32) . . .
35.2(31) . . .
41.9(33) . . .
38.4(32) . . .
32.5(31) . . .
31.8(32) . . .
27.6(29) . . .
29.0(28) . . .
47(4) . . .
40.4(34) . . .
36.4(33) . . .
25.7(26) . . .
26.7(29) . . .
43.1(34) . . .
37.7(33) . . .
32.5(31) . . .
34.9(33) . . .
32.7(30) . . .
31.4(29) . . .
31.5(30) . . .
32.5(32) . . .
32.7(30) . . .
32.1(30) . . .
32.9(30) . . .
42(4) . . .
37(4) . . .
38.6(33) . . .
35.2(31) . . .
31.8(31) . . .
43(4) . . .
34.6(32) . . .
30.9(30) . . .
32.7(30) . . .
35.4(33) . . .
34.9(34) . . .
32.8(31) . . .
40.0(33) . . .
29.6(28) . . .
30.3(30) . . .
37.7(35) . . .
23.5(26) . . .
39.9(34) . . .
35.0(31) . . .
37.3(33) . . .
43(4) . . .
33.8(31) . . .
32.8(29) . . .
41.0(33) . . .
37.5(32) . . .
41.7(34) . . .
35.0(31) . . .
36.8(32) . . .
34.5(30) . . .
29.3(31) . . .
28.5(32) . . .
35.8(32) . . .
37.6(32) . . .
29.4(30) . . .
40(4) . . .
28.1(31) . . .
30.2(30) . . .
37.9(32) . . .
28.6(28) . . .
26.9(27) . . .
29.2(30) . . .
33.8(32) . . .
38.6(32) . . .
34.1(30) . . .
41(4) . . .
30.9(28) . . .
35.4(32) . . .
33.1(30) . . .
39.6(32) . . .
33.8(32) . . .
31.9(32) . . .
37.4(33) . . .
41.9(34) . . .
35.6(31) . . .
42(4) . . .
32.0(31) . . .
26.0(26) . . .
31.8(29) . . .
30.4(30) . . .
25.3(28) . . .
28.1(27) . . .
36.5(32) . . .
28.5(29) . . .
28.1(28) . . .
32.4(32) . . .
31.0(30) . . .
36.7(33) . . .
31.8(29) . . .
42(4) . . .
30.6(30) . . .
32.7(32) . . .
38.1(32) . . .
37.0(33) . . .
31.5(30) . . .
38.1(35) . . .
32.5(31) . . .
29.2(29) . . .
31.2(29) . . .
32.8(31) . . .
36.5(34) . . .
39.8(34) . . .
30.9(29) . . .
34.4(31) . . .
26.6(29) . . .
31.3(32) . . .
40(4) . . .
26.2(27) . . .
22.1(25) . . .
27.5(32) . . .
31.5(31) . . .
27.6(28) . . .
31.3(30) . . .
39.1(32) . . .
36.1(32) . . .
35.4(33) . . .
35.4(34) . . .
29.9(28) . . .
33.6(30) . . .
39.4(34) . . .
32.9(31) . . .
34.6(34) . . .
38.7(33) . . .
29.3(29) . . .
32.7(30) . . .
37.6(33) . . .
28.2(27) . . .
35.5(31) . . .
34.8(30) . . .
26.0(27) . . .
27.9(29) . . .
39(4) . . .
36.8(31) . . .
31.8(31) . . .
34.4(34) . . .
33.2(30) . . .
43(4) . . .
43.1(35) . . .
29.4(31) . . .
29.6(31) . . .
32.6(31) . . .
26.4(26) . . .
33.3(30) . . .
34.6(31) . . .
34.3(33) . . .
36.9(32) . . .
33.7(30) . . .
30.4(28) . . .
41.0(34) . . .
31.1(31) . . .
42(4) . . .
39.0(32) . . .
33.9(31) . . .
39.3(35) . . .
36(4) . . .
28.4(29) . . .
38.2(32) . . .
31.2(29) . . .
31.0(30) . . .
39(4) . . .
30.3(29) . . .
35.4(30) . . .
36.9(32) . . .
30.7(28) . . .
33.6(32) . . .
30.8(29) . . .
35.0(31) . . .
32.6(31) . . .
36.4(32) . . .
32.3(31) . . .
36.1(32) . . .
32.1(29) . . .
29.1(28) . . .
35.2(32) . . .
36.1(33) . . .
34.9(33) . . .
31.6(29) . . .
31.7(30) . . .
24.9(28) . . .
27.5(31) . . .
22.9(27) . . .
26.2(28) . . .
32.6(30) . . .
34.8(30) . . .
30.7(28) . . .
37.5(32) . . .
41.2(34) . . .
39.5(35) . . .
36.0(32) . . .
31.5(30) . . .
29.5(28) . . .
34.4(30) . . .
33.0(30) . . .
36.8(34) . . .
30.1(29) . . .
41(4) . . .
20.5(23) . . .
35.0(33) . . .
29.8(28) . . .
26.7(27) . . .
31.7(31) . . .
27.6(28) . . .
31.0(30) . . .
38(4) . . .
37.5(34) . . .
36.9(32) . . .
30.2(30) . . .
37.5(33) . . .
36.0(34) . . .
31.8(29) . . .
37.7(32) . . .
28.3(28) . . .
29.1(30) . . .
30.1(32) . . .
34.0(35) . . .
30.5(29) . . .
30.5(29) . . .
38.8(33) . . .
33.7(31) . . .
37.0(33) . . .
44.0(35) . . .
31.1(29) . . .
31.4(29) . . .
38.8(33) . . .
32.8(30) . . .
38.6(34) . . .
33.7(31) . . .
36.3(33) . . .
36.5(34) . . .
30.5(29) . . .
36.4(32) . . .
27.4(28) . . .
31.8(32) . . .
38.4(33) . . .
36.6(32) . . .
37.0(32) . . .
43(4) . . .
33.2(31) . . .
32.3(29) . . .
37.6(33) . . .
34.7(31) . . .
36.5(34) . . .
33.6(32) . . .
40.7(34) . . .
34.0(30) . . .
31.5(29) . . .
28.8(28) . . .
31.3(32) . . .
44(4) . . .
31.5(31) . . .
34.1(30) . . .
32.7(31) . . .
29.8(29) . . .
40(4) . . .
32.1(30) . . .
33.4(30) . . .
40(4) . . .
33.1(33) . . .
30.6(32) . . .
36.0(31) . . .
33.5(31) . . .
30.9(29) . . .
27.3(30) . . .
33.6(33) . . .
31.8(29) . . .
25.4(27) . . .
36.2(32) . . .
38.2(34) . . .
33.2(30) . . .
41.1(33) . . .
43.6(34) . . .
37.3(33) . . .
40(4) . . .
37.8(34) . . .
35.0(31) . . .
35.2(32) . . .
28.0(28) . . .
33.5(32) . . .
31.2(29) . . .
37.9(33) . . .
36.2(33) . . .
30.5(29) . . .
45(4) . . .
33.7(30) . . .
35.7(31) . . .
32.4(30) . . .
34.5(31) . . .
40.4(34) . . .
34.6(31) . . .
29.1(29) . . .
34.1(31) . . .
46(4) . . .
33.5(33) . . .
33.1(30) . . .
35.3(31) . . .
34.7(31) . . .
41.1(35) . . .
35.9(31) . . .
33.4(30) . . .
34.0(30) . . .
29.0(29) . . .
42(4) . . .
33.5(32) . . .
37.0(31) . . .
31.0(29) . . .
36.6(33) . . .
35.4(32) . . .
42(4) . . .
30.6(29) . . .
37.5(31) . . .
36.5(33) . . .
30.8(31) . . .
31.6(30) . . .
31.6(29) . . .
35.5(32) . . .
32.8(30) . . .
40.3(34) . . .
45(4) . . .
36.2(32) . . .
30.3(29) . . .
28.4(28) . . .
33.7(31) . . .
36.5(32) . . .
21.1(24) . . .
30.0(29) . . .
36.4(31) . . .
43(4) . . .
25.6(27) . . .
37.6(32) . . .
28.3(29) . . .
28.2(28) . . .
35.1(32) . . .
30.0(29) . . .
32.8(30) . . .
23.2(25) . . .
36.3(33) . . .
35.8(34) . . .
29.8(29) . . .
33.5(30) . . .
30.2(30) . . .
33.5(31) . . .
30.2(29) . . .
30.4(28) . . .
32.7(31) . . .
30.1(31) . . .
31.0(31) . . .
32.2(29) . . .
36.4(31) . . .
34.4(31) . . .
33.6(32) . . .
33.4(33) . . .
30.5(30) . . .
36.2(31) . . .
34.3(31) . . .
36.8(33) . . .
35.3(34) . . .
36.8(33) . . .
30.5(29) . . .
28.2(27) . . .
40.1(34) . . .
48(4) . . .
31.4(30) . . .
37.8(33) . . .
40.9(33) . . .
30.2(29) . . .
35.1(34) . . .
33.6(31) . . .
25.7(27) . . .
35.9(33) . . .
39.5(34) . . .
36.4(33) . . .
38.1(34) . . .
32.5(30) . . .
33.3(34) . . .
29.3(28) . . .
38.8(34) . . .
36.0(32) . . .
28.7(28) . . .
30.4(31) . . .
31.8(31) . . .
34.1(32) . . .
35.1(31) . . .
34.2(31) . . .
38.0(33) . . .
36.7(33) . . .
45(4) . . .
27.2(27) . . .
34.1(30) . . .
31.2(29) . . .
41(4) . . .
27.9(28) . . .
28.2(29) . . .
38.5(32) . . .
37.7(34) . . .
33.9(33) . . .
36.3(32) . . .
43.3(34) . . .
36.4(31) . . .
34.6(30) . . .
41(4) . . .
37.8(33) . . .
34.4(30) . . .
35.4(31) . . .
35.6(33) . . .
36.6(33) . . .
39.4(33) . . .
39.7(33) . . .
33.3(30) . . .
35.5(32) . . .
31.6(33) . . .
24.6(28) . . .
28.2(28) . . .
31.4(29) . . .
35.5(32) . . .
29.8(29) . . .
33.5(31) . . .
33.5(31) . . .
40.1(32) . . .
37.3(34) . . .
31.5(30) . . .
41.7(35) . . .
36.7(31) . . .
35.1(31) . . .
34.0(31) . . .
29.8(30) . . .
35.3(32) . . .
28.8(28) . . .
26.8(29) . . .
31.9(31) . . .
36.1(33) . . .
44(4) . . .
42.0(34) . . .
25.4(27) . . .
24.9(29) . . .
31.8(31) . . .
33.9(31) . . .
36.5(32) . . .
35.5(31) . . .
40(4) . . .
28.7(28) . . .
31.7(29) . . .
40.8(33) . . .
39.1(34) . . .
38(4) . . .
41(4) . . .
34.2(31) . . .
27.9(28) . . .
25.8(27) . . .
32.8(32) . . .
41(4) . . .
24.7(26) . . .
39.6(33) . . .
39.3(33) . . .
41(4) . . .
31.1(32) . . .
39.5(33) . . .
36.0(31) . . .
30.2(29) . . .
33.6(33) . . .
26.7(28) . . .
34.4(30) . . .
31.7(30) . . .
27.1(27) . . .
26.2(27) . . .
33.2(31) . . .
33.3(30) . . .
36.7(32) . . .
33.6(30) . . .
38.2(34) . . .
31.3(30) . . .
29.5(28) . . .
30.7(29) . . .
29.8(28) . . .
34.7(32) . . .
43(4) . . .
32.6(30) . . .
36.0(31) . . .
41.1(35) . . .
36.0(33) . . .
39.0(33) . . .
38.8(33) . . .
40.5(34) . . .
27.6(28) . . .
27.3(29) . . .
25.8(27) . . .
26.9(27) . . .
31.0(29) . . .
42(4) . . .
39(4) . . .
21.8(24) . . .
35.9(32) . . .
26.1(28) . . .
24.1(26) . . .
36.4(32) . . .
36.7(32) . . .
34.4(32) . . .
38.9(33) . . .
33.9(33) . . .
31.4(31) . . .
25.6(26) . . .
28.1(28) . . .
31.8(31) . . .
34.0(33) . . .
36.3(34) . . .
29.9(28) . . .
32.7(30) . . .
34.8(32) . . .
29.8(30) . . .
37.1(33) . . .
31.7(29) . . .
28.5(28) . . .
33.0(30) . . .
34.9(32) . . .
32.8(30) . . .
33.1(30) . . .
32.7(31) . . .
32.5(32) . . .
37(4) . . .
34.2(31) . . .
32.7(30) . . .
31.3(29) . . .
29.7(30) . . .
34.2(33) . . .
34.8(32) . . .
26.5(27) . . .
37.8(34) . . .
33.4(31) . . .
35.8(33) . . .
28.4(28) . . .
35.5(31) . . .
34.3(31) . . .
36.3(32) . . .
36.8(32) . . .
36.1(33) . . .
32.0(30) . . .
32.8(30) . . .
35(4) . . .
28.5(31) . . .
28.7(28) . . .
30.0(28) . . .
37.0(34) . . .
24.5(26) . . .
24.0(25) . . .
32.9(30) . . .
34.9(32) . . .
40(4) . . .
28.0(27) . . .
28.6(29) . . .
30.3(29) . . .
28.6(27) . . .
33.3(30) . . .
37.9(35) . . .
36.2(32) . . .
34.8(33) . . .
39.5(32) . . .
33.7(30) . . .
36.3(34) . . .
37.7(35) . . .
31.1(29) . . .
39.8(34) . . .
33.5(31) . . .
33.0(31) . . .
36.0(34) . . .
31.6(29) . . .
37.2(33) . . .
35.8(31) . . .
27.5(29) . . .
27.5(29) . . .
29.5(29) . . .
31.0(29) . . .
33.1(32) . . .
29.4(32) . . .
37.5(35) . . .
32.3(31) . . .
31.2(32) . . .
36.5(33) . . .
39(4) . . .
29.4(29) . . .
33.5(30) . . .
36.6(31) . . .
35.8(33) . . .
43(4) . . .
36.8(32) . . .
29.1(28) . . .
37.0(33) . . .
33.5(30) . . .
30.7(30) . . .
35.8(33) . . .
39.7(33) . . .
29.6(30) . . .
39(4) . . .
40.9(35) . . .
28.5(30) . . .
33.2(30) . . .
36.0(31) . . .
38.8(34) . . .
31.8(30) . . .
30.4(29) . . .
26.1(27) . . .
32.9(30) . . .
41(4) . . .
36.6(34) . . .
33.2(30) . . .
32.2(30) . . .
34.4(31) . . .
41(4) . . .
30.1(31) . . .
31.9(29) . . .
26.1(27) . . .
33.4(31) . . .
27.6(28) . . .
31.4(31) . . .
37.0(32) . . .
45(4) . . .
40.5(35) . . .
33.0(32) . . .
37.4(32) . . .
39.9(33) . . .
38.5(32) . . .
32.2(30) . . .
36.7(34) . . .
41(4) . . .
32.7(29) . . .
29.4(30) . . .
26.9(28) . . .
26.8(28) . . .
34.1(31) . . .
28.6(28) . . .
28.3(30) . . .
22.1(26) . . .
38.6(35) . . .
32.9(30) . . .
32.3(30) . . .
44(4) . . .
33.0(32) . . .
33.3(32) . . .
34.8(31) . . .
32.8(30) . . .
42(4) . . .
27.9(29) . . .
32.8(30) . . .
38.2(32) . . .
34.6(30) . . .
39.5(34) . . .
35.2(33) . . .
28.6(28) . . .
29.5(28) . . .
34.9(31) . . .
34.8(32) . . .
36.6(35) . . .
29.0(29) . . .
26.6(27) . . .
37.5(32) . . .
42(4) . . .
34.9(33) . . .
36.2(33) . . .
34.5(30) . . .
41.1(33) . . .
35.6(31) . . .
34.1(33) . . .
35.5(32) . . .
25.5(26) . . .
34.1(30) . . .
35.0(33) . . .
32.2(30) . . .
32.4(31) . . .
38.9(32) . . .
27.3(27) . . .
38.1(33) . . .
36.5(34) . . .
34.3(31) . . .
31.4(29) . . .
34.0(31) . . .
30.5(30) . . .
26.4(28) . . .
25.7(26) . . .
36.0(31) . . .
35.5(31) . . .
30.1(31) . . .
35(4) . . .
39.7(34) . . .
33.8(31) . . .
35.5(32) . . .
35.0(33) . . .
32.8(32) . . .
27.7(28) . . .
43.0(34) . . .
39.8(34) . . .
31.1(28) . . .
30.8(30) . . .
33.6(31) . . .
42.5(34) . . .
32.5(32) . . .
38(4) . . .
34.0(31) . . .
32.8(30) . . .
29.3(29) . . .
35.1(31) . . .
32.9(31) . . .
42(4) . . .
34.6(31) . . .
34.4(30) . . .
41.4(34) . . .
38.2(34) . . .
35.1(32) . . .
34.5(30) . . .
38.6(34) . . .
33.5(31) . . .
39(4) . . .
35.3(33) . . .
31.3(30) . . .
29.5(28) . . .
33.4(30) . . .
33.3(29) . . .
33.7(30) . . .
34.7(30) . . .
31.4(29) . . .
24.6(25) . . .
34.3(32) . . .
35.0(31) . . .
33.2(30) . . .
30.1(29) . . .
27.6(28) . . .
30.5(30) . . .
43(4) . . .
39.2(32) . . .
36.2(32) . . .
28.8(29) . . .
27.3(28) . . .
36.0(32) . . .
33.5(31) . . .
40.7(34) . . .
36.4(31) . . .
31.5(31) . . .
27.1(29) . . .
36.2(31) . . .
30.2(29) . . .
36.7(34) . . .
30.8(30) . . .
37.8(32) . . .
38.2(32) . . .
26.0(26) . . .
36.5(34) . . .
41.4(35) . . .
30.6(29) . . .
33.6(30) . . .
33.0(30) . . .
39(4) . . .
36.1(33) . . .
34.9(31) . . .
37.9(32) . . .
36.3(33) . . .
32.2(30) . . .
35.2(33) . . .
34.6(31) . . .
35.9(32) . . .
32.1(29) . . .
36.0(34) . . .
33.4(32) . . .
36.5(32) . . .
38.1(32) . . .
33.5(30) . . .
38.2(35) . . .
32.0(30) . . .
33.3(30) . . .
30.9(29) . . .
40.1(34) . . .
31.6(33) . . .
26.4(28) . . .
29.7(29) . . .
25.4(28) . . .
33.1(32) . . .
27.3(27) . . .
31.9(30) . . .
31.3(29) . . .
35.9(32) . . .
38.5(34) . . .
30.0(30) . . .
26.5(27) . . .
26.3(27) . . .
35.0(33) . . .
28.7(28) . . .
32.4(30) . . .
33.5(30) . . .
29.5(28) . . .
30.2(28) . . .
31.5(30) . . .
30.1(30) . . .
32.2(30) . . .
32.8(30) . . .
32.4(30) . . .
32.6(32) . . .
32.1(30) . . .
33.5(30) . . .
39.8(34) . . .
34.2(31) . . .
34.1(32) . . .
35.9(33) . . .
33.7(30) . . .
31.4(29) . . .
37.6(33) . . .
34.6(32) . . .
43(4) . . .
39.6(33) . . .
35.2(31) . . .
29.8(29) . . .
32.2(30) . . .
34.3(32) . . .
30.0(29) . . .
31.6(29) . . .
32.6(30) . . .
33.5(33) . . .
31.3(30) . . .
45(4) . . .
42.8(34) . . .
29.6(29) . . .
37(4) . . .
35.2(31) . . .
34.4(30) . . .
37.3(33) . . .
39.9(35) . . .
38(4) . . .
34.6(31) . . .
29.3(28) . . .
34.8(31) . . .
31.3(30) . . .
30.9(31) . . .
25.5(27) . . .
25.7(26) . . .
28.3(28) . . .
35.2(35) . . .
36.7(33) . . .
30.1(29) . . .
34.6(31) . . .
29.5(28) . . .
33.1(31) . . .
36.0(34) . . .
40.0(34) . . .
29.5(28) . . .
26.5(27) . . .
34.3(30) . . .
39.8(34) . . .
37.2(32) . . .
27.8(28) . . .
38.1(33) . . .
30.8(29) . . .
loop_
_refln_index_h
_refln_index_k
_refln_index_l
_refln_observed_status
_refln_F_squared_meas
_refln_F_squared_calc
_refln_phase_calc
_refln_d_spacing
_gsas_i100_meas
0 2 0 o 1237.415 1394.914 180.00 8.36380 5.46
0 0 2 o 55.624 20.989 180.00 6.41681 0.14
1 0 1 o 13817.381 14144.057 0.00 5.88955 60.54
0 2 2 o 30529.863 30895.766 0.00 5.09108 100.00
0 3 1 o 1250.718 1323.342 180.00 5.11404 4.13
1 2 1 o 1776.299 1753.949 0.00 4.81545 10.41
1 1 2 o 4287.690 4199.287 0.00 4.44475 21.42
0 1 3 o 274.000 25.306 0.00 4.14449 0.60
0 4 0 o 4040.054 901.034 0.00 4.18190 4.47
1 0 3 o 674.993 211.543 180.00 3.59438 1.10
1 3 2 o 3665.317 3604.168 0.00 3.55315 11.72
0 0 4 o 473.251 159.117 180.00 3.20840 0.31
0 3 3 o 11869.818 11452.256 0.00 3.39405 17.32
0 4 2 o 7.109 1.911 0.00 3.50355 0.01
1 4 1 o 888.074 883.685 180.00 3.40976 2.62
1 2 3 o 1154.466 1225.325 0.00 3.30234 3.19
0 5 1 o 114.635 64.538 180.00 3.23733 0.15
2 0 0 o 2211.887 2089.094 180.00 3.31440 1.54
0 2 4 o 1868.940 1917.200 0.00 2.99556 2.13
2 1 1 o 986.165 986.079 180.00 3.15163 2.48
2 2 0 o 182.148 209.974 0.00 3.08128 0.22
1 1 4 o 105.891 32.761 0.00 2.84582 0.22
2 0 2 o 420.648 428.192 0.00 2.94478 0.46
0 6 0 o 1343.906 1446.463 0.00 2.78793 0.66
2 3 1 o 832.208 898.710 0.00 2.78135 1.64
2 2 2 o 2189.222 2246.893 180.00 2.77764 4.29
0 1 5 o 1796.840 1905.464 180.00 2.53703 1.47
1 4 3 o 4987.890 5115.634 0.00 2.72587 9.42
1 5 2 o 3151.207 2833.318 180.00 2.70776 5.87
1 3 4 o 45.710 95.147 0.00 2.56438 0.08
2 1 3 o 1346.188 1359.035 0.00 2.58847 2.29
2 4 0 o 1674.233 1753.111 180.00 2.59751 1.44
0 4 4 o 9560.843 11478.842 0.00 2.54554 7.88
0 5 3 o 508.738 573.379 180.00 2.63533 0.45
0 6 2 o 68.368 144.186 0.00 2.55702 0.06
1 0 5 o 630.085 322.099 180.00 2.39355 0.46
1 6 1 o 775.567 741.951 0.00 2.51987 1.25
0 3 5 o 59.350 210.642 0.00 2.33155 0.04
1 2 5 o 407.802 461.128 0.00 2.30118 0.55
0 7 1 o 84.266 304.237 0.00 2.34928 0.06
2 4 2 o 117.555 56.057 180.00 2.40773 0.17
2 0 4 o 2055.518 2252.305 180.00 2.30525 1.39
2 3 3 o 44.111 131.886 180.00 2.37129 0.06
2 5 1 o 1.138 1.787 180.00 2.31591 0.00
0 0 6 o 3179.106 3651.405 0.00 2.13894 0.93
2 2 4 o 39.139 37.855 0.00 2.22238 0.05
0 2 6 o 147.513 151.793 180.00 2.07224 0.08
1 5 4 o 5173.109 5438.750 0.00 2.18609 6.31
1 6 3 o 4776.936 4660.220 180.00 2.20295 5.91
1 1 6 o 815.903 767.271 180.00 2.02068 0.85
0 8 0 o 29.060 21.593 180.00 2.09095 0.01
2 6 0 o 1212.755 1326.441 180.00 2.13352 0.70
1 7 2 o 2634.653 2529.971 0.00 2.12161 3.03
1 4 5 o 9.896 10.413 180.00 2.07735 0.01
3 0 1 o 3035.038 2699.911 180.00 2.17756 1.84
2 1 5 o 373.449 328.418 180.00 2.01458 0.39
0 6 4 o 9408.585 7535.683 180.00 2.10443 5.32
0 5 5 o 19796.684 20647.199 0.00 2.03643 10.49
0 7 3 o 6821.792 5773.702 0.00 2.08623 3.79
3 2 1 o 50.939 53.551 0.00 2.10731 0.06
3 1 2 o 2851.931 2967.284 180.00 2.07310 3.13
2 4 4 o 1301.073 1304.709 180.00 2.01883 1.36
2 5 3 o 371.229 328.168 0.00 2.06275 0.40
2 6 2 o 514.038 473.755 180.00 2.02454 0.54
0 8 2 o 3028.375 2448.509 180.00 1.98807 1.53
1 3 6 o 651.430 605.387 0.00 1.91215 0.61
1 8 1 o 818.127 766.118 180.00 1.97045 0.81
0 4 6 o 1882.040 1620.153 180.00 1.90430 0.87
0 1 7 o 327.281 554.821 0.00 1.82246 0.14
3 0 3 o 2570.319 2727.423 0.00 1.96318 1.27
2 3 5 o 1144.049 939.210 0.00 1.90698 1.07
2 7 1 o 276.201 295.434 180.00 1.91664 0.26
3 3 2 o 1199.134 720.443 0.00 1.95639 1.17
3 2 3 o 4933.169 4229.320 180.00 1.91124 4.61
3 4 1 o 939.307 472.695 180.00 1.93141 0.90
1 0 7 o 1234.304 1096.921 0.00 1.76703 0.49
0 9 1 o 2617.442 3021.947 0.00 1.83943 1.14
2 0 6 o 2.611 4.607 180.00 1.79719 0.00
0 3 7 o 1400.416 1366.972 0.00 1.74164 0.55
1 2 7 o 697.033 659.737 180.00 1.72887 0.54
2 2 6 o 1638.991 1392.870 180.00 1.75708 1.30
3 1 4 o 3147.300 3120.181 0.00 1.80912 2.64
1 6 5 o 301.464 382.418 0.00 1.81607 0.26
1 7 4 o 414.467 447.129 180.00 1.84109 0.36
1 8 3 o 137.124 127.988 0.00 1.80738 0.11
1 5 6 o 1237.784 1334.172 0.00 1.73898 0.96
2 8 0 o 57.245 47.079 0.00 1.76844 0.02
2 5 5 o 2330.652 2518.535 180.00 1.73509 1.80
3 4 3 o 320.137 289.767 180.00 1.77711 0.26
2 6 4 o 1454.169 1305.745 0.00 1.77658 1.18
2 7 3 o 1610.633 1476.258 180.00 1.76558 1.29
3 5 2 o 485.394 418.781 0.00 1.77206 0.39
1 9 2 o 7.798 6.950 0.00 1.72382 0.01
0 7 5 o 1903.568 1425.048 180.00 1.74899 0.75
3 3 4 o 247.865 246.007 180.00 1.72998 0.19
0 6 6 o 5396.267 6202.899 0.00 1.69703 2.00
0 0 8 o 56.470 87.696 0.00 1.60420 0.01
0 8 4 o 1134.789 887.710 0.00 1.75177 0.45
0 10 0 o 10291.130 10805.568 180.00 1.67276 1.85
2 8 2 o 6.700 5.251 0.00 1.70488 0.01
0 9 3 o 175.678 142.762 180.00 1.70468 0.07
1 4 7 o 149.250 270.166 180.00 1.62769 0.10
3 6 1 o 2055.226 1503.771 180.00 1.71612 1.56
3 0 5 o 2602.031 2600.554 180.00 1.67457 0.94
2 4 6 o 1856.030 1835.378 0.00 1.65117 1.30
2 1 7 o 166.579 328.195 0.00 1.59696 0.11
0 2 8 o 563.568 546.601 180.00 1.57548 0.18
3 2 5 o 29.471 49.571 0.00 1.64198 0.02
0 5 7 o 2.731 4.367 0.00 1.60778 0.00
1 1 8 o 822.221 778.045 0.00 1.55246 0.51
1 10 1 o 323.035 539.165 180.00 1.60912 0.22
0 10 2 o 257.289 437.924 0.00 1.61867 0.09
2 9 1 o 28.167 44.334 180.00 1.60835 0.02
4 0 0 o 1692.360 1879.538 0.00 1.65720 0.30
2 3 7 o 1960.220 1978.483 180.00 1.54174 1.20
1 3 8 o 140.917 148.975 0.00 1.50159 0.08
4 1 1 o 1072.126 779.866 0.00 1.63568 0.74
4 2 0 o 334.931 221.958 180.00 1.62560 0.11
0 4 8 o 0.008 0.008 0.00 1.49778 0.00
3 5 4 o 271.527 486.510 180.00 1.59860 0.18
3 6 3 o 473.071 689.772 0.00 1.60515 0.31
4 0 2 o 109.485 134.990 180.00 1.60455 0.04
3 1 6 o 8.235 8.335 180.00 1.53039 0.00
3 4 5 o 44.543 39.733 180.00 1.55457 0.03
3 7 2 o 1993.067 1967.146 180.00 1.57286 1.27
1 7 6 o 304.405 303.141 0.00 1.54959 0.19
4 3 1 o 754.460 752.394 180.00 1.57649 0.48
4 2 2 o 1364.268 1502.950 0.00 1.57582 0.87
1 8 5 o 451.736 486.665 180.00 1.57471 0.29
0 11 1 o 4092.716 5042.109 180.00 1.51013 1.21
1 9 4 o 252.137 241.873 0.00 1.56292 0.16
1 6 7 o 779.186 748.113 0.00 1.49250 0.45
2 0 8 o 1291.570 1045.756 180.00 1.44396 0.35
2 7 5 o 1961.303 1974.110 0.00 1.54684 1.21
2 6 6 o 2399.963 2935.422 180.00 1.51054 1.42
0 1 9 o 2284.437 2165.303 0.00 1.42080 0.60
2 10 0 o 245.354 240.428 0.00 1.49335 0.07
1 10 3 o 15.745 21.450 180.00 1.51657 0.01
2 8 4 o 2002.635 2207.109 180.00 1.54876 1.24
4 4 0 o 1251.607 1556.041 0.00 1.54064 0.38
4 1 3 o 486.029 513.523 180.00 1.53875 0.30
3 8 1 o 95.909 117.381 0.00 1.50821 0.06
2 9 3 o 180.160 232.936 0.00 1.51593 0.11
3 3 6 o 3.103 2.778 180.00 1.48158 0.00
1 0 9 o 348.288 448.289 180.00 1.39407 0.09
2 2 8 o 758.947 686.221 0.00 1.42291 0.40
0 8 6 o 1358.022 1346.517 180.00 1.49520 0.39
2 5 7 o 2501.158 2041.466 0.00 1.44657 1.36
0 7 7 o 3715.486 4455.584 0.00 1.45459 1.02
1 5 8 o 88.460 103.928 180.00 1.41325 0.05
0 3 9 o 5.284 31.359 0.00 1.38150 0.00
0 10 4 o 221.599 189.549 180.00 1.48327 0.06
1 11 2 o 248.859 202.211 180.00 1.44416 0.13
1 2 9 o 21.756 34.496 180.00 1.37510 0.01
2 10 2 o 203.823 248.977 180.00 1.45448 0.11
4 4 2 o 1709.205 1294.699 180.00 1.49807 0.99
4 3 3 o 2345.311 1913.021 0.00 1.48917 1.35
4 0 4 o 746.339 1088.659 0.00 1.47239 0.21
0 9 5 o 581.836 840.833 0.00 1.50539 0.17
3 0 7 o 987.237 1252.223 180.00 1.41093 0.26
4 5 1 o 2282.954 2414.156 0.00 1.47515 1.29
0 11 3 o 498.049 401.068 0.00 1.43285 0.13
4 2 4 o 909.118 736.704 180.00 1.45009 0.50
3 2 7 o 26.046 34.591 0.00 1.39128 0.01
0 6 8 o 3.188 4.175 180.00 1.39045 0.00
0 12 0 o 1952.592 2666.444 0.00 1.39397 0.25
2 4 8 o 2168.942 1873.166 180.00 1.36489 1.05
3 6 5 o 25.498 22.021 180.00 1.43552 0.01
3 7 4 o 83.686 69.048 0.00 1.44778 0.05
3 8 3 o 564.245 636.890 180.00 1.43122 0.30
4 6 0 o 4389.806 3803.465 180.00 1.42453 1.16
3 5 6 o 280.645 330.273 180.00 1.39653 0.14
2 11 1 o 321.120 444.969 0.00 1.37421 0.16
1 4 9 o 35.724 42.126 0.00 1.32252 0.02
3 9 2 o 7.070 8.218 180.00 1.38864 0.00
1 12 1 o 20.661 15.161 180.00 1.35649 0.01
2 1 9 o 854.109 1272.256 180.00 1.30588 0.38
4 1 5 o 1007.728 1270.298 0.00 1.38743 0.50
0 12 2 o 4804.438 4140.042 180.00 1.36220 1.16
0 5 9 o 25.228 30.213 0.00 1.31177 0.01
0 0 10 o 4877.614 5021.939 180.00 1.28336 0.53
4 5 3 o 385.516 416.429 180.00 1.40288 0.20
4 4 4 o 619.926 688.385 0.00 1.38882 0.31
4 6 2 o 947.759 1141.788 0.00 1.39068 0.48
3 4 7 o 89.255 88.270 0.00 1.33689 0.04
0 2 10 o 342.756 347.741 0.00 1.26851 0.07
1 8 7 o 80.554 57.453 0.00 1.34964 0.04
2 8 6 o 2701.470 2389.969 0.00 1.36293 1.31
4 3 5 o 167.241 139.667 180.00 1.35076 0.08
1 9 6 o 219.406 199.110 180.00 1.37255 0.11
1 1 10 o 81.110 59.159 0.00 1.25641 0.03
3 1 8 o 1063.380 1366.200 180.00 1.29426 0.47
1 11 4 o 30.468 15.973 180.00 1.34555 0.01
1 10 5 o 135.880 120.048 0.00 1.37111 0.07
2 9 5 o 3033.561 2921.348 180.00 1.37063 1.48
2 7 7 o 2616.001 2846.767 180.00 1.33197 1.21
4 7 1 o 3210.244 2415.054 180.00 1.35418 1.53
2 3 9 o 677.270 698.714 0.00 1.27516 0.29
2 10 4 o 1098.816 832.635 0.00 1.35388 0.52
3 10 1 o 81.273 159.211 0.00 1.32654 0.04
1 7 8 o 453.609 784.716 0.00 1.30582 0.20
4 0 6 o 847.148 1304.297 180.00 1.31002 0.19
2 11 3 o 1086.839 818.033 180.00 1.31521 0.49
2 6 8 o 1801.542 1771.402 0.00 1.28219 0.77
0 13 1 o 2723.958 2665.954 0.00 1.28032 0.58
1 12 3 o 111.463 126.611 180.00 1.29965 0.05
1 3 10 o 0.450 0.329 180.00 1.22898 0.00
3 3 8 o 19.025 14.205 180.00 1.26434 0.01
2 12 0 o 547.120 563.326 180.00 1.28495 0.12
0 4 10 o 4.910 3.909 180.00 1.22689 0.00
4 2 6 o 345.258 438.202 0.00 1.29424 0.15
0 9 7 o 8.950 19.292 180.00 1.30523 0.00
0 8 8 o 701.915 815.440 0.00 1.27277 0.15
1 6 9 o 267.111 159.553 180.00 1.24687 0.11
0 11 5 o 190.460 297.737 0.00 1.30831 0.04
4 8 0 o 1462.922 1697.355 0.00 1.29876 0.32
5 0 1 o 2030.279 1816.630 0.00 1.31874 0.46
0 10 6 o 23.901 15.211 180.00 1.31766 0.01
3 7 6 o 55.447 75.860 0.00 1.29260 0.02
4 6 4 o 108.958 139.630 180.00 1.30197 0.05
3 8 5 o 15.445 37.531 180.00 1.30707 0.01
3 9 4 o 79.620 78.773 180.00 1.30030 0.04
0 12 4 o 167.296 159.908 180.00 1.27851 0.04
4 5 5 o 289.081 285.612 0.00 1.28537 0.12
4 7 3 o 419.916 572.597 0.00 1.29762 0.18
2 5 9 o 1542.893 1376.041 180.00 1.21972 0.60
2 12 2 o 1211.285 1060.314 0.00 1.25993 0.50
3 6 7 o 774.729 712.973 180.00 1.25890 0.32
5 2 1 o 330.687 443.428 0.00 1.30265 0.15
3 10 3 o 196.722 224.839 180.00 1.27324 0.08
0 7 9 o 482.433 449.833 0.00 1.22452 0.09
5 1 2 o 335.324 381.724 0.00 1.29445 0.15
4 8 2 o 1396.801 1613.483 180.00 1.27295 0.59
1 13 2 o 59.758 18.114 180.00 1.23938 0.02
4 4 6 o 57.826 27.979 180.00 1.25011 0.02
4 1 7 o 583.214 487.310 180.00 1.22609 0.23
0 13 3 o 1199.481 752.640 180.00 1.23220 0.24
5 0 3 o 17.880 14.140 0.00 1.26634 0.00
3 5 8 o 70.179 308.119 0.00 1.21024 0.03
5 3 2 o 642.072 458.555 0.00 1.26451 0.27
3 11 2 o 699.276 596.316 0.00 1.22948 0.28
5 4 1 o 10.219 12.174 180.00 1.25769 0.00
5 2 3 o 306.381 326.232 0.00 1.25207 0.13
4 9 1 o 1700.413 1267.863 0.00 1.23122 0.68
2 9 7 o 26.531 99.813 0.00 1.21445 0.01
5 1 4 o 14.968 13.558 0.00 1.22200 0.01
2 11 5 o 22.369 27.988 180.00 1.21693 0.01
2 10 6 o 128.831 226.794 180.00 1.22445 0.05
1 10 7 o 19.019 94.927 180.00 1.21478 0.01
1 11 6 o 89.067 66.532 0.00 1.21827 0.03
5 4 3 o 922.395 980.362 0.00 1.21199 0.36
5 5 2 o 256.730 280.749 180.00 1.21039 0.10
