#------------------------------------------------------------------------------
#$Date: 2017-09-12 06:27:58 +0300 (Tue, 12 Sep 2017) $
#$Revision: 200652 $
#$URL: file:///home/coder/svn-repositories/cod/cif/4/00/28/4002837.cif $
#------------------------------------------------------------------------------
#
# This file is available in the Crystallography Open Database (COD),
# http://www.crystallography.net/
#
# All data on this site have been placed in the public domain by the
# contributors.
#
data_4002837
loop_
_publ_author_name
'Nuss, J\"urgen'
'Wedig, Ulrich'
'Xie, Wenjie'
'Yordanov, Petar'
'Bruin, Jan'
'H\"ubner, Ralph'
'Weidenkaff, Anke'
'Takagi, Hidenori'
_publ_section_title
;
 Phosphide--Tetrahedrite Ag6Ge10P12: Thermoelectric Performance of a
 Long-Forgotten Silver-Cluster Compound
;
_journal_issue                   16
_journal_name_full               'Chemistry of Materials'
_journal_page_first              6956
_journal_paper_doi               10.1021/acs.chemmater.7b02474
_journal_volume                  29
_journal_year                    2017
_chemical_absolute_configuration ad
_chemical_formula_moiety         'Ag6 Ge10 P12'
_chemical_formula_sum            'Ag6 Ge10 P12'
_chemical_formula_weight         1744.76
_space_group_crystal_system      cubic
_space_group_IT_number           217
_space_group_name_Hall           'I -4 2 3'
_space_group_name_H-M_alt        'I -4 3 m'
_symmetry_cell_setting           cubic
_symmetry_Int_Tables_number      217
_symmetry_space_group_name_Hall  'I -4 2 3'
_symmetry_space_group_name_H-M   'I -4 3 m'
_atom_sites_solution_primary     direct
_atom_sites_solution_secondary   difmap
_audit_creation_method           SHELXL-2014
_cell_angle_alpha                90
_cell_angle_beta                 90
_cell_angle_gamma                90
_cell_formula_units_Z            2
_cell_length_a                   10.2959(13)
_cell_length_b                   10.2959(13)
_cell_length_c                   10.2959(13)
_cell_measurement_reflns_used    5932
_cell_measurement_temperature    40.0(2)
_cell_measurement_theta_max      36.28
_cell_measurement_theta_min      2.79
_cell_volume                     1091.4(2)
_computing_cell_refinement       'SAINT32 (Bruker AXS)'
_computing_data_collection       'Bruker Suite (Bruker AXS)'
_computing_data_reduction        'SAINT32 (Bruker AXS)'
_computing_structure_refinement  'SHELXL-2014 (Sheldrick, 2014)'
_computing_structure_solution    'SHELXL-2014 (Sheldrick, 2014)'
_diffrn_ambient_temperature      40.0(2)
_diffrn_measured_fraction_theta_full 1.000
_diffrn_measured_fraction_theta_max 1.000
_diffrn_measurement_device_type  'SMART APEX, Bruker AXS'
_diffrn_measurement_method       \wscan
_diffrn_radiation_monochromator  graphite
_diffrn_radiation_probe          x-ray
_diffrn_radiation_type           MoK\a
_diffrn_radiation_wavelength     0.71073
_diffrn_reflns_av_R_equivalents  0.0341
_diffrn_reflns_av_unetI/netI     0.0154
_diffrn_reflns_Laue_measured_fraction_full 1.000
_diffrn_reflns_Laue_measured_fraction_max 1.000
_diffrn_reflns_limit_h_max       17
_diffrn_reflns_limit_h_min       -17
_diffrn_reflns_limit_k_max       17
_diffrn_reflns_limit_k_min       -17
_diffrn_reflns_limit_l_max       17
_diffrn_reflns_limit_l_min       -17
_diffrn_reflns_number            9606
_diffrn_reflns_point_group_measured_fraction_full 1.000
_diffrn_reflns_point_group_measured_fraction_max 1.000
_diffrn_reflns_theta_full        25.242
_diffrn_reflns_theta_max         36.429
_diffrn_reflns_theta_min         2.798
_diffrn_source                   'fine-focus sealed tube'
_exptl_absorpt_coefficient_mu    19.659
_exptl_absorpt_correction_T_max  0.152
_exptl_absorpt_correction_T_min  0.070
_exptl_absorpt_correction_type   multi-scan
_exptl_absorpt_process_details
;
semi empirical absorption correction with SADABS,
G.M. Sheldrick, SADABS, Version 2014/3, University of G\"ottingen. Germany. 
;
_exptl_crystal_colour            'silver grey'
_exptl_crystal_density_diffrn    5.309
_exptl_crystal_description       block
_exptl_crystal_F_000             1564
_exptl_crystal_size_max          0.180
_exptl_crystal_size_mid          0.120
_exptl_crystal_size_min          0.080
_refine_diff_density_max         0.760
_refine_diff_density_min         -1.284
_refine_diff_density_rms         0.215
_refine_ls_abs_structure_details
;
 Refined as an inversion twin.
;
_refine_ls_abs_structure_Flack   0.031(18)
_refine_ls_extinction_method     none
_refine_ls_goodness_of_fit_ref   1.387
_refine_ls_hydrogen_treatment    undef
_refine_ls_matrix_type           full
_refine_ls_number_parameters     17
_refine_ls_number_reflns         531
_refine_ls_number_restraints     0
_refine_ls_restrained_S_all      1.387
_refine_ls_R_factor_all          0.0147
_refine_ls_R_factor_gt           0.0127
_refine_ls_shift/su_max          0.000
_refine_ls_shift/su_mean         0.000
_refine_ls_structure_factor_coef Fsqd
_refine_ls_weighting_details
'w=1/[\s^2^(Fo^2^)+(0.0076P)^2^+2.3968P] where P=(Fo^2^+2Fc^2^)/3'
_refine_ls_weighting_scheme      calc
_refine_ls_wR_factor_gt          0.0254
_refine_ls_wR_factor_ref         0.0340
_reflns_Friedel_coverage         0.772
_reflns_Friedel_fraction_full    1.000
_reflns_Friedel_fraction_max     1.000
_reflns_number_gt                522
_reflns_number_total             531
_reflns_threshold_expression     'I > 2\s(I)'
_cod_data_source_file            cm7b02474_si_002.cif
_cod_data_source_block           Ag6Ge10P12_040K
_cod_depositor_comments          'Adding full bibliography for 4002837.cif.'
_cod_original_cell_volume        1091.4(4)
_cod_database_code               4002837
_shelx_space_group_comment
;
The symmetry employed for this shelxl refinement is uniquely defined
by the following loop, which should always be used as a source of
symmetry information in preference to the above space-group names.
They are only intended as comments.
;
_shelx_estimated_absorpt_t_min   0.126
_shelx_estimated_absorpt_t_max   0.302
_shelxl_version_number           2014-3
_shelx_res_file
;
TITL nus292_0m in I-43m
CELL 0.71073  10.29590  10.29590  10.29590  90.0000  90.0000  90.0000
ZERR    2.00   0.00130   0.00130   0.00130   0.0000   0.0000   0.0000
LATT -2
SYMM -X, -Y, Z
SYMM -X, Y, -Z
SYMM X, -Y, -Z
SYMM Z, X, Y
SYMM Z, -X, -Y
SYMM -Z, -X, Y
SYMM -Z, X, -Y
SYMM Y, Z, X
SYMM -Y, Z, -X
SYMM Y, -Z, -X
SYMM -Y, -Z, X
SYMM Y, X, Z
SYMM -Y, -X, Z
SYMM Y, -X, -Z
SYMM -Y, X, -Z
SYMM X, Z, Y
SYMM -X, Z, -Y
SYMM -X, -Z, Y
SYMM X, -Z, -Y
SYMM Z, Y, X
SYMM Z, -Y, -X
SYMM -Z, Y, -X
SYMM -Z, -Y, X
SFAC P GE AG
UNIT 24 20  12
TEMP -233.290
SIZE 0.08 0.12 0.18
ACTA
L.S. 4
BOND
FMAP 2
PLAN 20
TWIN

WGHT    0.007600    2.396800
BASF   0.03062
FVAR       0.11655
AG    3    0.194902    0.000000    0.000000    10.25000    0.00689    0.01009 =
         0.01009   -0.00294    0.00000    0.00000
GE1   2    0.289214    0.289214    0.289214    10.16667    0.00685    0.00685 =
         0.00685    0.00005    0.00005    0.00005
GE2   2    0.250000    0.500000    0.000000    10.25000    0.00620    0.00608 =
         0.00608    0.00000    0.00000    0.00000
P     1    0.128804    0.128804    0.359666    10.50000    0.00667    0.00667 =
         0.00671   -0.00035   -0.00035    0.00023
HKLF 4

REM  nus292_0m in I-43m
REM R1 =  0.0127 for     522 Fo > 4sig(Fo)  and  0.0147 for all     531 data
REM     17 parameters refined using      0 restraints

END

WGHT      0.0069      2.2981

REM Highest difference peak  0.760,  deepest hole -1.284,  1-sigma level  0.215
Q1    1   0.2004  0.2004  0.2004  10.16667  0.05    0.76
Q2    1   0.0709  0.0446  0.0446  10.50000  0.05    0.67
Q3    1   0.0589  0.0589  0.4999  10.50000  0.05    0.66
Q4    1   0.1002 -0.0046  0.1002  10.50000  0.05    0.66
Q5    1   0.0600 -0.0042  0.0360  11.00000  0.05    0.65
Q6    1   0.0031  0.0450  0.4300  11.00000  0.05    0.59
Q7    1   0.0380  0.0000  0.5000  10.50000  0.05    0.58
Q8    1   0.0979  0.0391  0.0686  11.00000  0.05    0.57
Q9    1   0.0938 -0.0938  0.0358  10.50000  0.05    0.56
Q10   1   0.3956  0.5529 -0.0005  11.00000  0.05    0.56
Q11   1   0.2469  0.0002  0.2469  10.50000  0.05    0.55
Q12   1   0.1085  0.2883  0.2883  10.50000  0.05    0.52
Q13   1   0.2349  0.3504  0.3504  10.50000  0.05    0.51
Q14   1   0.1803  0.0716  0.2023  11.00000  0.05    0.48
Q15   1   0.0683 -0.0208  0.4513  11.00000  0.05    0.48
Q16   1   0.0660 -0.0011  0.3975  11.00000  0.05    0.47
Q17   1   0.3624  0.3624  0.1392  10.50000  0.05    0.47
Q18   1   0.1074  0.1701  0.2002  11.00000  0.05    0.47
Q19   1   0.1488  0.0711  0.1145  11.00000  0.05    0.47
Q20   1   0.0000  0.0000  0.5000  10.12500  0.05    0.47
;
_shelx_res_checksum              83812
_shelx_hkl_file
;
  -1  -1   0 293.448 12.1341   1
  -1   0  -1 302.882 12.0319   1
  -1   0   1 292.040 11.9355   1
  -1   1   0 304.172 12.0403   1
   0  -1  -1 288.844 12.3686   1
   0  -1   1 288.647 11.9062   1
   0  -1   1 285.878 12.1027   2
   0   1   1 300.961 11.8691   2
   1  -1   0 301.326 12.1392   2
   1   0   1 283.043 12.3012   2
  -1  -1   0 267.470 12.2117   2
  -1   0   1 302.377 12.2443   2
   1   1   0 288.338 12.1183   3
   1   0   1 336.792 12.2435   3
   0   1   1 289.837 13.2620   3
  -1   0   1 309.259 12.2995   3
  -1   1   0 280.209 12.4421   3
   0   1  -1 305.379 12.3905   3
   0   0  -2 102.827 4.76429   1
   0  -2   0 109.848 5.32121   1
  -2   0   0 113.094 4.94899   1
   0   0   2 91.0395 5.34690   3
   0   2   0 103.489 5.48351   3
   0  -2   0 111.816 4.67980   2
   0   0   2 105.050 4.97539   2
  -1   1  -2 107.722 5.63976   3
  -2   1  -1 121.998 5.44536   3
  -2   1   1 98.9449 6.39982   3
  -2   1   1 130.306 5.33294   1
  -1  -2  -1 124.829 5.76387   1
  -1  -2   1 109.115 5.23222   1
  -2  -1  -1 121.055 5.47275   1
  -2  -1   1 119.265 5.26615   1
  -2   1  -1 112.092 5.18812   1
  -2  -1   1 113.654 5.76244   2
  -2   1   1 115.376 5.56440   2
  -1  -2   1 112.071 5.44686   2
  -1  -1   2 106.752 5.45865   2
  -1   1   2 132.497 5.33616   2
   1  -2   1 125.752 5.34743   2
   1  -1   2 125.589 5.59719   2
   1   1   2 110.633 5.44404   2
   1   2   1 114.118 5.42434   2
   2  -1   1 128.109 5.80121   2
   2   1   1 104.167 5.78221   2
  -1   2  -1 107.145 5.11727   1
  -1   1  -2 106.629 4.91222   1
  -1   2  -1 117.075 5.78720   3
  -1   2   1 118.625 7.33101   3
   1   1  -2 121.759 5.82608   3
   1   2  -1 129.101 5.79727   3
   1   2   1 105.298 6.74154   3
   2   1  -1 128.840 5.39144   3
  -1  -1   2 105.856 4.87020   1
  -1   1   2 122.138 5.29093   1
  -1  -1  -2 122.873 5.48984   1
  -2  -2   0 -0.7740 1.39555   2
  -2   0   2 -0.4843 1.46537   2
   2   2   0 -0.9826 1.17039   3
  -2   2   0 -0.0651 0.95832   1
   0  -2  -2 1.13673 1.61169   1
   0  -2   2 0.38582 0.85974   1
   2  -2   0 -1.0136 1.15945   2
   0  -2   2 -1.0065 1.22739   2
   0   2  -2 2.12547 1.39929   3
   0   2   2 -1.9160 2.31014   3
   2   0   2 0.18601 1.49728   2
  -2   0   2 -0.9013 1.17275   3
  -2   2   0 -0.1551 1.69030   3
  -2  -2   0 1.51130 1.12116   1
  -2   0  -2 0.89076 0.97927   1
  -2   0   2 -0.8659 0.81830   1
  -2   0  -2 0.41842 1.09101   3
   0   2   2 -0.8229 0.75644   2
  -2   2  -2 8971.37 365.879   1
  -2  -2  -2 8915.98 369.166   1
  -2   2   2 9809.22 369.321   1
  -2  -2   2 8439.50 366.619   2
  -2   2   2 9400.60 365.551   2
   2  -2   2 9178.85 368.359   2
   2   2   2 9159.24 365.893   2
  -2  -2   2 9144.45 365.653   1
   2   2  -2 9999.99 369.843   3
  -3   1   0 5.89497 0.89828   1
  -1   0  -3 5.67367 0.68422   1
  -1   0   3 4.73870 0.58321   1
   3  -1   0 4.30975 1.13181   2
   0  -1   3 4.64498 0.93970   2
   1  -3   0 6.61342 0.62465   2
   3   0   1 5.63485 1.32768   2
  -1   3   0 7.27833 1.76087   3
   0   1  -3 5.55721 1.23565   3
   1   3   0 6.71121 1.50440   3
  -3   1   0 6.77595 1.97995   3
  -1   0   3 4.88153 1.33186   3
   0   3  -1 6.43071 1.41438   3
   0   3   1 6.10799 2.38021   3
   1   0   3 5.66901 1.31296   3
  -3  -1   0 7.77541 1.16096   1
   3   1   0 5.91967 1.42275   2
   0  -3  -1 4.93983 1.17984   1
   0  -3   1 6.84596 1.20622   1
   0  -3   1 6.53942 0.91200   2
   0   1   3 6.45934 0.97512   2
  -3   0   1 4.15125 1.25993   2
  -3   0  -1 5.87245 1.00324   1
  -3   0   1 6.11865 0.92591   1
  -1  -3   0 6.65134 1.25938   1
   0  -1  -3 6.21780 1.09957   1
   1  -3   0 9.06705 1.31730   1
   1   0   3 4.03642 0.92039   2
  -1   0   3 5.22724 0.99241   2
  -3  -2   1 177.681 8.26276   1
   3   2   1 162.586 8.86321   2
  -3   2  -1 170.694 8.06909   1
  -2   3   1 218.853 11.4023   3
  -1   3  -2 180.859 9.02769   3
   3   1  -2 208.119 8.61013   3
  -3   2  -1 163.334 8.49838   3
  -1   2   3 203.326 8.01090   2
   1  -2   3 202.255 8.64831   2
  -2  -3  -1 202.347 8.81109   1
   2  -3   1 210.257 8.31296   2
   1   3   2 169.704 8.00623   2
   1  -3  -2 171.582 8.76943   1
   1   3   2 164.822 10.9275   3
  -2  -1   3 162.736 7.67265   1
   2   1   3 167.845 8.60611   3
  -3   1   2 204.173 8.21896   1
  -1  -2  -3 196.956 8.77398   1
   3  -2  -1 162.883 8.49569   2
   1   2  -3 201.907 9.10604   3
  -2   3   1 201.340 8.42865   1
  -1  -3   2 153.115 8.21724   2
  -3  -1  -2 202.726 8.50877   1
  -3  -2   1 176.364 8.84656   2
  -1  -3   2 169.229 7.96816   1
  -3   1   2 193.214 8.78458   2
   2   1   3 168.759 8.59278   2
  -2   1  -3 165.169 8.60624   3
  -2  -1   3 170.203 8.56225   2
   3  -1   2 209.258 9.17010   2
  -2   1  -3 169.813 7.81875   1
   2   3  -1 208.527 8.85280   3
  -3   1  -2 179.748 8.31317   3
  -2  -3   1 171.979 8.25465   1
  -3   2   1 213.231 8.36435   1
  -3  -1   2 161.900 7.95140   1
   1   2   3 169.736 8.16282   2
   2   1  -3 203.945 9.10745   3
  -1   2  -3 160.170 8.75631   3
  -2  -1  -3 194.769 8.34110   1
  -3  -1   2 153.716 8.73671   2
  -2   3  -1 168.198 8.87358   3
  -2  -3   1 164.178 8.44115   2
  -1  -2   3 162.917 8.41769   2
  -3   2   1 212.370 11.1001   3
   3   2  -1 215.207 8.37479   3
   3   1   2 161.312 8.85736   2
  -1   2  -3 164.304 7.52598   1
   3  -2   1 203.210 8.83631   2
  -1   3   2 171.647 11.5140   3
  -3   1  -2 172.246 8.05703   1
  -2   1   3 196.482 8.45580   2
   2   3   1 151.777 9.60469   3
   1  -3   2 208.968 8.40729   2
  -2   3  -1 171.111 8.08215   1
   2  -1   3 204.733 8.84012   2
   1   3  -2 204.300 9.07410   3
   1  -3   2 194.582 8.17078   1
   1  -2  -3 168.354 8.56888   1
  -2   1   3 206.197 8.16114   1
  -1  -3  -2 195.545 9.03851   1
   2   3   1 177.320 8.58510   2
  -3   0  -3 421.771 18.0411   3
  -3   0   3 441.092 18.6070   3
  -3  -3   0 418.515 18.0680   1
  -3   0  -3 421.585 17.7351   1
  -3   0   3 413.276 17.4531   1
  -3   3   0 431.473 17.7872   1
   0  -3  -3 412.912 18.6881   1
   0  -3   3 409.350 17.2319   1
   3  -3   0 447.603 17.8886   2
  -3   3   0 409.786 19.4192   3
  -3   3   0 421.559 19.4880   3
  -3  -3   0 412.241 18.3001   2
  -3   0   3 417.738 18.3394   2
   0  -3   3 412.692 17.9532   2
   3   0   3 408.480 18.5997   2
   3   3   0 427.817 18.1406   3
   0   3  -3 428.379 18.7723   3
  -2  -3   3 1469.28 58.5147   1
  -3   3   2 1435.65 59.1304   1
  -2  -3  -3 1414.10 59.7123   1
  -3  -3  -2 1424.06 59.5954   1
  -3   3  -2 1464.21 58.7476   1
  -3   3   2 1598.00 63.9110   3
  -2   3  -3 1479.59 59.9867   3
   2   3  -3 1445.38 59.8678   3
  -3  -3   2 1528.87 58.9828   1
  -3  -2  -3 1411.91 59.3589   1
  -3  -2   3 1466.49 58.5922   1
  -3   2  -3 1470.42 58.6166   1
  -3   2   3 1468.56 59.0456   1
  -3   2  -3 1547.24 59.7613   3
  -3   3  -2 1539.77 59.9348   3
  -3  -3   2 1455.40 59.7337   2
  -3  -2   3 1478.40 59.8372   2
  -3   2   3 1365.78 59.2049   2
  -2  -3   3 1438.61 59.5024   2
  -2   3   3 1443.41 58.6216   2
   2  -3   3 1399.56 59.3086   2
   2   3   3 1445.74 59.1645   2
   3  -3  -2 1554.65 59.0694   2
   3  -3   2 1456.09 59.4073   2
   3  -2   3 1457.40 59.7581   2
   3   2   3 1422.79 59.7658   2
   3   3   2 1513.02 59.7199   2
   3   2  -3 1410.54 59.5901   3
  -2   3  -3 1472.22 58.4823   1
   2  -3  -3 1458.26 59.5958   1
   3   3  -2 1510.50 59.5664   3
   0  -4   0 3142.89 127.761   1
   0   0  -4 3095.14 126.526   1
  -4   0   0 3167.22 126.947   1
   0   0   4 3248.20 128.113   3
   0   4   0 3278.30 128.422   3
   4   0   0 2994.20 128.092   2
   0   0   4 3282.44 127.198   2
   0  -4   0 3313.42 126.439   2
  -1   1   4 389.190 17.8218   2
  -1  -1   4 453.584 18.3113   2
   1   1  -4 386.912 18.8122   3
  -4  -1   1 425.829 18.9040   2
  -1  -4   1 434.114 17.8275   2
  -1  -1  -4 392.343 17.8076   1
  -1   1  -4 451.111 17.1279   1
   1  -4  -1 437.372 18.6909   1
   1  -4   1 389.127 18.1728   1
   1  -1  -4 447.221 18.0705   1
  -1  -4   1 433.893 18.2744   1
  -1   4  -1 451.787 19.1580   3
  -4  -1  -1 414.016 18.0689   1
  -4  -1   1 447.907 17.9355   1
  -4   1  -1 460.525 17.9217   1
  -4   1   1 393.092 17.7393   1
   1   1   4 459.162 18.9919   3
   1   4  -1 398.940 18.7138   3
   1   4   1 458.642 20.4762   3
   4  -1  -1 438.784 18.9894   2
   4  -1   1 367.096 18.6110   2
   4   1   1 436.600 19.1441   2
   1  -1   4 385.940 18.1527   2
  -1   4   1 396.231 20.4623   3
  -1   1  -4 437.249 18.9601   3
  -1  -4  -1 370.938 18.5114   1
   1   1   4 435.807 18.1051   2
   1  -4   1 390.301 17.4588   2
   0   4  -2 95.8484 5.72297   3
  -2  -4   0 85.8290 4.79516   2
   2  -4   0 96.6632 4.31532   2
  -2   0   4 89.2201 4.31580   1
   0  -4   2 86.9051 4.92516   1
   0  -4   2 85.8054 4.66404   2
  -2   4   0 84.9918 6.04023   3
   0   2  -4 89.7640 5.58838   3
   0   2   4 100.378 6.75960   3
   0  -2   4 88.7058 5.05374   2
   0   2   4 90.5181 4.62006   2
  -4   2   0 91.3058 4.72867   1
   4   0   2 87.3982 5.63990   2
  -2   0  -4 97.1727 4.56530   1
  -2   0   4 103.856 5.89461   3
  -4   2   0 88.9031 6.36768   3
   2   0   4 98.5967 5.61159   3
  -4   0  -2 91.9067 4.83747   1
  -4   0   2 87.5372 4.59937   1
  -2  -4   0 90.6384 5.21433   1
  -2   4   0 91.4405 4.86162   1
   0  -2  -4 88.6481 5.22268   1
   0   4   2 101.573 8.07595   3
  -2   0   4 91.7349 5.05720   2
   4  -2   0 96.4683 5.42461   2
   2   0   4 92.2821 5.24178   2
   2   4   0 85.7680 5.47822   3
  -4   0   2 90.5678 5.55567   2
  -4   0   2 99.9100 4.96742   3
   4   2   0 84.0163 5.65860   2
  -2  -2   4 583.427 25.6731   2
  -4  -2   2 628.412 25.1793   1
  -4  -2   2 592.829 26.1924   2
  -2   2   4 695.511 28.3631   3
  -2  -4   2 584.794 25.4955   2
  -4  -2  -2 615.890 25.6282   1
   4  -2  -2 613.982 25.9762   2
   4  -2   2 581.205 26.0248   2
  -2   4  -2 611.990 26.3940   3
  -2  -4  -2 616.512 26.1941   1
  -2  -4   2 617.150 25.1765   1
   2   4  -2 618.516 26.1427   3
  -2   2   4 565.834 25.0876   2
  -4   2  -2 576.325 24.9512   1
  -4   2   2 608.516 25.1847   1
  -2  -2  -4 593.475 25.5511   1
  -2  -2   4 592.888 24.3145   1
  -2   2  -4 581.380 24.4132   1
  -2   4  -2 606.325 24.9762   1
   2  -4   2 623.189 25.2268   2
   2  -2   4 597.542 25.7768   2
   2   2   4 577.794 25.5033   2
   2   4   2 613.922 25.2553   2
   2  -4  -2 594.545 25.9003   1
  -2   2  -4 597.740 26.1358   3
  -2   4   2 629.494 29.9647   3
   2   2  -4 613.417 26.3300   3
   2  -2  -4 570.518 25.4291   1
   2   4   2 617.223 28.7035   3
   4   2  -2 644.246 25.3612   3
   4   2   2 580.200 26.1907   2
  -3   4   1 753.355 32.8375   3
  -1   3   4 789.780 33.1378   3
   1   3  -4 657.127 29.8542   3
   1  -3   4 651.804 29.0966   2
   3   4  -1 722.715 29.5568   3
  -3  -4  -1 660.386 29.4145   1
   3   1   4 725.732 29.6002   3
  -4  -3   1 679.067 29.7225   2
  -4   1   3 694.974 28.6878   1
   1   4   3 711.916 28.3273   2
   4   3   1 717.756 29.9871   2
  -4  -3   1 719.114 29.0843   1
   3  -4   1 691.678 28.6955   2
  -1  -4   3 704.415 28.4017   1
   4  -1   3 656.726 29.8863   2
  -3  -1   4 685.622 28.2151   1
   4  -3  -1 717.052 29.1416   2
  -4  -1  -3 694.666 29.0795   1
  -1  -4   3 686.180 29.0474   2
  -1   3   4 660.066 28.2677   2
   3   1   4 698.958 29.6452   2
  -3  -1   4 702.657 29.5641   2
  -4   3  -1 710.378 29.7961   3
  -4   3  -1 716.282 28.7667   1
  -3   1  -4 715.780 29.5504   3
  -3   4   1 682.224 28.9916   1
  -1   4  -3 726.642 30.1533   3
  -3   1  -4 719.864 28.4567   1
   4   1  -3 697.344 29.3372   3
  -4   1   3 619.901 29.4010   2
  -1  -3  -4 645.584 29.5246   1
   1  -4  -3 708.863 29.9292   1
   1  -4   3 670.272 28.6689   1
  -1   3  -4 688.287 29.9748   3
  -4  -3  -1 672.024 29.2575   1
   3  -4  -1 743.262 28.3791   2
   1   4  -3 674.594 29.8499   3
   4  -3   1 697.024 29.3247   2
  -3   4  -1 699.919 30.1678   3
   4   1   3 682.953 30.0183   2
  -1   4   3 724.981 34.4014   3
  -3   1   4 673.814 28.5633   1
  -1  -4  -3 655.091 29.8338   1
   3   4   1 725.116 29.5343   2
   4   3  -1 730.019 28.9312   3
  -4  -1   3 698.389 29.9310   2
   3   1  -4 697.172 29.9508   3
  -4   3   1 677.012 28.8497   1
  -3  -1  -4 669.633 28.8717   1
  -3  -4   1 702.315 29.0751   1
  -4   1  -3 745.889 29.0703   3
   1  -4   3 657.802 28.8869   2
  -4   1  -3 688.589 28.6497   1
  -3  -4   1 672.928 29.3171   2
  -3   4  -1 722.978 28.8103   1
  -3   1   4 722.866 30.4119   3
   1   3   4 676.746 31.7108   3
   1  -3  -4 717.706 29.7455   1
   3   4   1 701.649 30.9127   3
  -4   3   1 692.870 32.3363   3
   4   1   3 720.334 28.9455   3
   1   3   4 702.627 28.6040   2
  -3   1   4 640.819 29.1497   2
  -4  -1   3 694.224 28.5269   1
   3  -1   4 678.503 29.6437   2
  -1  -3   4 674.196 29.2289   2
  -3  -4   3 530.064 22.6837   1
  -3  -4  -3 534.562 23.9201   1
   3   3   4 555.397 23.5243   2
   3   4   3 536.695 23.2720   2
  -3  -3   4 527.778 22.3122   1
  -3  -3  -4 544.540 23.6915   1
  -4   3   3 555.736 23.1582   1
  -4   3   3 589.898 26.9957   3
  -3   3  -4 549.151 24.0824   3
  -3   3   4 537.188 26.6704   3
  -3   4  -3 553.463 24.2104   3
   4  -3   3 564.323 23.8623   2
   4   3   3 540.690 23.8502   2
  -4  -3   3 536.283 23.9723   2
  -3  -4   3 522.908 23.6362   2
  -3  -3   4 506.157 23.6562   2
  -3   3   4 534.948 22.9142   2
   3  -4   3 542.608 23.3141   2
   3  -3   4 545.109 23.6692   2
  -4   3  -3 560.199 23.8732   3
  -4  -3  -3 559.769 23.7458   1
  -4  -3   3 545.875 22.7762   1
  -4   3  -3 531.268 22.6564   1
   3   4  -3 567.771 23.9886   3
   3   4   3 624.790 26.7802   3
   4   3  -3 575.998 23.6763   3
   3   3  -4 549.140 24.0372   3
  -3   4   3 516.709 28.4590   3
  -3   3  -4 511.668 22.3069   1
  -3   3   4 553.040 23.2071   1
  -3   4  -3 538.836 22.5962   1
  -3   4   3 553.936 23.3730   1
   3  -4  -3 494.173 23.4925   1
  -4  -4   0 6501.76 253.599   1
  -4   0  -4 6352.93 252.184   1
  -4   0   4 5983.76 251.889   1
  -4   4   0 6287.48 253.792   1
   0  -4  -4 6350.47 252.656   1
   4   0   4 6303.52 252.603   2
   4  -4   0 6457.69 252.212   2
  -4  -4   0 6251.51 252.149   2
  -4   0   4 5863.69 252.093   2
   0  -4   4 6092.87 251.619   2
  -4   0  -4 6074.59 252.288   3
  -4   0   4 6764.80 253.960   3
  -4   4   0 7049.14 254.533   3
   0   4  -4 6338.46 254.443   3
   0   4   4 7022.87 257.203   3
   4   4   0 6146.80 251.956   3
   0  -4   4 6012.03 250.462   1
  -4   2   4 56.8949 5.48533   3
   2  -4  -4 57.7910 4.28415   1
  -4   4   2 48.6714 6.96925   3
  -2   4  -4 63.4991 4.71735   3
   2   4  -4 49.5873 4.28734   3
   4   2  -4 55.7623 4.22673   3
   4   2   4 63.8719 4.11929   3
   4   4  -2 59.0151 4.11890   3
   4   4   2 77.5197 6.60980   3
  -2   4  -4 60.4299 3.15932   1
  -4   2  -4 64.5560 4.27933   3
  -4  -2  -4 53.4261 3.88921   1
  -4  -2   4 63.5716 3.36806   1
  -4   2  -4 60.7404 3.41886   1
  -4   2   4 59.7294 3.68598   1
  -4   4  -2 61.7036 3.59217   1
  -4  -4   2 54.7971 4.22423   2
  -4  -2   4 64.0349 4.50685   2
  -4   2   4 50.8947 3.94471   2
  -2  -4   4 57.8212 4.08543   2
   2  -4   4 46.7246 3.73728   2
   2   4   4 61.1564 3.65325   2
   4  -4  -2 65.1435 3.61077   2
   4  -4   2 50.7747 3.78237   2
   4  -2   4 52.4284 4.28555   2
   4   2   4 72.0719 4.71471   2
   4   4   2 67.1678 4.47916   2
  -4  -4   2 65.3397 3.86004   1
  -4   4  -2 59.3093 4.53601   3
  -4   4   2 53.0756 3.72002   1
  -2  -4  -4 52.2929 4.32016   1
  -2  -4   4 60.4455 3.11773   1
  -4   4  -4 474.117 21.8968   3
  -4  -4  -4 512.176 21.8314   1
   4   4   4 465.824 21.1984   2
  -4   4   4 512.932 21.1047   1
  -4   4  -4 445.087 20.0674   1
  -4  -4   4 450.125 20.1574   1
   4  -4   4 515.409 21.5335   2
  -4  -4   4 426.568 21.3799   2
   4   4  -4 522.816 21.9031   3
   1   0  -5 991.732 39.5647   1
   1   0   5 996.346 41.3167   3
   0   5   1 1035.41 43.0687   3
   0  -5  -1 973.215 41.0593   1
   0   5  -1 970.777 41.2066   3
  -1  -5   0 983.845 39.5009   2
   0  -1   5 965.321 40.2571   2
   0   1   5 1006.78 40.0066   2
   5   0  -1 939.069 41.2819   2
  -1   0   5 982.224 41.2752   3
  -5  -1   0 988.979 39.9892   1
  -5   1   0 983.822 39.8074   1
  -1   0  -5 984.726 39.2603   1
  -5   0  -1 992.532 39.8975   1
  -5   0   1 987.623 39.8008   1
  -1  -5   0 923.545 40.6071   1
   0  -1  -5 953.343 39.8428   1
   1  -5   0 989.845 40.7205   1
  -1   5   0 985.011 41.7544   3
   0   1  -5 985.955 41.3381   3
   0   1   5 936.264 41.0983   3
   1   5   0 976.497 41.3819   3
   0  -5   1 965.835 40.6087   1
   0  -5   1 967.230 39.3732   2
   1   0   5 967.415 40.2221   2
   5  -1   0 941.908 41.1031   2
   5   1   0 945.431 41.2907   2
  -1   0   5 946.049 40.0669   2
   5  -1   2 299.972 15.2284   2
  -1  -5   2 310.641 14.0238   2
   2   5  -1 329.446 15.2281   3
   1  -2   5 309.119 14.5649   2
   2   1   5 321.063 14.5328   2
   2  -5   1 314.790 13.5714   2
   2   1   5 314.483 15.3097   3
  -2  -1   5 319.012 14.5829   2
  -5  -1  -2 306.490 14.2643   1
  -2   5   1 332.531 17.5517   3
  -2  -1   5 320.581 13.2277   1
  -1   2   5 323.003 16.4793   3
  -5   2  -1 294.546 14.5589   3
   5   2   1 328.432 15.5292   2
  -2   1  -5 333.460 15.3212   3
  -1  -5   2 308.756 14.2847   1
  -1   5  -2 331.172 15.5380   3
   2  -5   1 311.942 14.4952   1
  -1  -2  -5 315.014 14.4377   1
   1   5   2 369.835 18.5883   3
   1   2  -5 315.099 15.3593   3
  -5  -2   1 309.808 15.3118   2
   2  -1  -5 315.021 14.0438   1
  -5  -2   1 330.170 14.2563   1
  -5   1   2 315.386 13.9523   1
  -2  -5  -1 317.464 15.0189   1
   1  -5  -2 322.035 15.2031   1
   5  -2  -1 330.733 15.0774   2
  -2   1  -5 324.802 13.3706   1
  -1   2   5 310.868 13.9280   2
  -5   2  -1 331.785 14.0398   1
   2   5   1 336.967 14.2114   2
  -2  -1  -5 320.365 13.9750   1
  -2   1   5 303.027 15.3253   3
  -5  -2  -1 329.099 14.4909   1
  -1  -2   5 315.436 14.5387   2
  -5   1  -2 332.801 14.0830   1
  -2  -5   1 311.105 14.5088   1
   1  -5   2 316.582 14.4872   1
  -5  -1   2 316.161 13.9576   1
   2  -1   5 302.401 14.6166   2
  -1   2  -5 323.702 15.3598   3
  -1  -5  -2 295.538 15.0778   1
   2   1  -5 320.938 15.5198   3
   1  -2  -5 340.522 14.7317   1
   2  -5  -1 301.365 14.7686   1
  -1   5   2 355.430 18.5881   3
   1   5  -2 328.115 15.3456   3
  -2   5  -1 338.976 15.7626   3
  -2  -5   1 326.869 14.2110   2
   5   1   2 305.846 15.3492   2
  -5  -1   2 306.104 15.2148   2
   1   2   5 333.164 14.2032   2
   5  -2   1 307.772 15.0375   2
   5  -1  -2 324.120 15.3671   2
  -5   2   1 305.258 14.0024   1
   1  -5   2 307.853 13.7723   2
   2   5   1 338.096 16.7001   3
  -2   1   5 289.021 14.1218   2
  -3   0   5 95.4867 5.58356   2
   0  -5   3 91.2239 5.07628   2
  -3   5   0 88.0199 7.00159   3
  -3  -5   0 83.6540 5.14596   2
   0  -3   5 91.2148 5.44936   2
  -5   0  -3 93.4109 5.14956   1
  -5   0   3 91.4882 4.84254   1
   3  -5   0 93.8267 4.50606   2
   5   0   3 85.8342 6.04927   2
  -3   0   5 89.3509 4.56500   1
   0  -5  -3 91.8090 6.09423   1
   0  -5   3 86.8178 4.99891   1
   3   5   0 87.7450 6.00861   3
  -5   0   3 83.5397 5.82014   2
  -3   0  -5 95.6366 4.87126   1
   3   0   5 85.7979 5.58680   2
   0   3   5 93.6098 4.76051   2
   0   5  -3 89.6727 6.09674   3
  -3  -5   0 86.9995 5.50317   1
  -3   5   0 93.7339 5.16154   1
   0  -3  -5 97.7723 5.86887   1
   5  -3   0 95.2502 5.58188   2
   5   3   0 89.7317 6.17367   2
   0   3   5 84.9501 7.46820   3
  -5   3   0 91.7273 7.32925   3
  -3   0  -5 91.4232 5.82798   3
  -3   0   5 82.1889 5.86040   3
   0   3  -5 90.9977 6.08191   3
   0   5   3 105.071 9.65840   3
  -5  -3   0 91.8610 5.36768   1
  -5   3   0 87.6464 4.95320   1
  -5   0   3 103.243 5.50175   3
  -5  -2  -3 137.659 7.59521   1
   5   3   2 151.060 8.36815   2
  -5  -3   2 151.723 8.39664   2
   3   2   5 146.955 8.15326   3
   5   2  -3 137.797 7.39446   3
  -3  -2   5 147.462 8.03809   2
  -3   2  -5 149.073 8.23771   3
  -2  -5   3 143.995 7.57520   2
  -2   5  -3 156.303 8.68606   3
   2  -5  -3 151.974 8.21536   1
  -2   3   5 132.330 6.92438   2
  -3   5   2 151.448 11.5716   3
  -2  -5   3 151.729 7.11438   1
  -2   3   5 137.743 10.3761   3
   2   3  -5 138.311 8.31203   3
  -5   2   3 130.260 7.07173   1
   3   2   5 142.103 7.80302   2
   2   5   3 174.091 11.9869   3
  -5  -3   2 157.374 7.42783   1
   5  -2   3 129.616 8.10400   2
   3   5  -2 138.593 8.02782   3
   2   5   3 151.297 7.02453   2
  -2  -3  -5 131.863 7.75848   1
   5  -3  -2 150.752 7.83655   2
  -5   2   3 140.493 8.01950   2
   2  -3   5 132.455 7.70239   2
  -5   3  -2 152.583 7.95524   3
   3  -5   2 139.049 7.09984   2
  -5   3  -2 147.087 7.12062   1
  -3   2  -5 151.960 6.62071   1
  -3  -2   5 142.984 6.41826   1
  -3  -2  -5 135.292 7.39617   1
  -5   3   2 134.486 7.22110   1
  -3  -5   2 147.294 7.74082   2
  -5  -2   3 153.314 8.48909   2
   2   5  -3 145.562 8.32333   3
  -2   3  -5 140.727 6.26213   1
   2  -3  -5 157.688 7.95817   1
   3  -5  -2 147.317 7.98053   1
  -2  -3   5 147.537 7.90077   2
   5   2   3 152.199 8.44411   2
  -3   2   5 131.338 7.07409   1
   2   3   5 139.426 7.26684   2
   5   3  -2 145.719 7.29237   3
  -3   5  -2 152.672 7.16637   1
  -5  -3  -2 140.514 7.72247   1
  -3  -5   2 147.910 7.38081   1
   2  -5   3 143.753 7.29213   2
   3   2  -5 131.902 8.18873   3
  -3   2   5 126.281 7.31563   2
  -3   2   5 156.146 9.71416   3
   3   5   2 151.443 7.51073   2
   3  -2   5 140.335 7.93006   2
   5  -3   2 142.151 7.99595   2
  -5   3   2 137.516 10.5922   3
  -5   2  -3 152.585 7.15006   1
  -2  -5  -3 132.567 8.19039   1
  -5   2  -3 155.882 7.61774   3
   2  -5   3 136.010 7.23739   1
  -3   5  -2 157.552 8.74384   3
  -2   5   3 143.101 12.0930   3
  -2   3  -5 149.096 8.41510   3
  -5  -2   3 149.850 7.10295   1
   3   5   2 165.583 10.8535   3
   4   1   5 170.508 8.43411   3
  -4  -5  -1 132.130 7.97265   1
   5   4   1 148.475 9.09871   3
  -1   5  -4 163.214 9.00842   3
  -1   4   5 141.171 6.75509   2
   4   5  -1 141.323 8.05904   3
   4  -5   1 141.653 7.21065   2
   5   1  -4 146.206 8.07759   3
   1   4  -5 139.755 8.59245   3
  -5  -1  -4 143.007 7.65874   1
  -5   4  -1 152.570 7.44257   1
  -1  -5   4 149.726 7.78833   2
  -5   1   4 137.734 7.17696   1
  -1  -4  -5 136.310 8.27879   1
   5  -1   4 134.207 8.46990   2
  -4   1  -5 158.134 7.23180   1
   4   1   5 156.212 8.51643   2
   5   4   1 151.071 8.54894   2
  -4   5   1 153.439 11.1470   3
  -1  -5   4 159.620 6.93580   1
   1  -5  -4 158.002 8.76041   1
   1  -4   5 135.030 7.79450   2
  -5  -4   1 150.993 8.41330   2
  -5  -4   1 165.048 7.95873   1
   5  -4  -1 164.663 7.71453   2
  -5  -1  -4 145.639 7.47777   3
  -5   1   4 126.682 8.04014   2
  -4  -1   5 155.357 8.44146   2
  -5   1   4 138.409 8.15379   3
  -4  -1   5 151.034 6.88354   1
  -4   5   1 149.029 7.65668   1
  -5   4  -1 145.668 8.85638   3
  -4   1  -5 159.505 8.24677   3
  -4   5  -1 162.667 7.58860   1
   5  -4   1 138.807 7.71189   2
  -5   4   1 139.716 7.43979   1
   1  -5   4 135.990 7.25032   1
   4  -1   5 142.707 8.38395   2
  -5   1  -4 159.588 7.41622   1
   4   5   1 155.087 8.27432   2
   4   5   1 156.216 9.81596   3
  -1  -5  -4 138.798 8.49640   1
   5   4  -1 145.492 7.60323   3
  -5  -4  -1 147.357 8.01342   1
  -5  -1   4 139.501 8.41163   2
  -4   1   5 145.275 7.18902   1
  -4   5  -1 158.336 9.25685   3
  -4   1   5 132.562 7.92566   2
   4  -5  -1 164.873 7.00960   2
   1  -5   4 135.569 7.53073   2
  -5   1  -4 160.824 7.76942   3
  -4  -1  -5 137.870 7.47328   1
   5   1   4 143.957 8.57938   2
   1   4   5 120.716 10.2380   3
  -5  -1   4 156.434 7.16912   1
  -1  -4   5 154.409 8.10242   2
  -4  -5   1 143.152 8.00685   2
   4   1  -5 148.146 8.59600   3
  -4  -5   1 149.329 7.88515   1
  -4   1   5 138.273 8.46543   3
   1   4   5 158.346 7.11594   2
  -5   4   1 146.869 11.0525   3
   1  -4  -5 160.074 8.62697   1
  -1   4  -5 155.265 8.83705   3
   1   5  -4 142.539 8.60837   3
  -5  -3  -4 105.430 6.25682   1
   4   5  -3 110.993 6.60849   3
   5   4   3 97.2970 6.32691   2
  -4   5   3 106.068 6.03939   1
  -3  -5   4 105.051 6.34542   2
  -4   3  -5 96.0143 5.01879   1
   3   5   4 97.3297 5.55391   2
  -5  -4   3 105.770 6.71900   2
  -3   5  -4 106.530 6.99188   3
   5  -3   4 106.458 6.64663   2
  -5   4  -3 92.9338 6.35887   3
   5  -4  -3 103.090 5.75458   2
  -4  -3   5 94.7645 4.91404   1
  -3  -4  -5 102.242 6.49761   1
  -3  -5   4 98.2920 5.18962   1
   3  -5  -4 97.6679 6.37246   1
  -5   3   4 107.262 5.80014   1
  -4  -5  -3 106.134 6.65567   1
  -5   3   4 102.325 6.11803   2
  -4   5   3 90.9544 10.4992   3
  -5  -4   3 93.6117 5.49219   1
  -5   4  -3 99.7603 5.40582   1
   3   4  -5 102.599 6.71162   3
   5   3  -4 120.226 6.51934   3
  -5   3   4 106.544 8.64664   3
  -4   3  -5 100.744 6.52965   3
  -4  -3   5 102.426 6.64608   2
  -3   4   5 106.415 5.38005   2
  -3   5  -4 93.8018 5.07869   1
   4   3   5 92.2110 6.04455   2
   3  -4   5 102.476 6.24933   2
   4  -5   3 105.954 5.89650   2
  -3  -4   5 96.3682 6.32820   2
   3  -4  -5 100.568 6.30515   1
  -4   3   5 107.501 5.94376   2
  -5  -3   4 98.5443 6.80386   2
  -4   5  -3 102.323 6.86788   3
  -5   3  -4 97.7615 6.22470   3
  -3   4  -5 95.6406 4.86013   1
   3   4   5 101.804 5.78655   2
  -5   4   3 104.971 5.85490   1
  -4  -3  -5 105.115 6.25569   1
  -5  -3   4 95.5190 5.25552   1
  -5   3  -4 89.9151 5.17141   1
  -5  -4  -3 108.812 6.46712   1
  -3   4  -5 98.3806 6.69409   3
  -4  -5   3 94.5336 5.48196   1
  -4   5  -3 101.314 5.41387   1
   4   5   3 97.4948 5.93200   2
  -3  -5  -4 100.784 6.65446   1
  -4  -5   3 99.0908 6.35716   2
   5   4  -3 111.710 6.24305   3
   3  -5   4 104.066 5.96838   2
   5   3   4 90.5865 6.32933   2
   4  -3   5 101.603 6.46246   2
   4   3  -5 110.059 6.75226   3
  -5   4   3 74.9442 8.78932   3
   5  -4   3 111.515 6.40320   2
  -3  -4   5 95.3639 4.74265   1
   3   5  -4 102.503 6.66026   3
  -4   3   5 94.9826 5.62109   1
   4   5   3 103.389 8.94904   3
   0  -5   5 1960.72 82.1962   2
   5   5   0 2102.83 83.3065   2
   5   5   0 1818.08 82.6432   3
  -5   5   0 2167.05 85.9111   3
   0  -5  -5 2051.93 83.3687   1
   0   5  -5 2020.71 83.5428   3
   5  -5   0 2105.23 81.5891   2
  -5   0   5 1883.02 82.9108   2
  -5  -5   0 2057.25 82.5432   1
  -5   0  -5 2067.10 81.7822   1
  -5   0   5 1979.97 81.2644   1
  -5   5   0 2081.50 81.9866   1
   5   0   5 2008.93 83.3082   2
  -5   0  -5 2045.15 82.2598   3
  -5   0   5 2058.47 83.1051   3
  -5  -2   5 121.830 7.59961   2
  -5  -5   2 111.900 6.54429   1
  -5  -5  -2 107.579 7.08180   1
  -5  -5   2 124.594 7.36306   2
  -5   2  -5 117.919 6.97898   3
  -5   2   5 108.021 8.11694   3
  -5   5  -2 113.946 7.61709   3
  -5   5   2 128.245 11.5724   3
  -2   5  -5 115.671 7.69782   3
   2   5  -5 115.115 7.58871   3
   5   2  -5 122.612 7.32745   3
   5   2   5 103.323 6.63090   3
   5   5  -2 129.360 7.11423   3
   5   5   2 147.351 9.86311   3
  -5   5   2 124.497 6.74100   1
  -2  -5  -5 114.708 7.48589   1
  -2  -5   5 112.686 5.39783   1
   2  -5  -5 117.095 7.38113   1
   2  -5   5 113.286 5.96470   1
  -5   2  -5 110.740 5.98065   1
  -5   2   5 117.673 7.04290   2
  -2  -5   5 112.778 6.84312   2
   2  -5   5 110.156 6.68171   2
   2   5   5 116.489 5.96140   2
   5  -5  -2 118.251 6.01141   2
   5  -5   2 127.434 6.68566   2
   5  -2   5 123.501 7.63159   2
   5   2   5 121.551 7.48726   2
   5   5   2 113.512 7.03686   2
  -5   2   5 120.388 6.37056   1
  -5  -2  -5 122.311 6.82851   1
  -5  -2   5 109.035 5.77096   1
  -5   5  -2 118.348 6.29333   1
   4  -5  -5 585.808 26.8928   1
  -5   4  -5 631.698 27.3738   3
  -5   5  -4 619.322 27.5580   3
  -4   5  -5 602.506 27.6216   3
  -5  -5   4 585.691 25.5881   1
  -5  -4  -5 579.135 26.9063   1
  -5  -4   5 608.250 25.2952   1
  -5   4  -5 612.845 25.3438   1
  -5   4   5 590.332 26.1335   1
   5   4   5 616.096 26.7238   2
   5   5   4 615.207 26.5583   2
   4   5   5 632.438 26.2270   2
   5  -5  -4 630.086 25.4868   2
   5  -5   4 611.634 26.5683   2
   4   5  -5 629.124 27.4942   3
   5   4  -5 626.497 27.1949   3
   5   5  -4 622.323 27.0631   3
  -5   5  -4 607.459 25.5247   1
  -5   5   4 590.813 26.2814   1
  -4  -5  -5 585.534 27.2137   1
  -4  -5   5 596.872 25.1516   1
  -4   5  -5 585.887 25.1731   1
  -5  -5   4 570.526 27.1497   2
  -5  -4   5 622.777 27.4421   2
  -5   4   5 621.682 26.1133   2
  -4  -5   5 572.190 26.9115   2
   4  -5   5 580.987 26.5572   2
   5  -4   5 611.041 27.0619   2
   0  -6   0 2457.54 98.3856   1
   0   0  -6 2430.46 96.3914   1
  -6   0   0 2414.46 97.1158   1
   0   0   6 2505.38 99.0516   3
   0   6   0 2410.09 99.2850   3
   0  -6   0 2448.23 96.2856   2
   0   0   6 2477.31 97.5506   2
   6   0   0 2223.56 98.6208   2
  -1   6  -1 1315.78 55.2815   3
  -1   6   1 1358.07 57.2805   3
   1   1  -6 1314.09 55.1793   3
   1   1   6 1359.56 55.2925   3
   1   6  -1 1341.61 55.1030   3
   1   6   1 1319.23 56.5795   3
  -1   1   6 1304.17 53.5024   2
  -6   1   1 1310.12 53.2483   1
  -1  -6   1 1260.36 54.0618   1
  -1  -1  -6 1315.68 53.0704   1
   1  -6  -1 1287.94 54.5798   1
   6  -1   1 1284.13 54.8695   2
   6   1  -1 1307.69 55.3105   2
   6   1   1 1261.94 55.0674   2
   1  -6   1 1299.04 52.5728   2
   1  -1   6 1327.14 53.9873   2
   1  -1  -6 1293.77 53.4278   1
   6  -1  -1 1230.28 54.7519   2
  -1  -1   6 1309.00 53.8912   2
  -1   1   6 1298.85 55.1510   3
  -1   1  -6 1317.27 55.0847   3
  -1  -6   1 1294.82 52.9800   2
   1   1   6 1294.83 53.6293   2
  -6   1  -1 1294.73 53.3271   1
   1  -6   1 1341.50 54.3582   1
  -6  -1   1 1315.14 53.3649   1
  -6  -1  -1 1341.38 53.6095   1
   6   0  -2 1.44560 1.43728   2
   2  -6   0 0.50903 0.97775   1
   0   2   6 1.49003 1.61238   3
   2   6   0 0.90112 1.81939   3
  -6  -2   0 1.44547 0.97341   1
   0   2  -6 2.52247 1.52606   3
  -2  -6   0 0.77614 0.94625   2
  -6   2   0 0.88601 0.83678   1
   0   6   2 -0.4682 2.95972   3
   2   0   6 0.59941 1.03414   2
   6   0   2 1.25432 1.42299   2
  -2   0  -6 0.06052 1.15376   3
  -2   0  -6 1.43597 0.77183   1
   0   6  -2 1.46581 1.49026   3
   0  -2   6 0.38852 1.00896   2
   0   2   6 0.75405 0.94649   2
   0  -2  -6 0.96954 1.02534   1
   0  -6  -2 0.82448 1.17002   1
   0  -6   2 0.87579 1.00074   1
   2   0  -6 1.06738 0.81731   1
   6  -2   0 2.05969 1.36902   2
   6   2   0 0.26663 1.11791   2
  -2   0   6 1.70023 1.15352   2
  -2   6   0 1.44820 2.20192   3
  -6   0  -2 -0.0575 0.73007   1
  -6   0   2 0.46345 0.73038   1
  -2  -6   0 3.36587 1.52190   1
   0  -6   2 0.24242 0.75895   2
  -2   0   6 -0.1256 1.23606   3
   2   2   6 2417.01 90.0910   3
   6   2   2 2296.82 89.8907   2
   2   6  -2 2136.68 89.5686   3
  -2  -6   2 2256.76 88.2568   2
  -2  -2   6 2239.51 88.9217   2
  -2   2  -6 2288.27 89.8552   3
  -6  -2   2 2160.18 89.7527   2
  -2   6   2 2348.58 93.7567   3
   2   2  -6 2040.09 89.6949   3
   2   6   2 2481.42 92.9951   3
   2   2   6 2197.54 88.3800   2
   2   6   2 2314.21 87.7106   2
   6  -2  -2 2231.19 89.4009   2
   2  -2  -6 2233.90 88.5252   1
  -6   2  -2 2253.31 88.0596   1
   2  -6   2 2094.10 88.5925   1
  -6  -2  -2 2086.55 88.5278   1
  -6  -2   2 2197.46 88.0708   1
  -2   6  -2 2302.02 90.1854   3
  -6   2   2 2029.58 87.9217   1
  -2  -6  -2 2048.53 89.3894   1
  -2   2   6 1908.86 87.8840   2
   2  -6   2 2093.99 87.5943   2
   2  -2   6 2115.86 88.9014   2
  -2  -2  -6 2121.80 88.3094   1
   2  -6  -2 2239.70 89.3712   1
   6  -2   2 1996.87 89.3522   2
  -2  -6   2 2214.15 88.4254   1
   6   3   1 178.120 9.93099   2
  -3   6   1 182.680 12.3486   3
  -6  -3   1 171.875 8.66263   1
  -6   1   3 171.802 8.79792   3
  -1   3   6 143.932 11.1158   3
   6  -1   3 162.129 9.68082   2
   6   1  -3 178.050 8.53089   3
   3   1   6 167.623 9.04161   2
   3  -6   1 172.089 7.85905   2
  -1  -6   3 164.846 8.37400   2
  -6   1   3 167.575 8.27529   1
  -3  -6  -1 158.227 9.21325   1
  -6   3  -1 177.729 10.1279   3
  -1  -3  -6 162.739 9.01368   1
   3   1   6 199.962 9.94474   3
  -3  -1   6 163.386 7.51865   1
  -6   1   3 161.377 9.55331   2
  -3   1  -6 170.322 7.75568   1
  -3   1  -6 172.006 9.57220   3
  -1   3   6 161.462 8.04683   2
  -3  -1   6 176.391 9.20332   2
   1  -3   6 169.558 9.01234   2
  -6   3  -1 171.696 8.37694   1
  -1  -6   3 163.024 8.38737   1
  -6  -1  -3 157.719 8.55326   1
   6  -3  -1 172.913 9.10054   2
   1   3  -6 159.672 9.66499   3
   3   6  -1 169.335 9.58129   3
   1   6   3 159.401 12.9798   3
   3  -6   1 161.156 8.80513   1
   3  -1  -6 166.821 8.28456   1
  -1   6  -3 171.284 9.91300   3
  -1   3  -6 174.671 9.87021   3
  -6   1  -3 173.314 8.41513   1
   1   6  -3 163.161 9.63835   3
  -6  -1   3 170.844 8.26223   1
   1  -6   3 169.077 8.82118   1
   1  -3  -6 171.350 9.17710   1
  -3  -6   1 172.975 8.64567   2
  -1  -6  -3 176.369 9.80152   1
  -3  -1  -6 166.150 8.28305   1
   3  -1   6 170.190 9.19903   2
   3   1  -6 160.190 9.77021   3
  -1  -3   6 174.262 9.07580   2
   3  -6  -1 167.923 9.15229   1
  -3  -6   1 170.926 8.95717   1
   1   3   6 162.878 8.23677   2
  -6   3   1 169.217 8.43882   1
   6  -3   1 165.384 9.20715   2
   6   3  -1 165.635 9.99514   2
   6   1   3 156.062 9.62737   2
  -6  -3  -1 165.692 8.80823   1
  -3   6  -1 171.896 10.2338   3
  -3   1   6 159.760 8.72573   2
  -6  -1   3 158.952 9.60319   2
   1  -6   3 171.152 8.27768   2
  -6   3   1 183.294 11.9731   3
   3   6   1 171.780 11.0903   3
  -3   1   6 161.276 9.80178   3
   3   6   1 172.171 8.66240   2
  -3   6  -3 184.749 10.0961   3
  -3  -3  -6 143.085 8.53942   1
  -3   3   6 150.555 8.14079   2
   3  -6   3 143.038 7.95662   2
  -3  -6   3 166.507 8.69000   2
   3   6  -3 151.225 9.22133   3
  -6  -3   3 167.669 9.60577   2
   3   3   6 164.871 8.51225   2
   3   6   3 167.818 8.04515   2
  -3   3   6 175.517 12.0026   3
  -6  -3  -3 150.535 8.68950   1
  -6  -3   3 179.519 8.28051   1
   6   3  -3 151.291 8.19856   3
  -6   3   3 142.641 8.06801   1
  -3  -6  -3 145.620 9.24058   1
   3  -3   6 148.078 8.87056   2
  -3  -3   6 178.030 9.31333   2
   3   3  -6 148.658 9.38074   3
   6  -3  -3 177.344 9.08955   2
   6  -3   3 148.878 9.06487   2
   6   3   3 171.605 9.47843   2
  -3   3  -6 173.846 9.60709   3
   3  -6   3 151.175 8.29077   1
   3  -3  -6 171.782 8.81658   1
  -3  -6   3 167.141 8.18899   1
  -3  -3   6 159.967 6.97437   1
  -3   3  -6 163.860 7.16293   1
   3  -6  -3 168.088 9.26506   1
  -6   3  -3 176.178 8.82302   3
  -6   3  -3 173.578 8.10898   1
   3   6   3 173.425 12.8771   3
  -6   0   4 528.741 22.9132   1
  -4   6   0 582.644 27.0950   3
  -4   6   0 541.176 23.4178   1
   0   6  -4 546.195 25.0194   3
  -6   0   4 490.740 24.4193   2
   6   0   4 510.562 24.7771   2
   0   4  -6 529.270 24.8888   3
   4   6   0 577.570 25.0723   3
   0   4   6 538.067 22.5994   2
  -4   0   6 531.718 24.8068   3
   4  -6   0 544.669 22.4343   2
  -4   0   6 497.121 23.9784   2
  -4  -6   0 548.366 23.6493   2
   0  -4   6 534.586 23.8974   2
   0  -6   4 543.055 23.3796   2
  -6   0   4 528.904 23.7943   3
   0  -6  -4 536.594 24.8089   1
  -4  -6   0 550.511 24.1273   1
   6  -4   0 567.614 23.8060   2
  -6   0  -4 540.402 23.3176   1
  -6  -4   0 563.145 23.9047   1
  -6   4   0 552.701 23.2628   1
  -4   0  -6 549.288 23.0096   1
   0  -4  -6 573.321 24.4905   1
  -4   0  -6 543.399 24.3936   3
   0  -6   4 484.347 22.8151   1
   6   4   0 551.014 24.9960   2
  -4   0   6 529.195 22.5750   1
  -6   4   0 569.841 27.0365   3
   4   0   6 526.036 24.2892   2
  -2   4   6 90.2336 4.73618   2
  -6  -4   2 76.6718 5.98124   2
  -6   2   4 86.8821 5.97627   2
  -2  -4  -6 80.1749 5.83301   1
   4   2   6 75.1610 5.78802   3
   6  -2   4 92.4100 6.42225   2
   4   2   6 77.2116 5.58697   2
  -2  -6   4 81.0215 4.60874   1
  -4   6   2 93.8164 9.72808   3
  -6   2   4 89.3172 5.08127   1
  -6  -2  -4 91.7731 5.58658   1
  -6   4  -2 78.5721 4.89661   1
   4   6  -2 90.0754 6.03908   3
   2   6   4 77.5219 4.39066   2
  -4  -2   6 76.2076 4.20322   1
   6   2  -4 93.0965 5.58438   3
  -2  -6   4 85.7044 5.50130   2
   2  -6  -4 82.4811 6.05002   1
  -4   2  -6 79.0658 4.39633   1
   2   4  -6 91.0936 6.47070   3
  -4  -2   6 82.6903 5.91065   2
   2  -4   6 99.2655 5.88148   2
   6   4   2 76.7883 5.90810   2
  -6   4  -2 82.7272 6.04281   3
  -6  -4   2 81.6451 5.17022   1
  -2   6  -4 77.5675 6.23263   3
   6  -4  -2 83.8302 5.26944   2
  -4   2  -6 86.2196 5.98794   3
   4  -6   2 91.8937 4.98891   2
   4  -2   6 80.8397 5.87263   2
   6   4  -2 93.1916 5.25106   3
  -4   6  -2 88.5257 5.07739   1
   4  -6  -2 78.5382 5.64028   1
  -6  -4  -2 94.0001 5.86798   1
   2   6  -4 87.9709 6.32293   3
   2   4   6 79.7307 4.84428   2
  -4  -6   2 75.8409 5.46706   2
  -6   4   2 61.9979 8.53059   3
  -4   2   6 93.6220 5.61796   2
  -4   2   6 81.8468 6.73521   3
  -2  -4   6 78.4719 5.65636   2
   6   2   4 76.1654 6.01297   2
  -4   6  -2 82.6338 6.51455   3
  -2   4  -6 78.2916 6.16014   3
  -6  -2   4 80.2237 4.75895   1
   4   6   2 81.0053 8.27288   3
  -6   2  -4 78.9631 5.19757   3
  -4  -2  -6 91.0314 5.46326   1
   2  -6   4 94.0268 5.35841   2
   4   2  -6 101.768 6.62990   3
  -4   2   6 92.1451 5.06057   1
  -2  -6  -4 88.8307 6.38802   1
   2  -6   4 88.2157 5.20725   1
  -4  -6   2 78.7239 5.24312   1
   4   6   2 76.9478 5.23064   2
   6  -4   2 96.7299 5.85978   2
  -6  -2   4 73.0336 6.01138   2
  -6   2  -4 84.5582 4.94353   1
   2  -4  -6 75.2621 5.68105   1
   4   6   4 619.202 26.7620   2
   6  -4   4 652.145 28.0560   2
  -4  -6   4 543.174 27.3774   2
  -4  -4   6 582.195 27.8718   2
   4   4   6 640.704 27.2669   2
   6  -4  -4 635.163 27.1360   2
   6   4   4 618.260 27.8589   2
  -6  -4   4 607.672 28.3054   2
  -6   4  -4 621.933 27.8659   3
  -6  -4  -4 627.252 27.8508   1
  -6   4  -4 604.252 26.3831   1
  -6   4   4 640.334 27.0698   1
  -4  -6  -4 654.330 28.5626   1
  -4  -6   4 617.567 26.4634   1
  -4  -4  -6 650.243 27.9311   1
  -4  -4   6 573.342 25.5265   1
  -4   4  -6 571.244 25.6884   1
  -4   6  -4 602.688 26.2989   1
   4  -4  -6 614.105 27.5881   1
   4   6  -4 707.268 28.6207   3
  -4   4  -6 600.809 28.2503   3
  -4   6  -4 616.062 28.6660   3
   4   4  -6 661.198 28.5703   3
   4  -4   6 638.568 27.9461   2
  -6  -4   4 595.056 26.4460   1
   6   4  -4 685.757 27.6863   3
  -4   4   6 688.735 26.8309   2
   4  -6   4 674.259 27.2162   2
  -6   1   5 849.381 35.5539   3
  -5  -1   6 746.396 35.1596   2
  -5   6   1 811.831 34.3162   1
  -1  -5  -6 852.364 35.6113   1
  -6  -5   1 775.591 35.2492   2
   5  -6   1 851.788 33.7279   2
  -5   6   1 911.110 39.8372   3
   6  -5  -1 811.134 33.9343   2
   6   1  -5 843.400 35.1596   3
  -6  -1  -5 854.340 34.1943   3
  -1  -6   5 775.268 34.3972   2
   6  -1   5 838.269 35.9842   2
  -6  -5   1 793.658 34.5767   1
  -5   1  -6 772.681 34.8098   3
  -6   1   5 849.762 33.8457   1
  -5  -6  -1 820.128 35.1865   1
   5   1   6 772.344 35.3422   2
  -5  -1   6 740.490 33.1649   1
  -5   1  -6 778.772 33.5486   1
   6   5   1 812.125 35.4856   2
   5   6  -1 850.311 35.2085   3
  -1  -6   5 747.669 32.9025   1
   1  -6  -5 767.983 35.5174   1
  -6   5  -1 813.924 37.0342   3
   1   5  -6 798.205 35.8693   3
  -6   5  -1 798.314 34.0222   1
  -6  -1  -5 843.848 34.4171   1
  -6   1   5 803.743 35.2390   2
   1  -5   6 813.632 34.6615   2
  -1   6  -5 772.645 35.8741   3
  -5   1   6 802.191 36.0943   3
  -6   1  -5 797.059 33.8755   1
   5   6   1 773.027 34.7993   2
   5   1  -6 851.877 35.7921   3
  -5   6  -1 825.449 34.1886   1
  -5  -1  -6 834.689 35.0283   3
  -5  -6   1 752.968 34.6366   2
   1  -6   5 779.355 33.5136   1
   5   6   1 774.909 36.6490   3
  -5   1   6 806.692 35.0015   2
  -6   1  -5 816.097 34.3358   3
   1  -6   5 831.668 34.3863   2
   1   6  -5 830.365 35.9850   3
  -5  -6   1 790.116 34.6208   1
  -1   5  -6 782.896 35.8806   3
  -6  -5  -1 844.233 35.0491   1
   6   1   5 792.502 35.7262   2
  -1  -6  -5 851.957 35.9026   1
  -6   5   1 927.484 40.1682   3
  -6  -1   5 781.956 33.5200   1
  -1  -5   6 767.832 34.6507   2
   5  -1   6 801.646 35.5145   2
   1   5   6 814.800 33.2670   2
   5  -6  -1 809.046 33.2176   2
  -5   6  -1 793.194 36.8119   3
   6  -5   1 892.916 34.4698   2
   1  -5  -6 779.639 35.3659   1
  -6  -1   5 763.857 35.4230   2
  -5   1   6 825.604 33.7159   1
  -6   5   1 841.227 34.3115   1
  -5  -1  -6 827.688 34.2018   1
   6   5  -1 841.749 34.4903   3
   6  -3   5 344.526 17.3454   2
   6   3  -5 373.412 16.9673   3
   5   3   6 338.334 16.7392   2
  -6   3   5 365.074 16.7510   2
   3  -5   6 343.950 16.6154   2
  -5   3  -6 361.551 17.2459   3
   5   3   6 341.324 17.0075   3
  -3  -5  -6 333.560 17.1992   1
  -6  -5   3 331.562 17.0962   2
   3   5  -6 345.799 17.6135   3
  -3  -6   5 343.955 16.7200   2
   5   6  -3 372.335 17.1699   3
   3   6   5 345.235 15.4856   2
  -6   5  -3 360.697 15.8296   1
   6   5   3 338.678 16.7568   2
  -5  -3   6 325.800 14.9580   1
  -5   3  -6 331.910 15.1452   1
  -5  -6  -3 352.207 17.2814   1
  -6   3   5 362.728 16.0688   1
  -3  -6   5 339.841 15.1219   1
   3  -6  -5 333.833 17.0871   1
   5  -6   3 364.695 16.1235   2
  -5   6   3 357.408 16.4955   1
   6  -5  -3 344.963 15.6520   2
  -3   6  -5 348.900 17.8237   3
  -6  -3  -5 363.405 16.7963   1
  -6   5  -3 340.329 17.3167   3
  -5  -3   6 342.085 17.2327   2
  -6  -5   3 359.342 16.0868   1
  -5   3   6 353.569 16.0147   1
  -6  -5  -3 354.006 17.1425   1
  -3  -6  -5 363.149 17.6311   1
   3  -5  -6 345.501 17.0059   1
  -5  -6   3 339.276 16.8752   2
  -6  -3   5 338.286 17.4190   2
  -3   5  -6 325.036 14.8193   1
   3   5   6 355.541 15.7545   2
   3  -6   5 350.520 15.7792   1
   5   6   3 351.485 16.3730   2
  -6  -3   5 355.346 15.4807   1
   6   3   5 352.611 17.1665   2
  -3  -5   6 331.088 14.5505   1
  -6   5   3 360.166 16.3513   1
  -3   5  -6 351.349 17.7308   3
  -6   3  -5 360.011 15.5921   1
  -5   3   6 379.196 16.5588   2
   3  -6   5 354.970 16.3424   2
   5  -3   6 351.554 17.3190   2
   6   3   5 353.202 16.3420   3
  -3  -5   6 358.605 17.0569   2
   6  -5   3 361.972 16.5991   2
  -5  -3  -6 360.508 16.7174   1
   3   6  -5 358.888 17.6353   3
   5   3  -6 371.869 17.4681   3
  -5  -6   3 353.924 16.0924   1
   6   5  -3 370.252 16.6428   3
  -5   6  -3 346.538 15.7351   1
  -5   6  -3 359.618 17.9035   3
  -6   3  -5 360.464 16.8483   3
   6  -5   5 1114.68 46.8956   2
   6  -5  -5 1125.83 45.5762   2
   5   5   6 1182.67 46.3816   2
   5   6   5 1132.98 46.0160   2
   5   6  -5 1089.55 47.2494   3
   6   5  -5 1152.32 47.0736   3
   5  -5   6 1090.40 46.8866   2
  -6   5  -5 1119.59 47.4914   3
  -5   5  -6 1129.44 47.7643   3
  -5   6  -5 1137.83 48.0107   3
  -6  -5   5 1137.56 47.6041   2
  -5  -6   5 1095.00 47.1216   2
  -5  -5   6 1104.93 47.2937   2
   5  -6   5 1099.47 46.4417   2
   5   5  -6 1102.38 47.4074   3
   5  -6  -5 1075.82 47.0291   1
   5  -5  -6 1120.66 46.9699   1
   6   5   5 1139.86 46.6110   2
  -5   6  -5 1078.88 45.1626   1
  -5   5  -6 1058.00 44.8384   1
  -5  -5  -6 1048.62 47.0970   1
  -5  -5   6 1053.66 44.6851   1
  -6  -5  -5 1075.19 47.1664   1
  -6  -5   5 1066.91 45.1692   1
  -6   5  -5 1108.74 45.2753   1
  -6   5   5 1068.34 46.1303   1
  -5  -6  -5 1042.84 47.2876   1
  -5  -6   5 1112.12 45.2304   1
  -6   0   6 209.525 11.7261   3
   6   0   6 203.867 11.8359   2
  -6   0  -6 203.227 10.7053   3
  -6  -6   0 205.525 11.1025   1
   0  -6  -6 207.253 11.6822   1
   6   6   0 199.970 11.9454   3
  -6   0  -6 210.377 10.3325   1
  -6   0   6 204.963 9.84797   1
  -6   6   0 212.154 10.4943   1
  -6   0   6 200.141 11.4343   2
   0  -6   6 202.298 10.7895   2
   6  -6   0 217.992 10.0305   2
   6   6   0 212.864 11.6806   2
   0   6  -6 198.367 11.9240   3
  -6   6   0 216.530 14.5688   3
  -6   2  -6 1044.32 44.7226   1
  -6  -2   6 1001.11 44.3663   1
  -6  -6  -2 1121.14 46.6403   1
  -6  -6   2 1063.19 45.6650   1
   6  -2   6 1153.85 47.2691   2
   6   2   6 1042.01 46.5692   2
   6   6   2 1049.32 46.1170   2
  -6   2   6 1147.68 45.1586   1
  -6  -2  -6 1173.62 45.9194   1
  -6  -6   2 1005.54 46.1884   2
  -6  -2   6 989.657 46.7789   2
  -2  -6   6 973.555 45.7167   2
   2  -6   6 1139.37 45.9163   2
   2   6   6 1040.05 44.2554   2
   6  -6  -2 1013.05 44.3405   2
   6  -6   2 1202.21 45.4124   2
  -6  -2  -6 1161.23 46.0808   3
  -6   2  -6 1038.73 45.9443   3
  -6   2   6 1160.50 47.5536   3
  -6   6  -2 1030.94 47.3940   3
  -6   6   2 1152.30 52.6750   3
  -2   6  -6 995.634 47.0477   3
   2   6  -6 1162.55 47.4902   3
   6   2  -6 1191.73 46.8935   3
   6   6  -2 1177.88 46.2126   3
   2  -6   6 1082.59 44.5515   1
  -6   6   2 1130.28 45.7108   1
  -2  -6  -6 1160.70 47.2623   1
   2  -6  -6 1026.46 46.6599   1
  -6   6  -2 1069.04 45.1891   1
  -4   6  -6 254.817 13.9092   3
   4   6  -6 228.614 13.2165   3
   6   4  -6 243.325 13.0122   3
   6   6  -4 236.339 12.7642   3
  -6  -6  -4 211.880 12.8810   1
   6   6   4 255.309 12.4950   2
  -6   4   6 202.319 15.6487   3
  -6   6  -4 258.996 13.7206   3
  -6   4  -6 253.911 13.1971   3
  -6  -6   4 261.553 11.8862   1
  -6  -4  -6 223.786 12.6576   1
  -6  -4   6 244.525 11.0867   1
  -6   4  -6 246.128 11.2274   1
  -6   4   6 225.511 11.8894   1
  -6   6  -4 262.925 11.7138   1
  -6   6   4 231.771 12.2286   1
  -4  -6  -6 222.807 13.1503   1
  -4  -6   6 247.180 10.8127   1
  -4   6  -6 250.406 11.0497   1
   4  -6  -6 245.871 13.0423   1
   6  -6   4 227.297 12.1155   2
   6  -4   6 224.371 12.9330   2
   6   4   6 260.936 12.8253   2
   6  -6  -4 246.729 11.0032   2
   4   6   6 264.557 11.8132   2
  -4  -6   6 268.214 13.3621   2
   4  -6   6 224.179 12.2862   2
  -6  -4   6 264.745 13.7261   2
  -6   4   6 228.459 12.0100   2
  -6  -6   4 254.516 13.2460   2
   6   6  -6 31.9955 4.13855   3
   6  -6   6 28.6775 3.61816   2
  -6  -6  -6 40.4750 4.54519   1
   7   0  -1 93.2827 6.91901   2
  -1   0   7 100.102 6.07874   2
   7   0   1 91.4375 6.80418   2
   0   1   7 98.5669 5.86698   2
   7  -1   0 101.043 6.95313   2
  -7   0   1 96.9751 5.62072   1
  -1   0   7 96.0787 7.13985   3
   0   7  -1 99.4912 7.23249   3
   0   7   1 101.549 8.62676   3
   1   0   7 95.7805 6.99252   3
  -1   0  -7 93.0019 4.86111   1
   0   1   7 95.5556 7.09536   3
  -1  -7   0 105.171 6.70799   1
   0  -1  -7 93.8087 5.43372   1
  -1  -7   0 104.841 5.16023   2
   0  -1   7 96.0451 6.08315   2
  -1   7   0 90.4796 7.66456   3
   0   1  -7 101.050 7.17927   3
   1  -7   0 96.7394 6.58407   1
   0  -7   1 92.1838 5.01921   2
   1   0   7 108.452 6.18114   2
  -7   0  -1 96.4926 5.68436   1
  -7   1   0 102.289 5.65946   1
   1   7   0 101.833 7.63711   3
   0  -7  -1 97.1554 6.73003   1
   0  -7   1 99.1978 6.50720   1
   1   0  -7 87.5539 5.03657   1
  -7  -1   0 94.6750 5.64695   1
   7   1   0 94.1723 7.01118   2
  -1  -7   2 8.75087 2.02296   1
   1  -7  -2 8.05674 2.13170   1
   2  -7   1 3.22178 1.44711   1
  -7  -2   1 11.2182 1.96169   1
   2   7  -1 5.61703 2.19585   3
   2  -7   1 4.56531 1.06873   2
  -7   2  -1 11.1043 1.88622   1
   2  -1  -7 10.3526 1.91254   1
  -7   1   2 3.11349 1.09881   1
   7   1  -2 6.07038 2.22696   2
  -1   2   7 4.97528 2.10163   3
  -1  -2  -7 5.34979 1.57471   1
  -1  -7   2 9.46306 1.78617   2
  -2  -7  -1 4.31920 1.71974   1
  -1   7  -2 9.50108 2.86021   3
  -1   2   7 7.54066 1.71225   2
   1  -2   7 3.20817 1.47498   2
  -2  -1   7 8.09142 1.95402   2
  -2   7   1 4.16705 3.66191   3
   7  -2  -1 11.2903 2.62297   2
  -7  -1  -2 3.84329 1.37413   1
   2   1   7 10.3915 2.69420   3
   7   2   1 6.07443 2.10442   2
   2   1   7 10.1114 2.07517   2
   7  -1   2 4.45610 1.92682   2
   1   7   2 11.7148 4.70844   3
  -2   1  -7 11.3780 2.78723   3
   1   2  -7 4.38848 1.89085   3
   2   1  -7 2.82530 1.69568   3
  -2   1   7 3.10591 1.92583   3
   2  -7  -1 7.39036 2.03844   1
  -2  -7   1 12.1544 2.04201   2
  -2  -7   1 10.3126 2.33429   1
   1  -7   2 5.04627 1.25540   2
  -1  -7  -2 3.64875 1.69433   1
  -7   2   1 3.72549 1.23452   1
   2   7   1 13.3029 4.43218   3
   1  -7   2 2.75811 1.39937   1
   7  -1  -2 10.7318 2.60938   2
  -1  -2   7 11.6854 2.28125   2
  -2   1   7 1.97278 1.17299   2
  -7  -2  -1 5.00417 1.54428   1
   7  -2   1 3.50283 1.68262   2
   7   2  -1 3.54167 1.82712   2
   1   2   7 11.7505 2.92296   3
  -7   1  -2 10.9173 1.91122   1
   1   2   7 9.75015 1.90191   2
   7   1   2 8.91549 2.60532   2
   2   7   1 9.03178 1.66138   2
  -7  -1   2 7.99287 1.59841   1
  -2   7  -1 12.6286 3.36315   3
  -1   2  -7 12.3759 2.95209   3
   1   7  -2 5.06537 2.16691   3
  -1   7   2 3.51504 3.86546   3
   1  -2  -7 8.97939 1.97851   1
   2  -1   7 5.84203 1.75601   2
   3  -7   0 6.47883 1.04834   2
  -7   3   0 3.71661 1.17632   1
  -3   0  -7 5.43691 1.22525   1
  -3  -7   0 6.62621 1.64788   2
  -7   0   3 3.06488 1.16175   3
   0   7  -3 8.11018 2.70665   3
  -7  -3   0 4.73010 1.52131   1
   3   0  -7 6.25663 1.38180   1
   0   3   7 4.73598 1.34934   2
  -3   0   7 6.01298 1.82081   2
   3   7   0 7.25790 3.12577   3
   3   0   7 5.34296 1.72358   2
  -7   0  -3 4.85500 1.39383   1
   0   7   3 4.83945 4.40185   3
  -3  -7   0 5.16435 1.78792   1
   0  -3  -7 3.39915 1.44227   1
   3  -7   0 6.62836 1.86727   1
  -3   0   7 6.11902 2.28860   3
   7  -3   0 6.92453 2.04562   2
  -7   0   3 4.78129 2.09848   2
   0  -7  -3 4.52770 1.87672   1
   0  -7   3 5.30628 1.58655   1
   0  -3   7 4.49992 1.61600   2
  -3   0  -7 6.00922 2.13598   3
  -3   7   0 5.12210 2.99895   3
   0   3  -7 3.59652 1.87101   3
  -7   0   3 5.77428 1.36234   1
   7   0   3 6.28424 2.21068   2
  -7   3   0 3.11921 3.42454   3
   0  -7   3 5.35311 1.33640   2
   7   3   0 4.16254 1.90338   2
   2  -7  -3 748.086 33.8927   1
  -2  -3  -7 778.581 33.0330   1
   3  -2  -7 746.160 32.5616   1
   3  -7   2 789.795 33.0945   1
  -2  -7   3 773.648 32.5211   1
  -2   7  -3 754.507 34.4078   3
   7   3   2 764.014 34.0819   2
  -2  -7   3 747.548 32.4661   2
  -3  -7  -2 767.214 34.0195   1
  -7  -3   2 758.868 34.2957   2
   7  -2   3 741.179 34.0075   2
   3   2   7 734.900 32.7673   2
   3   7  -2 806.094 34.2024   3
  -7   3  -2 775.958 32.3193   1
  -3  -2   7 754.139 33.3437   2
   3   2   7 749.622 34.1501   3
  -2   3   7 717.527 35.9783   3
   2   3  -7 759.945 34.3611   3
   7  -3  -2 791.063 33.4405   2
  -7  -3   2 771.662 32.5004   1
  -2   3   7 754.155 32.1092   2
  -3   2  -7 736.614 33.9038   3
  -7  -2  -3 778.164 32.9564   1
   3  -7   2 790.543 31.7989   2
  -7   2   3 765.498 32.3129   1
   2  -3   7 770.814 33.3150   2
  -3   2  -7 740.084 31.0522   1
  -2  -7  -3 754.029 34.0661   1
   3   7   2 871.270 37.3192   3
   7  -2  -3 767.453 33.8344   2
  -7   2  -3 788.128 32.3277   1
  -3  -7   2 760.375 32.8208   1
  -3   2   7 739.795 32.5635   2
   2   3   7 751.058 32.3977   2
  -3   2   7 753.614 34.8142   3
   7  -3   2 777.330 33.7342   2
   2  -7   3 775.667 33.0223   1
  -3   7  -2 792.401 34.8609   3
  -2   3  -7 768.946 34.2954   3
   2   3   7 722.968 34.5437   3
  -3  -2  -7 772.105 32.5258   1
   3   2  -7 781.864 34.5037   3
   3  -7  -2 737.084 33.4834   1
  -7  -2   3 797.095 32.3146   1
  -7  -3  -2 789.075 33.1321   1
   3  -2   7 788.088 33.5804   2
  -7   3   2 756.503 32.3392   1
  -7  -2   3 730.257 34.0690   2
  -3  -7   2 772.521 32.6937   2
  -2  -3   7 750.683 33.2613   2
   2   7  -3 793.555 34.3172   3
   7   2   3 781.748 34.2597   2
   2  -3  -7 806.453 33.3042   1
   3   7   2 777.297 32.1071   2
   2  -7   3 773.691 32.0098   2
  -7   4  -1 59.6346 6.86364   3
  -7  -1  -4 59.2412 4.44389   1
   4  -7   1 59.8672 4.69121   1
  -4   7   1 68.6462 8.36888   3
  -7   4  -1 55.5455 4.07951   1
  -7   1   4 64.9228 4.82032   3
  -4  -1   7 55.8497 3.44237   1
   4   1   7 62.7912 4.95140   2
   7  -4  -1 59.0521 4.54935   2
  -1  -7   4 60.1563 4.11536   1
  -4  -1   7 56.9542 4.87752   2
   4  -7   1 62.5288 3.66817   2
   1  -7  -4 59.7205 5.30517   1
  -7   1   4 57.5709 5.25963   2
  -1   4   7 74.1794 8.22165   3
   1   4  -7 71.2798 5.86809   3
  -1   4   7 59.5096 3.84598   2
   1  -4   7 61.2733 4.82869   2
  -4   1  -7 56.8832 3.64626   1
  -7   1   4 64.1959 4.11582   1
  -4  -7  -1 60.0614 5.07947   1
   7  -1   4 55.4799 5.29033   2
  -1  -4  -7 53.4371 4.80999   1
   7   4   1 65.7745 5.52072   2
  -1  -7   4 62.1390 4.37701   2
  -7  -4   1 58.2694 4.43489   1
  -1   7  -4 62.7194 5.62525   3
   7   1  -4 67.3445 4.58370   3
  -4   1  -7 59.7497 5.16291   3
   4   7  -1 60.7342 5.43621   3
   4  -1  -7 53.3642 3.97583   1
  -4   7  -1 56.0594 6.03861   3
  -1   4  -7 55.3001 5.31670   3
   7   4  -1 69.4418 5.88954   2
  -7  -4  -1 62.1451 4.71438   1
  -1  -7  -4 65.3827 5.54487   1
  -4  -1  -7 63.1216 4.20669   1
  -7  -1   4 59.4571 5.39870   2
   4   7   1 62.8835 4.60608   2
  -4  -7   1 57.3285 4.43791   2
  -1  -4   7 61.5268 4.95142   2
   7   1   4 53.9360 5.13953   2
   1  -4  -7 60.6751 4.98824   1
   4   7   1 62.8162 7.14850   3
  -4  -7   1 57.4339 4.66305   1
  -4   1   7 62.2522 5.75077   3
   4  -7  -1 59.0236 4.87135   1
   1  -7   4 58.7579 4.41594   1
   1   7  -4 59.3527 5.41683   3
  -4   1   7 61.4281 4.80332   2
   1  -7   4 64.5992 4.31882   2
  -7  -1   4 58.1793 3.94603   1
   1   4   7 59.4345 3.92544   2
  -7   4   1 62.1746 4.24726   1
   4   1  -7 62.1114 5.54412   3
  -4  -1  -7 57.1852 5.21162   3
   7  -4   1 64.1726 4.81263   2
  -7   4   1 71.0504 8.26188   3
  -7   1  -4 59.5784 4.17049   1
   4  -1   7 52.9654 4.80828   2
   4  -7   3 496.693 22.4293   1
  -3  -7   4 503.270 22.6445   2
   4  -3  -7 465.294 22.4478   1
   3  -4   7 491.778 23.0137   2
  -7  -4   3 491.007 23.7285   2
  -3   4   7 411.952 26.4291   3
  -7  -4   3 507.884 22.0801   1
  -4  -3   7 497.456 23.3560   2
   4   3   7 514.655 22.6582   2
   7  -4  -3 511.652 22.5748   2
  -7   4  -3 497.011 23.0638   3
   3   4  -7 512.494 24.1219   3
  -4   3  -7 505.239 23.7079   3
   7   3  -4 528.234 22.4230   3
  -7   3   4 498.463 22.1148   1
  -7  -3  -4 498.401 22.8087   1
   7  -3   4 477.486 23.4579   2
  -4  -3   7 483.740 20.6386   1
   4   7  -3 523.566 23.7727   3
  -7   4  -3 513.932 21.9224   1
  -3  -4  -7 515.723 23.1538   1
  -3   7  -4 530.544 24.4870   3
   3  -7  -4 488.750 23.4086   1
   3   7   4 514.729 21.3890   2
   4   3   7 503.477 23.8139   3
   4  -7   3 513.911 21.8798   2
   7   4   3 494.487 23.4255   2
  -3   4   7 521.041 21.7757   2
  -3  -7   4 501.969 21.7675   1
  -4   3  -7 475.958 20.8119   1
  -3  -7  -4 509.305 23.9965   1
  -7   3  -4 496.043 21.7974   1
   3  -7   4 498.291 22.0048   2
  -3  -4   7 494.572 23.2125   2
  -4  -3  -7 505.667 22.7415   1
   7   3   4 493.467 23.5202   2
   4   7   3 497.654 21.8856   2
   7   4  -3 533.234 22.2348   3
  -7   4   3 495.538 22.1790   1
  -4   3   7 551.933 22.5067   2
  -4   7  -3 499.798 24.3105   3
   4   3  -7 526.517 24.0891   3
  -3   4  -7 496.425 23.9184   3
   7  -4   3 524.876 23.2924   2
   3  -7   4 497.944 22.3428   1
   4  -3   7 509.094 23.4299   2
  -7   3  -4 501.741 22.5591   3
   3  -4  -7 505.271 22.9839   1
   4  -7  -3 514.525 23.3959   1
  -4   3   7 493.736 25.7591   3
  -4  -7   3 525.711 22.9311   2
  -7  -3   4 511.364 21.8315   1
  -7  -4  -3 519.337 23.1709   1
   3   7  -4 515.815 23.8672   3
  -3   4  -7 460.522 20.4867   1
   3   4   7 504.787 22.0757   2
  -7  -3   4 485.562 23.8305   2
  -4  -7   3 492.532 22.1287   1
   7  -3  -4 514.869 23.1128   2
  -7  -5   0 39.1330 3.80463   1
  -7   0   5 46.1183 4.67473   2
   0  -5   7 46.9501 4.27292   2
  -5  -7   0 42.8120 4.14097   1
   5  -7   0 43.4982 2.86174   2
   5   0   7 44.3887 4.40926   2
  -5   0   7 40.4832 4.12275   2
   0   5   7 45.3810 2.96780   2
  -7   5   0 40.4678 3.42769   1
  -7   5   0 36.2664 6.45740   3
  -5   0  -7 43.3488 4.25893   3
   0  -5  -7 48.4895 4.58338   1
  -7   0   5 43.8081 4.03962   3
   0   5  -7 45.9153 4.83949   3
   0  -7   5 47.0834 3.90054   2
  -5   0   7 40.7224 4.64937   3
   7  -5   0 47.8718 3.75509   2
  -5   0  -7 41.2594 3.28722   1
  -5   7   0 42.5706 6.51747   3
   7   0   5 35.8161 4.37855   2
   5   7   0 44.5310 4.16320   2
  -5   7   0 43.1030 3.64797   1
  -7   0  -5 44.5089 3.63324   1
  -7   0   5 46.5379 3.33779   1
   7   5   0 45.5843 4.72718   2
  -5   0   7 38.3961 2.94291   1
   0  -7   5 43.2713 3.18257   1
   0   7  -5 42.8022 4.72059   3
   0  -7  -5 47.6012 4.69945   1
  -7  -5   2 271.060 13.2667   1
   7  -2   5 268.080 14.6854   2
  -7   5  -2 288.584 15.2911   3
  -7   2   5 262.653 12.7666   1
   5   2   7 283.258 14.2613   3
  -7   2   5 283.241 14.2267   2
   7   5   2 273.765 14.2705   2
   2  -5   7 271.315 13.7879   2
   2   5  -7 266.891 14.7741   3
   5   7  -2 272.712 14.2255   3
  -7  -5   2 265.371 14.3170   2
  -5  -2   7 242.801 13.9620   2
  -5  -2   7 265.660 11.9250   1
  -7   2   5 275.430 14.2816   3
  -5   2  -7 264.676 14.0719   3
  -2  -7   5 256.529 12.1183   1
  -5   2  -7 267.144 12.1943   1
  -2   5   7 284.234 12.1649   2
   5   2   7 276.544 13.9825   2
  -5   7   2 227.199 17.8172   3
  -2  -5  -7 280.542 14.3971   1
   7  -5  -2 271.555 12.9214   2
   5  -7   2 290.022 12.6472   2
  -7  -2  -5 276.780 13.5520   1
   7   2  -5 286.800 13.6980   3
  -5  -7  -2 279.285 14.3684   1
  -7   5  -2 273.566 12.8601   1
  -2   7  -5 254.835 14.7085   3
   2  -7  -5 261.022 14.3887   1
  -2  -7   5 278.004 13.5632   2
   5   7   2 242.297 16.3803   3
   2  -7   5 275.024 13.1313   2
   2   7  -5 261.799 14.6166   3
   2  -5  -7 274.497 14.1809   1
  -5  -2  -7 289.395 13.4001   1
  -5   7  -2 267.409 15.3034   3
  -7  -5  -2 265.876 13.8965   1
   7   5  -2 302.152 13.2800   3
  -5   2   7 264.087 12.6961   1
  -2  -7  -5 282.899 14.8060   1
  -5   2   7 268.240 13.5708   2
  -5   7  -2 280.066 12.9843   1
   7   2   5 273.378 14.4992   2
  -7  -2   5 268.115 14.5466   2
  -2  -5   7 268.188 13.8467   2
  -5  -7   2 283.564 13.7260   2
   5  -2   7 270.056 14.3479   2
  -2   5  -7 265.039 14.7831   3
  -5   2   7 259.780 14.9875   3
  -7   2  -5 270.373 13.2037   3
   2  -7   5 268.009 13.0260   1
   5  -7  -2 251.828 13.7755   1
  -7  -2   5 262.155 12.4636   1
  -7   2  -5 280.922 12.8579   1
   5   2  -7 290.228 14.8306   3
   5   7   2 271.969 13.3114   2
  -5  -7   2 273.846 13.4516   1
   7  -5   2 296.659 13.6644   2
  -7   5   2 266.317 13.1098   1
   2   5   7 270.465 12.4749   2
  -4  -7   5 154.295 8.97662   2
  -5  -7  -4 137.071 9.41105   1
   7  -5  -4 157.107 8.17424   2
  -4  -7   5 141.605 7.53434   1
  -4  -5  -7 144.784 9.27106   1
  -7   5  -4 151.111 9.40330   3
   4   7   5 155.712 7.84294   2
   7   4  -5 155.958 8.85187   3
   4  -7  -5 148.842 9.31373   1
   4  -5   7 142.450 8.96983   2
  -4   5   7 156.853 7.70825   2
  -7   4   5 150.679 8.34186   1
   7   5   4 154.403 9.10888   2
   5  -4  -7 153.058 8.88683   1
   5   4   7 156.920 8.71621   2
  -5   4  -7 155.883 9.58916   3
  -5   4  -7 147.341 7.18175   1
   7  -4   5 157.347 9.44574   2
  -7  -5   4 146.957 9.51007   2
  -5  -4   7 140.889 9.35026   2
  -5  -4   7 148.890 6.98813   1
  -7   5  -4 148.616 7.86631   1
  -7   4   5 131.716 11.5802   3
  -4   7  -5 148.259 9.99178   3
  -7  -5   4 153.305 8.10672   1
   5  -7   4 154.773 8.27927   2
   5   7  -4 156.626 9.52225   3
   5   4   7 136.281 9.32791   3
   4   5  -7 147.134 9.67850   3
  -7  -4  -5 140.997 8.95094   1
  -5  -7   4 155.532 9.16712   2
  -7   4  -5 149.077 7.77116   1
   4  -7   5 151.469 8.41857   2
   5   4  -7 170.395 9.97371   3
  -4  -5   7 136.848 9.09932   2
  -5   7  -4 146.668 9.89214   3
  -4   5  -7 148.542 9.75439   3
  -4  -7  -5 145.547 9.70010   1
   4  -7   5 146.154 8.14743   1
   7  -4  -5 154.455 8.67248   2
   4   5   7 141.735 8.01689   2
   7   5  -4 156.687 8.77535   3
   5   7   4 151.558 8.19577   2
   4  -5  -7 151.730 9.06948   1
   5  -7  -4 152.232 9.36104   1
  -5  -7   4 149.241 8.05488   1
  -7  -5  -4 156.082 9.30817   1
   7  -5   4 153.072 8.94823   2
   5  -4   7 149.095 9.31892   2
  -5  -4  -7 161.422 9.19785   1
   4   7  -5 156.423 9.76560   3
  -4   5  -7 143.294 7.25236   1
   7   4   5 148.936 9.08817   2
  -5   4   7 156.686 8.25010   2
  -7  -4   5 140.489 9.53987   2
  -5   7  -4 148.896 7.84570   1
  -7  -4   5 149.931 7.78372   1
  -7   5   4 143.902 8.37200   1
  -7   4  -5 153.846 9.10900   3
   6  -7   1 108.285 5.94742   2
  -7  -1  -6 110.459 6.69052   1
  -7   6  -1 105.923 6.41629   1
   1  -7  -6 102.035 7.58164   1
  -6   7   1 104.164 10.7672   3
  -7   6  -1 108.016 9.77915   3
  -7   1   6 108.640 7.58998   2
  -6   1  -7 101.918 5.99465   1
  -6  -1   7 109.175 7.68280   2
   7  -6  -1 107.083 6.04822   2
  -6   7   1 107.021 6.61647   1
   7  -1   6 109.789 8.00140   2
  -6   1  -7 103.805 7.03582   3
   1  -6   7 110.026 7.08481   2
  -7  -1  -6 109.610 6.44543   3
  -7   1   6 89.0058 7.08486   3
   7   6   1 107.201 7.49901   2
   6   7  -1 115.038 7.85527   3
  -6  -7  -1 107.307 7.37606   1
  -7   1   6 106.683 6.10831   1
  -1   7  -6 98.3119 7.82867   3
  -1  -7   6 115.237 7.05633   2
  -1  -6  -7 108.847 7.70573   1
   7   1  -6 115.441 7.45159   3
   6   1   7 98.5374 7.39515   2
  -7  -6   1 109.369 7.00225   1
   1   6  -7 107.938 8.06017   3
  -6  -1   7 105.670 5.73212   1
   1  -7   6 106.194 6.79752   2
  -7   1  -6 110.776 6.73243   3
   7  -6   1 108.033 6.37439   2
   6   7   1 107.752 7.16679   2
  -6   1   7 108.299 7.31380   2
   6  -7  -1 107.503 5.55554   2
  -7   6   1 136.347 12.0238   3
  -6   1   7 104.635 7.82920   3
   7   6  -1 118.247 8.10791   2
  -6   7  -1 105.524 6.42885   1
  -6  -7   1 105.860 7.01622   1
  -6  -7   1 105.134 7.16192   2
  -6  -1  -7 102.982 7.01509   3
  -7   6   1 103.187 6.46305   1
  -6  -1  -7 113.450 6.57455   1
  -1  -6   7 112.304 7.21272   2
   6  -1   7 92.1121 7.36988   2
  -6   1   7 111.549 6.09942   1
   6   1  -7 104.614 7.60946   3
  -1   6  -7 97.3043 7.74833   3
   6   7   1 103.211 9.13126   3
   1  -6  -7 109.666 7.66701   1
   7   1   6 98.4669 7.55687   2
  -7  -6  -1 110.845 7.31511   1
  -6   7  -1 116.284 9.68140   3
   1   6   7 106.739 5.48272   2
  -7   1  -6 105.216 6.23952   1
   7   6  -1 111.684 7.28156   3
  -1  -7  -6 104.675 7.66526   1
   1   7  -6 109.965 8.10450   3
  -7  -1   6 106.015 5.89935   1
  -7  -1   6 103.456 7.70740   2
  -3   7  -6 19.7663 4.22656   3
   7   3  -6 23.0294 3.22973   3
  -7   6  -3 25.7235 5.08043   3
  -7   3   6 24.0302 3.73012   2
  -6   3  -7 21.0629 2.12924   1
   3   7   6 16.9229 2.00213   2
   7  -6  -3 16.1218 2.26008   2
   7   6   3 20.9847 3.45834   2
   6  -7   3 22.6657 2.60970   2
   3   6  -7 23.5883 3.72029   3
   7  -3   6 25.8513 4.35424   2
   6   7  -3 21.2672 3.24089   3
  -7   6  -3 23.2001 2.57369   1
  -6   3  -7 27.7855 3.57662   3
  -7   3   6 26.9992 2.80552   1
  -6  -7  -3 20.1827 3.82496   1
   3  -6   7 19.1022 3.24194   2
   6   3   7 22.0453 3.31616   3
  -7  -6   3 18.3537 2.90999   1
  -7  -6   3 15.9476 3.43995   2
  -7  -3  -6 25.0447 3.13816   1
  -6  -3   7 21.6413 1.99365   1
   6   3   7 19.0177 3.34710   2
  -3  -6  -7 19.2959 3.71012   1
  -3  -7   6 16.5725 3.23017   2
   3  -7  -6 20.8231 3.85581   1
   3  -7   6 19.0149 2.48046   1
  -6   7  -3 19.7761 2.45140   1
   7   3   6 22.1087 3.79516   2
   6  -3   7 21.6281 3.84807   2
  -7  -3   6 19.0130 3.91057   2
   3  -7   6 23.2677 3.33675   2
  -6   3   7 25.0594 2.68086   1
  -3  -7  -6 20.6838 3.83295   1
  -7   3  -6 20.2178 2.31638   1
  -6   7  -3 18.8908 4.40317   3
   3   7  -6 20.6420 3.62025   3
  -6  -7   3 21.5005 3.61706   2
   6   3  -7 25.5648 3.57420   3
  -6   3   7 29.3389 3.87429   2
  -7   6   3 26.2338 2.95044   1
  -6  -7   3 18.8089 2.95044   1
   3   6   7 17.0962 2.37348   2
   6   7   3 18.4310 3.03910   2
  -6   3   7 27.4009 4.41267   3
   7  -6   3 23.4505 2.86136   2
  -3  -6   7 15.2017 3.11486   2
  -3   6  -7 23.7013 4.61552   3
   7   6  -3 28.1138 3.32055   3
  -7  -3   6 17.7687 2.09053   1
   3  -6  -7 19.0099 3.50158   1
   6  -7  -3 22.3909 3.62610   1
  -7  -6  -3 21.6881 3.59275   1
  -6  -3  -7 24.0863 3.61884   1
  -7   3  -6 19.8164 2.99791   3
   7  -5   6 188.735 11.5154   2
  -7   5   6 186.417 10.7382   1
  -6  -7  -5 197.101 12.1758   1
   6   5   7 200.470 11.9729   3
  -7  -6   5 197.763 12.0257   2
  -5  -6  -7 205.901 12.0996   1
   7   6   5 204.506 11.1539   2
   6  -5  -7 209.709 11.6330   1
  -7  -6   5 201.028 10.2294   1
  -7   6  -5 209.195 10.2561   1
  -7  -5  -6 206.126 11.8470   1
  -6   5  -7 209.057 12.2698   3
  -5  -7   6 215.397 11.9706   2
  -5   7  -6 220.030 12.9094   3
   5   7   6 215.660 10.4728   2
  -6   5  -7 193.402 9.65473   1
   6   5   7 219.675 11.2220   2
   5  -7  -6 208.163 11.9269   1
   6  -7   5 216.299 11.1118   2
  -7   6  -5 195.338 12.0666   3
   5  -6   7 207.964 11.5817   2
   5   6  -7 207.380 12.3231   3
  -6  -5   7 195.878 12.0917   2
   6   7  -5 215.021 12.0022   3
   7   5  -6 207.674 11.7091   3
   5  -6  -7 212.697 11.8511   1
   7   5   6 197.256 11.2291   2
  -7   5  -6 208.260 12.0064   3
   7  -5  -6 202.048 10.4779   2
  -5   6  -7 210.163 12.6062   3
   6  -7  -5 195.733 11.7431   1
  -7  -5   6 206.475 9.97616   1
  -7   5  -6 211.150 10.0723   1
   5   7  -6 206.445 12.2672   3
  -7   6   5 197.926 10.9769   1
  -6  -5  -7 198.125 11.8126   1
   6  -5   7 210.046 11.9239   2
  -5  -7  -6 198.371 12.2276   1
   7  -6   5 212.275 11.3881   2
  -7  -6  -5 199.082 11.9892   1
  -5  -6   7 192.200 11.7380   2
   6   5  -7 206.965 12.1292   3
  -6  -7   5 216.569 10.3432   1
   7   6  -5 212.767 11.6584   3
   5  -7   6 206.259 11.1032   2
  -7  -5   6 211.024 12.3641   2
  -6  -7   5 203.169 11.7664   2
  -6   7  -5 204.509 12.5605   3
   7   5   6 210.637 11.3736   3
  -6   7  -5 202.584 10.1391   1
   6   7   5 201.719 10.6563   2
   5   6   7 213.682 10.6566   2
   0   7  -7 4.39327 2.25750   3
   0   7   7 0.19204 4.20042   3
   7   7   0 4.36886 3.92238   3
   0  -7  -7 4.45778 2.17239   1
  -7   0  -7 5.79790 1.70745   1
  -7   0   7 2.73149 1.12326   1
  -7   7   0 6.92958 1.83399   1
  -7  -7   0 4.74230 1.92721   1
   7   7   0 6.58391 2.35416   2
  -7   7   0 1.78457 4.40830   3
  -7   0   7 8.88884 2.78879   2
   0  -7   7 5.49777 2.07353   2
   7  -7   0 4.32908 1.29492   2
   7   0   7 4.00323 2.06076   2
  -7   7   2 608.546 27.1511   1
  -2  -7  -7 627.034 28.7882   1
  -7   2  -7 615.061 27.5875   3
  -7   2   7 567.364 29.0717   3
  -7   7  -2 573.923 30.0789   3
  -7  -2  -7 605.889 27.2721   3
  -7  -7  -2 612.902 28.2940   1
  -7  -7   2 626.456 27.3760   1
   2  -7  -7 616.028 28.4843   1
   2  -7   7 608.735 27.3241   2
   7  -7  -2 626.833 26.1686   2
   7  -7   2 621.808 26.5264   2
   7  -2   7 581.737 28.5967   2
   7   2   7 608.402 28.2656   2
   7   7   2 614.323 27.7303   2
  -2   7  -7 587.591 29.0342   3
  -7  -2  -7 627.726 27.3250   1
  -7  -2   7 593.964 25.8733   1
  -7   2  -7 635.081 26.3476   1
  -7   2   7 609.834 26.5251   1
  -7   7  -2 626.790 26.8136   1
  -7  -7   2 596.113 27.8783   2
  -7  -2   7 579.770 28.4089   2
  -7   2   7 660.519 28.1814   2
  -2  -7   7 614.482 27.7158   2
   7   7  -2 627.378 27.7942   3
   7   2  -7 627.003 28.3456   3
   2   7  -7 607.347 29.0379   3
  -7   4  -7 18.7204 2.16435   1
  -7  -7   4 17.6730 3.66133   2
  -7  -4   7 21.5149 4.16254   2
  -7   4   7 17.1575 2.82516   1
  -7  -4  -7 19.7273 3.54921   1
  -7  -4   7 16.1046 1.98091   1
  -7  -7   4 19.8710 3.00304   1
  -7  -7  -4 15.6398 3.47480   1
  -7   4  -7 19.2041 3.32012   3
  -7   7  -4 23.8527 4.91233   3
  -4   7  -7 15.8136 3.96235   3
   4   7  -7 20.6645 4.28079   3
   7   4  -7 20.2658 3.89853   3
   7   4   7 20.3250 3.27961   3
   7   7  -4 20.5254 3.81387   3
   4  -7   7 21.9951 3.57245   2
   4   7   7 20.2088 2.38496   2
   7  -7   4 18.6285 2.97616   2
   7  -4   7 17.2304 3.81371   2
  -7   7  -4 20.2064 2.85708   1
  -7   7   4 16.7455 2.97183   1
  -4  -7  -7 18.9214 3.89345   1
   4  -7  -7 18.1276 3.71803   1
   7  -7  -4 15.2487 3.15023   1
   7   7   4 16.7166 3.02078   2
   7   4   7 19.1735 3.48058   2
  -7   4   7 20.2947 3.32254   2
  -4  -7   7 14.2002 3.23519   2
  -7   7  -6 2.50448 1.22690   1
  -6  -7  -7 1.43513 1.95193   1
  -7  -6  -7 1.30175 1.83692   1
  -7   6  -7 2.81393 1.19935   1
   7  -6  -7 4.04546 2.10789   1
  -7   6   7 -0.5634 4.02935   3
  -7   7  -6 3.40858 2.29904   3
  -7   7   6 -0.7680 4.06969   3
  -7  -7   6 1.76351 1.56782   1
   7   6   7 1.85033 2.01193   3
  -7  -7   6 3.51562 2.33540   2
  -7  -6   7 2.30837 2.07337   2
  -6   7  -7 3.40637 2.41215   3
  -6   7   7 -1.5728 4.85001   3
   6   7  -7 2.29472 2.11820   3
   6   7   7 -0.6072 2.29998   3
   7   6  -7 4.61433 2.36812   3
  -7  -7  -6 2.26312 2.03706   1
   7   7   6 3.17768 1.69924   2
   7   7  -6 9.21952 3.02133   3
   7   7   6 -0.2271 2.34042   3
  -7   6  -7 3.34560 2.29165   3
   7  -7  -6 2.92793 1.91895   1
   7  -6   7 2.77030 1.91684   2
   6  -7  -7 2.15936 1.86473   1
  -6  -7   7 2.63386 2.18811   2
   6  -7   7 1.91384 1.69572   2
   6   7   7 2.37552 1.51498   2
   7  -7   6 3.38524 1.87281   2
   7   6   7 4.39470 1.90934   2
   0  -8   0 2435.60 97.0545   1
   0   0   8 2329.01 95.9038   2
   0   0  -8 2389.99 94.2775   1
   0   8   0 2327.72 98.9085   3
   0   0   8 2414.00 97.9486   3
  -8   0   0 2335.25 95.4226   1
   8   0   0 2301.82 97.6487   2
  -8  -1   1 396.694 18.4191   1
  -8  -1  -1 420.950 18.6864   1
  -1  -1  -8 437.752 18.0404   1
   8  -1   1 421.568 20.4086   2
  -1   1  -8 399.170 20.5411   3
  -1  -8   1 390.444 17.7659   2
  -1  -1   8 398.362 19.0798   2
  -1   1   8 417.356 18.7869   2
   1  -8   1 425.849 17.4730   2
   1  -1  -8 404.571 18.2123   1
   1  -8  -1 389.751 19.8056   1
   1  -8   1 423.377 19.8127   1
  -1   8  -1 414.227 21.1140   3
   1   8   1 405.078 22.2991   3
   1   1   8 386.869 18.7103   2
   8  -1  -1 358.900 19.8197   2
  -8   1   1 421.787 18.4579   1
   8   1  -1 428.307 20.7889   2
  -1  -8   1 397.072 19.4186   1
  -1   8   1 455.088 23.3112   3
   1   1  -8 439.355 21.0258   3
   1   1   8 398.626 20.4558   3
   1   8  -1 416.950 20.8060   3
   1  -1   8 430.536 19.3326   2
  -1   1   8 401.701 20.6522   3
  -8   1  -1 401.130 18.4675   1
  -1  -8  -1 433.832 20.1209   1
   8   1   1 388.441 20.2598   2
  -8   0   2 16.8918 2.11973   1
   8   2   0 12.0022 3.08511   2
  -2  -8   0 15.5219 3.11468   1
   2   0   8 16.0764 2.80961   2
   8  -2   0 14.5694 3.12980   2
   0  -2   8 17.2289 2.94759   2
  -2   8   0 13.2437 4.02795   3
   0  -2  -8 17.6934 2.73733   1
   0   2   8 14.3458 3.55930   3
  -2   0  -8 14.2076 3.31597   3
   2  -8   0 20.3346 3.56913   1
  -2  -8   0 14.2523 2.08449   2
   8   0  -2 16.2040 3.62919   2
   8   0   2 14.1307 3.17640   2
   2   8   0 15.6692 4.20192   3
  -2   0  -8 15.8425 1.68002   1
   0  -8  -2 17.7499 3.50515   1
   0  -8   2 17.3173 3.06666   1
   2   0  -8 14.9192 1.95763   1
  -8   0  -2 17.2805 2.24964   1
   0   2   8 16.6490 2.57571   2
   0  -8   2 15.8812 2.23241   2
   0   8  -2 17.0782 3.77527   3
  -2   0   8 16.2158 3.69426   3
  -2   0   8 16.0361 2.76709   2
  -8   2   0 14.7700 2.27959   1
  -8  -2   0 14.6114 2.59800   1
   0   2  -8 18.7839 3.85913   3
   0   8   2 23.1149 6.30998   3
   2  -8  -2 1598.29 67.7082   1
  -2  -8   2 1520.34 66.6478   1
  -8  -2  -2 1659.87 66.6054   1
  -8  -2   2 1614.57 66.0661   1
  -8   2  -2 1517.94 65.8004   1
  -8   2   2 1629.07 65.9606   1
  -2   8  -2 1630.73 68.7865   3
  -2  -2   8 1580.28 66.9816   2
  -2   2   8 1637.01 66.2008   2
   2  -8   2 1637.33 65.1474   2
   8   2   2 1535.22 67.9126   2
  -2  -8   2 1581.20 65.7605   2
  -2   8   2 1756.93 72.3872   3
  -2   2   8 1621.47 69.0728   3
   2   2   8 1494.69 68.1489   3
   2  -2   8 1583.57 66.9469   2
   2   2   8 1518.17 66.2048   2
   2   8   2 1597.84 64.9891   2
   8  -2  -2 1599.00 67.6174   2
   8  -2   2 1581.43 67.8364   2
  -2  -8  -2 1757.76 68.2583   1
   2  -8   2 1653.74 67.2085   1
   2  -2  -8 1624.58 66.4531   1
   2   2  -8 1657.64 68.6619   3
   8   2  -2 1610.23 68.7274   2
  -2  -2  -8 1700.31 66.1407   1
   2   8  -2 1669.46 68.4460   3
   2   8   2 1699.23 71.2568   3
  -2   2  -8 1571.10 68.1958   3
  -3   8   1 474.384 26.2436   3
   8  -1   3 463.047 23.3153   2
  -8   1   3 474.205 21.2463   1
  -1   3   8 480.696 24.5837   3
   8   3   1 490.848 23.4830   2
  -3  -8  -1 481.655 22.9330   1
  -1  -8   3 479.536 21.1927   2
  -1  -3  -8 482.354 22.0080   1
   3   8  -1 482.777 23.5570   3
  -8  -3   1 494.974 21.7208   1
   3  -8   1 475.485 22.3269   1
   3   1   8 483.659 23.3159   3
   8   1  -3 442.771 23.4573   2
   3  -8   1 481.532 20.2624   2
   1  -8  -3 484.469 23.1668   1
  -3  -1   8 489.478 22.3744   2
   3  -1  -8 494.369 21.4090   1
   1  -3   8 496.426 22.4273   2
   1   3  -8 490.859 23.7346   3
  -1   8  -3 508.986 23.9160   3
   8  -3  -1 515.009 22.6849   2
  -1  -8   3 464.163 21.7696   1
   3   1   8 472.380 22.1095   2
  -1   3   8 483.919 21.2098   2
  -8  -1  -3 487.155 21.8059   1
  -3   1  -8 479.480 20.2068   1
  -8   3  -1 489.263 21.3950   1
  -3   1  -8 489.395 23.3943   3
  -3  -1  -8 476.979 21.0175   1
   3   8   1 499.999 25.4624   3
   1  -8   3 468.440 20.8872   2
   8   1   3 450.587 23.2088   2
  -8  -3  -1 483.971 21.9650   1
   3   1  -8 469.603 23.6535   3
   3  -1   8 461.822 22.3490   2
   8  -1  -3 477.849 23.2567   2
  -8   1  -3 493.550 21.5030   1
   1  -3  -8 518.265 22.2824   1
   3  -8  -1 507.451 22.8184   1
   3   1  -8 495.767 20.5883   1
  -8   3   1 462.335 21.2773   1
  -1   3  -8 495.322 23.6918   3
   1   8  -3 484.028 23.5449   3
  -3  -8   1 468.361 21.1661   2
  -3  -8   1 502.578 22.5448   1
   1   3   8 488.993 24.1314   3
  -3   1   8 449.000 23.5501   3
   8  -3   1 486.946 22.7674   2
   8   3  -1 501.739 24.0049   2
  -3   8  -1 519.465 24.7870   3
  -1  -8  -3 489.234 23.1992   1
  -8  -1   3 483.816 21.2697   1
   3   8   1 502.451 21.2839   2
   1  -8   3 482.270 22.1979   1
  -3   1   8 463.302 21.8678   2
   1   3   8 499.623 21.3917   2
  -1  -3   8 470.124 22.3004   2
  -8   3  -3 1949.86 78.9933   1
   3  -3  -8 1966.12 79.8860   1
   8  -3   3 2026.58 81.0739   2
   3  -3   8 1940.84 80.3840   2
   3  -8   3 1947.01 78.5117   2
  -8   3   3 1944.12 79.1176   1
   3   3   8 1955.23 79.3932   2
   3   8   3 1853.60 78.1241   2
   8  -3  -3 1973.99 80.3441   2
  -8  -3   3 1935.90 79.0979   1
  -3  -8   3 1914.73 79.3302   2
  -3  -3   8 1892.05 80.3353   2
   3   3  -8 1969.78 81.6253   3
   8   3   3 1935.36 80.9806   2
  -3  -8   3 1908.01 79.3835   1
   3   8  -3 2057.10 81.4904   3
   3  -8   3 1959.74 79.8729   1
  -3   3  -8 1806.10 80.9991   3
  -3   3   8 2013.59 83.2562   3
  -3   8  -3 1980.57 82.0095   3
  -3  -3  -8 1995.76 79.6922   1
   3  -8  -3 1929.87 80.8089   1
  -3  -8  -3 2001.43 81.3462   1
  -8  -3  -3 1941.89 79.8964   1
   3   3   8 1893.51 81.7321   3
  -3   3   8 2014.74 79.1740   2
  -8  -3   3 1829.44 81.2545   2
   4   8   0 39.2759 5.81974   3
   4   0  -8 42.6539 3.21216   1
   8   4   0 37.3064 4.48875   2
  -4   0  -8 34.9280 4.26332   3
   4   0   8 34.2350 3.88802   2
   0  -4   8 38.5475 4.06690   2
  -4   8   0 34.8622 6.13373   3
   8   0   4 35.0302 5.24150   2
   0  -8   4 42.6679 3.48722   2
   0  -8   4 33.5321 3.37030   1
  -4  -8   0 37.8613 4.13449   1
   0  -4  -8 39.3059 4.11924   1
   4  -8   0 38.6010 4.02311   1
  -4   0   8 34.2453 4.52784   3
  -8   0   4 38.9518 4.60827   2
  -8   0  -4 35.7976 3.36393   1
  -8   0   4 38.8797 3.24719   1
  -8   4   0 32.6463 3.14144   1
   0   8  -4 39.4484 4.75059   3
  -4   0   8 41.2476 4.10884   2
   0  -8  -4 40.4085 4.47029   1
   0   4   8 38.2229 3.05390   2
   8  -4   0 39.5883 3.85411   2
  -8  -4   0 35.9225 3.61809   1
  -4  -8   0 33.4985 3.35193   2
  -4   0  -8 48.5855 3.22707   1
   4   2   8 40.2397 3.80064   2
  -8   2   4 23.4824 2.66657   1
  -8   2   4 23.5354 3.19721   3
   4   8  -2 25.6323 4.05482   3
  -2  -4  -8 29.2045 4.19667   1
   8   2  -4 28.8967 2.92745   3
   4   2   8 37.4509 4.54127   3
  -8  -2  -4 27.9794 3.23648   1
  -8   4  -2 39.4561 5.13982   3
  -4  -8  -2 24.7541 4.16942   1
  -8  -4   2 38.4159 3.41196   1
   2   4  -8 28.1774 4.09404   3
  -4   2  -8 34.9061 2.35166   1
  -2   4   8 24.9036 2.68290   2
   2  -4   8 23.6706 3.87870   2
   2  -8  -4 39.3511 4.32979   1
   8  -4  -2 38.4155 3.61357   2
   4  -2  -8 37.0738 3.41884   1
  -4  -2   8 36.8425 4.08082   2
   8   4   2 42.2825 4.46990   2
  -2  -8   4 35.5226 3.46801   2
  -4   2  -8 38.6833 4.33544   3
   4  -8   2 25.6583 3.79793   1
   8  -2   4 23.4110 4.22981   2
   4  -8   2 24.1533 2.40286   2
  -2   8  -4 35.8336 4.54541   3
  -2  -8   4 42.6269 3.36871   1
  -8   4  -2 36.9560 3.13310   1
  -8  -4  -2 23.8553 3.66320   1
   2  -8   4 23.3365 3.11656   1
  -8   4   2 23.7062 2.79576   1
  -4  -8   2 34.2238 3.53909   2
  -4  -8   2 34.5343 3.53073   1
   4   8   2 37.6664 7.38048   3
  -4   2   8 23.4254 4.75933   3
  -2  -8  -4 25.8711 4.34804   1
   4  -8  -2 37.6902 4.07827   1
   2  -4  -8 39.1310 3.97018   1
  -8  -2   4 36.0749 5.38219   2
   4   2  -8 29.4076 4.11592   3
   2   4   8 40.7981 3.24332   2
   8  -2  -4 40.3601 4.25482   2
   8   2   4 37.0768 4.31532   2
   8  -4   2 27.5499 3.99921   2
  -8  -2   4 37.2188 3.07382   1
   2   4   8 42.5313 5.40575   3
   4   8   2 34.7795 3.13277   2
  -4   2   8 25.3103 3.23622   2
  -4   8  -2 43.4909 5.32171   3
   2  -8   4 20.2322 2.66716   2
  -2   4  -8 36.4280 4.42767   3
  -4  -2  -8 25.5625 2.99351   1
   8   4  -2 33.0193 5.40323   2
   4  -2   8 31.1420 4.48367   2
  -8   2  -4 39.8481 3.24002   1
  -2  -4   8 39.4941 4.11884   2
   2   8  -4 27.2600 4.05172   3
  -8   4  -4 941.558 41.0265   3
   4  -8  -4 919.232 41.5428   1
  -4   4   8 904.793 45.2709   3
  -4   4  -8 962.016 42.2201   3
  -8  -4   4 956.373 42.2439   2
  -4  -8   4 950.250 39.8940   1
  -4   4   8 1006.61 39.9858   2
   4  -8   4 913.267 39.7165   2
   4  -4   8 939.664 41.4987   2
   8   4  -4 978.718 40.1931   3
   4   4   8 947.695 42.5240   3
  -8  -4   4 977.279 39.9725   1
  -8   4  -4 958.986 39.8003   1
  -8   4   4 901.206 40.0713   1
   4   4  -8 948.810 42.3519   3
   4  -4  -8 982.952 41.0251   1
  -4  -4  -8 930.848 40.9945   1
  -8  -4  -4 906.582 40.9932   1
   4  -8   4 923.006 40.4270   1
   8  -4  -4 1002.05 40.8113   2
   8   4   4 971.672 41.7084   2
  -4  -8  -4 900.499 42.0082   1
   4   8   4 954.554 39.3895   2
   4   4   8 960.173 40.2481   2
   4   8  -4 961.552 42.1175   3
  -4   8  -4 951.701 42.7358   3
   8  -4   4 990.111 41.7477   2
  -4  -8   4 970.519 40.7803   2
   5   1   8 36.6596 4.08432   2
   1  -8  -5 34.3731 4.25208   1
   8   1  -5 33.1334 3.51025   3
   5  -8   1 31.2223 2.60651   2
  -8  -1  -5 34.7096 3.48073   1
   8  -1   5 36.2784 5.19224   2
   8   5   1 37.1067 4.38153   2
  -8   1   5 32.8047 3.02725   1
   5  -1  -8 37.3993 3.27587   1
  -1   8  -5 42.0639 4.90761   3
  -5  -8  -1 28.5409 4.41407   1
  -5  -1   8 37.4514 4.24913   2
  -1  -5  -8 31.8549 4.01376   1
  -1  -8   5 37.4171 3.59179   2
  -8   5  -1 43.1215 3.46161   1
  -1   5   8 30.5647 2.66193   2
  -5   1  -8 44.7506 4.53131   3
   5  -8   1 30.3204 3.63835   1
  -8  -5   1 37.8052 3.70539   1
  -8   1   5 34.4933 3.76199   3
   1  -5   8 26.2708 3.92105   2
  -5   8   1 36.0353 7.82870   3
   1   5  -8 22.8936 3.97179   3
   5   8  -1 30.9211 4.69899   3
   8  -5  -1 41.0932 3.59632   2
  -1  -8   5 37.9474 3.10023   1
  -8   1   5 32.6984 4.92670   2
  -5   1  -8 39.3366 2.90884   1
  -5  -1   8 37.6380 2.68007   1
  -1  -5   8 36.6773 4.09271   2
  -1   5  -8 39.2234 4.73059   3
  -5   8  -1 36.1957 6.12739   3
  -5  -1  -8 28.9544 3.05863   1
  -5  -1  -8 27.2566 3.85739   3
  -5   1   8 29.1770 4.35353   3
   8  -5   1 34.9858 3.56116   2
   1   5   8 38.1707 2.98694   2
  -1  -8  -5 36.0152 5.13459   1
   1   8  -5 27.8408 4.15106   3
   1  -8   5 32.1991 3.31303   2
   1  -8   5 32.9620 3.23418   1
   8   5  -1 34.3144 5.15544   2
   5   8   1 36.3340 3.63133   2
  -8  -1   5 44.2864 3.31374   1
   5   1  -8 31.0801 4.29336   3
   5  -1   8 33.7545 4.80430   2
  -5  -8   1 39.3024 3.79914   2
  -8  -1   5 35.2314 5.36411   2
  -5  -8   1 40.8398 4.06349   1
  -5   1   8 28.4849 3.54188   2
   1  -5  -8 37.2818 4.13888   1
  -8   5   1 30.3082 3.13161   1
  -8   1  -5 36.0886 3.29335   1
   8   1   5 33.4597 4.94516   2
  -8  -5  -1 35.1840 3.83096   1
   5  -8  -1 37.6168 4.06170   1
  -8  -5   3 198.736 10.2271   1
   5   3   8 203.349 11.7270   3
  -5   3  -8 196.830 11.6076   3
   5   8  -3 194.780 11.5494   3
   3  -8  -5 189.112 11.5277   1
   5  -3  -8 180.005 10.4148   1
   8  -3   5 183.199 11.5688   2
  -8   5  -3 193.197 11.7084   3
  -3  -8   5 194.255 9.50443   1
   3   5  -8 185.358 11.8811   3
  -5  -8  -3 186.128 11.6416   1
   5  -8   3 195.769 9.70608   2
   5   3   8 202.968 10.8348   2
  -3   8  -5 196.428 12.3305   3
  -8  -3  -5 186.204 10.7381   1
   8  -5  -3 209.341 10.2625   2
  -3  -5  -8 198.381 11.3579   1
  -8  -5   3 185.988 11.5618   2
   5  -8   3 184.738 10.4846   1
  -3  -8   5 203.649 10.8392   2
   8   3  -5 198.074 10.4399   3
  -8   3   5 188.090 10.0666   1
  -5  -3   8 192.533 11.5673   2
  -8   5  -3 198.541 9.97373   1
  -3   5   8 198.521 9.49011   2
  -5   3  -8 186.677 8.88987   1
   3  -5   8 177.257 10.8416   2
   8   5   3 211.230 11.5479   2
   3  -8   5 189.622 10.0248   2
   5  -3   8 188.242 11.4155   2
   5   8   3 190.929 9.92803   2
   8  -3  -5 199.527 11.0867   2
   8   3   5 191.248 11.4000   2
  -5  -8   3 188.099 10.6644   2
  -3  -5   8 190.627 11.2554   2
  -3   5  -8 191.658 12.0117   3
   3   5   8 200.322 9.85925   2
  -5   8  -3 201.470 12.6092   3
   5   3  -8 193.867 11.8319   3
  -8  -3   5 209.333 12.1940   2
  -8  -3   5 191.093 9.69504   1
  -5   3   8 198.002 12.9776   3
  -5  -3  -8 190.825 10.6185   1
  -5   3   8 202.126 10.6509   2
  -8   3  -5 209.501 9.98705   1
   8  -5   3 192.866 10.8412   2
   3  -5  -8 204.266 11.3022   1
  -5  -8   3 202.409 10.4831   1
   3  -8   5 176.907 10.2097   1
   3   8  -5 188.002 11.7379   3
  -8   5   3 186.223 10.2339   1
  -8  -5  -3 184.424 11.0029   1
  -8   3  -5 192.903 10.4889   3
   5  -8  -3 203.239 11.4595   1
  -3  -8  -5 189.145 11.8351   1
  -5   5   8 0.82243 3.66394   3
  -5   8   5 0.56145 4.12928   3
  -8  -5   5 8.41522 1.85822   1
  -5  -8  -5 7.63947 2.74621   1
   5   5   8 7.13879 2.93692   3
   5   5   8 9.45782 2.27227   2
  -8  -5   5 8.52030 2.83140   2
   8   5   5 10.4534 2.68700   2
   5  -8  -5 6.85073 2.42874   1
   5  -8   5 8.69890 2.16760   1
   5   8   5 8.75526 1.88785   2
  -8   5  -5 8.55426 2.71598   3
  -8   5   5 2.43334 3.28059   3
  -5   5  -8 8.70659 2.95655   3
   8  -5   5 7.22965 2.37413   2
   8  -5  -5 10.3490 2.18190   2
   5  -5  -8 5.34734 2.08888   1
   8   5  -5 11.1341 2.76540   3
  -5  -5   8 10.6250 2.99922   2
   5  -8   5 6.11394 1.87151   2
   5  -5   8 5.96303 2.36603   2
  -8   5   5 7.89140 2.05638   1
   5   8   5 -0.1727 3.01450   3
  -5  -8   5 6.76107 1.76362   1
  -8  -5  -5 6.66327 2.33009   1
   5   5  -8 6.42013 2.68347   3
  -8   5  -5 6.32678 1.61954   1
  -5   8  -5 9.79088 3.27620   3
   5   8  -5 8.02891 2.79624   3
  -5  -8   5 10.1372 2.92441   2
  -5  -5  -8 9.27629 2.84707   1
   6  -8   0 279.621 12.4157   2
  -6   0  -8 288.941 14.7970   3
  -8   6   0 270.285 13.5799   1
  -6  -8   0 271.212 14.5999   1
   0   8  -6 274.472 15.5735   3
   8   0   6 258.043 15.2502   2
  -8   6   0 281.369 18.3208   3
  -8   0  -6 281.049 13.5974   1
  -8   0   6 283.332 13.1750   1
  -8   0   6 284.481 15.3373   2
   6   0   8 269.054 15.0052   2
   8  -6   0 300.992 13.6289   2
  -6   0  -8 272.992 13.1941   1
   0  -6   8 276.574 14.4287   2
  -6   8   0 281.476 18.5290   3
   0   6  -8 269.073 15.6791   3
   6   8   0 267.584 16.3086   3
   8   0  -6 295.751 14.7692   3
  -6   0   8 273.615 12.8420   1
  -8  -6   0 267.401 14.2869   1
   6   8   0 276.444 14.4815   2
   0  -8   6 285.741 13.9572   2
   0  -6  -8 286.671 15.0083   1
   6  -8   0 284.472 14.5082   1
   8   6   0 281.367 15.2468   2
  -6   0   8 290.895 14.9734   2
   0  -8  -6 261.956 14.9972   1
   8  -6  -2 496.492 21.6608   2
  -8   6  -2 500.048 25.6773   3
   6   2   8 502.840 23.2563   2
   2   6  -8 472.247 24.2738   3
  -6  -2   8 481.019 20.8527   1
  -2  -6  -8 474.379 23.5404   1
  -8   2   6 491.287 23.4944   2
  -8   6  -2 511.323 22.0462   1
   8   2  -6 508.864 22.9047   3
   2  -8  -6 481.165 23.7760   1
   2  -6   8 477.170 22.8444   2
  -8   2   6 499.326 23.9870   3
   6  -8   2 497.731 21.3847   2
  -8  -2  -6 516.172 22.7386   1
   8  -2   6 473.616 24.1618   2
  -6  -2   8 499.674 23.8338   2
  -8  -6   2 483.465 22.4775   1
  -6   2  -8 480.901 23.3131   3
   8   6   2 493.439 23.3774   2
  -8   2   6 478.329 21.8342   1
  -2   8  -6 484.964 24.4453   3
  -6   2  -8 494.290 21.1887   1
  -6  -8  -2 476.207 23.6746   1
   6   8  -2 505.280 23.7378   3
  -2  -8   6 506.783 22.7865   2
   6  -8  -2 486.897 23.2862   1
   8   2   6 504.912 23.9438   2
   2  -6  -8 490.679 23.4710   1
   2   6   8 494.654 21.1066   2
   2   8  -6 469.824 24.1143   3
  -6   2   8 473.520 21.6679   1
  -2  -8  -6 483.475 23.9636   1
  -8  -2   6 514.221 24.2677   2
  -8  -6  -2 485.401 23.3257   1
   6   8   2 480.440 22.4210   2
  -6  -8   2 496.212 22.7247   1
   6  -2   8 474.137 23.7043   2
  -2   6  -8 484.924 24.3151   3
  -6  -2  -8 481.757 23.3830   3
  -6  -8   2 480.645 22.7372   2
  -6   2   8 502.374 22.8731   2
  -6  -2  -8 497.713 22.3558   1
  -2  -6   8 480.831 23.0378   2
   6   2  -8 503.590 24.0454   3
  -8  -2   6 484.557 21.4584   1
  -8   2  -6 508.766 21.8584   1
  -6   2   8 509.400 25.2868   3
   2  -8   6 490.261 22.2794   2
  -6   8  -2 496.895 25.7230   3
  -8   6   2 465.964 22.1254   1
   8   6  -2 483.627 24.3236   2
  -6   8  -2 501.653 22.1608   1
   8  -6   2 502.568 22.4038   2
  -4  -8   6 108.702 7.48424   2
  -8   6  -4 116.829 6.59659   1
   4  -6   8 85.6114 7.00901   2
  -6  -8  -4 93.7126 7.81682   1
  -6   4  -8 114.413 8.12848   3
   6   4   8 109.597 7.96669   3
  -8  -4  -6 94.4922 7.20936   1
  -8   4   6 92.5131 6.52685   1
   8  -4   6 93.1242 7.58293   2
   8  -6  -4 123.647 8.52609   2
   6   8  -4 93.8094 7.50391   3
  -8  -6   4 111.506 8.17492   2
   4   6  -8 91.8147 7.97599   3
   4  -8  -6 119.106 8.29180   1
   6  -4  -8 122.003 7.60077   1
   6   4   8 126.777 7.50931   2
  -8   6  -4 111.844 8.29862   3
  -8  -6   4 112.952 6.70442   1
   8   4  -6 95.2620 7.07119   3
   8   6   4 120.464 7.65131   2
  -4  -6  -8 95.4220 7.70461   1
  -6  -4   8 101.483 8.06073   2
   6  -8   4 97.1438 6.36578   2
  -4   8  -6 113.895 8.83064   3
   4  -6  -8 113.155 7.92779   1
   6   8   4 115.476 6.80509   2
   8   4   6 123.086 7.96193   2
  -8   4  -6 112.528 7.55779   3
  -6   4   8 97.1022 6.64555   2
   8  -6   4 95.5868 6.92843   2
  -4   6  -8 118.357 8.67838   3
  -6   8  -4 117.485 6.60913   1
  -8  -6  -4 96.5665 7.60883   1
  -6  -8   4 107.180 7.57386   2
  -8   4  -6 117.006 6.36175   1
   8  -4  -6 129.027 7.52717   2
   4   8  -6 94.2196 7.90372   3
  -4  -8  -6 92.3936 7.91176   1
   6  -4   8 85.4912 7.42831   2
   4   6   8 119.283 6.49197   2
   8   6  -4 95.7783 6.90415   3
  -6  -8   4 117.158 6.83304   1
  -6   8  -4 122.114 9.14093   3
  -8  -4   6 109.884 6.17921   1
  -6  -4  -8 89.5129 7.08139   1
  -8   6   4 93.4749 6.64058   1
  -4  -6   8 120.420 8.17450   2
  -6   4   8 98.3001 9.61927   3
  -8  -4   6 109.404 8.28544   2
   4  -8   6 93.9936 6.63811   2
   6   4  -8 101.963 7.94881   3
   6   6  -8 54.1561 5.73517   3
  -6  -6   8 46.9031 5.66071   2
   8   6  -6 59.8282 5.41988   3
  -8   6  -6 43.2646 3.72287   1
  -8   6   6 48.0230 4.49985   1
  -6   8  -6 46.5611 5.77276   3
   8  -6   6 54.3232 5.12441   2
  -6   6  -8 47.4417 5.64003   3
  -8  -6  -6 53.5475 5.55272   1
  -8   6  -6 42.8923 5.16450   3
  -6  -6  -8 55.2891 5.63659   1
   6  -8  -6 46.1683 5.17948   1
   6  -8   6 53.0609 4.50573   1
   6  -6  -8 43.5851 4.91320   1
   6  -6   8 49.2068 5.14673   2
  -6  -8  -6 51.7148 5.69449   1
   6   8  -6 60.0878 5.89844   3
   6  -8   6 51.6608 4.57006   2
  -8  -6   6 43.1266 5.42233   2
  -6  -8   6 45.5548 5.21674   2
   6   6   8 48.8124 4.29996   2
   6   8   6 47.5922 4.03462   2
   6   6   8 40.1519 5.47998   3
   8   6   6 48.9468 4.73989   2
  -8  -6   6 41.4170 3.68313   1
  -7  -1   8 425.109 21.6626   2
  -8   1   7 457.229 19.8116   1
  -8   7  -1 450.954 20.2251   1
   1  -7   8 445.045 20.9087   2
   8   7   1 430.794 21.3703   2
   8  -1   7 404.419 21.9780   2
   7  -8   1 434.209 19.1749   2
  -8  -7   1 434.393 20.8916   1
   7   8  -1 447.197 21.6878   2
  -8   1   7 453.630 21.7397   2
  -1  -7  -8 463.712 21.9941   1
   1  -8  -7 411.694 21.5018   1
  -7   1  -8 426.166 20.8901   3
  -8   1   7 423.892 21.7331   3
   7   1   8 429.150 21.5635   2
  -7   8   1 363.572 25.0590   3
  -7   8   1 441.363 20.4967   1
  -1   8  -7 426.758 22.4793   3
  -8   7  -1 432.608 24.8044   3
  -8  -1  -7 448.898 20.3661   1
   8   1  -7 465.700 21.5793   3
   8  -7  -1 450.622 19.3846   2
   1   7  -8 430.306 22.4224   3
  -7   1  -8 443.850 19.5847   1
  -7  -8  -1 424.791 21.4544   1
  -7  -1   8 428.994 19.1459   1
  -1  -8   7 437.023 20.6955   2
  -8   7   1 445.602 20.4332   1
  -7   1   8 449.876 19.6574   1
   7   8   1 449.849 21.1000   2
   8   7  -1 447.323 22.0772   2
  -8  -7  -1 454.358 21.5162   1
   7  -1   8 443.432 22.1458   2
  -8  -1   7 433.466 21.9078   2
  -7  -1  -8 456.704 20.2658   1
  -7   8  -1 439.609 24.9614   3
  -1   7  -8 431.978 22.5396   3
  -7   1   8 461.394 21.5371   2
  -7   8  -1 443.214 20.2388   1
  -7  -1  -8 436.232 20.8597   3
   7   1  -8 443.317 21.9554   3
  -1  -7   8 413.873 20.8645   2
   1  -7  -8 433.188 21.5191   1
  -7  -8   1 444.882 21.0879   1
  -8  -1   7 416.573 19.2755   1
  -8   1  -7 449.040 19.8815   1
   8  -7   1 464.242 19.8487   2
  -1  -8  -7 443.946 22.0191   1
   8   1   7 428.590 21.8941   2
  -7   1   8 402.795 22.0701   3
   1  -8   7 447.904 20.6124   2
   1   8  -7 416.817 22.2693   3
  -8   1  -7 465.014 21.7266   3
  -8  -3  -7 668.291 29.4023   1
  -3  -8   7 654.428 29.4827   2
  -7  -3   8 658.164 30.7540   2
   3   7  -8 616.600 30.6271   3
  -8   3   7 659.410 28.4734   1
  -8  -7   3 644.584 29.9594   2
   3  -8  -7 626.581 30.0739   1
  -3   8  -7 624.167 30.9342   3
   7   8  -3 656.529 29.8746   3
  -7   3  -8 629.162 27.3922   1
  -8   3   7 643.726 30.9114   3
   8   3  -7 657.152 29.6433   3
  -8  -7   3 649.694 28.7589   1
  -8   7  -3 662.656 28.3503   1
   8  -3   7 629.183 30.4932   2
  -7   3  -8 641.651 29.6728   3
   8   7   3 616.645 29.1192   2
  -7  -8  -3 616.608 30.1808   1
   3  -7   8 633.669 29.1694   2
  -8   7  -3 626.944 31.6379   3
  -3  -7  -8 666.802 30.5538   1
   7   3   8 673.174 29.7285   2
   7  -8   3 660.970 28.0704   2
  -8   3   7 659.906 29.4915   2
  -7  -8   3 656.873 29.6247   2
  -8   3  -7 658.172 27.8417   1
   7   3  -8 658.214 30.2409   3
  -7   3   8 657.946 31.7565   3
  -8  -7  -3 646.808 30.1116   1
   3   8  -7 623.580 30.6327   3
  -8   7   3 616.912 28.7183   1
  -7   8  -3 641.652 31.6721   3
  -7  -8   3 647.760 28.8244   1
  -3   7  -8 644.750 31.0863   3
   3  -7  -8 660.135 30.1348   1
  -7   3   8 650.256 28.3615   1
  -7   3   8 675.659 29.2416   2
  -7   8  -3 637.946 28.2816   1
   3  -8   7 662.818 28.9238   2
   7  -3   8 632.035 30.3831   2
  -7  -3  -8 625.794 29.5067   3
   8  -7   3 662.725 28.5490   2
   8   7  -3 712.123 31.6520   3
   8   3   7 666.116 29.9521   2
  -3  -8  -7 643.202 30.4681   1
  -8   3  -7 628.601 29.1690   3
  -3  -7   8 638.858 29.7148   2
  -8  -3   7 662.519 27.6084   1
  -8  -3   7 651.740 30.7033   2
   7   8   3 627.412 28.6789   2
   7  -8  -3 640.115 29.8114   1
  -7  -3  -8 645.277 29.1047   1
  -8  -7   5 17.7580 3.90825   2
  -8   7  -5 21.3198 4.81473   3
  -8   5   7 19.8730 3.23367   1
  -7   5  -8 18.7173 4.07726   3
   7   5   8 15.6279 3.06114   2
  -5   8  -7 19.0729 4.48505   3
  -7  -5   8 16.3825 4.04533   2
   8  -5   7 16.6436 3.59394   2
   5  -8  -7 15.8253 3.62688   1
  -5  -8   7 15.6157 3.59865   2
  -8  -5  -7 18.6015 3.81915   1
   7   8  -5 21.9695 3.81903   3
  -5  -7  -8 16.8990 3.83513   1
   5  -7   8 15.2707 3.21371   2
   7  -5  -8 20.0693 3.80174   1
   7  -8   5 20.9642 3.25912   2
   8   7   5 17.0732 3.27105   2
   5   7  -8 18.7700 4.26648   3
   8   5  -7 20.8034 3.98394   3
   7   5   8 21.2972 4.15152   3
   8  -7  -5 18.0990 3.61085   1
  -7  -8  -5 18.8876 4.03753   1
  -8   7  -5 15.2683 2.61663   1
  -8  -7   5 14.5075 2.57120   1
   7  -8  -5 20.2306 3.94563   1
  -5  -7   8 12.6882 3.23294   2
  -8   5  -7 17.9402 3.89476   3
  -7  -8   5 18.3367 3.73352   2
  -7   8  -5 20.1221 2.95947   1
  -8  -7  -5 16.2355 3.71167   1
  -8  -5   7 18.5870 4.22253   2
  -7  -5  -8 16.4389 3.54486   1
  -5  -8  -7 19.0958 4.22858   1
   7   5  -8 19.1170 4.12650   3
   5   7   8 17.2801 2.69473   2
   8   7  -5 24.0048 4.20070   3
   7   8   5 19.5423 3.14839   2
   5   8  -7 18.4920 4.20808   3
   8   5   7 17.4443 3.43052   2
   5  -8   7 14.9182 3.03610   2
   7  -5   8 17.3327 3.70036   2
   5  -7  -8 15.8276 3.53279   1
   8  -7   5 20.4523 3.37526   2
  -7  -8   5 18.6337 2.89381   1
  -7   8  -5 19.0000 4.66304   3
  -8   5  -7 15.0836 2.40325   1
  -5   7  -8 20.1386 4.54767   3
  -8  -7  -7 961.227 43.5611   1
   7  -7   8 995.346 42.7694   2
   8   7   7 956.492 41.5208   2
   7  -7  -8 1004.14 43.2104   1
   8  -7  -7 963.629 43.1370   1
   7   8  -7 988.869 43.3531   3
   7  -8   7 999.397 42.0919   2
  -8   7  -7 905.916 43.4447   3
  -7   7  -8 913.717 43.6683   3
  -7   8  -7 908.300 43.8843   3
   7   7  -8 995.044 43.5698   3
  -8  -7   7 955.075 43.5399   2
  -7  -8   7 942.757 43.1303   2
  -7  -7   8 978.335 43.6466   2
  -7  -8  -7 924.192 43.6458   1
  -7  -7  -8 974.763 43.6279   1
   7  -8  -7 967.739 43.2305   1
   8  -7   7 1009.98 42.6012   2
   8   7  -7 998.620 43.1311   3
   7   7   8 982.741 41.2588   2
   7   8   7 946.283 40.9364   2
  -8   0  -8 633.796 26.9915   1
  -8  -8   0 631.480 28.5614   1
   0  -8  -8 651.136 29.1532   1
   0  -8   8 617.406 27.9793   2
   8   0   8 592.140 29.0096   2
  -8   0   8 620.082 26.4915   1
  -8   8   0 505.922 31.8330   3
   0   8  -8 619.358 29.9493   3
   8   0  -8 620.944 29.0423   3
   8   8   0 614.353 28.5795   2
  -8   8   0 607.265 27.3462   1
  -8   0   8 612.085 28.7666   2
  -8  -8  -2 372.718 19.5115   1
  -8  -8   2 395.567 18.8455   1
  -8  -2  -8 371.555 18.3004   1
  -8  -2   8 387.606 20.1051   2
  -8   2   8 379.108 19.0770   2
  -8   8   2 372.497 18.3336   1
   2  -8   8 374.592 18.6259   2
   8  -8   2 351.457 17.2093   2
   8  -2   8 333.658 19.6347   2
   8   2   8 408.313 19.7501   2
   8   8  -2 377.476 19.8972   2
   8   8   2 366.922 18.6336   2
   8   2  -8 378.947 19.4429   3
  -2   8  -8 384.268 20.6816   3
   2  -8  -8 390.949 19.7204   1
  -8   8  -2 421.372 23.0908   3
  -8   2  -8 388.891 18.7854   3
   2   8  -8 343.400 20.0513   3
  -2  -8  -8 360.386 19.6873   1
  -2  -8   8 407.596 19.2630   2
  -8  -2   8 372.049 16.9570   1
  -8   2  -8 392.605 17.4081   1
  -8   2   8 358.703 17.5525   1
  -8   8  -2 415.039 18.2213   1
  -8   2   8 386.834 20.4235   3
   8   8   4 82.3595 6.14149   2
   8   4   8 79.2961 6.55145   2
  -8  -4   8 77.2840 7.44172   2
  -4  -8   8 73.7211 6.74563   2
  -8   4  -8 78.4374 5.12700   1
  -8  -8   4 74.9129 6.70143   2
  -8   4  -8 74.7246 6.60228   3
  -8   8  -4 75.7641 7.84656   3
  -4   8  -8 80.7537 7.72789   3
   4  -8  -8 78.5632 6.99363   1
   8  -8  -4 84.4479 6.98528   1
   8  -4  -8 79.9481 6.43203   1
  -8  -8   4 84.0560 5.94576   1
  -8   8  -4 76.9119 5.49830   1
  -6  -8   8 71.5247 6.84274   2
   8   8  -6 51.0748 5.82145   3
   8   6  -8 49.4286 5.68210   3
   8  -6   8 54.2511 5.85704   2
   8   6   8 68.5926 5.63022   2
   8   8   6 61.0422 5.12451   2
   8  -8  -6 63.2666 6.34326   1
   8  -6  -8 69.1864 6.35690   1
  -8  -6  -8 57.5477 6.26164   1
  -8   8  -6 60.4759 4.58569   1
  -6  -8  -8 53.4671 6.26518   1
  -6   8  -8 66.9648 7.09678   3
   6   8  -8 56.9193 6.36819   3
  -8  -8   6 74.5130 6.77652   2
  -8  -6   8 66.7279 6.93150   2
   6  -8  -8 69.6010 6.53489   1
   6  -8   8 50.5620 5.24895   2
   8  -8   6 45.9520 4.89687   2
  -8   6  -8 62.2194 6.38491   3
  -8   8  -6 62.8880 6.90431   3
  -8  -8  -6 52.0509 6.16872   1
  -8  -8  -8 78.0092 7.46748   1
   8  -8  -8 62.7647 6.64064   1
  -8   8  -8 52.9270 6.64387   3
  -8  -8   8 54.0594 6.69377   2
   8  -8   8 69.8453 6.21260   2
   8   8  -8 72.9498 7.04218   3
   9  -1   0 87.9926 6.95307   2
   9   1   0 86.6306 7.23815   2
  -9   0   1 91.9314 5.71005   1
  -1  -9   0 90.8975 6.82197   1
   0  -1  -9 88.2824 5.19443   1
   1  -9   0 82.1797 6.60745   1
   0   9  -1 88.0630 7.89904   3
   0   9   1 93.0576 9.47909   3
   1   0  -9 88.7243 7.70076   3
  -9   0  -1 92.5982 5.80015   1
   1   0   9 85.0781 6.15321   2
  -1   9   0 82.1075 8.48860   3
  -1   0   9 89.1682 6.19449   2
   0   1   9 79.4180 7.25434   3
   1   9   0 81.7267 8.35002   3
   0  -9   1 90.5426 4.88504   2
  -1  -9   0 91.3914 4.91604   2
   0  -1   9 89.6352 6.29279   2
  -1   0  -9 84.4820 7.41028   3
   0   1  -9 86.3600 7.44341   3
   9   0   1 75.4647 6.76787   2
  -9  -1   0 87.4801 5.72331   1
  -9   1   0 87.0513 5.57044   1
  -1   0  -9 89.3678 4.64670   1
   0  -9  -1 79.6296 6.57857   1
   0  -9   1 97.3501 6.84409   1
   1   0  -9 88.1759 5.18514   1
   0   1   9 84.0866 5.86564   2
   9   0  -1 87.5708 7.16610   2
   2   9  -1 86.7797 7.57317   3
  -9   1   2 63.1704 4.66128   1
  -9  -1  -2 72.8572 5.16860   1
  -1   9  -2 64.5126 6.59787   3
  -1  -2  -9 74.6359 4.98648   1
  -1   2   9 74.2360 5.14174   2
  -1  -9   2 71.8336 5.71605   1
   1  -9  -2 66.8266 5.98188   1
   2  -9   1 77.3654 4.02617   2
   2  -1  -9 64.5580 4.72489   1
   2   1   9 62.3990 5.12109   2
   9  -2  -1 67.1750 5.88871   2
  -2   1  -9 69.5258 6.50860   3
  -1  -9   2 67.4593 4.48762   2
   9   2   1 71.1190 6.41075   2
  -1   2   9 69.2298 6.93075   3
   1  -2   9 84.7716 6.01688   2
   2  -9   1 77.3225 6.04846   1
  -9  -2   1 69.7042 5.01599   1
  -2  -9  -1 74.9912 6.29413   1
   2   1   9 66.9756 6.37794   3
   1   9   2 62.9090 8.47555   3
  -2  -1   9 64.0583 5.40137   2
  -2   9   1 73.1606 8.69205   3
   9   1  -2 74.4600 6.62690   2
   9  -1   2 67.2733 6.18163   2
   1   2  -9 71.7570 6.65724   3
  -9   2  -1 65.0326 4.78871   1
   9   1   2 66.4642 6.24621   2
   2   9   1 69.8009 8.46885   3
   2   1  -9 72.9869 6.74919   3
  -2  -9   1 61.0655 4.44542   2
  -1  -2   9 68.4467 5.62567   2
  -9  -1   2 65.7593 4.80864   1
   9  -2   1 69.9424 6.03441   2
  -1   2  -9 67.6185 6.54957   3
   9   2  -1 68.1855 6.45748   2
  -2   1   9 77.1230 6.93458   3
  -9   1  -2 64.9535 4.84359   1
  -2   1   9 78.3110 5.41612   2
  -1   9   2 77.2391 9.10214   3
   1   9  -2 74.5223 6.81700   3
  -2  -1  -9 76.2663 4.54175   1
  -2  -9   1 63.8530 5.67277   1
   1  -9   2 74.2743 4.33670   2
   1  -2  -9 68.5375 5.03496   1
   2  -9  -1 62.7003 5.78220   1
  -9  -2  -1 75.0842 5.24803   1
   9  -1  -2 59.4994 5.86954   2
   2  -1   9 73.4718 5.69708   2
   1   2   9 63.0186 6.40641   3
  -9   2   1 73.5131 4.95748   1
   1  -9   2 69.4057 5.72369   1
  -1  -9  -2 70.5786 6.20725   1
  -2   9  -1 65.8656 7.13857   3
   1   2   9 63.8352 4.98330   2
   2   9   1 66.6118 4.29525   2
  -3  -9   0 177.522 9.22520   2
  -9   0   3 185.368 9.56116   1
  -3   0  -9 191.169 11.8464   3
   0   9  -3 179.928 11.7931   3
   0  -3   9 185.972 10.6819   2
   0   3   9 191.392 9.62516   2
   9   0  -3 182.149 11.6310   2
   9   0   3 170.592 11.3043   2
  -3   0  -9 188.824 8.83011   1
  -9   3   0 186.891 9.63617   1
   3   0  -9 177.664 9.21289   1
   0   3  -9 189.387 11.8955   3
  -3  -9   0 169.866 10.7053   1
   0  -9   3 177.092 9.21484   2
   3   0   9 172.071 10.3779   2
   3   9   0 183.313 13.0137   3
  -3   0   9 189.224 10.4849   2
  -9   0  -3 182.929 9.83221   1
   0   3   9 180.837 12.3026   3
   3  -9   0 183.497 10.8586   1
   0  -3  -9 189.232 10.2227   1
  -9  -3   0 183.471 10.0570   1
   9  -3   0 188.856 10.8963   2
   0  -9  -3 189.184 11.2702   1
   0  -9   3 177.624 10.2870   1
   9   3   0 185.776 11.7102   2
  -3   9   0 195.896 14.0137   3
   3  -2  -9 2.64345 1.51295   1
   2   3  -9 4.36621 2.31947   3
   3  -9   2 3.21660 1.20618   2
   2   9   3 2.29118 4.56338   3
   9  -2   3 3.36761 2.00750   2
   2  -3   9 1.92060 1.59468   2
  -2   3   9 3.66968 2.67824   3
  -2   9  -3 2.54133 2.09009   3
   3  -9   2 2.64464 1.59773   1
  -2  -3  -9 2.79871 1.50119   1
  -2  -9   3 2.96232 1.42977   2
  -3   2  -9 1.10386 1.72327   3
  -2  -9   3 1.90899 1.44050   1
  -9  -2  -3 1.14805 1.18152   1
   9   3   2 2.76959 1.87758   2
   2  -9  -3 2.77017 1.81144   1
  -3  -2   9 1.96457 1.73782   2
  -3  -9  -2 1.46686 1.69006   1
  -3   9   2 0.92436 4.46798   3
   9   2  -3 2.72062 2.05600   2
  -2   3   9 2.88218 1.38691   2
   3   9  -2 1.84749 2.06254   3
   3   2   9 3.32375 1.56569   2
  -9   3  -2 1.95919 1.14101   1
  -9  -3   2 1.36088 1.04871   1
   9  -3  -2 2.17972 1.57938   2
   3   2   9 11.2075 3.41956   3
  -9   2   3 3.68400 1.33274   1
   9  -2  -3 1.87602 1.63986   2
   3  -9  -2 3.57235 1.93494   1
   9   3  -2 1.36415 1.70381   2
  -3   2   9 2.83808 2.29087   3
  -2  -3   9 1.39267 1.50520   2
   3  -2   9 1.02171 1.51309   2
   2   9  -3 1.34471 1.81098   3
  -2   9   3 -0.1216 4.54471   3
   3   2  -9 2.05074 1.86553   3
  -3  -9   2 4.14453 1.59489   2
  -3  -9   2 2.59421 1.64850   1
  -3   2   9 2.58564 1.52601   2
   2  -3  -9 3.50518 1.63890   1
  -3  -2  -9 3.56327 1.48026   1
   2   3   9 3.27045 1.43094   2
  -2  -9  -3 2.59099 1.98498   1
  -9  -2   3 3.55957 1.35757   1
  -9   2  -3 1.62733 1.04919   1
   2  -9   3 1.76165 1.21143   2
   9  -3   2 3.40934 1.83201   2
  -9  -3  -2 2.35268 1.42783   1
  -2   3  -9 1.95403 1.94200   3
   3   9   2 2.17390 1.12297   2
  -9   3   2 1.44797 0.95412   1
   3   9   2 3.30780 4.44529   3
   2   3   9 2.06568 2.30378   3
   9   2   3 3.75352 1.99241   2
   2  -9   3 1.93433 1.48205   1
  -3   9  -2 3.18057 2.56555   3
   9   4   1 38.1394 5.53717   2
   1  -4   9 38.9403 4.32371   2
  -4   1  -9 37.8515 4.72973   3
  -9   4  -1 32.9860 3.32375   1
  -1  -9   4 37.9836 3.59607   2
  -1  -4  -9 47.6063 4.59722   1
  -4   9   1 46.6968 8.03777   3
   4  -9   1 41.5877 2.88448   2
   4  -1  -9 36.6711 3.50312   1
   4  -9   1 46.3478 4.54869   1
   1   4  -9 43.7519 5.22668   3
   9  -4  -1 35.2621 3.91087   2
   1  -9  -4 34.5973 4.44778   1
   9  -1   4 39.4372 4.79394   2
  -9  -4   1 41.7203 3.90089   1
  -9   1   4 43.5434 3.58101   1
   4   1   9 41.2368 4.27386   2
  -1   9  -4 37.0296 4.97814   3
  -4  -1   9 34.9863 4.21115   2
   9   1  -4 43.9480 5.20718   2
  -1  -9   4 36.4244 3.75288   1
  -1   4   9 40.5475 5.96041   3
  -4   1  -9 34.5669 2.98871   1
  -1   4   9 41.7738 3.45639   2
   4   9  -1 47.9403 5.89009   3
  -9  -1  -4 48.3797 4.05995   1
  -4  -9  -1 39.1799 4.66059   1
  -4   1   9 41.2275 5.27109   3
   1   9  -4 42.0956 5.10033   3
  -4  -1  -9 42.3754 5.01915   3
   4   1  -9 43.2239 5.19283   3
  -9  -4  -1 49.6470 4.37736   1
  -1   4  -9 35.0356 4.76675   3
  -9  -1   4 36.1940 3.39544   1
   1  -9   4 42.0827 4.11170   1
   1  -9   4 43.3219 3.57045   2
   1  -4  -9 38.6878 4.18216   1
  -4   9  -1 37.3509 6.45833   3
  -4  -1  -9 43.5776 3.53041   1
   4  -9  -1 37.3065 4.32645   1
   9  -4   1 44.5015 4.33824   2
   4  -1   9 40.8930 4.45899   2
  -4  -9   1 33.9512 3.55587   2
  -1  -4   9 35.6374 4.36605   2
  -9   4   1 42.0071 3.62231   1
   1   4   9 32.1933 5.18881   3
   1   4   9 39.3716 3.44601   2
   4   9   1 41.4504 6.85378   3
  -9   1  -4 39.1178 3.61745   1
   9  -1  -4 33.1380 5.10786   2
   9   4  -1 40.0722 5.93585   2
  -4   1   9 40.7109 4.17779   2
   9   1   4 37.6706 5.51880   2
   4   9   1 35.8672 3.47349   2
  -4  -9   1 34.6799 4.10663   1
  -4  -9  -3 326.004 17.4224   1
  -3  -9   4 313.516 15.3383   1
  -3   4   9 332.630 15.1817   2
  -9   3   4 326.266 15.4642   1
  -4   3  -9 311.002 17.2978   3
  -3   9  -4 331.588 18.2088   3
   3  -4   9 318.910 16.6707   2
   3   4  -9 326.469 17.8046   3
   4  -9   3 321.118 14.6499   2
   4   3   9 320.788 15.7868   2
  -9  -4   3 330.637 15.5637   1
  -9   4  -3 322.918 15.2771   1
  -3  -4  -9 325.135 16.3030   1
   9  -4  -3 334.586 16.1122   2
   4   3   9 307.568 17.4602   3
   3  -9  -4 322.337 17.1711   1
  -4  -3   9 304.407 16.6808   2
   4   9  -3 336.142 17.6440   3
  -3  -9   4 310.006 15.6275   2
   9   4   3 334.501 17.1670   2
  -9  -3  -4 327.346 16.2186   1
  -3   4   9 338.499 19.9283   3
   4  -3  -9 310.624 15.8438   1
   4  -9   3 326.036 16.1785   1
   9  -3   4 314.219 17.0609   2
  -4   3   9 339.194 15.6836   2
   3   9  -4 326.277 17.4949   3
   9  -3  -4 334.616 16.6359   2
   3  -4  -9 326.102 16.2912   1
   4  -9  -3 313.107 16.8466   1
   4  -3   9 325.635 16.9151   2
   3   4   9 335.811 15.4324   2
  -9  -3   4 334.702 15.3840   1
   9   3   4 314.190 17.0744   2
  -3  -4   9 313.823 16.7415   2
  -3  -9  -4 334.993 17.6083   1
   4   9   3 306.332 14.5501   2
   4   3  -9 319.440 17.6387   3
  -9  -3   4 293.772 17.3896   2
  -9  -4  -3 319.032 16.2789   1
   9   4  -3 347.206 18.4254   2
   3  -9   4 320.323 14.9548   2
   9  -4   3 327.656 16.7027   2
  -4   9  -3 316.955 18.1923   3
  -9   4   3 323.932 15.4850   1
  -4  -3  -9 334.287 15.9070   1
   3  -9   4 306.915 16.0331   1
  -3   4  -9 319.153 17.6171   3
  -4  -9   3 312.203 15.7461   1
  -4   3   9 361.039 19.3820   3
   3   4   9 314.746 18.1309   3
  -9   3  -4 320.327 15.2569   1
  -4  -9   3 321.041 15.6710   2
   9   0  -5 427.656 19.2263   3
  -9   0   5 399.653 20.8090   2
   5  -9   0 410.316 19.9777   1
   0   5  -9 399.955 21.2689   3
   5   9   0 400.175 22.2882   3
   5   0   9 400.959 20.0960   2
   0  -9   5 424.557 18.8363   2
  -9   5   0 409.860 18.8825   1
   5   9   0 412.992 19.3613   2
  -5   0  -9 395.051 20.5778   3
   0   9  -5 402.071 21.2551   3
  -5   0   9 385.157 19.7628   2
   0   5   9 419.954 18.0216   2
  -5  -9   0 418.164 20.2267   1
  -9   5   0 385.426 23.1172   3
   5   0  -9 403.228 21.4424   3
   5   0  -9 395.890 18.2764   1
   9   0   5 366.812 20.6185   2
   0  -9  -5 425.390 20.7956   1
   9   5   0 431.139 21.2056   2
   0  -5   9 412.985 20.0151   2
  -9   0  -5 410.938 19.0262   1
  -9   0   5 399.877 18.4488   1
  -5   0  -9 406.638 18.1385   1
   0  -5  -9 421.338 20.0536   1
   0  -9   5 380.035 18.4694   1
   9  -5   0 409.351 19.2031   2
  -5   9   0 427.685 24.4362   3
  -9  -5   0 426.816 19.6707   1
  -9  -2  -5 13.4344 2.80927   1
  -9   2   5 15.5027 2.59443   1
  -5   9   2 3.30396 5.39300   3
  -9   2   5 17.9654 3.67829   3
  -9   5  -2 7.38381 4.99688   3
   2   5  -9 16.6700 3.97035   3
   5  -2  -9 15.9413 2.79137   1
   2  -9  -5 11.8039 3.13047   1
   9   2  -5 19.2870 2.77640   3
   2  -5   9 12.7399 3.03645   2
   5  -9   2 15.3972 3.17378   1
   9  -2   5 14.5249 3.54289   2
  -5   2  -9 19.6940 4.15252   3
  -2   5   9 15.3441 2.97402   2
  -2   9  -5 13.7552 3.82884   3
  -5  -9  -2 12.8833 3.21127   1
  -9   5  -2 15.7603 2.68112   1
  -2  -5  -9 14.7541 3.27647   1
   9   5   2 12.2785 3.22430   2
  -2  -9   5 13.4090 2.89043   2
   5  -9   2 16.3476 2.22367   2
  -5  -2   9 19.9761 4.01220   2
   5   2   9 13.8668 2.95862   2
  -9  -5   2 17.2030 3.05745   1
  -2   5   9 5.19430 3.88560   3
   5   9  -2 18.2684 4.59211   3
  -2  -9   5 14.5983 2.39640   1
   9  -5  -2 16.7997 2.83260   2
  -5  -9   2 24.8778 3.87153   1
  -9   2  -5 13.7553 2.51726   1
   9   2   5 13.0549 3.35548   2
  -9  -2   5 14.3778 2.46286   1
  -5  -2  -9 16.8114 4.01333   3
   2  -9   5 17.4135 2.83082   2
  -5   2   9 20.2183 3.49391   2
   2   5   9 22.0482 2.43422   2
  -5   9  -2 24.5822 6.08605   3
   2  -9   5 17.4551 3.05003   1
  -5   2   9 21.5978 4.92847   3
   2   9  -5 18.9036 4.17217   3
   5   2  -9 14.9112 3.78820   3
  -2  -5   9 9.06630 2.66931   2
  -5  -9   2 15.0177 2.98876   2
  -9  -5  -2 15.8092 3.24596   1
   5  -9  -2 15.6748 3.42807   1
   2  -5  -9 17.3895 3.48305   1
   9   5  -2 17.3507 4.20269   2
  -2   5  -9 14.1975 3.78927   3
  -5  -2  -9 18.7510 2.96644   1
  -2  -9  -5 16.2788 3.66726   1
   9  -5   2 17.5981 3.18444   2
   5   9   2 14.9280 2.67881   2
   2   5   9 23.9450 5.74278   3
   5  -2   9 19.9383 3.90471   2
   9  -2  -5 15.3928 3.42125   2
  -9  -2   5 18.7409 4.02964   2
  -9  -5   4 88.2959 7.80499   2
  -4   9  -5 103.139 8.62896   3
   9   5   4 95.0663 7.42767   2
   9  -5  -4 94.6136 6.38676   2
  -9  -5   4 95.8247 6.36692   1
   5  -9   4 98.9686 6.14644   2
  -9   5  -4 109.343 6.47313   1
   5  -4  -9 100.374 7.08742   1
   9  -4   5 99.7739 7.75846   2
   4  -9  -5 99.4430 7.89527   1
   5   4   9 93.7942 6.61594   2
   4   5  -9 104.789 8.38980   3
  -5  -9  -4 108.724 8.35583   1
  -9  -4  -5 100.838 7.34829   1
  -4  -5  -9 109.297 7.64662   1
  -5  -4   9 93.0840 7.82763   2
   5  -9   4 102.259 6.99726   1
   5   4   9 119.676 8.78796   3
  -9   4   5 110.148 6.82060   1
  -4  -9   5 100.170 7.13573   2
  -4   5   9 83.3192 10.2678   3
  -5   4  -9 104.927 8.19573   3
  -4  -9   5 95.7515 6.10732   1
   4  -5   9 101.404 7.60656   2
  -9   5  -4 99.4502 7.82067   3
   5   9  -4 103.027 8.08974   3
   5  -9  -4 98.8764 7.67103   1
   5   4  -9 102.248 8.26997   3
  -5  -4  -9 102.042 7.29094   1
   4   9  -5 113.252 8.53435   3
  -5   9  -4 94.7335 8.63412   3
  -5   4   9 114.653 6.72492   2
   9  -5   4 106.730 7.55371   2
  -9  -4   5 100.816 6.26047   1
   4   5   9 96.8862 8.76304   3
  -9   5   4 107.957 6.77525   1
  -5  -9   4 94.6619 6.43187   1
  -5   4   9 111.711 10.0616   3
   5  -4   9 96.3855 7.70215   2
   4   5   9 100.856 6.37119   2
  -4  -5   9 94.1991 7.62683   2
  -4   5  -9 99.9688 8.25227   3
  -4  -9  -5 99.1374 8.12210   1
  -5  -9   4 109.062 7.31723   2
  -9  -4   5 100.592 8.17231   2
   4  -9   5 91.8825 6.73876   1
   4  -5  -9 108.738 7.59205   1
   5   9   4 84.3791 6.69316   2
   9   4   5 108.606 7.79447   2
  -9  -5  -4 102.387 7.52650   1
   9  -4  -5 97.0028 6.90421   2
   4  -9   5 97.4144 6.28404   2
  -9   4  -5 100.772 6.26283   1
  -9   6  -1 218.107 15.3513   3
  -6  -9  -1 174.241 11.9516   1
   6  -9   1 199.951 11.7637   1
   9   1  -6 200.206 11.3583   3
  -9  -1  -6 199.137 11.1739   1
  -9   1   6 203.024 12.5077   2
   1  -9  -6 214.162 12.6310   1
  -1  -6  -9 208.132 12.2770   1
  -1   9  -6 223.732 13.5866   3
  -6   1  -9 222.810 12.5553   3
  -1  -9   6 223.161 11.5128   2
  -6   1  -9 221.983 10.2994   1
  -9   1   6 178.492 11.4451   3
   6   1   9 222.625 12.3398   2
   6   9  -1 207.164 11.9322   2
   9  -6  -1 222.089 10.9199   2
  -9   1   6 196.704 10.5716   1
  -9   6  -1 222.693 11.0987   1
   9   6   1 228.110 12.8000   2
   6  -1  -9 222.832 10.9861   1
   1   6  -9 191.106 12.9049   3
   1  -6   9 185.104 11.7136   2
   9  -1   6 194.889 12.7240   2
  -9  -6   1 230.903 11.8738   1
  -6  -1   9 222.441 12.6349   2
  -6  -1  -9 198.323 10.6882   1
   6  -9  -1 222.070 12.3605   1
  -1   6  -9 217.159 13.4602   3
  -9  -1   6 224.206 10.6762   1
  -1  -6   9 225.640 12.3127   2
  -9  -6  -1 187.396 11.6454   1
   6   1  -9 206.046 12.9532   3
   6   9   1 200.238 14.5019   3
  -1  -9  -6 208.057 12.6644   1
  -6   1   9 190.920 11.7250   2
  -9   1  -6 233.512 11.1695   1
  -9  -1   6 228.258 13.1823   2
   9   6  -1 201.190 12.8642   2
   1   9  -6 193.163 12.8371   3
   9  -6   1 196.278 10.9628   2
   6  -1   9 188.884 12.1862   2
   1  -6  -9 219.383 12.2945   1
  -6   9  -1 232.167 16.0075   3
  -9   6   1 198.605 10.9797   1
  -6   1   9 201.573 13.3659   3
   6   9   1 215.814 11.4667   2
  -6  -1  -9 190.660 12.0926   3
  -6  -9   1 236.479 12.3852   1
   1  -9   6 201.196 11.0166   2
   9   1   6 204.776 12.6906   2
   9   3  -6 76.1982 5.81957   3
  -9  -3  -6 65.5536 5.73495   1
  -9   6  -3 71.9384 8.00001   3
  -3  -9   6 79.1786 6.16329   2
  -9   3   6 66.3620 5.21173   1
  -6  -9  -3 72.7273 6.81131   1
   6   3   9 78.4523 6.07786   2
  -3   9  -6 72.0586 7.24598   3
   6  -3  -9 82.0509 5.97698   1
   9   6   3 81.0406 6.53615   2
  -6  -3   9 87.6574 7.19865   2
  -9  -6   3 77.5795 5.58257   1
   6   9  -3 72.5074 6.83353   3
   9  -6  -3 78.5405 5.19444   2
  -9   3   6 63.9650 6.28559   3
   6  -9   3 65.4797 5.70362   1
   3  -6   9 66.0338 6.04100   2
   3   6  -9 62.4532 6.67215   3
  -9   6  -3 79.9661 5.40656   1
   6  -9   3 67.9238 4.72664   2
  -3  -6  -9 65.5667 6.30541   1
  -6   3  -9 74.6646 6.57058   3
   3  -9  -6 92.0778 7.18278   1
   9  -3   6 66.4378 6.57477   2
  -9  -3   6 77.9016 7.17541   2
   9  -6   3 66.7697 5.54648   2
   6  -9  -3 83.2851 6.73338   1
   3   6   9 82.3526 5.04649   2
  -9  -3   6 85.1436 5.14855   1
  -3   6  -9 82.6797 7.37592   3
  -9   6   3 66.3190 5.33151   1
   6   9   3 68.8570 5.23445   2
   6   3  -9 70.0275 6.70667   3
   3  -9   6 68.3952 5.37151   2
   6  -3   9 61.8437 6.27727   2
   9   6  -3 74.8852 7.23481   2
   9  -3  -6 75.3394 6.15767   2
   3  -6  -9 81.6645 6.58175   1
   9   3   6 77.5724 6.63646   2
  -6  -3  -9 63.3239 6.52788   3
  -6   9  -3 79.5993 8.14449   3
  -6  -9   3 80.5057 5.91454   1
  -6  -9   3 73.5342 5.97562   2
   3   9  -6 66.1506 6.75503   3
  -9  -6  -3 69.4054 6.15632   1
  -6   3   9 71.7170 7.96896   3
  -6   3   9 84.0226 6.01089   2
  -6  -3  -9 65.4124 5.64883   1
  -3  -6   9 77.7252 6.68071   2
  -9   3  -6 87.5649 5.41000   1
  -3  -9  -6 71.4874 6.81940   1
  -9   5   6 288.186 14.8998   1
  -5  -6  -9 310.814 16.5304   1
   6   5   9 288.131 16.8122   3
   6  -9   5 297.521 14.4946   2
  -9  -6   5 285.146 14.3926   1
  -6  -5   9 290.601 16.7073   2
   5   6  -9 316.014 17.2364   3
  -5  -9   6 309.228 15.9301   2
  -6   5  -9 301.523 16.7765   3
  -6  -9  -5 289.150 16.8420   1
   5  -9  -6 283.624 16.3407   1
   9  -5   6 322.045 16.5393   2
  -9   6  -5 299.557 14.4655   1
  -5   9  -6 276.562 17.1379   3
   6  -5  -9 300.111 15.7453   1
  -9   6  -5 262.918 16.0674   3
   6   5   9 304.135 14.9953   2
   6   9  -5 313.709 16.6992   3
   9   6   5 304.093 15.7848   2
  -9  -6   5 277.963 16.4717   2
  -9  -5  -6 299.848 16.1868   1
   5  -6   9 307.377 16.1117   2
   6  -9   5 292.307 15.1348   1
   6  -9  -5 296.691 16.3715   1
  -5  -6   9 289.665 16.4685   2
  -9  -6  -5 307.802 16.3901   1
   5  -9   6 315.508 14.9733   2
   6  -5   9 309.327 16.5608   2
  -9  -5   6 278.978 14.0696   1
  -5   6  -9 294.651 17.0467   3
   5   6   9 284.902 14.3279   2
   5  -6  -9 303.794 16.1596   1
   9  -6   5 309.473 15.8232   2
   9   5   6 281.479 15.5875   2
  -9   5  -6 309.055 14.3817   1
   5   9  -6 328.734 17.2346   3
  -9   6   5 305.750 15.1373   1
   6   5  -9 330.285 17.3063   3
  -6  -9   5 287.204 15.6756   2
  -9  -5   6 272.975 16.5893   2
  -6  -5  -9 316.188 16.3028   1
  -6   5   9 312.392 20.2513   3
  -6   9  -5 298.080 17.6049   3
  -5  -9  -6 303.241 17.1151   1
   5   6   9 296.890 17.6791   3
  -6  -9   5 298.614 14.6097   1
  -9   7   0 164.700 9.32880   1
   7   9   0 174.603 10.2464   2
  -9   0   7 168.672 8.86685   1
   0  -7   9 169.551 10.3064   2
  -7  -9   0 167.227 10.5601   1
   0  -9  -7 162.486 10.7211   1
   0  -7  -9 168.229 10.5905   1
   7   9   0 131.005 11.7957   3
   7   0   9 167.490 10.8369   2
  -9  -7   0 160.687 10.1119   1
  -7   0  -9 162.096 8.81589   1
   9  -7   0 163.299 8.79254   2
  -7   0  -9 167.036 10.2675   3
   9   0  -7 172.491 10.3214   3
   9   0   7 155.017 10.9085   2
  -7   0   9 157.165 8.39611   1
   9   7   0 171.057 10.9144   2
  -7   0   9 166.737 10.5730   2
   0  -9   7 167.109 9.72402   2
  -9   0   7 155.544 10.7004   2
   0   7  -9 160.949 11.3553   3
   0   9  -7 152.348 11.1346   3
  -7   9   0 146.090 13.6427   3
  -9   7   0 158.236 14.3236   3
  -9   0  -7 170.260 9.35170   1
   7  -9   0 170.172 10.3002   1
  -7   9   0 137.048 13.3336   3
   7   0  -9 168.010 11.2227   3
  -7  -2   9 9.14322 3.36389   2
  -9   7  -2 10.7071 2.43014   1
   2   9   7 2.19384 4.30255   3
   7   2   9 9.23828 2.79145   2
   7  -9   2 5.50645 2.18282   1
  -7   9   2 2.45917 5.11512   3
  -9  -7   2 11.7220 2.77650   1
  -2  -9   7 13.9283 3.20315   2
  -7   2  -9 11.1959 3.07745   3
   2  -9  -7 12.9396 3.36787   1
  -9   7  -2 12.2221 6.01902   3
   7  -2  -9 10.1029 2.42347   1
  -9  -2  -7 6.22448 2.16426   1
  -9   2   7 5.64328 2.54833   2
  -2   7   9 -1.5882 4.19201   3
  -9   2   7 6.52679 1.92229   1
  -7  -9  -2 8.62334 3.08871   1
   9  -2   7 8.73729 2.94792   2
  -2  -7  -9 8.78351 3.03755   1
   9   2  -7 8.03588 2.52591   3
   2  -7   9 7.76114 2.65386   2
   7  -9   2 8.98872 1.87739   2
   7   9  -2 12.1565 4.31315   3
  -9   2   7 10.2148 3.23835   3
   2   7  -9 6.58318 3.06583   3
   9   7   2 10.2674 2.76723   2
  -2   9  -7 9.61973 3.42851   3
   2   7   9 -0.6717 3.50658   3
  -2   7  -9 8.51742 3.35445   3
   7  -9  -2 13.7018 3.23187   1
  -7   9  -2 21.4058 6.49494   3
   7   9   2 12.0990 2.74331   2
   7   2  -9 5.92586 2.76824   3
   2  -9   7 6.69907 2.25373   2
  -7  -2  -9 8.52485 2.88239   3
  -9   2  -7 9.29036 2.11776   1
  -7   2   9 11.0629 3.00855   2
  -9  -2   7 9.21196 3.20514   2
   9   7  -2 9.22684 3.06296   2
  -7  -2  -9 7.51917 2.27304   1
  -7  -9   2 10.5568 2.86928   1
  -7  -9   2 9.52454 2.77764   2
  -2  -9  -7 6.76058 2.68511   1
   2  -7  -9 11.1754 3.08560   1
   9  -7   2 8.19744 2.10552   2
   9   2   7 7.59400 2.64930   2
   7   9   2 -0.7824 3.47984   3
  -9   7   2 6.16570 1.96865   1
  -2   9   7 1.13165 5.08115   3
  -2  -7   9 7.00551 2.59928   2
  -9   7   2 -2.8225 4.90228   3
  -7   2   9 9.43064 3.58114   3
   7  -2   9 6.71424 2.74539   2
  -9  -2   7 9.28911 1.98379   1
  -9  -7  -2 8.78550 2.71221   1
   2   9  -7 6.98047 2.97803   3
   9   4  -7 191.808 11.1375   3
  -9   4   7 186.892 12.6838   3
   4   7  -9 183.752 12.3487   3
   7  -4  -9 195.769 11.2120   1
  -4   9  -7 183.584 12.7490   3
  -9  -4  -7 185.634 11.2657   1
  -9   7  -4 185.683 10.1192   1
  -7   4  -9 181.208 11.6610   3
   7  -9   4 191.580 9.96537   2
   4  -7   9 182.310 11.2072   2
   9   7   4 171.614 10.7851   2
  -9  -7   4 188.229 10.3635   1
  -7  -4   9 187.592 12.2868   2
   7   4   9 189.421 10.9105   2
   7  -9   4 174.525 10.5734   1
  -4  -9   7 184.611 11.1372   2
   4  -9  -7 177.290 11.7240   1
   7   9  -4 198.803 12.0296   3
  -9   4   7 186.443 10.3426   1
  -4  -7  -9 191.853 12.0727   1
   9  -4   7 179.382 11.9078   2
  -9  -7   4 187.112 11.8880   2
  -7  -9  -4 175.473 11.9294   1
  -9   7  -4 200.627 13.3907   3
  -7  -4  -9 201.408 11.4590   1
   7  -4   9 189.062 12.1120   2
   7   4  -9 181.892 11.8831   3
  -7  -9   4 164.841 10.8922   2
   9   4   7 190.715 11.4054   2
  -7   9  -4 182.264 13.0636   3
   7  -9  -4 185.077 11.6888   1
  -4   7  -9 186.489 12.5605   3
  -9   4  -7 179.066 9.63045   1
  -9  -4   7 176.748 12.2034   2
  -9  -7  -4 182.670 11.8212   1
  -9   7   4 187.109 10.6290   1
  -9  -4   7 182.928 9.48545   1
   4   9  -7 180.431 12.2045   3
   9  -7   4 182.998 10.5104   2
  -4  -7   9 174.027 11.5300   2
  -7  -9   4 192.305 10.5088   1
  -7   4   9 211.413 11.1813   2
  -7   4   9 189.738 13.8382   3
   7   9   4 187.779 10.1850   2
   4  -9   7 187.453 10.5022   2
   4  -7  -9 185.541 11.5579   1
  -4  -9  -7 180.515 12.1186   1
   9  -4  -7 184.098 10.7918   2
   9   7   6 33.5770 4.65564   2
  -6  -7  -9 30.4304 5.31430   1
  -7   6  -9 30.5400 4.91000   3
   7  -9   6 28.8307 4.00166   2
   9  -6   7 38.4651 5.37896   2
  -6   9  -7 32.9877 5.37869   3
  -6  -9   7 24.3357 4.61052   2
   7  -6  -9 27.9157 4.72447   1
   7   6   9 32.7686 3.84101   2
  -7  -6   9 27.0402 5.25569   2
   6  -7   9 40.9350 4.79013   2
  -9  -7   6 26.5108 5.12738   2
  -7  -9  -6 28.3157 5.40056   1
  -9   7  -6 31.2414 3.41886   1
  -9  -6  -7 34.4275 5.27739   1
   6  -9  -7 32.4980 5.25056   1
   9  -7  -6 38.2832 5.56864   1
  -9   7  -6 32.7058 5.15179   3
   7   9  -6 30.9935 4.86406   3
   6   7  -9 29.1161 4.88689   3
   6   7   9 30.8861 5.94936   3
   9  -7   6 38.9715 4.50815   2
   9   6   7 33.6154 4.66733   2
   7  -9  -6 31.5317 5.14173   1
   6   9  -7 33.6080 5.12030   3
  -9  -6   7 29.4687 5.56440   2
  -6   7  -9 30.9938 5.17434   3
  -7  -6  -9 33.3875 5.45710   1
  -6  -9  -7 28.3697 5.16186   1
   7  -6   9 26.8495 4.73064   2
  -9  -7  -6 36.3428 5.68404   1
   6  -7  -9 39.8757 4.97430   1
  -9   6  -7 34.6810 3.38378   1
   9  -6  -7 30.0936 4.84912   1
  -7  -9   6 33.2447 5.35297   2
  -6  -7   9 30.2655 5.45549   2
   7   6  -9 38.3531 5.20318   3
   6  -9   7 35.7758 4.15237   2
  -7   9  -6 35.4989 6.66696   3
   1   8  -9 171.692 12.0548   3
  -8   1  -9 169.540 9.21613   1
  -9   1   8 178.354 11.2426   2
   1  -8   9 162.606 10.5292   2
  -9   8  -1 180.854 10.0524   1
   1  -9  -8 173.878 11.2470   1
  -9   1   8 161.730 9.23246   1
  -8  -9  -1 175.389 11.2746   1
  -9  -1  -8 172.345 9.90995   1
  -1  -9   8 175.551 10.5174   2
  -1  -8  -9 173.962 11.3066   1
   8   9  -1 171.090 11.0729   2
   9   1  -8 180.414 11.0324   3
  -1   9  -8 169.865 12.0154   3
   9   8   1 171.357 10.8526   2
   9  -1   8 158.471 11.3563   2
  -9  -8   1 173.332 10.6958   1
  -8  -1   9 165.898 11.3443   2
   8   1   9 172.447 11.2368   2
   1   9  -8 160.742 11.8343   3
  -9   8   1 166.790 9.88767   1
   8   1  -9 172.751 11.4161   3
   1  -9   8 184.291 10.5153   2
  -8  -1  -9 178.728 9.80128   1
   8   9   1 177.027 10.6336   2
   9   8  -1 178.707 11.4977   2
  -8   1   9 173.501 10.9995   2
   1  -8  -9 171.194 11.0660   1
  -8   9  -1 167.393 14.4255   3
   8  -9  -1 167.645 10.7529   1
  -1  -8   9 176.316 10.7939   2
  -9  -8  -1 170.475 10.9722   1
  -9  -1   8 179.161 11.7319   2
   8  -1   9 169.224 11.5179   2
   9   1   8 178.118 11.5296   2
   9  -8   1 168.952 9.07785   2
  -1  -9  -8 162.413 11.2118   1
  -9   1  -8 175.952 9.55831   1
  -9  -1   8 166.536 8.99104   1
  -1   8  -9 178.090 12.3369   3
  -8   1   9 165.448 9.14255   1
  -8  -9   1 174.499 10.8812   1
  -8   9  -1 179.221 10.0526   1
  -8  -9  -3 259.782 15.4925   1
  -3  -9   8 253.446 14.5586   2
   8  -3  -9 266.192 14.1391   1
  -3  -8  -9 291.210 15.8534   1
   3  -9  -8 252.768 15.0518   1
   9  -3   8 270.448 15.8821   2
  -8  -3   9 250.953 15.4893   2
  -9   3   8 313.543 16.9205   3
  -3   9  -8 247.923 16.0198   3
  -9  -3  -8 275.876 14.4637   1
   9   3  -8 279.624 14.9266   3
   3  -8   9 270.069 14.5032   2
  -9   8  -3 240.475 17.5158   3
   8  -9   3 268.755 13.0324   2
  -8   3  -9 251.119 14.5810   3
   8   3   9 241.141 14.2590   2
  -9   8  -3 268.701 13.6260   1
  -9   3   8 279.595 13.5894   1
   3   8  -9 263.111 16.0281   3
  -9  -8   3 246.511 13.8224   1
   9   8   3 255.554 14.2204   2
  -8   3   9 288.034 17.0652   3
  -8  -9   3 273.253 14.2681   1
   3  -9   8 289.187 14.3806   2
   9   8  -3 276.137 16.0251   2
  -3   8  -9 243.088 15.9133   3
  -9   3  -8 258.546 12.8972   1
  -8   9  -3 275.984 13.6964   1
  -9  -8  -3 280.789 15.6117   1
  -8   9  -3 254.703 17.7571   3
   9  -8   3 267.548 13.3271   2
   8   3  -9 281.582 15.5043   3
   3  -8  -9 249.475 14.8705   1
   8  -3   9 274.383 15.7836   2
   8   9   3 248.430 13.7434   2
   9  -3  -8 253.299 14.4467   2
  -8  -9   3 247.166 14.6542   2
  -8   3   9 303.001 14.6802   2
  -9  -3   8 240.869 15.4587   2
  -3  -9  -8 284.238 15.9134   1
  -3  -8   9 260.838 14.8249   2
   8  -9  -3 275.240 15.2153   1
   9   3   8 264.352 14.9700   2
  -9   8   3 273.045 14.1499   1
  -8  -3  -9 267.411 14.2420   1
   3   9  -8 256.604 15.9097   3
  -8  -5   9 67.2424 7.12252   2
  -9  -8   5 67.0499 6.63749   2
   9  -8  -5 57.5844 6.16050   1
  -9  -5  -8 74.0120 6.60975   1
  -8  -9  -5 66.5047 6.96186   1
   8  -9   5 58.3532 5.10336   2
  -5  -9   8 69.0883 6.69465   2
  -9   8  -5 72.0142 5.28262   1
  -5  -8  -9 55.5296 6.39988   1
   8   5   9 67.4067 5.75264   2
   5  -8   9 59.1262 5.94421   2
   9   8   5 73.6439 5.87719   2
   8  -5  -9 64.7409 6.24377   1
  -9  -8   5 64.6890 5.13030   1
   9   5  -8 65.0546 6.64618   3
  -9   8  -5 65.7630 7.54921   3
   9  -5   8 53.5260 6.14072   2
  -8   5  -9 66.0532 6.56174   3
   5   8  -9 56.8496 6.68840   3
  -5   9  -8 64.8974 7.42120   3
  -9   5   8 66.7823 8.01236   3
   5  -9  -8 64.9496 6.59341   1
   9   5   8 76.8995 6.24938   2
   8  -5   9 71.7784 6.92948   2
   9  -5  -8 66.7788 6.25170   1
   9  -8   5 65.2279 5.45935   2
  -9  -5   8 62.8588 7.01333   2
  -9  -8  -5 61.7450 6.73411   1
   5  -8  -9 61.0003 6.40510   1
   8   9   5 64.6130 5.24451   2
  -8  -5  -9 68.3994 6.44953   1
  -5  -9  -8 66.7163 6.95915   1
   5  -9   8 63.9418 5.73488   2
  -5   8  -9 60.1333 7.06091   3
  -8   5   9 63.9269 8.20926   3
  -8  -9   5 65.2574 6.26476   1
   8  -9  -5 63.6340 6.54284   1
   8   5  -9 67.2763 6.59753   3
   5   9  -8 59.4587 6.74676   3
  -8   9  -5 67.5590 7.77575   3
  -5  -8   9 71.4900 6.78330   2
  -8  -9   5 63.8764 6.36581   2
  -9   8  -7 138.233 11.2348   3
  -8  -9  -7 152.429 11.4551   1
  -8   7  -9 150.902 11.3439   3
  -9  -8   7 158.882 11.2326   2
  -7  -9   8 167.283 11.1895   2
   8  -7  -9 162.362 10.9090   1
   7  -9  -8 166.469 11.3553   1
  -7  -8  -9 159.109 11.4510   1
   8  -9   7 154.576 9.61464   2
   7   8  -9 154.849 11.2341   3
   8   9  -7 154.463 11.0456   3
  -8  -7   9 158.768 11.5650   2
   9  -7   8 160.722 10.6337   2
   9   8   7 161.240 9.55146   2
  -7   9  -8 153.112 11.7599   3
   9  -8  -7 156.308 11.0668   1
   7  -8   9 162.218 10.4622   2
   8   7   9 155.267 9.26293   2
  -9  -7  -8 152.894 11.1604   1
  -8  -9   7 153.238 10.9348   2
  -8  -7  -9 162.007 11.2978   1
  -9  -8  -7 148.491 11.2599   1
  -8   9  -7 150.206 11.8024   3
   9   7   8 158.413 9.63488   2
  -7   8  -9 148.141 11.5808   3
  -9  -7   8 146.878 11.2394   2
   7  -9   8 166.063 10.1154   2
   8  -7   9 164.413 10.8720   2
   9  -8   7 150.769 9.89741   2
  -7  -8   9 158.859 11.3565   2
   7   9  -8 163.064 11.4421   3
   8   7  -9 160.218 11.1030   3
   7  -8  -9 151.831 10.8381   1
  -7  -9  -8 158.254 11.5126   1
   9  -7  -8 159.996 11.0610   1
   8  -9  -7 155.239 10.9825   1
   9   0   9 102.341 8.61485   2
   9   9   0 105.960 8.19137   2
  -9   0   9 98.7202 8.31545   2
   0  -9   9 107.136 7.93532   2
  -9   9   0 81.2290 11.8803   3
   9   0  -9 106.155 8.44376   3
  -9  -9   0 98.8610 7.98380   1
  -9   0  -9 109.383 6.97624   1
  -9   0   9 104.144 6.45482   1
  -9   9   0 104.877 7.28664   1
   0  -9  -9 111.692 8.64780   1
   0   9  -9 105.132 9.25470   3
  -9  -9   2 45.0745 4.94186   1
  -9  -9  -2 32.8342 5.49726   1
  -2   9  -9 40.5465 5.89899   3
  -9   2   9 33.2772 5.43527   3
  -9   9  -2 31.6008 8.22590   3
  -9  -2   9 31.3790 5.63519   2
  -9   2   9 41.6875 4.98163   2
  -2  -9   9 42.9680 5.18919   2
   2  -9   9 34.9954 4.98718   2
   9  -2   9 28.1958 5.43855   2
   9   2   9 46.9015 5.40937   2
   9   9  -2 31.7805 5.55251   2
   9   9   2 44.2978 4.80680   2
   9   2  -9 34.6526 4.85802   3
  -9   2   9 31.6278 3.58051   1
  -9   9  -2 42.7702 4.19792   1
  -2  -9  -9 34.3093 5.63784   1
   2  -9  -9 33.4851 5.30673   1
   9  -9  -2 42.4265 5.08115   1
   2   9  -9 35.6095 5.55664   3
  -9  -2  -9 35.2219 4.17029   1
  -9   2  -9 43.1409 4.34908   1
  -4  -9  -9 19.2366 4.53593   1
   4  -9  -9 23.4303 4.68972   1
   9   4  -9 24.2606 4.24045   3
  -9   9  -4 25.0664 3.67350   1
   9   9   4 21.5151 3.71617   2
  -9  -9   4 20.7612 4.54200   2
  -9  -4   9 20.2104 4.81301   2
  -9   4   9 28.9322 6.58502   3
  -9   9  -4 18.5807 6.74635   3
  -4   9  -9 20.3104 4.98447   3
   4   9  -9 20.8481 5.14122   3
  -4  -9   9 25.9260 4.77153   2
   4  -9   9 19.9401 3.89068   2
   9  -9   4 20.1824 3.24107   2
   9  -4   9 20.1888 4.57685   2
   9   4   9 21.4429 4.01374   2
  -9  -9  -4 14.2602 3.91147   1
  -9  -9   4 22.9673 3.83792   1
  -9  -4  -9 24.5752 4.36957   1
   9  -4  -9 25.2677 4.29104   1
   9  -9  -4 22.2767 4.42540   1
   9   6   9 113.656 7.98575   2
   9  -6   9 110.641 9.10278   2
   9  -9   6 116.375 7.88368   2
   6   9  -9 116.764 9.83396   3
  -9  -6  -9 116.449 9.21196   1
  -6  -9  -9 112.112 9.69900   1
   6  -9  -9 107.793 9.13894   1
  -6   9  -9 114.103 10.1302   3
   6  -9   9 117.494 8.43294   2
  -9  -6   9 126.250 10.0443   2
  -6  -9   9 117.614 9.40198   2
  -9   6   9 116.479 11.5823   3
  -9   9  -6 107.112 10.1605   3
  -9  -9   6 111.172 9.07130   2
  -9  -9  -6 101.828 9.24319   1
   9  -9  -6 129.647 9.63698   1
   9  -6  -9 125.259 9.23253   1
   8   9  -9 121.618 9.82861   3
  -8   9  -9 111.463 10.1327   3
  -9  -8  -9 103.681 9.51974   1
  -9   9  -8 102.979 10.2975   3
  -9  -9  -8 105.348 9.62374   1
   9  -9   8 112.694 8.29061   2
   9  -8   9 112.946 8.71495   2
   9  -9  -8 109.599 9.28802   1
  -9  -9   8 117.999 9.73325   2
  -9  -8   9 106.683 9.70197   2
  -8  -9   9 106.078 9.49034   2
   8  -9   9 112.973 8.56529   2
  -8  -9  -9 113.072 9.81691   1
   8  -9  -9 125.270 9.82684   1
   9  -8  -9 128.082 9.71789   1
   0   0  10 1466.42 61.9287   2
 -10   0   0 1500.83 61.3528   1
   0 -10   0 1510.64 62.9769   1
   0   0 -10 1484.30 64.6891   3
   0  10   0 1552.96 66.4103   3
  10   0   0 1357.03 63.2982   2
   1  10  -1 529.713 26.0182   3
  -1   1  10 477.758 25.1596   3
  -1  10  -1 483.265 26.0068   3
  -1  10   1 514.967 27.8506   3
   1  10   1 494.365 27.2508   3
 -10  -1   1 469.425 22.1465   1
 -10   1  -1 450.031 21.9419   1
 -10   1   1 521.604 22.2634   1
  -1 -10  -1 495.317 23.8505   1
  -1 -10   1 484.093 23.5510   1
   1 -10  -1 463.301 23.6372   1
   1 -10   1 542.110 23.9854   1
  -1   1  10 530.708 22.8580   2
  10   1   1 450.653 24.1098   2
   1   1 -10 523.928 25.4590   3
   1   1  10 467.962 24.7207   3
   1  -1  10 485.599 22.9963   2
  -1   1 -10 462.222 24.7625   3
  10  -1  -1 480.749 24.0842   2
  10  -1   1 494.720 24.2580   2
  10   1  -1 508.333 24.8014   2
   1   1  10 448.144 22.3141   2
  -1  -1  10 470.948 22.9442   2
 -10  -1  -1 507.132 22.4076   1
  -1 -10   1 491.352 21.1142   2
   0  10  -2 23.5907 5.30328   3
  -2   0  10 20.8928 3.49244   2
   0  10   2 16.0851 5.66229   3
   2   0  10 18.3701 3.33427   2
  10  -2   0 20.3452 4.08818   2
  10   2   0 22.1532 4.49339   2
 -10  -2   0 20.9754 3.26717   1
   0 -10   2 20.2985 3.74698   1
 -10   2   0 18.1205 2.84341   1
   0 -10  -2 18.5053 3.76821   1
  -2 -10   0 18.6807 3.64770   2
   0  -2  10 22.9424 4.01284   2
   0   2  10 18.4472 3.08872   2
  10   0  -2 17.2400 3.91638   2
  10   0   2 15.8804 3.78879   2
   0 -10   2 19.0051 2.39261   2
   2 -10   0 22.1334 4.20704   1
   0   2 -10 20.5664 4.58748   3
   2  10   0 30.1678 6.62089   3
  -2   0 -10 19.5723 4.69082   3
 -10   0  -2 23.1681 2.85248   1
 -10   0   2 20.3234 2.98606   1
  -2 -10   0 23.1686 4.23794   1
   0  -2 -10 18.5872 2.92141   1
   2   0 -10 18.4099 4.56929   3
  -2  10   0 25.3248 6.65585   3
   0   2  10 19.0165 4.52134   3
  -2  -2  10 497.853 24.6239   2
  -2  10   2 465.625 28.9237   3
  10  -2  -2 512.186 25.2600   2
  10   2   2 498.248 25.7478   2
   2   2  10 468.767 26.1549   3
  10  -2   2 542.153 25.7682   2
  -2  10  -2 499.280 26.8253   3
   2   2  10 500.664 23.8231   2
   2  -2  10 561.073 25.1305   2
  -2 -10   2 515.191 23.0406   2
 -10  -2  -2 559.852 24.1887   1
 -10  -2   2 506.091 23.6067   1
 -10   2  -2 488.479 23.4522   1
 -10   2   2 573.100 23.7376   1
  -2 -10  -2 589.717 26.0925   1
  -2 -10   2 519.149 24.7153   1
  -2  -2 -10 569.805 23.4774   1
   2 -10  -2 489.707 25.1866   1
   2 -10   2 585.539 25.3683   1
   2  -2 -10 503.647 23.5795   1
   2  10  -2 558.084 26.8663   3
  -2   2  10 581.097 24.1689   2
  -2   2  10 543.714 27.3161   3
   2  10   2 461.353 28.1114   3
   2 -10   2 546.766 22.4814   2
  -2   2 -10 506.354 26.1367   3
  10   2  -2 552.428 26.5869   2
   2   2 -10 551.049 26.7353   3
 -10  -1  -3 182.779 10.0573   1
  10   1  -3 160.847 11.5450   2
   3  10  -1 176.977 12.7231   3
 -10   3  -1 174.247 9.64501   1
  -1  -3 -10 178.686 10.0068   1
  -1   3  10 185.579 9.71443   2
  -1 -10   3 174.081 9.24896   2
 -10   1   3 187.766 9.74691   1
  -1   3  10 147.497 12.5084   3
  -1  10  -3 179.556 12.2514   3
  10  -3  -1 193.465 11.0692   2
   3 -10   1 185.708 11.0834   1
   1  -3  10 176.879 10.7416   2
  -3 -10  -1 177.696 11.2027   1
   3   1  10 180.524 10.3268   2
  -3   1 -10 179.298 11.9793   3
  -1 -10   3 174.616 10.4028   1
   1 -10  -3 187.135 11.4399   1
 -10  -3   1 183.584 10.0331   1
  -3  -1  10 166.181 10.4897   2
  10   3   1 179.797 11.6669   2
  -3  10   1 173.244 14.6041   3
  10  -1   3 157.815 11.2199   2
   1   3 -10 170.749 11.9061   3
 -10   3   1 171.265 9.55967   1
  -3  10  -1 183.283 13.8619   3
  -1 -10  -3 189.491 11.5093   1
 -10   1  -3 176.160 9.78481   1
   1 -10   3 170.634 10.4333   1
  -3 -10   1 185.364 9.38658   2
  -3 -10   1 168.379 10.7601   1
  -3  -1 -10 182.848 9.29517   1
  10  -1  -3 197.166 11.7887   2
   1  10  -3 191.448 12.4283   3
   1 -10   3 177.018 9.01828   2
  -1  -3  10 184.957 10.9974   2
  -1   3 -10 189.515 12.2239   3
   3   1 -10 175.007 12.0928   3
   1  -3 -10 181.137 10.1251   1
   3 -10  -1 169.125 10.9909   1
  10  -3   1 184.954 11.0978   2
  10   3  -1 184.861 12.0805   2
  -3   1  10 178.810 10.3399   2
   3  10   1 191.083 14.2686   3
  10   1   3 174.130 11.5824   2
  -3  -1 -10 171.381 12.0136   3
 -10  -1   3 185.838 9.66601   1
  -3   1  10 159.964 12.0786   3
   1   3  10 185.620 9.74016   2
   1   3  10 166.945 12.4172   3
 -10  -3  -1 175.393 10.1303   1
   3  -1  10 169.207 10.5405   2
  -3 -10   3 20.4519 3.24362   2
 -10  -3   3 23.5294 2.92259   1
 -10   3  -3 20.9392 3.15109   1
  10   3  -3 19.0433 4.37587   2
  -3 -10  -3 16.9694 3.91559   1
 -10   3   3 15.6844 2.69249   1
 -10  -3  -3 17.9589 3.26797   1
  -3   3 -10 20.6066 4.58313   3
  -3   3  10 13.5056 4.57286   3
  -3  10  -3 23.8317 5.27767   3
   3   3  10 26.5678 5.31092   3
   3  10  -3 28.0045 5.54593   3
  -3  -3 -10 19.6958 3.22556   1
   3 -10   3 19.6837 2.46105   2
   3 -10   3 19.5416 3.63559   1
   3  -3 -10 22.2627 3.59741   1
  -3 -10   3 21.5521 3.56218   1
   3 -10  -3 16.4329 3.61282   1
  -3   3  10 20.4164 3.16476   2
   3   3  10 20.3368 3.19008   2
  10  -3   3 26.7649 4.66376   2
  10  -3  -3 21.1734 3.80753   2
  -3  -3  10 16.9432 3.65029   2
   3  -3  10 18.3183 3.82362   2
   3   3 -10 17.0539 4.18593   3
  10   3   3 32.7521 5.21154   2
  10   0   4 1269.63 61.2419   2
   0   4  10 1634.78 64.8483   3
   4  10   0 1463.89 64.0261   3
   0 -10   4 1385.22 59.6778   1
   0 -10  -4 1408.04 61.2471   1
   4   0 -10 1402.05 62.6549   3
   0   4 -10 1433.22 62.4450   3
   4   0  10 1407.76 60.4650   2
  -4  10   0 1450.47 65.5268   3
  -4   0 -10 1393.31 61.8820   3
 -10   0  -4 1430.50 59.4501   1
   4  10   0 1461.05 59.2730   2
  10   4   0 1437.73 61.9780   2
  10   0  -4 1288.53 61.4389   2
  10  -4   0 1412.38 60.2631   2
   0  -4  10 1428.22 60.6563   2
   0   4  10 1488.06 58.8271   2
 -10   0   4 1458.90 59.1132   1
  -4   0  10 1335.42 60.0752   2
   0 -10   4 1464.22 58.8491   2
   0  -4 -10 1553.37 60.3956   1
   4 -10   0 1419.71 60.8083   1
 -10  -4   0 1409.06 59.7683   1
   0  10  -4 1404.61 62.3195   3
 -10   4   0 1428.53 59.3160   1
  -4 -10   0 1404.27 60.9520   1
  10  -4  -2 107.475 7.15198   2
   2  -4  10 88.0168 7.17811   2
  10   4   2 112.991 8.24786   2
 -10  -4   2 107.420 6.74592   1
  -4   2 -10 100.573 8.21843   3
   2   4 -10 90.4121 8.15497   3
   4  -2 -10 103.473 6.71944   1
   2 -10  -4 98.1801 7.75925   1
   4  10  -2 84.3062 8.30301   3
  -2  -4 -10 85.3806 6.72195   1
  -2   4  10 82.1963 9.03577   3
 -10   4  -2 105.278 6.42524   1
  -2 -10   4 95.6522 6.52434   1
   4   2  10 98.0536 6.85693   2
  -2   4  10 100.870 6.17995   2
   4 -10   2 90.0677 7.07047   1
  10  -2   4 89.5887 7.71627   2
  -2  10  -4 95.5192 8.54510   3
 -10   2   4 94.2820 6.18551   1
  10   2  -4 79.0101 7.80559   2
 -10  -2  -4 83.4348 6.48569   1
  -4  -2  10 99.2483 7.60335   2
  -2 -10   4 104.762 6.46668   2
  -4 -10  -2 89.9280 7.73704   1
   2   4  10 115.021 6.53440   2
  -4  -2 -10 84.4258 8.15860   3
 -10  -4  -2 96.5595 6.96759   1
 -10  -2   4 103.991 6.28161   1
  10   4  -2 87.6142 8.06180   2
   2 -10   4 88.0659 5.77646   2
 -10   4   2 85.4674 6.09434   1
  10   2   4 92.1329 7.80574   2
   2 -10   4 88.3880 6.87387   1
   4  -2  10 84.3596 7.13087   2
  -2  -4  10 102.941 7.67136   2
  10  -2  -4 104.218 7.76108   2
  10  -4   2 83.7655 6.92868   2
  -4 -10   2 95.5998 6.42369   2
   4 -10  -2 106.477 7.85490   1
   4   2 -10 88.1901 7.99135   3
  -4  -2 -10 86.6657 6.04838   1
   2  -4 -10 99.2006 6.98445   1
  -4   2  10 96.6760 6.80254   2
  -2 -10  -4 98.3060 7.96482   1
 -10   2  -4 103.953 6.42099   1
  -4  10  -2 94.1769 9.33223   3
  -4 -10   2 93.3893 7.02123   1
   2  10  -4 94.0192 8.17040   3
  -4   2  10 92.3518 8.77102   3
   2   4  10 94.4228 9.23047   3
  -2   4 -10 98.1130 8.33975   3
  -4  -4  10 203.702 12.6108   2
  -4  10  -4 203.788 13.8757   3
 -10   4   4 206.119 11.1092   1
  -4   4  10 204.260 15.0563   3
   4   4  10 203.036 11.0910   2
   4 -10   4 211.986 11.9987   1
  -4  -4 -10 217.858 11.9997   1
   4 -10  -4 204.713 12.7403   1
   4  10  -4 205.588 13.2795   3
  -4   4 -10 206.149 13.2581   3
  10  -4   4 215.595 12.6368   2
  -4 -10   4 190.150 11.0256   1
 -10  -4   4 212.743 11.0630   1
   4   4  10 223.320 14.0426   3
  10  -4  -4 214.390 11.7822   2
   4   4 -10 212.309 13.4996   3
  -4 -10   4 205.402 11.3920   2
  -4   4  10 207.936 10.8706   2
   4 -10   4 212.550 10.5349   2
   4  -4  10 207.775 12.5578   2
   4  -4 -10 209.624 11.8617   1
 -10  -4  -4 215.995 12.1027   1
  10   4   4 209.340 12.6861   2
 -10   4  -4 216.790 11.0400   1
  -4 -10  -4 213.811 13.2209   1
  10   4  -4 191.641 13.4206   2
 -10   1   5 891.175 37.6583   1
   1 -10  -5 860.322 39.6832   1
  10  -5  -1 941.189 38.4432   2
 -10  -5   1 865.142 38.2353   1
 -10   5  -1 873.424 37.7635   1
   5 -10   1 855.492 38.9430   1
  -1   5  10 844.573 43.2250   3
  -5  -1  10 897.740 39.5858   2
   5  10  -1 860.588 41.5412   3
   1  -5  10 868.768 39.1722   2
  10   1  -5 805.976 40.2769   2
  -1  10  -5 890.076 40.9617   3
  -1  -5 -10 950.368 39.3453   1
  -1 -10   5 921.557 37.8631   2
   5   1  10 919.505 39.1884   2
  10  -1   5 823.793 40.1372   2
  -5   1 -10 852.734 39.9194   3
   1   5 -10 895.681 40.9232   3
  10   5   1 949.530 40.5196   2
 -10  -1  -5 853.992 38.0731   1
  -5 -10  -1 858.377 39.6926   1
  10  -1  -5 837.930 39.7765   2
   1   5  10 858.821 42.5298   3
  -5   1  10 871.739 38.7248   2
  10   5  -1 856.912 40.4313   2
   5 -10  -1 905.931 39.4632   1
   5  10   1 890.185 37.7095   2
   5   1 -10 878.706 40.7962   3
   5  10   1 847.330 42.3088   3
  -5   1  10 876.575 41.2517   3
  -1   5 -10 884.800 40.9111   3
 -10  -5  -1 885.111 38.8035   1
   1 -10   5 891.273 37.5076   2
 -10  -1   5 881.972 37.5201   1
   1  -5 -10 961.376 39.2752   1
   1   5  10 946.237 37.1728   2
   1  10  -5 845.246 40.4570   3
  -5  -1 -10 870.669 37.2285   1
  -5  -1 -10 874.987 40.3456   3
  -5 -10   1 887.765 39.2665   1
  -1  -5  10 889.090 39.4057   2
   5  -1  10 858.407 39.3804   2
 -10   1  -5 929.341 38.0948   1
  10   1   5 845.177 40.0728   2
  10  -5   1 883.627 38.5232   2
  -5 -10   1 879.121 37.8465   2
  -1 -10  -5 858.036 39.8176   1
  -5  10  -1 883.225 43.4962   3
 -10   5   1 885.222 37.9359   1
   3  -5  10 57.7377 5.97287   2
   5 -10   3 63.2430 5.65191   1
  10   5   3 71.8056 6.39502   2
   5   3  10 71.6738 5.70739   2
 -10  -5   3 71.0691 5.35989   1
 -10   3   5 57.0054 4.84190   1
  -3 -10   5 69.8039 5.60167   2
   5  -3 -10 67.7872 5.57414   1
   5  10  -3 64.7303 6.85972   3
  10  -5  -3 67.1301 5.22117   2
  -5 -10  -3 62.5812 6.47901   1
  -3  10  -5 66.0527 7.14168   3
 -10   5  -3 65.4696 4.99217   1
   5   3  10 68.2191 6.83586   3
   5 -10   3 62.5127 4.89030   2
  -5  -3  10 63.1192 6.51659   2
  -3  -5 -10 61.9780 5.88189   1
   3 -10  -5 66.6258 6.42917   1
  -5   3 -10 63.8060 6.50316   3
  10  -3   5 58.8674 6.22007   2
  -3   5  10 65.9867 8.53768   3
   3   5 -10 60.7157 6.70336   3
 -10  -3  -5 56.5181 5.44762   1
  -5  10  -3 66.1312 7.81572   3
  -5   3  10 59.6252 5.28609   2
   3  10  -5 62.2597 6.67593   3
 -10  -5  -3 63.7545 5.78001   1
   5   3 -10 61.6579 6.66041   3
   3   5  10 72.3327 7.84276   3
   3 -10   5 58.6376 4.75871   2
   5  -3  10 59.2150 6.14113   2
  10  -3  -5 63.7125 5.79090   2
 -10  -3   5 68.0210 4.89512   1
   3  -5 -10 71.2540 6.04285   1
 -10   5   3 54.7880 4.86273   1
  10   5  -3 67.2044 7.01256   2
  10   3   5 71.9696 6.50797   2
  10  -5   3 64.3800 5.72987   2
  -3   5 -10 66.9557 6.91095   3
  -5   3  10 73.3981 8.30560   3
  -5 -10   3 75.9678 5.72292   2
  -3  -5  10 66.0543 6.40413   2
   5 -10  -3 66.6366 6.27757   1
   3   5  10 70.9699 4.92985   2
   3 -10   5 50.4197 7.70707   1
  -5 -10   3 71.8299 5.72148   1
 -10   3  -5 68.2554 5.02626   1
  -3 -10  -5 67.3109 6.69295   1
  -5  -3 -10 63.9457 5.35082   1
 -10  -3   5 67.8414 7.00272   2
  10   5   5 1202.22 53.1003   2
   5   5  10 1206.06 51.5007   2
 -10  -5   5 1217.91 54.5130   2
   5  -5 -10 1188.14 52.7248   1
 -10  -5  -5 1249.36 53.2097   1
   5   5 -10 1278.94 54.7602   3
   5  10  -5 1300.07 54.5771   3
 -10   5  -5 1212.03 51.3672   1
  -5  -5  10 1207.34 53.9761   2
   5 -10   5 1255.69 51.1757   2
  -5 -10   5 1227.15 52.3742   2
  -5  -5 -10 1266.21 53.1630   1
   5 -10  -5 1200.09 53.8483   1
   5 -10   5 1240.41 52.5346   1
   5   5  10 1140.59 54.7260   3
 -10  -5   5 1219.09 51.4220   1
   5  -5  10 1228.80 53.5001   2
 -10   5   5 1232.35 51.9267   1
  -5 -10  -5 1277.98 54.6463   1
  -5  10  -5 1203.18 55.2517   3
  -5   5 -10 1146.63 53.9683   3
  10  -5   5 1299.04 53.5149   2
  10  -5  -5 1181.58 51.6036   2
  -5   5  10 1296.65 58.5470   3
 -10  -6   0 133.852 8.62561   1
   6  10   0 127.260 8.28277   2
   0  -6  10 118.962 8.81887   2
   6   0  10 119.128 8.88333   2
   6  10   0 115.467 11.2882   3
 -10   0  -6 119.000 7.71754   1
 -10   0   6 134.500 7.60210   1
  -6 -10   0 122.610 9.04810   1
  10   0  -6 128.857 9.67031   2
   0 -10  -6 122.233 9.15582   1
  -6   0 -10 123.850 9.21652   3
   6 -10   0 121.579 8.71361   1
  10  -6   0 124.142 7.75482   2
   0  10  -6 128.139 9.98305   3
  -6   0  10 117.432 8.77785   2
  10   6   0 128.775 9.54253   2
   0  -6 -10 122.987 8.82250   1
  -6  10   0 114.126 12.3708   3
   0   6 -10 129.114 10.0201   3
   0 -10   6 127.817 7.90297   2
   6   0 -10 134.010 10.1646   3
 -10   6   0 143.043 8.06869   1
  10   0   6 113.400 9.24726   2
 -10   6  -2 203.447 10.0198   1
 -10  -6   2 205.199 10.4926   1
  -6   2 -10 186.891 11.5140   3
   6 -10   2 144.571 10.0681   1
  -6  -2  10 203.583 11.7826   2
   2   6 -10 137.231 11.2257   3
  -2 -10   6 214.187 10.6533   2
   2 -10  -6 196.318 11.7514   1
 -10  -2  -6 137.559 9.63850   1
   6  -2 -10 211.801 10.3189   1
  -6 -10  -2 134.474 10.6227   1
   6   2  10 211.906 11.1901   2
  -2  10  -6 201.925 12.6764   3
  10  -2   6 129.759 10.7311   2
   6  10  -2 165.151 11.9611   3
   2  -6  10 138.156 10.2220   2
 -10   2   6 144.721 9.14910   1
  -2  -6 -10 144.268 10.4503   1
  -6  -2 -10 140.574 9.28925   1
 -10  -2   6 204.883 9.61913   1
  -6 -10   2 194.506 10.3591   2
  10  -2  -6 193.876 11.3786   2
  -6   2  10 155.143 10.2545   2
   6   2 -10 145.242 11.2065   3
 -10   6   2 141.838 9.40324   1
 -10  -6  -2 151.421 10.2995   1
  10  -6   2 145.979 9.61706   2
   2  -6 -10 215.714 11.3962   1
   6  -2  10 142.176 10.7446   2
  -6 -10   2 211.293 11.1460   1
  -2  -6  10 191.494 11.2228   2
   6  10   2 195.370 9.77028   2
 -10  -2   6 205.059 12.5416   2
  -6  10  -2 208.704 14.9050   3
  -6  -2 -10 141.245 10.8753   3
   2 -10   6 153.091 9.34992   2
  -6   2  10 150.136 12.0246   3
   2   6  10 195.005 14.3240   3
   2  10  -6 135.657 11.1084   3
  10   6  -2 140.892 11.2275   2
  -2   6 -10 201.821 12.7163   3
  -2 -10  -6 147.348 10.9654   1
   6 -10  -2 195.989 11.4281   1
   6   4  10 81.5985 7.40167   3
 -10  -4  -6 56.4606 5.80351   1
   6   4  10 80.4473 5.96924   2
   4 -10  -6 80.9691 7.11617   1
  10  -4   6 58.9947 6.33626   2
   6 -10   4 55.3574 5.58024   1
  -4 -10   6 89.0349 6.63538   2
 -10   4   6 57.5357 5.10614   1
 -10  -6   4 75.2231 5.54241   1
 -10   6  -4 83.8349 5.58471   1
   4   6 -10 61.2032 6.89377   3
 -10   4   6 61.2972 6.53246   3
   6  10  -4 54.6582 6.67904   3
  -6  -4  10 82.9016 7.37049   2
  -4  10  -6 81.1940 7.90482   3
   6 -10   4 58.4260 4.69314   2
  -6   4 -10 79.3916 7.17913   3
   6  -4 -10 78.2029 6.20176   1
  -6 -10  -4 57.1270 6.53700   1
  10   6   4 70.0957 6.32906   2
  -4  -6 -10 59.4703 6.16997   1
   4  -6  10 58.5765 6.25616   2
 -10  -4   6 80.2483 7.54563   2
   6   4 -10 60.1695 6.79870   3
   4 -10   6 61.0755 5.19528   2
  10  -4  -6 75.2324 6.02565   2
  10   6  -4 53.7692 6.77527   2
 -10  -6  -4 56.9408 6.03149   1
   4  10  -6 61.8015 6.87635   3
  -4 -10  -6 60.1986 6.71951   1
 -10  -4   6 74.2971 5.11064   1
   4   6  10 83.5343 5.78754   2
  -6  10  -4 79.6829 8.47190   3
  10   4   6 83.2682 6.84462   2
  -6   4  10 63.4784 8.28732   3
 -10   6   4 58.5927 5.27091   1
   4   6  10 81.8184 8.55221   3
   6  -4  10 49.9078 6.11394   2
   4  -6 -10 75.3476 6.53765   1
 -10   4  -6 80.8824 5.38121   1
  -6 -10   4 81.0483 6.35134   2
  10  -6   4 54.8423 5.51521   2
  -6  -4 -10 53.5129 5.63347   1
  -4  -6  10 70.8144 6.86263   2
  -6 -10   4 86.7339 6.04695   1
  -4   6 -10 79.2631 7.58219   3
   6 -10  -4 87.6348 7.21565   1
   6   6  10 209.014 15.2528   3
 -10  -6   6 228.279 14.9344   2
 -10  -6   6 211.510 12.2756   1
   6   6  10 228.403 12.6424   2
 -10   6   6 298.901 13.9736   1
   6 -10   6 306.526 13.4402   2
  -6  -6  10 211.915 14.6814   2
  10  -6   6 300.055 14.8947   2
   6  -6 -10 236.231 14.1666   1
   6  -6  10 301.390 15.3665   2
  10   6   6 234.321 13.7537   2
 -10  -6  -6 309.207 15.5904   1
  -6  -6 -10 312.741 15.5261   1
 -10   6  -6 220.479 12.4322   1
  -6   6 -10 222.766 14.9130   3
   6 -10  -6 222.107 14.5128   1
  -6 -10  -6 299.817 16.2484   1
  -6  10  -6 232.072 15.8285   3
  -6 -10   6 233.345 13.9641   2
  -1 -10   7 61.4680 5.63556   2
 -10   7  -1 62.3414 5.17507   1
  -7   1 -10 63.7131 6.17101   3
  -1  10  -7 60.5830 7.00560   3
   1  -7  10 60.3962 6.04872   2
  -1  -7 -10 64.6551 6.40098   1
 -10  -7   1 70.4261 5.93691   1
  10  -7  -1 64.6255 4.92010   2
 -10  -1  -7 65.2648 5.39010   1
  10   7   1 65.4683 6.41304   2
 -10   1   7 61.7450 4.85024   1
   1   7 -10 57.2463 6.75079   3
   7  10  -1 54.8810 8.18512   3
   7   1  10 62.8954 6.15528   2
   7 -10   1 59.0939 5.90751   1
  10  -1   7 55.4167 6.47141   2
   7  10  -1 67.9823 6.12547   2
  -7 -10  -1 58.8610 6.27146   1
  -7  -1  10 71.7317 7.01341   2
   1 -10  -7 67.2256 6.49500   1
   1  -7 -10 66.3623 6.28787   1
  -1  -7  10 60.3570 6.15131   2
  10   1   7 55.5154 6.25287   2
  -7  -1 -10 58.2244 4.88370   1
 -10   1  -7 69.8926 5.27491   1
 -10   7   1 61.9558 5.18539   1
  -7 -10   1 67.9694 6.23675   1
  -7  -1 -10 56.7553 5.99941   3
   1  10  -7 66.4545 7.14662   3
   1 -10   7 63.7563 5.37164   2
   7  -1  10 69.2789 6.73065   2
   7  10   1 69.0740 5.63550   2
  10  -1  -7 65.8371 6.51729   2
  10   7  -1 71.7267 6.91416   2
   7 -10  -1 60.0537 6.04979   1
  -1   7 -10 69.6428 7.23589   3
  -7  10  -1 71.6347 10.0449   3
  -1 -10  -7 62.8179 6.54964   1
  10  -7   1 58.8750 4.87296   2
  -7   1  10 66.5682 6.11780   2
 -10  -1   7 65.4974 4.80062   1
   7   1 -10 55.1667 6.43914   3
 -10  -7  -1 58.7899 5.87351   1
 -10  -1   7 63.3586 6.70442   2
  -7   3 -10 49.4706 5.78421   3
  -7  -3  10 57.1264 6.58614   2
 -10   7  -3 57.4345 4.86712   1
   3  -7  10 56.2626 5.78267   2
 -10   3   7 59.2386 6.25231   3
  10   7   3 57.7532 5.76566   2
  -7 -10  -3 52.9373 6.20559   1
 -10   3   7 50.7332 4.66234   1
   7 -10   3 58.7841 5.63540   1
 -10  -3  -7 54.0910 5.35875   1
  -3  10  -7 63.1447 7.09813   3
  -3 -10   7 59.8863 5.73422   2
   7   3  10 62.7205 5.72820   2
  -3  -7 -10 58.4697 6.17853   1
   3 -10  -7 60.5544 6.22845   1
   7  10  -3 52.0143 6.69881   3
  10  -3   7 53.4829 6.21049   2
 -10  -7   3 56.9039 5.16416   1
   3   7 -10 54.8866 6.59101   3
   7  -3 -10 59.0293 5.32510   1
 -10  -7  -3 55.9453 5.86619   1
  -7  10  -3 63.8108 9.18823   3
  -3 -10  -7 58.0452 6.40219   1
   7   3 -10 55.8251 6.30890   3
  10  -3  -7 63.1733 5.85650   2
   3   7  10 42.8122 8.76495   3
   3  -7 -10 55.2266 5.82507   1
 -10   3  -7 58.5686 4.64455   1
  10  -7   3 61.4473 5.07215   2
 -10  -3   7 54.7814 6.49220   2
  10   3   7 64.6955 6.31237   2
 -10   7   3 49.8060 4.83147   1
  -3   7 -10 58.9615 6.81385   3
  -7   3  10 63.9348 5.54823   2
  -7 -10   3 57.9331 5.57248   2
   3 -10   7 65.8403 5.33174   2
   7  -3  10 60.9832 6.48172   2
   3  10  -7 51.5876 6.45805   3
   7 -10  -3 56.0471 6.02755   1
  10   7  -3 60.3716 6.77072   2
  -7 -10   3 63.3499 5.63958   1
  -7  -3 -10 57.6552 5.33413   1
  -7  -3 -10 55.1461 6.16495   3
   7  10   3 49.0563 5.40274   2
  -7   3  10 54.1677 7.27172   3
 -10  -3   7 59.9646 4.45194   1
  -3  -7  10 55.7046 6.09585   2
  10   7   5 65.8746 5.91597   2
   5  -7  10 59.7200 6.22869   2
  -7   5 -10 54.2705 6.36014   3
   7  10  -5 53.8542 6.44948   3
   7   5  10 60.2418 5.34334   2
 -10   5   7 63.5235 7.39625   3
  -5 -10   7 62.9405 6.25746   2
 -10  -7   5 59.1553 4.92586   1
 -10  -7   5 51.1074 6.34548   2
  -7  -5  10 58.1403 6.84866   2
   7 -10   5 59.2838 4.77887   2
   7 -10   5 54.4370 5.38361   1
 -10   5   7 57.0421 5.15442   1
  -7 -10  -5 52.7527 6.47662   1
  10  -5   7 59.5802 6.21051   2
   7  -5 -10 54.8715 5.67071   1
 -10  -5  -7 67.2512 6.32640   1
  -5  10  -7 56.1681 6.99936   3
  -5  -7 -10 49.9563 6.11498   1
 -10   7  -5 53.9895 4.72346   1
   5   7 -10 56.4937 6.66732   3
   5 -10  -7 61.0625 6.52106   1
 -10  -5   7 52.7338 6.55732   2
  -5 -10  -7 58.7753 6.78932   1
   5   7  10 60.8137 7.74091   3
  -7  10  -5 62.7886 7.84469   3
   7 -10  -5 58.2932 6.28440   1
   7   5 -10 65.5403 6.80568   3
 -10   5  -7 57.1657 4.62010   1
  -7 -10   5 60.9970 5.99606   2
   5  10  -7 58.7152 6.79583   3
  -7   5  10 55.8662 8.14848   3
   5 -10   7 58.8082 5.20566   2
   7  -5  10 65.0287 6.72204   2
 -10  -7  -5 57.4854 6.28680   1
  10  -7   5 68.5748 5.83714   2
  -5   7 -10 57.2310 6.90119   3
 -10   7   5 54.8790 5.14921   1
  -5  -7  10 58.3487 6.57241   2
   5  -7 -10 59.8656 6.11927   1
  10   5   7 60.6113 5.85366   2
  -7  -5 -10 64.1436 6.25286   1
   7  -7  10 77.7961 7.10147   2
  10  -7  -7 89.3341 7.71677   1
   7  10  -7 72.9221 7.47447   3
  -7 -10   7 78.1582 7.32369   2
  -7 -10  -7 71.9753 7.60780   1
   7   7 -10 76.7334 7.63158   3
   7 -10   7 70.3053 5.96431   2
 -10  -7  -7 62.8825 7.02735   1
  10   7   7 86.3379 6.64421   2
  -7   7  10 48.4147 10.6860   3
  -7  10  -7 79.1031 8.57320   3
  10  -7   7 71.0421 6.58705   2
   7 -10  -7 78.2769 7.55115   1
 -10  -7   7 69.6835 7.49862   2
  -7  -7  10 72.6195 8.01060   2
   7  -7 -10 75.5510 7.21583   1
  -7   7 -10 73.1693 7.77033   3
  -7  -7 -10 76.9130 7.51068   1
  -8 -10   0 17.1374 3.93201   1
 -10   8   0 15.9185 3.13393   1
   0   8 -10 20.0133 4.89858   3
  -8   0  10 11.8669 3.39746   2
   0  10   8 3.96295 4.93824   3
  10   8   0 20.2475 4.37065   2
  10   0   8 15.7183 4.11697   2
   8   0 -10 18.2306 4.56979   3
 -10   0   8 12.3388 3.65774   2
 -10   0   8 15.8933 2.68928   1
 -10   0  -8 16.0633 3.00204   1
  -8  10   0 9.84083 5.98561   3
 -10  -8   0 22.3138 4.31360   1
   0 -10  -8 15.9199 3.87988   1
   0  10  -8 17.7523 4.64732   3
   0  -8  10 18.2077 3.88550   2
   0 -10   8 14.5280 3.23544   2
   0  -8 -10 17.2615 3.90323   1
   8   0  10 17.0410 4.02936   2
 -10   8   0 6.73087 6.77271   3
   8  10   0 17.6443 3.65861   2
   8 -10   0 18.1958 3.89358   1
   8 -10   2 53.1144 5.49577   1
  10  -2   8 55.3637 6.36335   2
   2   8 -10 51.2544 6.54267   3
   2 -10  -8 45.3228 5.57709   1
  -8  -2  10 44.5804 6.59824   2
  -2 -10   8 48.5858 5.34158   2
   8   2  10 43.0098 5.40137   2
 -10   2   8 56.8151 4.65576   1
  -2  10  -8 47.3288 6.53631   3
   8  -2 -10 43.7035 4.73547   1
 -10   8  -2 48.7029 4.60497   1
  -2  -8 -10 56.5331 6.16388   1
 -10  -2  -8 62.4252 5.48697   1
   2  -8  10 51.8512 5.62329   2
  10   8   2 47.1091 5.32987   2
   8  10  -2 60.7059 6.09871   2
 -10  -8   2 42.8061 4.94665   1
  -8 -10  -2 48.1397 5.97567   1
 -10   2   8 58.8547 6.19474   3
  -8 -10   2 48.1436 5.34799   1
   8   2 -10 55.1181 6.19601   3
   8  10   2 41.6637 4.65479   2
   2  -8 -10 48.7128 5.61113   1
  -8  10  -2 60.9350 11.2338   3
   2  10  -8 53.4252 6.56052   3
  -2   8 -10 46.1044 6.40008   3
  -8  -2 -10 53.7166 4.98061   1
  -8   2  10 59.6264 7.13487   3
 -10   2  -8 47.1056 4.29098   1
  10   2   8 38.1877 6.07643   2
 -10  -8  -2 55.5278 5.97595   1
 -10  -2   8 43.3883 6.77774   2
  10  -8   2 59.8556 4.65489   2
  -8   2  10 62.0079 5.86661   2
  -2 -10  -8 55.4353 6.26602   1
 -10  -2   8 42.8507 3.90904   1
  -2  -8  10 37.3000 5.91949   2
  10  -2  -8 44.1261 5.40097   2
  10   8  -2 55.2026 6.36612   2
   8 -10  -2 44.1066 5.52543   1
 -10   8   2 57.3574 5.07169   1
   2 -10   8 55.0291 5.32606   2
   8  -2  10 52.1839 6.22886   2
 -10   4   8 126.440 10.3866   3
  -4  -8 -10 123.254 9.33140   1
 -10  -8   4 93.1562 7.04165   1
  -8  -4  10 89.9448 8.67454   2
  -4  10  -8 88.7930 8.99557   3
   4   8 -10 111.116 9.48677   3
  -4 -10   8 98.6759 7.90701   2
  10   8   4 92.8656 7.50889   2
   8 -10   4 102.420 7.70978   1
 -10   8  -4 95.3938 6.83072   1
   4  -8  10 111.771 8.30514   2
  10  -4   8 102.699 8.83476   2
   8  -4 -10 91.1142 7.51642   1
 -10  -4  -8 110.696 8.17626   1
  -8   4 -10 96.9202 8.27100   3
   4 -10  -8 95.6867 8.36599   1
  -8 -10  -4 101.624 8.88950   1
 -10   4   8 107.747 7.22395   1
   8   4  10 94.2932 7.47931   2
  -4 -10  -8 108.219 8.97720   1
  10   4   8 97.4763 7.94550   2
   8   4 -10 114.709 8.99577   3
  -8  10  -4 100.700 11.1260   3
   4  10  -8 109.885 9.34243   3
  -8 -10   4 99.7733 7.25976   1
 -10   8   4 110.822 7.64200   1
 -10  -4   8 102.130 9.14064   2
 -10  -8  -4 105.689 8.70164   1
  -4  -8  10 92.4424 8.41051   2
   4 -10   8 111.968 7.64336   2
  -8  -4 -10 118.447 8.33234   1
  10  -8   4 116.793 7.34550   2
  10   8  -4 101.502 9.15736   2
  -4   8 -10 91.5519 9.06024   3
  -8   4  10 120.495 11.2178   3
   8 -10  -4 104.495 8.59236   1
 -10   4  -8 96.1730 6.48769   1
   4  -8 -10 108.668 8.45261   1
   8  -4  10 110.012 9.09007   2
  -8 -10   4 95.1104 7.86280   2
   8   6  10 78.8354 6.12845   2
  -8   6 -10 73.1529 7.51333   3
  -8 -10  -6 67.9259 7.49818   1
   6 -10  -8 73.2418 7.38063   1
   8  -6 -10 86.4636 7.27968   1
  10  -6   8 74.4434 7.12915   2
 -10  -8   6 68.6427 7.26603   2
  10   8   6 66.9914 6.07574   2
 -10   6   8 77.6935 9.08465   3
  -6  -8 -10 69.7310 7.40790   1
  -6  10  -8 71.3551 8.03625   3
   6   8 -10 68.3434 7.53924   3
 -10   8  -6 77.8675 5.71222   1
  -6 -10   8 83.7059 7.47421   2
  -8  -6  10 75.4457 7.84984   2
 -10  -6  -8 73.6055 7.27460   1
   8 -10   6 68.3340 5.62140   2
   6  -8  10 68.4064 6.90710   2
  10  -8  -6 81.1567 7.44564   1
  -8   6  10 69.2387 9.42542   3
 -10  -8  -6 52.9542 6.64813   1
   6   8  10 68.4512 8.42172   3
   6  -8 -10 83.5101 7.51135   1
  10  -8   6 67.7085 6.08259   2
   8  -6  10 73.7782 7.36850   2
  10  -6  -8 84.6079 7.42984   1
   8 -10  -6 67.7138 7.13261   1
  -6 -10  -8 73.8790 7.68848   1
  -8  -6 -10 74.1351 7.33753   1
  -6  -8  10 74.5172 7.76921   2
   8   6 -10 66.9004 7.18622   3
 -10  -6   8 81.7494 8.12337   2
  -8  10  -6 72.4366 8.65511   3
  -8 -10   6 78.7745 7.16845   2
   6  10  -8 66.4640 7.48874   3
  -6   8 -10 73.8479 7.99880   3
  10   6   8 70.6752 6.36517   2
   6 -10   8 75.7257 6.24220   2
  10  -8   8 29.9144 5.01842   2
  -8   8 -10 47.0709 6.48579   3
   8  -8 -10 50.5773 6.28433   1
  -8  -8  10 43.8418 6.85753   2
  -8  10  -8 45.4599 7.17997   3
   8  -8  10 30.2196 5.21524   2
   8   8 -10 32.2957 6.26486   3
  -8  -8 -10 28.3473 5.81643   1
   8 -10  -8 52.5354 6.33604   1
  10   8   8 52.3894 7.41106   2
   8 -10   8 29.0232 4.52314   2
 -10  -8  -8 23.6033 5.28282   1
  -8 -10  -8 28.0858 5.91267   1
 -10  -8   8 42.1851 6.73588   2
  -8 -10   8 47.8624 6.84807   2
  10  -8  -8 42.2040 6.33664   1
   1 -10  -9 277.396 15.4091   1
  -9 -10  -1 258.089 15.3356   1
   1   9 -10 245.283 16.1524   3
  -1 -10   9 264.746 14.5313   2
  10   9   1 260.977 14.7556   2
 -10   1   9 276.249 15.3374   2
 -10   1   9 254.337 13.0377   1
  -1  -9 -10 271.141 15.4371   1
  -1  10  -9 250.765 16.3464   3
   1  -9  10 252.819 14.4923   2
 -10  -1  -9 244.052 13.4650   1
 -10   9  -1 256.068 13.6626   1
   9 -10   1 267.566 14.7859   1
   9   1  10 243.805 14.9323   2
  10  -1   9 235.093 15.4114   2
 -10   9  -1 241.137 21.4122   3
   9  10  -1 250.999 14.6892   2
  -9  -1  10 247.279 15.2849   2
 -10  -9   1 263.200 14.6803   1
   9  -1 -10 253.038 15.7111   3
   9  10   1 240.413 14.1319   2
   9   1 -10 259.369 15.4667   3
  10   1   9 261.700 15.3631   2
  -9 -10   1 260.070 14.7946   1
 -10  -9  -1 251.931 15.0399   1
   1 -10   9 264.285 14.2663   2
  -1  -9  10 254.646 14.6762   2
   9 -10  -1 249.166 14.7903   1
   9  -1  10 234.336 15.2163   2
 -10   1  -9 253.559 13.1734   1
  10   9  -1 251.270 15.1404   2
 -10   9   1 250.883 13.7873   1
   1  10  -9 256.689 16.3217   3
  -9  -1 -10 244.854 13.2274   1
   1  -9 -10 259.383 14.9330   1
  -9   1  10 276.996 15.2005   2
  10  -1  -9 240.328 14.8833   3
  -1   9 -10 252.923 16.4333   3
  -1 -10  -9 266.951 15.4821   1
 -10  -1   9 262.550 15.6674   2
  -3  -9 -10 7.35174 3.30293   1
  10   9   3 7.69391 2.67072   2
   9   3  10 8.45322 3.12611   2
 -10  -9   3 8.69138 2.90245   1
 -10  -3  -9 9.31818 2.88974   1
  -9  10   3 3.20841 5.17170   3
  10  -9  -3 7.53050 3.06345   1
 -10   3   9 9.98688 4.08282   3
   3   9 -10 8.09712 3.51248   3
 -10   3   9 9.01878 2.40717   1
   9  -3 -10 7.18005 2.62815   1
  10  -3   9 9.54279 3.60184   2
  -3  10  -9 8.99894 4.02663   3
   9 -10   3 11.7579 3.23682   1
  -9 -10  -3 9.94169 3.56749   1
  -3 -10   9 7.37230 3.03482   2
   3  10   9 0.78133 4.15985   3
   3  -9  10 11.8776 3.29423   2
   9  10  -3 14.0234 3.75041   2
 -10   9  -3 8.70057 2.42939   1
   3 -10  -9 6.72758 2.90350   1
  -9  -3  10 9.14833 3.80980   2
  -3   9  10 -0.5298 4.59407   3
  10  -3  -9 8.47031 2.90793   2
 -10  -3   9 11.3739 3.87798   2
   9  10   3 5.87290 2.37685   2
   9   3 -10 10.6727 3.51658   3
  -9  10  -3 6.89635 6.26183   3
  -9 -10   3 9.16648 2.80551   1
  -9  -3 -10 8.05001 2.81152   1
   9 -10  -3 10.1015 3.45488   1
  10   3   9 7.62535 2.95150   2
   3   9  10 -0.1295 3.89295   3
 -10   9   3 1.84481 4.54381   3
  -9   3  10 16.0180 4.99961   3
  -3  -9  10 7.22624 3.17095   2
  10   9  -3 9.78584 3.58375   2
   3  10  -9 11.2792 4.05003   3
  -3   9 -10 9.13798 4.01843   3
  -9   3  10 12.6008 3.45627   2
   3  -9 -10 6.74556 2.89460   1
   3 -10   9 10.8452 3.03963   2
   9  -3  10 11.8873 3.81816   2
  -3  10   9 -1.0587 4.50633   3
  -3 -10  -9 8.02939 3.14448   1
 -10  -9  -3 11.9129 3.78109   1
  -9  -5  10 573.898 28.2138   2
  -5 -10   9 571.032 26.9196   2
 -10   9  -5 530.373 24.6160   1
 -10  -9   5 576.565 27.2328   2
  10  -9  -5 557.026 27.1787   1
  -5  -9 -10 530.672 27.2982   1
 -10  -5  -9 546.980 26.5180   1
   9   5  10 535.356 25.4347   2
 -10   5   9 460.936 28.9083   3
   9  -5 -10 565.117 26.3793   1
  10   9   5 531.024 25.0778   2
  -5  10  -9 529.044 28.2372   3
   5   9 -10 528.105 27.8527   3
   5  -9  10 543.466 25.9562   2
  10  -5   9 519.515 27.1005   2
  -9 -10  -5 475.716 27.0308   1
   5 -10  -9 546.403 27.0774   1
   9 -10   5 490.158 25.2735   1
   9  -5  10 504.116 27.1121   2
  -9 -10   5 558.416 26.6293   2
  10  -9   5 503.001 24.6065   2
   5  10  -9 524.615 27.7060   3
 -10  -9  -5 503.900 27.2158   1
  -5   9 -10 537.369 28.3228   3
   9   5 -10 539.122 26.9281   3
  -5 -10  -9 534.242 27.3640   1
  10   5   9 565.218 25.9590   2
  10  -5  -9 590.122 26.7530   1
   5  -9 -10 582.621 27.2051   1
   9 -10  -5 555.951 27.2555   1
   5 -10   9 543.116 25.4632   2
  -5  -9  10 586.929 27.2906   2
  -9  10  -5 524.443 30.0375   3
 -10  -5   9 584.234 28.3608   2
  -9  -5 -10 544.626 26.5067   1
  -7   9  10 1.21659 4.61909   3
  -9  10   7 2.57608 5.17180   3
   7   9 -10 0.04213 2.45882   3
   9 -10   7 1.37269 1.90352   2
 -10  -9   7 1.34449 2.58869   2
   7  -9  10 -0.4559 2.20008   2
  10  -9  -7 0.17741 2.23700   1
   7 -10  -9 0.95850 2.50974   1
 -10   7   9 4.81220 4.35719   3
  -7 -10   9 1.99115 2.74303   2
  10  -7   9 -0.1537 2.13899   2
 -10  -7  -9 0.62853 2.33882   1
  -9 -10  -7 3.34383 2.78531   1
  -7  -9 -10 2.10959 2.69354   1
   9  -7 -10 1.65345 2.54346   1
  -7  10  -9 1.04414 2.78106   3
  -9  -7  10 0.27636 2.83434   2
   9  -7  10 0.40681 2.21684   2
   7 -10   9 1.38354 2.25280   2
  10  -7  -9 1.64556 2.55750   1
  -7  10   9 1.13751 4.56183   3
   7  10  -9 2.03714 2.92421   3
  10   7   9 -0.1806 1.78912   2
  -7 -10  -9 0.65201 2.46875   1
   7  -9 -10 0.50823 2.36233   1
 -10  -7   9 1.66714 2.64468   2
  -9 -10   7 2.30104 2.53927   2
  -7  -9  10 1.40484 2.81357   2
   9 -10  -7 0.21863 2.32216   1
 -10   9   7 0.39939 4.64699   3
  -9   7  10 1.62188 3.81491   3
 -10  -9  -7 2.60741 2.71608   1
  -7   9 -10 0.67252 2.62593   3
  10  -9   7 1.53372 1.98724   2
  -9  10  -7 1.65089 3.57126   3
  -9  -7 -10 -0.0479 2.34839   1
 -10  -9  -9 174.206 12.4327   1
  -9 -10  -9 172.959 12.6903   1
  -9  -9 -10 149.148 11.9437   1
   9 -10  -9 143.627 11.6021   1
 -10  -9   9 149.776 11.8613   2
  -9 -10   9 133.572 11.2847   2
  -9  -9  10 141.310 11.7732   2
   9 -10   9 162.963 10.4792   2
   9  -9  10 169.885 11.1977   2
  10  -9   9 159.729 10.6875   2
   9  -9 -10 158.068 11.8479   1
  10  -9  -9 159.346 11.8326   1
 -10   0  10 467.290 23.6557   2
   0 -10 -10 458.133 23.3752   1
  10 -10   0 445.563 22.9031   1
   0 -10  10 465.797 22.5773   2
  10  10   0 432.005 22.6587   2
   0  10 -10 444.912 24.8140   3
  10   0 -10 477.623 26.2810   3
 -10 -10   0 446.715 23.2205   1
  10   0  10 428.262 23.4817   2
  -2 -10  10 161.672 11.5987   2
 -10 -10   2 177.627 11.6626   1
  10  10   2 170.842 11.2256   2
  -2  10 -10 174.180 13.5641   3
   2  10 -10 226.844 14.4331   3
  10  -2 -10 173.914 12.8202   3
  10  -2  10 239.265 14.1791   2
  10   2  10 172.427 12.0866   2
  10  10  -2 239.726 13.5042   2
 -10 -10  -2 230.191 13.5945   1
 -10  -2  10 159.280 12.5453   2
   2 -10 -10 180.368 12.2087   1
  10 -10  -2 189.579 12.4915   1
  10  10  -4 122.174 10.0922   2
  10  -4  10 123.674 10.2831   2
  10   4  10 123.955 9.02097   2
  10  -4 -10 126.266 9.13022   1
  -4 -10  10 122.735 9.58604   2
   4 -10  10 123.862 8.90180   2
  10  10   4 125.430 11.8103   2
 -10 -10   4 116.412 8.32293   1
 -10  -4 -10 114.525 8.91317   1
  -4 -10 -10 122.448 10.0752   1
   4 -10 -10 125.967 9.68053   1
  10 -10  -4 126.326 9.94554   1
  10 -10   4 111.180 8.55159   1
 -10   4  10 121.123 11.1986   3
  -4  10 -10 122.971 11.0008   3
   4  10 -10 112.796 10.2216   3
 -10 -10  -4 117.251 10.1219   1
 -10  -4  10 128.571 10.7164   2
  -6  10 -10 16.9136 4.99002   3
 -10  10   6 0.42628 5.06424   3
   6  10 -10 5.96006 3.54368   3
  10  -6  10 8.07185 3.48951   2
  10   6  10 16.8748 3.70270   2
  10  -6 -10 17.9174 4.31918   1
   6 -10  10 7.65573 2.97594   2
  -6 -10  10 21.9747 5.19270   2
 -10 -10   6 14.2170 4.23926   2
  -6  10  10 -0.3682 4.25575   3
 -10 -10  -6 7.25248 3.63311   1
 -10  -6 -10 9.75042 3.41974   1
  -6 -10 -10 8.26863 3.96369   1
   6 -10 -10 17.5652 4.37696   1
  10 -10  -6 18.7062 4.58602   1
 -10   6  10 8.71903 5.15492   3
 -10  -6  10 23.4224 5.55121   2
  -8 -10 -10 1.47962 2.86177   1
 -10  -8 -10 2.16275 2.78026   1
  -8  10  10 -0.1618 4.39822   3
 -10   8  10 3.13680 4.27102   3
 -10  10   8 0.85025 4.86976   3
 -10 -10   8 6.34777 3.48176   2
 -10  -8  10 5.66736 3.61490   2
  -8 -10  10 7.01255 3.83073   2
   8 -10  10 1.25940 2.51091   2
  10 -10   8 1.34681 2.01909   2
  10  -8  10 0.72631 2.33565   2
  -8  10 -10 3.83438 3.58108   3
 -10 -10  -8 -0.8646 2.32765   1
  10  -8 -10 7.26306 3.66332   1
  10 -10  -8 5.21629 3.44186   1
   8 -10 -10 3.43397 3.02714   1
   0  -1 -11 148.862 11.6377   3
  -1  11   0 136.440 12.7173   3
 -11   0  -1 147.973 8.61243   1
 -11   0   1 149.112 8.49783   1
  -1 -11   0 150.319 10.0164   1
   1 -11   0 145.560 9.74492   1
  11   0   1 120.567 9.76735   2
   0  11  -1 133.450 12.0251   3
   0  11   1 147.866 13.4061   3
   1   0 -11 141.786 11.1214   3
   0  -1  11 139.687 9.25361   2
   0   1  11 144.522 8.96728   2
  11   0  -1 135.534 10.1346   2
  -1   0 -11 134.435 10.8279   3
 -11  -1   0 150.347 8.71131   1
   0   1 -11 139.008 10.9327   3
   1  11   0 137.966 12.5564   3
  11  -1   0 138.322 10.0017   2
  11   1   0 148.090 10.5242   2
   0 -11  -1 135.684 9.69156   1
   0 -11   1 148.817 9.79412   1
 -11   1   0 149.460 8.54985   1
  -1   0  11 145.687 9.23819   2
   1   0  11 136.509 8.97381   2
  11   2   1 134.998 9.80348   2
  11   1  -2 116.972 9.45580   2
 -11  -2   1 124.532 7.78087   1
  -1   2  11 123.847 7.93509   2
   1  -2  11 128.733 8.75806   2
  -1   2  11 122.393 10.4459   3
 -11   1   2 128.932 7.72559   1
  11  -1   2 122.053 9.33250   2
  11  -2  -1 126.890 9.04824   2
 -11   2  -1 132.248 7.76182   1
   2 -11   1 129.342 8.98471   1
  -2   1 -11 118.937 9.86020   3
   2  11  -1 121.745 11.2954   3
  -1  11  -2 136.229 11.0472   3
   1 -11  -2 123.480 9.02340   1
  -2 -11  -1 123.834 9.19893   1
   2   1  11 134.513 8.44930   2
 -11  -1  -2 128.978 7.95867   1
  -1 -11   2 122.402 8.69932   1
   1   2 -11 129.721 10.2467   3
  -2  11   1 97.2853 11.5891   3
  -2  -1  11 112.510 8.37371   2
   2  11   1 122.660 12.2314   3
  -1  -2  11 124.365 8.73431   2
   1 -11   2 122.234 8.65313   1
  11   1   2 112.135 9.21983   2
  11   2  -1 114.959 9.47964   2
  -2 -11   1 118.553 8.80616   1
  -2   1  11 119.542 10.1213   3
   2   1 -11 120.946 10.0632   3
   1   2  11 114.251 10.0477   3
  11  -2   1 136.684 9.44616   2
  -2  11  -1 114.752 11.3402   3
 -11   2   1 128.695 7.71901   1
  -1 -11  -2 127.844 9.29679   1
 -11   1  -2 123.175 7.69436   1
 -11  -2  -1 121.506 7.86320   1
   2  -1  11 115.366 8.40917   2
   2 -11  -1 134.692 9.24941   1
  -1   2 -11 119.603 9.86652   3
  -2  -1 -11 120.797 10.1959   3
  -2   1  11 129.462 8.31730   2
   1   2  11 130.614 8.02285   2
  11  -1  -2 126.533 9.36096   2
   1  11  -2 119.571 10.4173   3
 -11  -1   2 118.915 7.54863   1
   0   3 -11 1.82684 2.24808   3
   0 -11  -3 1.46882 1.99699   1
   0 -11   3 2.07926 1.92180   1
  -3   0 -11 -0.4951 1.92442   3
  11   3   0 2.28145 2.13973   2
  -3   0  11 0.38587 1.64275   2
   3 -11   0 0.45592 1.73799   1
 -11   3   0 0.21116 1.00338   1
 -11   0  -3 -0.0908 0.96124   1
 -11   0   3 0.80292 1.11623   1
  -3 -11   0 1.75223 1.99476   1
   0  -3 -11 1.24575 1.76030   1
  -3  11   0 1.09928 4.62758   3
  11  -3   0 3.44361 2.03651   2
   0  11  -3 0.41455 2.24500   3
   0  11   3 2.37585 5.16959   3
 -11  -3   0 1.53067 1.40886   1
   0   3  11 0.93290 1.46383   2
   0 -11   3 0.74866 1.35555   2
   3   0  11 1.45335 1.69500   2
   0  -3  11 0.19902 1.76802   2
   3  11   0 4.01027 4.78343   3
   0   3  11 0.92597 2.41159   3
   3   0 -11 0.23738 1.97538   3
  11   0  -3 1.32152 1.89538   2
  11   0   3 0.94565 1.73952   2
  -2 -11   3 20.4198 3.89891   1
  11  -2   3 28.4920 5.15046   2
  -2   3  11 28.3896 5.96803   3
  -2 -11   3 23.2847 3.45732   2
  -3   2 -11 24.4784 5.29195   3
 -11  -3   2 25.5557 3.86495   1
   3 -11   2 33.6603 4.97809   1
 -11   2   3 29.4156 3.29468   1
  -3  -2  11 27.1785 4.62964   2
 -11  -2  -3 28.2871 3.57986   1
  -2  -3 -11 30.4559 3.64073   1
   3   2  11 31.2701 4.32315   2
   2   3 -11 27.9985 5.65657   3
  11   2  -3 30.1586 5.45792   2
   3  11  -2 37.1576 7.36316   3
  -2   3  11 34.9797 3.69127   2
   2  -3  11 32.3325 4.80545   2
  -3 -11  -2 28.4794 4.99233   1
  -2  11  -3 32.1496 6.76796   3
  11  -3  -2 25.5896 4.34694   2
   2 -11  -3 26.0688 4.80726   1
  11   3   2 22.8107 4.76713   2
 -11   3  -2 23.5491 3.07427   1
   2   3  11 29.3098 5.90715   3
  -3  11  -2 38.9792 8.37749   3
  11  -2  -3 23.0749 4.46625   2
  -3 -11   2 22.8638 3.34810   2
  -2  -3  11 28.9724 4.82681   2
   2   3  11 23.9850 3.73269   2
  -3  -2 -11 27.6623 6.07835   3
   2  11  -3 31.9738 5.54785   3
   3 -11  -2 26.8116 4.80324   1
  11   2   3 20.5332 4.55526   2
   3  -2  11 26.6395 4.50491   2
  -2 -11  -3 31.4202 5.21904   1
  -3   2  11 31.9393 5.58991   3
 -11   2  -3 20.4704 3.31625   1
  11   3  -2 34.2870 5.88297   2
 -11  -3  -2 28.2424 3.59456   1
  -3 -11   2 24.9774 4.40053   1
  -3   2  11 31.5404 3.89474   2
   3   2 -11 28.8848 4.94193   3
  11  -3   2 36.2043 5.37555   2
  -2   3 -11 26.0452 5.49192   3
 -11  -2   3 22.8458 3.45772   1
 -11   3   2 33.0105 3.48112   1
   2 -11   3 32.7917 4.76556   1
 -11  -1  -4 73.8318 5.81401   1
  -4  11   1 54.9003 9.50800   3
  11   1  -4 55.6063 6.65726   2
  -1   4  11 58.7335 8.34681   3
  -4  -1  11 76.6692 6.67256   2
   1 -11  -4 73.1590 6.82255   1
   1  -4  11 81.5821 7.01182   2
   4  11  -1 61.6374 8.57102   3
  -1 -11   4 78.6269 6.12240   1
  -4   1 -11 77.9217 7.53295   3
  -1 -11   4 83.8572 5.61423   2
   4   1  11 87.7196 6.60175   2
   1   4 -11 65.3599 7.29390   3
 -11   1   4 63.0804 5.17913   1
 -11  -4   1 83.6888 6.12292   1
  -1  11  -4 84.4763 8.24913   3
  11  -1   4 69.3520 6.98627   2
  11   4   1 90.0649 7.71463   2
 -11   4  -1 76.4708 5.60221   1
  -1  -4 -11 68.7503 6.03780   1
  -1   4  11 74.5420 5.33983   2
  11  -4  -1 81.3110 6.41676   2
   4 -11   1 68.8259 6.46697   1
  -4 -11  -1 71.1661 6.84976   1
   1  11  -4 69.5734 7.63796   3
   1 -11   4 65.5521 5.94108   1
   1   4  11 77.8881 8.76970   3
  -1  -4  11 73.1789 6.74596   2
  11   4  -1 73.8981 7.35674   2
  -1   4 -11 86.7604 8.02616   3
 -11   1  -4 89.3209 5.99708   1
  -4   1  11 67.2430 7.70428   3
   1  -4 -11 83.5700 6.45469   1
 -11   4   1 69.3796 5.40179   1
  -1 -11  -4 71.3611 6.96427   1
  11  -1  -4 78.9474 7.11634   2
   1   4  11 81.8252 5.53038   2
   1 -11   4 73.3183 5.17795   2
 -11  -4  -1 72.1932 6.00856   1
  -4 -11   1 73.5544 6.67996   1
  11   1   4 81.6398 7.38084   2
 -11  -1   4 78.7348 5.53018   1
  -4  11  -1 80.8979 10.0733   3
   4  -1  11 70.3338 6.50414   2
  11  -4   1 63.1984 5.98265   2
   4  11   1 75.4826 9.81150   3
  -4   1  11 74.4251 6.33117   2
  -4  -1 -11 71.9418 7.53007   3
   4   1 -11 71.9900 7.59483   3
  -4 -11   1 77.5584 5.57985   2
   4 -11  -1 77.9914 6.94417   1
  -3 -11   4 20.3461 3.60957   2
  -4   3 -11 25.8450 5.35025   3
   3 -11  -4 25.5075 4.93582   1
  11  -4  -3 25.0841 4.06652   2
 -11  -3  -4 31.4999 4.60722   1
  -4 -11  -3 43.2485 6.41281   1
  11   3  -4 37.1770 6.20814   2
 -11   4  -3 24.4589 3.18206   1
  -3   4  11 34.7314 5.07725   2
   3  -4  11 33.3749 5.21055   2
   4   3  11 25.1828 3.87728   2
   3   4 -11 30.9516 5.11384   3
  -4  -3  11 23.3570 4.55266   2
  11   4   3 25.1278 4.75656   2
  -3 -11   4 27.1206 4.03221   1
  -3   4  11 25.5530 6.53447   3
 -11   3   4 29.0910 3.38560   1
  -3  11  -4 24.8125 5.86538   3
   4 -11   3 36.3396 5.20655   1
  -3  -4 -11 33.8861 4.22447   1
   4   3  11 24.2222 5.38074   3
  11  -3   4 34.0189 5.46695   2
 -11  -4   3 20.7269 3.46096   1
   4  11  -3 33.0921 5.74227   3
   4 -11  -3 21.6352 4.39637   1
 -11  -3   4 24.5563 3.18326   1
  -4 -11   3 22.3122 3.65313   2
   4   3 -11 30.4975 5.07750   3
  -4   3  11 34.1257 4.00409   2
   3   4  11 23.3623 5.63598   3
  11  -4   3 34.7361 5.23483   2
  -3  -4  11 23.9237 4.69834   2
 -11   3  -4 26.8925 3.82447   1
 -11  -4  -3 31.5660 4.03694   1
  -3   4 -11 22.5116 5.21742   3
   3  -4 -11 22.2875 3.87021   1
  11   3   4 19.0758 4.35953   2
 -11   4   3 32.5040 3.57139   1
  -4  -3 -11 34.9370 3.93910   1
  11  -3  -4 29.6114 4.75475   2
  -4   3  11 36.4761 6.24071   3
   3 -11   4 33.6350 4.77684   1
  -4  11  -3 27.6035 6.78581   3
  -4 -11   3 24.7323 4.14763   1
  11   4  -3 40.5418 6.53185   2
  -3 -11  -4 25.6707 4.77371   1
   3  11  -4 37.7887 5.78708   3
   3   4  11 23.9354 3.48083   2
   4  -3  11 35.9142 5.37964   2
 -11   5   0 69.6395 5.37930   1
  11  -5   0 65.3709 5.60812   2
  11   5   0 63.7602 6.76437   2
   5   0  11 71.3993 6.46139   2
 -11   0  -5 68.1812 5.49428   1
   0  -5  11 64.2487 6.48647   2
   5  11   0 72.5227 9.62309   3
  11   0   5 54.9090 6.40357   2
  -5 -11   0 66.3808 6.48766   1
  -5   0 -11 69.5678 7.15107   3
   0   5 -11 61.5249 7.07888   3
   0 -11  -5 62.5786 6.50228   1
   5   0 -11 66.8961 7.42006   3
  -5   0  11 81.7997 6.87690   2
   0 -11   5 71.5296 5.31566   2
  11   0  -5 62.1106 6.70553   2
   0  11  -5 62.4803 7.17622   3
  -5  11   0 53.3379 9.42575   3
 -11  -5   0 68.5264 5.90211   1
   5 -11   0 64.9454 6.32450   1
 -11   0   5 71.2520 5.24219   1
   0  -5 -11 72.3073 6.34649   1
   0   5  11 77.4246 8.95418   3
  11  -5  -2 260.923 13.3210   2
   2  -5  11 246.848 14.2686   2
  -2  -5 -11 243.661 13.7889   1
  -2 -11   5 241.593 12.7643   2
  -5 -11  -2 242.544 14.8857   1
   5   2  11 264.259 13.7903   2
   2   5 -11 256.969 15.7792   3
 -11   5  -2 239.950 12.7222   1
 -11   2   5 253.198 12.7801   1
  -5  -2  11 255.161 14.7948   2
  -2  11  -5 240.217 15.7424   3
   5  11  -2 247.319 16.1365   3
 -11  -2  -5 237.717 13.1736   1
  -5   2 -11 222.068 14.6606   3
   2 -11  -5 234.670 14.4412   1
   5 -11   2 250.059 14.0540   1
  -2   5  11 233.746 17.4515   3
 -11  -5   2 238.201 13.0725   1
  11   2  -5 227.857 15.2069   2
  11  -2   5 241.673 14.9324   2
  11   5   2 263.715 14.9138   2
 -11   5   2 237.011 12.8523   1
  -5  11  -2 256.962 17.9305   3
  -5  -2 -11 243.659 15.5319   3
  -5   2  11 237.742 16.4471   3
   5   2 -11 244.865 15.5181   3
 -11  -5  -2 257.753 13.9281   1
  -5   2  11 259.128 13.4990   2
   2  -5 -11 266.279 13.9177   1
 -11   2  -5 250.057 12.8642   1
  11   5  -2 234.495 15.1362   2
 -11  -2   5 249.114 12.5678   1
   2 -11   5 242.506 12.3340   2
   5  -2  11 235.142 14.2749   2
  -5 -11   2 245.372 13.9875   1
   2   5  11 249.914 17.4466   3
   2   5  11 244.798 12.2963   2
  -2 -11  -5 255.395 15.0127   1
  11   2   5 253.443 14.9563   2
  11  -2  -5 241.685 14.2741   2
  -2  -5  11 234.923 14.2106   2
  -5 -11   2 235.413 12.7471   2
   5 -11  -2 250.503 14.5553   1
  -2   5 -11 242.941 15.5333   3
  11  -5   2 249.555 13.6520   2
   2  11  -5 241.435 15.3935   3
 -11  -4  -5 46.4224 5.22017   1
   5   4  11 58.8145 7.00672   3
  -5  -4  11 62.6580 6.86400   2
   5  -4 -11 65.0390 5.71532   1
   4   5 -11 49.0410 6.36696   3
  -5 -11  -4 40.5978 6.29469   1
  -4  -5 -11 40.7648 5.26516   1
   4  -5  11 44.8205 6.33490   2
  -5   4 -11 56.7361 6.46581   3
  -4  11  -5 54.0575 7.20606   3
   4 -11  -5 60.8012 6.34419   1
  -4 -11   5 62.1671 5.49416   2
   5 -11   4 38.8322 4.98431   1
  -4   5  11 46.4343 7.86372   3
  11   5   4 62.1992 6.16762   2
 -11   5  -4 67.1111 5.05032   1
   5  11  -4 49.8242 6.61377   3
  11  -5  -4 58.0679 5.03419   2
  11  -4   5 45.7886 6.51892   2
  11   4  -5 36.5318 6.58973   2
   5   4  11 59.0810 5.11511   2
 -11  -5   4 51.4865 4.69660   1
 -11   4   5 49.2388 4.66312   1
   4   5  11 61.2976 4.80829   2
   5 -11  -4 51.6378 6.00082   1
  -4  -5  11 56.8771 6.37695   2
  11  -4  -5 65.6260 5.56466   2
  -5 -11   4 62.1124 5.38886   2
  11  -5   4 53.4283 5.63254   2
  -4   5 -11 64.4911 7.00113   3
  11   5  -4 43.7811 7.15958   2
   4  -5 -11 58.0665 5.62113   1
 -11  -5  -4 47.8559 5.33806   1
  -5   4  11 50.0375 8.11980   3
  -4 -11  -5 48.2430 6.19313   1
   4 -11   5 49.8240 4.39133   2
 -11  -4   5 59.9603 4.76349   1
  11   4   5 60.0469 6.06888   2
  -5  11  -4 63.7168 8.05351   3
   5  -4  11 51.2858 5.94996   2
   5   4 -11 47.7254 6.26576   3
   4   5  11 69.9930 7.93629   3
   4  11  -5 44.6183 6.33068   3
 -11   4  -5 58.1951 4.74423   1
  -5 -11   4 59.5682 5.23959   1
  -5  -4 -11 48.1756 5.13794   1
 -11   5   4 47.2273 4.66792   1
  11  -1   6 321.205 18.5709   2
  -1   6  11 344.204 22.2171   3
 -11  -1  -6 357.861 16.8952   1
 -11   1   6 338.350 16.0681   1
   6  11  -1 326.595 20.4229   3
   6  -1 -11 317.206 19.5160   3
 -11  -6   1 313.644 16.7636   1
  -6   1 -11 290.133 17.8400   3
  11   6   1 327.024 18.1496   2
  11   1  -6 329.151 18.9063   2
  -6 -11  -1 331.636 18.2651   1
   1 -11  -6 314.114 17.8517   1
  -1  -6 -11 362.713 17.8234   1
  -6  -1  11 314.152 17.6936   2
  -1  11  -6 307.711 18.8856   3
   6  11  -1 341.017 16.9752   2
  -1 -11   6 343.093 16.4398   2
   1  -6  11 329.340 17.7619   2
 -11   6  -1 313.178 16.1939   1
  11  -6  -1 318.477 16.1045   2
   6 -11   1 335.384 17.5401   1
   1   6 -11 357.195 19.6728   3
   6   1  11 329.443 17.4878   2
  11  -6   1 338.169 16.5631   2
  -6  11  -1 315.478 22.0058   3
 -11  -6  -1 336.873 17.3918   1
  -1  -6  11 313.871 17.6600   2
  11   6  -1 339.520 18.8683   2
  -1   6 -11 305.515 18.9441   3
  -6   1  11 361.873 17.7003   2
   6 -11  -1 310.883 17.5690   1
   1 -11   6 344.073 16.1085   2
 -11   1  -6 335.965 16.3727   1
  -6 -11   1 310.695 17.4609   1
  -1 -11  -6 350.963 18.5194   1
   6  -1  11 330.831 18.0040   2
  11   1   6 283.326 17.8404   2
   1   6  11 333.982 21.3699   3
   6   1 -11 350.848 19.4150   3
   1  11  -6 332.069 19.1891   3
  -6  -1 -11 325.733 18.5337   3
  11  -1  -6 318.796 18.1454   2
 -11   6   1 349.111 16.5876   1
 -11  -1   6 301.818 15.6333   1
   1  -6 -11 331.010 17.4362   1
  -6 -11  -3 114.998 9.40380   1
  -6  -3  11 115.987 9.23636   2
   6  11  -3 121.552 10.1991   3
  -6   3 -11 108.992 9.10854   3
   3  -6  11 97.4356 8.40751   2
  -3  -6 -11 118.494 8.82406   1
  11  -3   6 94.3960 8.79080   2
  11   3  -6 118.401 10.0318   2
 -11   3   6 120.750 7.60542   1
  -3 -11   6 115.398 8.04695   2
   3 -11  -6 115.404 9.09650   1
  -3   6  11 116.203 12.1717   3
   3   6 -11 114.270 9.83583   3
 -11   6  -3 122.684 7.65266   1
   6   3  11 126.848 8.32898   2
  -3  11  -6 114.049 10.0933   3
 -11  -3  -6 117.353 8.25171   1
  11   6   3 124.751 9.01401   2
 -11  -6   3 121.057 7.88620   1
   6 -11   3 112.483 8.32807   1
  11   6  -3 111.933 9.72341   2
  11  -3  -6 119.114 8.52386   2
  -6  -3 -11 100.634 9.30639   3
   3  11  -6 109.471 9.59100   3
 -11  -6  -3 109.545 8.45843   1
   6 -11  -3 108.629 8.83548   1
   3  -6 -11 121.466 8.48902   1
 -11   3  -6 124.533 7.58715   1
  -6   3  11 121.205 11.1311   3
  11   3   6 113.115 8.91029   2
 -11   6   3 102.354 7.38524   1
  -3 -11  -6 99.9646 8.85787   1
  -3   6 -11 109.211 9.66360   3
  -6  11  -3 112.405 11.8394   3
  -6  -3 -11 110.868 7.77208   1
  -6 -11   3 113.543 7.84923   2
  -6 -11   3 121.830 8.33760   1
  11  -6   3 119.603 8.23503   2
   6   3 -11 122.319 9.74626   3
  -6   3  11 124.837 8.06022   2
   6  -3  11 111.840 9.12515   2
   3 -11   6 114.085 7.34148   2
  -3  -6  11 116.025 9.17485   2
 -11  -3   6 112.845 7.15049   1
   3   6  11 113.175 11.0356   3
  -5  11  -6 404.395 23.4403   3
   6   5  11 409.753 19.8689   2
 -11  -5  -6 407.787 21.2230   1
  11  -5   6 435.490 21.7680   2
 -11  -6   5 422.819 19.8153   1
   5 -11  -6 402.923 21.9115   1
  -5   6  11 423.267 26.5223   3
   5   6 -11 425.052 22.8925   3
  -6  -5  11 406.545 22.1131   2
   6  -5 -11 400.326 20.8343   1
  -5 -11   6 420.332 20.6680   2
  -6 -11  -5 423.783 22.5599   1
   6  11  -5 428.782 22.7683   3
   5  -6  11 413.843 21.8244   2
 -11   6  -5 418.344 19.7430   1
  11   6   5 403.788 21.0266   2
   6   5  11 356.892 22.2944   3
  -5  -6 -11 436.983 21.7233   1
 -11   5   6 424.379 20.2952   1
  -6   5 -11 405.772 22.4214   3
   5 -11   6 433.210 19.6216   2
  -6  -5 -11 463.020 21.5937   1
  -5 -11  -6 426.511 22.6876   1
  11   5   6 411.902 21.2140   2
  11  -6   5 434.285 21.1337   2
  -5  -6  11 422.422 22.3845   2
  -5   6 -11 389.624 22.4497   3
  -6   5  11 448.053 26.6768   3
   5  11  -6 449.793 22.9743   3
   5  -6 -11 411.390 21.1143   1
  -6 -11   5 414.204 20.6494   2
 -11  -6  -5 435.814 21.7156   1
   6   5 -11 435.845 22.8975   3
 -11  -5   6 390.430 19.2438   1
 -11   5  -6 413.781 19.5971   1
 -11  -5   6 426.924 22.8414   2
 -11   6   5 419.634 20.3310   1
  -6  11  -5 401.079 23.7444   3
  11   6  -5 428.166 23.3966   2
   6 -11  -5 404.695 22.0282   1
   5   6  11 404.935 23.7090   3
   6  -5  11 407.150 21.8225   2
   0 -11   7 100.662 7.09801   2
 -11   7   0 98.1845 6.87359   1
   0 -11  -7 93.0148 8.04293   1
   0   7 -11 96.6628 9.04059   3
 -11   0   7 94.3050 6.36490   1
  -7   0  11 95.7655 8.15695   2
   0  -7 -11 104.801 8.08206   1
   7 -11   0 87.0181 7.57102   1
   7  11   0 92.3315 7.06097   2
  11   0  -7 97.7319 8.47074   2
  11  -7   0 94.4163 6.42421   2
  11   7   0 90.6734 8.06585   2
   0  -7  11 83.9619 7.66899   2
 -11   0  -7 99.1580 6.87565   1
   7   0  11 83.8576 7.75268   2
  -7   0 -11 86.9573 7.79530   3
   7   0 -11 94.1205 8.80519   3
   0   7  11 81.7518 10.6412   3
   0  11  -7 88.2363 8.60264   3
  -7 -11   0 92.9718 7.96800   1
 -11  -7   0 91.9790 7.48758   1
  11   0   7 81.8413 8.08790   2
  11  -2   7 7.68469 3.12903   2
  -7  -2  11 10.5345 3.79054   2
  11   7   2 15.3231 3.84456   2
  -7  11   2 -0.6662 4.55832   3
  -2 -11   7 11.8494 3.18966   2
 -11  -2  -7 13.3499 3.08954   1
  -2   7  11 4.67703 4.29968   3
   2   7 -11 9.95277 3.89268   3
   7 -11   2 14.9923 3.67696   1
  -2  11  -7 11.1963 4.03039   3
 -11  -7   2 9.65316 2.78850   1
  -2  -7 -11 12.2588 3.50025   1
  -7   2 -11 14.4088 3.95523   3
   7   2  11 13.0661 3.29122   2
   2 -11  -7 16.8883 4.08920   1
   2  11   7 0.53683 4.08322   3
   2  -7  11 11.6107 3.50788   2
 -11   2   7 10.4059 2.46799   1
  -7 -11  -2 13.2092 3.88723   1
   7  11  -2 14.9642 3.62126   2
   7  11  -2 8.35053 5.52121   3
 -11   7  -2 13.1885 2.79498   1
  11   2   7 13.5300 3.80385   2
 -11  -7  -2 11.7777 3.28430   1
  11   7  -2 11.1871 3.66284   2
  -7   2  11 8.22341 3.68639   3
  -2 -11  -7 11.9690 3.74839   1
  -7  11  -2 11.9448 6.46989   3
   2  -7 -11 19.1564 3.99525   1
   7   2 -11 14.0222 4.21242   3
   7  -2  11 10.5788 3.51462   2
  -2  11   7 0.87080 4.66243   3
  -7  -2 -11 11.9111 3.81897   3
 -11   7   2 13.9316 2.93228   1
  -7 -11   2 10.6000 3.06461   1
  -7   2  11 11.8861 3.17855   2
   2  11  -7 11.6622 3.93771   3
   2 -11   7 13.8598 2.86970   2
  -2   7 -11 13.7598 4.50552   3
   7 -11  -2 9.42888 3.23481   1
  11  -7   2 14.4153 2.99596   2
  11  -2  -7 10.0227 3.15895   2
 -11  -2   7 14.6248 4.21034   2
  -2  -7  11 16.9447 4.18264   2
 -11   2  -7 9.34913 2.42631   1
   2   7  11 20.2791 6.13521   3
 -11  -2   7 13.3351 2.55803   1
 -11  -4  -7 24.4882 4.53636   1
 -11  -7   4 30.6216 3.90432   1
  -4   7  11 46.4375 9.94274   3
 -11   7  -4 24.7765 3.83516   1
   4   7 -11 32.6437 6.33998   3
  -7 -11  -4 37.7426 6.47687   1
   4  -7  11 31.4528 5.38240   2
   7  11  -4 40.3905 7.48840   3
  -7  -4  11 24.9646 5.36952   2
  -4 -11   7 29.0134 4.83228   2
   7   4  11 33.6491 4.71943   2
  -4  -7 -11 30.2233 5.24211   1
  -4  11  -7 27.5687 6.05037   3
 -11   4   7 34.8288 3.97999   1
  11  -4   7 28.4528 5.32789   2
   7  -4 -11 27.5992 4.46611   1
   4 -11  -7 20.9991 4.57030   1
  -7   4 -11 25.7062 5.34734   3
  11   7   4 27.0885 4.62150   2
   7 -11   4 32.7767 4.98772   1
 -11  -4   7 32.4096 6.20239   2
  11   7  -4 28.6127 5.89980   2
 -11  -7  -4 36.3291 5.58664   1
  -7   4  11 31.8634 7.24664   3
  -7 -11   4 27.3266 4.65684   2
 -11  -4   7 33.2743 3.45336   1
   4   7  11 29.2358 6.83534   3
  -4  -7  11 30.4582 5.60886   2
  -4   7 -11 30.0986 6.19316   3
   4  11  -7 32.9744 6.37298   3
  -7 -11   4 25.2715 4.56380   1
   4 -11   7 26.2796 4.01661   2
  11   4   7 29.2113 4.92182   2
 -11   7   4 28.7295 3.73147   1
 -11   4  -7 27.1325 3.43035   1
  -7  -4 -11 30.6512 4.97314   1
  -7  11  -4 42.0547 9.00400   3
   7  -4  11 29.2241 5.50629   2
   4  -7 -11 27.5149 4.85048   1
  11  -7   4 28.2618 4.30195   2
   7 -11  -4 25.1808 4.95522   1
  -4 -11  -7 34.3654 5.86704   1
   7   4 -11 30.2970 5.16929   3
 -11  -6  -7 53.0168 6.05795   1
 -11  -7   6 60.2658 6.99364   2
  -7 -11  -6 56.1272 8.19700   1
   7  -6 -11 60.0530 6.29776   1
   6  -7  11 53.1962 6.36599   2
  -6   7  11 55.6687 10.8835   3
   7   6  11 58.8697 5.35596   2
   6 -11  -7 48.5413 6.27397   1
 -11   6   7 51.8507 5.18213   1
  -6 -11   7 48.7049 5.89714   2
   7  11  -6 44.9934 6.47219   3
  -6  11  -7 49.8199 7.53335   3
 -11   7  -6 51.8256 4.68799   1
   6   7 -11 48.0449 6.51624   3
  11  -6   7 49.9811 5.83698   2
  11   7   6 54.6078 5.66900   2
  -6  -7 -11 52.8356 6.36682   1
  -7  -6  11 67.0199 7.61527   2
  -7   6 -11 47.3593 6.48570   3
   7 -11  -6 53.5454 6.48755   1
  -6   7 -11 54.2846 6.98600   3
   7   6 -11 52.9305 6.67777   3
 -11  -7  -6 52.0358 6.28236   1
   7  -6  11 52.4979 6.28567   2
  11   6   7 48.8775 5.50809   2
  11  -7   6 51.6696 5.50520   2
  -6 -11  -7 41.2000 6.72632   1
  -7   6  11 66.3236 9.45078   3
 -11  -6   7 52.8127 7.91077   2
 -11   6  -7 50.0949 4.80609   1
  -6  -7  11 60.0396 7.17614   2
 -11   7   6 53.7901 5.25191   1
  -7  -6 -11 50.8877 6.24998   1
   6  11  -7 53.1486 6.78413   3
   6   7  11 53.3409 7.64565   3
   6  -7 -11 57.4904 6.23262   1
  -7  11  -6 49.9648 7.81656   3
  -7 -11   6 50.3684 5.86534   2
   6 -11   7 44.8676 4.71744   2
   8 -11   1 30.1103 5.04576   1
 -11   8  -1 46.9387 4.56368   1
  -8  -1  11 43.1607 6.37734   2
  -1 -11   8 43.9385 5.01057   2
 -11   1   8 27.0807 3.63768   1
   1  -8  11 33.8484 5.51150   2
   1 -11  -8 47.7139 6.59375   1
 -11  -1  -8 37.9493 4.36144   1
  -1  11  -8 38.2019 6.18102   3
 -11  -8   1 43.3428 5.18982   1
   8  -1 -11 43.6087 6.22245   3
  11   8   1 43.6101 6.14311   2
  11  -1   8 30.9278 5.72938   2
   1   8 -11 32.3083 6.53965   3
  -1  -8 -11 39.6428 6.10322   1
  -8 -11  -1 33.6306 5.61819   1
   8  11  -1 35.6042 5.41724   2
   8   1  11 42.1018 6.11476   2
  11   1   8 44.5483 6.72163   2
   8  11   1 36.7316 4.53202   2
 -11  -1   8 41.9055 3.94122   1
  11   8  -1 39.6179 6.36396   2
   8 -11  -1 41.7996 6.05785   1
 -11  -1   8 54.0775 7.57719   2
   8  -1  11 33.8392 5.88491   2
  11  -1  -8 37.8014 5.95773   2
   1  -8 -11 42.4881 6.11528   1
  -8 -11   1 41.6692 6.17995   1
 -11   1  -8 44.3278 4.37476   1
  -1 -11  -8 33.9293 5.62753   1
 -11   8   1 33.1430 4.12443   1
 -11  -8  -1 39.0289 5.88519   1
  -1   8 -11 48.1133 6.58509   3
   8   1 -11 32.0192 5.36014   3
   1 -11   8 31.1990 4.64383   2
  -1  -8  11 39.9219 5.97544   2
   1  11  -8 33.0899 5.87327   3
  -8   1  11 37.4155 5.87132   2
  11  -3   8 299.289 18.3946   2
   3   8 -11 290.928 18.8363   3
 -11   8  -3 355.193 16.5932   1
   3  -8  11 304.801 17.4952   2
   8 -11   3 297.749 16.9449   1
  -8 -11  -3 299.682 18.3858   1
  -3 -11   8 354.434 17.4699   2
   8   3  11 345.318 17.3123   2
 -11  -3  -8 324.798 17.1307   1
  -3  -8 -11 334.373 18.2593   1
 -11  -8   3 341.455 16.9480   1
   8  11  -3 321.837 17.8935   2
 -11   3   8 305.760 16.1089   1
   3 -11  -8 340.694 18.2817   1
  -8  -3  11 332.224 18.7295   2
  -3  11  -8 320.234 19.5491   3
  11   8   3 329.800 17.4317   2
   3  11  -8 307.536 18.9843   3
 -11   3  -8 353.380 16.1691   1
 -11   8   3 308.157 16.5261   1
  -8  11  -3 305.629 21.7550   3
  -3  -8  11 340.632 18.2556   2
 -11  -8  -3 307.800 17.8892   1
  -8  -3 -11 315.491 16.6581   1
   3 -11   8 307.704 16.2878   2
   8  -3  11 305.710 18.4361   2
 -11  -3   8 345.712 19.3153   2
  11  -3  -8 332.820 17.4329   2
  -8   3  11 312.897 20.4723   3
  -3   8 -11 319.558 19.3745   3
  11   8  -3 316.322 18.8524   2
  -8 -11   3 322.692 17.1382   1
  -3 -11  -8 329.860 18.5808   1
   8 -11  -3 322.639 18.0930   1
  11   3   8 335.815 18.0461   2
  11  -8   3 324.492 16.1182   2
   3  -8 -11 342.708 17.7796   1
   8   3 -11 305.699 18.2974   3
   3   8  11 318.045 21.5471   3
  11   8   5 14.3041 3.47767   2
  -8  11   5 -0.8610 4.61109   3
 -11   8  -5 13.6239 3.00570   1
   5  11   8 0.63688 3.97357   3
 -11  -5  -8 7.11527 2.99275   1
 -11   5   8 7.35873 2.43676   1
  -8 -11  -5 12.3864 3.96583   1
   5  -8  11 10.5500 3.44289   2
   5 -11  -8 11.0512 3.64884   1
   5   8 -11 12.0182 4.37805   3
 -11  -8   5 12.7171 2.79877   1
  -8  -5  11 14.4804 4.45515   2
  -5 -11   8 14.1923 3.99992   2
  -8   5 -11 12.7892 4.09547   3
  -5  11  -8 13.7603 4.70233   3
   8  -5 -11 14.7561 3.72947   1
  -5  -8 -11 14.7938 4.33836   1
  11  -8  -5 12.6337 3.61486   1
   8   5  11 18.4140 3.58950   2
  11  -5   8 7.26854 3.05126   2
  -8  11  -5 17.8205 6.71216   3
  -8 -11   5 7.20873 2.95029   2
   5   8  11 12.6488 4.97525   3
 -11  -5   8 13.5411 4.34837   2
  -5  11   8 1.59974 4.44052   3
   5  11  -8 14.2915 4.63427   3
  -8  -5 -11 13.2582 3.74995   1
  11   8  -5 11.8491 4.00514   2
   5  -8 -11 14.3519 3.84765   1
  11  -8   5 10.3264 2.77737   2
  -8   5  11 10.6940 5.30884   3
 -11   8   5 9.81577 2.80849   1
   5 -11   8 10.5680 3.09580   2
  -5 -11  -8 4.23606 2.97599   1
 -11  -8  -5 8.92323 3.31670   1
  -5  -8  11 10.4652 3.82768   2
   8   5 -11 10.3533 3.85949   3
   8  -5  11 10.1798 3.68792   2
  -5   8 -11 11.4966 4.35026   3
  11   5   8 9.55118 3.14551   2
   8 -11  -5 12.9047 3.77804   1
   7   8 -11 47.8468 6.67586   3
  11  -8  -7 50.8191 6.40908   1
  -8   7 -11 44.8603 6.59769   3
  -7 -11   8 43.0791 6.50654   2
  -8  -7  11 48.6902 7.36905   2
   7  -8  11 52.4754 7.12901   2
  -7  11  -8 47.2095 7.63982   3
  11   8   7 51.8998 5.37053   2
   8  -7 -11 49.2214 6.17056   1
 -11  -8   7 47.9212 7.52363   2
   7 -11  -8 39.3632 6.47655   1
  -7  -8 -11 54.0780 6.75671   1
  -7   8  11 53.4104 10.7849   3
  11  -7   8 49.8366 5.91601   2
  -8 -11  -7 41.1918 7.08936   1
 -11  -7  -8 45.9028 6.88501   1
   7  -8 -11 44.5233 6.51391   1
   7 -11   8 47.1611 5.14320   2
  11  -8   7 51.4927 5.56983   2
 -11  -7   8 54.3352 7.93292   2
  -8  -7 -11 44.3293 6.80710   1
  -8  11  -7 47.9798 7.85334   3
  11  -7  -8 54.2840 6.53918   1
   7  11  -8 49.2692 6.73755   3
   8  -7  11 42.2269 6.49482   2
 -11  -8  -7 41.7920 6.78694   1
  -8 -11   7 58.9628 6.42335   2
   8 -11  -7 53.4630 6.70684   1
  -8   7  11 55.9001 9.29025   3
  11   7   8 52.7219 5.54866   2
   8   7 -11 49.4228 6.65151   3
  -7  -8  11 43.5568 7.27206   2
  -7   8 -11 45.3500 6.76699   3
  -7 -11  -8 54.6034 7.00491   1
   0  11  -9 8.06092 3.85505   3
   0 -11   9 8.92879 3.21799   2
  -9  11   0 2.85463 5.43940   3
   0  11   9 1.02696 4.53455   3
   9   0 -11 9.04347 3.70846   3
  -9   0  11 6.55421 3.36071   2
 -11   0  -9 8.88682 2.56315   1
   0 -11  -9 9.42383 3.31140   1
   9 -11   0 8.83117 3.27519   1
 -11   9   0 7.83972 2.47943   1
 -11   0   9 11.4731 3.88172   2
   0  -9  11 9.11578 3.30035   2
   9  11   0 7.87608 2.90018   2
  11   0   9 4.94086 2.97110   2
  11   9   0 7.25765 2.97461   2
 -11   0   9 7.76694 3.36010   1
  -9 -11   0 6.07690 3.08660   1
   0  -9 -11 9.50354 3.42372   1
   0   9 -11 7.87195 3.86525   3
   9   0  11 7.84700 3.32580   2
   0   9  11 -0.8317 3.67118   3
 -11  -9   0 7.46262 2.96223   1
   2  -9  11 44.9808 6.31249   2
 -11   9  -2 45.2590 4.65999   1
   2   9 -11 41.5387 6.49966   3
   9   2  11 51.5669 5.86654   2
 -11   2   9 38.2987 4.25853   1
  11   9   2 52.6727 5.73171   2
   2 -11  -9 48.2935 6.71826   1
 -11  -2  -9 40.0878 4.77771   1
  -2 -11   9 42.0478 5.92248   2
  -9  -2  11 47.0885 7.34453   2
   9  -2 -11 48.0017 6.79752   3
  -9 -11  -2 50.8659 6.49986   1
  -2  11  -9 48.7208 7.09778   3
  -2  -9 -11 45.7598 6.58637   1
   9 -11   2 43.5509 5.55766   1
 -11  -9   2 40.4599 5.24600   1
   9  11  -2 46.9746 5.86189   2
  11  -2   9 37.5687 6.66713   2
   2  11  -9 46.5499 6.81559   3
 -11  -9  -2 45.8223 6.74873   1
  11  -2  -9 49.5561 5.87475   2
   9   2 -11 45.7673 6.07391   3
  -2  -9  11 46.7181 6.59862   2
   9  -2  11 46.4546 7.13824   2
  -9 -11   2 46.3247 5.57200   1
  -2   9 -11 42.7626 6.70743   3
   2 -11   9 47.3392 5.20453   2
  -2 -11  -9 47.6556 6.84077   1
   9 -11  -2 52.2529 6.16570   1
  -9   2  11 51.0229 5.72567   2
  11   2   9 48.4026 5.98152   2
  11   9  -2 49.7597 7.14067   2
 -11   9   2 43.3103 4.75845   1
   2  -9 -11 53.0472 6.06868   1
 -11  -2   9 46.6997 7.34753   2
  -4 -11   9 9.98652 3.58385   2
   4 -11  -9 5.46557 3.06603   1
  11  -9  -4 5.96831 2.97875   1
  -9  11   4 -0.0306 4.70096   3
  -4  11  -9 8.61428 3.93698   3
  11   9   4 3.95095 2.50270   2
 -11  -4  -9 12.5225 3.38927   1
  -9  -4  11 5.42628 3.66316   2
 -11   9  -4 6.26417 2.19257   1
   9   4  11 5.91871 2.61755   2
   4  -9  11 10.8904 3.60610   2
  -4   9  11 0.49020 4.48873   3
  -4  -9 -11 8.28263 3.57769   1
 -11  -9   4 4.77548 2.24292   1
   9  11  -4 11.0923 3.76011   2
   4   9 -11 11.4575 4.34201   3
  11  -4   9 8.65199 3.51558   2
 -11   4   9 12.6121 2.91793   1
  -9 -11  -4 12.2305 3.99563   1
   4  11   9 -0.3230 3.80837   3
   9 -11   4 10.5325 3.39187   1
  -4   9 -11 6.18599 3.75968   3
   9  -4  11 14.6319 4.38651   2
  11   9  -4 11.3598 3.96025   2
   4  -9 -11 4.14559 2.82513   1
  -4  11   9 2.59884 5.03076   3
 -11  -4   9 6.93696 3.73433   2
   9   4 -11 14.2821 4.21492   3
  -9  -4 -11 9.90877 3.12579   1
  11   4   9 5.89566 2.81739   2
   4  11  -9 11.4010 4.37963   3
   9 -11  -4 6.78364 3.19437   1
 -11  -9  -4 11.3528 3.69468   1
   4   9  11 11.2478 5.34832   3
   4 -11   9 9.83077 3.02033   2
  -4  -9  11 7.19445 3.52954   2
  -9  11  -4 6.76117 6.18317   3
  -4 -11  -9 11.4875 3.84692   1
  -9   4  11 14.4426 5.35807   3
  11   9   6 125.367 8.53882   2
 -11  -6  -9 109.720 9.25701   1
   6 -11  -9 106.889 9.44135   1
  -6  11  -9 109.636 10.6649   3
  -9 -11  -6 108.283 9.97852   1
   9   6  11 120.191 8.19366   2
   9  -6 -11 129.072 9.54742   1
  11  -6   9 118.305 9.63713   2
  -6  -9 -11 120.568 10.0962   1
  -6 -11   9 123.900 9.57315   2
   6  -9  11 113.460 9.12716   2
  11  -9  -6 121.723 9.93990   1
  -9  -6  11 125.546 10.7885   2
   6   9 -11 114.224 10.3476   3
  11   6   9 123.084 8.69031   2
  11  -6  -9 124.103 9.68011   1
   9  -6  11 101.027 9.36245   2
  -6   9 -11 105.057 10.3494   3
  -9  11  -6 124.981 12.9248   3
  11  -9   6 99.9830 7.85640   2
   6  11  -9 104.495 10.0238   3
  -9   6  11 104.195 12.6546   3
  11   9  -6 122.012 10.6237   2
   6  -9 -11 127.897 9.76010   1
   9 -11  -6 127.578 10.1827   1
  -6  -9  11 115.920 10.1159   2
  -9  -6 -11 108.089 9.30220   1
 -11  -9  -6 104.346 9.67531   1
  -9  11  -6 125.855 12.9359   3
 -11  -6   9 125.739 10.6812   2
   6 -11   9 113.056 8.31100   2
  -9 -11   6 120.149 9.40286   2
  -6 -11  -9 112.356 9.97220   1
  11  -8   9 25.9993 5.04731   2
  -8  11  -9 36.4792 7.91519   3
   8 -11  -9 26.3217 5.71803   1
   8   9 -11 30.3511 6.52340   3
 -11  -9   8 30.2176 6.09831   2
   8  -9  11 31.0379 5.62161   2
 -11  -8  -9 34.0383 6.45332   1
  -8   9  11 39.2527 9.82866   3
  -8  -9 -11 29.5529 6.02871   1
  -9  -8  11 32.9326 6.67283   2
   9  -8 -11 32.0088 5.80298   1
  11  -9  -8 35.2612 6.22859   1
  -9 -11  -8 26.0279 5.74338   1
  -8 -11   9 28.7999 5.81973   2
 -11  -8   9 21.1425 5.24896   2
   9  -8  11 35.6634 5.91991   2
  -8   9 -11 27.2353 6.22434   3
  -9   8  11 41.6375 9.75609   3
   8 -11   9 30.9541 4.76216   2
  -9 -11   8 34.4723 5.93234   2
  -9  -8 -11 29.1690 5.94522   1
  -9  11  -8 34.3926 9.04655   3
  11  -8  -9 25.9190 5.57089   1
 -11  -9  -8 22.8649 5.19871   1
   9 -11  -8 28.6982 5.64341   1
  -8 -11  -9 25.9179 5.67437   1
   8  -9 -11 31.0078 5.86688   1
  11  -9   8 27.9701 4.64503   2
  -8  -9  11 26.3723 5.87749   2
  -1 -11  10 270.903 15.4675   2
  11  10   1 245.685 15.0820   2
 -10  -1  11 282.393 16.7717   2
  10 -11   1 290.581 16.0525   1
   1 -10  11 289.621 15.8925   2
  10  11  -1 279.867 15.8637   2
  10   1  11 286.869 16.3099   2
 -11 -10   1 267.034 15.6678   1
 -11  10  -1 263.219 14.6821   1
 -11  -1 -10 279.945 14.5541   1
 -10 -11  -1 277.637 16.5222   1
  10  -1 -11 250.387 16.4708   3
  -1 -10 -11 298.200 16.5921   1
  -1  11 -10 246.895 17.3964   3
   1  10 -11 274.100 17.7219   3
  11 -10  -1 252.805 15.6687   1
   1 -11 -10 267.382 16.0811   1
  11  -1  10 267.524 16.7987   2
   1  11 -10 272.645 17.7167   3
  -1 -10  11 260.447 15.7633   2
  10  11   1 263.551 14.9977   2
  -1  10 -11 241.923 17.1682   3
 -10   1  11 300.347 16.2883   2
 -11 -10  -1 281.217 16.4242   1
 -10 -11   1 264.362 15.9069   1
  10  -1  11 255.642 16.4677   2
   1 -10 -11 271.337 15.9534   1
 -11  -1  10 275.603 16.7643   2
  -1 -11 -10 284.543 16.4712   1
   1 -11  10 277.965 15.2411   2
  11   1  10 277.747 16.4591   2
  10 -11  -1 259.862 16.0139   1
  11  10  -1 294.528 16.4340   2
   3 -10  11 92.3152 8.27971   2
  11  -3  10 91.0543 9.06387   2
  -3  11 -10 106.982 10.3346   3
  -3 -11  10 113.698 8.96517   2
  11 -10  -3 103.814 8.95446   1
   3  10 -11 102.162 9.90716   3
  10   3  11 102.503 8.33630   2
 -11  10  -3 101.342 7.45746   1
  10 -11   3 90.8181 8.02572   1
  -3 -10 -11 105.694 9.13827   1
  10  11  -3 91.5615 8.69743   2
 -11 -10   3 95.9016 7.78206   1
 -10  -3  11 105.787 9.80992   2
 -10 -11  -3 95.3733 9.25458   1
   3 -11 -10 114.847 9.10998   1
 -11  -3 -10 98.2390 7.84975   1
  11  10   3 98.1770 7.79162   2
 -11  -3  10 110.724 9.96736   2
 -10 -11   3 105.227 8.18964   1
 -10  -3 -11 87.1764 8.13748   1
  10  -3  11 92.1546 9.18456   2
  11  -3 -10 114.655 8.41883   1
  10 -11  -3 99.5865 8.87936   1
  -3  10 -11 105.130 10.2336   3
  -3 -11 -10 93.6968 8.88781   1
  11  10  -3 95.8734 8.88175   2
 -11 -10  -3 108.931 9.43786   1
  11   3  10 104.561 8.59527   2
   3  11 -10 91.9175 9.56197   3
   3 -11  10 96.8441 7.99206   2
  -3 -10  11 116.151 9.31864   2
   3 -10 -11 112.161 8.91640   1
 -11  -5 -10 219.474 13.8579   1
   5 -11 -10 212.277 14.1589   1
  10  11  -5 228.420 14.9487   2
   5 -10  11 232.541 13.7913   2
  11  -5  10 237.579 15.1362   2
  11 -10  -5 194.953 14.1166   1
   5  10 -11 234.682 15.5409   3
  10   5  11 205.536 12.7788   2
  -5  11 -10 202.114 15.4631   3
 -10  -5  11 231.241 15.4808   2
  -5 -10 -11 227.710 14.8056   1
  10  -5 -11 221.242 15.1114   1
  -5 -11  10 228.522 14.3334   2
 -10 -11  -5 214.941 14.9902   1
  10 -11  -5 241.469 14.9220   1
   5  10  11 250.465 17.7095   3
  11  -5 -10 228.929 14.0764   1
  -5 -10  11 234.446 14.7612   2
 -10  -5 -11 217.886 13.7081   1
  -5 -11 -10 229.882 14.8730   1
   5  11 -10 209.871 15.1725   3
  11  10  -5 216.481 14.9491   2
 -11 -10  -5 199.139 14.5288   1
   5 -10 -11 218.336 14.0293   1
  -5  10 -11 195.986 15.2759   3
 -11  -5  10 244.678 15.7654   2
  11   5  10 221.250 13.1750   2
  10  -5  11 215.552 14.7780   2
   5 -11  10 230.908 13.2069   2
 -10   5  11 245.691 17.6029   3
 -10  -7  11 131.670 11.3866   2
  -7 -11  10 121.713 10.3752   2
   7 -10  11 127.625 9.55394   2
 -10 -11  -7 115.861 10.7662   1
 -11  -7 -10 116.903 10.1121   1
 -11 -10   7 137.351 10.7237   2
   7 -11 -10 135.218 10.7406   1
  10  -7 -11 136.705 10.5420   1
  11 -10  -7 114.738 10.2412   1
  11  -7  10 134.779 10.4395   2
   7  10 -11 132.831 11.2044   3
  -7  11 -10 122.946 11.6141   3
  -7 -10 -11 136.466 11.1224   1
   7 -10 -11 118.259 10.1236   1
  10 -11  -7 131.525 10.7635   1
  -7 -10  11 140.619 10.9493   2
 -10   7  11 114.064 13.5850   3
  -7 -11 -10 123.982 10.8577   1
 -11 -10  -7 129.207 11.0539   1
 -11  -7  10 125.346 11.1132   2
 -10 -11   7 124.901 10.2420   2
   7  11 -10 123.426 11.0858   3
 -10  -7 -11 130.223 10.5159   1
  -7  10 -11 118.520 11.2558   3
  10  -7  11 131.289 10.4212   2
   7 -11  10 130.439 9.26332   2
  11  -7 -10 137.051 10.5748   1
   0 -11 -11 49.2265 7.02819   1
  11 -11   0 42.2129 6.54321   1
   0 -11  11 48.1720 6.59132   2
 -11 -11   0 44.3193 6.64998   1
  11   0  11 41.1267 6.54370   2
  11  11   0 37.4428 5.95418   2
   0  11 -11 49.6721 7.42805   3
 -11   0  11 53.3707 7.53032   2
  -2  11 -11 47.2769 7.55904   3
  11  11  -2 55.2442 6.76516   2
  -2 -11 -11 61.6521 7.05063   1
  11 -11  -2 56.4263 6.82279   1
  -2 -11  11 61.3306 6.90591   2
   2 -11  11 50.9990 6.25598   2
  11 -11   2 51.1327 6.19335   1
   2 -11 -11 55.0290 6.55845   1
 -11  -2  11 54.4033 7.89367   2
 -11 -11  -2 52.2919 6.79420   1
 -11 -11   2 52.4532 6.21670   1
  11  -2  11 57.3941 8.18232   2
  11   2  11 56.0668 6.66369   2
   2  11 -11 51.6566 7.49365   3
  11 -11  -4 98.4568 8.91601   1
   4 -11 -11 93.4527 8.28922   1
 -11 -11  -4 69.9362 8.32741   1
 -11  -4 -11 76.8305 7.50282   1
   4  11 -11 81.8841 9.16598   3
  11 -11   4 69.3741 7.12892   1
  11   4  11 93.9716 7.75696   2
  11  11  -4 74.8299 8.19950   2
  -4 -11  11 105.740 8.79283   2
   4 -11  11 67.9704 7.22938   2
  11  -4  11 70.0046 8.30265   2
 -11  -4  11 102.926 9.72054   2
  -4  11 -11 99.9625 10.0864   3
  -4 -11 -11 74.8875 8.20861   1
  11   6  11 157.184 11.0433   2
  11  11  -6 189.452 13.7340   2
  -6 -11 -11 216.772 14.0032   1
   6 -11 -11 170.024 12.5904   1
  11 -11  -6 175.036 13.0467   1
   6  11 -11 185.737 14.0461   3
 -11  -6  11 202.998 14.4567   2
  -6 -11  11 183.920 13.1931   2
   6 -11  11 202.619 12.2170   2
  11  -6  11 194.320 13.5369   2
 -11 -11  -6 191.037 13.8109   1
 -11  -6 -11 197.344 13.0908   1
  -6  11 -11 164.159 13.9463   3
  11  -6 -11 189.230 12.8676   1
 -12   0   0 33.2526 3.67537   1
   0 -12   0 30.1426 5.11805   1
   0  12   0 40.8333 8.92812   3
   0   0  12 28.8075 4.60433   2
  12   0   0 32.3258 5.86062   2
   0   0 -12 33.5738 6.61402   3
  -1 -12  -1 20.2903 4.28455   1
 -12   1  -1 18.6225 3.24132   1
 -12   1   1 6.02020 1.94410   1
  12  -1  -1 15.9709 3.85881   2
 -12  -1   1 13.8419 2.75112   1
  -1  -1  12 12.5327 3.23784   2
  12  -1   1 8.20865 3.10125   2
  -1 -12   1 13.2304 3.60041   1
 -12  -1  -1 8.68302 2.39140   1
  -1   1 -12 12.7659 4.15698   3
  -1  12  -1 17.5885 6.05763   3
  -1  12   1 5.99780 5.11334   3
   1 -12  -1 11.5625 3.29172   1
   1 -12   1 17.2287 3.85658   1
   1  12  -1 8.01007 5.19077   3
   1  12   1 7.47031 5.29981   3
  12   1  -1 8.65133 3.22370   2
  12   1   1 14.8583 4.01318   2
  -1  -1 -12 11.9070 4.55447   3
  -1   1  12 10.2264 2.86992   2
   1  -1  12 9.74942 3.06266   2
   1   1  12 11.4153 2.92324   2
   1  -1 -12 14.6548 4.86730   3
   1   1 -12 12.6738 4.31790   3
   0   2  12 172.604 13.4025   3
  12   0   2 174.341 12.2551   2
 -12   2   0 192.386 10.4989   1
  -2  12   0 153.669 14.8802   3
   0  -2  12 191.305 11.6764   2
   0   2  12 198.270 10.8122   2
   0 -12   2 173.551 11.4517   1
  12   2   0 189.852 12.7501   2
  -2 -12   0 186.193 12.0423   1
   2 -12   0 177.578 11.7408   1
   0 -12  -2 193.115 12.1738   1
 -12  -2   0 185.503 10.6284   1
  12  -2   0 171.337 11.7101   2
  -2   0  12 179.981 11.1522   2
   2   0  12 200.304 11.3972   2
 -12   0  -2 169.668 10.3017   1
 -12   0   2 191.025 10.4170   1
   2   0 -12 179.828 13.4604   3
   0   2 -12 174.341 13.0385   3
  12   0  -2 182.204 12.4510   2
   2  12   0 194.271 15.6119   3
   0  12  -2 193.768 14.5616   3
  -2   0 -12 180.662 13.3070   3
  -2 -12  -2 974.622 42.4525   1
 -12  -2   2 947.209 40.0463   1
 -12   2  -2 914.536 39.8757   1
   2  12  -2 914.455 44.5211   3
   2   2 -12 906.604 43.6362   3
  -2   2 -12 948.768 43.6381   3
  -2   2  12 893.592 44.3803   3
   2 -12   2 876.711 41.0484   1
  12  -2  -2 945.584 41.8457   2
  12  -2   2 887.940 42.0437   2
  -2  12  -2 990.999 46.1736   3
 -12  -2  -2 896.876 40.1835   1
   2  -2  12 868.679 41.0773   2
  -2  -2 -12 903.001 44.5987   3
 -12   2   2 886.492 39.7089   1
  -2   2  12 902.013 40.0073   2
  -2 -12   2 926.881 41.3521   1
   2 -12  -2 993.118 42.2910   1
  12   2   2 986.319 43.1070   2
   2   2  12 961.373 40.3075   2
  -2  -2  12 945.215 41.5088   2
  12   2  -2 847.775 42.5417   2
  -1   3  12 237.943 16.5952   3
   1   3 -12 223.587 15.2413   3
   3  -1 -12 233.950 16.3097   3
   3  12  -1 226.201 16.9806   3
  -3 -12  -1 228.230 14.3162   1
 -12  -3   1 232.762 12.7918   1
 -12  -1  -3 240.680 12.9226   1
  -3   1 -12 236.030 15.4978   3
   1 -12  -3 247.685 14.4344   1
  12  -1   3 213.848 14.2096   2
  12  -3  -1 242.866 13.9264   2
  -1   3  12 246.254 12.6264   2
   1  -3  12 239.708 14.1161   2
  12   3   1 254.705 15.1262   2
  -1 -12   3 233.536 13.5931   1
  12   1  -3 225.167 14.7871   2
  -1  12  -3 246.338 16.3826   3
   3   1  12 246.158 13.4126   2
 -12   1   3 231.638 12.3737   1
   3 -12   1 234.008 13.9664   1
  -3  -1  12 244.008 13.9507   2
 -12   3  -1 226.116 12.4028   1
 -12  -3  -1 229.476 12.9397   1
   1   3  12 244.765 16.7009   3
  -1   3 -12 242.847 15.6658   3
   3   1 -12 228.621 15.5975   3
   1 -12   3 232.712 13.5402   1
  -3  -1 -12 237.719 15.8628   3
   1  12  -3 236.977 15.9800   3
  12   1   3 224.648 14.6210   2
  12   3  -1 241.292 15.1983   2
   1   3  12 251.117 12.7430   2
 -12  -1   3 239.346 12.5167   1
 -12   1  -3 242.769 12.6835   1
  12  -3   1 241.871 14.2016   2
  12  -1  -3 221.890 14.2792   2
  -1 -12  -3 247.815 14.6359   1
   3 -12  -1 245.375 14.3406   1
  -3  12  -1 193.816 16.9223   3
  -1  -3  12 241.681 14.1402   2
  -3   1  12 239.598 13.3761   2
   3  -1  12 228.239 13.6911   2
 -12   3   1 237.203 12.5678   1
  -3 -12   1 243.836 14.2499   1
 -12   3   3 479.540 22.0491   1
   3   3  12 489.879 26.0452   3
  -3   3 -12 437.593 24.8106   3
  -3   3  12 469.302 26.9890   3
  -3   3  12 496.233 22.2348   2
  12   3   3 481.819 24.5738   2
 -12  -3  -3 471.242 22.7002   1
   3  12  -3 502.477 26.0807   3
  12   3  -3 442.593 24.8896   2
   3  -3  12 474.338 23.7315   2
 -12  -3   3 456.620 21.9760   1
 -12   3  -3 476.338 22.0822   1
  -3  -3  12 467.372 23.8587   2
   3   3 -12 467.105 25.2448   3
   3 -12  -3 458.903 23.8947   1
   3   3  12 477.499 22.2152   2
  -3 -12  -3 475.866 24.2774   1
  -3 -12   3 445.980 22.8702   1
  -3  12  -3 489.348 26.8425   3
  12  -3   3 493.862 24.2034   2
   3 -12   3 472.328 23.3250   1
  12  -3  -3 436.856 22.9308   2
   0   4  12 642.492 27.0215   2
   4 -12   0 608.935 29.0172   1
 -12  -4   0 631.581 27.9798   1
   0   4 -12 568.775 30.4136   3
   0   4  12 652.326 33.0760   3
 -12   4   0 623.470 27.3847   1
   4   0 -12 598.624 31.1537   3
   0  -4  12 622.580 29.2336   2
  12  -4   0 620.159 28.5776   2
  12   4   0 625.004 30.2641   2
  -4  12   0 491.222 32.5831   3
   4   0  12 612.606 28.5051   2
  -4   0 -12 610.088 30.7881   3
   4  12   0 596.923 32.8061   3
   0 -12  -4 630.067 29.4612   1
  -4 -12   0 596.650 29.1707   1
 -12   0   4 607.254 27.1177   1
  -4   0  12 617.281 28.5984   2
   0  12  -4 575.394 30.7211   3
  12   0  -4 566.265 29.5618   2
  12   0   4 536.399 29.2978   2
 -12   0  -4 610.572 27.5988   1
 -12   4  -2 5.49820 1.86095   1
 -12   2   4 3.06586 1.54837   1
   2  12   4 -0.7244 4.31178   3
  -4   2 -12 12.2402 4.06506   3
  -2  12  -4 9.57662 4.26909   3
   4  12  -2 2.03451 4.14225   3
  -2   4  12 2.47476 3.21934   3
  12  -4  -2 11.1736 2.96211   2
  -4  12   2 -1.4144 4.67864   3
  12   2  -4 4.78395 2.66887   2
   2 -12  -4 6.82324 2.82443   1
  -4 -12  -2 1.71375 2.23843   1
  -2 -12   4 7.05313 2.79673   2
 -12  -4   2 8.87003 2.46113   1
 -12  -2  -4 1.88834 1.62172   1
   4 -12   2 5.65940 2.61178   1
   2  -4  12 2.41510 2.41920   2
  12   4   2 9.38620 3.49296   2
  12  -2   4 2.65087 2.20753   2
  -4  -2  12 9.81382 3.40099   2
   2   4 -12 3.73656 2.84635   3
   4   2  12 11.3019 2.86513   2
  -2  -4  12 6.77008 3.07751   2
  12  -4   2 2.32905 1.94114   2
  12   4  -2 0.90001 2.22619   2
 -12  -2   4 7.48639 2.19706   1
   4   2 -12 3.31250 2.81032   3
   2 -12   4 2.56176 2.41879   1
  -4  -2 -12 4.01771 3.17749   3
  -4   2  12 0.98684 1.96117   2
 -12   2  -4 8.15970 2.26535   1
   4 -12  -2 9.59420 3.29659   1
 -12   4   2 1.15455 1.28572   1
  -4   2  12 2.85461 3.06642   3
  -4  12  -2 7.31800 5.24703   3
  -2  12   4 -2.7543 4.56116   3
  12   2   4 9.41510 3.27942   2
 -12  -4  -2 1.95503 1.74722   1
   2   4  12 7.98805 3.89330   3
   2  12  -4 2.54462 3.14482   3
  -2   4 -12 6.49171 3.22415   3
   4  -2  12 2.61041 2.57863   2
   4  12   2 1.00163 4.66167   3
  -4 -12   2 9.50208 2.97547   1
  12  -2  -4 5.90669 2.64790   2
  -2 -12  -4 2.91909 2.47186   1
   2   4  12 8.38694 2.34809   2
  12  -4   4 11.5920 3.32794   2
  -4 -12  -4 14.0504 3.98305   1
   4   4 -12 13.4591 4.26741   3
  -4 -12   4 8.57372 2.72601   2
   4  -4  12 12.3100 3.76988   2
   4  12   4 2.11580 4.46910   3
  12  -4  -4 5.72143 2.16967   2
   4 -12   4 10.2101 3.23337   1
  -4  -4  12 8.86902 3.36104   2
  -4  12  -4 3.77615 4.07046   3
 -12  -4  -4 9.19745 2.82066   1
 -12  -4   4 3.01096 1.75953   1
 -12   4  -4 3.96207 1.87426   1
 -12   4   4 12.8201 2.70741   1
  -4   4 -12 4.29804 3.18665   3
  -4  12   4 0.58346 5.20466   3
  12   4   4 4.39454 2.58056   2
  12   4  -4 10.8542 3.76444   2
   4   4  12 5.26073 2.07004   2
   4   4  12 3.96198 3.19206   3
   4 -12  -4 3.59113 2.56588   1
   4  12  -4 16.9442 5.26474   3
  -4   4  12 10.5820 4.53861   3
  -5 -12  -1 16.2587 4.25089   1
  -5  -1  12 14.6591 3.87221   2
  12  -5  -1 18.6785 3.58134   2
 -12   1   5 16.7110 3.03817   1
 -12   5  -1 12.2047 2.70824   1
   1   5 -12 12.3452 4.11955   3
  -1 -12   5 14.0771 2.96230   2
  12   5   1 15.9407 4.08863   2
  -1  -5 -12 17.9766 4.93843   1
  -5   1 -12 16.1192 4.46894   3
  -1   5  12 9.37278 4.99692   3
   5 -12   1 14.6606 3.76386   1
   1  -5  12 13.5682 3.87611   2
  12  -1   5 16.9143 4.46147   2
 -12  -1  -5 18.5871 3.51684   1
 -12  -5   1 13.6326 3.18198   1
  12   1  -5 15.3214 4.28108   2
   5  -1 -12 8.23643 3.84336   3
   5   1  12 13.5408 3.36767   2
   1 -12  -5 14.2791 3.86646   1
   5  12  -1 12.0099 6.33682   3
  -1  12  -5 15.5516 4.93142   3
  -5 -12   1 16.2440 3.92272   1
  -5  12  -1 16.1010 7.08981   3
   1   5  12 13.0720 5.21282   3
   5  -1  12 11.2933 3.53539   2
  12   5  -1 10.6075 3.58527   2
   5  12   1 3.03574 4.57641   3
  -1 -12  -5 16.7573 4.21099   1
 -12   1  -5 14.2250 3.06519   1
 -12  -5  -1 15.0733 3.48544   1
  12   1   5 12.4189 3.67882   2
   1  12  -5 20.1245 5.58379   3
   5 -12  -1 13.5973 3.68899   1
 -12   5   1 15.2971 2.96384   1
  -5  -1 -12 14.9312 4.42235   3
 -12  -1   5 12.7594 2.71573   1
  -5   1  12 15.5879 3.65253   2
   5   1 -12 13.8697 4.56053   3
  -1  -5  12 13.9980 3.84938   2
  -1   5 -12 12.2468 4.25924   3
  12  -1  -5 12.1529 3.62895   2
  12  -5   1 18.5966 3.70045   2
  -5   3 -12 1.94761 2.62775   3
  -5 -12  -3 0.35187 2.14559   1
  12  -3   5 4.12414 2.60516   2
  12  -5  -3 2.22642 1.61337   2
  12   3  -5 0.09318 2.00036   2
  -3  12  -5 2.62102 3.28117   3
 -12   5  -3 1.92194 1.52732   1
 -12   3   5 1.27756 1.40108   1
   3  12   5 -1.7578 4.04735   3
  -3 -12   5 1.35486 2.02230   2
   5   3  12 3.32963 2.02215   2
 -12  -3  -5 2.25721 1.77824   1
  -3   5  12 1.36968 3.48547   3
   3   5 -12 1.50201 2.51390   3
   3 -12  -5 1.79103 2.33904   1
 -12  -5   3 1.95002 1.69349   1
   5 -12   3 1.82947 2.04803   1
  -3  -5 -12 3.16372 2.51033   1
   3  -5  12 5.61833 2.99750   2
  -5  12   3 2.66836 5.14970   3
  12   5   3 2.36241 2.23693   2
  -5  -3  12 3.09026 2.76244   2
   5  12  -3 4.10939 4.11706   3
   3   5  12 2.49157 3.28211   3
  -3   5 -12 3.54405 2.93334   3
  -3  12   5 -0.5766 5.13896   3
  12   5  -3 0.42819 2.15838   2
   5 -12  -3 2.09360 2.39999   1
 -12   3  -5 1.76011 1.54600   1
 -12  -3   5 1.84575 1.49502   1
  -3  -5  12 1.03010 2.60326   2
   3  12  -5 3.99221 3.37054   3
  -5   3  12 2.07301 3.12867   3
 -12   5   3 5.11472 1.97424   1
  -5  -3 -12 2.50040 2.95225   3
  12   3   5 1.93881 2.32274   2
   5  12   3 1.68123 4.19469   3
  -3 -12  -5 1.03895 2.28634   1
  -5   3  12 1.60547 1.98362   2
  -5 -12   3 2.23721 1.83664   2
 -12  -5  -3 1.75905 1.79390   1
   5   3 -12 5.38991 3.20542   3
  -5  12  -3 2.33946 4.37815   3
  12  -3  -5 1.49644 1.89336   2
   5  -3  12 0.64920 2.25977   2
  -5 -12   3 2.49112 2.13804   1
  12  -5   3 2.76493 2.11735   2
  -5  12  -5 18.1255 6.02785   3
  -5   5 -12 11.8132 4.13481   3
 -12  -5   5 9.59659 2.53988   1
 -12   5   5 8.05319 2.42743   1
  -5 -12  -5 11.4828 4.13399   1
  -5  -5 -12 9.01609 3.19469   1
   5   5  12 14.6998 3.01074   2
  12   5  -5 10.7390 3.95482   2
   5   5  12 13.5574 4.87872   3
  -5  12   5 0.33110 4.66758   3
   5  12  -5 14.3061 4.82798   3
  -5   5  12 8.36570 5.43069   3
   5 -12  -5 10.9350 3.54527   1
  -5 -12   5 12.8355 3.31208   2
   5  -5  12 12.4108 4.03587   2
  12   5   5 12.7008 3.56332   2
  -5  -5  12 11.6455 4.03501   2
  12  -5   5 7.96338 3.09076   2
 -12  -5  -5 5.56737 2.60813   1
   5   5 -12 8.06540 3.81882   3
 -12   5  -5 13.8724 2.88934   1
   5  12   5 0.99162 3.80518   3
   6   0  12 77.6533 7.23534   2
  -6   0  12 78.9370 7.33917   2
   6   0 -12 74.1767 8.19995   3
   0 -12  -6 74.6815 7.33057   1
   0  -6 -12 79.8842 7.15152   1
 -12  -6   0 78.0556 6.68583   1
  12   6   0 77.8728 7.72202   2
  12  -6   0 74.6868 6.03962   2
   6  12   0 54.2943 9.51868   3
 -12   0  -6 75.3993 6.14349   1
 -12   0   6 76.3314 5.74493   1
 -12   6   0 78.1362 6.00595   1
   0 -12   6 80.9729 6.14415   2
   0  -6  12 72.6326 7.29761   2
  12   0  -6 70.4753 7.36021   2
  -6   0 -12 74.6619 7.76893   3
  -6 -12   0 81.4448 7.66609   1
   6 -12   0 75.1790 7.11214   1
   0  12  -6 71.1902 8.12272   3
   0   6 -12 85.7935 8.59506   3
   0   6  12 75.5927 9.83903   3
  12   0   6 59.1398 7.05986   2
  -2   6  12 177.553 14.9222   3
 -12   6  -2 138.117 8.84097   1
   6   2  12 127.924 9.41063   2
   6 -12   2 168.829 10.5885   1
  -2 -12   6 144.647 9.01425   2
   2   6 -12 156.455 11.9928   3
   2  -6  12 150.713 10.6523   2
  -2  -6 -12 160.899 10.4200   1
   2 -12  -6 128.966 10.1242   1
  12  -2   6 143.802 11.0147   2
   6  12  -2 149.259 10.3672   2
 -12  -2  -6 162.096 9.75196   1
   6  12  -2 146.077 12.8173   3
  12  -6  -2 125.688 8.73339   2
 -12   2   6 161.930 9.10671   1
 -12  -6   2 136.734 9.20780   1
  12   2  -6 127.071 10.8656   2
  12   6   2 143.270 10.5407   2
  -6   2 -12 127.832 10.5333   3
  -6 -12  -2 160.209 11.3192   1
  -6  -2  12 123.649 10.1206   2
  -2  12  -6 134.130 11.6138   3
   6   2 -12 161.537 11.8749   3
  -2   6 -12 128.374 11.1989   3
  -6  -2 -12 147.704 11.3898   3
 -12   2  -6 144.075 8.95036   1
   2  12  -6 149.898 11.7523   3
  12  -6   2 167.147 9.75136   2
  -6   2  12 155.348 12.7357   3
  -2  -6  12 137.600 10.4809   2
 -12  -6  -2 150.613 10.0469   1
  12  -2  -6 120.219 9.69603   2
  -6   2  12 170.940 10.1691   2
 -12   6   2 149.407 9.19337   1
   2 -12   6 150.522 9.50338   2
  -6 -12   2 133.361 9.82855   1
  -2 -12  -6 157.271 11.1223   1
 -12  -2   6 122.984 8.22297   1
  12   2   6 136.425 10.6024   2
   6 -12  -2 131.302 10.3377   1
   2  -6 -12 143.408 9.79492   1
   6  -2  12 171.360 11.1971   2
   2   6  12 109.322 12.4863   3
  -6  12  -2 113.083 13.1678   3
  12   6  -2 137.372 11.1004   2
  -6   4 -12 60.4182 7.13187   3
  -6 -12  -4 71.5621 7.67884   1
  -4 -12   6 68.4962 6.21085   2
   6 -12   4 84.8275 7.28623   1
  -6  -4  12 66.5368 7.42274   2
  -4   6  12 67.9393 10.0670   3
  -4  12  -6 67.3848 8.53922   3
   6   4  12 76.7022 6.21111   2
 -12   4   6 66.7821 5.66497   1
  -4  -6 -12 74.0217 7.16465   1
  12   6   4 67.2150 6.72300   2
   4 -12  -6 61.8172 6.85240   1
   6  12  -4 70.2611 8.40730   3
   4   6 -12 66.1016 7.68647   3
   4  -6  12 70.0235 7.20854   2
 -12  -6   4 61.9636 5.54407   1
 -12   6  -4 70.6252 5.71496   1
 -12  -4  -6 72.5993 6.57967   1
  12  -4   6 76.1005 7.34676   2
  12   4  -6 73.0560 8.08987   2
  12   6  -4 60.5982 7.56549   2
   6   4 -12 74.4275 7.87341   3
  -4   6 -12 60.4319 7.45819   3
   6  -4  12 66.6043 7.18716   2
  12  -6   4 67.6999 6.30949   2
 -12  -4   6 61.7907 5.17744   1
   4   6  12 70.1790 9.00135   3
   4  12  -6 67.5071 7.90984   3
  -6  -4 -12 67.9094 8.18752   3
  -6  12  -4 63.4399 9.69637   3
   6 -12  -4 61.4718 6.98857   1
 -12   6   4 66.0504 5.75845   1
  -4  -6  12 69.9712 7.51443   2
   4  -6 -12 70.0248 6.45399   1
  -4 -12  -6 63.6608 7.25940   1
 -12  -6  -4 69.6609 6.79365   1
 -12   4  -6 66.7962 5.51135   1
  12   4   6 60.0198 6.63207   2
  -6 -12   4 73.1793 6.33841   2
  12  -4  -6 64.3049 5.99610   2
  -6   4  12 78.7486 9.90569   3
  -6 -12   6 43.6878 5.89309   2
  12  -6   6 31.5972 5.39470   2
  -6  -6  12 33.6342 6.27769   2
   6  -6  12 33.1199 6.02926   2
  12   6  -6 32.1259 6.40770   2
   6   6 -12 32.8926 6.45733   3
 -12  -6   6 41.3490 4.72001   1
  -6 -12  -6 31.1207 6.09723   1
  -6  12  -6 43.5077 8.65733   3
   6 -12  -6 43.8394 6.62653   1
  -6   6  12 31.2293 8.58168   3
   6   6  12 31.6848 6.65958   3
 -12   6   6 31.2422 4.09000   1
 -12  -6  -6 27.0293 5.09749   1
  12   6   6 38.3281 5.60673   2
  -6  -6 -12 31.0637 5.51971   1
   6  12  -6 39.6825 7.57492   3
  -6   6 -12 39.0986 6.18612   3
 -12   6  -6 38.7701 4.19950   1
  12   7   1 19.0682 4.56310   2
  -1 -12   7 24.1731 4.08713   2
   1 -12  -7 18.6390 4.40672   1
 -12   7  -1 26.1316 4.09228   1
  -1  -7 -12 25.1891 4.87864   1
  12   1  -7 19.3834 4.72283   2
  -1   7  12 24.9462 7.23145   3
  12  -1   7 22.6818 5.14843   2
  -7   1 -12 18.2258 4.57311   3
  -1  12  -7 22.7922 5.82517   3
 -12   1   7 27.1158 3.45185   1
   7 -12   1 22.2497 4.44080   1
   7  -1 -12 23.4245 5.81355   3
 -12  -1  -7 22.2898 3.86392   1
 -12  -7   1 15.7564 3.66542   1
   1  -7  12 23.8968 4.99622   2
  -7  -1  12 24.7213 5.13213   2
   7   1  12 35.6530 5.46161   2
  -7 -12  -1 21.5726 4.81379   1
   1   7 -12 23.0887 5.84260   3
  -1   7 -12 25.9266 5.97418   3
  12  -1  -7 20.6111 4.59426   2
   7 -12  -1 19.9464 4.41623   1
  -1 -12  -7 23.9973 5.10296   1
  12  -7   1 23.0826 3.73176   2
  -7 -12   1 21.7766 4.62277   1
   1   7  12 16.8967 6.06587   3
 -12   1  -7 19.7421 3.52677   1
   7  -1  12 22.6125 4.89567   2
  -7  -1 -12 26.3699 5.80314   3
  -1  -7  12 16.2569 4.19438   2
 -12  -1   7 18.6522 3.21141   1
  -7   1  12 22.5242 4.52139   2
 -12   7   1 20.4810 3.63160   1
   1  -7 -12 24.0796 4.70879   1
  12   7  -1 29.0851 5.69622   2
  12   1   7 21.5702 4.89234   2
   1 -12   7 21.9964 3.71644   2
   1  12  -7 27.5514 6.04505   3
 -12  -7  -1 26.8961 4.87473   1
   7   1 -12 25.7245 5.73277   3
  -7  -3  12 797.058 37.2158   2
   3 -12  -7 766.912 36.4803   1
   7   3  12 811.007 35.3249   2
  12   3  -7 713.383 37.5858   2
  -3   7  12 764.141 42.1025   3
  -7   3 -12 735.018 36.7053   3
   7 -12   3 759.807 35.5964   1
 -12  -7   3 786.028 34.9070   1
  12   7   3 785.990 36.1260   2
 -12   3   7 775.360 34.3921   1
  -3 -12   7 809.868 35.1526   2
   3  -7  12 773.798 36.4249   2
   3   7 -12 764.792 38.0391   3
  -3  12  -7 768.201 38.4629   3
 -12   7  -3 807.565 34.6436   1
  -3  -7 -12 845.065 36.6454   1
  12  -3   7 730.878 36.8259   2
 -12  -3  -7 745.268 35.0369   1
  -7 -12  -3 778.979 37.2919   1
   3   7  12 777.059 40.9940   3
 -12   3  -7 776.679 34.2552   1
   3  -7 -12 805.751 35.7507   1
  -7   3  12 808.971 40.5569   3
  -7 -12   3 764.679 35.4453   1
   7  -3  12 834.843 37.3921   2
 -12   7   3 758.461 34.7968   1
  -3  -7  12 801.053 36.9419   2
   7   3 -12 800.000 37.7506   3
  12   7  -3 758.437 37.4146   2
  -3 -12  -7 767.443 36.9485   1
 -12  -7  -3 789.418 36.2934   1
   3 -12   7 816.899 34.2868   2
   7 -12  -3 787.700 36.7886   1
  12   3   7 778.938 36.5008   2
  -7  12  -3 644.093 39.7579   3
  12  -7   3 782.130 34.7150   2
  -3   7 -12 774.756 38.1776   3
 -12  -3   7 753.021 33.7230   1
  12  -3  -7 790.293 35.7084   2
   3  12  -7 793.002 37.9693   3
   5  -7  12 4.33605 2.90677   2
   7  12  -5 1.63006 3.56804   3
 -12  -7   5 -0.7649 1.32987   1
  -7 -12  -5 2.54587 2.89310   1
  -7  -5  12 3.09442 3.33778   2
  12   7   5 -0.4589 1.64422   2
   5 -12  -7 0.72115 2.15192   1
   5   7 -12 2.21512 2.86712   3
   7   5  12 0.50002 1.87689   2
  12   5  -7 0.59718 2.34159   2
  -7   5 -12 1.75577 2.66687   3
  -5  12  -7 3.42612 3.60954   3
  -5 -12   7 0.82868 2.26024   2
  -5   7  12 1.52880 4.02360   3
 -12  -5  -7 1.19939 2.23248   1
 -12   7  -5 2.37977 1.64001   1
   5  12   7 -1.2940 3.93363   3
  12  -5   7 1.62420 2.42898   2
  -5  -7 -12 2.34868 2.81046   1
  -7  12   5 0.46202 4.14208   3
 -12   5   7 1.57113 1.56773   1
 -12  -7  -5 3.29231 2.39962   1
  -7  -5 -12 1.75877 3.29657   1
   5  12  -7 1.73996 2.87662   3
  -7   5  12 0.53993 3.59846   3
   7 -12  -5 0.31165 2.28243   1
  -5  12   7 -0.6559 4.16672   3
   7  -5  12 0.48695 2.43818   2
   5   7  12 1.13372 3.56984   3
  -5 -12  -7 -0.2420 2.20146   1
  12   7  -5 1.06854 2.54900   2
  -7 -12   5 1.29605 2.20742   2
   7   5 -12 3.73816 3.07396   3
  -5   7 -12 2.13935 2.76269   3
 -12   5  -7 1.31088 1.51213   1
  -7  12  -5 1.27279 4.42048   3
  12   5   7 1.28474 2.19060   2
   5  -7 -12 0.22193 2.16068   1
  12  -7   5 0.32787 1.81107   2
 -12   7   5 1.99608 1.73644   1
  -5  -7  12 -0.7090 2.38199   2
  -7   7  12 307.010 22.9025   3
   7   7 -12 291.789 18.2998   3
  12  -7  -7 348.580 18.4016   1
 -12  -7  -7 305.918 17.7913   1
  -7 -12   7 284.423 16.8153   2
  -7  -7  12 324.292 19.0514   2
   7  -7 -12 323.016 17.5421   1
  12  -7   7 294.656 16.8201   2
  -7   7 -12 286.808 18.3544   3
   7 -12  -7 322.177 18.4457   1
  -7  12  -7 297.092 20.0779   3
   7  -7  12 312.104 18.1622   2
  -7 -12  -7 310.670 18.6577   1
  -7  -7 -12 303.446 17.8866   1
  12   7  -7 302.801 19.3051   2
  12   7   7 296.718 16.4214   2
   7  12  -7 302.495 18.6894   3
   8 -12   0 35.4640 5.78397   1
   0   8 -12 38.8598 7.56824   3
 -12   0  -8 43.3396 4.66953   1
  -8 -12   0 33.2754 5.81051   1
   0   8  12 45.5738 9.99357   3
  -8   0  12 39.0294 6.27597   2
   0 -12   8 44.0169 5.09607   2
   8   0  12 46.3053 6.69745   2
  12   8   0 40.9684 6.47091   2
   8   0 -12 37.8803 6.15597   3
  12   0   8 34.9819 6.41109   2
 -12  -8   0 33.3301 5.55423   1
 -12   8   0 37.9329 4.41396   1
  12   0  -8 34.0937 6.12772   2
   0  -8 -12 45.6232 6.55897   1
   0  -8  12 35.7695 6.10272   2
 -12   0   8 39.0158 4.06653   1
   0 -12  -8 30.7916 5.72678   1
   0  12  -8 36.3090 7.09036   3
   2 -12  -8 123.489 9.74477   1
  12   8   2 120.432 9.41095   2
   8  12  -2 111.600 8.94639   2
   8 -12   2 115.090 9.08672   1
 -12  -2  -8 120.986 8.64630   1
 -12  -8   2 133.915 9.07410   1
  12  -2   8 102.545 9.65194   2
  12   2  -8 128.074 10.7599   2
  -2 -12   8 128.945 8.99057   2
  -2  -8 -12 135.169 9.95793   1
  -2  12  -8 121.030 10.9338   3
   8   2  12 130.859 9.36418   2
   2   8 -12 116.954 10.7249   3
  -8  -2  12 121.826 10.0751   2
 -12   2   8 127.725 8.15343   1
 -12   8  -2 123.652 8.34411   1
  -2   8  12 113.602 13.2014   3
   2  -8  12 129.164 9.96685   2
  -8 -12  -2 119.726 10.1545   1
   8  -2 -12 124.202 11.2476   3
  -8   2  12 125.336 9.12633   2
  12   8  -2 128.115 10.4138   2
 -12   8   2 127.435 8.52722   1
 -12   2  -8 128.445 8.14993   1
   8 -12  -2 118.909 9.64015   1
  12  -2  -8 126.755 9.49226   2
 -12  -8  -2 107.646 9.20758   1
  -8 -12   2 124.457 9.50871   1
   2 -12   8 121.554 8.39119   2
   8   2 -12 124.841 10.3973   3
   2   8  12 137.285 13.2663   3
  -2  -8  12 135.165 10.3264   2
  12   2   8 124.836 9.90908   2
  -2   8 -12 115.521 10.7860   3
  -2 -12  -8 127.443 10.0873   1
   8  -2  12 113.926 9.99561   2
   2  12  -8 110.470 10.4130   3
   2  -8 -12 126.007 9.41617   1
   4  -8  12 170.125 12.1002   2
  -4  -8 -12 173.141 12.3605   1
  -8  -4  12 179.537 13.1244   2
   8   4  12 185.572 11.2340   2
   4 -12  -8 171.078 12.2914   1
 -12   8  -4 185.799 10.7733   1
   8 -12   4 165.488 14.1397   1
   4   8 -12 181.095 13.5790   3
 -12  -4  -8 190.546 11.9267   1
  -4   8  12 170.627 16.5657   3
  12  -4   8 176.716 12.7008   2
 -12   4   8 182.567 10.7771   1
 -12  -8   4 177.389 10.8069   1
  -4  12  -8 176.620 13.8844   3
  -4 -12   8 180.237 11.6381   2
  -8 -12  -4 182.180 13.0713   1
  12   8   4 188.076 11.7965   2
 -12  -8  -4 177.957 12.3489   1
   8  -4  12 180.193 12.9345   2
  12   8  -4 184.115 13.4046   2
  -8   4  12 182.195 15.4455   3
   8   4 -12 190.816 13.1815   3
   4  -8 -12 186.561 11.9324   1
  -4 -12  -8 185.059 12.9053   1
  -4   8 -12 181.118 13.7211   3
 -12  -4   8 190.947 13.6438   2
  12   4   8 166.793 11.7439   2
   8 -12  -4 189.793 12.8201   1
   4 -12   8 177.531 10.6733   2
   4  12  -8 186.458 13.6213   3
 -12   8   4 184.224 11.1363   1
  -4  -8  12 185.123 13.0683   2
   4   8  12 177.324 15.3698   3
  12  -8   4 175.824 10.7305   2
 -12  -6  -8 17.3104 4.41860   1
   6 -12  -8 24.6339 5.07781   1
  -8  -6  12 24.1795 5.59721   2
  -6   8  12 20.8044 7.37630   3
  12  -8  -6 38.6897 6.35116   1
   6  -8  12 27.4941 5.34852   2
  -6  -8 -12 26.6275 5.55786   1
  -6 -12   8 31.9322 5.51190   2
  12  -6   8 26.6388 5.16247   2
  12   8   6 29.8330 4.89306   2
  -6  12  -8 34.3647 7.51336   3
   6   8 -12 25.5240 5.95467   3
  -8 -12  -6 21.8767 5.47319   1
   6  -8 -12 32.6217 5.65962   1
 -12  -8  -6 26.6738 5.57004   1
  12   8  -6 20.3841 5.46962   2
   8  -6  12 22.2559 5.06940   2
   6  12  -8 24.0813 5.88953   3
  12  -8   6 22.0704 4.21085   2
  -6  -8  12 33.3256 6.56400   2
 -12  -6   8 29.4378 5.98291   2
  -8   6  12 24.0768 7.87211   3
  12  -6  -8 29.3661 5.25425   1
  12   6   8 33.1855 5.22815   2
   8 -12  -6 33.0512 6.05121   1
  -8 -12   6 29.5120 5.20861   2
  -6 -12  -8 25.6907 5.52559   1
  -6   8 -12 30.0921 6.47044   3
  -8  -6 -12 28.7204 5.58792   1
   8   6 -12 21.9234 5.57865   3
  -8  12  -6 39.1370 9.37020   3
  12  -8   8 61.8590 6.59398   2
  -8  -8  12 54.1728 8.09092   2
  -8 -12   8 59.2176 6.86610   2
  -8   8  12 71.2622 10.8471   3
   8 -12  -8 48.5824 7.45445   1
  -8 -12  -8 72.1304 8.27019   1
 -12  -8  -8 62.0775 7.31006   1
   8  -8 -12 55.3227 6.78246   1
  -8  -8 -12 69.8160 7.96452   1
   8  -8  12 55.8304 7.80224   2
  12   8   8 54.0811 7.68701   2
  12  -8  -8 58.5693 7.46758   1
  -8  12  -8 52.0332 8.93807   3
   8   8 -12 70.6757 8.02305   3
  -8   8 -12 41.1316 9.71318   3
   9  -1 -12 46.9873 6.75997   3
  12  -1   9 32.5361 6.27166   2
 -12  -1  -9 37.6376 4.63256   1
  -1 -12   9 46.8813 5.55838   2
 -12   1   9 34.5879 4.10904   1
   1  -9  12 38.6461 6.08473   2
  -1  -9 -12 36.9273 5.98226   1
   1 -12  -9 40.8402 6.30143   1
  12   1  -9 36.9641 6.49096   2
  -1  12  -9 34.3431 6.95655   3
  -1   9  12 45.7751 10.2146   3
   9 -12   1 42.0790 6.32334   1
  -9 -12  -1 31.5705 5.89981   1
   9   1  12 42.9353 6.35714   2
 -12  -9   1 34.9099 5.53685   1
  12   9   1 43.2726 6.26835   2
   9  12  -1 48.7819 8.11804   2
   1   9 -12 44.3579 6.87572   3
  -9  -1  12 48.3076 6.97739   2
 -12   9  -1 42.3881 4.67176   1
   1 -12   9 38.1181 5.47973   2
  12   1   9 38.8507 6.28686   2
   9   1 -12 38.6754 6.07735   3
  -1  -9  12 41.0914 6.36070   2
 -12   1  -9 40.4857 4.35137   1
  12   9  -1 41.5443 6.54938   2
 -12  -9  -1 37.9281 6.15471   1
  -9   1  12 35.2719 5.85070   2
   9 -12  -1 36.7472 6.08126   1
  -1   9 -12 36.1537 7.28345   3
  -1 -12  -9 29.5279 5.52728   1
   1  12  -9 35.9199 6.94986   3
   1  -9 -12 44.8063 6.44534   1
  -9 -12   1 35.1719 5.84905   1
  12  -1  -9 41.4530 6.37976   2
   9  -1  12 43.3541 6.95137   2
 -12   9   1 38.1718 4.57817   1
   1   9  12 43.0604 9.57813   3
   9 -12   3 69.9263 6.92203   1
   3   9 -12 64.4056 8.12553   3
 -12  -3  -9 72.7634 6.62771   1
   9  12  -3 74.4685 7.39796   2
   3  -9  12 66.5221 7.23522   2
  -3  12  -9 68.1433 8.52310   3
  12  -3   9 67.4916 7.77220   2
 -12   3   9 76.0646 6.09728   1
  -3   9  12 62.8544 10.5757   3
  12   9   3 70.6954 6.76863   2
  -9  -3  12 69.3492 8.16017   2
  -3  -9 -12 85.3507 8.09314   1
   9   3  12 71.4470 6.80850   2
  -9 -12  -3 73.6746 7.99474   1
 -12   9  -3 69.4888 6.01829   1
  -3 -12   9 76.3835 7.05172   2
 -12  -9   3 69.0095 6.38161   1
   3 -12  -9 74.0680 7.48786   1
   9   3 -12 79.0458 8.03852   3
 -12  -9  -3 70.1236 7.40630   1
   3   9  12 73.3760 10.1148   3
 -12  -3   9 68.4698 8.30179   2
   9  -3  12 72.5895 8.16550   2
   9 -12  -3 63.2040 7.28274   1
  -3  -9  12 66.2203 7.56077   2
   3  12  -9 64.3164 7.99488   3
  12   3   9 72.3134 7.28938   2
 -12   9   3 71.5907 6.37183   1
   3 -12   9 70.2594 6.36402   2
   3  -9 -12 71.0302 7.10903   1
  -9 -12   3 69.6412 6.84658   1
  -3 -12  -9 68.3840 7.65502   1
  -3   9 -12 64.9397 8.43234   3
  12   9  -3 67.9988 7.66673   2
  12  -5   9 51.5075 7.39399   2
   5  -9  12 43.4075 6.52355   2
  12   9   5 42.2804 5.82917   2
 -12   9  -5 44.6898 4.74161   1
  -5 -12   9 44.0317 6.47174   2
  -5  12  -9 47.2698 7.53907   3
   9  12  -5 51.5093 7.43320   2
   5 -12  -9 46.6187 7.14739   1
   5   9 -12 47.0948 6.97624   3
  -9  -5  12 48.1094 7.99530   2
  12  -9  -5 55.2382 6.76205   1
  -5  -9 -12 54.0635 7.89955   1
  -9 -12  -5 54.8540 8.19128   1
 -12  -5  -9 47.0727 5.95404   1
   9   5  12 51.4094 5.50358   2
  -5   9  12 53.0269 11.2549   3
  12  -5  -9 54.7813 6.51269   1
 -12  -9  -5 49.7106 7.36833   1
   5   9  12 52.9497 8.88167   3
  -5  -9  12 50.4305 7.40560   2
   5 -12   9 45.6357 5.42410   2
  -9   5  12 48.2578 9.74646   3
   9 -12  -5 42.6413 6.73798   1
  12   9  -5 43.9469 7.59443   2
   5  12  -9 45.5059 6.94249   3
  12   5   9 48.3535 5.82977   2
   5  -9 -12 53.2369 6.20331   1
  -5   9 -12 40.0973 6.96546   3
  -9  12  -5 36.3055 10.3269   3
 -12  -5   9 52.3274 8.41193   2
  -5 -12  -9 46.6680 7.08195   1
   9   5 -12 49.6325 7.06427   3
   9  -5  12 43.2314 6.92796   2
   7   9 -12 12.3135 4.68741   3
  -9  -7  12 12.3548 4.89372   2
  -9 -12  -7 12.9911 4.49566   1
 -12  -7  -9 11.4399 3.80196   1
  -7  12  -9 10.9345 5.40121   3
  -9  12   7 0.57749 4.88443   3
  -7  -9 -12 16.3997 4.67776   1
  -7   9  12 16.5985 7.03051   3
  -7 -12   9 16.2192 4.63185   2
  12  -7   9 16.1384 4.31318   2
  12  -9  -7 12.0839 4.19634   1
   7 -12  -9 15.6113 4.56013   1
   7  -9  12 13.1177 4.19073   2
  -7  12   9 1.24658 4.63158   3
  -9  12  -7 18.6414 7.52179   3
   7  -9 -12 11.9478 3.95521   1
  -7 -12  -9 11.5366 4.38891   1
  -7   9 -12 9.75732 4.51522   3
 -12  -9  -7 16.1525 4.62599   1
  -9   7  12 16.7737 6.95565   3
  12   7   9 17.0403 3.89722   2
  12   9  -7 18.5464 5.05719   2
 -12  -7   9 18.1894 5.21545   2
  12  -7  -9 14.8423 4.61309   1
  -7  -9  12 13.3563 4.69305   2
  -9  -7 -12 12.3553 4.16028   1
  -9  12  -7 16.7815 7.18623   3
   9 -12  -7 12.4259 4.27068   1
   9  -7  12 13.0599 4.39049   2
   7  12  -9 11.6241 4.62382   3
  12  -9   7 11.8171 3.34256   2
  -9 -12   7 11.6382 3.92395   2
 -12 -10   0 79.3719 7.80491   1
   0 -10 -12 82.0084 7.98858   1
  12  10   0 82.8730 7.81043   2
  12   0 -10 89.6618 8.58588   2
 -12  10   0 75.7536 6.76789   1
   0  12 -10 82.3993 9.24566   3
 -10   0  12 98.1008 8.67820   2
  10 -12   0 76.2897 7.75778   1
  12   0  10 72.0893 8.10269   2
   0 -12  10 87.4671 7.63971   2
  10   0  12 83.7945 8.35020   2
   0 -12 -10 83.4078 8.12046   1
   0 -10  12 87.9600 8.16266   2
   0  10 -12 81.8821 9.25949   3
 -10 -12   0 88.8973 8.47791   1
  -2  12 -10 17.0461 5.25289   3
 -12 -10   2 14.6424 3.68772   1
  -2 -12  10 20.1471 4.60656   2
   2 -10  12 19.3895 4.42129   2
   2  10 -12 16.3260 5.37069   3
   2 -12 -10 19.8803 4.80749   1
  10  12  -2 19.1480 4.45335   2
 -12  -2 -10 17.2013 3.64746   1
 -10 -12  -2 16.6567 4.77693   1
 -12  10  -2 17.0465 3.51912   1
  12 -10  -2 15.3816 4.26449   1
  10   2  12 17.7505 4.30824   2
  12  10   2 13.1664 3.78937   2
  12  -2  10 12.9373 4.24010   2
  10  -2 -12 14.6423 4.76855   3
  -2 -10 -12 17.4644 4.50366   1
  10 -12   2 17.8727 4.23598   1
 -10  -2  12 17.3674 4.93415   2
   2 -12  10 18.6683 4.09954   2
   2 -10 -12 20.3825 4.70575   1
  -2  10 -12 18.7731 5.76136   3
 -12 -10  -2 17.5918 4.50943   1
  10  -2  12 18.8697 4.84058   2
   2  10  12 26.2075 7.93187   3
   2  12 -10 17.5515 5.30451   3
  -2 -12 -10 14.7123 4.29567   1
  12   2  10 18.9805 4.54513   2
  -2 -10  12 16.0265 4.45646   2
  12  10  -2 19.0396 4.67734   2
 -12  -2  10 16.1327 4.89865   2
  10 -12  -2 11.4671 3.82088   1
 -10 -12   2 21.4607 4.44269   1
  -4 -12  10 -2.1194 2.65792   2
  -4  12 -10 1.24613 3.31673   3
   4  10 -12 3.39815 3.68830   3
 -10 -12  -4 2.19351 3.02084   1
  -4 -10 -12 2.09483 2.85108   1
   4  12  10 1.19650 4.48910   3
 -12  10  -4 3.49472 2.03976   1
   4 -12 -10 3.16021 2.81923   1
  12 -10  -4 4.03871 3.03062   1
 -10  -4  12 1.81323 3.50704   2
  10   4  12 3.82758 2.59246   2
  12  -4  10 1.62279 2.90805   2
  10  12  -4 -0.0022 2.56100   2
  12  10   4 0.59626 2.23566   2
 -10  12   4 0.27494 4.91968   3
   4 -10  12 0.15284 2.54041   2
  -4  10  12 0.56633 4.38586   3
 -12  -4 -10 1.33436 2.37108   1
  10  -4  12 0.30581 2.70717   2
 -12 -10  -4 3.39441 2.81510   1
  10 -12  -4 3.51907 2.95525   1
  12  -4 -10 0.52614 2.47192   1
  12  10  -4 3.00989 2.80294   2
   4 -10 -12 3.89889 2.93348   1
  -4  10 -12 4.41903 3.73978   3
  -4 -12 -10 2.71432 2.99916   1
  -4  12  10 2.39314 4.92959   3
   4  10  12 5.66145 4.58856   3
  12   4  10 3.18043 2.60280   2
   4 -12  10 0.29661 2.31448   2
 -12  -4  10 1.23671 3.28445   2
  -4 -10  12 3.99394 3.31198   2
   4  12 -10 0.29193 2.81020   3
  -6  12 -10 15.5116 5.37307   3
  -6  10  12 23.3468 8.04290   3
  10  12  -6 19.0352 4.96751   2
 -12  -6 -10 18.9387 4.61089   1
  -6 -12  10 16.2259 4.50654   2
   6 -12 -10 14.6773 4.37231   1
 -10  -6  12 13.4068 5.08959   2
  12 -10  -6 20.3070 5.19832   1
   6 -10  12 21.5827 4.89085   2
 -10 -12  -6 18.7417 5.26774   1
  -6 -10 -12 17.7381 5.08927   1
   6  10 -12 14.8467 5.05092   3
  12  -6  10 18.7799 4.93820   2
  12   6  10 17.8165 4.09365   2
  -6 -12 -10 21.7929 5.69545   1
 -10  -6 -12 22.6505 7.74049   1
   6 -10 -12 16.3255 4.28716   1
 -10   6  12 26.7410 7.70904   3
  -6 -10  12 15.8736 4.98856   2
  10  -6  12 18.4243 4.81404   2
  12  -6 -10 19.0951 4.82664   1
  -6  12  10 3.95339 5.52421   3
  -6  10 -12 14.6733 5.17500   3
   6 -12  10 22.1568 4.19724   2
 -12  -6  10 25.1920 6.07966   2
  12  10  -6 24.3900 5.71687   2
  10 -12  -6 18.1298 4.97172   1
 -12 -10  -6 15.6536 4.81783   1
   6  12 -10 16.8871 5.17119   3
 -11  -1  12 17.2373 4.80940   2
 -12 -11   1 14.1673 4.13207   1
  -1 -12  11 15.8878 4.33921   2
  11  12  -1 15.8160 4.09375   2
  12 -11  -1 19.9462 4.79023   1
 -11 -12  -1 14.6854 4.55562   1
   1 -11  12 14.0428 4.08667   2
  -1 -11 -12 11.7227 4.06050   1
  12  11   1 16.0578 4.03055   2
  12  -1  11 12.6095 4.41730   2
  11 -12   1 13.2718 3.96145   1
   1  11 -12 15.1091 5.29340   3
   1 -12 -11 14.4301 4.31228   1
  -1  12 -11 14.5645 5.18146   3
  11   1  12 10.9551 3.95810   2
   1  12 -11 14.4149 5.28085   3
  -1 -12 -11 12.9203 4.12062   1
 -12 -11  -1 16.3000 4.42427   1
  12  11  -1 17.3068 4.43679   2
 -11 -12   1 13.9591 4.02578   1
  12 -11   1 15.8857 4.36402   1
  11 -12  -1 13.9603 4.22210   1
   1 -12  11 17.3517 4.27198   2
  11  -1  12 17.7355 4.88374   2
   1 -11 -12 12.3438 3.93981   1
  12   1  11 17.3369 4.66736   2
  -1  11 -12 18.8331 5.95008   3
  12  -1 -11 12.1747 3.99016   2
  -1 -11  12 17.2983 4.51763   2
 -11   1  12 14.3943 4.51246   2
 -12  -1  11 15.5600 4.63083   2
 -12 -11   3 31.4375 5.38697   1
  11 -12   3 34.9928 5.88039   1
  11   3  12 35.0276 5.64294   2
 -11  -3  12 35.2913 6.58778   2
  -3 -12  11 33.6341 5.75018   2
   3  11 -12 35.8790 7.38666   3
 -11 -12  -3 31.4269 6.35085   1
  12 -11  -3 32.2325 6.29870   1
  -3 -11 -12 35.6160 6.37396   1
   3 -12 -11 28.0022 5.32838   1
  12  -3  11 25.0282 5.67402   2
  -3  12 -11 36.0807 7.56662   3
   3 -11  12 39.3004 5.96330   2
  11  12  -3 36.6439 6.19340   2
  -3 -11  12 37.2582 6.48249   2
   3  11  12 40.6855 9.10407   3
  -3  11 -12 35.5083 7.47561   3
 -12 -11  -3 32.5324 6.07519   1
 -12  -3  11 30.4542 6.48486   2
  12 -11   3 36.0423 5.92270   1
   3  12 -11 25.0451 6.45376   3
   3 -12  11 32.1444 5.35000   2
  11  -3  12 35.0653 6.67873   2
  -3 -12 -11 39.1209 6.67007   1
  12  11  -3 41.7732 6.83665   2
  11 -12  -3 43.6303 6.97822   1
   3 -11 -12 30.6149 5.61257   1
  12   3  11 29.3907 5.26859   2
   5 -11  12 35.6631 5.89996   2
 -11 -12  -5 38.9613 7.24336   1
  12 -11  -5 43.9649 7.06866   1
  11   5  12 31.7479 5.13466   2
 -12  -5 -11 29.0500 5.39001   1
   5 -12 -11 32.9390 5.82043   1
 -11  -5  12 32.9926 6.66445   2
  -5  12 -11 32.7104 7.39787   3
  11  12  -5 34.8440 6.43661   2
  12  -5  11 32.4223 6.37075   2
  -5 -12  11 39.0487 6.85517   2
  -5 -11 -12 39.2346 7.01016   1
   5  11 -12 36.3856 7.35595   3
   5 -12  11 30.4621 5.23995   2
  12  11  -5 29.2171 5.94465   2
  -5 -11  12 36.9702 6.82587   2
 -12  -5  11 43.2743 7.75360   2
 -12 -11  -5 34.2140 6.54280   1
  -5  11 -12 32.1367 6.92909   3
  12   5  11 32.6043 5.19192   2
  -5 -12 -11 39.7240 7.08630   1
  11 -12  -5 31.4672 6.12591   1
   5 -11 -12 41.1073 6.44550   1
  11  -5  12 27.3055 6.15782   2
   5  12 -11 32.8826 7.18715   3
  12 -12   0 461.203 23.8222   1
  12   0 -12 455.970 24.3152   2
  12   0  12 445.860 23.8958   2
 -12 -12   0 421.642 23.3735   1
   0 -12 -12 437.003 23.1722   1
   0 -12  12 441.385 22.8879   2
   0  12 -12 413.863 25.4375   3
  12   2  12 141.736 10.5905   2
  12  12  -2 141.905 10.7162   2
  12 -12  -2 139.633 11.1534   1
  12  -2  12 127.404 11.2647   2
   2  12 -12 142.962 12.6268   3
   2 -12  12 149.550 10.5598   2
  -2  12 -12 128.673 12.3403   3
 -12  -2  12 154.259 12.2931   2
  -2 -12  12 131.265 10.7782   2
 -12 -12  -2 120.586 10.8215   1
 -12 -12   2 132.348 10.3504   1
  -2 -12 -12 148.669 11.1379   1
   2 -12 -12 124.803 10.3869   1
  12 -12   2 135.751 10.6493   1
   0  -1  13 29.1491 5.02092   2
 -13   0  -1 21.5372 3.69044   1
  -1   0 -13 21.7278 5.71563   3
   0  13  -1 24.6830 7.68791   3
   1   0 -13 26.4183 6.36030   3
  13  -1   0 19.5564 4.53618   2
  13   1   0 21.0437 4.79686   2
   0 -13   1 33.7158 5.46382   1
   0   1  13 20.0146 3.98131   2
 -13  -1   0 23.2188 3.91189   1
 -13   1   0 17.8339 3.33284   1
  -1  13   0 18.7858 6.72959   3
   0  -1 -13 22.6946 6.04806   3
   0   1 -13 25.0736 6.05808   3
   1  13   0 19.8106 6.70968   3
  -1   0  13 26.6437 4.50350   2
   1 -13   0 23.9518 4.62797   1
  13   0  -1 26.8658 5.39154   2
  13   0   1 23.9016 4.95406   2
   1   0  13 27.3843 4.81084   2
   0 -13  -1 25.1436 4.85386   1
  -1 -13   0 26.5153 5.00937   1
 -13   0   1 21.0879 3.55202   1
   1  -2  13 26.0095 4.77013   2
  -1   2  13 30.1010 4.35166   2
 -13  -1  -2 31.1182 3.91556   1
   2 -13   1 31.3918 5.31134   1
 -13   2  -1 19.3800 3.51502   1
  13  -1   2 24.7254 5.24688   2
  13   2   1 20.8068 4.91617   2
   2   1  13 17.5210 3.69403   2
  -2   1 -13 20.8343 5.39681   3
   1   2 -13 26.2375 5.87450   3
   2  13  -1 40.9502 9.76335   3
  13  -2  -1 21.8092 4.53515   2
   1 -13  -2 18.1847 4.28459   1
 -13  -2   1 17.1697 3.35634   1
  -2  -1  13 17.7711 4.11710   2
  -1 -13   2 17.2265 4.27865   1
  -1  -2 -13 24.3862 6.48123   3
  -1  13  -2 17.9013 6.83300   3
 -13   1   2 30.0053 3.68842   1
  -2 -13  -1 30.7023 5.55399   1
  13   1  -2 28.5661 5.43420   2
   2  -1 -13 18.4679 5.70841   3
   2   1 -13 28.9394 6.36736   3
 -13   1  -2 19.4992 3.57613   1
  13  -2   1 27.8523 5.12371   2
  13   2  -1 32.5343 6.08197   2
  -1 -13  -2 40.8074 6.47669   1
  -2   1  13 28.5862 4.47656   2
   2 -13  -1 19.9953 4.45423   1
  -1   2 -13 18.2106 5.12239   3
 -13  -1   2 19.2601 3.43403   1
   1  13  -2 28.6002 7.04325   3
  -2  13  -1 13.1118 6.35018   3
  13   1   2 18.3065 4.58168   2
 -13   2   1 27.2042 3.95846   1
   2  -1  13 34.1588 5.35465   2
   1  -2 -13 15.9941 5.36705   3
   1   2  13 20.5704 3.84028   2
  13  -1  -2 19.3133 4.40390   2
   1 -13   2 26.4311 4.75778   1
  -1  -2  13 19.0790 4.14837   2
  -2  -1 -13 27.9985 6.52691   3
 -13  -2  -1 32.7029 4.02590   1
  -2 -13   1 13.8090 3.74370   1
   0   3  13 91.0895 9.99887   3
  13   3   0 91.8031 8.59823   2
   0   3  13 100.124 7.02386   2
 -13  -3   0 96.4522 7.09675   1
  13   0   3 78.1060 8.01965   2
   0   3 -13 87.3016 9.13801   3
 -13   3   0 94.4889 6.74472   1
 -13   0  -3 93.9766 6.95745   1
 -13   0   3 87.2454 6.54683   1
  -3   0 -13 92.7788 9.48177   3
   0  13  -3 94.4859 10.3322   3
   0 -13   3 91.4858 7.76963   1
  -3   0  13 95.2899 7.85664   2
   3   0  13 99.3718 7.81104   2
  13  -3   0 96.2954 7.94631   2
  13   0  -3 88.2656 8.38688   2
   3   0 -13 92.4509 9.58433   3
   0 -13  -3 87.4245 8.05706   1
  -3 -13   0 88.3461 8.17455   1
   3 -13   0 95.4087 8.09420   1
   3  13   0 76.1738 10.8458   3
   0  -3  13 94.3552 8.23121   2
   3  -2 -13 211.353 16.0372   3
   3   2  13 239.097 12.4444   2
 -13  -2  -3 199.801 11.9544   1
  13  -3  -2 213.688 12.8082   2
 -13   2   3 200.616 11.5500   1
  -2   3  13 202.415 11.6203   2
  -2 -13   3 204.395 12.6543   1
 -13  -3   2 210.329 11.8113   1
  -2   3  13 194.477 15.9178   3
  -3 -13  -2 206.433 13.6187   1
   3 -13   2 183.455 12.4707   1
  13   3   2 214.427 14.0160   2
  -3  -2  13 226.903 13.5411   2
  13   2  -3 186.475 13.6895   2
  13  -2   3 195.901 13.3368   2
   2   3 -13 192.633 14.3475   3
  -3   2 -13 211.412 14.7454   3
   2 -13  -3 218.308 13.4342   1
 -13   3  -2 215.787 11.6950   1
  -2  13  -3 227.701 16.9393   3
   2  -3  13 205.343 13.1970   2
  -2  -3 -13 201.485 16.0106   3
  -3  13  -2 156.699 15.6998   3
   3 -13  -2 214.191 13.4400   1
 -13  -3  -2 195.763 11.8858   1
  -3 -13   2 211.299 13.0302   1
  13  -3   2 202.740 13.0579   2
   3   2 -13 192.825 14.4910   3
  -3   2  13 208.197 12.0481   2
   3  -2  13 202.074 12.9504   2
  13   2   3 234.679 14.4084   2
  -3  -2 -13 191.498 15.0195   3
   2  13  -3 213.682 15.7258   3
  -2   3 -13 210.759 14.7998   3
   2   3  13 215.860 11.7008   2
 -13   3   2 195.772 11.4297   1
  -2 -13  -3 196.668 13.3752   1
  13  -2  -3 209.661 12.9792   2
 -13  -2   3 223.259 11.8083   1
 -13   2  -3 219.832 11.8243   1
  -2  -3  13 198.508 12.9861   2
  13   3  -2 208.753 14.1752   2
   2 -13   3 199.853 12.5529   1
  13   4   1 136.165 10.3230   2
  13  -4  -1 117.516 8.61207   2
   1 -13  -4 115.588 9.37928   1
 -13  -4   1 114.108 8.12874   1
   4   1  13 122.905 8.75260   2
 -13  -1  -4 117.196 8.24281   1
  -1   4  13 109.263 11.7427   3
   1   4 -13 114.116 10.4705   3
   4  13  -1 94.7295 11.5702   3
  -4 -13  -1 120.171 9.66294   1
   4  -1 -13 109.917 10.9314   3
   4 -13   1 108.232 8.93252   1
  13   1  -4 108.844 9.61274   2
  13  -1   4 119.205 9.78158   2
 -13   1   4 117.660 7.80788   1
  -4  -1  13 127.039 9.47266   2
  -4   1 -13 115.886 10.3510   3
   1  -4  13 107.935 9.16820   2
 -13   4  -1 116.569 7.87147   1
  -1  13  -4 124.581 11.4707   3
   4  -1  13 96.0928 8.65433   2
 -13   1  -4 122.901 8.05800   1
   4   1 -13 115.438 10.6227   3
   4 -13  -1 113.176 9.22540   1
 -13   4   1 117.190 7.83333   1
  -4  13  -1 96.3591 12.6345   3
  -4  -1 -13 117.563 10.7376   3
  -1  -4  13 123.821 9.63247   2
 -13  -1   4 123.702 7.88761   1
  -4 -13   1 118.774 9.40170   1
  13   4  -1 124.122 10.2599   2
  13  -1  -4 114.140 9.37094   2
  13  -4   1 118.130 8.77868   2
  -1   4 -13 121.526 10.6992   3
  -1 -13  -4 107.469 9.29831   1
  13   1   4 113.912 9.67302   2
   1   4  13 108.113 11.4733   3
   1  13  -4 114.446 10.9968   3
 -13  -4  -1 123.737 8.50831   1
  -4   1  13 124.805 8.90200   2
 -13   3   4 309.982 15.5743   1
  -4   3 -13 294.433 18.4451   3
   3 -13  -4 286.818 17.1843   1
  -4  -3  13 279.496 17.1587   2
   4  13  -3 306.782 19.9204   3
   4   3  13 298.904 15.6402   2
  13  -4  -3 295.018 16.1029   2
  13  -3   4 312.489 17.5743   2
   4 -13   3 316.135 16.8846   1
  13   3  -4 292.650 18.3751   2
 -13  -3  -4 314.927 16.3314   1
  -3   4  13 322.694 21.4891   3
   3   4 -13 303.121 18.8431   3
  -4 -13  -3 305.906 17.8292   1
 -13  -4   3 286.111 15.4259   1
  13   4   3 305.493 17.7163   2
  -3  13  -4 281.286 19.5861   3
 -13   4  -3 293.313 15.4124   1
   3  -4  13 302.073 17.2846   2
 -13   3  -4 306.013 15.6265   1
  -3  -4  13 298.164 17.5569   2
  13   3   4 292.327 17.6378   2
  13  -4   3 322.629 17.1598   2
  -3   4 -13 277.507 18.3192   3
   3  13  -4 329.639 19.6894   3
  -4  -3 -13 301.237 19.8017   3
 -13  -4  -3 303.270 16.2818   1
 -13   4   3 314.671 15.6592   1
  -3 -13  -4 316.542 17.9195   1
  -4   3  13 311.187 21.0161   3
  13  -3  -4 294.217 16.3696   2
   4  -3  13 316.128 17.4980   2
   3   4  13 282.190 19.3365   3
   3   4  13 292.875 15.1182   2
   4   3 -13 288.156 18.4673   3
   4 -13  -3 281.123 17.0960   1
  13   4  -3 293.362 18.3783   2
 -13  -3   4 289.044 15.2799   1
  -4 -13   3 261.391 16.0128   1
  13   0   5 5.36271 2.94916   2
  -5   0  13 5.95611 2.99941   2
   5   0 -13 5.71431 3.63909   3
   0   5  13 5.05487 4.30211   3
  -5 -13   0 4.07853 2.70805   1
   0  -5  13 7.33001 3.56216   2
  13   0  -5 5.78382 2.99867   2
   5 -13   0 3.66604 2.58974   1
 -13   0  -5 4.51174 2.04998   1
   5  13   0 1.85554 4.98847   3
   0 -13  -5 3.95481 2.88229   1
  -5  13   0 -1.3439 4.14177   3
 -13   5   0 4.74371 1.93292   1
  -5   0 -13 2.88443 3.12736   3
   0  13  -5 7.40717 4.15175   3
   0  13   5 0.13885 4.54767   3
 -13   0   5 6.26233 2.14692   1
 -13  -5   0 7.33039 2.57393   1
  13  -5   0 5.44112 2.35953   2
  13   5   0 6.77338 3.07848   2
   0   5 -13 7.27199 3.84333   3
   5   0  13 8.12990 3.07569   2
  -5  -2  13 13.2496 4.23222   2
  13   5   2 12.6288 3.89476   2
 -13   5  -2 16.8732 3.29774   1
   5   2  13 17.7932 3.67163   2
  13   2  -5 24.5544 5.49737   2
  -2   5  13 24.9524 6.87026   3
 -13   2   5 22.5788 3.67969   1
  -5 -13  -2 26.9672 5.53162   1
  -5  13   2 3.55996 5.60959   3
   5 -13   2 22.2652 4.56792   1
   2 -13  -5 16.3525 4.25357   1
  13  -5  -2 18.3173 3.68367   2
  -5   2 -13 16.4061 4.86597   3
 -13  -5   2 16.1979 3.46544   1
   5  13  -2 13.7311 6.52958   3
   2  -5  13 29.4078 5.42102   2
 -13  -2  -5 25.0411 4.23271   1
  13  -2   5 19.3666 4.59736   2
   5  -2 -13 16.2188 5.62953   3
   2   5 -13 22.8737 5.78000   3
  -2  13  -5 18.7741 5.79320   3
  13  -5   2 25.0348 4.48966   2
  -2   5 -13 14.7065 4.83319   3
   5   2 -13 24.2068 5.68257   3
  -5  -2 -13 22.5606 5.96687   3
 -13  -5  -2 19.4054 3.91042   1
   5  -2  13 26.5194 5.25921   2
   2   5  13 16.0810 5.82227   3
  -5   2  13 30.8406 4.68617   2
  13   2   5 15.7498 4.25315   2
 -13  -2   5 12.9830 2.87630   1
 -13   5   2 23.7370 3.76386   1
  -2 -13  -5 28.3804 5.40573   1
   2  13  -5 21.0336 5.79572   3
   5 -13  -2 17.4040 4.28766   1
  13  -2  -5 14.6090 3.81780   2
  -5 -13   2 22.4486 4.86365   1
  13   5  -2 23.0246 5.18937   2
  -2  -5  13 21.4108 4.91815   2
 -13   2  -5 21.3437 3.75635   1
  -5  13  -2 7.99247 5.97282   3
 -13   5  -4 30.3008 4.38184   1
   4 -13  -5 33.4553 5.71051   1
  -5   4 -13 35.0866 6.85435   3
  13   5   4 36.1382 5.95522   2
   4   5 -13 24.4516 5.84646   3
 -13   4   5 30.1386 4.50012   1
  -4  13  -5 46.8853 9.31875   3
 -13  -4  -5 29.6709 4.84068   1
 -13  -5   4 32.5199 4.03197   1
  13  -4   5 28.4924 5.41836   2
   4  -5  13 28.5030 5.77938   2
   5   4  13 36.9303 4.31467   2
  13   4  -5 30.7947 6.33123   2
  -4   5  13 30.6477 8.28105   3
   5  13  -4 32.4999 7.61871   3
  -5 -13  -4 28.6141 5.72452   1
  -5  -4  13 30.9512 5.98865   2
  -4  -5  13 29.8594 5.78913   2
 -13  -5  -4 31.0368 5.15916   1
   4   5  13 29.8416 6.97522   3
  13   5  -4 23.5402 5.46227   2
   5 -13  -4 34.3339 5.88919   1
 -13   4  -5 32.1311 3.99111   1
  -4   5 -13 29.2802 6.30532   3
  13  -5   4 29.9939 5.22005   2
   5  -4  13 32.0122 5.84387   2
  -5   4  13 36.0401 8.49439   3
 -13   5   4 30.1152 4.45910   1
  -4 -13  -5 23.3569 5.13643   1
  13  -4  -5 36.9956 4.53202   2
  13   4   5 36.0149 5.95122   2
 -13  -4   5 32.5330 3.96647   1
  -5  13  -4 35.4467 8.91820   3
  -5  -4 -13 25.4514 6.55155   3
   5   4 -13 35.2625 6.95857   3
   4  13  -5 36.0763 7.63952   3
  -6  -1  13 117.651 9.68077   2
  -6 -13  -1 125.247 10.1035   1
  13  -1   6 117.183 9.91138   2
  13  -6  -1 113.771 7.91980   2
   1 -13  -6 116.802 9.55074   1
 -13   6  -1 121.706 8.13032   1
  -1  13  -6 110.870 10.8215   3
   6   1  13 111.472 8.80605   2
   1  -6  13 114.826 9.69476   2
 -13   1   6 124.709 8.00352   1
   6  -1 -13 113.173 10.9455   3
  13   1  -6 128.286 10.3015   2
  -1   6  13 118.322 13.2863   3
   6 -13   1 123.339 9.46510   1
  13   6   1 110.615 9.50686   2
   6  13  -1 104.505 12.3028   3
 -13  -6   1 107.476 8.29485   1
 -13  -1  -6 128.702 8.59706   1
   1   6 -13 122.319 10.8656   3
  -6   1 -13 106.328 9.83251   3
  13   1   6 115.836 9.74923   2
   1   6  13 115.300 12.5708   3
  13  -1  -6 108.457 9.29771   2
  -1 -13  -6 118.697 9.72435   1
  -6   1  13 130.773 9.43389   2
 -13   1  -6 107.577 7.87349   1
 -13  -6  -1 115.976 8.69416   1
 -13  -1   6 112.845 7.70206   1
  -6  -1 -13 112.249 10.2620   3
   6  -1  13 127.159 9.59206   2
   6   1 -13 116.567 10.6850   3
  -6 -13   1 107.694 9.24212   1
 -13   6   1 127.912 8.29637   1
   1  13  -6 117.492 10.9157   3
  -1  -6  13 111.099 9.61913   2
  13   6  -1 142.581 10.9153   2
  13  -6   1 123.514 8.39725   2
  -1   6 -13 110.703 10.6004   3
   6 -13  -1 109.250 9.30239   1
   6   3  13 34.6240 4.91561   2
  -6   3 -13 35.5868 5.91437   3
   3   6 -13 22.6865 5.84326   3
   3 -13  -6 37.5791 6.13905   1
 -13   3   6 21.9389 3.79897   1
   6 -13   3 24.4498 4.88718   1
  13  -3   6 28.4041 5.66989   2
  -6  -3  13 36.8337 6.31676   2
   6  13  -3 24.2193 8.20262   3
  -6 -13  -3 26.1479 5.69967   1
 -13  -3  -6 23.6632 4.43133   1
  -3  13  -6 48.2072 8.79919   3
  13   6   3 41.9316 6.35132   2
   3  -6  13 24.2991 5.29853   2
 -13  -6   3 35.6922 4.38825   1
  13   3  -6 22.5826 5.57531   2
  -3   6  13 25.2898 7.93274   3
 -13   6  -3 38.8936 4.23586   1
  13  -6   3 29.9468 4.85008   2
  -3  -6  13 38.7138 6.38857   2
  -3 -13  -6 26.5476 5.58125   1
  -6  -3 -13 16.9210 5.18886   3
   3   6  13 37.7168 8.10564   3
 -13  -6  -3 24.3588 4.86052   1
  -3   6 -13 42.5729 6.59993   3
   6 -13  -3 40.5719 6.30021   1
 -13   3  -6 36.0978 4.15532   1
   3  13  -6 24.3343 6.38126   3
   6  -3  13 22.6069 5.32526   2
  13   3   6 27.7446 5.32988   2
  13   6  -3 24.2826 5.67594   2
 -13   6   3 21.2937 3.92999   1
 -13  -3   6 39.4353 4.09432   1
  13  -3  -6 41.7068 5.09046   2
  -6  13  -3 28.6341 8.76535   3
   6   3 -13 21.6747 5.40480   3
  -6   3  13 20.1795 6.14213   3
 -13  -5  -6 33.7146 5.65296   1
   5   6 -13 43.4580 6.74696   3
  -6  -5  13 56.3649 7.87996   2
  -5   6  13 41.8592 9.97270   3
  13   5  -6 34.0041 6.70358   2
  -5 -13   6 54.5314 5.81921   2
   5 -13  -6 52.7690 6.57491   1
  13   6   5 56.6045 6.24825   2
   6  13  -5 54.1412 9.40124   3
  -5  13  -6 54.0613 8.52978   3
  -6 -13  -5 41.8181 7.05477   1
 -13   5   6 41.1988 4.85030   1
   5  -6  13 39.0344 6.69331   2
 -13  -6   5 47.1006 4.85586   1
  -6   5 -13 58.1097 7.32026   3
  13  -5   6 36.3571 5.93621   2
 -13   6  -5 56.5995 5.19362   1
   6 -13  -5 61.0147 6.95890   1
 -13  -5   6 54.6266 4.86058   1
  -5   6 -13 51.7819 7.15097   3
  -6   5  13 44.7266 9.90457   3
  -5  -6  13 49.2931 7.63194   2
  13   6  -5 43.3630 7.48307   2
  -5 -13  -6 39.2585 6.83997   1
  -6  13  -5 73.6350 12.4475   3
   6  -5  13 45.2208 7.35601   2
  -6  -5 -13 49.9904 10.7415   3
   6   5 -13 47.3537 6.86451   3
 -13  -6  -5 38.2238 5.86601   1
  -6 -13   5 55.9741 7.86065   2
 -13   5  -6 60.7436 5.21351   1
   5   6  13 47.8703 8.03484   3
  13  -6   5 44.5732 6.30146   2
   5  13  -6 42.1752 7.21351   3
  13   5   6 54.5873 6.26977   2
 -13   6   5 39.4006 4.73364   1
   0  13  -7 81.9685 9.21200   3
  13   0  -7 70.4899 7.62566   2
  -7   0  13 90.5859 8.31528   2
   0 -13  -7 74.1413 7.74313   1
  -7 -13   0 78.5158 7.91688   1
   7   0  13 79.5972 7.61140   2
   0   7 -13 75.9943 8.84203   3
  13   0   7 76.6414 8.11484   2
   7 -13   0 86.1160 7.88453   1
 -13   0  -7 79.9673 6.54823   1
  13   7   0 85.1769 8.20710   2
   0  -7  13 79.3086 8.07984   2
   7   0 -13 79.1255 8.90068   3
 -13  -7   0 77.9748 7.10724   1
 -13   7   0 77.1252 6.44064   1
 -13   0   7 76.5191 6.06439   1
   0   7  13 76.0705 11.0092   3
   2 -13  -7 97.6085 8.78544   1
  -7   2 -13 93.9035 9.11013   3
  13   7   2 98.5425 8.69428   2
  -2 -13   7 108.446 8.00314   2
  13  -2   7 90.3181 9.04728   2
   7   2  13 105.948 8.36822   2
   7  -2 -13 108.122 10.8550   3
 -13  -7   2 105.383 8.01269   1
 -13   7  -2 105.626 7.63179   1
  -7 -13  -2 116.332 9.82347   1
 -13   2   7 109.918 7.50135   1
 -13  -2  -7 107.455 7.98324   1
   7 -13   2 106.302 8.74906   1
  -2  13  -7 102.230 10.4896   3
  13   2  -7 100.249 9.54755   2
  -2   7  13 104.462 12.6764   3
   2  -7  13 105.506 9.32273   2
  -7  -2  13 113.150 9.73836   2
   2   7 -13 95.6652 9.88548   3
  13   7  -2 102.002 9.43402   2
 -13   7   2 103.453 7.62562   1
  13  -7   2 98.6101 7.44706   2
 -13   2  -7 109.993 7.51287   1
 -13  -2   7 109.414 7.23768   1
 -13  -7  -2 105.816 8.56877   1
   2   7  13 108.145 12.5570   3
  13   2   7 97.0903 8.99778   2
  -7 -13   2 90.3308 8.34501   1
   7 -13  -2 100.506 9.02065   1
   2  13  -7 95.0205 9.93603   3
   7   2 -13 101.517 9.78721   3
   7  -2  13 94.3231 9.00026   2
  13  -2  -7 103.921 8.59373   2
  -2 -13  -7 111.417 9.44171   1
  -2   7 -13 97.4434 9.90120   3
  -2  -7  13 100.689 9.29875   2
  13   4  -7 116.151 10.8707   2
 -13   4   7 127.875 8.71227   1
   4   7 -13 117.728 10.9185   3
  -4   7  13 124.671 14.3150   3
  13  -4   7 113.888 9.87365   2
  -7   4 -13 121.256 10.5210   3
   4  -7  13 122.196 10.2904   2
   4 -13  -7 122.720 10.0766   1
  -4  13  -7 122.681 11.9008   3
  -4 -13   7 141.129 9.34554   2
  -7 -13  -4 139.524 11.0989   1
 -13  -7   4 126.865 8.69951   1
 -13   7  -4 132.017 8.62835   1
 -13  -4  -7 131.640 9.42517   1
   7   4  13 135.603 8.99636   2
  13   7   4 137.051 9.98073   2
  -4  -7  13 123.371 10.6920   2
 -13   7   4 127.000 8.78528   1
 -13  -7  -4 119.269 9.70157   1
  -7   4  13 133.740 13.7228   3
 -13   4  -7 140.790 8.62505   1
  -4   7 -13 131.427 11.3763   3
   4   7  13 113.310 12.4008   3
   7 -13  -4 145.280 10.9151   1
  -4 -13  -7 129.449 10.5606   1
  13  -7   4 116.598 8.65743   2
  13   7  -4 119.592 10.7295   2
   7  -4  13 133.220 10.8293   2
  13   4   7 126.435 9.91522   2
   7   4 -13 126.462 10.9091   3
   4  13  -7 118.641 11.2010   3
 -13   6   7 10.6570 2.98232   1
  13  -6   7 13.8207 3.99030   2
  13   6  -7 11.0177 4.42779   2
  -7  13   6 0.83494 4.28479   3
   6   7 -13 12.8277 4.61395   3
  13   7   6 10.8245 3.49880   2
  -7  -6  13 10.1497 4.52815   2
   6 -13  -7 12.4669 3.97028   1
   6  -7  13 12.2136 4.23240   2
  -6   7  13 8.23227 6.37160   3
  -6  13  -7 11.5436 5.78298   3
  -6 -13   7 9.15650 3.52550   2
  -7   6 -13 13.7958 4.73588   3
  -7 -13  -6 10.5774 4.16759   1
 -13  -6  -7 11.1943 3.60622   1
 -13   7  -6 12.3321 2.90782   1
 -13   7   6 14.4402 3.41353   1
 -13  -7  -6 11.8023 3.90512   1
  -7 -13   6 9.37122 3.44521   2
  -6  -7  13 8.18026 4.17893   2
   7 -13  -6 11.6199 4.00236   1
  13   7  -6 10.3020 4.24222   2
   7   6 -13 13.3560 4.59921   3
  13  -7   6 12.9700 3.52808   2
  -7   6  13 11.2828 5.92107   3
  -6 -13  -7 11.2043 4.18063   1
  -6  13   7 1.15440 4.56509   3
  -6   7 -13 10.9975 4.53793   3
  -7  13  -6 11.9291 6.55183   3
   6  13  -7 13.9424 5.34024   3
   7  -6  13 7.86341 4.01971   2
  13   6   7 12.7515 3.46616   2
   8  -1 -13 242.970 16.9203   3
 -13  -1  -8 234.857 13.7792   1
 -13  -8   1 265.640 14.6048   1
  -1   8  13 224.564 19.1478   3
  13  -1   8 198.304 15.0567   2
  -8  -1  13 277.246 15.9373   2
   1   8 -13 234.492 16.7454   3
   8 -13   1 232.467 14.8451   1
   1  -8  13 227.937 15.0195   2
  -1  -8 -13 244.945 16.4092   1
  -8 -13  -1 229.902 15.4599   1
  -1  13  -8 252.766 17.2115   3
 -13   1   8 235.525 13.2140   1
   8   1  13 279.997 15.4419   2
   1 -13  -8 242.905 15.2782   1
  13   8   1 273.691 15.6291   2
  -1 -13   8 253.153 14.0157   2
  13   1  -8 225.251 15.6172   2
 -13   8  -1 270.510 14.0906   1
  -1  -8  13 276.165 16.0761   2
  13   8  -1 227.579 15.4230   2
  -8   1  13 268.022 15.1529   2
   8   1 -13 235.800 16.3017   3
   1   8  13 257.997 19.7960   3
 -13  -8  -1 227.862 14.4419   1
  -8 -13   1 244.717 15.3500   1
   1  13  -8 215.253 16.2405   3
 -13  -1   8 257.604 13.1334   1
 -13   8   1 232.401 13.7177   1
 -13   1  -8 272.868 13.8593   1
  13  -1  -8 256.003 15.4175   2
  -1 -13  -8 236.176 15.2791   1
  13   1   8 270.826 16.3028   2
   8 -13  -1 255.216 15.4912   1
   8  -1  13 233.333 15.2611   2
  -1   8 -13 258.047 17.1881   3
   3 -13  -8 401.535 21.7855   1
   8   3  13 382.185 20.4158   2
 -13  -3  -8 412.218 20.8466   1
  13  -3   8 396.370 22.4470   2
 -13  -8   3 387.942 20.1975   1
  -8 -13  -3 406.155 22.7746   1
  -3   8  13 398.550 27.2385   3
 -13   8  -3 404.536 20.0317   1
  -8  -3  13 406.263 22.4999   2
  -3  -8 -13 430.209 23.3970   1
  -3  13  -8 406.843 24.1497   3
   8 -13   3 432.149 21.4913   1
  -3 -13   8 396.104 20.4460   2
   8  -3 -13 403.892 24.7736   3
  13   8   3 389.402 21.1312   2
  13   3  -8 428.467 23.6591   2
   3  -8  13 435.371 22.2478   2
 -13   3   8 422.288 20.1083   1
   3   8 -13 401.257 23.5127   3
  -3  -8  13 401.174 22.3176   2
 -13  -8  -3 415.145 21.8812   1
   8 -13  -3 400.534 22.2048   1
  -3 -13  -8 419.905 22.4277   1
 -13   3  -8 390.604 19.4996   1
  13   8  -3 418.139 22.9944   2
   3   8  13 324.579 25.1290   3
   8   3 -13 401.726 22.8268   3
  -3   8 -13 374.215 23.2624   3
   8  -3  13 398.783 22.4813   2
 -13   8   3 418.932 20.4430   1
   3  13  -8 409.572 23.5726   3
  13   3   8 398.058 21.6486   2
   5  -8  13 59.5932 7.48706   2
 -13   5   8 60.0981 5.84160   1
  -5   8  13 72.1706 11.1240   3
   5   8 -13 68.4248 8.25318   3
  -5  -8 -13 77.1347 14.5050   1
 -13   8  -5 66.2795 5.89891   1
  -8  -5  13 69.0549 8.33317   2
  13   8   5 65.4405 6.66699   2
  13  -5   8 71.0658 7.59026   2
  -5  13  -8 66.9891 9.30011   3
 -13  -5  -8 60.8724 6.71258   1
  -8 -13  -5 68.0248 8.01887   1
   5 -13  -8 61.9624 7.26486   1
  13   5  -8 57.1733 8.99168   2
  -5 -13   8 73.2685 7.12003   2
  13   5   8 75.8577 7.22446   2
  -5  -8  13 73.7134 8.21628   2
   8 -13  -5 64.6864 7.58440   1
   5  13  -8 62.4532 8.32197   3
  13   8  -5 65.8617 8.01808   2
   5   8  13 71.8400 10.0446   3
 -13  -8  -5 60.8917 7.19250   1
  13  -8   5 65.4471 6.08995   2
  -5   8 -13 68.1276 8.57072   3
  -5 -13  -8 60.4498 7.39740   1
  -8   5  13 63.1578 10.2184   3
   8   5 -13 62.0941 7.75736   3
 -13   8   5 71.6266 6.42174   1
  -8  13  -5 45.9081 10.9360   3
   8  -5  13 64.6790 7.83126   2
  -8 -13   5 65.2964 6.69507   2
  -8 -13  -7 278.422 18.0181   1
 -13  -7  -8 273.848 17.1830   1
  -7   8  13 311.049 24.0832   3
  13  -8  -7 334.658 18.4781   1
  -7  13  -8 278.588 19.8712   3
   7 -13  -8 287.456 17.7286   1
  13   8   7 280.702 15.9373   2
  13  -7   8 284.703 16.7026   2
   7  -8  13 286.733 17.4946   2
  -7 -13   8 270.050 16.4851   2
  -8  -7  13 305.840 18.7109   2
   7   8 -13 288.769 18.3821   3
  13   8  -7 285.119 18.8052   2
  -7 -13  -8 278.591 17.9439   1
   8  -7  13 282.486 17.7495   2
   8   7 -13 285.605 18.1719   3
   8 -13  -7 308.789 18.2045   1
  13  -7  -8 341.380 18.4760   1
 -13  -8  -7 269.070 17.3800   1
  -7   8 -13 277.080 18.4719   3
  -8  13  -7 281.565 21.0267   3
  -8 -13   7 308.564 16.8142   2
  -8  13  -7 284.084 21.0700   3
  13  -8   7 284.597 16.1091   2
  13   7   8 274.428 15.9889   2
  -8   7  13 332.060 23.5738   3
   0   9 -13 40.1679 6.92218   3
   0  -9 -13 39.1400 6.14919   1
   0  13  -9 36.3005 7.27953   3
   0   9  13 44.6314 9.74862   3
  -9 -13   0 32.2020 6.17467   1
 -13   0  -9 42.9811 4.84014   1
 -13   9   0 38.3266 4.68920   1
  13   9   0 43.2577 6.67089   2
  13   0  -9 41.1158 6.84694   2
   9 -13   0 35.5605 6.06285   1
  -9   0  13 43.8749 6.91148   2
   0 -13   9 41.2800 5.66397   2
   9   0  13 37.3590 6.31782   2
   0  -9  13 45.6179 6.93761   2
  13   0   9 44.0196 7.07824   2
 -13  -9   0 36.4655 5.87982   1
   0 -13  -9 28.4834 5.53570   1
   9   0 -13 38.4333 7.30996   3
  13   9   2 47.0637 6.69742   2
   2   9 -13 42.5983 7.17432   3
  -9 -13  -2 39.6534 6.96865   1
   2 -13  -9 55.8323 6.63711   1
   2  -9  13 45.8551 6.86961   2
 -13   2   9 50.8871 5.01529   1
   9  -2 -13 45.7667 7.38657   3
  -2  13  -9 50.8142 7.67929   3
 -13   9  -2 54.8038 5.38375   1
  13  -2   9 46.5683 7.45951   2
  -2   9  13 48.3167 10.3337   3
 -13  -2  -9 46.7916 5.45188   1
   9   2  13 59.6433 6.40859   2
  -2  -9 -13 42.3374 6.54449   1
   9 -13   2 45.8213 6.81652   1
 -13  -9   2 45.2872 5.48130   1
  13   2  -9 38.5097 7.05783   2
  -9  -2  13 56.1195 7.97944   2
  -2 -13   9 55.7729 6.04250   2
  13   2   9 53.1245 7.35720   2
   9   2 -13 42.3475 6.59921   3
   9 -13  -2 55.7169 6.85706   1
   2  13  -9 41.7265 7.02035   3
   2  -9 -13 51.8028 6.38704   1
  13  -2  -9 48.2747 7.72295   2
 -13  -9  -2 43.2740 6.68167   1
   9  -2  13 45.1767 7.25280   2
  13   9  -2 42.7396 7.00861   2
 -13   9   2 50.3887 5.27913   1
  -2   9 -13 50.1845 7.67885   3
  -2  -9  13 53.1654 7.45300   2
  -2 -13  -9 41.4397 6.69228   1
  -9 -13   2 50.0276 6.43532   1
   2   9  13 57.1691 9.45588   3
  -4 -13   9 58.4357 7.05321   2
  13  -4   9 60.8152 8.26535   2
 -13   4   9 60.2285 5.72170   1
   4 -13  -9 63.6592 7.20217   1
 -13   9  -4 53.6061 5.44476   1
  13   9   4 54.9452 6.35778   2
 -13  -9   4 55.4809 5.76843   1
   4   9 -13 62.2369 8.08351   3
  13   4  -9 54.6902 8.59764   2
   4  -9  13 56.1065 7.03293   2
  -9 -13  -4 52.8268 7.88786   1
  -4  -9 -13 70.2499 7.71781   1
  -4  13  -9 55.5547 8.48459   3
   9  13  -4 64.9261 9.03985   2
   9   4  13 56.1545 6.02647   2
  13  -9  -4 64.6347 7.21083   1
  -4   9  13 61.8984 10.4993   3
 -13  -4  -9 55.1160 6.28651   1
  -9  -4  13 69.5275 8.44304   2
   4  13  -9 55.6987 7.85633   3
   9 -13  -4 56.8383 7.29027   1
  -4 -13  -9 64.8285 7.53316   1
   9   4 -13 58.8178 7.45042   3
  -4  -9  13 50.4379 7.88032   2
  13   9  -4 63.5969 7.72210   2
  -4   9 -13 66.0802 8.38595   3
   4   9  13 51.1135 10.5917   3
   9  -4  13 44.9156 7.49230   2
   4  -9 -13 61.8575 10.5578   1
 -13  -9  -4 61.9939 7.22617   1
  13   4   9 66.8359 6.97624   2
  -6  -9 -13 1.40452 3.00440   1
  -9  -6  13 5.05150 4.11437   2
   6   9 -13 1.25876 3.14537   3
  -9  13   6 -1.4440 4.29092   3
  -9 -13  -6 2.81056 2.99221   1
  13  -9  -6 5.08564 3.22118   1
   6 -13  -9 2.71135 3.06948   1
 -13  -6  -9 3.00569 2.84935   1
  -6   9  13 6.04311 5.23779   3
  13   6  -9 1.69869 3.13852   2
   6  -9  13 0.99223 3.24553   2
  -6 -13   9 1.46281 3.12527   2
  13   9   6 3.06805 2.82538   2
  -6  13  -9 4.06607 4.51106   3
  13  -6   9 1.40474 2.90072   2
  13  -6  -9 3.67952 3.19707   1
   9 -13  -6 7.24323 3.82947   1
  -6  13   9 -0.1893 4.66330   3
   9  -6  13 6.02722 4.02720   2
  13   6   9 5.03182 2.93814   2
  -6  -9  13 1.15812 3.39405   2
   6  13  -9 3.03987 3.86461   3
 -13  -9  -6 3.58384 3.11868   1
  -6   9 -13 2.96775 3.65796   3
  13   9  -6 3.90161 3.57778   2
  -6 -13  -9 4.35170 3.62942   1
  -9  13  -6 4.33013 7.82182   3
  -9   6  13 4.41049 4.88438   3
 -10 -13  -1 28.6370 5.77355   1
 -13  10  -1 38.5429 4.80943   1
  -1  13 -10 33.5914 7.22224   3
  -1 -10 -13 25.2772 5.46775   1
 -10  -1  13 41.7477 6.64007   2
  -1 -13  10 41.4572 6.17188   2
  10 -13   1 29.1598 5.59297   1
   1 -13 -10 35.2792 6.06940   1
  13  10   1 45.7355 6.54200   2
 -13 -10   1 37.9661 6.02375   1
  10   1  13 42.5139 6.52453   2
  13  -1  10 27.0455 5.80906   2
  13 -10  -1 37.6299 6.25975   1
   1 -10  13 21.7986 5.00120   2
  10  -1 -13 35.9611 10.0704   3
  -1  10  13 31.6526 8.51752   3
  13   1 -10 25.8251 5.80594   2
   1  10 -13 27.1815 6.83096   3
  -1 -10  13 37.6483 6.52391   2
   1  10  13 47.5480 9.93163   3
  13  10  -1 33.0811 6.00245   2
  -1 -13 -10 27.6180 5.57423   1
  -1  10 -13 39.6890 8.11879   3
 -13 -10  -1 20.2255 4.88721   1
  10  -1  13 25.9391 5.58212   2
   1 -10 -13 37.9178 6.32513   1
   1  13 -10 27.6574 6.74183   3
   1 -13  10 25.8913 4.85263   2
  13   1  10 41.6569 6.73760   2
  13  -1 -10 35.7165 6.06107   2
  10 -13  -1 40.6256 6.63200   1
 -10 -13   1 31.0860 5.69878   1
  10 -13   3 20.5882 4.91988   1
   3 -10  13 22.0336 5.08589   2
 -13  -3 -10 15.3536 3.86905   1
  13  -3  10 16.2035 4.87054   2
   3 -13 -10 24.8076 5.20670   1
  -3 -10 -13 25.1818 5.36971   1
  10  -3 -13 29.7488 6.98941   3
  13  10   3 23.5923 4.61994   2
 -13 -10   3 29.1115 4.95212   1
  -3  10  13 25.1987 8.09657   3
  13   3 -10 15.4128 4.84463   2
  13 -10  -3 27.4445 5.51283   1
   3  10 -13 17.6575 5.57469   3
  -3 -13  10 32.1991 5.51040   2
 -10 -13  -3 19.7127 5.39427   1
  -3  13 -10 29.3480 6.96619   3
  10   3  13 29.8225 5.08274   2
 -13  10  -3 26.1816 4.38482   1
 -10  -3  13 27.7825 6.31748   2
   3  10  13 34.3493 8.32738   3
  -3 -10  13 27.0828 5.83818   2
  13   3  10 23.5994 4.91903   2
 -13 -10  -3 20.2872 5.00988   1
   3 -10 -13 24.6498 5.01005   1
  10  -3  13 15.7838 4.81087   2
  10 -13  -3 20.4141 4.89927   1
  -3 -13 -10 15.0121 4.65387   1
  -3  10 -13 25.9100 6.55020   3
   3  13 -10 14.6525 5.18215   3
  13  10  -3 21.4448 5.29802   2
   5 -10  13 66.0220 7.42858   2
  -5  10  13 71.2868 11.0797   3
 -10  -5  13 69.3829 9.61590   2
  -5 -10 -13 71.8306 8.04392   1
  -5 -13  10 64.5262 7.14175   2
  13   5 -10 59.0415 9.12588   2
 -10 -13  -5 63.7556 8.13807   1
  -5  13 -10 53.4247 8.78119   3
   5  10 -13 57.1362 8.18507   3
  10  13  -5 65.3022 7.63036   2
   5 -13 -10 44.9656 6.96168   1
  13 -10  -5 60.9210 7.66193   1
 -13  -5 -10 63.5622 7.00835   1
  13  -5  10 64.5801 8.68190   2
  13   5  10 52.7150 6.38311   2
  13  10  -5 71.5822 8.23067   2
  -5 -13 -10 63.7384 7.84512   1
   5 -10 -13 61.9585 7.39296   1
  -5  10 -13 55.0454 8.45507   3
  10 -13  -5 60.8686 7.74454   1
 -10   5  13 59.5896 9.99620   3
  13  -5 -10 70.0502 7.52375   1
  -5 -10  13 65.9953 8.20405   2
  10  -5  13 60.2452 8.72048   2
 -13 -10  -5 62.6482 7.58627   1
  11 -13   0 -0.3070 2.58624   1
   0  13 -11 2.44362 3.48610   3
   0 -11 -13 -0.7241 2.59080   1
 -11   0  13 2.12116 3.24439   2
 -13 -11   0 -1.2678 2.22470   1
 -11 -13   0 1.22986 2.92096   1
  11   0  13 1.09401 2.95398   2
  13  11   0 1.87961 2.70756   2
  13 -11   0 -0.0271 2.68211   1
   0  11 -13 -0.5594 3.25033   3
   0  11  13 1.38132 4.26521   3
   0 -13 -11 -0.3675 2.80539   1
   0 -11  13 -0.0444 2.97416   2
  13   0 -11 1.78210 2.83765   2
  13   0  11 1.38590 2.76944   2
   0 -13  11 0.57531 2.76225   2
   0  13  11 -0.8283 4.53395   3
   2 -13 -11 12.6774 4.12999   1
  13  -2  11 21.8295 5.30550   2
 -11 -13  -2 17.8078 4.99059   1
  -2  11  13 21.6580 7.52990   3
  -2 -11 -13 22.2343 5.08880   1
  11   2  13 13.5936 4.29344   2
  13 -11  -2 13.9256 4.43972   1
  11 -13   2 18.2450 4.68475   1
   2 -11  13 21.2577 4.99810   2
   2  13  11 0.96953 4.90142   3
 -13 -11   2 12.3049 3.85000   1
   2  11 -13 18.8368 6.00171   3
  13   2 -11 13.3905 4.69158   2
  -2 -13  11 13.1632 4.04399   2
 -11  -2  13 15.5400 4.86363   2
  13   2  11 11.6966 3.93245   2
   2 -13  11 21.2855 4.64772   2
  11 -13  -2 8.74069 3.91717   1
   2 -11 -13 11.7175 4.06861   1
  13  11  -2 17.7916 4.71872   2
 -13 -11  -2 13.5022 4.28826   1
  -2 -13 -11 18.0631 4.90681   1
  -2 -11  13 10.6642 4.32684   2
  11  -2  13 15.2717 4.87187   2
  13 -11   2 20.1285 4.76631   1
  -2  13  11 0.81788 4.72777   3
  -2  11 -13 12.6281 5.35452   3
   2  11  13 14.1939 6.29936   3
 -11 -13   2 13.2340 6.09431   1
 -14   0   0 976.011 42.4160   1
  14   0   0 920.683 44.8072   2
   0   0 -14 950.854 47.2914   3
   0 -14   0 980.444 44.2459   1
   0   0  14 1024.35 43.5529   2
  14  -1  -1 89.7996 8.07473   2
  14  -1   1 69.0773 7.45229   2
   1  -1  14 62.8511 6.87913   2
   1   1  14 89.0602 7.16734   2
  -1   1  14 70.2748 6.71715   2
   1  -1 -14 84.5550 9.84393   3
   1   1 -14 70.9943 8.94215   3
   1  14  -1 54.7273 10.7464   3
   1 -14   1 76.1916 7.47196   1
 -14   1  -1 88.3696 6.57684   1
 -14   1   1 74.2467 6.20522   1
  -1 -14  -1 67.0519 7.42414   1
  -1 -14   1 89.8506 7.97645   1
  14   1  -1 70.4759 7.64642   2
  14   1   1 86.6511 8.30062   2
  -1  14  -1 65.5561 10.8933   3
 -14  -1  -1 74.1573 6.27523   1
   1 -14  -1 86.4634 7.82339   1
  -1   1 -14 85.2731 9.44280   3
 -14  -1   1 95.9576 6.84952   1
  -1  -1  14 80.1309 7.47904   2
  -1  -1 -14 68.4832 9.08239   3
   0   2 -14 134.285 11.9714   3
   0 -14  -2 128.348 10.3621   1
 -14   0  -2 136.120 9.08584   1
   2   0  14 143.205 10.0094   2
  14  -2   0 147.625 10.6816   2
  14   2   0 140.852 11.2507   2
 -14  -2   0 143.223 9.28961   1
   0  -2 -14 143.873 13.4004   3
  -2   0  14 149.183 10.1750   2
 -14   0   2 139.719 9.05272   1
  -2 -14   0 151.711 10.8804   1
   2 -14   0 140.916 10.4102   1
 -14   2   0 141.248 9.02453   1
   0  -2  14 127.654 10.1284   2
   0   2  14 148.996 9.56139   2
  14   0  -2 128.457 10.5565   2
  14   0   2 131.580 10.8170   2
   2   0 -14 143.452 12.6922   3
   0 -14   2 148.708 10.5362   1
  -2   0 -14 133.523 12.2853   3
  14   2   2 404.507 21.1973   2
  -2  -2 -14 328.923 22.3043   3
   2  -2 -14 366.133 23.3180   3
   2   2 -14 333.496 21.3107   3
  -2  -2  14 355.116 19.3824   2
  -2   2  14 351.100 18.1802   2
  14  -2  -2 361.454 19.4687   2
   2   2  14 398.562 18.5601   2
   2 -14   2 326.420 18.8160   1
 -14  -2  -2 360.467 18.3210   1
 -14  -2   2 378.222 18.0990   1
 -14   2  -2 381.553 18.1337   1
 -14   2   2 340.132 17.7115   1
   2  -2  14 340.104 19.2723   2
  -2   2 -14 368.121 21.8976   3
  -2  14  -2 275.709 22.7182   3
  14   2  -2 312.651 19.9417   2
  14  -2   2 328.299 19.4543   2
  -2 -14   2 388.511 19.8268   1
   2 -14  -2 374.295 19.7778   1
  -2 -14  -2 349.375 19.8228   1
 -14   1   3 21.1668 3.75600   1
   1 -14  -3 26.9635 5.32395   1
   3  14  -1 19.7622 7.83582   3
  14  -1   3 18.3826 4.73851   2
  14   1  -3 25.3057 5.52749   2
   3  -1 -14 26.8030 6.60704   3
 -14  -1  -3 22.6396 4.06388   1
  -1  14  -3 29.0132 8.46890   3
  14  -3  -1 26.4884 4.84154   2
  -3 -14  -1 18.8009 4.79200   1
  -1  -3 -14 23.4171 6.85827   3
   3   1  14 24.2425 4.49776   2
   1  -3  14 16.0017 4.38243   2
  14   3   1 27.3105 5.72882   2
 -14  -3   1 21.4267 3.81120   1
 -14   3  -1 27.0993 4.13040   1
   1   3 -14 16.4332 5.07194   3
   3 -14   1 23.8593 4.72674   1
  -3   1 -14 24.2788 6.21551   3
  -3  -1  14 31.4932 5.60226   2
 -14  -3  -1 20.0882 4.03506   1
  14   3  -1 19.5390 4.90679   2
 -14  -1   3 29.7948 4.38044   1
 -14   1  -3 26.9142 4.12983   1
  14  -1  -3 29.6495 5.49337   2
 -14   3   1 19.5935 3.66564   1
  -1  -3  14 29.8703 5.57075   2
  -3  14  -1 7.20525 5.61713   3
   1   3  14 26.9912 4.27213   2
  -3   1  14 21.4339 4.20389   2
  -1   3 -14 25.7066 6.32878   3
   1  -3 -14 24.3190 7.11430   3
   1  14  -3 16.9412 6.75139   3
   3 -14  -1 21.4268 4.57235   1
  -3 -14   1 29.8730 5.37117   1
   3   1 -14 21.4717 5.91300   3
  14  -3   1 21.9909 4.60457   2
   3  -1  14 18.8034 4.35691   2
  -1 -14  -3 18.6299 4.75712   1
  -3  -1 -14 23.1699 6.47185   3
  14   1   3 25.9545 5.47273   2
  14   3  -3 7.45239 3.62661   2
 -14  -3  -3 6.96336 2.62774   1
  -3  -3  14 4.09867 3.23471   2
 -14  -3   3 6.22141 2.26751   1
   3   3  14 7.69925 2.66684   2
  14  -3  -3 4.17099 2.30145   2
  14  -3   3 6.32963 3.18301   2
  -3 -14  -3 11.8848 4.04126   1
   3  14   3 0.87037 4.47190   3
 -14   3  -3 6.29447 2.26445   1
  -3  14   3 0.33863 4.71317   3
   3   3 -14 4.39893 3.37263   3
   3  14  -3 7.52089 6.63727   3
   3  -3  14 7.16588 3.52157   2
  -3  14  -3 4.05710 5.54964   3
  -3   3 -14 4.90765 3.62413   3
  14   3   3 6.71361 3.40402   2
   3 -14  -3 6.86568 3.13057   1
 -14   3   3 8.60986 2.48114   1
  -3  -3 -14 8.41136 4.67952   3
   0   4  14 84.6552 10.5301   3
 -14  -4   0 82.6583 6.89362   1
   0 -14  -4 85.4727 8.18862   1
   0   4 -14 73.6937 8.83146   3
   0  -4  14 91.8220 8.52259   2
   4   0  14 92.8981 7.83033   2
  14   0   4 77.2305 8.11654   2
  14   0  -4 86.6694 8.31378   2
 -14   0  -4 83.6214 6.69964   1
 -14   4   0 79.3295 6.44173   1
  14  -4   0 83.9558 7.31875   2
   0  14  -4 77.2946 9.97832   3
   4   0 -14 80.1331 9.48666   3
  -4   0 -14 80.4477 9.20424   3
 -14   0   4 80.0810 6.41077   1
  -4 -14   0 83.0873 8.24518   1
   4 -14   0 84.2797 7.96738   1
  14   4   0 79.6742 8.29422   2
  -4   0  14 103.919 8.29940   2
  14   2  -4 156.464 11.9758   2
  -2  14  -4 134.638 13.6271   3
  -2   4  14 139.139 14.1869   3
   2  -4  14 148.200 11.2178   2
  14  -4  -2 138.206 9.85422   2
  14  -2   4 140.459 11.1586   2
  -4   2 -14 134.222 11.9071   3
 -14  -2  -4 154.609 10.0019   1
  -4  -2  14 144.293 10.9884   2
 -14   4  -2 150.971 9.53362   1
   4   2  14 149.803 9.90091   2
  14   4   2 162.367 11.7763   2
   2   4 -14 146.469 12.3813   3
  -2  -4 -14 159.459 14.7224   3
 -14  -4   2 147.246 9.59779   1
   2 -14  -4 149.224 11.0798   1
   4 -14   2 158.571 10.8870   1
   4  -2 -14 134.227 13.1383   3
 -14   2   4 163.126 9.62265   1
  -4 -14  -2 146.778 11.3152   1
  14  -4   2 156.031 10.7621   2
  -4   2  14 153.678 10.1874   2
  -4 -14   2 145.059 10.6925   1
   4  -2  14 147.102 10.8680   2
  14  -2  -4 141.896 10.3950   2
  -2   4 -14 129.660 11.9249   3
   2  14  -4 163.018 13.7825   3
 -14  -2   4 150.977 9.45670   1
  -2 -14  -4 144.915 11.2326   1
 -14  -4  -2 150.313 9.98790   1
   4 -14  -2 130.954 10.6166   1
  -2  -4  14 142.933 11.1678   2
  14   2   4 145.761 11.3786   2
 -14   4   2 153.757 9.56244   1
  -4  -2 -14 154.850 13.3335   3
 -14   2  -4 142.430 9.47915   1
  14   4  -2 159.986 12.2519   2
   4   2 -14 140.499 12.2013   3
 -14  -4  -4 164.874 11.1615   1
   4   4 -14 165.401 13.3462   3
   4  14  -4 192.502 15.3750   3
 -14   4   4 151.637 10.2580   1
  -4   4 -14 172.671 13.5780   3
  -4   4  14 171.786 16.0921   3
  14   4  -4 152.498 12.7029   2
  14   4   4 193.819 12.9224   2
  -4  14  -4 170.877 16.0746   3
  -4  -4 -14 172.114 15.0976   3
 -14  -4   4 179.473 10.6050   1
  14  -4  -4 177.418 11.1311   2
 -14   4  -4 182.009 10.7707   1
  14  -4   4 180.367 12.1554   2
  -4 -14  -4 165.108 12.4432   1
  -4  -4  14 182.984 12.9249   2
   4  -4  14 173.547 12.4146   2
   4 -14  -4 183.100 12.5273   1
  14   5   1 156.630 11.9836   2
 -14   5  -1 162.537 10.0529   1
  -5   1 -14 152.415 12.6327   3
  -1  14  -5 146.903 13.3903   3
  14  -1   5 145.772 11.6422   2
   5 -14   1 169.193 11.5117   1
  14  -5  -1 158.459 10.2673   2
 -14  -1  -5 165.179 10.4016   1
 -14  -5   1 143.089 10.0093   1
   1   5 -14 163.474 13.1641   3
  -1   5  14 194.820 16.3166   3
   5  -1 -14 143.570 13.1651   3
   5   1  14 161.907 10.8226   2
 -14   1   5 169.657 9.94378   1
  -5  -1  14 156.493 11.4276   2
  -5 -14  -1 167.552 11.9546   1
  14   1  -5 155.229 11.9666   2
   1 -14  -5 140.277 11.0625   1
   1  -5  14 164.127 12.0000   2
  -1 -14  -5 169.405 11.9859   1
  14  -5   1 178.651 11.0063   2
  -1  -5  14 142.905 11.4875   2
   5  -1  14 154.508 11.2692   2
   1   5  14 153.034 14.8883   3
  14  -1  -5 150.403 11.3657   2
  -1   5 -14 144.949 12.6436   3
 -14  -5  -1 168.967 10.7417   1
 -14  -1   5 159.105 9.72638   1
 -14   1  -5 147.430 9.88323   1
  -5 -14   1 167.420 11.7560   1
   1  14  -5 157.828 13.5353   3
   5 -14  -1 144.612 11.1889   1
  14   5  -1 177.396 12.6668   2
   5   1 -14 148.729 12.8985   3
  -5   1  14 183.220 11.2379   2
  14   1   5 151.755 11.8131   2
  -5  -1 -14 155.218 12.9838   3
 -14   5   1 158.203 9.95311   1
   3 -14  -5 9.27636 3.63201   1
   5  14  -3 4.36923 6.33588   3
   3  -5  14 9.86443 4.15417   2
  -5  14   3 1.34525 4.93646   3
  -3   5  14 8.02979 5.17154   3
  -5 -14  -3 8.71766 3.74318   1
  14  -3   5 7.73715 3.50029   2
   5   3  14 8.94537 3.07523   2
  -5   3 -14 7.88779 3.91363   3
 -14  -5   3 5.15843 2.24086   1
   5  -3 -14 7.38591 4.57809   3
  -5  -3  14 6.88196 3.79635   2
  14   5   3 9.97456 3.54430   2
   3  14   5 -1.3963 4.14848   3
 -14  -3  -5 5.13681 2.43252   1
  -3  14  -5 9.85576 5.73261   3
  14   3  -5 5.41912 3.33241   2
   3   5 -14 8.16122 4.26101   3
 -14   5  -3 5.55325 2.24354   1
 -14   3   5 4.68404 2.11350   1
   5  14   3 -1.1580 4.24869   3
  -5  -3 -14 7.73315 4.59814   3
   5  -3  14 6.70049 3.62464   2
 -14  -3   5 8.82400 2.60713   1
  -3  14   5 -1.1581 4.77791   3
   3  14  -5 9.46433 5.02220   3
  14  -3  -5 7.64505 2.88523   2
  -3 -14  -5 6.21295 3.45613   1
  -3   5 -14 9.23533 4.38276   3
  -3  -5  14 7.98573 3.85333   2
  -5  14  -3 5.30239 5.93237   3
 -14   3  -5 9.27462 2.69377   1
  14  -5   3 6.58412 2.89841   2
   5   3 -14 4.19296 3.34535   3
 -14   5   3 6.54571 2.33467   1
 -14  -5  -3 4.70538 2.46828   1
  14   5  -3 11.5165 4.24678   2
   5 -14  -3 7.11428 3.39732   1
  14   3   5 6.00158 3.38103   2
   3   5  14 5.98315 4.51564   3
  -5   5 -14 414.022 24.8206   3
  -5   5  14 448.308 29.2771   3
 -14   5  -5 502.124 22.2080   1
 -14   5   5 449.810 22.0322   1
  -5  -5 -14 408.984 26.7769   3
   5  14  -5 470.102 26.3461   3
   5  -5  14 448.117 24.3261   2
 -14  -5   5 444.599 21.6805   1
  14   5  -5 452.188 25.4061   2
  14   5   5 485.393 24.0824   2
 -14  -5  -5 418.050 22.7153   1
  -5 -14  -5 472.791 24.7698   1
  -5  14  -5 445.809 28.1956   3
   5   5 -14 434.031 25.2230   3
  14  -5   5 424.806 23.1138   2
   5 -14  -5 478.423 24.3807   1
  -5  -5  14 461.569 24.7774   2
   0 -14  -6 12.8950 4.07057   1
  14   0   6 11.7204 3.99611   2
  -6   0  14 16.0818 4.55622   2
   0  14  -6 13.8589 5.40654   3
   0  -6  14 14.6281 4.69152   2
  14   0  -6 17.2647 4.38307   2
 -14   0   6 13.6025 3.10397   1
   0   6 -14 19.0556 5.76305   3
 -14   0  -6 12.1180 3.17469   1
  14   6   0 19.6000 4.81933   2
   6   0 -14 30.0687 6.94841   3
   0   6  14 17.9824 6.85828   3
 -14  -6   0 14.1731 3.63930   1
 -14   6   0 13.3688 3.17048   1
  -6   0 -14 16.8374 5.17731   3
   6   0  14 13.0010 3.98106   2
  14  -6   0 11.4673 3.01184   2
   6 -14   0 16.5422 4.34379   1
  -6 -14   0 17.5068 4.52295   1
  -2   6  14 220.728 18.7656   3
   6   2  14 220.797 13.0354   2
 -14   6  -2 210.885 12.3778   1
  -6 -14  -2 261.325 15.5521   1
 -14  -6   2 201.314 12.4726   1
   6  14  -2 172.702 16.5642   3
   2 -14  -6 182.847 13.4851   1
 -14   2   6 237.794 12.5179   1
   6  -2 -14 187.057 15.8896   3
   2   6 -14 226.410 15.8958   3
 -14  -2  -6 245.608 13.2795   1
   2  -6  14 246.611 15.1877   2
  14   6   2 207.910 14.1228   2
  14   2  -6 237.059 15.4762   2
   6 -14   2 234.623 14.0514   1
  -2  14  -6 181.272 15.6041   3
  -6  -2  14 184.999 13.8407   2
  14  -2   6 233.932 14.9864   2
  -6   2 -14 175.653 14.2215   3
  -6  -2 -14 232.873 16.1078   3
 -14   2  -6 205.052 12.2919   1
  14   2   6 212.801 14.3285   2
   6 -14  -2 182.865 13.5589   1
   6  -2  14 241.566 14.7170   2
  14   6  -2 251.239 15.7320   2
  -2  -6  14 197.344 14.2778   2
  -6 -14   2 202.557 13.6299   1
 -14  -6  -2 242.366 13.7329   1
  -2 -14  -6 233.102 14.5531   1
   6   2 -14 238.642 15.9778   3
   2   6  14 213.306 17.6491   3
  14  -6   2 228.924 13.0222   2
  14  -2  -6 203.037 13.4532   2
 -14  -2   6 204.580 11.8755   1
   2  14  -6 242.763 16.5463   3
  -2   6 -14 197.401 15.2639   3
   4   6 -14 7.19582 4.01272   3
  -4  14  -6 6.61773 5.22881   3
 -14  -4  -6 7.81034 3.02850   1
  14   6   4 10.0388 3.71855   2
  -6  -4  14 6.95827 3.83059   2
 -14  -6   4 8.13568 2.65246   1
   6   4  14 10.2007 3.24496   2
 -14   6  -4 9.19651 2.71795   1
   4  14   6 -1.0154 3.96274   3
   4  -6  14 8.46974 4.17574   2
  14   4  -6 7.66190 3.75278   2
  -6  14   4 -0.8952 4.71749   3
  14  -4   6 3.48174 2.72315   2
  -4   6  14 6.36439 5.15849   3
   4 -14  -6 11.0280 3.95899   1
  -6 -14  -4 9.32463 4.08543   1
 -14   4   6 5.61418 2.28956   1
  -6   4 -14 7.38357 3.95782   3
   6  14  -4 7.41220 6.90003   3
 -14  -4   6 7.89843 2.43691   1
  -4  14   6 0.34992 4.20080   3
  -6  14  -4 7.98517 6.46455   3
  -4  -6  14 7.72882 3.92107   2
   4   6  14 6.07170 4.84732   3
  -4   6 -14 11.4911 4.75278   3
  14   6  -4 5.24021 3.44901   2
 -14   4  -6 9.57482 2.80576   1
 -14   6   4 4.22097 2.12691   1
  14  -6   4 7.11415 2.84594   2
  14   4   6 9.82634 3.65432   2
  -4 -14  -6 5.00372 3.29329   1
  -6   4  14 7.50816 5.21787   3
   4  14  -6 7.99147 4.76605   3
   6   4 -14 6.82319 3.79786   3
   6  -4  14 6.18943 3.83229   2
 -14  -6  -4 8.43161 3.04559   1
   6 -14  -4 4.97891 3.16473   1
 -14   6   6 69.7450 6.49535   1
 -14  -6  -6 63.6329 7.20072   1
   6  14  -6 72.7039 9.85199   3
  -6 -14  -6 67.7616 8.16869   1
   6   6 -14 69.4280 8.65538   3
  14  -6   6 81.2034 7.71279   2
   6  -6  14 72.3939 8.45452   2
  14   6  -6 68.9839 8.50604   2
   6 -14  -6 106.440 9.20157   1
  14   6   6 106.634 8.51664   2
  -6  -6  14 103.156 9.97032   2
  -6   6 -14 92.5891 9.57709   3
  -6   6  14 68.2477 11.1598   3
  -6  14  -6 100.827 12.4028   3
   1   7 -14 0.85597 2.97662   3
  -7  14   1 0.29545 4.83575   3
  -1  14  -7 0.86031 3.39861   3
   1 -14  -7 2.24505 2.85333   1
 -14  -1  -7 3.39884 2.27372   1
   1  14   7 -1.0416 3.93916   3
  -1   7  14 2.32094 4.61931   3
 -14  -7   1 3.69700 2.28571   1
   7 -14   1 4.29487 2.92324   1
  14   7   1 1.97520 2.59908   2
  -7  -1  14 1.69654 3.57854   2
  14  -1   7 0.64325 2.56614   2
  -7 -14  -1 3.25236 3.11916   1
   7   1  14 1.47420 2.45835   2
 -14   1   7 3.29745 1.83291   1
  14   1  -7 1.01204 2.41541   2
   1  -7  14 4.54743 3.23395   2
 -14   7  -1 1.73201 1.82549   1
   7  -1 -14 4.42649 3.70450   3
  -1  -7  14 1.62354 3.12712   2
  14   7  -1 1.60608 2.80914   2
  -7 -14   1 1.21366 2.41201   1
   1  14  -7 3.64923 3.81811   3
  -1   7 -14 1.42089 3.07607   3
 -14   7   1 2.24784 1.88566   1
   7   1 -14 3.84368 3.59472   3
 -14   1  -7 1.49543 1.91345   1
  -7  14  -1 -0.3965 4.11984   3
  -1  14   7 -0.0928 4.23079   3
  -1 -14  -7 3.26704 3.05349   1
 -14  -1   7 2.10088 1.76057   1
   7 -14  -1 1.09567 2.52870   1
  -7   1  14 4.93772 3.04856   2
   7  -1  14 3.74493 2.89250   2
   1   7  14 3.18778 4.42540   3
  14  -1  -7 4.37127 2.60528   2
  14   1   7 4.40249 3.00100   2
 -14  -7  -1 1.81675 2.14763   1
  -7   3 -14 2.29574 3.33674   3
  14   7   3 -0.1403 2.26791   2
 -14   7  -3 0.61360 1.66524   1
  14   3  -7 4.06031 3.07123   2
 -14  -7   3 3.13607 2.20942   1
 -14   3   7 4.48157 2.09467   1
  -7 -14  -3 5.23955 3.35409   1
 -14  -3  -7 2.42023 2.19374   1
  14  -3   7 0.32862 2.39906   2
   3  -7  14 7.11339 3.85265   2
  -3  14  -7 2.74521 3.81312   3
  -3   7  14 4.18268 5.32282   3
   7   3  14 2.39419 2.25337   2
   3  14   7 1.02147 4.01007   3
   3 -14  -7 2.60228 2.85084   1
   7  -3 -14 -0.0266 3.34228   3
  -7  14   3 1.68151 5.04097   3
   3   7 -14 5.38164 3.80371   3
  -7  -3  14 0.28711 2.99197   2
 -14   7   3 2.40470 1.92675   1
   7 -14  -3 -0.1733 2.42866   1
  -3  -7  14 1.29732 3.31031   2
 -14  -3   7 0.13215 1.73125   1
  -7  14  -3 0.90915 4.97028   3
  -3   7 -14 1.91296 3.39336   3
   3  14  -7 4.45308 4.04119   3
   7   3 -14 4.86684 3.53856   3
  14   3   7 1.23226 2.48203   2
   3   7  14 1.33233 4.17421   3
  -3 -14  -7 4.11825 3.22409   1
  14   7  -3 4.01620 3.18185   2
 -14   3  -7 -0.2436 1.52046   1
   7  -3  14 1.14081 2.99538   2
 -14  -7  -3 4.10091 2.60127   1
  -3  14   7 0.96185 4.48701   3
  14  -7   3 3.54274 2.29996   2
  -7   5 -14 9.28720 4.32162   3
  -5   7  14 11.9455 6.94384   3
 -14  -7   5 7.53076 3.80765   1
  14   5  -7 9.93970 4.14298   2
   5  14   7 -1.9162 4.13524   3
  -5  14  -7 10.4843 6.07762   3
   5   7 -14 11.5880 4.83716   3
  -7 -14  -5 9.86632 4.19563   1
   5  -7  14 6.30731 3.97369   2
  14  -5   7 9.85002 3.90159   2
  -7  14   5 -0.1624 4.34248   3
   5 -14  -7 8.01230 3.51161   1
 -14   5   7 5.68700 2.35982   1
 -14  -5  -7 5.97110 2.70735   1
  -7  -5  14 8.51098 4.35126   2
  14   7   5 9.08329 3.52223   2
 -14   7  -5 5.46569 2.44695   1
 -14   7   5 7.37822 2.70871   1
   7  -5  14 9.44193 4.31265   2
  -5  14   7 1.00765 4.37785   3
   5  14  -7 8.97008 4.98843   3
  -7   5  14 7.09074 5.55433   3
 -14   5  -7 6.77942 2.57135   1
  -5 -14  -7 10.1804 3.99915   1
   5   7  14 6.20307 4.94947   3
   7 -14  -5 6.91183 3.76719   1
   7   5 -14 9.76228 4.39869   3
  -5   7 -14 7.90068 4.28359   3
 -14  -7  -5 8.03647 3.37559   1
  14  -7   5 13.6601 3.68018   2
  14   7  -5 7.03406 3.86731   2
  -5  -7  14 4.79804 3.68615   2
  -7  14  -5 5.97578 5.77623   3
  14   5   7 7.06466 3.34491   2
  -7  14  -7 14.0236 7.23870   3
   7  -7  14 9.00906 4.21015   2
  -7   7  14 11.4581 6.91848   3
   7   7 -14 11.7530 4.77153   3
  -7 -14  -7 13.4629 4.44007   1
 -14  -7  -7 7.41438 3.54870   1
  -7   7 -14 13.8306 5.11647   3
  14  -7  -7 17.3067 4.77862   1
  14   7   7 12.6428 3.78936   2
  14   7  -7 11.5110 4.50005   2
  14  -7   7 10.3062 3.63835   2
   7 -14  -7 14.3735 4.56855   1
  -7  -7  14 13.5317 5.50290   2
  -7  14   7 2.20077 5.03917   3
 -14  -8   0 24.5126 4.80483   1
   8 -14   0 21.1722 4.88528   1
  -8   0  14 26.4652 5.46031   2
   0   8 -14 21.6853 6.19172   3
   0 -14  -8 23.4479 5.32871   1
   0  -8  14 26.1089 5.53553   2
  14   0  -8 21.7932 4.92874   2
 -14   8   0 20.7661 4.00909   1
   8   0  14 30.1854 5.68326   2
 -14   0  -8 23.7086 4.21572   1
  14   0   8 24.4203 5.39932   2
 -14   0   8 25.0621 4.03676   1
   0  14  -8 30.7278 7.33689   3
   8   0 -14 28.3884 6.78662   3
  14   8   0 28.5359 5.71952   2
  -8 -14   0 21.3542 5.11960   1
   0   8  14 26.1835 8.83307   3
   8   2  14 130.900 9.42123   2
  14  -2   8 110.819 10.2047   2
 -14   8  -2 134.254 8.93448   1
  -2   8  14 89.3976 13.1921   3
   2  -8  14 113.872 10.3129   2
  -8  -2  14 133.965 10.8028   2
   8 -14   2 115.674 9.64589   1
  14   2  -8 99.5398 10.0423   2
  -2  14  -8 124.239 12.0328   3
 -14  -2  -8 115.381 8.85085   1
   2 -14  -8 121.527 9.98333   1
  14   8   2 135.243 10.2142   2
 -14  -8   2 128.786 9.18089   1
   2   8 -14 116.539 11.3517   3
 -14   2   8 121.165 8.36482   1
   8  -2 -14 130.071 12.2485   3
  -8 -14  -2 114.060 10.4384   1
  -2   8 -14 125.239 11.6698   3
  14  -2  -8 131.076 9.83546   2
 -14   2  -8 126.335 8.60419   1
   8  -2  14 122.664 10.2582   2
 -14   8   2 117.186 8.58201   1
   2  14  -8 105.923 11.2518   3
  -2  -8  14 122.527 10.6661   2
 -14  -8  -2 117.934 9.61697   1
  14   8  -2 114.718 10.4512   2
  -2 -14  -8 115.839 10.0185   1
   2   8  14 128.226 13.9574   3
   8   2 -14 105.960 10.5660   3
   8 -14  -2 130.665 10.5223   1
  14   2   8 136.682 10.7106   2
  -8 -14   2 105.335 12.7502   1
   4   8 -14 44.4331 7.26157   3
  14   4  -8 34.9864 7.04175   2
  14  -4   8 50.6009 7.72221   2
 -14   8  -4 42.4346 5.03328   1
  -4  14  -8 44.6380 9.09453   3
   8  -4 -14 45.1294 9.39391   3
 -14   4   8 47.1805 5.10997   1
  14   8   4 44.2223 6.52578   2
   4 -14  -8 39.2053 6.46997   1
   8   4  14 40.7225 5.61127   2
 -14  -4  -8 50.2761 5.97344   1
   4  -8  14 48.6148 7.37427   2
  -8 -14  -4 45.8112 7.46354   1
  -8  -4  14 41.7068 7.23536   2
 -14  -8   4 41.5578 5.12771   1
  -4   8  14 44.3076 11.2431   3
  14   4   8 44.4998 6.63820   2
  14   8  -4 61.5897 8.77343   2
   8   4 -14 49.9604 7.19371   3
   4  14  -8 49.1567 8.05991   3
  -4   8 -14 43.7633 8.33984   3
 -14   8   4 52.5940 5.50304   1
 -14  -8  -4 55.4599 7.76648   1
  -4  -8  14 43.6433 7.47409   2
   8  -4  14 46.4362 7.57026   2
   4   8  14 47.7435 9.96029   3
   8 -14  -4 46.3161 7.50210   1
  -4 -14  -8 55.1297 7.93582   1
  -8   6  14 36.9671 9.62865   3
  -9 -14  -1 45.8624 7.69484   1
   1   9 -14 56.0839 8.27492   3
  -9  -1  14 87.4500 8.67609   2
   1  -9  14 55.6784 7.92752   2
   9  -1 -14 70.0227 8.75806   3
  -1   9  14 61.4633 10.5804   3
  -1  14  -9 62.1618 8.96562   3
   1 -14  -9 60.2657 7.33315   1
  14  -1   9 61.6920 7.73148   2
   9 -14   1 64.2970 7.38863   1
  14   9   1 71.5844 7.51509   2
  14   1  -9 60.9773 7.56760   2
 -14   9  -1 75.3697 6.46235   1
   9   1  14 73.6546 7.46957   2
 -14  -1  -9 61.5919 6.09632   1
 -14  -9   1 72.2228 7.10215   1
 -14  -9  -1 62.5030 7.09077   1
  -1 -14  -9 60.1001 7.28474   1
  14   9  -1 65.1486 7.57274   2
   1  14  -9 57.2123 8.55115   3
   1   9  14 74.1474 11.7006   3
   9 -14  -1 74.2879 7.95312   1
  -1  -9  14 79.7840 8.46655   2
   9  -1  14 67.6609 7.66690   2
 -14   9   1 57.9638 5.94526   1
  -1   9 -14 65.7929 8.82909   3
  14  -1  -9 74.0471 7.56043   2
  14   1   9 67.4167 7.77320   2
   9   1 -14 63.7808 8.11193   3
  -9 -14   1 68.2293 7.64996   1
  -3   9  14 27.5380 8.86538   3
   3  -9  14 32.6593 6.27046   2
  14  -3   9 31.9309 6.23928   2
  14   3  -9 32.4799 6.70665   2
 -14  -9   3 29.5787 4.96189   1
   3   9 -14 35.5132 7.70732   3
   9   3  14 29.3262 5.10290   2
  -9 -14  -3 29.3547 6.12145   1
  14   9   3 29.2242 5.40135   2
 -14  -3  -9 35.9060 5.57623   1
 -14   3   9 34.0681 4.88998   1
  -3  14  -9 35.6818 8.34922   3
  -9  -3  14 31.1823 6.80314   2
   3 -14  -9 21.5821 5.08485   1
 -14   9  -3 28.6041 4.74998   1
   9  -3 -14 27.2334 6.98762   3
  -3  -9  14 24.3677 5.83832   2
  -3   9 -14 36.5078 7.89106   3
   9   3 -14 37.7548 7.18738   3
   3  14  -9 37.1430 8.03015   3
  14   9  -3 32.7624 6.44232   2
   9 -14  -3 26.5764 5.59046   1
  -3 -14  -9 34.4527 6.16829   1
   9  -3  14 31.2761 6.21680   2
 -14   9   3 31.9610 4.91349   1
 -14  -9  -3 24.9551 5.36812   1
  14   3   9 26.2438 5.41122   2
   3   9  14 40.8196 9.74702   3
   0  14  10 0.86306 4.95456   3
  15   1   0 59.5229 8.48738   2
  15  -1   0 63.3711 7.19084   2
   1   0  15 73.2246 7.17291   2
  -1   0  15 72.4299 7.06228   2
   0   1  15 66.2078 6.46925   2
 -15   0  -1 60.0074 5.75333   1
 -15   0   1 65.8133 5.98281   1
  -1 -15   0 61.1573 7.22598   1
   1 -15   0 63.4970 7.21226   1
   0 -15  -1 67.2568 7.39523   1
   0 -15   1 60.8222 7.02087   1
 -15  -1   0 60.8870 5.82662   1
   0  -1 -15 72.7723 9.64377   3
   0   1 -15 64.1203 8.77557   3
   0  -1  15 68.6878 7.00946   2
  15   0  -1 58.0202 7.02397   2
  15   0   1 61.6774 7.28115   2
   1   0 -15 63.9841 8.97462   3
  -1   0 -15 63.4259 9.02676   3
 -15   1   0 60.4988 5.74892   1
   1  -2  15 42.7539 6.69780   2
  15   1  -2 42.2909 6.98851   2
   1   2 -15 42.7552 7.29211   3
  -1   2  15 42.3012 5.22054   2
  15   2   1 37.6249 6.63834   2
  -1 -15   2 38.3510 6.43800   1
   1 -15  -2 34.2391 6.05556   1
   2 -15   1 48.8357 6.96282   1
  15  -2  -1 51.0419 7.00863   2
 -15  -2   1 36.0856 4.60120   1
  15  -1   2 37.1591 6.57858   2
  -2   1 -15 39.1634 8.06278   3
 -15  -1  -2 43.7047 4.90876   1
  -2  -1  15 37.4958 6.10386   2
 -15   2  -1 33.6455 4.36810   1
 -15   1   2 44.9657 4.75597   1
  -2 -15  -1 40.1472 6.60063   1
  -1  -2 -15 42.8641 9.03056   3
   2   1  15 34.9748 5.45727   2
   2  -1 -15 39.4093 8.61066   3
 -15  -2  -1 40.3370 4.87004   1
 -15   2   1 44.7286 4.78135   1
  -1  -2  15 39.9607 6.30242   2
   2 -15  -1 36.7488 6.24082   1
  -2  -1 -15 43.6191 9.03215   3
   1   2  15 31.8126 5.02404   2
  15  -1  -2 33.1379 5.87987   2
   1 -15   2 48.6220 6.17115   1
  -2   1  15 46.6947 5.75265   2
  -2 -15   1 39.5473 6.42056   1
   2  -1  15 45.0015 6.62196   2
  -1   2 -15 32.7761 7.22434   3
   1  -2 -15 31.9387 8.06054   3
  15   1   2 34.2668 6.51508   2
   2   1 -15 43.0111 7.39785   3
  15   2  -1 38.0760 6.72486   2
  -1 -15  -2 41.1500 6.57226   1
 -15  -1   2 34.5021 4.46965   1
  15  -2   1 54.9475 7.56199   2
 -15   1  -2 39.5438 4.69421   1
  15   0  -3 7.73411 3.25640   2
  15   0   3 2.46547 2.54846   2
  -3   0 -15 4.84810 4.02556   3
   3  15   0 0.21555 4.45016   3
   0  15  -3 0.25814 5.23458   3
 -15  -3   0 3.86015 2.11925   1
 -15   3   0 2.89233 1.91840   1
   0 -15  -3 3.81258 3.07096   1
   3 -15   0 3.49423 2.84459   1
  15   3   0 5.05942 3.08214   2
 -15   0   3 2.73840 1.89070   1
  -3 -15   0 7.19005 3.54674   1
   3   0  15 3.14293 2.91672   2
  -3  15   0 -2.1511 4.17199   3
   0  -3 -15 4.48504 4.52093   3
   0   3 -15 6.64976 4.21544   3
 -15   0  -3 3.34564 2.10256   1
   0  15   3 1.49930 4.83999   3
  -3   0  15 5.29824 3.00884   2
   0  -3  15 3.40526 2.81103   2
   3   0 -15 3.31152 3.63188   3
  15  -3   0 4.12868 2.62891   2
 -15  -2  -3 26.1305 4.45664   1
  -2  -3 -15 29.0109 7.81472   3
   3 -15   2 34.9479 5.74826   1
  15  -3  -2 25.9964 5.01957   2
   2  -3  15 27.2411 5.44182   2
  15   3   2 30.0377 6.05778   2
 -15   3  -2 19.2710 3.77995   1
   3  15  -2 15.2803 7.47613   3
  -2  15  -3 14.0507 7.05774   3
  -3   2 -15 22.4874 6.42407   3
 -15  -3   2 21.8586 4.06582   1
  -3  -2  15 18.5299 4.70834   2
   3   2  15 19.4621 4.11177   2
   3  -2 -15 25.2516 7.38211   3
   2   3 -15 30.4590 7.25991   3
  -3 -15  -2 27.8571 5.61410   1
  15   2  -3 33.9633 6.42892   2
 -15   2   3 29.6620 4.40140   1
  15  -2   3 33.0260 5.99399   2
   2 -15  -3 26.4530 5.44016   1
  -2   3 -15 18.7957 5.80618   3
   3   2 -15 24.4156 6.49265   3
   3 -15  -2 22.6517 4.92588   1
  -3  -2 -15 26.7174 7.05173   3
  -3  15  -2 6.94367 5.93342   3
  -2  -3  15 22.1134 5.32420   2
  15  -3   2 31.2721 5.58107   2
 -15  -3  -2 24.1173 4.37736   1
   2  15  -3 15.0779 7.30751   3
  15   3  -2 21.9143 5.26678   2
 -15  -2   3 22.8610 4.13236   1
  15   2   3 21.1044 5.06234   2
   2  -3 -15 23.1494 7.21152   3
 -15   2  -3 21.9231 4.12102   1
 -15   3   2 32.3346 4.65537   1
   3  -2  15 27.6431 5.62027   2
  -2 -15  -3 28.4542 5.89016   1
  15  -2  -3 27.4714 5.20413   2
 -15   4  -1 71.4991 6.04818   1
   1  -4  15 50.9417 7.63952   2
  -4  -1  15 72.1224 7.57719   2
 -15  -4   1 76.1732 6.44438   1
  15   1  -4 61.1371 7.29885   2
  -4   1 -15 67.3768 8.75822   3
  15  -1   4 57.7825 8.43273   2
   1 -15  -4 67.6435 7.58756   1
  -1  -4 -15 47.7846 10.1837   3
  -4 -15  -1 47.7275 7.57952   1
   4  -1 -15 70.0418 9.46056   3
 -15   1   4 52.4423 5.39793   1
   4 -15   1 58.1644 6.80935   1
   1   4 -15 49.6025 7.83614   3
  15   4   1 81.2593 8.31090   2
 -15  -1  -4 50.6328 5.60022   1
  -1  15  -4 80.5390 11.4986   3
  15  -4  -1 74.1838 6.68412   2
   4   1  15 73.3265 6.91751   2
  -4  -1 -15 52.2143 8.35533   3
  -1 -15  -4 54.1961 7.85808   1
  -1  -4  15 72.3527 7.86585   2
  15   4  -1 50.5835 8.11297   2
  -1   4 -15 73.8822 8.98822   3
  -4   1  15 57.2232 6.70930   2
   4   1 -15 53.1593 8.12686   3
 -15  -4  -1 49.7532 5.79375   1
  15   1   4 75.5576 8.00455   2
 -15   1  -4 76.7336 6.28596   1
  -4 -15   1 82.6926 7.91998   1
   4 -15  -1 72.2747 7.40626   1
 -15  -1   4 76.5874 6.13521   1
   1  15  -4 54.8289 10.5058   3
 -15   4   1 51.7222 5.44404   1
   1  -4 -15 79.8502 11.2241   3
  15  -4   1 53.4701 6.22956   2
  15  -1  -4 71.7243 7.24412   2
   4  -1  15 51.5222 6.52630   2
   4   3  15 51.0714 5.51166   2
  15   4   3 49.3498 7.70714   2
  -4  -3  15 59.9104 7.30772   2
  15  -4  -3 49.7282 5.56026   2
  -3  -4 -15 43.8271 9.64563   3
 -15  -4   3 47.1476 5.14958   1
 -15  -3  -4 40.2009 5.21926   1
   4  -3 -15 51.1916 8.82792   3
  -3  15  -4 36.3441 9.71466   3
  15  -3   4 50.1798 7.39551   2
  15   3  -4 46.2329 7.82015   2
  -4 -15  -3 50.8342 7.59261   1
  -4   3 -15 50.5617 7.68448   3
 -15   3   4 46.8342 5.00167   1
 -15   4  -3 54.8728 5.32868   1
   3  -4  15 48.9051 7.48467   2
   3   4 -15 49.3057 7.49796   3
   3 -15  -4 50.8011 7.49084   1
  -3   4 -15 41.2353 7.22837   3
  15  -3  -4 48.1079 5.74148   2
  15   4  -3 47.5587 7.90559   2
 -15  -3   4 45.3409 5.01555   1
 -15   3  -4 48.9143 5.16035   1
  -3  -4  15 44.9025 7.14190   2
  -4  -3 -15 49.9806 8.61257   3
  15   3   4 56.9384 8.19043   2
  15  -4   3 49.9507 7.07879   2
  -3 -15  -4 43.4522 7.09627   1
   4   3 -15 47.8972 7.44964   3
   4  -3  15 53.7462 7.75030   2
   3  15  -4 36.6449 7.92310   3
   4 -15  -3 55.0628 6.76385   1
 -15   4   3 47.0842 5.08177   1
 -15  -4  -3 44.9595 5.55261   1
   0  -5  15 272.862 16.9558   2
 -15  -5   0 276.497 15.2692   1
  -5 -15   0 274.084 16.6514   1
   5   0 -15 233.934 17.9395   3
  15   0   5 254.281 16.6681   2
  15   0  -5 265.205 16.6037   2
   5   0  15 277.237 15.7567   2
   0  15  -5 256.502 19.1511   3
  -5   0  15 271.984 15.7725   2
   5 -15   0 262.599 15.9947   1
  -5   0 -15 228.858 17.4630   3
   0 -15  -5 249.812 16.1137   1
  15  -5   0 253.983 14.8434   2
  15   5   0 303.211 17.6545   2
 -15   0  -5 254.935 14.5479   1
   0   5 -15 249.468 17.9076   3
 -15   5   0 273.647 14.6457   1
 -15   0   5 281.029 14.5136   1
   0   5  15 277.948 20.9012   3
  -2  15  -5 64.5237 12.1008   3
   5  -2 -15 53.9129 8.70685   3
  -5 -15  -2 59.9027 7.24769   1
 -15   2   5 60.0271 5.53891   1
   2 -15  -5 46.0089 6.96061   1
  -5  -2  15 46.3979 7.26598   2
 -15   5  -2 56.0497 5.56749   1
  -2   5  15 60.5109 11.9508   3
  15   2  -5 57.3762 8.49516   2
  -5   2 -15 44.7940 7.39471   3
   2  -5  15 49.8228 8.12232   2
  15   5   2 55.9948 7.99565   2
 -15  -5   2 48.1386 5.40528   1
   5 -15   2 55.0194 6.67236   1
 -15  -2  -5 48.5760 5.65816   1
  15  -2   5 60.8883 7.14518   2
   5   2  15 56.6799 6.14102   2
   2   5 -15 42.8620 7.34729   3
  -2  -5 -15 55.7530 11.2275   3
   5  -2  15 56.0765 7.79832   2
 -15  -5  -2 52.2109 5.88717   1
  15   5  -2 70.0684 7.97786   2
  15  -5   2 52.0165 5.96754   2
 -15  -2   5 50.5924 5.21327   1
  -5  -2 -15 53.5454 8.48025   3
 -15   5   2 58.5034 5.67258   1
  15   2   5 62.6533 7.37789   2
  -2  -5  15 58.3370 8.23527   2
 -15   2  -5 55.3242 5.50454   1
  -2 -15  -5 63.5374 7.39056   1
   5 -15  -2 56.4573 6.87656   1
   5   2 -15 56.2535 7.97082   3
  -2   5 -15 53.2628 7.90137   3
   2  15  -5 53.0316 9.09424   3
  15  -2  -5 50.4127 6.13651   2
  15   4  -5 70.5200 8.42664   2
 -15   4   5 76.6152 6.66382   1
 -15  -5   4 76.8005 6.59540   1
   4  -5  15 76.3913 8.81005   2
   4 -15  -5 75.8499 8.00393   1
 -15  -4  -5 72.7842 7.00701   1
  -5   4 -15 70.2950 8.82491   3
  -4   5  15 64.8655 11.0632   3
  -5 -15  -4 73.2514 8.21594   1
  15   5   4 82.0474 8.03920   2
 -15   5  -4 86.6584 6.78251   1
  15  -4   5 76.8191 8.01617   2
  -4  15  -5 73.3461 11.7305   3
  -5  -4  15 74.0947 8.61510   2
   5  -4 -15 70.9016 10.5795   3
   4   5 -15 65.7938 8.67337   3
  -4  -5 -15 68.9008 10.4916   3
 -15  -4   5 73.8912 6.41708   1
  15   4   5 77.3033 8.08274   2
  -4  -5  15 87.9869 9.21098   2
   5   4 -15 70.8828 8.79445   3
 -15  -5  -4 71.0531 7.00392   1
   5 -15  -4 70.2175 7.92226   1
  15   5  -4 71.7621 8.53206   2
  -4   5 -15 85.6025 9.49053   3
   5  -4  15 76.6158 8.35265   2
  -4 -15  -5 76.3613 8.20949   1
 -15   4  -5 78.9792 6.60292   1
 -15   5   4 73.3267 6.51619   1
   4  15  -5 69.8835 10.8369   3
  -5  -4 -15 63.6577 9.74791   3
  15  -5   4 77.5021 7.59083   2
 -15  -6   1 224.926 13.6632   1
   1 -15  -6 217.348 14.7183   1
  -1  15  -6 201.603 16.9509   3
   1  -6  15 255.388 15.8870   2
  15   6   1 229.850 15.2736   2
 -15   6  -1 228.732 13.3497   1
   1   6 -15 237.477 16.9776   3
  15   1  -6 218.536 15.2233   2
   6  -1 -15 222.193 17.2891   3
   6 -15   1 245.095 14.8244   1
  15  -1   6 226.423 15.5092   2
  -6   1 -15 202.466 15.7615   3
  -1   6  15 244.905 20.2283   3
   6   1  15 211.954 13.8467   2
  -6  -1  15 238.717 15.2283   2
  -6 -15  -1 263.228 16.0713   1
 -15   1   6 232.966 13.0877   1
 -15  -1  -6 246.570 13.7577   1
  15  -1  -6 215.130 14.5091   2
  -6  -1 -15 228.837 16.6955   3
   6  -1  15 245.789 14.9865   2
 -15   6   1 251.092 13.6925   1
 -15   1  -6 236.004 13.3292   1
   6 -15  -1 237.350 14.9971   1
  -1 -15  -6 247.910 15.4297   1
   6   1 -15 238.145 16.9798   3
  -1  -6  15 206.907 15.1683   2
 -15  -6  -1 251.021 14.2795   1
  -1   6 -15 221.591 16.6313   3
   1   6  15 215.378 19.0570   3
  15  -6   1 248.527 13.7599   2
  15   6  -1 247.112 15.8250   2
   1  15  -6 229.943 17.4211   3
  15   1   6 232.052 15.5520   2
 -15  -1   6 233.425 12.9600   1
  -6 -15   1 215.252 14.8167   1
  -6  -3  15 57.0046 8.17479   2
  15   6   3 62.6013 7.25497   2
 -15   3   6 50.0698 5.39792   1
  15  -3   6 43.7499 7.13471   2
  -6   3 -15 50.1229 7.56050   3
 -15   6  -3 60.8409 5.69450   1
   6  -3 -15 51.6635 8.85837   3
   3  -6  15 51.1853 7.94133   2
  -3  15  -6 58.7702 9.89907   3
   6   3  15 52.0294 5.99789   2
  -6 -15  -3 44.1109 7.61131   1
 -15  -6   3 55.6618 5.70072   1
  15   3  -6 51.4491 8.49474   2
   3 -15  -6 53.9196 6.89954   1
  -3   6  15 55.0264 11.6740   3
   3   6 -15 41.8702 7.27774   3
 -15  -3  -6 51.4417 5.80239   1
   6 -15  -3 58.6251 7.14546   1
  -3  -6  15 49.9895 8.07641   2
  -3   6 -15 50.9772 7.87004   3
   6   3 -15 49.0444 7.64665   3
  -3 -15  -6 43.0398 7.10846   1
 -15  -3   6 57.5043 5.32244   1
 -15   6   3 52.9014 5.46554   1
 -15  -6  -3 35.4015 5.83668   1
  15   6  -3 56.9499 8.53351   2
 -15   3  -6 52.2152 5.40795   1
   6  -3  15 49.3329 7.57766   2
  15  -6   3 48.9691 5.78407   2
  15   3   6 55.5783 7.95119   2
   3  15  -6 59.9630 10.9654   3
 -15   6  -5 202.423 12.1394   1
   5  -6  15 202.339 14.7162   2
  15  -5   6 211.021 13.6708   2
  15   5  -6 230.516 15.7674   2
  -5  -6 -15 200.027 18.4082   3
   5   6 -15 208.082 15.5353   3
  15   6   5 205.673 13.6674   2
  -5   6  15 218.031 19.8754   3
 -15  -5  -6 202.611 13.2287   1
  -6  -5  15 200.773 14.8940   2
  -6 -15  -5 220.917 14.9027   1
  -5  15  -6 190.900 17.7932   3
 -15  -6   5 174.118 11.5763   1
  -6   5 -15 182.560 14.7907   3
   5 -15  -6 195.173 13.7748   1
 -15   5   6 212.495 12.5571   1
   6  15  -5 268.274 21.9715   3
 -15   6   5 220.944 12.7391   1
  15   5   6 187.211 13.4876   2
  -6   5  15 205.761 18.8653   3
 -15  -6  -5 214.968 13.6010   1
  15   6  -5 228.162 15.5979   2
   6 -15  -5 195.390 13.9630   1
 -15   5  -6 200.503 12.0457   1
  -5 -15  -6 201.853 14.3088   1
   5  15  -6 225.223 16.8891   3
   6  -5  15 193.258 14.3740   2
  -5  -6  15 195.964 14.5991   2
  15  -6   5 217.384 13.2518   2
   6   5 -15 214.030 15.5300   3
  -5   6 -15 191.370 15.1125   3
   0  15  -7 12.0220 5.78105   3
   7   0 -15 11.2841 4.94594   3
 -15   0  -7 9.92825 3.08879   1
  -7  15   0 0.39926 4.90230   3
   0   7 -15 8.99796 4.53199   3
  15   0  -7 9.02726 3.71530   2
  -7 -15   0 10.2113 4.26852   1
 -15  -7   0 9.21896 3.27405   1
   7 -15   0 15.8338 4.55671   1
   0  15   7 -1.0182 4.22477   3
 -15   0   7 10.0730 2.83682   1
   0 -15  -7 10.1710 3.86065   1
   0   7  15 7.39542 5.51446   3
  -7   0  15 18.1334 4.65306   2
   7   0  15 11.8064 3.97642   2
  15   7   0 10.9011 4.03669   2
   0  -7  15 9.63904 4.19483   2
 -15   7   0 8.47518 2.80133   1
  15   0   7 12.6865 4.36120   2
   7 -15   2 28.5982 6.67673   1
   7   2  15 26.0815 4.90948   2
   2  -7  15 22.5957 5.67653   2
 -15  -7   2 32.9203 5.26231   1
  -7  -2  15 25.7356 6.20076   2
   7  -2 -15 30.9409 7.77905   3
  15  -2   7 20.8115 5.24677   2
  15   2  -7 25.2743 5.94569   2
 -15  -2  -7 21.6251 4.31179   1
  15   7   2 31.1393 5.89737   2
  -2   7  15 20.8680 7.72859   3
   2   7 -15 22.4281 6.48541   3
  -7 -15  -2 19.4401 5.36183   1
  -2  15  -7 28.3599 7.63542   3
 -15   7  -2 24.9107 4.39882   1
 -15   2   7 21.0025 4.06549   1
   2 -15  -7 28.9833 5.68925   1
 -15   2  -7 30.4073 4.67392   1
  -2 -15  -7 22.4915 5.19741   1
 -15  -7  -2 21.5887 4.79432   1
 -15  -2   7 26.0897 4.18858   1
   7   2 -15 20.6669 5.92431   3
  -2  -7  15 30.7673 6.39134   2
  15  -2  -7 27.0412 4.97054   2
  -2   7 -15 28.8151 6.88447   3
   2   7  15 21.8083 7.59838   3
  15   2   7 31.1125 6.00122   2
   7 -15  -2 33.0154 6.17247   1
   2  15  -7 24.4894 7.07348   3
 -15   7   2 25.7775 4.47520   1
  15   7  -2 20.2414 5.37643   2
   7  -2  15 24.7448 5.60896   2
   7  -4 -15 3.60066 4.72138   3
  15   4  -7 -0.5481 2.58510   2
 -15  -7   4 5.23614 2.48629   1
 -15   4   7 2.41034 2.08798   1
  -7  -4  15 3.70558 4.05851   2
   4 -15  -7 5.24097 3.52934   1
   4   7 -15 2.49002 3.54773   3
  -4  15  -7 5.25928 5.31408   3
  15   7   4 6.06164 3.10440   2
 -15  -4  -7 2.57638 2.60133   1
  -7 -15  -4 1.34063 3.11932   1
 -15   7  -4 5.52541 2.57953   1
   4  -7  15 -0.2520 3.25223   2
  15  -4   7 2.48827 2.99057   2
  -7  15   4 0.67222 4.67495   3
   4  15   7 -0.3840 4.41436   3
  -4   7  15 -0.2308 4.36218   3
  15  -7   4 2.50531 2.33909   2
  15   4   7 3.95518 3.07321   2
 -15   7   4 1.44158 1.85117   1
  -4 -15  -7 2.12919 3.04254   1
   7   4 -15 1.94826 3.30987   3
   4  15  -7 0.54622 4.11652   3
  -7  15  -4 1.21911 5.55885   3
 -15   4  -7 6.24268 2.46348   1
  -4   7 -15 5.98425 4.15506   3
 -15  -7  -4 3.09625 2.77042   1
   7  -4  15 2.89945 3.67931   2
  -4  -7  15 7.22671 4.27588   2
   7 -15  -4 5.47793 3.49981   1
  15   7  -4 0.88733 2.83716   2
   4   7  15 0.35884 4.71681   3
  -4  15   7 1.43426 4.63405   3
  -1  15  -8 37.3665 8.53151   3
   8 -15   1 43.5029 6.65629   1
 -15   8  -1 34.0181 5.12912   1
  -1   8  15 40.4347 9.77927   3
 -15  -1  -8 35.6925 5.27343   1
  -8  -1  15 42.9005 6.84639   2
   8  -1 -15 38.6231 7.97023   3
   1  -8  15 42.4696 7.17694   2
 -15  -8   1 35.0627 5.52161   1
   1   8 -15 39.6900 8.16114   3
 -15   1   8 40.2457 4.78458   1
  -8 -15  -1 34.9918 6.45252   1
   8   1  15 41.3791 6.05680   2
  15  -1   8 39.8318 7.08571   2
  15   1  -8 35.3299 6.66805   2
  15   8   1 36.3312 6.34945   2
   1 -15  -8 37.8800 6.42462   1
 -15  -8  -1 42.7657 6.39381   1
  15   1   8 44.8535 7.31602   2
   8   1 -15 39.9876 7.85263   3
 -15   8   1 40.5475 5.03173   1
   8 -15  -1 40.1434 6.74538   1
   1   8  15 38.3235 9.67186   3
   1  15  -8 39.0263 8.40944   3
  -1   8 -15 36.4648 7.78439   3
  15  -1  -8 34.5624 5.97046   2
 -15   1  -8 37.7910 4.82179   1
  -1 -15  -8 37.8575 6.55639   1
  -8 -15   1 35.5126 6.42532   1
  15   8  -1 41.4410 7.14621   2
   8  -1  15 37.3197 6.59050   2
  16   0   0 695.637 35.0486   2
   0 -16   0 714.014 34.3378   1
   0   0  16 670.284 33.2186   2
 -16   0   0 748.695 32.8857   1
   0   0 -16 719.378 38.5467   3
 -16   1  -1 22.8399 4.19958   1
 -16   1   1 38.1133 4.53423   1
  -1   1 -16 21.6000 6.50071   3
  -1 -16  -1 35.4066 6.10363   1
  -1   1  16 37.7070 5.77214   2
   1  -1  16 32.8843 5.90536   2
   1   1  16 31.2668 5.29714   2
  16  -1  -1 23.0457 5.26016   2
  16  -1   1 33.3668 6.00382   2
  16   1  -1 28.7184 5.83754   2
  16   1   1 25.1569 5.79178   2
  -1  -1  16 21.7504 4.83609   2
   1 -16  -1 29.0543 5.67557   1
   1  -1 -16 23.5024 7.08308   3
   1   1 -16 30.2313 7.63173   3
  -1  -1 -16 38.4095 8.93607   3
   1 -16   1 41.1198 6.68635   1
 -16  -1   1 21.6076 4.12172   1
 -16  -1  -1 36.0988 5.23996   1
  -1 -16   1 25.7828 5.42438   1
  16  -2   0 176.553 12.2973   2
  -2   0 -16 156.957 14.3983   3
  16   0  -2 153.403 11.9915   2
  16   0   2 162.788 12.3943   2
 -16   0  -2 163.177 10.5926   1
  16   2   0 153.185 12.4654   2
   2   0 -16 170.745 15.0750   3
   2 -16   0 165.381 11.9556   1
 -16  -2   0 157.040 10.5720   1
   0 -16  -2 170.978 12.2727   1
   0  -2  16 161.920 11.9567   2
  -2   0  16 155.925 11.4243   2
   2   0  16 169.017 11.6338   2
 -16   2   0 169.428 10.6126   1
   0   2 -16 163.861 14.3340   3
 -16   0   2 170.964 10.5740   1
  -2 -16   0 164.172 12.2272   1
   0  -2 -16 168.727 15.7082   3
  16  -2  -2 133.661 10.8972   2
  16  -2   2 177.502 12.2500   2
   2  -2 -16 145.182 14.7462   3
   2 -16  -2 145.399 11.3377   1
   2   2  16 141.840 10.5169   2
  -2  -2 -16 160.155 14.9826   3
   2   2 -16 162.929 14.1058   3
 -16   2  -2 161.927 10.2909   1
 -16   2   2 173.494 10.4198   1
  -2 -16  -2 173.212 12.3069   1
  -2  -2  16 142.985 11.4719   2
  -2   2 -16 135.663 13.2476   3
 -16  -2   2 149.346 10.1239   1
  16   2  -2 172.284 12.7162   2
   2  -2  16 156.422 11.8181   2
  16   2   2 139.116 11.9155   2
 -16  -2  -2 170.687 10.6315   1
 -16  -1  -3 8.39585 2.81135   1
  -3  16   1 -1.2245 4.73631   3
 -16  -3   1 15.2810 3.56501   1
  16  -3  -1 18.4211 4.28535   2
   3   1  16 14.7157 4.05134   2
 -16   1   3 7.68018 2.75528   1
   1   3 -16 17.3651 5.97276   3
   1  -3  16 12.3548 4.42815   2
  -1  -3 -16 12.1155 5.98687   3
   1  16   3 0.07354 4.85459   3
   3  -1 -16 12.9144 5.65463   3
  -3   1 -16 15.0586 5.58598   3
   3  16  -1 -1.5724 4.49362   3
  16  -1   3 8.06821 3.69171   2
  16   1  -3 11.3982 4.02502   2
 -16   3  -1 12.6059 3.16349   1
  -3 -16  -1 6.67369 3.51895   1
  -1  16  -3 3.33183 5.88158   3
   1 -16  -3 21.5352 5.00091   1
  16   3   1 18.5049 5.10888   2
   3 -16   1 8.91369 3.67474   1
  -3  -1  16 16.1095 4.90041   2
  -3 -16   1 13.5074 4.46802   1
  -3   1  16 9.71481 4.77594   2
   3  -1  16 10.5862 3.87717   2
  -1 -16  -3 11.0027 4.08805   1
 -16  -3  -1 10.5546 3.18122   1
  16  -3   1 8.19613 3.42447   2
  16   3  -1 11.0602 4.30351   2
   3   1 -16 11.1488 5.16808   3
  -3  16  -1 -0.5588 4.80767   3
  -1  16   3 -0.2686 4.94590   3
  16  -1  -3 11.3038 3.74424   2
  -1   3 -16 18.4709 6.08171   3
   1  -3 -16 16.6649 6.56186   3
 -16   1  -3 15.7057 3.53001   1
   3  16   1 -0.1357 4.56363   3
 -16  -1   3 11.1146 3.01630   1
  16   1   3 15.3492 4.76989   2
  -1  -3  16 18.6470 4.80191   2
  -3  -1 -16 12.5100 5.66244   3
   1  16  -3 1.27972 5.89769   3
 -16   3   1 6.22113 2.42339   1
   3 -16  -1 18.1266 4.59900   1
  -3   3 -16 186.089 15.1356   3
   3   3 -16 183.776 15.0642   3
   3  -3  16 179.244 13.1587   2
  16  -3  -3 193.653 12.4731   2
   3  -3 -16 177.175 16.5782   3
  -3  -3 -16 187.051 16.6303   3
 -16  -3   3 199.593 11.7593   1
 -16   3  -3 200.569 11.8164   1
 -16   3   3 174.513 11.3392   1
  -3 -16  -3 178.919 13.2316   1
   3 -16  -3 193.750 13.2203   1
  16  -3   3 177.988 12.7716   2
 -16  -3  -3 178.637 11.7868   1
  16   3  -3 192.994 14.0934   2
  16   3   3 220.799 14.3381   2
  -3  -3  16 169.803 13.1580   2
  -4   0 -16 143.883 13.7186   3
   0   4 -16 158.958 13.8817   3
  -4   0  16 164.942 11.7178   2
   4   0 -16 159.381 14.5007   3
   0  -4  16 167.874 12.4985   2
  -4 -16   0 154.946 11.9778   1
 -16  -4   0 150.756 10.5105   1
   4   0  16 146.552 11.1525   2
   4 -16   0 169.149 11.7879   1
   0  -4 -16 158.944 16.0782   3
  16  -4   0 157.514 11.0116   2
 -16   4   0 175.928 10.6851   1
 -16   0   4 155.754 10.1732   1
  16   0   4 146.010 12.0338   2
  16   0  -4 155.960 11.8590   2
 -16   0  -4 159.615 10.4336   1
  16   4   0 174.497 12.9178   2
   0 -16  -4 157.093 11.9464   1
   2 -16  -4 57.6860 7.26643   1
  -2  -4 -16 62.9000 10.6111   3
  -4 -16  -2 64.3063 7.93231   1
  16   2  -4 65.3577 7.90173   2
  16   4   2 75.8851 8.34440   2
 -16   2   4 66.5311 6.12584   1
  -4  -2  16 68.5479 8.18023   2
 -16  -4   2 68.1021 6.36692   1
  -4   2 -16 66.5993 9.08959   3
 -16   4  -2 56.4399 5.79792   1
   2   4 -16 54.6596 8.32186   3
 -16  -2  -4 65.9540 6.44409   1
  16  -2   4 68.4910 7.70639   2
   4  -2 -16 70.9580 10.3138   3
   4   2  16 67.5648 6.88277   2
   2  -4  16 55.8900 8.19359   2
  16  -4  -2 65.8620 6.54829   2
  16   4  -2 65.5944 8.00750   2
  -2   4 -16 67.3070 9.03407   3
  16   2   4 74.4045 8.19216   2
   4  -2  16 62.2555 7.72346   2
  -2  -4  16 69.6184 8.32964   2
  16  -4   2 71.2792 7.15402   2
 -16  -2   4 70.4068 6.18318   1
   4   2 -16 59.8176 8.77104   3
   4 -16  -2 69.8094 7.63039   1
  16  -2  -4 62.6918 6.84152   2
   2  -4 -16 61.5759 10.5608   3
 -16   2  -4 65.3645 6.08513   1
 -16   4   2 68.0497 6.20512   1
  -4  -2 -16 67.6140 10.0150   3
  -2 -16  -4 71.4457 8.06653   1
 -16  -4  -2 68.9150 6.71575   1
  16   4  -4 402.729 23.1208   2
 -16  -4   4 392.484 19.8374   1
   4  -4 -16 361.481 26.0907   3
 -16   4  -4 386.457 19.7298   1
 -16   4   4 417.251 20.1409   1
  -4 -16  -4 396.342 22.2408   1
   4 -16  -4 376.514 21.4166   1
   4  -4  16 388.851 22.1191   2
  -4   4 -16 362.022 23.3855   3
   4   4 -16 381.359 23.6616   3
  -4  -4  16 376.242 22.3650   2
  16  -4   4 396.270 21.4087   2
  16   4   4 400.754 22.1912   2
  -4  -4 -16 383.447 25.7997   3
 -16  -4  -4 398.896 20.7740   1
  -5 -16  -1 53.1233 7.87088   1
   1   5 -16 57.1485 8.49299   3
 -16  -1  -5 60.3622 6.04286   1
   5   1  16 51.3610 6.28051   2
   5  -1 -16 49.0575 8.56084   3
   1 -16  -5 57.6227 8.31184   1
  16   5   1 55.5068 8.25789   2
 -16   1   5 62.3559 5.85379   1
   5 -16   1 62.2364 7.05913   1
 -16  -5   1 52.4929 5.87197   1
   1  -5  16 65.1718 9.02084   2
  16   1  -5 59.8744 7.22625   2
  -1  -5 -16 53.9267 11.2209   3
 -16   5  -1 54.4670 5.61618   1
  16  -1   5 49.1895 7.68528   2
  -5   1 -16 47.6724 7.96548   3
  -5  -1  16 49.0442 7.18611   2
 -16   5   1 58.5147 5.77396   1
   1  -5 -16 49.6156 11.2964   3
  16  -5   1 60.8087 6.30606   2
  16   5  -1 53.3203 8.29066   2
  -1 -16  -5 57.7905 7.29663   1
   1  16  -5 54.7463 10.7184   3
  16  -1  -5 51.5922 6.49625   2
  -5  -1 -16 58.8543 9.05480   3
 -16  -5  -1 57.9783 6.19198   1
  -1   5 -16 50.6760 8.15562   3
  16   1   5 62.7393 8.83868   2
  -1  -5  16 53.3240 8.29233   2
 -16  -1   5 55.1122 5.56247   1
 -16   1  -5 49.9094 5.66164   1
   5   1 -16 56.7287 8.58318   3
   5 -16  -1 46.8806 7.01727   1
   5  -1  16 60.6984 7.11904   2
 -16  -5   3 7.76476 2.73191   1
   3   5 -16 9.95241 4.73589   3
 -16  -3  -5 9.13213 3.11796   1
  -3  16  -5 2.49295 5.96739   3
   3  -5  16 5.07528 4.39768   2
   5  16  -3 -0.0749 5.77791   3
   3  16   5 -0.7824 4.30836   3
   5  -3 -16 9.92614 5.51191   3
  16   5   3 11.7136 4.25005   2
 -16   3   5 6.86346 2.63739   1
   3 -16  -5 7.76981 3.76670   1
  -5   3 -16 10.7111 4.78383   3
  -3  -5 -16 7.04825 5.57679   3
  16  -3   5 10.2254 3.91783   2
  -5 -16  -3 9.08893 4.26306   1
 -16   5  -3 7.15274 2.63697   1
  16   3  -5 10.9422 4.31612   2
  -5  16   3 0.62760 5.54681   3
  -5  -3  16 12.6517 4.61815   2
   3  16  -5 -0.5485 6.77583   3
  -3  -5  16 8.10348 4.47713   2
  -3 -16  -5 8.27483 3.98066   1
   5  -3  16 8.33784 4.29322   2
 -16  -3   5 6.78498 2.62659   1
  -3  16   5 -0.7394 4.56202   3
 -16   5   3 11.0293 3.30620   1
 -16  -5  -3 5.35140 2.83600   1
  -5  -3 -16 9.46815 5.48281   3
  -3   5 -16 11.1489 4.94760   3
 -16   3  -5 11.8650 3.15100   1
  16   3   5 12.1140 4.35169   2
   3  -5 -16 9.68406 6.00488   3
   5   3 -16 9.45317 4.73545   3
   5  16   3 -2.8916 4.63932   3
  16  -5   3 9.43617 3.40740   2
  -5  16  -3 0.49047 5.31863   3
   5 -16  -3 10.0031 4.03450   1
  16   5  -3 8.73414 4.00445   2
   6   0 -16 251.447 18.7648   3
 -16   0   6 263.985 14.4406   1
 -16  -6   0 275.839 15.5736   1
   0   6 -16 256.196 18.4440   3
   0   6  16 235.703 20.7640   3
   0  16  -6 259.862 20.0359   3
 -16   0  -6 257.608 14.6976   1
  -6   0  16 258.571 18.2800   2
   6   0  16 282.787 15.9882   2
  16   6   0 273.412 17.1006   2
 -16   6   0 261.646 14.7720   1
   0 -16  -6 242.645 16.1336   1
  16   0   6 259.559 16.9480   2
  16   0  -6 260.564 16.3782   2
  -6 -16   0 265.403 16.7826   1
   6 -16   0 248.577 15.8537   1
   0  -6  16 258.022 16.8858   2
   2  16   6 2.11114 5.07322   3
  17   0   1 1.80093 2.62588   2
  -1   0  17 1.86896 3.20807   2
  -1  17   0 -1.8364 4.86064   3
   0  -1  17 1.90001 3.17781   2
  17   0  -1 -0.0999 2.40541   2
 -17   0  -1 1.00962 1.77534   1
 -17   0   1 0.44374 1.78966   1
  -1 -17   0 5.70899 3.64069   1
   1 -17   0 2.37418 3.10399   1
 -17  -1   0 0.86089 1.95426   1
 -17   1   0 1.80812 1.83743   1
   0 -17  -1 0.96226 3.01000   1
   1  17   0 -0.0120 4.96820   3
  -1   0 -17 2.49898 4.55069   3
   0  17  -1 -1.3077 4.59710   3
   0  17   1 0.24371 4.92509   3
   1   0 -17 1.45459 3.88088   3
   0  -1 -17 2.62069 4.46337   3
   0   1 -17 0.33837 3.73984   3
  17  -1   0 1.32545 2.66112   2
  17   1   0 1.36052 2.64420   2
   1   0  17 3.22865 3.03705   2
 -17   1   2 10.2790 3.03011   1
   1 -17  -2 7.57267 3.80480   1
   1  17   2 -1.6011 4.91528   3
 -17  -2   1 5.13627 2.53113   1
 -17   2  -1 5.32005 2.48891   1
   2   1  17 7.96517 3.71460   2
   1  -2  17 11.7898 4.37577   2
  -2 -17  -1 10.5207 4.18106   1
  17  -1   2 9.26204 3.81274   2
  17   1  -2 11.6849 4.08932   2
  17  -2  -1 8.28110 3.49037   2
  -2  -1  17 8.53926 3.92803   2
 -17  -1  -2 12.4661 3.30011   1
  -2  17   1 -1.0742 5.06508   3
  17   2   1 6.24817 3.56290   2
  17  -2   1 9.14701 3.67553   2
  17   2  -1 11.5292 4.27104   2
  17   1   2 9.85148 4.02855   2
   2 -17  -1 5.48909 3.27768   1
  -1  -2  17 7.75888 4.05723   2
   2  -1  17 7.70878 3.76940   2
 -17  -1   2 5.15477 2.44166   1
 -17   1  -2 4.32206 2.34607   1
  -1 -17  -2 12.9292 4.47005   1
  17  -1  -2 5.65666 3.34997   2
  -2  17  -1 0.54899 4.95636   3
 -17  -2  -1 9.60820 3.05047   1
   2  17   1 0.93461 5.26486   3
  -1  17   2 0.90040 5.31131   3
 -17   2   1 9.79238 2.84268   1
   0   0   0    0.00    0.00   0
;
_shelx_hkl_checksum              46865
loop_
_space_group_symop_operation_xyz
'x, y, z'
'-x, -y, z'
'-x, y, -z'
'x, -y, -z'
'z, x, y'
'z, -x, -y'
'-z, -x, y'
'-z, x, -y'
'y, z, x'
'-y, z, -x'
'y, -z, -x'
'-y, -z, x'
'y, x, z'
'-y, -x, z'
'y, -x, -z'
'-y, x, -z'
'x, z, y'
'-x, z, -y'
'-x, -z, y'
'x, -z, -y'
'z, y, x'
'z, -y, -x'
'-z, y, -x'
'-z, -y, x'
'x+1/2, y+1/2, z+1/2'
'-x+1/2, -y+1/2, z+1/2'
'-x+1/2, y+1/2, -z+1/2'
'x+1/2, -y+1/2, -z+1/2'
'z+1/2, x+1/2, y+1/2'
'z+1/2, -x+1/2, -y+1/2'
'-z+1/2, -x+1/2, y+1/2'
'-z+1/2, x+1/2, -y+1/2'
'y+1/2, z+1/2, x+1/2'
'-y+1/2, z+1/2, -x+1/2'
'y+1/2, -z+1/2, -x+1/2'
'-y+1/2, -z+1/2, x+1/2'
'y+1/2, x+1/2, z+1/2'
'-y+1/2, -x+1/2, z+1/2'
'y+1/2, -x+1/2, -z+1/2'
'-y+1/2, x+1/2, -z+1/2'
'x+1/2, z+1/2, y+1/2'
'-x+1/2, z+1/2, -y+1/2'
'-x+1/2, -z+1/2, y+1/2'
'x+1/2, -z+1/2, -y+1/2'
'z+1/2, y+1/2, x+1/2'
'z+1/2, -y+1/2, -x+1/2'
'-z+1/2, y+1/2, -x+1/2'
'-z+1/2, -y+1/2, x+1/2'
loop_
_atom_site_label
_atom_site_type_symbol
_atom_site_fract_x
_atom_site_fract_y
_atom_site_fract_z
_atom_site_U_iso_or_equiv
_atom_site_adp_type
_atom_site_occupancy
_atom_site_site_symmetry_order
_atom_site_calc_flag
_atom_site_refinement_flags_posn
_atom_site_refinement_flags_adp
_atom_site_refinement_flags_occupancy
Ag Ag 0.19490(4) 0.0000 0.0000 0.00903(8) Uani 1 4 d S T P
Ge1 Ge 0.28921(4) 0.28921(4) 0.28921(4) 0.00685(13) Uani 1 6 d S T P
Ge2 Ge 0.2500 0.5000 0.0000 0.00612(10) Uani 1 4 d S T P
P P 0.12880(7) 0.12880(7) 0.35967(11) 0.00668(17) Uani 1 2 d S T P
loop_
_atom_site_aniso_label
_atom_site_aniso_U_11
_atom_site_aniso_U_22
_atom_site_aniso_U_33
_atom_site_aniso_U_23
_atom_site_aniso_U_13
_atom_site_aniso_U_12
Ag 0.00689(15) 0.01009(10) 0.01009(10) -0.0029(2) 0.000 0.000
Ge1 0.00685(13) 0.00685(13) 0.00685(13) 0.00005(14) 0.00005(14) 0.00005(14)
Ge2 0.0062(2) 0.00608(13) 0.00608(13) 0.000 0.000 0.000
P 0.0067(2) 0.0067(2) 0.0067(4) -0.0003(2) -0.0003(2) 0.0002(3)
loop_
_atom_type_symbol
_atom_type_description
_atom_type_scat_dispersion_real
_atom_type_scat_dispersion_imag
_atom_type_scat_source
P P 0.1023 0.0942 'International Tables Vol C Tables 4.2.6.8 and 6.1.1.4'
Ge Ge 0.1547 1.8001 'International Tables Vol C Tables 4.2.6.8 and 6.1.1.4'
Ag Ag -0.8971 1.1015 'International Tables Vol C Tables 4.2.6.8 and 6.1.1.4'
loop_
_geom_angle_atom_site_label_1
_geom_angle_atom_site_label_2
_geom_angle_atom_site_label_3
_geom_angle
_geom_angle_site_symmetry_1
_geom_angle_site_symmetry_3
P Ag P 95.74(5) 5 6
P Ag Ag 147.688(9) 5 6
P Ag Ag 95.94(2) 6 6
P Ag Ag 147.688(9) 5 10
P Ag Ag 95.94(2) 6 10
Ag Ag Ag 60.0 6 10
P Ag Ag 95.94(2) 5 9
P Ag Ag 147.688(9) 6 9
Ag Ag Ag 60.0 6 9
Ag Ag Ag 90.0 10 9
P Ag Ag 95.94(2) 5 5
P Ag Ag 147.688(9) 6 5
Ag Ag Ag 90.0 6 5
Ag Ag Ag 60.0 10 5
Ag Ag Ag 60.0 9 5
P Ag Ge1 87.955(7) 5 26_554
P Ag Ge1 87.955(7) 6 26_554
Ag Ag Ge1 122.474(8) 6 26_554
Ag Ag Ge1 62.505(8) 10 26_554
Ag Ag Ge1 122.474(8) 9 26_554
Ag Ag Ge1 62.505(8) 5 26_554
P Ag Ge1 87.955(7) 5 27_545
P Ag Ge1 87.955(7) 6 27_545
Ag Ag Ge1 62.505(8) 6 27_545
Ag Ag Ge1 122.474(8) 10 27_545
Ag Ag Ge1 62.505(8) 9 27_545
Ag Ag Ge1 122.474(8) 5 27_545
Ge1 Ag Ge1 173.90(2) 26_554 27_545
P Ge1 P 86.82(4) 9 5
P Ge1 P 86.82(4) 9 .
P Ge1 P 86.82(4) 5 .
P Ge1 Ag 107.66(2) 9 34
P Ge1 Ag 107.66(2) 5 34
P Ge1 Ag 159.70(3) . 34
P Ge1 Ag 159.70(3) 9 30
P Ge1 Ag 107.66(2) 5 30
P Ge1 Ag 107.66(2) . 30
Ag Ge1 Ag 54.989(17) 34 30
P Ge1 Ag 107.66(2) 9 26
P Ge1 Ag 159.70(3) 5 26
P Ge1 Ag 107.66(2) . 26
Ag Ge1 Ag 54.989(17) 34 26
Ag Ge1 Ag 54.989(17) 30 26
P Ge2 P 115.07(5) 27 26_554
P Ge2 P 106.75(2) 27 9
P Ge2 P 106.75(2) 26_554 9
P Ge2 P 106.75(2) 27 11_565
P Ge2 P 106.75(2) 26_554 11_565
P Ge2 P 115.07(5) 9 11_565
Ge2 P Ge2 103.07(4) 5 26
Ge2 P Ge1 101.95(3) 5 .
Ge2 P Ge1 101.95(3) 26 .
Ge2 P Ag 113.53(3) 5 9
Ge2 P Ag 113.53(3) 26 9
Ge1 P Ag 120.62(5) . 9
loop_
_geom_bond_atom_site_label_1
_geom_bond_atom_site_label_2
_geom_bond_distance
_geom_bond_site_symmetry_2
Ag P 2.5289(12) 5
Ag P 2.5289(12) 6
Ag Ag 2.8379(6) 6
Ag Ag 2.8379(6) 10
Ag Ag 2.8379(6) 9
Ag Ag 2.8379(6) 5
Ag Ge1 3.0735(7) 26_554
Ag Ge1 3.0735(7) 27_545
Ge1 P 2.4457(12) 9
Ge1 P 2.4457(12) 5
Ge1 P 2.4457(12) .
Ge1 Ag 3.0735(7) 34
Ge1 Ag 3.0735(7) 30
Ge1 Ag 3.0735(7) 26
Ge2 P 2.3245(7) 27
Ge2 P 2.3245(7) 26_554
Ge2 P 2.3245(7) 9
Ge2 P 2.3245(7) 11_565
P Ge2 2.3245(7) 5
P Ge2 2.3245(7) 26
P Ag 2.5289(12) 9
