#------------------------------------------------------------------------------
#$Date: 2016-03-21 01:21:50 +0200 (Mon, 21 Mar 2016) $
#$Revision: 178377 $
#$URL: svn://www.crystallography.net/cod/cif/4/00/21/4002109.cif $
#------------------------------------------------------------------------------
#
# This file is available in the Crystallography Open Database (COD),
# http://www.crystallography.net/
#
# All data on this site have been placed in the public domain by the
# contributors.
#
data_4002109
loop_
_publ_author_name
'Nanthamathee, Chompoonoot'
'Ling, Sanliang'
'Slater, Ben'
'Attfield, Martin P.'
_publ_section_title
;
 Contradistinct Thermoresponsive Behavior of Isostructural MIL-53 Type
 Metal--Organic Frameworks by Modifying the Framework Inorganic Anion
;
_journal_name_full               'Chemistry of Materials'
_journal_page_first              141223143002002
_journal_paper_doi               10.1021/cm503311x
_journal_year                    2014
_chemical_formula_sum            'C8 Al O5'
_chemical_formula_weight         203.07
_chemical_name_systematic        ' ?'
_space_group_IT_number           74
_symmetry_cell_setting           orthorhombic
_symmetry_space_group_name_Hall  '-I 2b 2'
_symmetry_space_group_name_H-M   'I m m a'
_audit_creation_date             2014-08-28T12:11
_audit_creation_method           'from EXP file using GSAS2CIF'
_audit_update_record
' 2014-08-28T12:11  Initial CIF as created by GSAS2CIF'
_cell_angle_alpha                90.0
_cell_angle_beta                 90.0
_cell_angle_gamma                90.0
_cell_formula_units_Z            4
_cell_length_a                   6.63028(6)
_cell_length_b                   16.79731(17)
_cell_length_c                   12.74687(24)
_cell_volume                     1419.63(3)
_computing_structure_refinement  GSAS
_diffrn_radiation_polarisn_ratio 0.95
_diffrn_radiation_probe          x-ray
_diffrn_radiation_wavelength     0.825993
_exptl_absorpt_correction_T_max  1.00000
_exptl_absorpt_correction_T_min  1.00000
_exptl_absorpt_process_details
;   GSAS Absorption/surface roughness correction: function number 0
 No correction is applied.
;
_pd_block_id                     2014-08-28T12:11|150K|300k|i11
_pd_calc_method                  'Rietveld Refinement'
_pd_instr_location               ' ?'
_pd_meas_2theta_range_inc        0.003
_pd_meas_2theta_range_max        149.9955
_pd_meas_2theta_range_min        0.0015
_pd_meas_number_of_points        49999
_pd_phase_name                   300K
_pd_proc_2theta_range_inc        0.003
_pd_proc_2theta_range_max        150.005
_pd_proc_2theta_range_min        0.011007
_pd_proc_info_datetime           2014-08-28T12:11:45
_pd_proc_info_excluded_regions   ' ?'
_pd_proc_ls_background_function
;   GSAS Background function number 1 with  2 terms.
 Shifted Chebyshev function of 1st kind
      1:    0.00000     2:    0.00000    
;
_pd_proc_ls_peak_cutoff          0.00100
_pd_proc_ls_profile_function
;
 CW Profile function number 4 with  18 terms
 Pseudovoigt profile coefficients as parameterized in
 P. Thompson, D.E. Cox & J.B. Hastings (1987). J. Appl. Cryst.,20,79-83.
 Asymmetry correction of L.W. Finger, D.E. Cox & A. P. Jephcoat (1994).
 J. Appl. Cryst.,27,892-900.
 Microstrain broadening by P.W. Stephens,  (1999). J. Appl. Cryst.,32,281-289.
 Peak tails are ignored  where the intensity is below 0.0010 times the peak
   Aniso. broadening axis   1.0   0.0   1.0
;
_pd_proc_ls_prof_R_factor        0.0341
_pd_proc_ls_prof_wR_expected     0.0221
_pd_proc_ls_prof_wR_factor       0.0447
_pd_proc_number_of_points        49999
_pd_spec_mounting                ' ?'
_refine_ls_goodness_of_fit_all   2.02
_refine_ls_matrix_type           full
_refine_ls_number_parameters     27
_refine_ls_number_restraints     0
_refine_ls_R_Fsqd_factor         0.23236
_refine_ls_shift/su_max          0.08
_refine_ls_shift/su_mean         0.01
_reflns_d_resolution_high        1.211
_reflns_d_resolution_low         8.399
_reflns_limit_h_max              5
_reflns_limit_h_min              0
_reflns_limit_k_max              13
_reflns_limit_k_min              0
_reflns_limit_l_max              10
_reflns_limit_l_min              0
_reflns_number_total             251
_cod_data_source_file            aloh150K.cif
_cod_data_source_block           150K_publ
_cod_depositor_comments
;
The following automatic conversions were performed:

'_geom_bond_publ_flag' value 'N' changed to 'n' according to
/home/saulius/struct/COD-crude-data--automatic-downloads/rss-feeds/ACS/lib/dictionaries/cif_core.dic
dictionary named 'cif_core.dic' version 2.4.2 from 2011-04-26 (18
times).

'_geom_angle_publ_flag' value 'N' changed to 'n' according
to
/home/saulius/struct/COD-crude-data--automatic-downloads/rss-feeds/ACS/lib/dictionaries/cif_core.dic
dictionary named 'cif_core.dic' version 2.4.2 from 2011-04-26 (24
times).

Automatic conversion script
Id: cif_fix_values 2935 2014-11-11 08:27:57Z andrius 
;
_cod_original_cell_volume        1419.630(33)
_cod_database_code               4002109
#BEGIN Tags that were not found in dictionaries:
_gsas_exptl_extinct_corr_t_min   1.00000
_gsas_exptl_extinct_corr_t_max   1.00000
#END Tags that were not found in dictionaries
loop_
_symmetry_equiv_pos_site_id
_symmetry_equiv_pos_as_xyz
1 +x,+y,+z
2 -x,+y,+z
3 +x,-y+1/2,+z
4 -x,-y+1/2,+z
-1 -x,-y,-z
-2 +x,-y,-z
-3 -x,+y+1/2,-z
-4 +x,+y+1/2,-z
101 +x+1/2,+y+1/2,+z+1/2
102 -x+1/2,+y+1/2,+z+1/2
103 +x+1/2,-y,+z+1/2
104 -x+1/2,-y,+z+1/2
-101 -x+1/2,-y+1/2,-z+1/2
-102 +x+1/2,-y+1/2,-z+1/2
-103 -x+1/2,+y,-z+1/2
-104 +x+1/2,+y,-z+1/2
loop_
_atom_site_type_symbol
_atom_site_label
_atom_site_fract_x
_atom_site_fract_y
_atom_site_fract_z
_atom_site_occupancy
_atom_site_thermal_displace_type
_atom_site_U_iso_or_equiv
_atom_site_symmetry_multiplicity
Al Al1 0.25 0.25 0.75 1.0 Uiso 0.0182(10) 4
O O2 0.0 0.25 0.6861(4) 1.0 Uiso 0.0167(8) 4
O O1 0.16793(30) 0.16770(13) 0.84262(21) 1.0 Uiso 0.0167(8) 16
C C3 -0.1919(4) 0.03515(28) 0.9694(4) 1.0 Uiso 0.0334(14) 16
C C2 0.0 0.0630(4) 0.9451(5) 1.0 Uiso 0.0334(14) 8
C C1 0.0 0.13775(34) 0.8710(6) 1.0 Uiso 0.0334(14) 8
loop_
_atom_type_symbol
_atom_type_number_in_cell
_atom_type_scat_dispersion_real
_atom_type_scat_dispersion_imag
_atom_type_scat_Cromer_Mann_a1
_atom_type_scat_Cromer_Mann_a2
_atom_type_scat_Cromer_Mann_a3
_atom_type_scat_Cromer_Mann_a4
_atom_type_scat_Cromer_Mann_b1
_atom_type_scat_Cromer_Mann_b2
_atom_type_scat_Cromer_Mann_b3
_atom_type_scat_Cromer_Mann_b4
_atom_type_scat_Cromer_Mann_c
_atom_type_scat_source
Al 4.0 0.000 0.000 6.42020 3.03870 1.90020 0.74260 1.59360 31.5472 1.96460
85.0886 1.11510 International_Tables_Vol_C
O 20.0 0.000 0.000 3.04850 13.2771 2.28680 5.70110 1.54630 0.32390 0.86700
32.9089 0.25080 International_Tables_Vol_C
C 32.0 0.000 0.000 2.31000 20.8439 1.02000 10.2075 1.58860 0.56870 0.86500
51.6512 0.21560 International_Tables_Vol_C
loop_
_geom_angle_atom_site_label_1
_geom_angle_atom_site_label_2
_geom_angle_atom_site_label_3
_geom_angle
_geom_angle_site_symmetry_1
_geom_angle_site_symmetry_3
_geom_angle_publ_flag
O2 Al1 O2 180.0 1_555 -101_546 n
O2 Al1 O1 90.98(12) 1_555 1_555 n
O2 Al1 O1 90.98(12) 1_555 3_555 n
O2 Al1 O1 89.02(12) 1_555 -101_566 n
O2 Al1 O1 89.02(12) 1_555 -103_566 n
O2 Al1 O1 89.02(12) -101_566 1_555 n
O2 Al1 O1 89.02(12) -101_566 3_555 n
O2 Al1 O1 90.98(12) -101_566 -101_566 n
O2 Al1 O1 90.98(12) -101_566 -103_566 n
O1 Al1 O1 93.52(16) 1_555 3_555 n
O1 Al1 O1 180.0 1_555 -101_566 n
O1 Al1 O1 86.48(16) 1_555 -103_566 n
O1 Al1 O1 86.48(16) 3_555 -101_566 n
O1 Al1 O1 180.0 3_555 -103_566 n
O1 Al1 O1 93.52(16) -101_566 -103_566 n
Al1 O2 Al1 127.64(30) 1_555 2_555 n
Al1 O1 C1 135.63(32) 1_555 1_555 n
C3 C3 C2 113.78(33) -2_557 1_555 n
C3 C2 C3 132.4(7) 1_555 2_555 n
C3 C2 C1 113.74(32) 1_555 1_555 n
C3 C2 C1 113.74(32) 2_555 1_555 n
O1 C1 O1 121.8(6) 1_555 2_555 n
O1 C1 C2 119.09(28) 1_555 1_555 n
O1 C1 C2 119.09(28) 2_555 1_555 n
loop_
_geom_bond_atom_site_label_1
_geom_bond_atom_site_label_2
_geom_bond_distance
_geom_bond_site_symmetry_2
_geom_bond_publ_flag
Al1 O2 1.8470(23) 1_555 n
Al1 O2 1.8470(23) -101_445 n
Al1 O1 1.8976(19) 1_555 n
Al1 O1 1.8976(19) 3_555 n
Al1 O1 1.8976(19) -101_445 n
Al1 O1 1.8976(19) -103_445 n
O2 Al1 1.8470(23) 1_555 n
O2 Al1 1.8470(23) 2_555 n
O1 Al1 1.8976(19) 1_555 n
O1 C1 1.2743(31) 1_555 n
C3 C3 1.415(7) -2_557 n
C3 C2 1.3904(30) 1_555 n
C2 C3 1.3904(30) 1_555 n
C2 C3 1.3904(30) 2_555 n
C2 C1 1.572(6) 1_555 n
C1 O1 1.2743(31) 1_555 n
C1 O1 1.2743(31) 2_555 n
C1 C2 1.572(6) 1_555 n
loop_
_pd_meas_intensity_total
_pd_proc_ls_weight
_pd_proc_intensity_bkg_calc
_pd_calc_intensity_total
11.6(18) 0.0 0.00 .
23.1(25) 0.0 0.00 .
25.2(27) 0.0 0.00 .
23.0(28) 0.0 0.00 .
51(4) 0.0 0.0 .
163(7) 0.0 0.0 .
132(6) 0.0 0.0 .
833(15) 0.0 0.0 .
1457(20) 0.0 0.0 .
2799(29) 0.0 0.0 .
3187(29) 0.0 0.0 .
3197(29) 0.0 0.0 .
3208(31) 0.0 0.0 .
1180(19) 0.0 0.0 .
93(5) 0.0 0.0 .
61(4) 0.0 0.0 .
48(4) 0.0 0.0 .
38.2(35) 0.0 0.00 .
36.8(34) 0.0 0.00 .
68(5) 0.0 0.0 .
218(8) 0.0 0.0 .
359(10) 0.0 0.0 .
722(14) 0.0 0.0 .
973(17) 0.0 0.0 .
1036(17) 0.0 0.0 .
1273(19) 0.0 0.0 .
1340(19) 0.0 0.0 .
1501(21) 0.0 0.0 .
1836(24) 0.0 0.0 .
1848(23) 0.0 0.0 .
2013(23) 0.0 0.0 .
2118(24) 0.0 0.0 .
1865(23) 0.0 0.0 .
1606(22) 0.0 0.0 .
1164(18) 0.0 0.0 .
639(13) 0.0 0.0 .
327(10) 0.0 0.0 .
213(8) 0.0 0.0 .
139(6) 0.0 0.0 .
70(4) 0.0 0.0 .
40.6(33) 0.0 0.00 .
42.2(35) 0.0 0.00 .
32.8(32) 0.0 0.00 .
28.7(30) 0.0 0.00 .
26.6(27) 0.0 0.00 .
32.3(31) 0.0 0.00 .
25.3(27) 0.0 0.00 .
28.8(29) 0.0 0.00 .
36.3(32) 0.0 0.00 .
39.4(33) 0.0 0.00 .
27.3(28) 0.0 0.00 .
36.6(33) 0.0 0.00 .
26.1(26) 0.0 0.00 .
37.4(33) 0.0 0.00 .
36.4(31) 0.0 0.00 .
30.6(29) 0.0 0.00 .
31.0(30) 0.0 0.00 .
31.8(33) 0.0 0.00 .
35.7(33) 0.0 0.00 .
33.0(29) 0.0 0.00 .
27.0(27) 0.0 0.00 .
31.4(30) 0.0 0.00 .
25.7(26) 0.0 0.00 .
28.9(28) 0.0 0.00 .
36.1(31) 0.0 0.00 .
30.9(30) 0.0 0.00 .
31.2(29) 0.0 0.00 .
37(4) 0.0 0.0 .
34.8(33) 0.0 0.00 .
32.7(29) 0.0 0.00 .
33.4(32) 0.0 0.00 .
30.7(32) 0.0 0.00 .
29.8(30) 0.0 0.00 .
36.4(33) 0.0 0.00 .
32.0(30) 0.0 0.00 .
43(4) 0.0 0.0 .
25.5(28) 0.0 0.00 .
36.4(32) 0.0 0.00 .
40.1(34) 0.0 0.00 .
32.7(30) 0.0 0.00 .
33.9(30) 0.0 0.00 .
46(4) 0.0 0.0 .
32.9(30) 0.0 0.00 .
31.7(29) 0.0 0.00 .
32.3(29) 0.0 0.00 .
38.0(32) 0.0 0.00 .
35.8(33) 0.0 0.00 .
42(4) 0.0 0.0 .
35.0(32) 0.0 0.00 .
39.4(32) 0.0 0.00 .
40.7(34) 0.0 0.00 .
38.1(34) 0.0 0.00 .
39.0(34) 0.0 0.00 .
59(4) 0.0 0.0 .
54(4) 0.0 0.0 .
66(4) 0.0 0.0 .
70(4) 0.0 0.0 .
72(5) 0.0 0.0 .
85(5) 0.0 0.0 .
93(5) 0.0 0.0 .
103(5) 0.0 0.0 .
111(6) 0.0 0.0 .
118(6) 0.0 0.0 .
108(5) 0.0 0.0 .
112(5) 0.0 0.0 .
132(6) 0.0 0.0 .
155(7) 0.0 0.0 .
170(7) 0.0 0.0 .
178(7) 0.0 0.0 .
177(7) 0.0 0.0 .
200(7) 0.0 0.0 .
203(8) 0.0 0.0 .
201(7) 0.0 0.0 .
238(8) 0.0 0.0 .
208(7) 0.0 0.0 .
222(8) 0.0 0.0 .
253(9) 0.0 0.0 .
241(8) 0.0 0.0 .
262(8) 0.0 0.0 .
287(9) 0.0 0.0 .
273(9) 0.0 0.0 .
260(9) 0.0 0.0 .
285(9) 0.0 0.0 .
300(9) 0.0 0.0 .
307(9) 0.0 0.0 .
311(9) 0.0 0.0 .
332(10) 0.0 0.0 .
338(10) 0.0 0.0 .
357(10) 0.0 0.0 .
367(10) 0.0 0.0 .
372(10) 0.0 0.0 .
365(10) 0.0 0.0 .
379(10) 0.0 0.0 .
386(10) 0.0 0.0 .
381(10) 0.0 0.0 .
432(11) 0.0 0.0 .
428(11) 0.0 0.0 .
413(11) 0.0 0.0 .
432(11) 0.0 0.0 .
432(11) 0.0 0.0 .
430(11) 0.0 0.0 .
459(12) 0.0 0.0 .
467(12) 0.0 0.0 .
476(11) 0.0 0.0 .
470(12) 0.0 0.0 .
476(12) 0.0 0.0 .
504(12) 0.0 0.0 .
492(12) 0.0 0.0 .
511(12) 0.0 0.0 .
513(12) 0.0 0.0 .
513(12) 0.0 0.0 .
497(12) 0.0 0.0 .
531(12) 0.0 0.0 .
549(12) 0.0 0.0 .
526(12) 0.0 0.0 .
525(13) 0.0 0.0 .
547(12) 0.0 0.0 .
563(12) 0.0 0.0 .
542(12) 0.0 0.0 .
565(13) 0.0 0.0 .
558(13) 0.0 0.0 .
535(12) 0.0 0.0 .
550(12) 0.0 0.0 .
543(12) 0.0 0.0 .
542(12) 0.0 0.0 .
565(13) 0.0 0.0 .
568(13) 0.0 0.0 .
599(13) 0.0 0.0 .
598(13) 0.0 0.0 .
599(13) 0.0 0.0 .
598(14) 0.0 0.0 .
578(13) 0.0 0.0 .
601(13) 0.0 0.0 .
595(13) 0.0 0.0 .
586(13) 0.0 0.0 .
577(13) 0.0 0.0 .
596(13) 0.0 0.0 .
600(13) 0.0 0.0 .
589(13) 0.0 0.0 .
616(13) 0.0 0.0 .
625(14) 0.0 0.0 .
646(14) 0.0 0.0 .
613(13) 0.0 0.0 .
627(13) 0.0 0.0 .
643(14) 0.0 0.0 .
646(14) 0.0 0.0 .
664(14) 0.0 0.0 .
620(13) 0.0 0.0 .
637(13) 0.0 0.0 .
626(13) 0.0 0.0 .
644(14) 0.0 0.0 .
692(14) 0.0 0.0 .
657(13) 0.0 0.0 .
655(14) 0.0 0.0 .
677(14) 0.0 0.0 .
676(14) 0.0 0.0 .
678(14) 0.0 0.0 .
672(13) 0.0 0.0 .
659(14) 0.0 0.0 .
692(15) 0.0 0.0 .
660(14) 0.0 0.0 .
683(14) 0.0 0.0 .
684(14) 0.0 0.0 .
661(14) 0.0 0.0 .
681(14) 0.0 0.0 .
696(14) 0.0 0.0 .
717(14) 0.0 0.0 .
717(14) 0.0 0.0 .
742(15) 0.0 0.0 .
713(15) 0.0 0.0 .
748(15) 0.0 0.0 .
696(14) 0.0 0.0 .
740(14) 0.0 0.0 .
733(15) 0.0 0.0 .
736(15) 0.0 0.0 .
711(14) 0.0 0.0 .
704(14) 0.0 0.0 .
725(14) 0.0 0.0 .
728(14) 0.0 0.0 .
761(15) 0.0 0.0 .
737(15) 0.0 0.0 .
719(14) 0.0 0.0 .
739(14) 0.0 0.0 .
744(15) 0.0 0.0 .
760(15) 0.0 0.0 .
765(15) 0.0 0.0 .
758(14) 0.0 0.0 .
794(15) 0.0 0.0 .
787(15) 0.0 0.0 .
826(16) 0.0 0.0 .
793(15) 0.0 0.0 .
786(15) 0.0 0.0 .
786(15) 0.0 0.0 .
757(15) 0.0 0.0 .
732(15) 0.0 0.0 .
778(15) 0.0 0.0 .
807(15) 0.0 0.0 .
822(15) 0.0 0.0 .
838(16) 0.0 0.0 .
797(15) 0.0 0.0 .
775(15) 0.0 0.0 .
804(15) 0.0 0.0 .
822(15) 0.0 0.0 .
776(15) 0.0 0.0 .
814(15) 0.0 0.0 .
795(15) 0.0 0.0 .
840(15) 0.0 0.0 .
841(15) 0.0 0.0 .
832(16) 0.0 0.0 .
859(16) 0.0 0.0 .
849(15) 0.0 0.0 .
833(15) 0.0 0.0 .
873(16) 0.0 0.0 .
844(16) 0.0 0.0 .
830(16) 0.0 0.0 .
836(15) 0.0 0.0 .
874(15) 0.0 0.0 .
841(16) 0.0 0.0 .
852(16) 0.0 0.0 .
843(16) 0.0 0.0 .
830(15) 0.0 0.0 .
844(15) 0.0 0.0 .
850(16) 0.0 0.0 .
849(16) 0.0 0.0 .
850(16) 0.0 0.0 .
876(15) 0.0 0.0 .
881(15) 0.0 0.0 .
860(16) 0.0 0.0 .
855(16) 0.0 0.0 .
901(16) 0.0 0.0 .
868(15) 0.0 0.0 .
863(15) 0.0 0.0 .
884(16) 0.0 0.0 .
861(16) 0.0 0.0 .
908(16) 0.0 0.0 .
899(16) 0.0 0.0 .
858(15) 0.0 0.0 .
884(16) 0.0 0.0 .
943(17) 0.0 0.0 .
927(16) 0.0 0.0 .
932(16) 0.0 0.0 .
894(16) 0.0 0.0 .
895(16) 0.0 0.0 .
892(16) 0.0 0.0 .
928(16) 0.0 0.0 .
934(16) 0.0 0.0 .
908(16) 0.0 0.0 .
922(16) 0.0 0.0 .
960(17) 0.0 0.0 .
908(16) 0.0 0.0 .
899(16) 0.0 0.0 .
914(16) 0.0 0.0 .
964(17) 0.0 0.0 .
964(17) 0.0 0.0 .
898(16) 0.0 0.0 .
957(16) 0.0 0.0 .
983(17) 0.0 0.0 .
923(16) 0.0 0.0 .
938(16) 0.0 0.0 .
922(16) 0.0 0.0 .
967(16) 0.0 0.0 .
940(16) 0.0 0.0 .
906(17) 0.0 0.0 .
922(16) 0.0 0.0 .
953(16) 0.0 0.0 .
933(16) 0.0 0.0 .
941(16) 0.0 0.0 .
1010(18) 0.0 0.0 .
959(17) 0.0 0.0 .
949(16) 0.0 0.0 .
959(16) 0.0 0.0 .
1006(17) 0.0 0.0 .
988(17) 0.0 0.0 .
985(17) 0.0 0.0 .
951(16) 0.0 0.0 .
908(16) 0.0 0.0 .
946(16) 0.0 0.0 .
976(17) 0.0 0.0 .
987(17) 0.0 0.0 .
981(16) 0.0 0.0 .
1026(17) 0.0 0.0 .
974(17) 0.0 0.0 .
973(17) 0.0 0.0 .
908(16) 0.0 0.0 .
1003(16) 0.0 0.0 .
1057(17) 0.0 0.0 .
988(17) 0.0 0.0 .
997(17) 0.0 0.0 .
1017(17) 0.0 0.0 .
1020(17) 0.0 0.0 .
961(16) 0.0 0.0 .
1027(17) 0.0 0.0 .
1017(18) 0.0 0.0 .
1009(17) 0.0 0.0 .
1012(16) 0.0 0.0 .
1013(17) 0.0 0.0 .
1022(17) 0.0 0.0 .
976(17) 0.0 0.0 .
1010(17) 0.0 0.0 .
1032(17) 0.0 0.0 .
1040(17) 0.0 0.0 .
1062(18) 0.0 0.0 .
1048(18) 0.0 0.0 .
1074(17) 0.0 0.0 .
1051(17) 0.0 0.0 .
1010(17) 0.0 0.0 .
1035(18) 0.0 0.0 .
999(17) 0.0 0.0 .
1048(17) 0.0 0.0 .
1073(17) 0.0 0.0 .
1092(18) 0.0 0.0 .
1063(18) 0.0 0.0 .
1109(18) 0.0 0.0 .
1087(17) 0.0 0.0 .
1161(18) 0.0 0.0 .
1102(18) 0.0 0.0 .
1147(19) 0.0 0.0 .
1084(18) 0.0 0.0 .
1088(17) 0.0 0.0 .
1093(17) 0.0 0.0 .
1149(18) 0.0 0.0 .
1094(18) 0.0 0.0 .
1118(18) 0.0 0.0 .
1154(18) 0.0 0.0 .
1141(18) 0.0 0.0 .
1123(18) 0.0 0.0 .
1138(19) 0.0 0.0 .
1139(18) 0.0 0.0 .
1206(18) 0.0 0.0 .
1145(18) 0.0 0.0 .
1189(19) 0.0 0.0 .
1142(19) 0.0 0.0 .
1130(18) 0.0 0.0 .
1140(18) 0.0 0.0 .
1154(18) 0.0 0.0 .
1178(18) 0.0 0.0 .
1190(19) 0.0 0.0 .
1171(18) 0.0 0.0 .
1181(18) 0.0 0.0 .
1165(18) 0.0 0.0 .
1199(19) 0.0 0.0 .
1221(19) 0.0 0.0 .
1185(19) 0.0 0.0 .
1191(18) 0.0 0.0 .
1204(18) 0.0 0.0 .
1202(19) 0.0 0.0 .
1175(18) 0.0 0.0 .
1216(19) 0.0 0.0 .
1244(18) 0.0 0.0 .
1234(19) 0.0 0.0 .
1231(19) 0.0 0.0 .
1257(19) 0.0 0.0 .
1267(19) 0.0 0.0 .
1262(18) 0.0 0.0 .
1234(19) 0.0 0.0 .
1243(19) 0.0 0.0 .
1281(19) 0.0 0.0 .
1259(19) 0.0 0.0 .
1282(19) 0.0 0.0 .
1251(19) 0.0 0.0 .
1250(19) 0.0 0.0 .
1285(19) 0.0 0.0 .
1271(19) 0.0 0.0 .
1247(18) 0.0 0.0 .
1302(19) 0.0 0.0 .
1335(20) 0.0 0.0 .
1301(19) 0.0 0.0 .
1302(19) 0.0 0.0 .
1317(19) 0.0 0.0 .
1319(20) 0.0 0.0 .
1313(20) 0.0 0.0 .
1286(19) 0.0 0.0 .
1335(19) 0.0 0.0 .
1279(19) 0.0 0.0 .
1315(20) 0.0 0.0 .
1285(20) 0.0 0.0 .
1350(20) 0.0 0.0 .
1302(19) 0.0 0.0 .
1303(19) 0.0 0.0 .
1308(19) 0.0 0.0 .
1358(20) 0.0 0.0 .
1300(19) 0.0 0.0 .
1328(19) 0.0 0.0 .
1298(19) 0.0 0.0 .
1332(20) 0.0 0.0 .
1326(20) 0.0 0.0 .
1368(20) 0.0 0.0 .
1407(19) 0.0 0.0 .
1312(19) 0.0 0.0 .
1341(20) 0.0 0.0 .
1318(20) 0.0 0.0 .
1312(20) 0.0 0.0 .
1347(19) 0.0 0.0 .
1328(19) 0.0 0.0 .
1287(19) 0.0 0.0 .
1342(20) 0.0 0.0 .
1395(20) 0.0 0.0 .
1366(19) 0.0 0.0 .
1328(19) 0.0 0.0 .
1323(20) 0.0 0.0 .
1331(20) 0.0 0.0 .
1389(20) 0.0 0.0 .
1330(19) 0.0 0.0 .
1322(19) 0.0 0.0 .
1380(20) 0.0 0.0 .
1363(20) 0.0 0.0 .
1383(20) 0.0 0.0 .
1356(19) 0.0 0.0 .
1347(20) 0.0 0.0 .
1354(20) 0.0 0.0 .
1363(20) 0.0 0.0 .
1346(19) 0.0 0.0 .
1352(19) 0.0 0.0 .
1321(19) 0.0 0.0 .
1318(20) 0.0 0.0 .
1309(19) 0.0 0.0 .
1330(19) 0.0 0.0 .
1333(19) 0.0 0.0 .
1301(19) 0.0 0.0 .
1365(20) 0.0 0.0 .
1371(20) 0.0 0.0 .
1348(19) 0.0 0.0 .
1325(19) 0.0 0.0 .
1373(20) 0.0 0.0 .
1369(20) 0.0 0.0 .
1383(20) 0.0 0.0 .
1390(19) 0.0 0.0 .
1337(19) 0.0 0.0 .
1382(20) 0.0 0.0 .
1339(20) 0.0 0.0 .
1310(19) 0.0 0.0 .
1310(19) 0.0 0.0 .
1365(19) 0.0 0.0 .
1363(20) 0.0 0.0 .
1356(20) 0.0 0.0 .
1408(20) 0.0 0.0 .
1328(19) 0.0 0.0 .
1314(19) 0.0 0.0 .
1350(20) 0.0 0.0 .
1391(20) 0.0 0.0 .
1397(20) 0.0 0.0 .
1318(19) 0.0 0.0 .
1384(19) 0.0 0.0 .
1346(20) 0.0 0.0 .
1325(20) 0.0 0.0 .
1352(20) 0.0 0.0 .
1399(19) 0.0 0.0 .
1300(19) 0.0 0.0 .
1345(20) 0.0 0.0 .
1312(20) 0.0 0.0 .
1353(20) 0.0 0.0 .
1335(19) 0.0 0.0 .
1363(20) 0.0 0.0 .
1340(20) 0.0 0.0 .
1363(20) 0.0 0.0 .
1342(19) 0.0 0.0 .
1348(19) 0.0 0.0 .
1408(20) 0.0 0.0 .
1355(20) 0.0 0.0 .
1313(20) 0.0 0.0 .
1318(19) 0.0 0.0 .
1366(19) 0.0 0.0 .
1365(20) 0.0 0.0 .
1314(20) 0.0 0.0 .
1334(20) 0.0 0.0 .
1340(19) 0.0 0.0 .
1346(19) 0.0 0.0 .
1318(20) 0.0 0.0 .
1327(20) 0.0 0.0 .
1369(20) 0.0 0.0 .
1412(20) 0.0 0.0 .
1385(19) 0.0 0.0 .
1349(20) 0.0 0.0 .
1342(20) 0.0 0.0 .
1338(20) 0.0 0.0 .
1379(19) 0.0 0.0 .
1344(19) 0.0 0.0 .
1384(20) 0.0 0.0 .
1405(21) 0.0 0.0 .
1377(20) 0.0 0.0 .
1365(19) 0.0 0.0 .
1316(19) 0.0 0.0 .
1350(20) 0.0 0.0 .
1340(20) 0.0 0.0 .
1395(20) 0.0 0.0 .
1370(19) 0.0 0.0 .
1351(19) 0.0 0.0 .
1353(20) 0.0 0.0 .
1282(20) 0.0 0.0 .
1325(19) 0.0 0.0 .
1400(19) 0.0 0.0 .
1303(19) 0.0 0.0 .
1308(19) 0.0 0.0 .
1330(20) 0.0 0.0 .
1339(20) 0.0 0.0 .
1314(19) 0.0 0.0 .
1336(19) 0.0 0.0 .
1335(20) 0.0 0.0 .
1346(20) 0.0 0.0 .
1255(19) 0.0 0.0 .
1301(19) 0.0 0.0 .
1354(20) 0.0 0.0 .
1290(19) 0.0 0.0 .
1336(20) 0.0 0.0 .
1339(20) 0.0 0.0 .
1327(19) 0.0 0.0 .
1301(19) 0.0 0.0 .
1317(20) 0.0 0.0 .
1377(20) 0.0 0.0 .
1336(19) 0.0 0.0 .
1303(19) 0.0 0.0 .
1339(20) 0.0 0.0 .
1354(20) 0.0 0.0 .
1322(20) 0.0 0.0 .
1358(19) 0.0 0.0 .
1291(19) 0.0 0.0 .
1315(19) 0.0 0.0 .
1303(20) 0.0 0.0 .
1286(19) 0.0 0.0 .
1327(19) 0.0 0.0 .
1347(19) 0.0 0.0 .
1320(19) 0.0 0.0 .
1328(20) 0.0 0.0 .
1316(19) 0.0 0.0 .
1306(19) 0.0 0.0 .
1314(19) 0.0 0.0 .
1357(20) 0.0 0.0 .
1314(20) 0.0 0.0 .
1289(19) 0.0 0.0 .
1309(19) 0.0 0.0 .
1273(18) 0.0 0.0 .
1329(19) 0.0 0.0 .
1358(20) 0.0 0.0 .
1342(20) 0.0 0.0 .
1336(19) 0.0 0.0 .
1291(19) 0.0 0.0 .
1348(20) 0.0 0.0 .
1315(20) 0.0 0.0 .
1276(19) 0.0 0.0 .
1284(19) 0.0 0.0 .
1272(19) 0.0 0.0 .
1318(19) 0.0 0.0 .
1323(20) 0.0 0.0 .
1280(19) 0.0 0.0 .
1323(19) 0.0 0.0 .
1344(19) 0.0 0.0 .
1266(19) 0.0 0.0 .
1283(20) 0.0 0.0 .
1308(19) 0.0 0.0 .
1299(19) 0.0 0.0 .
1293(19) 0.0 0.0 .
1294(20) 0.0 0.0 .
1317(20) 0.0 0.0 .
1245(19) 0.0 0.0 .
1261(18) 0.0 0.0 .
1306(19) 0.0 0.0 .
1321(20) 0.0 0.0 .
1239(19) 0.0 0.0 .
1249(19) 0.0 0.0 .
1266(19) 0.0 0.0 .
1304(19) 0.0 0.0 .
1298(20) 0.0 0.0 .
1317(20) 0.0 0.0 .
1290(19) 0.0 0.0 .
1329(19) 0.0 0.0 .
1279(19) 0.0 0.0 .
1280(20) 0.0 0.0 .
1256(19) 0.0 0.0 .
1223(18) 0.0 0.0 .
1256(18) 0.0 0.0 .
1339(20) 0.0 0.0 .
1253(20) 0.0 0.0 .
1300(20) 0.0 0.0 .
1252(18) 0.0 0.0 .
1277(19) 0.0 0.0 .
1309(19) 0.0 0.0 .
1311(20) 0.0 0.0 .
1298(19) 0.0 0.0 .
1270(18) 0.0 0.0 .
1301(19) 0.0 0.0 .
1256(19) 0.0 0.0 .
1270(20) 0.0 0.0 .
1261(19) 0.0 0.0 .
1250(18) 0.0 0.0 .
1295(19) 0.0 0.0 .
1271(19) 0.0 0.0 .
1249(19) 0.0 0.0 .
1289(19) 0.0 0.0 .
1280(18) 0.0 0.0 .
1265(19) 0.0 0.0 .
1229(19) 0.0 0.0 .
1210(19) 0.0 0.0 .
1227(19) 0.0 0.0 .
1274(19) 0.0 0.0 .
1232(18) 0.0 0.0 .
1272(19) 0.0 0.0 .
1275(20) 0.0 0.0 .
1226(19) 0.0 0.0 .
1265(18) 0.0 0.0 .
1269(19) 0.0 0.0 .
1255(19) 0.0 0.0 .
1224(19) 0.0 0.0 .
1229(19) 0.0 0.0 .
1217(18) 0.0 0.0 .
1179(18) 0.0 0.0 .
1287(19) 0.0 0.0 .
1264(19) 0.0 0.0 .
1244(19) 0.0 0.0 .
1288(19) 0.0 0.0 .
1253(19) 0.0 0.0 .
1256(19) 0.0 0.0 .
1241(19) 0.0 0.0 .
1193(18) 0.0 0.0 .
1283(19) 0.0 0.0 .
1195(19) 0.0 0.0 .
1230(19) 0.0 0.0 .
1237(19) 0.0 0.0 .
1240(18) 0.0 0.0 .
1183(18) 0.0 0.0 .
1230(19) 0.0 0.0 .
1212(19) 0.0 0.0 .
1201(19) 0.0 0.0 .
1234(18) 0.0 0.0 .
1223(18) 0.0 0.0 .
1225(19) 0.0 0.0 .
1263(20) 0.0 0.0 .
1173(18) 0.0 0.0 .
1228(18) 0.0 0.0 .
1255(18) 0.0 0.0 .
1231(19) 0.0 0.0 .
1149(19) 0.0 0.0 .
1248(19) 0.0 0.0 .
1214(18) 0.0 0.0 .
1218(18) 0.0 0.0 .
1243(19) 0.0 0.0 .
1250(20) 0.0 0.0 .
1290(19) 0.0 0.0 .
1220(18) 0.0 0.0 .
1185(18) 0.0 0.0 .
1218(19) 0.0 0.0 .
1209(19) 0.0 0.0 .
1164(18) 0.0 0.0 .
1175(18) 0.0 0.0 .
1212(18) 0.0 0.0 .
1245(19) 0.0 0.0 .
1243(19) 0.0 0.0 .
1212(19) 0.0 0.0 .
1173(18) 0.0 0.0 .
1225(19) 0.0 0.0 .
1208(19) 0.0 0.0 .
1166(19) 0.0 0.0 .
1180(18) 0.0 0.0 .
1164(18) 0.0 0.0 .
1157(18) 0.0 0.0 .
1180(18) 0.0 0.0 .
1229(19) 0.0 0.0 .
1199(18) 0.0 0.0 .
1178(18) 0.0 0.0 .
1167(18) 0.0 0.0 .
1215(19) 0.0 0.0 .
1208(19) 0.0 0.0 .
1220(18) 0.0 0.0 .
1173(18) 0.0 0.0 .
1202(19) 0.0 0.0 .
1172(19) 0.0 0.0 .
1201(19) 0.0 0.0 .
1151(18) 0.0 0.0 .
1178(18) 0.0 0.0 .
1265(19) 0.0 0.0 .
1204(19) 0.0 0.0 .
1165(18) 0.0 0.0 .
1164(18) 0.0 0.0 .
1214(18) 0.0 0.0 .
1162(18) 0.0 0.0 .
1152(19) 0.0 0.0 .
1182(18) 0.0 0.0 .
1218(18) 0.0 0.0 .
1187(18) 0.0 0.0 .
1152(18) 0.0 0.0 .
1178(19) 0.0 0.0 .
1123(18) 0.0 0.0 .
1143(18) 0.0 0.0 .
1194(18) 0.0 0.0 .
1169(18) 0.0 0.0 .
1153(19) 0.0 0.0 .
1173(18) 0.0 0.0 .
1164(18) 0.0 0.0 .
1169(18) 0.0 0.0 .
1139(18) 0.0 0.0 .
1123(18) 0.0 0.0 .
1186(18) 0.0 0.0 .
1185(18) 0.0 0.0 .
1182(18) 0.0 0.0 .
1180(19) 0.0 0.0 .
1143(19) 0.0 0.0 .
1139(18) 0.0 0.0 .
1176(18) 0.0 0.0 .
1112(18) 0.0 0.0 .
1173(19) 0.0 0.0 .
1201(19) 0.0 0.0 .
1105(18) 0.0 0.0 .
1150(18) 0.0 0.0 .
1183(18) 0.0 0.0 .
1188(19) 0.0 0.0 .
1137(18) 0.0 0.0 .
1149(18) 0.0 0.0 .
1160(18) 0.0 0.0 .
1144(18) 0.0 0.0 .
1213(19) 0.0 0.0 .
1165(19) 0.0 0.0 .
1102(17) 0.0 0.0 .
1123(17) 0.0 0.0 .
1125(18) 0.0 0.0 .
1118(18) 0.0 0.0 .
1156(18) 0.0 0.0 .
1175(18) 0.0 0.0 .
1180(18) 0.0 0.0 .
1126(18) 0.0 0.0 .
1162(19) 0.0 0.0 .
1133(18) 0.0 0.0 .
1154(18) 0.0 0.0 .
1119(17) 0.0 0.0 .
1086(18) 0.0 0.0 .
1099(18) 0.0 0.0 .
1162(18) 0.0 0.0 .
1162(18) 0.0 0.0 .
1112(17) 0.0 0.0 .
1116(18) 0.0 0.0 .
1126(19) 0.0 0.0 .
1078(17) 0.0 0.0 .
1143(18) 0.0 0.0 .
1127(17) 0.0 0.0 .
1115(18) 0.0 0.0 .
1127(19) 0.0 0.0 .
1094(18) 0.0 0.0 .
1085(17) 0.0 0.0 .
1103(17) 0.0 0.0 .
1162(18) 0.0 0.0 .
1091(18) 0.0 0.0 .
1101(18) 0.0 0.0 .
1118(17) 0.0 0.0 .
1095(17) 0.0 0.0 .
1135(18) 0.0 0.0 .
1118(18) 0.0 0.0 .
1100(18) 0.0 0.0 .
1083(17) 0.0 0.0 .
1058(17) 0.0 0.0 .
1085(18) 0.0 0.0 .
1146(18) 0.0 0.0 .
1109(18) 0.0 0.0 .
1124(17) 0.0 0.0 .
1107(18) 0.0 0.0 .
1099(18) 0.0 0.0 .
1119(18) 0.0 0.0 .
1124(18) 0.0 0.0 .
1134(17) 0.0 0.0 .
1098(18) 0.0 0.0 .
1070(18) 0.0 0.0 .
1133(18) 0.0 0.0 .
1054(17) 0.0 0.0 .
1071(17) 0.0 0.0 .
1101(18) 0.0 0.0 .
1086(18) 0.0 0.0 .
1111(18) 0.0 0.0 .
1068(17) 0.0 0.0 .
1079(17) 0.0 0.0 .
1061(18) 0.0 0.0 .
1058(18) 0.0 0.0 .
1079(18) 0.0 0.0 .
1054(17) 0.0 0.0 .
1127(17) 0.0 0.0 .
1071(18) 0.0 0.0 .
1071(18) 0.0 0.0 .
1054(17) 0.0 0.0 .
1118(17) 0.0 0.0 .
1099(17) 0.0 0.0 .
1102(18) 0.0 0.0 .
1071(18) 0.0 0.0 .
1050(17) 0.0 0.0 .
1052(17) 0.0 0.0 .
1086(17) 0.0 0.0 .
1083(18) 0.0 0.0 .
1081(18) 0.0 0.0 .
1017(17) 0.0 0.0 .
1033(17) 0.0 0.0 .
1088(17) 0.0 0.0 .
1057(17) 0.0 0.0 .
1080(18) 0.0 0.0 .
1052(17) 0.0 0.0 .
1094(17) 0.0 0.0 .
1042(17) 0.0 0.0 .
1086(18) 0.0 0.0 .
1048(18) 0.0 0.0 .
1041(18) 0.0 0.0 .
1043(17) 0.0 0.0 .
1079(17) 0.0 0.0 .
1059(17) 0.0 0.0 .
1086(18) 0.0 0.0 .
1058(17) 0.0 0.0 .
1051(17) 0.0 0.0 .
1072(18) 0.0 0.0 .
1060(18) 0.0 0.0 .
1054(18) 0.0 0.0 .
1066(17) 0.0 0.0 .
1092(17) 0.0 0.0 .
1034(17) 0.0 0.0 .
1053(17) 0.0 0.0 .
1103(18) 0.0 0.0 .
1097(18) 0.0 0.0 .
1011(16) 0.0 0.0 .
1034(17) 0.0 0.0 .
1043(18) 0.0 0.0 .
1052(17) 0.0 0.0 .
1089(17) 0.0 0.0 .
1026(17) 0.0 0.0 .
1059(18) 0.0 0.0 .
1103(18) 0.0 0.0 .
1048(17) 0.0 0.0 .
1045(17) 0.0 0.0 .
1031(17) 0.0 0.0 .
1028(17) 0.0 0.0 .
1057(18) 0.0 0.0 .
1048(17) 0.0 0.0 .
1008(17) 0.0 0.0 .
1015(16) 0.0 0.0 .
1032(17) 0.0 0.0 .
1043(18) 0.0 0.0 .
1043(17) 0.0 0.0 .
1042(17) 0.0 0.0 .
1106(17) 0.0 0.0 .
1053(17) 0.0 0.0 .
1071(18) 0.0 0.0 .
1039(17) 0.0 0.0 .
990(16) 0.0 0.0 .
1054(17) 0.0 0.0 .
1059(18) 0.0 0.0 .
995(17) 0.0 0.0 .
1059(17) 0.0 0.0 .
1068(17) 0.0 0.0 .
1045(17) 0.0 0.0 .
1057(17) 0.0 0.0 .
1006(17) 0.0 0.0 .
998(17) 0.0 0.0 .
1090(17) 0.0 0.0 .
1055(17) 0.0 0.0 .
1036(17) 0.0 0.0 .
998(17) 0.0 0.0 .
1037(17) 0.0 0.0 .
1013(16) 0.0 0.0 .
1036(17) 0.0 0.0 .
1011(17) 0.0 0.0 .
986(17) 0.0 0.0 .
1034(17) 0.0 0.0 .
1028(17) 0.0 0.0 .
968(17) 0.0 0.0 .
1054(18) 0.0 0.0 .
988(17) 0.0 0.0 .
1045(17) 0.0 0.0 .
1011(16) 0.0 0.0 .
1025(17) 0.0 0.0 .
1035(18) 0.0 0.0 .
1041(17) 0.0 0.0 .
1044(17) 0.0 0.0 .
1000(16) 0.0 0.0 .
1016(17) 0.0 0.0 .
1033(18) 0.0 0.0 .
1009(17) 0.0 0.0 .
979(16) 0.0 0.0 .
1036(17) 0.0 0.0 .
1051(17) 0.0 0.0 .
1048(18) 0.0 0.0 .
1047(17) 0.0 0.0 .
1021(17) 0.0 0.0 .
1032(17) 0.0 0.0 .
1031(17) 0.0 0.0 .
1016(18) 0.0 0.0 .
1024(17) 0.0 0.0 .
1014(17) 0.0 0.0 .
1049(17) 0.0 0.0 .
1030(17) 0.0 0.0 .
995(18) 0.0 0.0 .
1004(17) 0.0 0.0 .
967(16) 0.0 0.0 .
1049(17) 0.0 0.0 .
981(17) 0.0 0.0 .
998(17) 0.0 0.0 .
1005(17) 0.0 0.0 .
1008(16) 0.0 0.0 .
1005(17) 0.0 0.0 .
976(17) 0.0 0.0 .
1018(18) 0.0 0.0 .
1038(17) 0.0 0.0 .
987(16) 0.0 0.0 .
992(17) 0.0 0.0 .
949(16) 0.0 0.0 .
966(17) 0.0 0.0 .
989(17) 0.0 0.0 .
1029(17) 0.0 0.0 .
979(16) 0.0 0.0 .
965(17) 0.0 0.0 .
997(17) 0.0 0.0 .
971(17) 0.0 0.0 .
983(16) 0.0 0.0 .
947(16) 0.0 0.0 .
995(17) 0.0 0.0 .
1006(17) 0.0 0.0 .
975(16) 0.0 0.0 .
996(16) 0.0 0.0 .
1010(17) 0.0 0.0 .
1021(17) 0.0 0.0 .
1002(17) 0.0 0.0 .
984(17) 0.0 0.0 .
979(16) 0.0 0.0 .
1019(17) 0.0 0.0 .
992(17) 0.0 0.0 .
938(16) 0.0 0.0 .
1005(17) 0.0 0.0 .
981(16) 0.0 0.0 .
1008(17) 0.0 0.0 .
966(17) 0.0 0.0 .
1006(17) 0.0 0.0 .
974(16) 0.0 0.0 .
1009(16) 0.0 0.0 .
966(17) 0.0 0.0 .
963(17) 0.0 0.0 .
970(17) 0.0 0.0 .
1040(17) 0.0 0.0 .
1011(16) 0.0 0.0 .
973(17) 0.0 0.0 .
968(17) 0.0 0.0 .
996(17) 0.0 0.0 .
959(16) 0.0 0.0 .
966(16) 0.0 0.0 .
963(17) 0.0 0.0 .
949(17) 0.0 0.0 .
958(17) 0.0 0.0 .
992(16) 0.0 0.0 .
984(16) 0.0 0.0 .
930(16) 0.0 0.0 .
963(17) 0.0 0.0 .
955(17) 0.0 0.0 .
994(16) 0.0 0.0 .
971(16) 0.0 0.0 .
963(17) 0.0 0.0 .
945(17) 0.0 0.0 .
932(16) 0.0 0.0 .
913(16) 0.0 0.0 .
921(16) 0.0 0.0 .
942(17) 0.0 0.0 .
980(17) 0.0 0.0 .
952(16) 0.0 0.0 .
939(16) 0.0 0.0 .
970(17) 0.0 0.0 .
948(17) 0.0 0.0 .
921(16) 0.0 0.0 .
982(17) 0.0 0.0 .
951(16) 0.0 0.0 .
927(16) 0.0 0.0 .
966(17) 0.0 0.0 .
941(16) 0.0 0.0 .
973(16) 0.0 0.0 .
933(16) 0.0 0.0 .
961(17) 0.0 0.0 .
907(16) 0.0 0.0 .
946(17) 0.0 0.0 .
925(16) 0.0 0.0 .
952(16) 0.0 0.0 .
942(17) 0.0 0.0 .
943(17) 0.0 0.0 .
971(17) 0.0 0.0 .
965(16) 0.0 0.0 .
934(16) 0.0 0.0 .
935(17) 0.0 0.0 .
929(17) 0.0 0.0 .
942(16) 0.0 0.0 .
952(16) 0.0 0.0 .
891(15) 0.0 0.0 .
913(16) 0.0 0.0 .
920(17) 0.0 0.0 .
916(16) 0.0 0.0 .
915(16) 0.0 0.0 .
943(16) 0.0 0.0 .
956(17) 0.0 0.0 .
954(17) 0.0 0.0 .
932(16) 0.0 0.0 .
900(16) 0.0 0.0 .
905(16) 0.0 0.0 .
921(16) 0.0 0.0 .
911(17) 0.0 0.0 .
921(16) 0.0 0.0 .
928(16) 0.0 0.0 .
938(16) 0.0 0.0 .
925(16) 0.0 0.0 .
896(16) 0.0 0.0 .
933(16) 0.0 0.0 .
917(16) 0.0 0.0 .
880(16) 0.0 0.0 .
880(16) 0.0 0.0 .
901(16) 0.0 0.0 .
918(16) 0.0 0.0 .
943(16) 0.0 0.0 .
904(16) 0.0 0.0 .
933(17) 0.0 0.0 .
910(16) 0.0 0.0 .
876(16) 0.0 0.0 .
888(15) 0.0 0.0 .
913(16) 0.0 0.0 .
889(16) 0.0 0.0 .
901(16) 0.0 0.0 .
875(16) 0.0 0.0 .
878(15) 0.0 0.0 .
878(16) 0.0 0.0 .
922(17) 0.0 0.0 .
866(16) 0.0 0.0 .
852(15) 0.0 0.0 .
880(15) 0.0 0.0 .
910(16) 0.0 0.0 .
889(16) 0.0 0.0 .
858(16) 0.0 0.0 .
927(16) 0.0 0.0 .
856(15) 0.0 0.0 .
881(16) 0.0 0.0 .
869(16) 0.0 0.0 .
886(16) 0.0 0.0 .
884(15) 0.0 0.0 .
889(15) 0.0 0.0 .
894(16) 0.0 0.0 .
889(16) 0.0 0.0 .
917(16) 0.0 0.0 .
883(15) 0.0 0.0 .
895(16) 0.0 0.0 .
900(16) 0.0 0.0 .
916(17) 0.0 0.0 .
898(16) 0.0 0.0 .
887(16) 0.0 0.0 .
866(15) 0.0 0.0 .
845(16) 0.0 0.0 .
841(16) 0.0 0.0 .
876(16) 0.0 0.0 .
845(15) 0.0 0.0 .
882(15) 0.0 0.0 .
872(16) 0.0 0.0 .
810(15) 0.0 0.0 .
898(16) 0.0 0.0 .
893(15) 0.0 0.0 .
877(16) 0.0 0.0 .
827(15) 0.0 0.0 .
882(16) 0.0 0.0 .
849(16) 0.0 0.0 .
896(16) 0.0 0.0 .
909(16) 0.0 0.0 .
890(16) 0.0 0.0 .
886(16) 0.0 0.0 .
897(16) 0.0 0.0 .
875(15) 0.0 0.0 .
893(16) 0.0 0.0 .
849(16) 0.0 0.0 .
868(16) 0.0 0.0 .
868(16) 0.0 0.0 .
904(16) 0.0 0.0 .
847(16) 0.0 0.0 .
839(16) 0.0 0.0 .
869(16) 0.0 0.0 .
879(16) 0.0 0.0 .
878(15) 0.0 0.0 .
894(16) 0.0 0.0 .
864(16) 0.0 0.0 .
854(16) 0.0 0.0 .
840(15) 0.0 0.0 .
882(15) 0.0 0.0 .
853(16) 0.0 0.0 .
862(16) 0.0 0.0 .
849(16) 0.0 0.0 .
825(15) 0.0 0.0 .
845(15) 0.0 0.0 .
816(15) 0.0 0.0 .
866(16) 0.0 0.0 .
847(16) 0.0 0.0 .
863(15) 0.0 0.0 .
858(15) 0.0 0.0 .
842(16) 0.0 0.0 .
838(16) 0.0 0.0 .
882(16) 0.0 0.0 .
858(15) 0.0 0.0 .
820(15) 0.0 0.0 .
832(16) 0.0 0.0 .
842(16) 0.0 0.0 .
836(15) 0.0 0.0 .
860(15) 0.0 0.0 .
851(15) 0.0 0.0 .
864(16) 0.0 0.0 .
821(16) 0.0 0.0 .
871(16) 0.0 0.0 .
910(16) 0.0 0.0 .
836(15) 0.0 0.0 .
866(16) 0.0 0.0 .
823(16) 0.0 0.0 .
812(15) 0.0 0.0 .
834(15) 0.0 0.0 .
846(15) 0.0 0.0 .
855(16) 0.0 0.0 .
850(16) 0.0 0.0 .
832(15) 0.0 0.0 .
823(15) 0.0 0.0 .
813(15) 0.0 0.0 .
825(16) 0.0 0.0 .
810(15) 0.0 0.0 .
807(15) 0.0 0.0 .
823(15) 0.0 0.0 .
814(15) 0.0 0.0 .
796(15) 0.0 0.0 .
845(16) 0.0 0.0 .
836(15) 0.0 0.0 .
791(15) 0.0 0.0 .
835(16) 0.0 0.0 .
852(16) 0.0 0.0 .
823(15) 0.0 0.0 .
815(15) 0.0 0.0 .
833(15) 0.0 0.0 .
844(16) 0.0 0.0 .
829(16) 0.0 0.0 .
865(16) 0.0 0.0 .
792(15) 0.0 0.0 .
827(15) 0.0 0.0 .
792(15) 0.0 0.0 .
810(16) 0.0 0.0 .
835(15) 0.0 0.0 .
815(15) 0.0 0.0 .
826(15) 0.0 0.0 .
807(15) 0.0 0.0 .
822(16) 0.0 0.0 .
812(15) 0.0 0.0 .
838(15) 0.0 0.0 .
837(15) 0.0 0.0 .
837(16) 0.0 0.0 .
874(17) 0.0 0.0 .
820(15) 0.0 0.0 .
835(15) 0.0 0.0 .
839(15) 0.0 0.0 .
851(16) 0.0 0.0 .
823(16) 0.0 0.0 .
824(16) 0.0 0.0 .
836(15) 0.0 0.0 .
806(15) 0.0 0.0 .
828(16) 0.0 0.0 .
824(16) 0.0 0.0 .
794(15) 0.0 0.0 .
836(15) 0.0 0.0 .
829(15) 0.0 0.0 .
799(15) 0.0 0.0 .
813(16) 0.0 0.0 .
791(15) 0.0 0.0 .
803(15) 0.0 0.0 .
814(15) 0.0 0.0 .
781(15) 0.0 0.0 .
857(16) 0.0 0.0 .
838(15) 0.0 0.0 .
826(15) 0.0 0.0 .
837(16) 0.0 0.0 .
838(16) 0.0 0.0 .
802(15) 0.0 0.0 .
789(15) 0.0 0.0 .
820(15) 0.0 0.0 .
837(16) 0.0 0.0 .
799(15) 0.0 0.0 .
811(15) 0.0 0.0 .
788(15) 0.0 0.0 .
791(15) 0.0 0.0 .
801(15) 0.0 0.0 .
846(16) 0.0 0.0 .
813(15) 0.0 0.0 .
795(15) 0.0 0.0 .
804(15) 0.0 0.0 .
816(15) 0.0 0.0 .
799(16) 0.0 0.0 .
821(16) 0.0 0.0 .
798(15) 0.0 0.0 .
793(15) 0.0 0.0 .
841(16) 0.0 0.0 .
832(16) 0.0 0.0 .
800(15) 0.0 0.0 .
812(15) 0.0 0.0 .
818(15) 0.0 0.0 .
815(15) 0.0 0.0 .
820(16) 0.0 0.0 .
819(16) 0.0 0.0 .
797(15) 0.0 0.0 .
824(15) 0.0 0.0 .
846(16) 0.0 0.0 .
822(16) 0.0 0.0 .
794(15) 0.0 0.0 .
815(15) 0.0 0.0 .
757(14) 0.0 0.0 .
808(15) 0.0 0.0 .
824(16) 0.0 0.0 .
811(15) 0.0 0.0 .
795(15) 0.0 0.0 .
790(15) 0.0 0.0 .
819(15) 0.0 0.0 .
859(16) 0.0 0.0 .
809(15) 0.0 0.0 .
826(15) 0.0 0.0 .
786(15) 0.0 0.0 .
812(16) 0.0 0.0 .
796(15) 0.0 0.0 .
801(15) 0.0 0.0 .
788(15) 0.0 0.0 .
787(15) 0.0 0.0 .
811(15) 0.0 0.0 .
810(15) 0.0 0.0 .
803(15) 0.0 0.0 .
786(15) 0.0 0.0 .
798(15) 0.0 0.0 .
780(15) 0.0 0.0 .
781(15) 0.0 0.0 .
771(14) 0.0 0.0 .
774(15) 0.0 0.0 .
791(15) 0.0 0.0 .
859(16) 0.0 0.0 .
865(16) 0.0 0.0 .
796(15) 0.0 0.0 .
771(14) 0.0 0.0 .
801(15) 0.0 0.0 .
752(15) 0.0 0.0 .
794(15) 0.0 0.0 .
778(14) 0.0 0.0 .
808(15) 0.0 0.0 .
790(15) 0.0 0.0 .
789(16) 0.0 0.0 .
767(15) 0.0 0.0 .
766(14) 0.0 0.0 .
804(15) 0.0 0.0 .
801(15) 0.0 0.0 .
816(16) 0.0 0.0 .
778(15) 0.0 0.0 .
785(14) 0.0 0.0 .
757(14) 0.0 0.0 .
806(15) 0.0 0.0 .
778(15) 0.0 0.0 .
755(15) 0.0 0.0 .
769(14) 0.0 0.0 .
800(15) 0.0 0.0 .
751(15) 0.0 0.0 .
748(15) 0.0 0.0 .
785(15) 0.0 0.0 .
805(15) 0.0 0.0 .
775(15) 0.0 0.0 .
770(15) 0.0 0.0 .
735(15) 0.0 0.0 .
744(15) 0.0 0.0 .
792(15) 0.0 0.0 .
777(15) 0.0 0.0 .
796(15) 0.0 0.0 .
798(15) 0.0 0.0 .
771(15) 0.0 0.0 .
818(15) 0.0 0.0 .
732(14) 0.0 0.0 .
793(15) 0.0 0.0 .
780(15) 0.0 0.0 .
766(15) 0.0 0.0 .
766(14) 0.0 0.0 .
818(15) 0.0 0.0 .
818(16) 0.0 0.0 .
749(15) 0.0 0.0 .
760(15) 0.0 0.0 .
761(14) 0.0 0.0 .
784(15) 0.0 0.0 .
757(15) 0.0 0.0 .
749(15) 0.0 0.0 .
783(15) 0.0 0.0 .
768(14) 0.0 0.0 .
823(15) 0.0 0.0 .
757(15) 0.0 0.0 .
760(15) 0.0 0.0 .
758(14) 0.0 0.0 .
746(14) 0.0 0.0 .
771(15) 0.0 0.0 .
766(15) 0.0 0.0 .
785(15) 0.0 0.0 .
783(15) 0.0 0.0 .
765(14) 0.0 0.0 .
776(15) 0.0 0.0 .
761(15) 0.0 0.0 .
804(15) 0.0 0.0 .
765(14) 0.0 0.0 .
757(14) 0.0 0.0 .
783(15) 0.0 0.0 .
757(15) 0.0 0.0 .
770(15) 0.0 0.0 .
779(14) 0.0 0.0 .
770(14) 0.0 0.0 .
737(15) 0.0 0.0 .
727(15) 0.0 0.0 .
777(15) 0.0 0.0 .
743(14) 0.0 0.0 .
737(14) 0.0 0.0 .
791(15) 0.0 0.0 .
763(15) 0.0 0.0 .
759(15) 0.0 0.0 .
773(14) 0.0 0.0 .
739(14) 0.0 0.0 .
737(15) 0.0 0.0 .
747(15) 0.0 0.0 .
750(15) 0.0 0.0 .
776(14) 0.0 0.0 .
806(15) 0.0 0.0 .
787(15) 0.0 0.0 .
747(15) 0.0 0.0 .
768(15) 0.0 0.0 .
750(14) 0.0 0.0 .
789(15) 0.0 0.0 .
752(15) 0.0 0.0 .
775(15) 0.0 0.0 .
778(15) 0.0 0.0 .
791(15) 0.0 0.0 .
733(15) 0.0 0.0 .
778(15) 0.0 0.0 .
755(15) 0.0 0.0 .
757(15) 0.0 0.0 .
726(14) 0.0 0.0 .
771(15) 0.0 0.0 .
746(15) 0.0 0.0 .
767(15) 0.0 0.0 .
742(14) 0.0 0.0 .
761(14) 0.0 0.0 .
768(15) 0.0 0.0 .
771(15) 0.0 0.0 .
734(15) 0.0 0.0 .
741(14) 0.0 0.0 .
753(14) 0.0 0.0 .
724(14) 0.0 0.0 .
766(15) 0.0 0.0 .
741(14) 0.0 0.0 .
718(14) 0.0 0.0 .
767(14) 0.0 0.0 .
747(15) 0.0 0.0 .
732(15) 0.0 0.0 .
740(14) 0.0 0.0 .
753(14) 0.0 0.0 .
780(15) 0.0 0.0 .
785(15) 0.0 0.0 .
765(15) 0.0 0.0 .
760(15) 0.0 0.0 .
765(14) 0.0 0.0 .
751(14) 0.0 0.0 .
760(15) 0.0 0.0 .
730(15) 0.0 0.0 .
774(15) 0.0 0.0 .
750(14) 0.0 0.0 .
763(15) 0.0 0.0 .
728(14) 0.0 0.0 .
770(15) 0.0 0.0 .
774(15) 0.0 0.0 .
793(15) 0.0 0.0 .
749(14) 0.0 0.0 .
770(15) 0.0 0.0 .
755(15) 0.0 0.0 .
767(15) 0.0 0.0 .
732(14) 0.0 0.0 .
726(14) 0.0 0.0 .
735(15) 0.0 0.0 .
762(15) 0.0 0.0 .
732(14) 0.0 0.0 .
746(14) 0.0 0.0 .
764(15) 0.0 0.0 .
756(15) 0.0 0.0 .
784(15) 0.0 0.0 .
798(15) 0.0 0.0 .
724(14) 0.0 0.0 .
743(15) 0.0 0.0 .
764(15) 0.0 0.0 .
758(15) 0.0 0.0 .
779(15) 0.0 0.0 .
742(14) 0.0 0.0 .
758(15) 0.0 0.0 .
750(15) 0.0 0.0 .
790(15) 0.0 0.0 .
761(14) 0.0 0.0 .
777(14) 0.0 0.0 .
742(14) 0.0 0.0 .
748(15) 0.0 0.0 .
800(15) 0.0 0.0 .
758(14) 0.0 0.0 .
746(14) 0.0 0.0 .
784(15) 0.0 0.0 .
769(15) 0.0 0.0 .
775(15) 0.0 0.0 .
773(14) 0.0 0.0 .
748(14) 0.0 0.0 .
767(15) 0.0 0.0 .
779(15) 0.0 0.0 .
763(15) 0.0 0.0 .
732(14) 0.0 0.0 .
757(14) 0.0 0.0 .
760(15) 0.0 0.0 .
780(15) 0.0 0.0 .
746(15) 0.0 0.0 .
766(14) 0.0 0.0 .
769(15) 0.0 0.0 .
752(15) 0.0 0.0 .
711(15) 0.0 0.0 .
752(15) 0.0 0.0 .
769(14) 0.0 0.0 .
789(15) 0.0 0.0 .
762(15) 0.0 0.0 .
760(15) 0.0 0.0 .
787(15) 0.0 0.0 .
829(15) 0.0 0.0 .
790(15) 0.0 0.0 .
764(15) 0.0 0.0 .
772(15) 0.0 0.0 .
776(15) 0.0 0.0 .
777(14) 0.0 0.0 .
793(15) 0.0 0.0 .
785(15) 0.0 0.0 .
708(14) 0.0 0.0 .
765(15) 0.0 0.0 .
791(15) 0.0 0.0 .
785(15) 0.0 0.0 .
773(15) 0.0 0.0 .
783(15) 0.0 0.0 .
796(15) 0.0 0.0 .
812(15) 0.0 0.0 .
773(15) 0.0 0.0 .
796(16) 0.0 0.0 .
763(15) 0.0 0.0 .
836(15) 0.0 0.0 .
784(15) 0.0 0.0 .
768(15) 0.0 0.0 .
795(16) 0.0 0.0 .
789(15) 0.0 0.0 .
746(14) 0.0 0.0 .
795(15) 0.0 0.0 .
775(15) 0.0 0.0 .
798(16) 0.0 0.0 .
820(15) 0.0 0.0 .
788(15) 0.0 0.0 .
780(15) 0.0 0.0 .
807(15) 0.0 0.0 .
853(16) 0.0 0.0 .
845(15) 0.0 0.0 .
855(15) 0.0 0.0 .
852(15) 0.0 0.0 .
861(16) 0.0 0.0 .
849(16) 0.0 0.0 .
819(15) 0.0 0.0 .
849(15) 0.0 0.0 .
836(15) 0.0 0.0 .
858(16) 0.0 0.0 .
857(16) 0.0 0.0 .
864(16) 0.0 0.0 .
857(15) 0.0 0.0 .
910(16) 0.0 0.0 .
904(16) 0.0 0.0 .
906(16) 0.0 0.0 .
905(16) 0.0 0.0 .
897(16) 0.0 0.0 .
894(16) 0.0 0.0 .
886(16) 0.0 0.0 .
937(16) 0.0 0.0 .
964(17) 0.0 0.0 .
926(16) 0.0 0.0 .
956(16) 0.0 0.0 .
935(16) 0.0 0.0 .
957(17) 0.0 0.0 .
960(16) 0.0 0.0 .
990(16) 0.0 0.0 .
996(17) 0.0 0.0 .
1042(18) 0.0 0.0 .
1023(17) 0.0 0.0 .
1048(17) 0.0 0.0 .
1079(17) 0.0 0.0 .
1061(18) 0.0 0.0 .
1117(18) 0.0 0.0 .
1158(18) 0.0 0.0 .
1185(18) 0.0 0.0 .
1157(18) 0.0 0.0 .
1245(19) 0.0 0.0 .
1230(19) 0.0 0.0 .
1330(20) 0.0 0.0 .
1423(20) 0.0 0.0 .
1489(20) 0.0 0.0 .
1493(21) 0.0 0.0 .
1639(23) 0.0 0.0 .
1771(22) 0.0 0.0 .
1909(23) 0.0 0.0 .
2112(24) 0.0 0.0 .
2388(26) 0.0 0.0 .
2777(30) 0.0 0.0 .
3233(31) 0.0 0.0 .
3933(33) 0.0 0.0 .
4953(37) 0.0 0. .
6055(41) 0.0 0. .
7503(48) 0.0 0. .
9380(53) 0.0 0. .
11382(56) 0.0 0. .
13714(62) 0.0 0. .
16262(69) 0.0 0. .
18974(77) 0.0 0. .
21702(81) 0.0 0. .
24187(82) 0.0 0. .
26718(88) 0.0 0. .
29370(94) 0.0 0. .
32550(100) 0.0 0. .
36440(110) 0.0 0. .
41320(110) 0.0 0. .
47170(120) 0.0 0. .
54020(130) 0.0 0. .
62330(140) 0.0 0. .
71390(150) 0.0 0. .
80800(160) 0.0 0. .
85200(170) 0.0 0. .
81200(170) 0.0 0. .
69620(150) 0.0 0. .
54790(130) 0.0 0. .
41520(110) 0.0 0. .
30986(98) 0.0 0. .
23239(85) 0.0 0. .
17774(72) 0.0 0. .
13672(62) 0.0 0. .
10808(54) 0.0 0. .
8803(51) 0.0 0. .
7268(47) 0.0 0. .
6154(42) 0.0 0. .
5206(38) 0.0 0. .
4600(35) 0.0 0. .
4116(35) 0.0 0.0 .
3609(33) 0.0 0.0 .
3299(31) 0.0 0.0 .
2965(28) 0.0 0.0 .
2616(27) 0.0 0.0 .
2469(27) 0.0 0.0 .
2283(27) 0.0 0.0 .
2130(25) 0.0 0.0 .
2019(23) 0.0 0.0 .
1893(23) 0.0 0.0 .
1742(23) 0.0 0.0 .
1639(23) 0.0 0.0 .
1576(21) 0.0 0.0 .
1573(21) 0.0 0.0 .
1529(20) 0.0 0.0 .
1433(20) 0.0 0.0 .
1390(21) 0.0 0.0 .
1286(19) 0.0 0.0 .
1260(18) 0.0 0.0 .
1239(18) 0.0 0.0 .
1147(18) 0.0 0.0 .
1172(19) 0.0 0.0 .
1148(18) 0.0 0.0 .
1146(18) 0.0 0.0 .
1042(17) 0.0 0.0 .
1047(17) 0.0 0.0 .
1079(18) 0.0 0.0 .
1086(18) 0.0 0.0 .
1014(17) 0.0 0.0 .
981(17) 0.0 0.0 .
986(17) 0.0 0.0 .
954(17) 0.0 0.0 .
904(16) 0.0 0.0 .
901(16) 0.0 0.0 .
912(16) 0.0 0.0 .
898(16) 0.0 0.0 .
896(16) 0.0 0.0 .
877(16) 0.0 0.0 .
919(16) 0.0 0.0 .
860(16) 0.0 0.0 .
897(16) 0.0 0.0 .
877(16) 0.0 0.0 .
886(16) 0.0 0.0 .
834(15) 0.0 0.0 .
876(16) 0.0 0.0 .
861(16) 0.0 0.0 .
875(16) 0.0 0.0 .
822(15) 0.0 0.0 .
820(15) 0.0 0.0 .
857(16) 0.0 0.0 .
828(16) 0.0 0.0 .
846(16) 0.0 0.0 .
809(15) 0.0 0.0 .
803(15) 0.0 0.0 .
838(16) 0.0 0.0 .
805(16) 0.0 0.0 .
790(15) 0.0 0.0 .
786(15) 0.0 0.0 .
797(15) 0.0 0.0 .
798(15) 0.0 0.0 .
762(16) 0.0 0.0 .
764(15) 0.0 0.0 .
782(14) 0.0 0.0 .
759(14) 0.0 0.0 .
799(15) 0.0 0.0 .
768(15) 0.0 0.0 .
783(15) 0.0 0.0 .
776(14) 0.0 0.0 .
709(14) 0.0 0.0 .
764(15) 0.0 0.0 .
762(15) 0.0 0.0 .
748(15) 0.0 0.0 .
768(14) 0.0 0.0 .
755(14) 0.0 0.0 .
752(15) 0.0 0.0 .
771(15) 0.0 0.0 .
757(15) 0.0 0.0 .
719(14) 0.0 0.0 .
722(14) 0.0 0.0 .
767(15) 0.0 0.0 .
756(15) 0.0 0.0 .
763(15) 0.0 0.0 .
777(14) 0.0 0.0 .
758(15) 0.0 0.0 .
750(15) 0.0 0.0 .
716(14) 0.0 0.0 .
735(14) 0.0 0.0 .
697(14) 0.0 0.0 .
735(15) 0.0 0.0 .
733(15) 0.0 0.0 .
722(14) 0.0 0.0 .
706(14) 0.0 0.0 .
727(14) 0.0 0.0 .
734(15) 0.0 0.0 .
734(15) 0.0 0.0 .
796(15) 0.0 0.0 .
747(14) 0.0 0.0 .
744(14) 0.0 0.0 .
686(14) 0.0 0.0 .
712(15) 0.0 0.0 .
694(14) 0.0 0.0 .
704(14) 0.00524 710.1 60.0
701(14) 0.00531 710.1 59.0
722(14) 0.00481 710.1 58.0
700(15) 0.00475 710.1 57.0
695(14) 0.00501 710.1 56.1
714(14) 0.00520 710.1 55.2
745(14) 0.00496 710.1 54.3
732(15) 0.00473 709.7 53.4
705(15) 0.00453 709.3 52.6
709(14) 0.00495 708.9 0.0
759(14) 0.00490 708.5 0.0
731(14) 0.00510 708.0 0.0
720(14) 0.00483 707.6 0.0
723(15) 0.00457 707.2 0.0
758(15) 0.00446 706.7 0.0
726(14) 0.00512 706.3 0.0
736(14) 0.00491 705.9 0.0
690(14) 0.00491 705.5 0.0
723(15) 0.00452 705.0 0.0
745(15) 0.00459 704.6 0.0
714(14) 0.00516 704.2 0.0
737(14) 0.00495 703.8 0.0
742(15) 0.00467 703.3 0.0
720(15) 0.00463 702.9 0.0
706(14) 0.00482 702.5 0.0
698(14) 0.00528 702.0 0.0
742(14) 0.00488 701.6 0.0
713(14) 0.00490 701.2 0.0
681(14) 0.00501 700.8 0.0
671(14) 0.00523 700.3 0.0
701(14) 0.00534 699.9 0.0
702(14) 0.00506 699.5 0.0
683(14) 0.00505 699.1 0.0
698(14) 0.00478 698.6 0.0
709(14) 0.00506 698.2 0.0
712(14) 0.00523 697.8 0.0
678(14) 0.00523 697.3 0.0
716(15) 0.00471 696.9 0.0
687(14) 0.00505 696.5 0.0
676(14) 0.00525 696.1 0.0
688(14) 0.00540 695.6 0.0
681(14) 0.00506 695.2 0.0
694(14) 0.00486 694.8 0.0
730(15) 0.00464 694.3 0.0
681(14) 0.00531 693.9 0.0
678(14) 0.00549 693.5 0.0
667(14) 0.00523 693.1 0.0
685(15) 0.00475 692.6 0.0
677(14) 0.00514 692.2 0.0
722(14) 0.00510 691.8 0.0
661(13) 0.00566 691.4 0.0
654(14) 0.00526 690.9 0.0
671(14) 0.00487 690.5 0.0
711(14) 0.00481 690.1 0.0
685(14) 0.00545 689.6 0.0
679(14) 0.00544 689.2 0.0
663(14) 0.00509 688.8 0.0
668(15) 0.00472 688.4 0.0
680(14) 0.00506 687.9 0.0
676(13) 0.00557 687.5 0.0
662(13) 0.00552 687.1 0.0
669(14) 0.00529 686.7 0.0
680(14) 0.00478 686.2 0.0
660(14) 0.00525 685.8 0.0
696(14) 0.00534 685.4 0.0
718(14) 0.00515 684.9 0.0
680(14) 0.00502 684.5 0.0
684(15) 0.00465 684.1 0.0
669(14) 0.00511 683.7 0.0
652(13) 0.00571 683.2 0.0
682(14) 0.00534 682.8 0.0
655(14) 0.00527 682.4 0.0
628(14) 0.00531 682.0 0.0
698(14) 0.00488 681.5 0.0
670(13) 0.00554 681.1 0.0
650(13) 0.00560 680.7 0.0
666(14) 0.00515 680.2 0.0
714(14) 0.00479 679.8 0.0
699(14) 0.00504 679.4 0.0
636(13) 0.00584 679.0 0.0
649(14) 0.00543 678.5 0.0
661(14) 0.00522 678.1 0.0
660(14) 0.00523 677.7 0.7
653(14) 0.00533 677.3 0.7
666(13) 0.00561 676.8 0.7
627(13) 0.00563 676.4 0.7
660(14) 0.00519 676.0 0.7
683(14) 0.00517 675.5 0.7
695(14) 0.00517 675.1 0.7
644(13) 0.00580 674.7 0.8
689(14) 0.00504 674.3 0.8
660(14) 0.00521 673.8 0.8
635(13) 0.00561 673.4 0.8
673(14) 0.00539 673.0 0.8
657(13) 0.00564 672.6 0.8
660(14) 0.00524 672.1 0.8
643(14) 0.00525 671.7 0.9
678(14) 0.00511 671.3 0.9
646(13) 0.00565 670.8 0.9
632(13) 0.00590 670.4 0.9
659(14) 0.00531 670.0 0.9
658(14) 0.00514 669.6 0.9
670(14) 0.00514 669.1 1.0
669(14) 0.00547 668.7 1.0
713(14) 0.00519 668.3 1.0
644(14) 0.00543 667.9 1.0
666(14) 0.00483 667.4 1.0
661(14) 0.00534 667.0 1.0
650(13) 0.00566 666.6 1.1
692(14) 0.00533 666.1 1.1
680(14) 0.00516 665.7 1.1
676(14) 0.00479 665.3 1.1
634(13) 0.00554 664.9 1.2
685(14) 0.00544 664.4 1.2
674(14) 0.00548 664.0 1.2
630(13) 0.00561 663.6 1.2
621(14) 0.00532 663.2 1.3
654(14) 0.00525 662.7 1.3
651(13) 0.00567 662.3 1.3
633(13) 0.00585 661.9 1.3
667(14) 0.00522 661.4 1.4
636(14) 0.00535 661.0 1.4
683(14) 0.00501 660.6 1.4
662(13) 0.00563 660.2 1.5
659(14) 0.00547 659.7 1.5
676(14) 0.00506 659.3 1.5
668(14) 0.00488 658.9 1.6
630(13) 0.00556 658.5 1.6
652(13) 0.00571 658.0 1.7
631(13) 0.00568 657.6 1.7
692(14) 0.00489 657.2 1.8
655(14) 0.00526 656.7 1.8
626(13) 0.00576 656.3 1.8
667(13) 0.00555 655.9 1.9
689(14) 0.00513 655.8 1.9
644(14) 0.00539 655.6 2.0
634(13) 0.00550 655.4 2.1
667(14) 0.00544 655.3 2.1
659(13) 0.00562 655.1 2.2
681(14) 0.00518 655.0 2.2
646(14) 0.00524 654.8 2.3
626(13) 0.00552 654.6 2.4
655(13) 0.00550 654.5 2.4
655(13) 0.00571 654.3 2.5
671(14) 0.00513 654.1 2.6
636(14) 0.00533 654.0 2.7
634(14) 0.00545 653.8 2.8
660(14) 0.00544 653.6 2.8
635(13) 0.00586 653.5 2.9
633(14) 0.00545 653.3 3.0
649(14) 0.00498 653.2 3.1
670(14) 0.00514 653.0 3.3
655(13) 0.00558 652.8 3.4
683(14) 0.00542 652.7 3.5
654(14) 0.00527 652.5 3.6
643(14) 0.00509 652.3 3.8
636(13) 0.00552 652.2 3.9
655(13) 0.00560 652.0 4.1
640(13) 0.00575 651.9 4.2
649(14) 0.00530 651.7 4.4
661(14) 0.00491 651.5 4.6
657(14) 0.00533 651.4 4.8
635(13) 0.00582 651.2 5.0
660(13) 0.00561 651.0 5.2
630(13) 0.00563 650.9 5.4
663(14) 0.00489 650.7 5.7
686(14) 0.00498 650.5 5.9
667(13) 0.00561 650.4 6.2
643(13) 0.00567 650.2 6.5
645(13) 0.00552 650.1 6.9
660(14) 0.00503 649.9 7.2
659(14) 0.00518 649.7 7.6
705(14) 0.00523 649.6 8.0
680(14) 0.00533 649.4 8.5
674(14) 0.00506 649.2 8.9
631(14) 0.00531 649.1 9.5
657(14) 0.00522 648.9 10.1
644(13) 0.00578 648.8 10.7
691(14) 0.00508 648.6 11.4
647(14) 0.00539 648.4 12.1
669(14) 0.00504 648.3 13.0
686(14) 0.00520 648.1 13.9
677(13) 0.00550 647.9 15.0
695(14) 0.00509 647.8 16.1
665(14) 0.00533 647.6 17.4
713(14) 0.00485 647.4 18.9
692(14) 0.00522 647.3 20.5
681(14) 0.00541 647.1 22.3
688(14) 0.00504 647.0 24.5
694(14) 0.00479 646.8 26.9
720(15) 0.00474 646.6 29.7
728(14) 0.00481 646.5 33.1
759(14) 0.00492 646.3 37.2
758(15) 0.00457 646.1 42.3
791(16) 0.00415 646.0 49.1
804(15) 0.00439 645.8 58.2
840(15) 0.00422 645.7 70.9
830(15) 0.00449 645.5 89.1
929(17) 0.00363 645.3 115.0
932(17) 0.00355 645.2 151.5
913(16) 0.00388 645.0 201.3
960(16) 0.00378 644.8 267.2
1083(17) 0.003429 644.7 350.4
1087(18) 0.003155 644.5 450.1
1192(19) 0.002680 644.3 563.0
1218(19) 0.002813 644.2 681.3
1307(19) 0.002807 644.0 793.2
1369(19) 0.002681 643.9 881.6
1377(20) 0.002492 643.7 928.0
1367(20) 0.002382 643.5 920.5
1352(20) 0.002595 643.4 861.1
1321(19) 0.002814 643.2 764.5
1236(18) 0.002959 643.0 649.3
1093(18) 0.003189 642.9 531.4
918(17) 0.00360 642.7 421.6
900(16) 0.00379 642.6 326.1
804(15) 0.00460 642.4 247.7
785(15) 0.00467 642.2 186.3
702(14) 0.00496 642.1 140.4
687(14) 0.00476 641.9 107.1
698(14) 0.00493 641.7 83.5
685(14) 0.00539 641.6 67.0
687(14) 0.00538 641.4 55.4
706(14) 0.00494 641.2 47.0
677(14) 0.00492 641.1 40.8
664(14) 0.00510 640.9 36.0
655(13) 0.00567 640.8 32.1
674(14) 0.00535 640.6 28.9
641(14) 0.00537 640.4 26.2
636(14) 0.00516 640.3 23.9
631(13) 0.00557 640.1 21.8
642(13) 0.00582 639.9 20.0
638(13) 0.00564 639.8 18.4
660(14) 0.00508 639.6 17.0
641(14) 0.00520 639.5 15.8
635(14) 0.00536 639.3 14.7
621(13) 0.00600 639.1 13.7
654(14) 0.00527 639.0 12.8
603(13) 0.00571 638.8 11.9
663(14) 0.00503 638.6 11.2
632(13) 0.00556 638.5 10.5
645(13) 0.00578 638.3 9.9
673(14) 0.00491 638.1 9.3
626(14) 0.00544 638.0 8.8
636(14) 0.00546 637.8 8.3
649(13) 0.00554 637.7 7.9
648(13) 0.00575 637.5 7.5
613(13) 0.00569 637.3 7.1
615(14) 0.00540 637.2 6.8
629(13) 0.00553 637.0 6.4
622(13) 0.00597 636.8 6.1
647(13) 0.00574 636.7 5.9
614(13) 0.00568 636.5 5.6
635(14) 0.00508 636.4 5.3
658(14) 0.00512 636.2 5.1
651(13) 0.00566 636.0 4.9
652(13) 0.00577 635.9 4.7
649(14) 0.00546 635.7 4.5
625(14) 0.00520 635.5 4.3
607(13) 0.00574 635.4 4.2
657(13) 0.00561 635.2 4.0
654(13) 0.00574 635.0 3.9
679(14) 0.00504 634.9 3.7
647(14) 0.00498 634.7 3.6
605(13) 0.00587 634.6 3.5
625(13) 0.00595 634.4 3.3
624(13) 0.00581 634.2 3.2
666(14) 0.00516 634.1 3.1
656(14) 0.00503 633.9 3.0
643(14) 0.00547 633.7 2.9
668(13) 0.00557 633.6 2.8
606(13) 0.00606 633.4 2.7
636(14) 0.00532 633.3 2.7
644(14) 0.00519 633.1 2.6
639(14) 0.00539 632.9 2.5
624(13) 0.00593 632.8 2.4
633(13) 0.00579 632.6 2.3
606(13) 0.00585 632.4 2.3
641(14) 0.00534 632.3 2.2
649(14) 0.00533 632.1 2.2
592(13) 0.00628 631.9 2.1
635(13) 0.00561 631.8 2.0
631(14) 0.00539 631.6 2.0
628(14) 0.00538 631.5 1.9
645(13) 0.00549 631.3 1.9
624(13) 0.00597 631.1 1.8
626(13) 0.00567 631.0 1.8
624(13) 0.00553 630.8 1.7
605(13) 0.00553 630.6 1.7
612(13) 0.00591 630.5 1.7
660(13) 0.00561 630.3 1.6
622(13) 0.00549 630.2 1.6
617(14) 0.00548 630.0 1.5
632(13) 0.00549 629.8 1.5
662(14) 0.00545 629.7 1.5
633(13) 0.00591 629.5 1.4
667(14) 0.00516 629.3 1.4
653(14) 0.00506 629.2 1.4
617(13) 0.00566 629.0 1.3
651(13) 0.00553 628.8 1.3
589(13) 0.00634 628.7 1.3
651(14) 0.00527 628.5 1.3
629(14) 0.00530 628.4 1.2
605(13) 0.00586 628.2 1.2
616(13) 0.00601 628.0 1.2
612(13) 0.00610 627.9 1.2
663(14) 0.00513 627.7 1.1
657(14) 0.00497 627.5 1.1
632(14) 0.00538 627.4 1.1
609(13) 0.00600 627.2 1.1
613(13) 0.00602 627.1 1.0
648(14) 0.00534 626.9 1.0
628(14) 0.00525 626.7 1.0
625(13) 0.00558 626.6 1.0
632(13) 0.00593 626.4 1.0
675(14) 0.00543 626.3 0.9
647(14) 0.00535 626.3 0.9
640(14) 0.00507 626.2 0.9
620(13) 0.00560 626.2 0.9
644(13) 0.00578 626.1 0.9
668(13) 0.00553 626.1 0.9
615(13) 0.00582 626.1 0.8
634(14) 0.00519 626.0 0.8
654(14) 0.00526 626.0 0.8
630(13) 0.00590 626.0 0.8
617(13) 0.00588 625.9 0.8
617(13) 0.00562 625.9 0.8
646(14) 0.00509 625.8 0.8
637(14) 0.00542 625.8 0.8
645(13) 0.00575 625.8 0.7
593(13) 0.00605 625.7 0.7
615(13) 0.00557 625.7 0.7
627(14) 0.00538 625.6 0.7
602(13) 0.00579 625.6 0.7
625(13) 0.00594 625.6 0.0
621(13) 0.00571 625.5 0.0
621(13) 0.00560 625.5 0.0
610(13) 0.00576 625.5 0.0
663(14) 0.00521 625.4 0.0
637(13) 0.00583 625.4 0.0
614(13) 0.00567 625.3 0.0
623(14) 0.00526 625.3 0.0
596(13) 0.00580 625.3 0.0
619(13) 0.00590 625.2 0.0
639(13) 0.00578 625.2 0.0
608(13) 0.00573 625.2 0.0
605(14) 0.00534 625.1 0.0
602(13) 0.00592 625.1 0.0
654(13) 0.00554 625.0 0.0
582(13) 0.00638 625.0 0.0
581(13) 0.00583 625.0 0.0
602(14) 0.00539 624.9 0.0
630(14) 0.00543 624.9 0.0
607(13) 0.00610 624.8 0.0
607(13) 0.00611 624.8 0.0
635(14) 0.00546 624.8 0.0
638(14) 0.00508 624.7 0.0
626(14) 0.00548 624.7 0.0
629(13) 0.00582 624.7 0.0
634(13) 0.00591 624.6 0.0
627(13) 0.00553 624.6 0.0
630(14) 0.00522 624.5 0.0
606(13) 0.00598 624.5 0.0
605(13) 0.00612 624.5 0.0
642(13) 0.00570 624.4 0.0
639(14) 0.00546 624.4 0.0
606(13) 0.00551 624.3 0.0
632(13) 0.00550 624.3 0.0
629(13) 0.00595 624.3 0.0
597(13) 0.00616 624.2 0.0
616(13) 0.00582 624.2 0.0
630(14) 0.00523 624.2 0.0
608(13) 0.00568 624.1 0.0
590(13) 0.00632 624.1 0.0
575(12) 0.00645 624.0 0.0
636(13) 0.00552 624.0 0.0
630(14) 0.00542 624.0 0.0
644(14) 0.00535 623.9 0.0
649(13) 0.00576 623.9 0.0
625(13) 0.00572 623.8 0.0
656(14) 0.00506 623.8 0.0
638(14) 0.00523 623.8 0.0
634(13) 0.00555 623.7 0.0
668(13) 0.00560 623.7 0.0
631(13) 0.00554 623.7 0.0
608(13) 0.00578 623.6 0.0
615(13) 0.00558 623.6 0.0
647(14) 0.00548 623.5 0.0
620(13) 0.00602 623.5 0.0
608(13) 0.00589 623.5 0.0
648(14) 0.00519 623.4 0.0
645(14) 0.00522 623.4 0.0
622(13) 0.00563 623.3 0.0
560(12) 0.00666 623.3 0.0
601(13) 0.00566 623.3 0.0
625(14) 0.00520 623.2 0.0
645(14) 0.00529 623.2 0.0
643(13) 0.00563 623.2 0.0
604(13) 0.00616 623.1 0.0
618(13) 0.00566 623.1 0.0
640(14) 0.00538 623.0 0.0
612(13) 0.00584 623.0 0.0
638(13) 0.00572 623.0 0.0
632(13) 0.00588 622.9 0.0
609(13) 0.00560 622.9 0.0
627(14) 0.00516 622.9 0.0
596(13) 0.00584 622.8 0.0
610(13) 0.00616 622.8 0.0
646(13) 0.00566 622.7 0.0
642(14) 0.00541 622.7 0.0
586(13) 0.00560 622.7 0.0
653(14) 0.00524 622.6 0.0
596(13) 0.00622 622.6 0.0
620(13) 0.00601 622.5 0.0
590(13) 0.00587 622.5 0.0
587(13) 0.00563 622.5 0.0
607(13) 0.00573 622.4 0.0
616(13) 0.00602 622.4 0.0
656(14) 0.00546 622.4 0.0
618(13) 0.00560 622.3 0.0
636(14) 0.00513 622.3 0.0
602(13) 0.00565 622.2 0.0
648(13) 0.00578 622.2 0.0
631(13) 0.00564 622.2 0.0
607(13) 0.00577 622.1 0.0
628(14) 0.00544 622.1 0.0
661(14) 0.00526 622.0 0.0
622(13) 0.00597 622.0 0.0
603(13) 0.00594 622.0 0.0
614(13) 0.00572 621.9 0.0
609(13) 0.00563 621.9 0.0
615(13) 0.00560 621.9 0.0
588(13) 0.00634 621.8 0.0
610(13) 0.00591 621.8 0.0
597(13) 0.00582 621.7 0.0
596(13) 0.00578 621.7 0.0
607(13) 0.00588 621.7 0.0
597(13) 0.00625 621.6 0.0
603(13) 0.00578 621.6 0.0
602(13) 0.00573 621.5 0.0
640(14) 0.00547 621.5 0.0
616(13) 0.00593 621.5 0.0
614(13) 0.00605 621.4 0.0
625(14) 0.00539 621.4 0.0
606(13) 0.00562 621.4 0.0
632(14) 0.00545 621.3 0.0
592(13) 0.00616 621.3 0.0
630(13) 0.00586 621.2 0.0
667(14) 0.00507 621.2 0.0
619(14) 0.00537 621.2 0.0
623(14) 0.00547 621.1 0.0
623(13) 0.00583 621.1 0.0
613(13) 0.00608 621.0 0.0
593(13) 0.00577 621.0 0.0
598(13) 0.00561 621.0 0.0
618(13) 0.00571 620.9 0.0
589(13) 0.00623 620.9 0.0
622(13) 0.00598 620.9 0.0
602(13) 0.00558 620.8 0.0
593(13) 0.00552 620.8 0.0
645(14) 0.00525 620.7 0.0
643(13) 0.00575 620.7 0.0
591(13) 0.00630 620.7 0.0
590(13) 0.00584 620.6 0.0
608(14) 0.00542 620.6 0.0
624(13) 0.00561 620.6 0.0
635(13) 0.00590 620.5 0.0
611(13) 0.00606 620.5 0.0
604(13) 0.00579 620.4 0.0
598(14) 0.00545 620.4 0.0
617(13) 0.00565 620.4 0.0
599(13) 0.00626 620.3 0.0
624(13) 0.00591 620.3 0.0
630(13) 0.00566 620.2 0.0
629(14) 0.00540 620.2 0.0
609(13) 0.00568 620.2 0.0
602(13) 0.00622 620.1 0.0
615(13) 0.00585 620.1 0.0
600(13) 0.00571 620.1 0.0
594(13) 0.00571 620.0 0.0
614(13) 0.00558 620.0 0.0
618(13) 0.00602 619.9 0.0
643(13) 0.00551 619.9 0.0
604(13) 0.00586 619.9 0.0
619(13) 0.00554 619.8 0.0
598(13) 0.00595 619.8 0.0
643(13) 0.00578 619.7 0.0
627(13) 0.00560 619.7 0.0
600(13) 0.00572 619.7 0.0
623(13) 0.00564 619.6 0.0
646(14) 0.00548 619.6 0.0
605(13) 0.00615 619.6 0.0
600(13) 0.00585 619.5 0.0
617(14) 0.00533 619.5 0.0
606(13) 0.00564 619.4 0.0
593(13) 0.00619 619.4 0.0
591(13) 0.00632 619.4 0.0
586(13) 0.00585 619.3 0.0
596(13) 0.00558 619.3 0.0
614(13) 0.00555 619.2 0.0
619(13) 0.00588 619.2 0.0
610(13) 0.00611 619.2 0.0
609(13) 0.00576 619.1 0.0
616(14) 0.00519 619.1 0.0
619(14) 0.00546 619.1 0.0
585(13) 0.00637 619.0 0.0
598(13) 0.00615 619.0 0.0
596(13) 0.00594 618.9 0.0
654(14) 0.00484 618.9 0.0
626(14) 0.00542 618.9 0.0
600(13) 0.00613 618.8 0.0
606(13) 0.00616 618.8 0.0
579(13) 0.00605 618.8 0.0
623(14) 0.00509 618.7 0.0
626(13) 0.00564 618.7 0.0
615(13) 0.00603 618.6 0.0
629(13) 0.00589 618.6 0.0
598(13) 0.00612 618.6 0.0
622(14) 0.00537 618.5 0.0
628(14) 0.00546 618.5 0.0
625(13) 0.00591 618.4 0.0
595(13) 0.00623 618.4 0.0
628(14) 0.00547 618.4 0.0
582(13) 0.00571 618.3 0.0
630(13) 0.00561 618.3 0.0
627(13) 0.00590 618.3 0.0
594(13) 0.00619 618.2 0.0
600(13) 0.00590 618.2 0.0
630(14) 0.00540 618.1 0.0
666(14) 0.00518 618.1 0.0
596(13) 0.00619 618.1 0.0
606(13) 0.00591 618.0 0.0
572(13) 0.00613 618.0 0.0
625(14) 0.00535 617.9 0.0
651(14) 0.00537 617.9 0.0
619(13) 0.00599 617.9 0.0
652(14) 0.00534 617.8 0.0
579(13) 0.00613 617.8 0.0
612(13) 0.00561 617.8 0.0
590(13) 0.00604 617.7 0.0
610(13) 0.00609 617.7 0.0
614(13) 0.00575 617.6 0.0
624(14) 0.00548 617.6 0.0
630(14) 0.00543 617.6 0.0
597(13) 0.00593 617.5 0.0
602(13) 0.00614 617.5 0.0
594(13) 0.00583 617.4 0.0
630(14) 0.00527 617.4 0.0
650(14) 0.00547 617.4 0.0
645(13) 0.00556 617.3 0.0
634(13) 0.00589 617.3 0.0
634(14) 0.00540 617.4 0.0
620(14) 0.00532 617.4 0.0
598(13) 0.00578 617.5 0.0
612(13) 0.00596 617.5 0.0
608(13) 0.00609 617.6 0.0
603(13) 0.00573 617.6 0.0
604(14) 0.00545 617.7 0.0
609(13) 0.00565 617.7 0.0
599(13) 0.00619 617.8 0.0
623(13) 0.00591 617.9 0.0
615(13) 0.00584 617.9 0.0
645(14) 0.00487 618.0 0.0
608(13) 0.00569 618.0 0.0
624(13) 0.00587 618.1 0.0
596(13) 0.00615 618.1 0.0
616(13) 0.00574 618.2 0.0
619(14) 0.00541 618.2 0.0
624(14) 0.00546 618.3 0.0
634(13) 0.00586 618.3 0.0
590(13) 0.00621 618.4 0.0
605(13) 0.00562 618.5 0.0
598(13) 0.00566 618.5 0.0
617(13) 0.00559 618.6 0.0
602(13) 0.00620 618.6 0.0
608(13) 0.00611 618.7 0.0
620(13) 0.00555 618.7 0.0
613(14) 0.00546 618.8 0.0
633(14) 0.00537 618.8 0.0
625(13) 0.00595 618.9 0.0
622(13) 0.00569 618.9 0.0
633(14) 0.00541 619.0 0.0
612(13) 0.00552 619.1 0.0
634(14) 0.00542 619.1 0.0
617(13) 0.00601 619.2 0.0
605(13) 0.00590 619.2 0.0
584(13) 0.00591 619.3 0.0
615(13) 0.00557 619.3 0.0
634(13) 0.00565 619.4 0.0
636(13) 0.00585 619.4 0.0
599(13) 0.00587 619.5 0.0
609(13) 0.00560 619.6 0.0
609(13) 0.00574 619.6 0.0
625(13) 0.00580 619.7 0.0
596(13) 0.00623 619.7 0.0
610(13) 0.00571 619.8 0.0
578(13) 0.00591 619.8 0.0
628(14) 0.00548 619.9 0.0
610(13) 0.00606 619.9 0.0
652(13) 0.00573 620.0 0.0
639(13) 0.00549 620.0 0.0
629(14) 0.00533 620.1 0.0
655(14) 0.00525 620.2 0.0
622(13) 0.00587 620.2 0.0
616(13) 0.00601 620.3 0.0
609(13) 0.00571 620.3 0.0
607(14) 0.00547 620.4 0.0
639(14) 0.00532 620.4 0.0
585(13) 0.00631 620.5 0.0
599(13) 0.00624 620.5 0.0
587(13) 0.00567 620.6 0.0
553(13) 0.00591 620.6 0.0
599(13) 0.00579 620.7 0.0
610(13) 0.00605 620.8 0.0
613(13) 0.00605 620.8 0.0
594(13) 0.00599 620.9 0.0
598(13) 0.00556 620.9 0.0
624(13) 0.00562 621.0 0.0
601(13) 0.00619 621.0 0.0
620(13) 0.00604 621.1 0.0
631(14) 0.00544 621.1 0.0
607(14) 0.00533 621.2 0.0
612(13) 0.00550 621.2 0.0
648(13) 0.00574 621.3 0.0
630(13) 0.00587 621.4 0.0
639(14) 0.00546 621.4 0.0
675(15) 0.00475 621.5 0.0
596(13) 0.00602 621.5 0.0
646(13) 0.00576 621.6 0.0
614(13) 0.00600 621.6 0.0
645(14) 0.00540 621.7 0.0
642(14) 0.00531 621.7 0.0
600(13) 0.00566 621.8 0.0
620(13) 0.00601 621.8 0.0
627(13) 0.00569 621.9 0.0
620(13) 0.00556 622.0 0.0
612(13) 0.00552 622.0 0.0
616(13) 0.00569 622.1 0.0
601(13) 0.00617 622.1 0.0
611(13) 0.00575 622.2 0.0
617(13) 0.00561 622.2 0.0
616(13) 0.00553 622.3 0.0
618(13) 0.00580 622.3 0.0
652(13) 0.00567 622.4 0.0
615(13) 0.00572 622.4 0.0
612(13) 0.00552 622.5 0.0
624(13) 0.00553 622.6 0.0
595(13) 0.00612 622.6 0.0
600(13) 0.00624 622.7 0.0
651(14) 0.00538 622.7 0.0
619(14) 0.00536 622.8 0.0
638(14) 0.00544 622.8 0.0
637(13) 0.00578 622.9 0.0
634(13) 0.00593 622.9 0.0
615(13) 0.00562 623.0 0.0
611(14) 0.00530 623.1 0.0
637(13) 0.00550 623.1 0.0
585(13) 0.00630 623.2 0.0
607(13) 0.00602 623.2 0.0
622(13) 0.00566 623.3 0.0
638(14) 0.00509 623.3 0.0
581(13) 0.00606 623.4 0.0
634(13) 0.00579 623.4 0.0
596(13) 0.00629 623.5 0.0
613(13) 0.00566 623.5 0.0
601(13) 0.00551 623.6 0.0
595(13) 0.00602 623.7 0.0
584(13) 0.00632 623.7 0.0
603(13) 0.00605 623.8 0.0
646(14) 0.00534 623.8 0.0
613(14) 0.00543 623.9 0.0
644(14) 0.00525 623.9 0.0
638(13) 0.00590 624.0 0.0
596(13) 0.00613 624.0 0.0
639(14) 0.00541 624.1 0.0
613(13) 0.00553 624.1 0.0
610(13) 0.00569 624.2 0.0
633(13) 0.00582 624.3 0.0
620(13) 0.00571 624.3 0.0
624(14) 0.00539 624.4 0.0
611(13) 0.00552 624.4 0.0
624(13) 0.00555 624.5 0.0
601(13) 0.00617 624.5 0.0
641(13) 0.00553 624.6 0.0
633(14) 0.00539 624.6 0.0
610(14) 0.00547 624.7 0.0
664(14) 0.00526 624.7 0.0
630(13) 0.00592 624.8 0.0
626(14) 0.00544 624.9 0.0
607(13) 0.00558 624.9 0.0
625(14) 0.00543 625.0 0.0
615(13) 0.00581 625.0 0.0
614(13) 0.00610 625.1 0.0
604(13) 0.00574 625.1 0.0
613(13) 0.00551 625.2 0.0
667(14) 0.00513 625.2 0.0
634(13) 0.00576 625.3 0.0
650(13) 0.00573 625.3 0.0
615(13) 0.00559 625.4 0.0
615(13) 0.00555 625.5 0.0
618(13) 0.00583 625.5 0.0
638(13) 0.00575 625.6 0.0
600(13) 0.00618 625.6 0.0
629(13) 0.00551 625.7 0.0
625(14) 0.00529 625.7 0.0
603(13) 0.00587 625.8 0.0
655(13) 0.00562 625.8 0.0
639(13) 0.00586 625.9 0.0
661(14) 0.00528 625.9 0.0
618(14) 0.00544 626.0 0.0
654(14) 0.00540 626.1 0.0
624(13) 0.00596 626.1 0.0
626(13) 0.00593 626.2 0.0
622(13) 0.00560 626.2 0.0
632(14) 0.00509 626.3 0.0
609(13) 0.00571 626.3 0.0
626(13) 0.00587 626.4 0.0
684(14) 0.00529 626.4 0.0
658(14) 0.00525 626.5 0.0
667(14) 0.00482 626.5 0.0
642(14) 0.00545 626.6 0.0
663(13) 0.00562 626.7 0.0
659(13) 0.00558 626.7 0.0
625(14) 0.00538 626.8 0.0
613(14) 0.00541 626.8 0.0
623(14) 0.00536 626.9 0.0
655(13) 0.00569 626.9 0.0
639(13) 0.00570 627.0 0.0
635(14) 0.00533 627.0 0.0
638(14) 0.00524 627.1 0.0
642(13) 0.00551 627.2 0.0
631(13) 0.00593 627.2 0.0
629(13) 0.00566 627.3 0.0
651(14) 0.00518 627.3 0.1
611(13) 0.00564 627.4 0.1
614(13) 0.00566 627.4 0.1
640(13) 0.00585 627.5 0.1
658(14) 0.00544 627.5 0.1
652(14) 0.00512 627.6 0.1
641(14) 0.00534 627.6 0.1
625(13) 0.00565 627.7 0.1
619(13) 0.00602 627.8 0.1
630(13) 0.00550 627.8 0.1
645(14) 0.00517 627.9 0.1
672(14) 0.00501 627.9 0.1
616(13) 0.00595 628.0 0.1
619(13) 0.00596 628.0 0.1
639(14) 0.00548 628.1 0.1
638(14) 0.00525 628.1 0.1
600(13) 0.00578 628.2 0.1
599(13) 0.00603 628.2 0.1
565(12) 0.00662 628.3 0.1
598(13) 0.00581 628.4 0.1
643(14) 0.00522 628.4 0.1
636(13) 0.00557 628.5 0.1
613(13) 0.00598 628.5 0.1
623(13) 0.00593 628.6 0.1
625(13) 0.00561 628.6 0.1
643(14) 0.00516 628.7 0.1
633(13) 0.00562 628.7 0.1
613(13) 0.00604 628.8 0.1
587(13) 0.00627 628.8 0.1
602(13) 0.00587 628.9 0.1
612(14) 0.00534 629.0 0.1
652(14) 0.00535 629.0 0.1
621(13) 0.00588 629.1 0.2
596(13) 0.00629 629.1 0.2
621(13) 0.00573 629.2 0.2
628(14) 0.00527 629.2 0.2
637(14) 0.00538 629.3 0.2
613(13) 0.00601 629.3 0.2
645(13) 0.00574 629.4 0.2
607(13) 0.00578 629.4 0.2
620(14) 0.00535 629.5 0.2
615(13) 0.00561 629.6 0.2
687(14) 0.00542 629.6 0.3
650(13) 0.00559 629.7 0.3
621(13) 0.00558 629.7 0.3
603(13) 0.00553 629.8 0.3
602(13) 0.00584 629.8 0.4
584(13) 0.00635 629.9 0.4
630(13) 0.00575 629.9 0.4
601(13) 0.00582 630.0 0.5
597(13) 0.00577 630.0 0.5
619(13) 0.00555 630.1 0.6
588(13) 0.00635 630.2 0.6
661(14) 0.00526 630.2 0.7
614(13) 0.00565 630.3 0.8
643(14) 0.00517 630.3 0.9
640(13) 0.00551 630.4 1.0
634(13) 0.00585 630.4 1.1
653(14) 0.00525 630.5 1.3
584(13) 0.00590 630.5 1.5
604(13) 0.00580 630.6 1.6
590(13) 0.00622 630.7 1.8
636(13) 0.00586 630.7 2.0
614(13) 0.00557 630.8 2.3
638(14) 0.00512 630.8 2.5
598(13) 0.00589 630.9 2.8
599(13) 0.00596 630.9 3.0
608(13) 0.00615 631.0 3.3
635(14) 0.00522 631.0 3.5
631(14) 0.00532 631.1 3.7
638(14) 0.00543 631.1 3.9
617(13) 0.00605 631.2 4.1
620(13) 0.00599 631.3 4.2
650(14) 0.00528 631.3 4.2
610(14) 0.00547 631.4 4.2
643(14) 0.00531 631.4 4.1
648(13) 0.00571 631.5 4.0
615(13) 0.00601 631.7 3.8
621(13) 0.00560 631.9 3.6
610(14) 0.00530 632.1 3.4
619(13) 0.00563 632.3 3.1
615(13) 0.00608 632.5 2.9
642(13) 0.00573 632.7 2.6
631(13) 0.00557 632.9 2.4
634(14) 0.00518 633.1 2.1
609(13) 0.00574 633.3 1.9
618(13) 0.00604 633.5 1.7
640(13) 0.00581 633.8 1.5
612(13) 0.00578 634.0 1.4
657(14) 0.00483 634.2 1.2
630(13) 0.00550 634.4 1.1
615(13) 0.00603 634.6 0.9
667(13) 0.00552 634.8 0.8
679(14) 0.00517 635.0 0.7
628(14) 0.00540 635.2 0.7
644(14) 0.00529 635.4 0.6
648(13) 0.00573 635.6 0.5
657(14) 0.00544 635.9 0.5
586(13) 0.00592 636.1 0.4
636(14) 0.00525 636.3 0.4
645(14) 0.00517 636.5 0.4
619(13) 0.00599 636.7 0.3
635(13) 0.00550 636.9 0.3
631(14) 0.00535 637.1 0.3
633(14) 0.00535 637.3 0.3
653(14) 0.00537 637.5 0.3
657(13) 0.00564 637.7 0.2
601(13) 0.00587 638.0 0.2
657(14) 0.00509 638.2 0.2
639(14) 0.00525 638.4 0.2
621(13) 0.00577 638.6 0.2
627(13) 0.00583 638.8 0.2
600(13) 0.00571 639.0 0.2
626(13) 0.00556 639.2 0.2
633(14) 0.00543 639.4 0.2
629(13) 0.00591 639.6 0.2
639(13) 0.00569 639.8 0.1
613(13) 0.00574 640.1 0.1
605(13) 0.00551 640.3 0.1
605(13) 0.00583 640.5 0.1
608(13) 0.00605 640.7 0.1
633(13) 0.00581 640.9 0.1
630(13) 0.00551 641.1 0.1
625(14) 0.00523 641.3 0.1
661(14) 0.00522 641.5 0.1
624(13) 0.00581 641.7 0.1
621(13) 0.00603 641.9 0.1
654(14) 0.00518 642.2 0.1
619(14) 0.00512 642.4 0.1
612(13) 0.00563 642.6 0.1
636(13) 0.00568 642.8 0.1
646(13) 0.00571 643.0 0.1
659(14) 0.00519 643.2 0.1
615(14) 0.00532 643.4 0.1
607(13) 0.00558 643.6 0.1
615(13) 0.00596 643.8 0.1
635(13) 0.00582 644.0 0.1
620(13) 0.00552 644.3 0.1
639(14) 0.00502 644.5 0.1
610(13) 0.00553 644.7 0.1
617(13) 0.00601 644.9 0.1
617(13) 0.00583 645.1 0.1
605(13) 0.00567 645.3 0.1
619(14) 0.00535 645.5 0.1
649(14) 0.00534 645.7 0.1
658(13) 0.00564 645.9 0.1
640(13) 0.00574 646.1 0.1
602(13) 0.00579 646.4 0.1
596(13) 0.00565 646.6 0.0
668(14) 0.00526 646.8 0.0
629(13) 0.00593 647.0 0.0
617(13) 0.00589 647.2 0.0
639(14) 0.00534 647.4 0.0
654(14) 0.00510 647.6 0.0
643(13) 0.00549 647.8 6.2
649(13) 0.00572 648.0 6.3
626(13) 0.00553 648.2 6.4
643(14) 0.00519 648.5 6.5
614(13) 0.00568 648.7 6.6
654(14) 0.00547 648.9 6.7
636(13) 0.00586 649.1 6.8
616(13) 0.00567 649.3 6.9
647(14) 0.00515 649.5 7.0
650(14) 0.00533 649.7 7.1
643(13) 0.00570 649.9 7.3
632(13) 0.00584 650.1 7.4
664(14) 0.00512 650.3 7.5
646(14) 0.00512 650.6 7.6
636(13) 0.00557 650.8 7.8
656(13) 0.00553 651.0 7.9
626(13) 0.00588 651.2 8.1
626(13) 0.00554 651.4 8.2
610(14) 0.00527 651.6 8.4
588(13) 0.00611 651.8 8.5
634(13) 0.00583 652.0 8.7
656(13) 0.00566 652.2 8.8
645(14) 0.00536 652.4 9.0
683(15) 0.00461 652.7 9.2
627(14) 0.00544 652.9 9.4
642(13) 0.00578 653.1 9.5
617(13) 0.00604 653.3 9.7
654(14) 0.00526 653.5 9.9
663(15) 0.00470 653.7 10.1
618(13) 0.00565 653.9 10.3
643(13) 0.00577 654.1 10.5
642(13) 0.00577 654.3 10.8
637(14) 0.00543 654.5 11.0
612(14) 0.00539 654.8 11.2
649(14) 0.00530 655.0 11.5
664(13) 0.00553 655.2 11.7
660(13) 0.00549 655.4 12.0
627(13) 0.00557 655.6 12.2
627(14) 0.00525 655.8 12.5
690(14) 0.00492 656.0 12.8
697(14) 0.00537 656.2 13.1
680(14) 0.00534 656.4 13.4
657(14) 0.00515 656.6 13.7
682(14) 0.00481 656.9 14.1
633(13) 0.00551 657.1 14.4
625(13) 0.00591 657.3 14.8
633(13) 0.00571 657.5 15.1
668(14) 0.00496 657.7 15.5
640(14) 0.00530 657.9 15.9
641(14) 0.00546 658.1 16.3
640(13) 0.00582 658.3 16.7
647(13) 0.00551 658.5 17.2
606(13) 0.00560 658.7 17.6
623(13) 0.00550 659.0 18.1
668(14) 0.00536 659.2 18.6
651(13) 0.00572 659.4 19.2
685(14) 0.00506 659.6 19.7
660(14) 0.00505 659.8 20.3
659(14) 0.00518 660.0 20.9
605(13) 0.00604 660.2 21.5
621(13) 0.00600 660.4 22.1
654(14) 0.00525 660.6 22.8
661(14) 0.00505 660.8 23.5
629(13) 0.00551 661.1 24.3
658(14) 0.00548 661.3 25.0
688(14) 0.00541 661.5 25.9
672(14) 0.00503 661.7 26.7
645(14) 0.00520 661.9 27.6
647(14) 0.00545 662.1 28.6
650(13) 0.00563 662.3 29.6
682(14) 0.00547 662.5 30.6
643(13) 0.00549 662.7 31.7
701(14) 0.00482 662.9 32.9
692(14) 0.00523 663.2 34.1
654(13) 0.00570 663.4 35.4
659(13) 0.00560 663.6 36.8
655(14) 0.00529 663.8 38.3
692(15) 0.00472 664.0 39.8
663(14) 0.00537 664.2 41.5
676(13) 0.00556 664.4 43.2
648(13) 0.00578 664.6 45.1
659(14) 0.00516 664.8 47.1
634(14) 0.00509 665.0 49.2
666(14) 0.00520 665.3 51.4
705(14) 0.00524 665.5 53.9
651(13) 0.00562 665.7 56.5
669(14) 0.00531 665.9 59.3
688(14) 0.00476 666.1 62.3
687(14) 0.00506 666.3 65.5
690(14) 0.00536 666.5 69.0
680(14) 0.00543 666.7 72.8
690(14) 0.00484 666.9 76.9
658(14) 0.00494 667.1 81.3
680(14) 0.00494 667.4 86.2
715(14) 0.00519 667.6 91.4
707(14) 0.00513 667.8 97.2
704(14) 0.00487 668.0 103.6
692(14) 0.00508 668.2 110.6
700(14) 0.00502 668.4 118.3
742(14) 0.00503 668.6 126.8
690(14) 0.00519 668.8 136.3
725(15) 0.00463 669.0 146.9
748(15) 0.00458 669.2 158.8
730(14) 0.00485 669.5 172.1
746(14) 0.00501 669.7 187.1
784(15) 0.00450 669.9 204.2
765(15) 0.00452 670.1 223.7
827(15) 0.00417 670.3 246.1
857(16) 0.00411 670.5 272.0
851(15) 0.00439 670.7 302.3
921(16) 0.00376 670.9 338.0
970(17) 0.003475 671.1 381.2
1008(17) 0.00352 671.3 435.0
1128(18) 0.003145 671.6 504.6
1313(19) 0.002834 671.8 599.3
1539(21) 0.002276 672.0 734.4
1875(24) 0.001760 672.2 933.1
2302(26) 0.001501 672.4 1228.9
2928(29) 0.001230 672.6 1663.5
3547(31) 0.001042 672.8 2283.5
4381(35) 0.000796 673. 3129.
5129(40) 0.000637 673. 4219.
5959(42) 0.000575 673. 5535.
7008(44) 0.000522 674. 7001.
8223(47) 0.000447 674. 8466.
9579(53) 0.000362 674. 9691.
10864(58) 0.0002922 674. 10376.
11817(59) 0.0002879 674. 10306.
11177(55) 0.0003272 675. 9505.
9480(51) 0.000382 675. 8217.
7346(46) 0.000464 675. 6736.
5632(42) 0.000573 675. 5288.
4253(35) 0.000827 675.5 4008.3
3323(30) 0.001115 675.7 2961.8
2715(27) 0.001345 676.0 2158.5
2160(25) 0.001610 676.2 1574.3
1880(24) 0.001741 676.4 1167.7
1626(22) 0.002113 676.6 892.0
1517(20) 0.002446 676.8 706.7
1265(19) 0.002896 677.0 580.2
1208(19) 0.002907 677.2 490.7
1153(18) 0.002936 677.4 424.5
1016(17) 0.003446 677.6 372.9
1025(17) 0.00360 677.8 331.2
999(17) 0.00363 678.1 296.5
917(16) 0.00374 678.3 267.1
913(17) 0.00367 678.5 241.9
842(15) 0.00423 678.7 220.1
815(15) 0.00455 678.9 201.0
818(15) 0.00435 679.1 184.3
821(16) 0.00409 679.3 169.6
800(15) 0.00426 679.5 156.6
797(15) 0.00448 679.7 144.9
772(14) 0.00481 679.9 134.6
763(15) 0.00458 680.2 125.2
799(15) 0.00420 680.4 116.9
747(15) 0.00465 680.6 109.3
750(15) 0.00474 680.8 102.4
697(14) 0.00532 681.0 96.2
750(15) 0.00458 681.2 90.5
725(15) 0.00466 681.4 85.3
732(15) 0.00474 681.6 80.5
695(14) 0.00525 681.8 76.1
742(14) 0.00502 682.0 72.1
725(14) 0.00479 682.3 68.3
712(15) 0.00469 682.5 64.9
750(15) 0.00445 682.7 61.7
678(14) 0.00543 682.9 58.7
685(14) 0.00545 683.1 56.0
722(14) 0.00484 683.3 53.4
720(15) 0.00467 683.5 51.0
688(14) 0.00506 683.7 48.8
697(14) 0.00531 683.9 46.7
737(14) 0.00498 684.1 44.7
694(14) 0.00500 684.4 42.9
726(15) 0.00450 684.6 41.1
712(14) 0.00506 684.8 39.5
710(14) 0.00521 685.0 38.0
653(13) 0.00570 685.2 36.5
692(14) 0.00509 685.4 35.2
701(15) 0.00475 685.6 33.9
714(14) 0.00498 685.8 32.7
685(14) 0.00544 686.0 31.5
685(14) 0.00541 686.2 30.4
701(14) 0.00496 686.5 29.4
698(15) 0.00466 686.7 28.4
698(14) 0.00486 686.9 27.4
721(14) 0.00512 687.1 26.5
707(14) 0.00525 687.3 25.7
682(14) 0.00519 687.5 24.9
683(14) 0.00486 687.7 24.1
653(14) 0.00534 687.9 23.4
693(14) 0.00535 688.1 22.7
698(14) 0.00517 688.3 22.0
685(14) 0.00515 688.6 21.4
678(14) 0.00486 688.8 20.7
683(14) 0.00509 689.0 20.2
704(14) 0.00527 689.2 19.6
686(14) 0.00525 689.4 19.0
691(14) 0.00496 689.6 18.5
708(15) 0.00474 689.8 18.0
666(14) 0.00540 690.0 17.6
681(13) 0.00552 690.2 17.1
689(14) 0.00512 690.4 16.7
687(14) 0.00495 690.7 16.2
676(14) 0.00504 690.9 15.8
667(14) 0.00533 691.1 15.4
702(14) 0.00530 691.3 15.0
679(14) 0.00521 691.5 14.7
671(14) 0.00517 691.7 14.3
686(14) 0.00515 691.9 14.0
722(14) 0.00495 692.1 13.7
677(14) 0.00548 692.3 13.3
687(14) 0.00495 692.5 13.0
680(14) 0.00489 692.8 12.7
695(14) 0.00505 693.0 12.5
668(13) 0.00558 693.2 12.2
681(14) 0.00547 693.4 11.9
624(13) 0.00555 693.6 11.7
708(15) 0.00451 693.8 11.4
672(14) 0.00515 694.0 11.2
659(13) 0.00556 694.2 10.9
663(13) 0.00565 694.4 10.7
688(14) 0.00501 694.6 10.5
663(14) 0.00499 694.9 10.3
671(14) 0.00520 695.1 10.1
717(14) 0.00513 695.3 9.9
707(14) 0.00522 695.5 9.7
648(13) 0.00551 695.7 9.5
688(15) 0.00467 695.9 9.3
695(14) 0.00507 696.1 9.1
722(14) 0.00514 696.3 8.9
655(13) 0.00571 696.5 8.8
691(14) 0.00504 696.7 8.6
722(15) 0.00439 697.0 8.5
681(14) 0.00514 697.2 8.3
728(14) 0.00513 697.4 8.1
681(14) 0.00537 697.6 8.0
662(14) 0.00520 697.8 7.9
674(14) 0.00477 698.0 7.7
686(14) 0.00511 698.2 7.6
698(14) 0.00535 698.4 7.5
739(14) 0.00502 698.6 7.3
692(14) 0.00512 698.8 7.2
704(15) 0.00472 699.1 7.1
702(14) 0.00496 699.3 7.0
686(14) 0.00543 699.5 6.8
695(14) 0.00515 699.7 6.7
676(14) 0.00509 699.9 6.6
667(14) 0.00520 700.1 6.5
717(14) 0.00487 700.3 6.4
710(14) 0.00522 700.5 6.3
730(14) 0.00488 700.7 0.0
686(14) 0.00496 700.9 0.0
689(14) 0.00494 701.2 0.0
674(14) 0.00541 701.4 0.0
673(13) 0.00554 701.6 0.0
675(14) 0.00512 701.8 0.0
719(15) 0.00467 702.0 0.0
729(14) 0.00481 702.2 0.0
712(14) 0.00495 702.4 0.0
702(14) 0.00530 702.6 0.0
702(14) 0.00490 702.8 0.0
740(15) 0.00448 703.0 0.0
693(14) 0.00512 703.3 0.0
742(14) 0.00487 703.5 0.0
666(13) 0.00564 703.7 0.0
668(14) 0.00516 703.9 0.0
675(14) 0.00497 704.1 0.0
719(15) 0.00472 704.3 0.0
689(14) 0.00535 704.5 0.0
748(14) 0.00497 704.7 0.0
719(14) 0.00489 704.9 0.0
672(14) 0.00511 705.1 0.0
692(14) 0.00507 705.4 0.0
704(14) 0.00523 705.6 0.0
661(13) 0.00563 705.8 0.0
658(14) 0.00529 706.0 0.0
700(15) 0.00450 706.2 0.0
715(14) 0.00483 706.4 0.0
702(14) 0.00531 706.6 0.0
721(14) 0.00507 706.8 0.0
688(14) 0.00497 707.0 0.0
701(15) 0.00454 707.2 0.0
702(14) 0.00495 707.5 0.0
691(14) 0.00537 707.7 0.0
697(14) 0.00529 707.9 0.0
702(14) 0.00509 708.1 0.0
698(15) 0.00466 708.3 0.0
697(14) 0.00494 708.5 0.0
711(14) 0.00526 708.7 0.0
726(14) 0.00506 708.9 0.0
727(14) 0.00482 709.1 0.0
711(14) 0.00476 709.3 0.0
693(14) 0.00504 709.6 0.0
706(14) 0.00531 709.8 0.0
666(14) 0.00548 710.0 0.0
701(14) 0.00488 710.2 0.0
727(15) 0.00467 710.4 0.0
740(15) 0.00472 710.6 0.0
723(14) 0.00514 710.8 0.0
743(14) 0.00481 711.0 0.0
750(15) 0.00453 711.2 0.0
701(14) 0.00491 711.4 0.0
682(14) 0.00526 711.7 0.0
719(14) 0.00519 711.9 0.0
706(14) 0.00509 712.1 0.0
721(15) 0.00464 712.3 0.0
716(14) 0.00484 712.5 0.0
725(14) 0.00491 712.7 0.0
708(14) 0.00523 712.9 0.0
718(15) 0.00475 713.1 0.0
742(15) 0.00457 713.3 0.0
720(14) 0.00485 713.5 0.0
695(14) 0.00518 713.8 0.0
718(14) 0.00519 714.0 0.0
716(14) 0.00496 714.2 0.0
713(15) 0.00466 714.4 0.0
703(14) 0.00478 714.6 0.0
702(14) 0.00517 714.8 0.0
697(14) 0.00535 715.0 0.0
694(14) 0.00495 715.2 0.0
722(15) 0.00449 715.4 0.0
734(15) 0.00471 715.6 0.0
731(14) 0.00501 715.9 0.0
699(14) 0.00530 716.1 0.0
724(15) 0.00471 716.3 0.0
721(15) 0.00438 716.5 0.0
708(14) 0.00491 716.8 0.0
695(14) 0.00528 717.3 0.0
735(14) 0.00506 717.9 0.0
706(14) 0.00499 718.4 0.0
721(15) 0.00452 718.9 0.0
715(14) 0.00491 719.5 0.0
714(14) 0.00519 720.0 0.0
735(14) 0.00501 720.6 0.0
764(15) 0.00463 721.1 0.0
742(15) 0.00446 721.7 0.0
726(14) 0.00491 722.2 0.0
711(14) 0.00528 722.8 0.0
758(14) 0.00478 723.3 0.0
709(14) 0.00485 723.9 0.0
710(14) 0.00476 724.4 0.0
683(14) 0.00511 725.0 0.0
725(14) 0.00515 725.5 0.0
734(14) 0.00483 726.1 0.0
729(15) 0.00472 726.6 0.0
734(15) 0.00468 727.2 0.0
738(15) 0.00458 727.7 0.0
745(14) 0.00502 728.3 0.0
697(14) 0.00512 728.8 0.0
727(15) 0.00468 729.4 0.0
729(15) 0.00462 729.9 0.0
716(14) 0.00498 730.5 0.0
713(14) 0.00520 731.0 0.0
713(14) 0.00504 731.6 0.0
739(15) 0.00464 732.1 0.0
746(15) 0.00465 732.7 0.0
730(14) 0.00496 733.2 0.0
727(14) 0.00515 733.8 0.0
738(15) 0.00474 734.3 0.0
747(15) 0.00454 734.9 0.0
729(14) 0.00477 735.4 0.0
722(14) 0.00500 736.0 0.0
718(14) 0.00518 736.5 0.0
718(14) 0.00477 737.1 0.0
770(15) 0.00426 737.6 0.0
716(14) 0.00487 738.2 0.0
711(14) 0.00520 738.7 0.0
768(14) 0.00482 739.3 0.0
728(14) 0.00478 739.8 0.0
754(15) 0.00433 740.4 0.0
731(14) 0.00477 740.9 0.0
724(14) 0.00503 741.5 0.0
743(14) 0.00500 742.0 0.0
760(15) 0.00446 742.6 0.0
726(15) 0.00461 743.1 0.0
757(15) 0.00461 743.7 9.0
753(14) 0.00491 744.2 9.1
696(14) 0.00535 744.8 9.2
733(14) 0.00479 745.3 9.3
741(15) 0.00436 745.9 9.4
709(14) 0.00483 746.4 9.5
724(14) 0.00517 747.0 9.6
711(14) 0.00522 747.5 9.7
776(15) 0.00447 748.1 9.8
741(15) 0.00439 748.6 10.0
749(15) 0.00463 749.2 10.1
762(14) 0.00488 749.7 10.2
734(14) 0.00501 750.3 10.3
727(14) 0.00484 750.8 10.5
733(15) 0.00460 751.4 10.6
780(15) 0.00436 751.9 10.7
734(14) 0.00509 752.5 10.9
739(14) 0.00489 753.0 11.0
775(15) 0.00434 753.6 11.1
742(15) 0.00451 754.1 11.3
725(14) 0.00476 754.7 11.8
762(14) 0.00489 755.2 12.0
721(14) 0.00493 755.8 12.2
711(15) 0.00470 756.3 12.3
718(15) 0.00474 756.9 12.5
787(15) 0.00451 757.4 12.7
735(14) 0.00507 758.0 12.8
720(14) 0.00495 758.5 13.0
754(15) 0.00451 759.1 13.2
738(15) 0.00469 759.6 13.4
731(14) 0.00477 760.2 13.5
757(14) 0.00492 760.7 13.7
762(15) 0.00462 761.3 13.9
782(15) 0.00430 761.8 14.1
746(15) 0.00465 762.3 14.3
751(14) 0.00479 762.9 14.5
756(14) 0.00490 763.4 14.7
752(15) 0.00457 764.0 14.9
755(15) 0.00440 764.5 15.2
732(14) 0.00482 765.1 15.4
775(15) 0.00466 765.6 15.6
795(15) 0.00467 766.2 15.9
768(15) 0.00453 766.7 16.1
753(15) 0.00430 767.3 16.3
731(15) 0.00468 767.8 16.6
775(15) 0.00468 768.4 16.8
765(14) 0.00486 768.9 17.1
795(15) 0.00434 769.5 17.4
778(15) 0.00416 770.0 17.7
753(15) 0.00467 770.6 17.9
761(14) 0.00486 771.1 18.2
779(14) 0.00483 771.7 18.5
759(15) 0.00462 772.2 18.8
779(16) 0.00405 772.8 19.1
766(15) 0.00454 773.3 19.5
775(15) 0.00471 773.9 19.8
785(14) 0.00476 774.4 20.1
751(15) 0.00466 775.0 20.5
798(16) 0.00405 775.5 20.8
769(15) 0.00455 776.1 21.2
769(14) 0.00483 776.6 21.5
801(15) 0.00458 777.2 21.9
802(15) 0.00429 777.7 22.3
782(15) 0.00417 778.3 22.7
795(15) 0.00444 778.8 23.1
781(14) 0.00476 779.4 23.6
760(14) 0.00480 779.9 24.0
763(15) 0.00444 780.5 24.4
775(15) 0.00430 781.0 24.9
771(15) 0.00452 781.6 25.4
800(15) 0.00463 782.1 25.9
792(15) 0.00462 782.7 26.4
825(16) 0.00408 783.2 26.9
799(15) 0.00432 783.8 27.4
796(15) 0.00435 784.3 28.0
761(14) 0.00489 784.9 28.5
798(15) 0.00445 785.4 29.1
802(15) 0.00431 786.0 29.7
819(16) 0.00412 786.5 30.3
780(15) 0.00453 787.1 31.0
820(15) 0.00454 787.6 31.6
822(15) 0.00426 788.2 32.3
806(15) 0.00425 788.7 33.0
840(16) 0.00414 789.3 33.7
797(15) 0.00455 789.8 34.5
768(14) 0.00483 790.4 35.3
789(15) 0.00428 790.9 36.1
798(16) 0.00415 791.5 36.9
798(15) 0.00439 792.0 37.8
769(15) 0.00470 792.6 38.7
827(15) 0.00453 793.1 39.6
787(15) 0.00443 793.7 40.6
798(16) 0.00415 794.2 41.5
816(15) 0.00425 794.8 42.6
813(15) 0.00450 795.3 43.7
831(15) 0.00448 795.9 44.8
835(15) 0.00417 796.4 45.9
790(16) 0.00414 797.0 47.1
816(15) 0.00428 797.5 48.4
802(15) 0.00458 798.1 49.7
814(15) 0.00458 798.6 51.0
821(16) 0.00414 799.2 52.5
796(16) 0.00397 799.7 53.9
772(15) 0.00457 800.3 55.5
814(15) 0.00459 800.8 57.1
830(15) 0.00446 801.4 58.8
807(15) 0.00432 801.9 60.5
811(16) 0.00403 802.5 62.4
818(15) 0.00430 803.0 64.3
812(15) 0.00458 803.6 66.4
850(15) 0.00435 804.1 68.5
855(16) 0.00408 804.7 70.7
823(16) 0.00402 805.2 73.1
827(15) 0.00424 805.8 75.6
808(15) 0.00459 806.3 78.2
869(15) 0.00419 806.8 80.9
825(15) 0.00422 807.4 83.8
855(16) 0.00390 807.9 86.9
864(16) 0.00407 808.5 90.2
938(16) 0.00398 809.0 93.7
885(16) 0.00407 809.6 97.4
850(16) 0.00409 810.1 101.3
870(16) 0.00383 810.7 105.5
842(16) 0.00415 811.2 110.0
844(15) 0.00442 811.8 114.9
912(16) 0.00388 812.3 120.1
895(16) 0.00387 812.9 125.7
941(17) 0.00361 813.4 131.8
933(16) 0.00379 814.0 138.4
932(16) 0.00399 814.5 145.7
956(16) 0.00372 815.1 153.7
924(16) 0.00376 815.6 162.8
957(17) 0.00362 816.2 173.3
969(16) 0.00368 816.7 185.7
983(16) 0.00377 817.3 201.2
967(17) 0.00363 817.8 221.1
1034(17) 0.003346 818.4 247.5
1081(18) 0.003262 818.9 283.1
1170(18) 0.003094 819.5 330.6
1204(18) 0.003090 820.0 392.6
1268(19) 0.002754 820.6 470.8
1347(20) 0.002491 821.1 564.7
1440(20) 0.002396 821.7 670.7
1505(20) 0.002417 822.2 781.5
1605(21) 0.002323 822.8 884.7
1756(23) 0.001972 823.3 964.0
1827(24) 0.001800 823.9 1003.1
1802(23) 0.001933 824.4 996.0
1840(22) 0.001994 825.0 950.7
1719(22) 0.002162 825.5 884.5
1595(22) 0.002146 826.1 813.9
1420(21) 0.002247 826.6 751.3
1378(20) 0.002497 827.2 704.2
1412(19) 0.002630 827.7 676.6
1393(19) 0.002667 828.3 670.0
1418(20) 0.002447 828.8 684.4
1405(21) 0.002329 829.4 719.4
1477(21) 0.002337 829.9 775.4
1592(21) 0.002338 830.5 854.5
1742(22) 0.002114 831.0 960.7
1930(23) 0.001813 831.6 1100.4
2113(25) 0.001549 832.1 1282.6
2268(26) 0.001538 832.7 1518.6
2677(27) 0.001378 833.2 1821.7
3044(29) 0.001205 833.8 2205.8
3560(32) 0.000975 834.3 2684.9
4225(36) 0.000782 835. 3271.
4967(38) 0.000686 835. 3971.
5837(40) 0.000631 836. 4789.
6891(44) 0.000522 837. 5714.
7737(47) 0.000447 837. 6729.
8942(52) 0.000368 838. 7797.
10059(55) 0.0003364 838. 8865.
11035(55) 0.0003316 839. 9855.
11946(58) 0.0002932 839. 10667.
12598(61) 0.0002674 840. 11196.
12736(62) 0.0002624 840. 11359.
12201(59) 0.0002854 841. 11129.
11463(56) 0.0003191 841. 10543.
10368(55) 0.0003325 842. 9692.
9196(53) 0.000363 843. 8682.
8175(49) 0.000418 843. 7608.
7208(45) 0.000493 844. 6544.
6237(41) 0.000590 844. 5541.
5490(40) 0.000619 845. 4632.
4809(38) 0.000701 845. 3833.
4215(35) 0.000822 845.9 3150.9
3537(31) 0.001027 846.4 2582.0
3232(30) 0.001146 847.0 2117.8
2860(29) 0.001205 847.5 1746.2
2712(29) 0.001231 848.1 1452.6
2374(26) 0.001483 848.6 1223.1
2203(25) 0.001651 849.2 1044.2
2068(24) 0.001802 849.7 904.5
1957(24) 0.001757 850.3 794.5
1756(23) 0.001869 850.8 706.7
1644(22) 0.002143 851.3 635.4
1604(21) 0.002301 851.9 576.3
1531(20) 0.002426 852.4 526.4
1466(20) 0.002386 853.0 483.6
1454(21) 0.002203 853.5 446.3
1408(20) 0.002447 854.1 413.4
1367(19) 0.002676 854.6 384.2
1308(19) 0.002808 855.2 358.0
1277(19) 0.002668 855.7 334.4
1227(20) 0.002609 856.3 313.0
1190(18) 0.002951 856.8 293.6
1120(17) 0.003299 857.4 276.0
1144(18) 0.003190 857.9 259.8
1075(18) 0.003197 858.5 245.1
1093(18) 0.002973 859.0 231.5
1088(18) 0.003176 859.6 219.0
1084(17) 0.003440 860.1 207.5
1064(17) 0.003453 860.7 196.9
1082(18) 0.003210 861.2 187.0
1046(18) 0.003192 861.8 177.9
998(17) 0.003463 862.3 169.4
998(16) 0.00372 862.9 161.5
1042(17) 0.003454 863.4 154.2
986(17) 0.00354 864.0 147.3
960(17) 0.00353 864.5 140.9
979(17) 0.003426 865.1 134.9
976(16) 0.00381 865.6 129.2
941(16) 0.00383 866.2 123.9
979(17) 0.00355 866.7 118.9
960(17) 0.00356 867.3 114.3
988(17) 0.003440 867.8 109.8
945(16) 0.00395 868.4 105.7
944(16) 0.00376 868.9 101.7
912(16) 0.00372 869.5 98.0
930(17) 0.00366 870.0 94.5
930(16) 0.00387 870.6 91.2
936(16) 0.00397 871.1 88.0
908(16) 0.00375 871.7 85.0
921(17) 0.00363 872.2 82.1
904(16) 0.00382 872.8 79.4
903(16) 0.00402 873.3 76.9
917(16) 0.00400 873.9 74.4
941(17) 0.00357 874.4 72.1
893(16) 0.00376 875.0 69.8
922(17) 0.00365 875.5 67.7
943(16) 0.00382 876.1 65.7
885(15) 0.00417 876.6 63.7
879(16) 0.00382 877.2 61.9
886(16) 0.00368 877.7 60.1
900(16) 0.00384 878.3 58.4
893(16) 0.00413 878.8 56.8
869(15) 0.00428 879.4 55.2
880(16) 0.00396 879.9 53.7
871(16) 0.00372 880.5 52.2
858(16) 0.00410 881.0 50.9
901(16) 0.00404 881.6 49.5
882(15) 0.00422 882.1 48.3
913(16) 0.00378 882.7 47.0
901(17) 0.00358 883.2 45.8
952(17) 0.00361 883.8 44.7
922(16) 0.00405 884.3 43.6
910(16) 0.00408 884.9 42.5
909(16) 0.00384 885.4 41.5
905(17) 0.00364 886.0 41.8
926(16) 0.00370 886.5 40.9
912(16) 0.00407 887.1 40.0
911(16) 0.00398 887.6 39.2
935(17) 0.00363 888.2 38.4
902(16) 0.00370 888.7 37.6
950(17) 0.00367 889.3 36.8
957(16) 0.00390 889.8 36.1
945(16) 0.00388 890.4 35.4
944(17) 0.00357 890.9 34.7
890(16) 0.00375 891.5 34.0
919(16) 0.00373 892.0 33.4
894(16) 0.00413 892.6 32.8
910(16) 0.00397 893.1 32.2
906(16) 0.00382 893.7 31.7
870(16) 0.00392 894.2 31.1
899(16) 0.00390 894.7 30.6
918(16) 0.00406 895.3 30.1
892(16) 0.00386 895.8 29.6
878(16) 0.00392 896.4 29.1
895(16) 0.00387 896.9 28.7
928(16) 0.00384 897.5 28.2
895(15) 0.00417 898.0 27.8
903(16) 0.00387 898.6 27.4
891(16) 0.00387 899.2 27.1
886(16) 0.00392 899.7 26.7
880(16) 0.00409 900.3 26.3
897(16) 0.00414 900.9 26.0
919(17) 0.00364 901.4 25.7
912(17) 0.00352 902.0 25.4
893(16) 0.00371 902.6 25.1
866(16) 0.00412 903.2 24.9
930(16) 0.00402 903.7 24.6
934(16) 0.00378 904.3 24.4
908(16) 0.00368 904.9 24.2
921(16) 0.00375 905.4 24.0
890(16) 0.00414 906.0 23.8
932(16) 0.00399 906.6 23.6
923(16) 0.00381 907.1 23.5
913(17) 0.00366 907.7 23.4
915(16) 0.00376 908.3 23.3
909(16) 0.00400 908.9 23.2
917(16) 0.00406 909.4 23.1
914(16) 0.00385 910.0 23.1
891(16) 0.00376 910.6 23.1
975(17) 0.00357 911.1 23.1
916(16) 0.00405 911.7 23.1
912(16) 0.00402 912.3 23.2
925(17) 0.00365 912.9 23.3
913(17) 0.00358 913.4 23.5
936(16) 0.00373 914.0 23.7
931(16) 0.00400 914.6 23.9
899(16) 0.00412 915.1 24.2
929(16) 0.00379 915.7 24.5
945(17) 0.00352 916.3 24.9
920(16) 0.00380 916.8 25.3
916(16) 0.00405 917.4 25.9
933(16) 0.00397 918.0 26.5
934(16) 0.00370 918.6 27.2
921(16) 0.00370 919.1 28.0
936(16) 0.00374 919.7 28.9
912(16) 0.00407 920.3 30.0
921(16) 0.00392 920.8 31.3
951(17) 0.00357 921.4 32.8
941(17) 0.003485 922.0 34.5
899(16) 0.00382 922.6 36.5
892(16) 0.00416 923.1 38.8
908(16) 0.00398 923.7 41.6
954(17) 0.003502 924.3 44.8
967(17) 0.00352 924.8 48.8
957(17) 0.00367 925.4 53.5
955(16) 0.00389 926.0 59.4
1033(17) 0.003440 926.6 66.8
1058(18) 0.003187 927.1 76.9
1066(18) 0.003226 927.7 91.9
1108(18) 0.003238 928.3 116.4
1209(18) 0.003064 928.8 159.1
1309(20) 0.002615 929.4 234.6
1455(21) 0.002321 930.0 363.3
1672(22) 0.002058 930.5 567.3
1833(23) 0.001970 931.1 861.3
2079(24) 0.001782 931.7 1240.3
2276(26) 0.001515 932.3 1666.5
2548(28) 0.001320 932.8 2063.5
2981(29) 0.001150 933.4 2321.1
3495(31) 0.001036 934.0 2340.3
3605(31) 0.001027 934.5 2112.6
3003(30) 0.001128 935.1 1728.5
2090(25) 0.001576 935.7 1300.5
1651(22) 0.002131 936.3 911.0
1451(20) 0.002549 936.8 603.3
1254(18) 0.002974 937.4 386.5
1174(18) 0.002934 938.0 247.9
1135(19) 0.002856 938.5 156.6
1083(18) 0.003209 939.1 110.0
1048(17) 0.003497 939.7 83.3
994(16) 0.00375 940.3 67.2
1037(17) 0.003307 940.8 56.4
999(18) 0.003199 941.4 48.5
975(17) 0.00360 942.0 42.3
1016(16) 0.00368 942.5 37.2
975(16) 0.00375 943.1 33.0
983(17) 0.003481 943.7 29.5
970(17) 0.003449 944.2 26.5
974(17) 0.00359 944.8 23.9
941(16) 0.00398 945.4 21.7
1025(17) 0.00354 946.0 19.8
965(17) 0.00362 946.5 18.1
1016(17) 0.003272 947.1 16.7
1004(17) 0.003424 947.7 15.3
981(16) 0.00379 948.2 14.2
915(16) 0.00399 948.8 13.2
945(17) 0.00365 949.4 12.2
973(17) 0.00351 950.0 11.4
951(16) 0.00368 950.5 10.6
926(16) 0.00404 951.1 10.0
948(16) 0.00376 951.7 9.4
927(16) 0.00370 952.2 8.8
914(16) 0.00373 952.8 8.3
960(17) 0.00362 953.4 7.8
974(16) 0.00382 954.0 7.4
994(17) 0.00356 954.5 7.0
974(17) 0.00354 955.1 6.6
986(17) 0.00352 955.7 6.3
927(16) 0.00384 956.2 6.0
920(16) 0.00405 956.8 5.7
987(17) 0.003464 957.4 5.4
999(17) 0.003362 957.9 5.2
979(17) 0.00351 958.5 4.9
995(17) 0.00363 959.1 4.7
973(16) 0.00385 959.7 4.5
933(16) 0.00376 960.2 4.3
949(17) 0.00353 960.8 4.1
984(17) 0.00353 961.4 4.0
988(16) 0.00371 961.9 3.8
945(16) 0.00395 962.5 3.7
933(16) 0.00379 963.1 4.8
970(17) 0.003399 963.7 4.6
945(17) 0.00367 964.2 4.5
945(16) 0.00394 964.8 4.4
975(16) 0.00382 965.4 4.3
984(17) 0.00352 965.9 4.2
959(17) 0.003394 966.5 4.1
995(17) 0.003465 967.1 4.0
954(16) 0.00385 967.7 4.0
963(16) 0.00382 968.2 3.9
951(17) 0.00365 968.8 3.8
965(18) 0.003261 969.4 3.8
931(16) 0.00374 969.9 3.7
1014(17) 0.00364 970.5 3.6
965(16) 0.00380 971.1 3.6
952(17) 0.00367 971.6 3.5
963(17) 0.003316 972.2 3.5
948(16) 0.00370 972.8 3.4
958(16) 0.00388 973.4 3.4
954(16) 0.00385 973.9 3.3
998(17) 0.003445 974.5 3.3
977(17) 0.003380 975.1 3.3
971(17) 0.00353 975.6 3.2
943(16) 0.00394 976.2 3.2
986(17) 0.00364 976.8 3.2
1003(17) 0.003420 977.4 3.2
1011(17) 0.003346 977.9 3.1
994(17) 0.003463 978.5 3.1
984(16) 0.00375 979.1 3.1
991(17) 0.00363 979.6 3.1
955(17) 0.00363 980.2 3.0
980(17) 0.003440 980.8 3.0
974(17) 0.00360 981.3 3.0
984(16) 0.00380 981.9 1.7
993(17) 0.00354 982.5 1.7
1016(17) 0.003404 983.1 1.7
1006(17) 0.003336 983.6 1.7
989(17) 0.00352 984.2 1.7
1002(16) 0.00374 984.8 1.8
979(17) 0.00359 985.3 1.8
959(17) 0.00355 985.9 1.8
985(17) 0.003470 986.5 1.8
955(16) 0.00379 987.1 1.8
965(16) 0.00383 987.6 1.9
964(17) 0.00360 988.2 1.9
957(17) 0.003497 988.8 1.9
970(17) 0.00354 989.3 1.9
960(16) 0.00382 989.9 1.9
1022(17) 0.00366 990.5 2.0
997(17) 0.00354 991.1 2.0
962(17) 0.00351 991.6 2.0
1004(17) 0.003450 992.2 2.0
1017(17) 0.00356 992.8 2.0
1007(16) 0.00372 993.3 2.1
1005(17) 0.003472 993.9 2.1
948(17) 0.00352 994.5 2.1
1019(17) 0.003396 995.0 2.1
1007(17) 0.00366 995.6 2.2
1015(17) 0.00365 996.2 2.2
971(17) 0.00364 996.8 2.2
992(18) 0.003184 997.3 2.2
991(17) 0.003468 997.9 2.3
988(16) 0.00376 998.5 2.3
947(16) 0.00390 999.0 2.3
962(17) 0.00366 999.6 2.3
1018(18) 0.003169 1000.3 2.4
986(17) 0.00355 1000.9 2.4
961(16) 0.00391 1001.5 2.4
963(16) 0.00380 1002.2 2.5
1032(17) 0.003291 1002.8 2.5
985(17) 0.003303 1003.5 2.5
952(17) 0.00362 1004.1 2.5
986(16) 0.00378 1004.7 2.6
962(16) 0.00381 1005.4 2.6
1004(17) 0.003478 1006.0 2.6
1022(18) 0.003214 1006.7 2.7
1025(17) 0.003299 1007.3 2.7
1050(17) 0.00355 1007.9 2.7
1021(17) 0.003488 1008.6 2.8
998(17) 0.003466 1009.2 2.8
1013(17) 0.003270 1009.8 2.8
1046(17) 0.003304 1010.5 2.9
1031(17) 0.00359 1011.1 2.9
1007(17) 0.00356 1011.8 3.0
1014(17) 0.003427 1012.4 3.0
1033(17) 0.003346 1013.0 3.0
1033(17) 0.003484 1013.7 3.1
1021(17) 0.00365 1014.3 3.1
1020(17) 0.003440 1015.0 3.2
978(17) 0.003491 1015.6 3.2
1012(17) 0.003403 1016.2 3.2
1029(17) 0.003415 1016.9 3.3
953(16) 0.00392 1017.5 3.3
971(17) 0.00359 1018.1 3.4
998(17) 0.003411 1018.8 3.4
1019(17) 0.003389 1019.4 3.5
1027(17) 0.00351 1020.1 3.5
1064(17) 0.00351 1020.7 3.6
1022(17) 0.003331 1021.3 3.6
1013(17) 0.003272 1022.0 3.7
1024(17) 0.003430 1022.6 3.7
1045(17) 0.003498 1023.3 3.8
1043(17) 0.00357 1023.9 3.9
1057(17) 0.003279 1024.5 3.9
1039(18) 0.003138 1025.2 4.0
1054(17) 0.003336 1025.8 4.0
1069(17) 0.003435 1026.4 4.1
1068(17) 0.003476 1027.1 4.2
1014(17) 0.003422 1027.7 4.2
1052(18) 0.003014 1028.4 4.3
1040(17) 0.003377 1029.0 4.4
1033(17) 0.00359 1029.6 4.4
1016(17) 0.00365 1030.3 4.5
1038(17) 0.003357 1030.9 4.6
1033(18) 0.003192 1031.6 4.7
1039(17) 0.003349 1032.2 4.7
1040(17) 0.00355 1032.8 4.8
1042(17) 0.00355 1033.5 4.9
1051(17) 0.003352 1034.1 5.0
1027(17) 0.003318 1034.7 5.1
1038(17) 0.003385 1035.4 5.2
1100(17) 0.003378 1036.0 5.2
1049(17) 0.003469 1036.7 5.3
1010(17) 0.00354 1037.3 5.4
1030(17) 0.003272 1037.9 5.5
1027(17) 0.003331 1038.6 5.6
1071(17) 0.003463 1039.2 5.7
1005(17) 0.00356 1039.9 5.8
1003(17) 0.00352 1040.5 6.0
1049(18) 0.003179 1041.1 6.1
1075(18) 0.003211 1041.8 6.2
1049(17) 0.00354 1042.4 6.3
1045(17) 0.003385 1043.1 6.4
1059(18) 0.003147 1043.7 6.6
1037(18) 0.003265 1044.3 6.7
1068(18) 0.003243 1045.0 6.8
1076(17) 0.003467 1045.6 7.0
1044(17) 0.003406 1046.2 7.1
1111(18) 0.003082 1046.9 7.2
1056(17) 0.003283 1047.5 7.4
1004(17) 0.00357 1048.2 7.5
1064(17) 0.003495 1048.8 7.7
1094(18) 0.003202 1049.4 7.9
1049(18) 0.003239 1050.1 8.0
1034(17) 0.003344 1050.7 8.2
1020(17) 0.00355 1051.4 8.4
1105(17) 0.003353 1052.0 8.6
1066(18) 0.003256 1052.6 8.8
1022(17) 0.003376 1053.3 9.0
1075(18) 0.003234 1053.9 9.2
1052(17) 0.003492 1054.5 9.4
1027(17) 0.00365 1055.2 9.6
1143(18) 0.003023 1055.8 9.9
1078(18) 0.003091 1056.5 10.1
1038(17) 0.003410 1057.1 10.4
1133(18) 0.003234 1057.7 10.6
1076(17) 0.003437 1058.4 10.9
1064(17) 0.003288 1059.0 11.2
1099(19) 0.002867 1059.7 11.4
1052(17) 0.003287 1060.3 11.7
1064(17) 0.003468 1060.9 12.1
1091(17) 0.003415 1061.6 12.4
1089(18) 0.003196 1062.2 12.7
1043(18) 0.003054 1062.8 13.1
1055(17) 0.003279 1063.5 13.4
1085(17) 0.003448 1064.1 13.8
1065(17) 0.003474 1064.8 14.2
1054(17) 0.003355 1065.4 14.6
1092(18) 0.003035 1066.0 15.1
1089(18) 0.003205 1066.7 15.5
1067(17) 0.003503 1067.3 16.0
1076(17) 0.003378 1068.0 16.5
1069(18) 0.003260 1068.6 17.0
1077(18) 0.003054 1069.2 17.6
1027(17) 0.003456 1069.9 18.1
1093(17) 0.003398 1070.5 18.7
1057(17) 0.003410 1071.1 19.4
1061(18) 0.003260 1071.8 20.0
1064(18) 0.003168 1072.4 20.7
1122(18) 0.003059 1073.1 21.5
1108(17) 0.003366 1073.7 22.2
1100(18) 0.003230 1074.3 23.0
1095(18) 0.003168 1075.0 23.9
1118(18) 0.003125 1075.6 24.8
1125(18) 0.003144 1076.3 25.8
1115(17) 0.003333 1076.9 26.8
1077(17) 0.003280 1077.5 27.9
1077(18) 0.003145 1078.2 29.0
1070(18) 0.003217 1078.8 30.2
1066(17) 0.003364 1079.4 31.5
1058(17) 0.00351 1080.1 32.9
1075(18) 0.003214 1080.7 34.4
1084(18) 0.003148 1081.4 35.9
1113(18) 0.003087 1082.0 37.6
1132(18) 0.003168 1082.6 39.4
1094(17) 0.003404 1083.3 41.3
1147(18) 0.002980 1083.9 43.4
1085(18) 0.003120 1084.6 45.6
1112(18) 0.003184 1085.2 48.1
1145(18) 0.003182 1085.8 50.6
1101(17) 0.003396 1086.5 53.4
1108(18) 0.003166 1087.1 56.5
1122(18) 0.002934 1087.8 59.8
1139(18) 0.003063 1088.4 63.3
1118(17) 0.003317 1089.0 67.3
1106(17) 0.003358 1089.7 71.5
1200(19) 0.002835 1090.3 76.3
1195(19) 0.002643 1090.9 81.5
1153(18) 0.003007 1091.6 87.3
1198(18) 0.003077 1092.2 93.8
1123(17) 0.003317 1092.9 101.2
1158(18) 0.002972 1093.5 109.6
1176(19) 0.002684 1094.1 119.4
1202(19) 0.002878 1094.8 130.8
1205(18) 0.003066 1095.4 144.4
1226(18) 0.003033 1096.1 160.9
1283(19) 0.002684 1096.7 180.9
1239(19) 0.002644 1097.3 205.4
1311(19) 0.002665 1098.0 235.6
1370(19) 0.002712 1098.6 272.9
1411(20) 0.002615 1099.2 318.7
1471(20) 0.002393 1099.9 374.7
1493(21) 0.002271 1100.5 442.2
1528(21) 0.002281 1101.2 522.9
1712(22) 0.002156 1101.8 617.7
1754(22) 0.002081 1102.4 727.4
1895(23) 0.001849 1103.1 851.9
2076(25) 0.001608 1103.7 990.3
2227(25) 0.001543 1104.4 1140.3
2396(25) 0.001548 1105.0 1298.4
2600(27) 0.001384 1105.6 1458.8
2731(28) 0.001248 1106.3 1613.6
2911(29) 0.001165 1106.9 1752.4
2993(29) 0.001166 1107.5 1862.7
3065(29) 0.001209 1108.2 1932.8
3105(30) 0.001144 1108.8 1953.6
3053(30) 0.001121 1109.5 1922.4
2885(29) 0.001179 1110.1 1843.3
2706(28) 0.001318 1110.7 1726.2
2528(26) 0.001473 1111.4 1583.3
2382(26) 0.001472 1112.0 1426.6
2244(26) 0.001516 1112.7 1266.1
2137(25) 0.001621 1113.3 1109.2
1999(24) 0.001788 1113.9 961.3
1892(23) 0.001949 1114.6 825.6
1803(23) 0.001939 1115.2 704.1
1699(22) 0.001999 1115.8 597.4
1601(22) 0.002154 1116.5 505.5
1575(21) 0.002308 1117.1 427.6
1546(20) 0.002397 1117.8 362.5
1466(21) 0.002288 1118.4 308.8
1417(21) 0.002321 1119.0 264.8
1387(20) 0.002475 1119.7 229.0
1371(19) 0.002652 1120.3 200.1
1311(19) 0.002842 1121.0 176.5
1337(20) 0.002609 1121.6 157.3
1284(20) 0.002556 1122.2 141.5
1247(19) 0.002854 1122.9 128.4
1243(18) 0.002981 1123.5 117.3
1263(19) 0.002888 1124.2 107.8
1235(19) 0.002833 1124.8 99.7
1216(19) 0.002685 1125.4 92.5
1230(19) 0.002825 1126.1 86.1
1212(18) 0.003038 1126.7 80.4
1179(18) 0.003144 1127.3 75.3
1197(19) 0.002905 1128.0 70.7
1216(19) 0.002662 1128.6 66.5
1183(18) 0.002946 1129.3 62.7
1202(18) 0.003076 1129.9 59.1
1216(18) 0.003041 1130.5 55.9
1197(19) 0.002911 1131.2 52.9
1149(19) 0.002914 1131.8 50.2
1174(18) 0.002925 1132.5 47.6
1209(18) 0.003076 1133.1 45.3
1173(18) 0.003109 1133.7 43.1
1194(19) 0.002888 1134.4 41.1
1185(19) 0.002813 1135.0 39.2
1168(18) 0.002983 1135.6 37.4
1156(18) 0.003208 1136.3 35.7
1083(17) 0.003330 1136.9 34.2
1165(18) 0.002958 1137.6 32.8
1177(19) 0.002850 1138.2 31.4
1148(18) 0.003053 1138.8 30.1
1148(18) 0.003263 1139.5 28.9
1142(18) 0.003118 1140.1 27.8
1163(18) 0.002951 1140.8 26.7
1165(18) 0.002957 1141.4 25.7
1155(18) 0.003093 1142.0 24.8
1141(18) 0.003259 1142.7 23.9
1170(18) 0.003007 1143.3 23.0
1112(18) 0.003065 1143.9 22.2
1177(19) 0.002906 1144.6 21.5
1174(18) 0.003062 1145.2 20.7
1172(18) 0.003198 1145.9 20.1
1157(18) 0.003020 1146.5 19.4
1157(19) 0.002887 1147.1 18.8
1159(18) 0.003002 1147.8 18.2
1140(18) 0.003191 1148.4 17.6
1141(17) 0.003281 1149.1 17.1
1135(18) 0.003047 1149.7 16.6
1143(19) 0.002920 1150.3 16.1
1166(18) 0.003010 1151.0 15.6
1226(18) 0.002951 1151.6 15.2
1147(18) 0.003238 1152.2 14.7
1137(18) 0.003013 1152.9 14.3
1115(18) 0.002975 1153.5 13.9
1135(18) 0.003101 1154.2 13.6
1147(18) 0.003213 1154.8 13.2
1168(18) 0.003151 1155.4 12.9
1150(18) 0.003027 1156.1 12.5
1163(19) 0.002805 1156.7 12.2
1186(18) 0.002992 1157.4 11.9
1158(18) 0.003208 1158.0 11.6
1193(18) 0.003082 1158.6 11.3
1204(19) 0.002879 1159.3 11.1
1192(19) 0.002680 1159.9 10.8
1197(19) 0.002834 1160.6 10.5
1197(18) 0.003084 1161.2 10.3
1166(18) 0.003142 1161.8 10.1
1114(18) 0.003124 1162.5 9.8
1123(18) 0.002940 1163.1 9.6
1175(19) 0.002920 1163.7 9.4
1141(18) 0.003263 1164.4 9.2
1174(18) 0.003135 1165.0 9.0
1186(19) 0.002877 1165.7 8.8
1203(19) 0.002746 1166.3 8.6
1191(18) 0.002930 1166.9 8.5
1159(18) 0.003214 1167.6 8.3
1161(18) 0.003095 1168.2 8.1
1210(19) 0.002861 1168.9 8.0
1212(19) 0.002835 1169.5 7.8
1187(18) 0.002931 1170.1 7.7
1155(18) 0.003216 1170.8 7.5
1222(18) 0.002932 1171.4 7.4
1172(18) 0.002959 1172.0 7.2
1174(18) 0.002926 1172.7 7.1
1171(18) 0.003035 1173.3 7.0
1156(18) 0.003237 1174.0 6.9
1174(18) 0.003014 1174.6 6.8
1182(19) 0.002890 1175.2 6.6
1165(18) 0.002998 1175.9 6.5
1174(18) 0.003007 1176.5 6.4
1136(17) 0.003285 1177.2 6.3
1193(18) 0.002926 1177.8 6.2
1191(19) 0.002842 1178.4 6.1
1175(18) 0.002943 1179.1 6.0
1167(18) 0.003147 1179.7 5.9
1174(18) 0.003162 1180.3 5.8
1222(19) 0.002788 1181.0 5.8
1145(19) 0.002913 1181.6 5.7
1156(18) 0.003015 1181.8 5.6
1174(18) 0.003089 1182.0 5.5
1196(18) 0.003099 1182.1 5.4
1145(18) 0.003039 1182.3 5.4
1149(19) 0.002863 1182.4 5.3
1212(19) 0.002893 1182.5 5.2
1205(18) 0.003051 1182.7 5.2
1163(18) 0.003205 1182.8 5.1
1192(19) 0.002891 1183.0 5.1
1154(19) 0.002829 1183.1 5.0
1205(19) 0.002853 1183.2 4.9
1204(18) 0.003057 1183.4 4.9
1195(18) 0.003094 1183.5 4.8
1155(18) 0.003007 1183.7 4.8
1179(19) 0.002765 1183.8 4.8
1188(18) 0.002962 1183.9 4.7
1111(17) 0.003355 1184.1 4.7
1233(18) 0.002990 1184.2 4.6
1235(19) 0.002817 1184.4 4.6
1176(19) 0.002799 1184.5 4.6
1223(19) 0.002824 1184.6 4.5
1182(18) 0.003161 1184.8 4.5
1165(18) 0.003126 1184.9 4.5
1153(18) 0.003013 1185.1 4.4
1233(19) 0.002676 1185.2 4.4
1211(19) 0.002853 1185.3 4.4
1207(18) 0.003058 1185.5 4.4
1171(18) 0.003125 1185.6 4.4
1185(19) 0.002872 1185.8 4.4
1171(19) 0.002867 1185.9 4.3
1204(19) 0.002860 1186.0 4.3
1191(18) 0.003124 1186.2 4.3
1239(19) 0.002842 1186.3 4.3
1253(19) 0.002764 1186.5 4.3
1200(19) 0.002905 1186.6 4.4
1178(18) 0.002980 1186.7 4.4
1169(18) 0.003193 1186.9 4.4
1206(18) 0.002964 1187.0 4.4
1173(18) 0.002970 1187.2 4.4
1230(19) 0.002740 1187.3 4.5
1221(18) 0.002927 1187.4 4.5
1192(18) 0.003115 1187.6 4.5
1199(19) 0.002887 1187.7 4.6
1170(19) 0.002874 1187.9 4.6
1184(19) 0.002869 1188.0 4.7
1157(18) 0.003127 1188.1 4.8
1211(18) 0.003070 1188.3 4.8
1205(19) 0.002882 1188.4 4.9
1236(19) 0.002656 1188.6 5.0
1191(18) 0.002943 1188.7 5.1
1206(18) 0.003027 1188.8 5.2
1284(19) 0.002876 1189.0 5.4
1243(19) 0.002811 1189.1 5.5
1178(19) 0.002852 1189.3 5.7
1240(19) 0.002789 1189.4 5.9
1215(18) 0.002993 1189.5 6.1
1193(18) 0.003118 1189.7 6.3
1199(19) 0.002901 1189.8 6.6
1188(19) 0.002757 1190.0 6.9
1207(19) 0.002897 1190.1 7.3
1229(18) 0.002996 1190.2 7.7
1172(18) 0.003159 1190.4 8.3
1237(19) 0.002817 1190.5 8.9
1238(20) 0.002579 1190.7 9.7
1240(19) 0.002783 1190.8 10.7
1225(18) 0.003024 1190.9 11.9
1202(18) 0.003072 1191.1 13.3
1238(19) 0.002784 1191.2 15.1
1238(20) 0.002601 1191.4 17.3
1208(19) 0.002821 1191.5 19.9
1180(18) 0.003152 1191.6 22.9
1230(18) 0.002984 1191.8 26.6
1253(19) 0.002806 1191.9 30.7
1314(20) 0.002484 1192.1 35.5
1277(19) 0.002680 1192.2 40.7
1205(18) 0.003083 1192.3 46.5
1295(19) 0.002810 1192.5 52.6
1276(19) 0.002730 1192.6 59.0
1324(20) 0.002511 1192.8 65.4
1306(19) 0.002636 1192.9 71.5
1280(19) 0.002917 1193.0 76.9
1245(19) 0.002854 1193.2 81.2
1282(19) 0.002631 1193.3 84.0
1280(19) 0.002652 1193.5 84.9
1319(19) 0.002654 1193.6 84.0
1324(19) 0.002812 1193.7 81.2
1313(19) 0.002712 1193.9 76.9
1276(19) 0.002684 1194.0 71.5
1294(20) 0.002616 1194.2 65.4
1260(19) 0.002800 1194.3 59.0
1244(18) 0.003002 1194.4 52.6
1262(19) 0.002733 1194.6 46.4
1230(19) 0.002779 1194.7 40.6
1262(19) 0.002721 1194.9 35.3
1219(18) 0.002991 1195.0 30.5
1238(18) 0.003012 1195.1 26.3
1260(19) 0.002710 1195.3 22.6
1244(19) 0.002672 1195.4 19.5
1232(19) 0.002829 1195.6 16.8
1244(19) 0.002884 1195.7 14.6
1252(18) 0.002968 1195.8 12.8
1234(19) 0.002798 1196.0 11.3
1180(19) 0.002822 1196.1 10.1
1201(19) 0.002881 1196.3 9.1
1225(18) 0.003003 1196.4 8.2
1202(18) 0.003099 1196.5 7.5
1212(19) 0.002836 1196.7 7.0
1167(19) 0.002796 1196.8 6.5
1220(19) 0.002830 1197.0 6.1
1242(18) 0.002994 1197.1 5.7
1174(18) 0.003152 1197.2 5.4
1257(19) 0.002749 1197.4 5.1
1197(19) 0.002724 1197.5 4.9
1221(19) 0.002851 1197.7 4.7
1187(18) 0.003106 1197.8 4.5
1218(18) 0.003002 1197.9 4.3
1177(18) 0.002968 1198.1 4.1
1219(19) 0.002645 1198.2 4.0
1207(19) 0.002875 1198.4 3.8
1251(18) 0.002971 1198.5 2.4
1185(18) 0.003115 1198.6 2.3
1191(19) 0.002890 1198.8 2.2
1225(19) 0.002681 1198.9 2.2
1250(19) 0.002798 1199.1 2.1
1260(18) 0.002938 1199.2 2.0
1213(18) 0.003013 1199.3 1.9
1235(19) 0.002785 1199.5 1.9
1210(19) 0.002750 1199.6 1.8
1225(19) 0.002782 1199.8 1.8
1164(18) 0.003193 1199.9 1.7
1165(18) 0.003117 1200.0 1.7
1213(19) 0.002799 1200.2 1.7
1221(19) 0.002761 1200.3 1.7
1232(19) 0.002823 1200.5 1.7
1237(18) 0.002986 1200.6 1.6
1199(18) 0.002941 1200.7 1.6
1213(19) 0.002800 1200.9 1.6
1216(19) 0.002807 1201.0 1.7
1214(18) 0.002930 1201.2 1.7
1231(18) 0.003024 1201.3 1.7
1233(19) 0.002818 1201.4 1.7
1257(19) 0.002663 1201.6 1.8
1252(19) 0.002710 1201.7 1.8
1201(18) 0.002987 1201.9 1.8
1204(18) 0.003077 1202.0 1.9
1229(19) 0.002740 1202.1 1.9
1208(19) 0.002787 1202.3 2.0
1234(19) 0.002789 1202.4 2.0
1235(19) 0.002917 1202.6 2.1
1200(18) 0.003098 1202.7 2.2
1217(19) 0.002777 1202.8 2.2
1239(19) 0.002676 1203.0 2.2
1261(19) 0.002749 1203.1 2.3
1257(19) 0.002870 1203.3 2.3
1286(19) 0.002868 1203.4 2.3
1236(19) 0.002804 1203.5 2.3
1218(19) 0.002669 1203.7 2.3
1210(19) 0.002830 1203.8 2.3
1202(18) 0.003019 1204.0 2.3
1222(18) 0.003003 1204.1 2.3
1231(19) 0.002842 1204.2 2.2
1236(19) 0.002642 1204.4 2.1
1219(19) 0.002867 1204.5 2.1
1259(18) 0.002931 1204.7 2.0
1237(18) 0.002959 1204.8 1.9
1238(19) 0.002840 1204.9 1.8
1218(19) 0.002637 1205.1 1.7
1237(19) 0.002846 1205.2 1.6
1263(18) 0.002939 1205.4 1.6
1239(18) 0.002967 1205.5 1.5
1219(19) 0.002851 1205.6 1.4
1230(19) 0.002699 1205.8 1.3
1252(19) 0.002752 1205.9 1.2
1221(18) 0.003047 1206.1 1.2
1229(18) 0.002973 1206.2 1.1
1249(19) 0.002816 1206.3 1.0
1265(20) 0.002625 1206.5 1.0
1285(19) 0.002681 1206.6 0.9
1214(18) 0.003075 1206.8 0.9
1205(18) 0.003010 1206.9 0.8
1184(19) 0.002906 1207.0 0.8
1202(19) 0.002860 1207.2 0.7
1207(19) 0.002910 1207.3 0.7
1236(18) 0.003006 1207.5 0.6
1212(18) 0.002965 1207.6 0.6
1227(19) 0.002770 1207.7 0.6
1251(19) 0.002727 1207.9 0.5
1195(18) 0.002974 1208.0 0.5
1198(18) 0.003109 1208.2 0.5
1236(19) 0.002833 1208.3 0.5
1205(19) 0.002839 1208.4 0.5
1208(19) 0.002826 1208.6 0.4
1226(19) 0.002880 1208.7 0.4
1205(18) 0.003096 1208.9 0.4
1265(19) 0.002762 1209.0 0.4
1266(19) 0.002672 1209.1 0.4
1199(19) 0.002888 1209.3 0.4
1231(19) 0.002859 1209.4 0.4
1212(18) 0.003058 1209.6 0.4
1231(19) 0.002819 1209.7 0.3
1235(19) 0.002728 1209.8 0.3
1191(19) 0.002885 1210.0 0.3
1209(18) 0.002962 1210.1 0.3
1228(18) 0.003043 1210.3 0.3
1220(19) 0.002849 1210.4 0.3
1242(20) 0.002614 1210.5 0.3
1209(19) 0.002868 1210.7 0.3
1216(18) 0.003014 1210.8 0.3
1212(18) 0.003084 1211.0 0.3
1151(18) 0.002980 1211.1 0.3
1139(19) 0.002818 1211.2 0.3
1235(19) 0.002761 1211.4 0.3
1216(18) 0.003040 1211.5 0.3
1220(18) 0.003056 1211.7 0.3
1226(19) 0.002819 1211.8 0.2
1218(20) 0.002612 1211.9 0.2
1212(19) 0.002827 1212.1 0.2
1174(18) 0.003185 1212.2 0.2
1203(18) 0.003028 1212.4 0.2
1205(19) 0.002885 1212.5 0.2
1212(19) 0.002734 1212.6 0.2
1230(19) 0.002792 1212.8 0.2
1190(18) 0.003123 1212.9 0.2
1189(18) 0.003070 1213.1 0.2
1178(18) 0.003008 1213.2 0.2
1207(19) 0.002743 1213.3 0.2
1205(19) 0.002805 1213.5 0.2
1244(18) 0.002997 1213.6 0.2
1216(18) 0.003014 1213.8 0.2
1226(19) 0.002788 1213.9 0.2
1213(19) 0.002771 1214.0 0.2
1243(19) 0.002765 1214.2 0.2
1219(18) 0.003043 1214.3 0.2
1220(18) 0.002996 1214.5 0.2
1193(19) 0.002874 1214.6 0.2
1192(19) 0.002865 1214.7 0.2
1207(18) 0.002928 1214.9 0.2
1227(18) 0.003057 1215.0 0.2
1187(18) 0.002995 1215.2 0.2
1233(19) 0.002768 1215.3 0.2
1230(19) 0.002767 1215.4 0.2
1214(18) 0.002946 1215.6 0.2
1240(18) 0.002988 1215.7 0.2
1255(19) 0.002756 1215.9 0.2
1202(19) 0.002832 1216.0 0.1
1227(19) 0.002792 1216.1 0.1
1181(18) 0.003032 1216.3 0.1
1189(18) 0.003133 1216.4 0.1
1186(19) 0.002916 1216.5 0.1
1223(19) 0.002743 1216.0 0.1
1237(19) 0.002818 1215.5 0.1
1251(19) 0.002901 1215.0 0.1
1187(18) 0.003143 1214.6 0.1
1195(19) 0.002906 1214.1 0.1
1218(19) 0.002721 1213.6 0.1
1205(19) 0.002900 1213.1 0.1
1294(19) 0.002823 1212.7 0.1
1214(18) 0.003058 1212.2 0.1
1230(19) 0.002753 1211.7 0.1
1206(19) 0.002673 1211.3 0.1
1228(19) 0.002832 1210.8 0.1
1248(18) 0.002936 1210.3 0.1
1239(18) 0.002979 1209.8 0.1
1207(19) 0.002912 1209.4 0.1
1215(19) 0.002641 1208.9 0.1
1207(19) 0.002885 1208.4 0.1
1200(18) 0.003087 1208.0 0.1
1228(18) 0.003009 1207.5 0.1
1200(19) 0.002888 1207.0 0.1
1230(19) 0.002676 1206.5 0.1
1236(19) 0.002784 1206.1 0.1
1217(18) 0.003059 1205.6 0.1
1210(18) 0.003003 1205.1 0.1
1215(19) 0.002894 1204.7 0.1
1249(19) 0.002661 1204.2 0.1
1224(19) 0.002830 1203.7 0.1
1240(18) 0.003003 1203.2 0.1
1184(18) 0.003103 1202.8 0.1
1158(18) 0.003011 1202.3 0.1
1221(19) 0.002726 1201.8 0.1
1209(19) 0.002818 1201.4 0.1
1202(18) 0.003086 1200.9 0.1
1212(18) 0.002976 1200.4 0.1
1212(19) 0.002830 1199.9 0.1
1185(19) 0.002841 1199.5 0.1
1224(19) 0.002802 1199.0 0.1
1233(18) 0.003041 1198.5 0.1
1197(18) 0.002999 1198.1 0.1
1172(18) 0.002935 1197.6 0.1
1179(18) 0.002941 1197.1 0.1
1201(18) 0.002957 1196.6 0.1
1248(18) 0.002975 1196.2 0.1
1241(19) 0.002850 1195.7 0.1
1233(19) 0.002709 1195.2 0.1
1235(19) 0.002783 1194.8 0.1
1236(19) 0.002890 1194.3 0.1
1199(18) 0.003109 1193.8 0.1
1215(19) 0.002838 1193.3 0.1
1230(19) 0.002712 1192.9 0.1
1272(19) 0.002713 1192.4 0.1
1227(18) 0.002976 1191.9 0.1
1228(18) 0.003017 1191.5 0.1
1258(19) 0.002705 1191.0 0.1
1239(19) 0.002654 1190.5 0.1
1191(18) 0.002927 1190.0 0.1
1263(19) 0.002875 1189.6 0.1
1234(18) 0.003012 1189.1 0.1
1227(19) 0.002881 1188.6 0.1
1239(19) 0.002643 1188.1 0.1
1237(19) 0.002819 1187.7 0.1
1251(18) 0.002930 1187.2 0.1
1194(18) 0.003110 1186.7 0.1
1199(19) 0.002852 1186.3 0.1
1214(20) 0.002602 1185.8 0.1
1220(19) 0.002879 1185.3 0.1
1235(18) 0.003000 1184.8 0.1
1224(18) 0.003045 1184.4 0.1
1216(19) 0.002858 1183.9 0.1
1203(19) 0.002683 1183.4 0.1
1187(19) 0.002918 1183.0 0.1
1209(18) 0.003046 1182.5 0.1
1239(18) 0.003002 1182.0 0.1
1235(19) 0.002783 1181.5 0.1
1237(20) 0.002612 1181.1 0.1
1168(18) 0.003006 1180.6 0.1
1220(18) 0.003058 1180.1 0.1
1232(18) 0.002963 1179.7 0.1
1212(19) 0.002858 1179.2 0.1
1208(19) 0.002717 1178.7 0.1
1209(19) 0.002833 1178.2 0.1
1183(18) 0.003123 1177.8 0.1
1203(18) 0.003039 1177.3 0.1
1241(19) 0.002751 1176.8 0.1
1217(19) 0.002762 1176.4 0.1
1213(19) 0.002859 1175.9 0.1
1233(18) 0.003006 1175.4 0.1
1229(19) 0.002897 1174.9 0.1
1236(19) 0.002763 1174.5 0.1
1210(19) 0.002831 1174.0 0.1
1212(19) 0.002879 1173.5 0.1
1130(17) 0.003294 1173.1 0.1
1227(19) 0.002857 1172.6 0.1
1206(19) 0.002818 1172.1 0.1
1201(19) 0.002882 1171.6 0.1
1176(18) 0.003046 1171.2 0.1
1223(18) 0.003054 1170.7 0.1
1190(18) 0.002925 1170.2 0.1
1167(19) 0.002864 1169.8 0.1
1154(18) 0.002997 1169.3 0.1
1215(18) 0.002956 1168.8 0.1
1214(18) 0.003070 1168.3 0.0
1176(18) 0.002939 1167.9 0.0
1208(19) 0.002783 1167.4 0.0
1179(18) 0.002931 1166.9 0.0
1148(18) 0.003156 1166.5 0.0
1152(18) 0.003218 1166.0 0.0
1192(19) 0.002896 1165.5 0.0
1249(20) 0.002617 1165.0 0.0
1215(19) 0.002855 1164.6 0.0
1191(18) 0.003074 1164.1 0.0
1194(18) 0.003082 1163.6 0.0
1199(19) 0.002880 1163.1 0.0
1193(19) 0.002708 1162.7 0.0
1191(18) 0.002937 1162.2 0.0
1179(18) 0.003151 1161.7 0.1
1138(17) 0.003280 1161.3 0.1
1180(18) 0.002976 1160.8 0.1
1197(19) 0.002705 1160.3 0.1
1202(18) 0.002924 1159.8 0.1
1166(18) 0.003200 1159.4 0.1
1193(18) 0.003069 1158.9 0.1
1201(19) 0.002895 1158.4 0.1
1191(19) 0.002776 1158.0 0.1
1190(18) 0.002931 1157.5 0.1
1183(18) 0.003168 1157.0 0.1
1161(18) 0.003150 1156.5 0.1
1173(18) 0.002993 1156.1 0.1
1198(19) 0.002773 1155.6 0.1
1179(18) 0.002946 1155.1 0.1
1192(18) 0.003132 1154.7 0.1
1198(18) 0.003000 1154.2 0.1
1150(18) 0.003009 1153.7 0.1
1156(19) 0.002916 1153.2 0.1
1158(18) 0.002994 1152.8 0.1
1161(18) 0.003200 1152.3 0.1
1184(18) 0.003037 1151.8 0.1
1219(19) 0.002771 1151.4 0.1
1194(19) 0.002850 1150.9 0.1
1175(18) 0.002983 1150.4 0.1
1173(18) 0.003173 1149.9 0.1
1149(18) 0.003018 1149.5 0.1
1142(18) 0.002980 1149.0 0.1
1153(18) 0.002981 1148.5 0.1
1167(18) 0.003029 1148.1 0.1
1186(18) 0.003127 1147.6 0.1
1158(18) 0.003036 1147.1 0.1
1158(18) 0.002961 1146.6 0.1
1198(18) 0.002943 1146.2 0.1
1155(18) 0.003118 1145.7 0.1
1154(18) 0.003237 1145.2 0.1
1223(19) 0.002779 1144.8 0.1
1181(19) 0.002811 1144.3 0.1
1138(18) 0.003021 1143.8 0.1
1129(18) 0.003209 1143.3 0.1
1181(18) 0.003136 1142.9 0.1
1126(18) 0.003156 1142.4 0.1
1143(19) 0.002908 1141.9 0.1
1182(19) 0.002902 1141.5 0.1
1166(18) 0.003177 1141.0 0.1
1181(18) 0.003140 1140.5 0.1
1163(18) 0.002952 1140.0 0.1
1082(18) 0.002992 1139.6 0.1
1094(18) 0.003180 1139.1 0.1
1182(18) 0.003086 1138.6 0.1
1135(17) 0.003292 1138.1 0.1
1223(19) 0.002821 1137.7 0.1
1193(19) 0.002696 1137.2 0.1
1150(18) 0.003026 1136.7 0.1
1121(17) 0.003304 1136.3 0.1
1169(18) 0.003136 1135.8 0.1
1173(18) 0.002965 1135.3 0.0
1134(19) 0.002820 1134.8 0.0
1110(18) 0.003129 1134.4 0.0
1155(18) 0.003228 1133.9 0.0
1155(18) 0.003149 1133.4 0.0
1122(18) 0.003163 1133.0 0.0
1189(19) 0.002780 1132.5 0.0
1166(18) 0.002951 1132.0 0.0
1137(17) 0.003293 1131.5 0.0
1124(18) 0.003227 1131.1 0.0
1087(17) 0.003269 1130.6 0.0
1150(18) 0.002922 1130.1 0.0
1156(18) 0.002947 1129.7 0.0
1142(18) 0.003250 1129.2 0.0
1141(18) 0.003150 1128.7 0.0
1099(18) 0.003129 1128.2 0.0
1122(18) 0.002991 1127.8 0.0
1167(18) 0.003018 1127.3 0.0
1122(17) 0.003312 1126.8 0.0
1185(18) 0.002941 1126.4 0.0
1153(18) 0.002995 1125.9 0.0
1141(18) 0.003051 1125.4 0.0
1122(18) 0.003150 1124.9 0.0
1154(18) 0.003194 1124.5 0.0
1172(18) 0.003070 1124.0 0.0
1115(18) 0.003056 1123.5 0.0
1097(18) 0.003144 1123.1 0.0
1095(17) 0.003303 1122.6 0.0
1088(17) 0.003408 1122.1 0.0
1108(18) 0.003092 1121.6 0.0
1052(18) 0.003236 1121.2 0.0
1119(18) 0.003093 1120.7 0.0
1205(18) 0.003015 1120.2 0.0
1153(18) 0.003222 1119.8 0.0
1077(18) 0.003222 1119.3 0.0
1138(19) 0.002840 1118.8 0.0
1155(18) 0.003027 1118.3 0.0
1100(17) 0.003316 1117.9 0.0
1111(17) 0.003376 1117.4 0.0
1135(18) 0.003058 1116.9 0.0
1185(19) 0.002736 1116.5 0.0
1157(18) 0.003015 1116.0 0.0
1119(17) 0.003329 1115.5 0.0
1128(17) 0.003278 1115.0 0.0
1091(18) 0.003212 1114.6 0.0
1102(19) 0.002909 1114.1 0.0
1114(18) 0.003120 1113.6 0.0
1075(17) 0.003467 1113.1 0.0
1117(17) 0.003296 1112.7 0.0
1153(18) 0.002984 1112.2 0.1
1135(19) 0.002874 1111.7 0.1
1112(18) 0.003133 1111.3 0.1
1126(17) 0.003299 1110.8 0.1
1113(17) 0.003303 1110.3 0.1
1114(18) 0.003131 1109.8 0.1
1142(19) 0.002863 1109.4 0.1
1130(18) 0.003091 1108.9 0.1
1100(17) 0.003371 1108.4 0.1
1131(18) 0.003222 1108.0 0.1
1067(17) 0.003317 1107.5 0.1
1078(18) 0.003168 1107.0 0.1
1115(18) 0.003076 1106.5 0.1
1142(18) 0.003261 1106.1 0.1
1161(18) 0.003136 1105.6 0.1
1143(18) 0.003022 1105.1 0.1
1116(18) 0.003020 1104.7 0.1
1086(18) 0.003208 1104.2 0.1
1115(17) 0.003332 1103.7 0.1
1143(18) 0.003131 1103.2 0.1
1093(18) 0.003176 1102.8 0.1
1107(18) 0.003085 1102.3 0.1
1128(18) 0.003117 1101.8 0.1
1061(17) 0.00352 1101.4 0.1
1120(18) 0.003125 1100.9 0.1
1129(18) 0.003018 1100.4 0.1
1087(18) 0.003203 1099.9 0.1
1069(17) 0.003365 1099.5 0.1
1024(17) 0.00363 1099.0 0.1
1102(18) 0.003188 1098.5 0.1
1100(18) 0.003070 1098.1 0.1
1065(17) 0.003293 1097.6 0.1
1106(17) 0.003284 1097.1 0.1
1073(17) 0.003456 1096.6 0.1
1094(18) 0.003154 1096.2 0.1
1072(18) 0.003110 1095.7 0.1
1113(18) 0.003143 1095.2 0.1
1092(17) 0.003303 1094.8 0.1
1140(17) 0.003273 1094.3 0.1
1109(18) 0.003192 1093.8 0.1
1077(18) 0.003040 1093.3 0.1
1108(18) 0.003115 1092.9 0.1
1069(17) 0.003501 1092.4 0.1
1094(17) 0.003350 1091.9 0.1
1060(18) 0.003201 1091.5 0.1
1054(18) 0.003040 1091.0 0.1
1114(18) 0.003112 1090.5 0.1
1037(17) 0.00360 1090.0 0.1
1101(17) 0.003355 1089.6 0.1
1064(17) 0.003277 1089.1 0.1
1120(19) 0.002903 1088.6 0.1
1083(18) 0.003238 1088.1 0.1
1115(17) 0.003310 1087.7 0.1
1080(17) 0.003404 1087.2 0.1
1084(18) 0.003224 1086.7 0.1
1076(18) 0.003043 1086.3 0.1
1051(17) 0.003337 1085.8 0.1
1112(17) 0.003330 1085.3 0.1
1081(17) 0.003443 1084.8 0.1
1098(18) 0.003153 1084.4 0.1
1081(18) 0.003095 1083.9 0.1
1051(17) 0.003340 1083.4 0.1
1096(17) 0.003402 1083.0 0.1
1090(17) 0.003318 1082.5 0.0
1084(18) 0.003180 1082.0 0.0
1083(18) 0.003110 1081.5 0.0
1066(18) 0.003253 1081.1 0.0
1109(17) 0.003328 1080.6 0.0
1073(17) 0.003337 1080.1 0.0
1099(18) 0.003102 1079.7 0.0
1103(18) 0.003128 1079.2 0.0
1045(17) 0.003422 1078.7 0.0
1075(17) 0.003448 1078.2 0.0
1052(17) 0.003355 1077.8 0.0
1066(18) 0.003146 1077.3 0.1
1057(17) 0.003298 1076.8 0.1
1069(17) 0.003414 1076.4 0.1
1112(17) 0.003333 1075.9 0.1
1077(18) 0.003217 1075.4 0.1
1132(18) 0.002976 1074.9 0.1
1068(17) 0.003288 1074.5 0.1
1083(17) 0.003348 1074.0 0.1
1118(17) 0.003316 1073.5 0.1
1089(18) 0.003230 1073.1 0.1
1085(18) 0.003070 1072.6 0.1
1046(17) 0.003321 1072.1 0.1
1073(17) 0.003394 1071.6 0.1
1076(17) 0.003459 1071.2 0.1
1085(18) 0.003214 1070.7 0.1
1091(18) 0.003007 1070.2 0.1
1062(17) 0.003293 1069.8 0.1
1078(17) 0.003424 1069.3 0.1
1039(17) 0.00356 1068.8 0.1
1058(17) 0.003269 1068.3 0.1
1029(18) 0.003165 1067.9 0.1
1062(17) 0.003274 1067.4 0.1
1053(17) 0.003499 1066.9 0.1
1101(17) 0.003328 1066.4 0.1
1058(18) 0.003250 1065.8 0.1
1056(18) 0.003086 1065.2 0.1
1044(17) 0.003373 1064.6 0.1
1059(17) 0.003504 1064.0 0.1
1076(17) 0.003407 1063.4 0.1
1085(18) 0.003208 1062.8 0.1
1071(18) 0.003075 1062.2 0.1
1051(17) 0.003343 1061.6 0.1
1055(17) 0.00352 1061.0 0.1
1038(17) 0.00352 1060.4 0.1
1081(18) 0.003197 1059.8 0.1
1082(18) 0.003077 1059.2 0.1
1101(18) 0.003083 1058.6 0.1
1042(17) 0.00357 1058.0 0.1
1030(17) 0.00352 1057.4 0.1
1066(18) 0.003216 1056.8 0.1
1058(18) 0.003160 1056.2 0.1
1054(17) 0.003283 1055.6 0.1
1070(17) 0.003460 1055.0 0.1
1069(17) 0.003343 1054.4 0.1
1047(17) 0.003337 1053.8 0.1
1037(17) 0.003324 1053.2 0.1
1048(17) 0.003308 1052.6 0.1
1060(17) 0.00351 1052.0 0.1
1099(18) 0.003218 1051.4 0.1
1071(18) 0.003264 1050.8 0.1
1083(18) 0.003155 1050.2 0.1
1047(17) 0.003412 1049.7 0.1
1081(17) 0.003441 1049.1 0.1
1013(17) 0.003478 1048.5 0.1
1030(17) 0.003305 1047.9 0.1
1047(17) 0.003287 1047.3 0.1
1066(17) 0.003392 1046.7 0.1
1000(16) 0.00369 1046.1 0.1
1046(17) 0.003334 1045.5 0.1
1063(18) 0.003166 1044.9 0.1
1048(17) 0.003300 1044.3 0.1
1082(17) 0.003381 1043.7 0.1
1031(17) 0.00358 1043.1 0.1
1052(17) 0.003283 1042.5 0.1
1077(18) 0.003015 1041.9 0.1
1027(17) 0.003358 1041.3 0.1
1031(17) 0.00357 1040.7 0.1
1047(17) 0.00352 1040.1 0.1
1033(17) 0.003353 1039.5 0.1
1002(17) 0.003323 1038.9 0.1
1024(17) 0.003324 1038.3 0.1
1043(17) 0.00351 1037.7 0.1
1004(16) 0.00371 1037.1 0.1
1018(17) 0.003413 1036.5 0.1
1034(18) 0.003110 1035.9 0.1
1051(18) 0.003263 1035.3 0.1
996(16) 0.00372 1034.7 0.1
1042(17) 0.00353 1034.1 0.1
1045(18) 0.003264 1033.5 0.1
1054(18) 0.003063 1032.9 0.1
1069(18) 0.003244 1032.3 0.1
1046(17) 0.00354 1031.7 0.1
1031(17) 0.00352 1031.1 0.1
1051(17) 0.003302 1030.5 0.1
1040(18) 0.003212 1029.9 0.2
1036(17) 0.003313 1029.3 0.2
982(16) 0.00381 1028.7 0.2
1035(17) 0.003484 1028.1 0.2
1014(17) 0.003462 1027.5 0.2
1010(17) 0.003337 1026.9 0.2
1003(17) 0.003415 1026.3 0.2
1046(17) 0.00359 1025.7 0.2
1016(17) 0.003482 1025.1 0.2
1054(18) 0.003197 1024.5 0.2
1013(17) 0.003349 1023.9 0.2
1044(18) 0.003262 1023.3 0.2
1045(17) 0.00355 1022.7 0.2
1045(17) 0.003410 1022.1 0.2
1046(17) 0.003312 1021.5 0.2
1031(17) 0.003338 1020.9 0.2
1007(17) 0.003493 1020.3 0.2
993(16) 0.00375 1019.7 0.2
1025(17) 0.003382 1019.1 1.3
1002(17) 0.003378 1018.5 1.3
1005(17) 0.003398 1017.9 1.3
1005(17) 0.00365 1017.3 1.3
1034(17) 0.00360 1016.7 1.4
1001(17) 0.003453 1016.1 1.4
1011(17) 0.003284 1015.5 1.4
1053(18) 0.003254 1014.9 1.4
1004(16) 0.00369 1014.3 1.5
995(16) 0.00373 1013.7 1.5
999(17) 0.003417 1013.1 1.5
984(17) 0.003416 1012.5 1.5
1038(17) 0.003314 1011.9 1.6
997(16) 0.00368 1011.3 1.6
994(16) 0.00371 1010.7 1.6
961(17) 0.00362 1010.1 1.7
967(17) 0.003345 1009.5 1.7
990(17) 0.003452 1008.9 1.7
985(16) 0.00371 1008.3 1.8
971(16) 0.00380 1007.7 1.8
986(17) 0.00353 1007.1 1.8
1012(18) 0.003161 1006.5 1.9
994(17) 0.003473 1005.9 1.9
1039(17) 0.00359 1005.3 2.0
991(16) 0.00372 1004.7 2.0
984(17) 0.00358 1004.1 2.0
998(17) 0.003275 1003.5 2.1
1029(17) 0.003356 1002.9 2.1
1035(17) 0.00358 1002.3 2.2
1017(17) 0.00361 1001.7 2.2
1032(17) 0.003376 1001.1 2.3
1016(18) 0.003222 1000.5 2.3
967(17) 0.00362 999.9 2.4
992(16) 0.00377 999.3 2.4
1060(17) 0.003365 998.7 2.5
963(16) 0.00370 998.1 2.5
1001(17) 0.003304 997.5 2.6
968(17) 0.00356 996.9 2.7
975(16) 0.00382 996.3 2.7
995(17) 0.00363 995.7 2.8
972(17) 0.00353 995.1 2.9
998(17) 0.003331 994.5 3.0
1003(17) 0.003489 993.9 3.0
935(16) 0.00398 993.3 3.1
933(16) 0.00380 992.7 3.2
967(17) 0.003502 992.1 3.3
971(17) 0.003453 991.5 4.1
1016(17) 0.003495 990.9 4.2
1014(17) 0.00366 990.3 4.3
963(17) 0.00364 989.7 4.4
970(17) 0.00355 989.1 4.5
997(17) 0.003393 988.5 4.7
962(16) 0.00376 987.9 4.8
1012(17) 0.00367 987.3 4.9
1042(17) 0.003322 986.7 5.1
990(17) 0.003478 986.1 5.2
998(17) 0.003501 985.5 5.4
988(17) 0.00366 984.9 5.5
968(16) 0.00382 984.3 5.7
946(16) 0.00375 983.7 5.9
1010(17) 0.003296 983.1 6.1
1028(17) 0.003351 982.5 6.3
981(16) 0.00372 981.9 6.6
1004(16) 0.00372 981.3 6.8
979(17) 0.00360 980.7 7.1
981(17) 0.003373 980.1 7.4
964(17) 0.00360 979.5 7.7
990(16) 0.00373 978.9 8.1
967(16) 0.00387 978.3 8.5
1006(17) 0.003413 977.7 8.9
971(17) 0.003429 977.1 9.4
1013(17) 0.003399 976.5 9.9
979(16) 0.00376 975.9 10.4
980(16) 0.00380 975.3 11.0
957(17) 0.00366 974.7 11.7
970(17) 0.003273 974.1 12.4
956(17) 0.00357 973.5 13.2
990(16) 0.00372 972.9 14.0
988(17) 0.00366 972.3 14.9
933(16) 0.00376 971.7 15.8
962(17) 0.003452 971.1 16.9
966(17) 0.00359 970.5 17.9
968(16) 0.00390 969.9 19.1
974(16) 0.00377 969.3 20.3
955(17) 0.00364 968.7 21.5
962(17) 0.003431 968.1 22.8
945(16) 0.00374 967.5 24.1
996(16) 0.00372 966.9 25.5
971(16) 0.00374 966.4 26.9
976(17) 0.00359 965.8 28.2
998(17) 0.003388 965.2 29.6
969(16) 0.00367 964.6 30.9
964(16) 0.00386 964.0 32.2
961(16) 0.00377 963.4 33.4
915(16) 0.00377 962.8 34.5
939(17) 0.00364 962.2 35.5
992(17) 0.003407 961.6 36.5
1016(17) 0.00365 961.0 37.5
954(16) 0.00369 960.4 38.4
977(17) 0.00352 959.8 39.3
981(17) 0.00355 959.2 40.3
969(16) 0.00373 958.6 41.4
968(16) 0.00385 958.0 42.6
974(17) 0.00359 957.4 44.1
976(17) 0.003420 956.8 45.8
1004(17) 0.003416 956.2 47.8
1015(17) 0.003494 955.6 50.3
987(16) 0.00378 955.0 53.3
1007(17) 0.003422 954.4 56.8
1020(18) 0.003215 953.8 61.1
991(17) 0.003472 953.2 66.4
1017(17) 0.00354 952.6 72.8
1078(17) 0.003446 952.0 80.8
1050(17) 0.003380 951.4 91.2
1073(18) 0.002996 950.8 105.3
1088(18) 0.003153 950.2 125.3
1057(17) 0.003479 949.6 155.3
1123(17) 0.003316 949.0 201.3
1155(18) 0.003065 948.4 271.7
1291(20) 0.002468 947.8 377.3
1385(20) 0.002555 947.2 528.5
1612(21) 0.002282 946.6 733.5
1794(22) 0.002068 946.0 992.9
2086(24) 0.001676 945.4 1295.7
2394(27) 0.001345 944.8 1615.3
2735(28) 0.001267 944.2 1904.4
3015(29) 0.001222 943.6 2098.8
3253(30) 0.001130 943.0 2138.3
3158(30) 0.001076 942.4 2009.0
2811(29) 0.001157 941.8 1754.4
2373(26) 0.001478 941.2 1441.5
1973(23) 0.001880 940.6 1126.2
1701(22) 0.002122 940.0 844.4
1513(21) 0.002267 939.4 613.9
1400(21) 0.002359 938.8 438.4
1289(19) 0.002658 938.2 312.9
1227(18) 0.003000 937.6 227.4
1178(18) 0.003087 937.0 171.0
1121(18) 0.003064 936.4 134.2
1039(18) 0.003249 935.8 109.7
1078(18) 0.003161 935.2 92.7
1028(17) 0.00363 934.6 80.3
1016(17) 0.003465 934.0 70.7
988(17) 0.003426 933.4 62.9
997(17) 0.003307 932.8 56.5
964(17) 0.00361 932.2 51.0
990(16) 0.00376 931.6 46.4
996(17) 0.003479 931.0 42.4
940(17) 0.00360 930.4 38.9
937(17) 0.00367 929.8 35.8
937(16) 0.00387 929.2 33.1
964(16) 0.00386 928.6 30.7
1007(17) 0.003497 928.0 28.6
985(17) 0.00352 927.4 26.7
931(17) 0.00367 926.8 25.0
940(16) 0.00381 926.2 23.5
910(16) 0.00404 925.6 22.2
928(16) 0.00376 925.0 20.9
968(17) 0.003409 924.4 19.8
950(17) 0.00360 923.8 18.8
903(16) 0.00402 923.2 17.9
895(16) 0.00410 922.6 17.0
931(16) 0.00378 922.0 16.2
925(17) 0.00361 921.4 15.5
903(16) 0.00377 920.8 14.9
908(16) 0.00405 920.2 14.3
923(16) 0.00398 919.6 13.7
885(16) 0.00392 919.0 13.2
907(17) 0.00353 918.4 12.7
931(16) 0.00371 917.8 12.3
921(16) 0.00395 917.2 11.9
957(16) 0.00382 916.6 11.5
900(16) 0.00385 916.0 11.2
935(17) 0.003333 915.4 10.9
928(16) 0.00377 914.8 10.6
937(16) 0.00395 914.2 10.3
882(16) 0.00416 913.6 10.1
902(16) 0.00376 913.0 9.9
937(17) 0.00352 912.4 9.8
894(16) 0.00399 911.8 9.8
912(16) 0.00405 911.2 10.2
933(16) 0.00392 910.6 10.5
921(16) 0.00377 910.0 10.9
876(16) 0.00387 909.4 11.3
950(17) 0.00353 908.8 11.5
926(16) 0.00400 908.2 11.4
913(16) 0.00393 907.6 10.9
928(16) 0.00371 907.0 10.2
936(17) 0.003437 906.4 9.5
931(17) 0.00366 905.8 8.9
925(16) 0.00401 905.2 8.4
938(16) 0.00379 904.6 8.1
927(16) 0.00383 904.0 7.9
908(16) 0.00376 903.4 7.7
893(16) 0.00388 902.8 7.6
863(15) 0.00430 902.2 7.5
877(16) 0.00412 901.6 7.5
916(16) 0.00373 901.0 7.4
864(16) 0.00396 900.4 7.3
847(15) 0.00421 899.8 7.3
895(16) 0.00415 899.2 7.3
956(16) 0.00369 898.6 7.2
951(17) 0.00352 898.0 7.2
859(16) 0.00403 897.4 7.2
904(16) 0.00390 896.8 7.1
912(16) 0.00408 896.2 7.1
914(17) 0.00366 895.6 7.1
909(17) 0.00365 895.0 7.1
874(16) 0.00391 894.4 7.1
863(15) 0.00417 893.8 7.1
912(16) 0.00408 893.2 7.1
868(16) 0.00406 892.6 7.1
868(16) 0.00391 892.0 7.1
910(16) 0.00381 891.4 7.2
910(16) 0.00402 890.9 7.2
863(15) 0.00431 890.4 7.2
849(16) 0.00413 889.9 7.2
877(16) 0.00372 889.3 7.3
901(16) 0.00389 888.8 7.3
880(15) 0.00417 888.3 7.3
920(16) 0.00403 887.8 7.4
885(16) 0.00391 887.3 7.4
848(16) 0.00383 886.8 7.5
878(16) 0.00402 886.3 7.5
865(15) 0.00431 885.8 7.6
854(15) 0.00437 885.3 7.6
876(16) 0.00401 884.7 7.7
889(17) 0.00363 884.2 7.8
848(16) 0.00411 883.7 7.9
844(15) 0.00438 883.2 7.9
874(15) 0.00424 882.7 8.0
912(16) 0.00387 882.2 8.1
906(17) 0.00359 881.7 8.2
869(16) 0.00398 881.2 8.3
900(16) 0.00414 880.6 8.4
913(16) 0.00398 880.1 8.5
905(16) 0.00381 879.6 8.6
910(17) 0.00365 879.1 8.7
878(16) 0.00401 878.6 8.9
887(15) 0.00419 878.1 9.0
858(15) 0.00419 877.6 9.1
859(16) 0.00402 877.1 9.3
870(16) 0.00375 876.6 9.4
877(16) 0.00386 876.0 9.6
848(15) 0.00436 875.5 9.7
884(16) 0.00394 875.0 9.9
843(16) 0.00400 874.5 10.1
854(16) 0.00399 874.0 10.2
853(16) 0.00413 873.5 10.4
863(15) 0.00431 873.0 10.6
876(16) 0.00393 872.5 10.8
885(16) 0.00387 872.0 11.1
871(16) 0.00400 871.4 11.3
867(16) 0.00410 870.9 11.5
848(15) 0.00438 870.4 11.8
857(16) 0.00406 869.9 12.1
892(16) 0.00379 869.4 12.3
862(16) 0.00406 868.9 12.6
850(15) 0.00431 868.4 12.9
862(15) 0.00430 867.9 13.3
893(16) 0.00380 867.3 13.6
868(16) 0.00380 866.8 14.0
855(16) 0.00412 866.3 14.4
852(15) 0.00432 865.8 14.8
826(15) 0.00449 865.3 15.2
869(16) 0.00400 864.8 15.6
856(16) 0.00384 864.3 16.1
854(16) 0.00403 863.8 16.6
880(15) 0.00419 863.3 17.2
843(15) 0.00442 862.7 17.8
866(16) 0.00400 862.2 18.4
866(16) 0.00372 861.7 19.0
861(16) 0.00396 861.2 19.8
877(15) 0.00422 860.7 20.5
885(15) 0.00419 860.2 21.3
865(16) 0.00398 859.7 22.2
888(17) 0.00365 859.2 23.2
892(16) 0.00394 858.6 24.3
872(15) 0.00428 858.1 25.4
855(15) 0.00431 857.6 26.7
893(16) 0.00384 857.1 28.1
882(16) 0.00378 856.6 29.7
897(16) 0.00385 856.1 31.4
865(15) 0.00433 855.6 33.5
891(16) 0.00414 855.1 35.9
886(16) 0.00397 854.6 38.7
860(16) 0.00395 854.0 42.2
886(16) 0.00388 853.5 46.6
865(15) 0.00427 853.0 52.2
916(16) 0.00394 852.5 59.4
924(17) 0.00367 852.0 68.6
940(17) 0.00357 851.5 80.4
950(17) 0.00363 851.0 95.2
977(16) 0.00381 850.5 113.7
942(16) 0.00375 849.9 136.0
1027(18) 0.003217 849.4 162.3
996(17) 0.003435 848.9 192.4
1051(17) 0.003364 848.4 225.4
1079(17) 0.003449 847.9 260.1
1150(18) 0.003083 847.4 294.3
1120(18) 0.003076 846.9 324.8
1179(19) 0.002879 846.4 348.1
1244(19) 0.002851 845.9 360.3
1288(19) 0.002887 845.3 359.4
1238(19) 0.002799 844.8 345.9
1148(18) 0.002926 844.3 322.5
1108(18) 0.003093 843.8 293.0
1117(18) 0.003186 843.3 261.1
1028(17) 0.00361 842.8 229.5
1012(17) 0.003388 842.3 200.2
998(17) 0.003399 841.8 174.3
996(17) 0.003459 841.2 152.3
916(16) 0.00400 840.7 134.5
961(16) 0.00388 840.2 120.7
899(16) 0.00393 839.7 110.4
898(17) 0.00365 839.2 103.4
893(16) 0.00390 838.7 99.0
940(16) 0.00399 838.2 96.8
915(16) 0.00403 837.7 96.5
901(16) 0.00390 837.2 97.7
921(17) 0.00355 836.6 100.3
934(17) 0.00364 836.1 104.2
875(15) 0.00422 835.6 109.5
948(16) 0.00392 835.1 116.2
920(16) 0.00381 834.6 124.6
925(17) 0.003475 834.1 134.8
933(16) 0.00380 833.6 147.4
1003(16) 0.00371 833.1 162.6
989(16) 0.00375 832.5 181.0
998(17) 0.003463 832.0 203.1
1006(18) 0.003220 831.5 229.6
1062(18) 0.003222 831.0 261.1
1097(17) 0.003385 830.5 298.1
1131(18) 0.003219 830.0 341.3
1178(18) 0.002933 829.5 391.2
1244(19) 0.002669 829.0 448.0
1333(20) 0.002605 828.5 511.9
1353(19) 0.002744 827.9 583.0
1421(20) 0.002559 827.4 660.7
1534(21) 0.002234 826.9 744.2
1698(23) 0.001940 826.4 832.4
1725(22) 0.001990 825.9 923.3
1880(23) 0.001964 825.4 1014.4
2007(24) 0.001766 824.9 1102.2
2139(25) 0.001589 824.4 1182.5
2161(25) 0.001575 823.8 1250.6
2248(25) 0.001554 823.3 1301.5
2265(25) 0.001645 822.8 1330.9
2283(26) 0.001535 822.3 1336.1
2132(25) 0.001613 821.8 1316.5
2131(25) 0.001609 821.3 1274.1
2029(24) 0.001754 820.8 1212.5
1897(23) 0.001959 820.3 1136.5
1811(23) 0.001925 819.8 1051.0
1774(23) 0.001906 819.2 960.6
1688(22) 0.002037 818.7 869.0
1534(21) 0.002370 818.2 779.1
1534(20) 0.002423 817.7 693.0
1430(20) 0.002394 817.2 612.4
1373(20) 0.002435 816.7 538.0
1333(20) 0.002597 816.2 470.6
1281(19) 0.002865 815.7 410.4
1214(18) 0.003078 815.1 357.1
1179(18) 0.002939 814.6 310.7
1137(19) 0.002899 814.1 270.6
1069(18) 0.003264 813.6 236.2
1102(17) 0.003290 813.1 207.1
1021(17) 0.00367 812.6 182.5
1012(17) 0.003343 812.1 161.8
1012(18) 0.003148 811.6 144.4
979(17) 0.00358 811.1 129.9
945(16) 0.00390 810.5 117.6
923(16) 0.00404 810.0 107.3
936(16) 0.00376 809.5 98.5
904(17) 0.003492 809.0 90.9
922(16) 0.00373 808.5 84.4
910(16) 0.00405 808.0 78.7
919(16) 0.00402 807.5 73.7
878(16) 0.00393 807.0 69.3
870(16) 0.00378 806.5 65.3
876(16) 0.00400 805.9 61.6
865(15) 0.00429 805.4 58.4
816(15) 0.00451 804.9 55.4
813(15) 0.00434 804.4 52.6
877(16) 0.00375 803.9 50.1
847(16) 0.00411 803.4 47.7
832(15) 0.00445 802.9 45.6
871(16) 0.00407 802.4 43.6
868(16) 0.00402 801.8 41.7
841(16) 0.00394 801.3 39.9
814(15) 0.00418 800.8 38.3
817(15) 0.00457 800.3 36.8
852(15) 0.00424 799.8 35.4
799(15) 0.00436 799.3 34.1
842(16) 0.00403 798.8 32.8
810(15) 0.00434 798.3 32.0
833(15) 0.00446 797.8 30.9
835(15) 0.00438 797.2 29.9
876(16) 0.00392 796.7 28.9
815(15) 0.00427 796.2 28.0
790(15) 0.00455 795.7 27.2
801(15) 0.00465 795.2 26.4
787(15) 0.00442 794.7 25.7
794(15) 0.00419 794.2 25.0
795(15) 0.00432 793.7 24.3
836(15) 0.00431 793.1 23.7
828(15) 0.00450 792.6 23.2
809(15) 0.00429 792.1 22.6
789(15) 0.00434 791.6 22.1
803(15) 0.00433 791.1 21.7
784(15) 0.00462 790.6 21.2
810(15) 0.00457 790.1 20.8
825(15) 0.00421 789.6 20.4
796(15) 0.00419 789.1 20.1
789(15) 0.00445 788.5 19.8
812(15) 0.00451 788.0 19.5
814(15) 0.00453 787.5 19.2
781(15) 0.00445 787.0 19.0
785(16) 0.00405 786.5 18.8
776(15) 0.00438 786.0 18.6
783(15) 0.00466 785.5 18.5
822(15) 0.00452 785.0 18.4
772(15) 0.00450 784.4 18.3
787(16) 0.00406 783.9 18.2
767(15) 0.00460 783.4 18.2
781(15) 0.00470 782.9 18.2
826(15) 0.00451 782.4 18.3
792(15) 0.00442 781.9 18.4
815(16) 0.00388 781.4 18.6
756(15) 0.00464 780.9 18.8
775(14) 0.00480 780.4 19.1
777(14) 0.00477 779.8 19.4
766(15) 0.00450 779.3 19.9
802(16) 0.00396 778.8 20.5
793(15) 0.00436 778.3 21.2
780(15) 0.00475 777.8 22.3
787(15) 0.00462 777.3 23.8
770(15) 0.00451 776.8 26.5
777(15) 0.00432 776.3 31.8
804(15) 0.00434 775.7 42.7
824(15) 0.00449 775.2 64.2
819(15) 0.00441 774.7 102.6
893(16) 0.00394 774.2 162.9
953(17) 0.00359 773.7 244.6
1039(17) 0.003355 773.2 337.2
1131(17) 0.003289 772.7 419.2
1241(19) 0.002897 772.2 463.3
1309(19) 0.002665 771.7 450.6
1242(19) 0.002754 771.1 387.4
1062(17) 0.003331 770.6 298.5
937(16) 0.00398 770.1 209.9
878(16) 0.00395 769.6 138.4
804(15) 0.00432 769.1 89.6
781(15) 0.00447 768.6 61.1
797(15) 0.00443 768.1 46.8
796(15) 0.00469 767.6 40.8
769(15) 0.00446 767.0 39.0
767(15) 0.00439 766.5 39.4
788(15) 0.00443 766.0 41.0
778(15) 0.00466 765.5 43.3
810(15) 0.00460 765.0 46.3
785(15) 0.00446 764.5 50.0
797(15) 0.00419 764.0 54.4
802(15) 0.00433 763.5 59.6
793(15) 0.00454 763.0 65.5
836(15) 0.00446 762.4 72.2
777(15) 0.00454 761.9 79.7
802(16) 0.00407 761.4 88.1
842(16) 0.00409 760.9 97.3
820(15) 0.00448 760.4 107.3
825(15) 0.00453 759.9 118.0
859(16) 0.00408 759.4 129.2
845(16) 0.00389 758.9 141.0
874(16) 0.00406 758.3 153.2
898(16) 0.00414 757.8 165.4
879(15) 0.00420 757.3 177.4
898(16) 0.00390 756.8 188.7
919(17) 0.003483 756.3 199.0
910(16) 0.00389 755.8 207.7
979(16) 0.00380 755.3 214.4
964(16) 0.00384 754.8 218.6
911(16) 0.00384 754.3 220.1
897(17) 0.00363 753.7 218.7
899(16) 0.00390 753.2 214.6
921(16) 0.00406 752.7 208.0
917(16) 0.00395 752.2 199.3
909(16) 0.00383 751.7 189.0
863(16) 0.00391 751.2 177.6
813(15) 0.00425 750.7 165.5
854(15) 0.00436 750.2 153.0
828(15) 0.00438 749.6 140.6
824(16) 0.00416 749.1 128.5
862(16) 0.00385 748.6 116.9
834(15) 0.00419 748.1 105.8
856(15) 0.00435 747.6 95.5
806(15) 0.00446 747.1 85.9
777(15) 0.00454 746.6 77.1
773(15) 0.00447 746.1 69.1
797(15) 0.00439 745.6 62.0
781(14) 0.00478 745.0 55.6
799(15) 0.00444 744.5 49.9
751(15) 0.00462 744.0 44.8
779(15) 0.00426 743.5 40.5
771(15) 0.00457 743.0 36.6
757(14) 0.00493 742.5 33.3
730(14) 0.00490 742.0 30.4
778(15) 0.00427 741.5 27.9
748(15) 0.00455 741.0 25.7
747(14) 0.00483 740.4 23.8
722(14) 0.00511 739.9 22.2
750(15) 0.00458 739.4 20.7
737(15) 0.00453 738.9 19.5
724(14) 0.00481 738.4 18.4
753(14) 0.00478 737.9 17.4
755(14) 0.00493 737.4 16.6
754(15) 0.00467 736.9 15.8
757(15) 0.00443 736.3 15.1
763(15) 0.00450 735.8 14.5
712(14) 0.00515 735.3 13.9
752(14) 0.00501 734.8 13.4
721(14) 0.00491 734.3 12.9
779(16) 0.00408 733.8 12.5
736(14) 0.00481 733.3 12.1
751(14) 0.00491 732.8 11.8
702(14) 0.00532 732.3 11.5
757(15) 0.00461 731.7 11.3
705(15) 0.00459 731.2 11.1
757(15) 0.00448 730.7 11.0
718(14) 0.00510 730.2 11.0
699(14) 0.00535 729.7 10.9
707(14) 0.00488 729.2 11.0
714(15) 0.00455 728.7 11.1
713(14) 0.00486 728.2 11.3
762(14) 0.00489 727.6 11.6
714(14) 0.00515 727.1 12.0
729(14) 0.00484 726.6 12.4
742(15) 0.00452 726.1 12.9
729(15) 0.00467 725.6 13.5
683(14) 0.00545 725.1 14.1
703(14) 0.00510 724.6 14.7
730(15) 0.00474 724.1 15.3
737(15) 0.00463 723.6 15.9
724(14) 0.00477 723.0 16.4
695(14) 0.00534 722.5 16.7
694(14) 0.00506 722.0 16.8
690(14) 0.00495 721.5 16.7
719(15) 0.00472 721.0 16.4
730(14) 0.00476 720.5 15.8
732(14) 0.00506 720.0 15.1
725(14) 0.00486 719.5 14.3
702(14) 0.00478 718.9 13.4
719(14) 0.00479 718.4 12.5
731(14) 0.00490 717.9 11.6
703(14) 0.00528 717.4 10.7
715(14) 0.00490 716.9 9.9
735(15) 0.00458 716.4 9.2
699(14) 0.00488 715.9 8.5
700(14) 0.00518 715.4 7.8
709(14) 0.00523 714.9 7.3
694(14) 0.00493 714.3 6.8
739(15) 0.00461 713.8 6.4
742(14) 0.00478 713.3 6.0
741(14) 0.00500 712.8 5.7
720(14) 0.00516 712.3 5.5
702(14) 0.00494 711.8 5.2
688(14) 0.00484 711.3 5.0
712(14) 0.00491 710.8 4.9
700(14) 0.00530 710.2 4.7
703(14) 0.00529 709.7 4.6
659(14) 0.00543 709.2 4.4
711(15) 0.00452 708.7 4.3
699(14) 0.00502 708.2 4.2
717(14) 0.00513 707.7 4.1
708(14) 0.00526 707.2 4.0
697(14) 0.00502 706.7 4.0
675(15) 0.00467 706.2 3.9
667(14) 0.00513 705.6 3.8
674(13) 0.00555 705.1 3.8
711(14) 0.00520 704.6 3.7
728(14) 0.00478 704.1 3.6
702(15) 0.00459 703.6 3.6
734(15) 0.00458 703.1 3.5
680(13) 0.00554 702.6 3.5
695(14) 0.00527 702.1 3.4
697(14) 0.00504 701.5 3.4
723(15) 0.00446 701.0 3.3
673(14) 0.00523 700.5 3.3
720(14) 0.00515 700.0 3.2
723(14) 0.00502 699.5 3.2
727(15) 0.00471 699.0 3.2
692(14) 0.00493 698.5 3.1
724(14) 0.00477 698.0 3.1
668(13) 0.00558 697.5 3.1
674(14) 0.00532 697.2 3.0
688(14) 0.00492 696.8 3.0
718(15) 0.00462 696.5 3.0
656(14) 0.00527 696.1 3.0
632(13) 0.00589 695.8 3.0
679(14) 0.00526 695.4 2.9
694(14) 0.00483 695.1 2.9
724(15) 0.00465 694.7 2.9
711(14) 0.00503 694.4 2.9
699(14) 0.00534 694.0 2.9
730(14) 0.00477 693.7 2.9
679(14) 0.00496 693.3 2.9
696(14) 0.00488 693.0 2.9
704(14) 0.00511 692.6 2.9
704(14) 0.00524 692.3 2.9
682(14) 0.00508 691.9 2.9
686(14) 0.00482 691.6 3.0
693(14) 0.00494 691.2 3.0
723(14) 0.00503 690.8 3.4
693(14) 0.00540 690.5 3.5
674(14) 0.00512 690.1 3.5
670(14) 0.00485 689.8 3.5
686(14) 0.00509 689.4 3.6
704(14) 0.00523 689.1 3.6
690(14) 0.00539 688.7 3.7
693(14) 0.00510 688.4 3.8
684(14) 0.00489 688.0 3.8
665(14) 0.00531 687.7 3.9
676(14) 0.00548 687.3 3.9
734(14) 0.00509 687.0 4.0
654(14) 0.00539 686.6 4.1
709(15) 0.00446 686.3 4.2
697(14) 0.00513 685.9 4.2
712(14) 0.00517 685.6 4.3
684(14) 0.00534 685.2 4.4
664(14) 0.00528 684.9 4.5
669(14) 0.00489 684.5 4.5
677(14) 0.00521 684.2 4.6
696(14) 0.00532 683.8 4.7
671(13) 0.00552 683.5 4.8
693(14) 0.00513 683.1 4.8
683(14) 0.00480 682.8 4.9
651(14) 0.00534 682.4 5.0
680(14) 0.00541 682.0 5.0
716(14) 0.00511 681.7 5.0
722(15) 0.00466 681.3 5.1
705(15) 0.00466 681.0 5.1
698(14) 0.00489 680.6 5.1
697(14) 0.00534 680.3 5.1
700(14) 0.00516 679.9 5.2
672(14) 0.00512 679.6 5.2
664(14) 0.00515 679.2 5.1
701(14) 0.00496 678.9 5.1
679(13) 0.00550 678.5 5.1
655(14) 0.00541 678.2 5.1
676(14) 0.00511 677.8 5.1
679(14) 0.00513 677.5 4.3
684(14) 0.00521 677.1 4.3
670(13) 0.00550 676.8 4.3
720(14) 0.00496 676.4 4.3
697(14) 0.00496 676.1 4.3
677(14) 0.00509 675.7 4.3
679(14) 0.00527 675.4 4.3
684(14) 0.00542 675.0 4.3
685(14) 0.00509 674.7 4.3
659(14) 0.00528 674.3 4.3
676(14) 0.00527 674.0 4.4
688(14) 0.00528 673.6 4.4
671(13) 0.00552 673.2 4.5
652(14) 0.00537 672.9 4.6
637(14) 0.00540 672.5 4.7
649(13) 0.00551 672.2 4.8
690(14) 0.00538 671.8 4.9
690(14) 0.00541 671.5 5.1
698(14) 0.00485 671.1 5.2
658(14) 0.00500 670.8 5.4
653(14) 0.00540 670.4 5.7
682(14) 0.00540 670.1 6.0
653(13) 0.00571 669.7 6.3
674(14) 0.00522 669.4 6.7
666(14) 0.00486 669.0 7.1
647(14) 0.00535 668.7 7.6
674(14) 0.00547 668.3 8.2
685(14) 0.00546 668.0 8.8
616(13) 0.00592 667.6 9.6
659(14) 0.00479 667.3 10.5
664(14) 0.00522 666.9 11.6
680(14) 0.00547 666.6 12.9
679(14) 0.00541 666.2 14.5
673(14) 0.00511 665.9 16.4
655(14) 0.00515 665.5 19.0
703(14) 0.00505 665.2 22.5
677(13) 0.00551 664.8 27.7
636(13) 0.00575 664.4 36.1
673(14) 0.00525 664.1 50.0
696(15) 0.00465 663.7 72.9
710(14) 0.00482 663.4 109.1
756(14) 0.00494 663.0 162.5
875(16) 0.00415 662.7 235.0
922(16) 0.00376 662.3 324.0
972(17) 0.003454 662.0 420.3
1084(18) 0.003173 661.6 507.0
1195(18) 0.003090 661.3 560.6
1204(18) 0.003055 660.9 561.2
1211(19) 0.002810 660.6 508.4
1087(18) 0.003092 660.2 422.1
957(16) 0.00375 659.9 325.8
868(15) 0.00429 659.5 236.6
798(15) 0.00440 659.2 163.7
733(15) 0.00465 658.8 109.8
734(15) 0.00465 658.5 73.3
696(14) 0.00513 658.1 50.1
670(13) 0.00557 657.8 36.1
680(14) 0.00522 657.4 27.6
675(14) 0.00516 657.1 22.3
679(14) 0.00509 656.7 18.8
651(13) 0.00558 656.4 16.2
660(13) 0.00562 656.0 14.2
622(14) 0.00548 655.6 12.6
663(14) 0.00496 655.3 11.3
653(14) 0.00541 654.9 10.1
677(14) 0.00533 654.6 9.2
669(13) 0.00557 654.2 8.4
670(14) 0.00514 653.9 7.7
608(13) 0.00570 653.5 7.0
688(14) 0.00490 653.2 6.5
649(13) 0.00560 652.8 6.0
645(13) 0.00577 652.5 5.6
644(14) 0.00537 652.1 5.2
676(15) 0.00470 651.8 4.9
617(13) 0.00581 651.4 4.6
662(13) 0.00565 651.1 4.4
654(13) 0.00564 650.7 4.1
653(14) 0.00544 650.4 3.9
652(14) 0.00482 650.0 3.7
630(14) 0.00547 649.7 3.5
641(13) 0.00581 649.3 3.4
645(13) 0.00570 649.0 3.2
636(13) 0.00553 648.6 3.1
646(14) 0.00506 648.3 3.0
650(14) 0.00540 647.9 2.8
657(13) 0.00565 647.6 2.7
608(13) 0.00599 647.2 2.6
692(14) 0.00491 646.8 2.5
624(14) 0.00545 646.5 2.5
661(14) 0.00530 646.1 2.4
649(13) 0.00567 645.8 2.3
636(13) 0.00581 645.4 2.2
631(14) 0.00545 645.1 2.2
625(14) 0.00545 644.7 2.1
611(13) 0.00553 644.4 2.0
628(13) 0.00591 644.0 2.0
606(13) 0.00591 643.7 1.9
629(13) 0.00556 643.3 1.9
636(14) 0.00534 643.0 1.9
622(13) 0.00573 642.6 1.8
647(13) 0.00574 642.3 1.8
606(13) 0.00600 641.9 1.7
628(14) 0.00540 641.6 1.7
681(14) 0.00496 641.2 1.7
654(14) 0.00538 640.9 1.7
647(13) 0.00579 640.5 1.6
636(13) 0.00562 640.2 1.6
657(14) 0.00514 639.8 1.6
667(14) 0.00499 639.5 1.6
610(13) 0.00576 639.1 1.5
658(13) 0.00564 638.8 1.5
655(14) 0.00526 638.4 1.5
653(14) 0.00502 638.0 1.5
618(13) 0.00561 637.7 1.5
603(13) 0.00605 637.3 1.5
606(13) 0.00614 637.0 1.4
607(13) 0.00581 636.6 1.4
612(14) 0.00535 636.3 1.4
609(13) 0.00571 635.9 1.4
614(13) 0.00598 635.6 1.4
629(13) 0.00587 635.2 1.4
658(14) 0.00525 634.9 1.4
628(14) 0.00524 634.5 1.4
599(13) 0.00588 634.2 1.4
640(13) 0.00575 633.8 1.4
641(13) 0.00584 633.5 1.4
605(13) 0.00578 633.1 1.4
614(14) 0.00519 632.8 1.4
627(14) 0.00542 632.4 1.4
611(13) 0.00605 632.1 1.5
632(13) 0.00587 631.7 1.5
624(13) 0.00573 631.4 1.5
634(14) 0.00519 631.0 1.5
612(13) 0.00581 630.7 1.6
643(13) 0.00574 630.3 1.6
643(13) 0.00567 630.0 1.6
621(13) 0.00550 629.6 1.7
600(13) 0.00557 629.2 1.7
639(13) 0.00549 628.9 1.8
657(13) 0.00566 628.5 1.9
590(13) 0.00622 628.2 1.9
586(13) 0.00595 627.8 2.0
603(13) 0.00565 627.5 2.2
627(14) 0.00536 627.1 2.3
635(13) 0.00583 626.8 2.5
595(13) 0.00612 626.4 2.7
574(13) 0.00594 626.1 3.1
614(14) 0.00529 625.7 3.6
642(14) 0.00528 625.4 4.4
640(13) 0.00578 625.0 5.7
627(13) 0.00576 624.7 7.8
610(13) 0.00557 624.3 11.1
628(14) 0.00536 624.0 15.8
643(14) 0.00545 623.6 22.1
631(13) 0.00590 623.3 29.7
629(13) 0.00561 622.9 37.9
619(13) 0.00552 622.6 45.4
670(14) 0.00504 622.2 50.2
638(13) 0.00559 621.9 50.6
676(13) 0.00552 621.5 46.6
604(13) 0.00582 621.2 39.4
631(14) 0.00536 620.8 31.2
654(14) 0.00538 620.4 23.4
663(13) 0.00551 620.1 16.8
639(13) 0.00582 619.7 11.8
616(14) 0.00547 619.4 8.3
653(14) 0.00509 619.0 6.0
622(14) 0.00548 618.7 4.6
601(13) 0.00605 618.3 3.7
593(13) 0.00633 618.0 3.2
622(13) 0.00564 617.6 2.8
600(13) 0.00554 617.3 2.5
618(13) 0.00577 616.9 2.3
604(13) 0.00596 616.6 2.2
611(13) 0.00613 616.2 2.1
608(13) 0.00573 615.9 2.0
638(14) 0.00498 615.5 1.9
593(13) 0.00597 615.2 1.8
604(13) 0.00618 614.8 1.7
639(13) 0.00571 614.5 1.7
617(13) 0.00549 614.1 1.6
581(13) 0.00566 613.8 1.6
609(13) 0.00566 613.4 1.5
621(13) 0.00592 613.1 1.5
665(14) 0.00540 612.7 1.5
599(13) 0.00591 612.4 1.5
573(13) 0.00572 612.0 1.4
605(13) 0.00575 611.6 1.4
621(13) 0.00600 611.3 1.4
584(13) 0.00609 610.9 1.4
590(13) 0.00595 610.6 1.4
603(13) 0.00559 610.2 1.4
598(13) 0.00568 609.9 1.4
616(13) 0.00600 609.5 1.4
615(13) 0.00571 609.2 1.4
596(13) 0.00568 608.8 1.4
568(13) 0.00587 608.5 1.4
600(13) 0.00570 608.1 1.4
578(13) 0.00636 607.8 1.4
584(13) 0.00618 607.4 1.4
618(14) 0.00545 607.1 1.4
602(13) 0.00558 606.7 1.4
577(13) 0.00600 606.4 1.4
619(13) 0.00595 606.0 1.4
600(13) 0.00588 605.7 1.4
583(13) 0.00584 605.3 1.4
612(13) 0.00562 605.0 1.4
625(13) 0.00571 604.6 1.4
599(13) 0.00617 604.3 1.4
582(13) 0.00605 603.9 1.4
613(14) 0.00549 603.6 1.4
615(13) 0.00565 603.2 1.4
605(13) 0.00599 602.9 1.5
612(13) 0.00609 602.5 1.5
609(13) 0.00566 602.1 1.5
571(13) 0.00592 601.8 1.5
595(13) 0.00584 601.4 1.5
581(13) 0.00635 601.1 1.5
613(13) 0.00612 600.7 1.5
565(13) 0.00621 600.4 1.5
609(14) 0.00538 600.0 1.6
628(14) 0.00548 599.7 1.6
632(13) 0.00593 599.3 1.6
594(13) 0.00612 599.0 1.6
598(13) 0.00581 598.6 1.6
603(13) 0.00552 598.3 1.7
595(13) 0.00577 597.9 1.7
622(13) 0.00600 597.6 1.7
603(13) 0.00619 597.2 1.7
571(13) 0.00617 596.9 1.7
582(13) 0.00562 596.5 1.8
610(13) 0.00572 596.2 1.8
605(13) 0.00611 595.8 1.8
604(13) 0.00614 595.5 1.9
597(13) 0.00593 595.2 1.9
588(13) 0.00566 594.9 1.9
597(13) 0.00582 594.7 2.0
574(12) 0.00649 594.4 2.0
630(13) 0.00581 594.2 2.0
642(14) 0.00535 593.9 2.0
583(13) 0.00578 593.7 2.1
595(13) 0.00580 593.5 2.1
625(13) 0.00598 593.2 2.1
598(13) 0.00607 593.0 2.2
600(13) 0.00561 592.7 2.2
572(13) 0.00590 592.5 2.3
614(13) 0.00580 592.2 2.3
629(13) 0.00594 592.0 2.3
596(13) 0.00606 591.7 2.4
586(13) 0.00580 591.5 2.4
580(13) 0.00590 591.2 2.5
608(13) 0.00581 591.0 2.5
595(13) 0.00622 590.7 2.6
555(12) 0.00651 590.5 2.6
565(13) 0.00617 590.2 2.7
571(13) 0.00601 590.0 2.7
582(13) 0.00594 589.7 2.8
581(13) 0.00637 589.5 2.8
574(13) 0.00607 589.2 2.9
574(13) 0.00595 589.0 3.0
595(13) 0.00587 588.7 3.0
607(13) 0.00593 588.5 3.1
574(12) 0.00648 588.2 3.2
595(13) 0.00588 588.0 3.2
591(13) 0.00557 587.7 3.3
566(13) 0.00623 587.5 3.4
576(12) 0.00641 587.2 3.5
598(13) 0.00611 587.0 3.5
566(13) 0.00618 586.7 3.6
586(13) 0.00582 586.5 3.7
567(12) 0.00642 586.2 3.8
568(12) 0.00653 586.0 3.9
601(13) 0.00613 585.7 4.0
568(13) 0.00616 585.5 4.1
596(14) 0.00529 585.2 4.3
601(13) 0.00575 585.0 4.4
583(13) 0.00639 584.7 4.5
566(12) 0.00659 584.5 4.6
584(13) 0.00608 584.2 4.8
579(13) 0.00572 584.0 4.9
607(13) 0.00581 583.7 5.1
604(13) 0.00614 583.5 5.2
576(12) 0.00644 583.2 5.4
589(13) 0.00581 583.0 5.6
592(14) 0.00544 582.7 5.8
585(13) 0.00584 582.5 6.0
563(12) 0.00657 582.2 6.2
554(12) 0.00663 582.0 6.4
608(13) 0.00566 581.8 6.7
573(13) 0.00592 581.5 7.0
594(13) 0.00584 581.3 7.3
593(13) 0.00626 581.0 7.6
545(12) 0.00669 580.8 7.9
579(13) 0.00593 580.5 8.3
601(13) 0.00561 580.3 8.7
596(13) 0.00570 580.0 9.2
565(12) 0.00654 579.8 9.7
574(13) 0.00634 579.5 10.2
588(13) 0.00582 579.3 10.8
609(13) 0.00549 579.0 11.4
577(13) 0.00602 578.8 12.1
601(13) 0.00617 578.5 12.9
586(13) 0.00611 578.3 13.8
590(13) 0.00578 578.0 14.7
579(13) 0.00583 577.8 15.7
622(13) 0.00554 577.5 16.8
584(13) 0.00639 577.3 18.0
579(13) 0.00611 577.0 19.3
623(14) 0.00541 576.8 20.7
583(13) 0.00609 576.5 22.2
583(13) 0.00628 576.3 23.8
608(13) 0.00610 576.0 25.6
593(13) 0.00591 575.8 27.5
620(14) 0.00527 575.5 29.5
619(14) 0.00546 575.3 31.6
595(13) 0.00614 575.0 33.9
601(13) 0.00618 574.8 36.3
610(13) 0.00564 574.5 38.9
620(14) 0.00536 574.3 41.6
619(13) 0.00567 574.0 44.4
618(13) 0.00590 573.8 47.3
609(13) 0.00615 573.5 50.3
587(13) 0.00592 573.3 53.4
600(14) 0.00532 573.0 56.7
598(13) 0.00593 572.8 59.9
625(13) 0.00590 572.5 63.2
618(13) 0.00601 572.3 66.6
639(14) 0.00538 572.0 69.9
633(14) 0.00506 571.8 73.2
653(14) 0.00524 571.5 76.3
648(13) 0.00573 571.3 79.4
647(13) 0.00573 571.0 82.2
692(14) 0.00502 570.8 84.9
698(15) 0.00462 570.6 87.2
660(14) 0.00518 570.3 89.2
640(13) 0.00576 570.1 90.9
680(14) 0.00544 569.8 92.1
674(14) 0.00509 569.6 92.9
663(14) 0.00496 569.3 93.2
648(14) 0.00548 569.1 93.0
643(13) 0.00579 568.8 92.4
624(13) 0.00588 568.6 91.3
645(14) 0.00532 568.3 89.7
616(14) 0.00538 568.1 87.8
613(13) 0.00558 567.8 85.5
671(13) 0.00557 567.6 83.0
661(14) 0.00545 567.3 80.2
644(14) 0.00535 567.1 77.2
625(14) 0.00536 566.8 74.1
592(13) 0.00579 566.6 70.8
632(13) 0.00592 566.3 67.5
603(13) 0.00584 566.1 64.2
636(14) 0.00523 565.8 60.9
612(13) 0.00558 565.6 57.6
584(13) 0.00621 565.3 54.4
585(13) 0.00634 565.1 51.3
620(13) 0.00571 564.8 48.3
641(14) 0.00516 564.6 45.3
598(13) 0.00576 564.3 42.5
599(13) 0.00586 564.1 39.8
632(13) 0.00593 563.8 37.3
600(13) 0.00567 563.6 34.8
575(13) 0.00598 563.3 32.6
570(13) 0.00627 563.1 30.4
600(13) 0.00595 562.8 28.4
610(13) 0.00615 562.6 26.5
570(13) 0.00621 562.3 24.7
572(13) 0.00588 562.1 23.1
567(13) 0.00608 561.8 21.6
570(13) 0.00638 561.6 20.2
557(12) 0.00668 561.3 19.0
568(13) 0.00603 561.1 17.8
544(13) 0.00606 560.8 16.7
574(13) 0.00599 560.6 15.7
601(13) 0.00616 560.3 14.9
555(12) 0.00661 560.1 14.1
556(13) 0.00635 559.8 13.3
592(13) 0.00549 559.6 12.7
577(13) 0.00619 559.4 12.1
577(12) 0.00646 559.1 11.6
583(13) 0.00637 558.9 11.2
566(13) 0.00618 558.6 10.8
564(13) 0.00564 558.4 10.4
524(12) 0.00667 558.1 10.1
582(13) 0.00638 557.9 9.9
596(13) 0.00614 557.6 9.7
570(13) 0.00617 557.4 9.6
572(13) 0.00574 557.1 9.5
574(13) 0.00604 556.9 9.5
589(13) 0.00634 556.6 9.5
571(13) 0.00627 556.4 9.6
561(13) 0.00628 556.1 9.9
586(13) 0.00558 555.9 10.2
554(13) 0.00610 555.6 10.8
549(12) 0.00679 555.4 11.6
554(12) 0.00655 555.1 12.7
593(13) 0.00570 554.9 14.1
567(13) 0.00600 554.6 16.0
565(13) 0.00616 554.4 18.5
575(12) 0.00657 554.1 21.4
562(13) 0.00626 553.9 25.0
571(13) 0.00591 553.6 29.2
549(13) 0.00620 553.4 33.9
572(13) 0.00620 553.1 39.0
598(13) 0.00625 552.9 44.2
618(13) 0.00562 552.6 49.0
621(14) 0.00536 552.4 53.1
575(13) 0.00609 552.1 55.7
627(13) 0.00563 551.9 56.5
585(13) 0.00634 551.6 55.2
582(13) 0.00596 551.4 52.0
579(13) 0.00580 551.1 47.6
558(13) 0.00614 550.9 42.5
578(13) 0.00618 550.6 37.1
588(13) 0.00636 550.4 31.9
578(13) 0.00607 550.1 27.1
572(13) 0.00591 549.9 22.8
542(12) 0.00643 549.6 19.1
548(12) 0.00666 549.4 16.0
548(12) 0.00673 549.1 13.5
559(13) 0.00616 548.9 11.5
554(13) 0.00609 548.6 9.9
564(13) 0.00614 548.4 8.6
557(12) 0.00651 548.2 7.6
562(12) 0.00667 547.9 6.9
568(13) 0.00599 547.7 6.3
551(13) 0.00586 547.4 5.8
543(12) 0.00654 547.2 5.4
544(12) 0.00681 546.9 5.0
513(12) 0.00716 546.7 4.7
548(13) 0.00621 546.4 4.5
524(13) 0.00609 546.2 4.2
516(12) 0.00683 545.9 4.0
541(12) 0.00682 545.7 3.9
514(12) 0.00714 545.4 3.7
516(12) 0.00685 545.2 3.5
539(13) 0.00607 544.9 3.4
579(13) 0.00589 544.7 3.3
545(12) 0.00691 544.4 3.2
542(12) 0.00664 544.2 3.1
567(13) 0.00611 543.9 2.9
538(13) 0.00619 543.7 2.9
521(12) 0.00670 543.4 2.8
528(12) 0.00709 543.2 2.7
535(12) 0.00674 542.9 2.6
518(12) 0.00686 542.7 2.5
540(13) 0.00626 542.4 2.5
527(12) 0.00650 542.2 2.4
508(12) 0.00738 541.9 2.3
553(13) 0.00639 541.7 2.3
526(12) 0.00645 541.4 2.2
535(13) 0.00624 541.2 2.2
546(12) 0.00649 540.9 2.1
528(12) 0.00702 540.7 2.1
511(12) 0.00697 540.4 2.0
547(13) 0.00622 540.2 2.0
534(13) 0.00637 539.9 1.9
543(12) 0.00650 539.7 1.9
546(12) 0.00681 539.4 1.9
526(12) 0.00644 539.2 1.8
525(12) 0.00653 538.9 1.8
561(13) 0.00620 538.7 1.7
534(12) 0.00673 538.4 1.7
530(12) 0.00699 538.2 1.7
541(13) 0.00640 537.9 1.7
560(13) 0.00598 537.7 1.6
529(12) 0.00671 537.4 1.6
529(12) 0.00686 537.2 1.6
518(12) 0.00713 537.0 1.5
522(12) 0.00650 536.7 1.5
531(13) 0.00603 536.5 1.5
513(12) 0.00670 536.2 1.5
518(12) 0.00711 536.0 1.5
562(12) 0.00662 535.7 1.4
535(12) 0.00655 535.5 1.4
534(13) 0.00620 535.2 1.4
557(13) 0.00625 535.0 1.4
530(12) 0.00696 534.7 1.3
538(12) 0.00682 534.5 1.3
568(13) 0.00613 534.2 1.3
533(13) 0.00600 534.0 1.3
504(12) 0.00690 533.7 1.3
519(12) 0.00716 533.5 1.3
558(12) 0.00660 533.2 1.2
526(12) 0.00669 533.0 1.2
548(13) 0.00583 532.7 1.2
535(12) 0.00647 532.5 1.2
542(12) 0.00683 532.2 1.2
487(11) 0.00756 532.0 1.2
524(12) 0.00652 531.7 1.2
555(13) 0.00597 531.5 1.1
530(12) 0.00653 531.2 1.1
533(12) 0.00697 531.0 1.1
504(12) 0.00714 530.7 1.1
534(13) 0.00635 530.5 1.1
511(12) 0.00657 530.2 1.1
526(12) 0.00659 530.0 1.1
520(12) 0.00713 529.7 1.1
565(13) 0.00630 529.5 1.1
508(12) 0.00687 529.2 1.0
488(12) 0.00704 529.0 1.0
511(12) 0.00686 528.7 1.0
524(12) 0.00710 528.5 1.0
550(13) 0.00635 528.2 1.0
520(12) 0.00656 528.0 1.0
500(12) 0.00693 527.7 1.0
521(12) 0.00677 527.5 1.0
534(12) 0.00699 527.2 1.0
528(12) 0.00677 527.0 1.0
507(12) 0.00681 526.7 1.0
536(13) 0.00624 526.5 1.0
525(12) 0.00683 526.2 0.9
554(12) 0.00675 526.0 0.9
525(12) 0.00646 525.7 0.9
527(13) 0.00633 525.5 0.9
532(12) 0.00663 525.3 0.9
541(12) 0.00669 525.0 0.9
507(12) 0.00734 524.8 0.9
517(12) 0.00660 524.5 0.9
522(13) 0.00626 524.3 0.9
512(12) 0.00671 524.0 0.9
528(12) 0.00686 523.8 0.9
492(11) 0.00757 523.5 0.9
513(13) 0.00639 523.3 0.9
503(12) 0.00647 523.0 0.9
510(12) 0.00684 522.8 0.9
540(12) 0.00678 522.5 0.9
549(12) 0.00675 522.3 0.9
527(12) 0.00656 522.0 0.9
507(12) 0.00641 521.8 0.9
492(12) 0.00721 521.5 0.9
520(12) 0.00716 521.4 0.9
535(12) 0.00682 521.2 0.9
495(12) 0.00717 521.0 0.9
510(13) 0.00638 520.9 0.9
534(12) 0.00643 520.7 0.8
529(12) 0.00708 520.5 0.8
503(12) 0.00726 520.4 0.8
533(13) 0.00637 520.2 0.8
517(13) 0.00628 520.0 0.8
511(12) 0.00679 519.9 0.8
525(12) 0.00708 519.7 0.8
515(12) 0.00702 519.5 0.8
520(12) 0.00669 519.4 0.8
528(12) 0.00645 519.2 0.8
547(13) 0.00610 519.0 0.8
504(12) 0.00732 518.9 0.8
546(12) 0.00655 518.7 0.8
510(12) 0.00673 518.5 0.8
504(12) 0.00685 518.4 0.8
538(12) 0.00650 518.2 0.8
498(12) 0.00742 518.0 0.8
494(12) 0.00728 517.9 0.8
521(12) 0.00658 517.7 0.8
490(12) 0.00716 517.5 1.1
504(12) 0.00706 517.4 1.1
497(12) 0.00750 517.2 1.2
500(12) 0.00703 517.0 1.2
524(12) 0.00646 516.9 1.2
541(12) 0.00649 516.7 1.2
528(12) 0.00662 516.5 1.2
498(12) 0.00742 516.4 1.2
516(12) 0.00687 516.2 1.2
509(12) 0.00670 516.1 1.2
491(12) 0.00706 515.9 1.2
528(12) 0.00686 515.7 1.2
523(12) 0.00714 515.6 1.3
502(12) 0.00676 515.4 1.3
540(13) 0.00607 515.2 1.3
530(12) 0.00662 515.1 1.3
533(12) 0.00680 514.9 1.3
512(12) 0.00733 514.7 1.3
537(12) 0.00647 514.6 1.4
515(13) 0.00638 514.4 1.4
493(12) 0.00718 514.2 1.4
522(12) 0.00710 514.1 1.4
510(12) 0.00720 513.9 1.4
501(12) 0.00701 513.7 1.5
507(12) 0.00658 513.6 1.5
539(12) 0.00650 513.4 1.5
515(12) 0.00725 513.2 1.6
557(12) 0.00663 513.1 1.6
527(12) 0.00659 512.9 1.6
525(13) 0.00614 512.7 1.7
545(12) 0.00642 512.6 1.7
530(12) 0.00707 512.4 1.8
526(12) 0.00695 512.2 1.8
533(12) 0.00675 512.1 1.9
529(13) 0.00628 511.9 2.1
515(12) 0.00680 511.7 2.2
526(12) 0.00707 511.6 2.2
539(12) 0.00675 511.4 2.3
522(12) 0.00673 511.2 2.4
495(12) 0.00704 511.1 2.5
508(12) 0.00683 510.9 2.6
507(12) 0.00729 510.7 2.7
497(12) 0.00731 510.6 2.8
490(12) 0.00732 510.4 2.9
510(12) 0.00662 510.2 3.0
488(12) 0.00703 510.1 3.1
473(11) 0.00785 509.9 3.2
533(12) 0.00649 509.7 3.3
521(12) 0.00652 509.6 3.5
529(13) 0.00633 509.4 3.6
520(12) 0.00680 509.2 3.7
500(12) 0.00741 509.1 3.8
538(12) 0.00660 508.9 4.0
545(12) 0.00642 508.7 4.1
529(12) 0.00647 508.6 4.3
515(12) 0.00694 508.4 4.4
531(12) 0.00703 508.2 4.5
544(13) 0.00626 508.1 4.7
523(13) 0.00633 507.9 4.8
519(12) 0.00678 507.7 4.9
529(12) 0.00683 507.6 5.0
516(12) 0.00721 507.4 5.1
508(12) 0.00677 507.2 5.2
508(12) 0.00654 507.1 5.2
546(13) 0.00634 506.9 5.3
539(12) 0.00683 506.7 5.3
524(12) 0.00711 506.6 5.4
501(12) 0.00674 506.4 5.4
529(13) 0.00605 506.2 5.4
515(12) 0.00667 506.1 5.4
510(12) 0.00716 505.9 5.4
513(12) 0.00726 505.8 5.4
545(13) 0.00637 505.6 5.3
513(12) 0.00653 505.4 5.3
556(13) 0.00627 505.3 5.3
514(12) 0.00725 505.1 5.3
511(12) 0.00717 504.9 5.2
535(12) 0.00650 504.8 5.2
532(13) 0.00607 504.6 5.2
534(12) 0.00661 504.4 5.1
524(12) 0.00709 504.3 5.1
520(12) 0.00702 504.1 5.1
518(12) 0.00655 503.9 5.1
498(12) 0.00655 503.8 5.1
509(12) 0.00670 503.6 5.2
532(12) 0.00703 503.4 5.2
510(12) 0.00726 503.3 5.2
524(12) 0.00669 503.1 5.3
535(13) 0.00610 502.9 5.3
522(12) 0.00661 502.8 5.4
508(12) 0.00727 502.6 5.5
486(12) 0.00753 502.4 5.6
512(12) 0.00657 502.3 5.8
505(12) 0.00652 502.1 5.9
503(12) 0.00673 501.9 6.1
506(12) 0.00725 501.8 6.3
507(12) 0.00700 501.6 6.5
511(12) 0.00667 501.4 6.8
517(12) 0.00644 501.3 7.1
553(13) 0.00635 501.1 7.4
524(12) 0.00706 500.9 7.9
506(12) 0.00709 500.8 8.3
482(12) 0.00703 500.6 8.9
493(12) 0.00681 500.4 9.5
508(12) 0.00688 500.3 10.2
505(12) 0.00739 500.1 11.0
489(12) 0.00713 499.9 11.9
512(12) 0.00647 499.8 12.9
538(13) 0.00638 499.6 14.1
524(12) 0.00666 499.4 15.4
535(12) 0.00689 499.3 16.9
514(12) 0.00668 499.1 19.3
514(12) 0.00646 498.9 21.0
519(12) 0.00688 498.8 23.0
517(12) 0.00708 498.6 25.1
527(12) 0.00697 498.4 27.3
526(12) 0.00663 498.3 29.7
512(12) 0.00664 498.1 32.2
549(13) 0.00622 497.9 34.9
539(12) 0.00685 497.8 37.6
517(12) 0.00720 497.6 40.3
509(12) 0.00683 497.4 43.0
525(13) 0.00621 497.3 45.7
522(12) 0.00677 497.1 48.1
560(12) 0.00661 496.9 50.4
538(12) 0.00691 496.8 52.3
508(12) 0.00685 496.6 53.8
504(13) 0.00635 496.4 54.8
523(12) 0.00653 496.3 55.4
581(13) 0.00638 496.1 55.4
556(12) 0.00668 496.0 54.9
514(12) 0.00681 495.8 54.0
509(12) 0.00642 495.6 52.7
551(13) 0.00637 495.5 51.1
542(12) 0.00687 495.3 49.3
539(12) 0.00682 495.1 47.5
520(12) 0.00686 495.0 45.9
561(13) 0.00575 494.8 44.0
511(12) 0.00679 494.6 42.3
526(12) 0.00702 494.5 40.7
556(12) 0.00665 494.3 39.3
545(12) 0.00641 494.1 38.1
542(13) 0.00608 494.0 37.2
558(13) 0.00600 493.8 36.6
537(12) 0.00693 493.6 36.4
535(12) 0.00677 493.5 36.6
511(12) 0.00676 493.3 37.3
532(13) 0.00631 493.1 38.6
538(12) 0.00655 493.0 40.9
549(12) 0.00669 492.8 44.6
575(13) 0.00621 492.6 50.5
571(13) 0.00598 492.5 59.7
564(13) 0.00607 492.3 73.7
564(13) 0.00629 492.1 94.2
592(13) 0.00631 492.0 122.8
614(13) 0.00564 491.8 160.2
640(14) 0.00528 491.6 205.8
703(14) 0.00489 491.5 256.6
748(14) 0.00485 491.3 307.2
789(15) 0.00472 491.1 348.6
865(16) 0.00394 491.0 370.5
910(16) 0.00371 490.8 366.9
863(16) 0.00407 490.6 340.9
794(15) 0.00458 490.5 302.8
718(14) 0.00513 490.3 263.2
683(14) 0.00511 490.1 230.6
664(14) 0.00500 490.0 210.3
682(14) 0.00501 489.8 205.5
698(14) 0.00523 489.6 218.0
718(14) 0.00517 489.5 247.9
709(14) 0.00491 489.3 294.5
791(16) 0.00403 489.1 356.0
911(16) 0.00371 489.0 429.2
977(16) 0.00375 488.8 508.9
1077(17) 0.003443 488.6 587.4
1146(18) 0.003000 488.5 653.5
1199(19) 0.002687 488.3 694.4
1215(19) 0.002896 488.1 699.7
1179(18) 0.003142 488.0 667.8
1099(17) 0.003348 487.8 606.3
1016(17) 0.003402 487.6 527.9
918(17) 0.003446 487.5 444.1
829(15) 0.00421 487.3 363.5
791(15) 0.00470 487.1 291.1
707(14) 0.00520 487.0 229.5
684(14) 0.00493 486.8 179.5
608(14) 0.00543 486.6 140.3
628(14) 0.00543 486.5 110.7
591(13) 0.00627 486.3 88.8
578(13) 0.00634 486.1 72.9
587(13) 0.00595 486.0 61.3
580(13) 0.00584 485.8 52.8
541(12) 0.00648 485.7 46.4
517(12) 0.00717 485.5 41.5
557(13) 0.00622 485.3 37.6
529(12) 0.00642 485.2 34.4
510(12) 0.00673 485.0 31.7
522(12) 0.00652 484.8 29.4
504(12) 0.00735 484.7 27.4
514(12) 0.00688 484.5 25.6
514(12) 0.00657 484.3 24.1
508(12) 0.00670 484.2 22.7
500(12) 0.00697 484.0 21.6
501(12) 0.00743 483.8 20.5
500(12) 0.00715 483.7 19.6
524(13) 0.00636 483.5 18.7
468(11) 0.00759 483.3 18.0
505(12) 0.00692 483.2 17.3
509(12) 0.00731 483.0 16.7
486(12) 0.00745 482.8 16.2
500(12) 0.00683 482.7 15.7
521(12) 0.00659 482.5 15.3
502(12) 0.00710 482.3 14.9
491(12) 0.00752 482.2 14.6
501(12) 0.00684 482.0 14.3
480(12) 0.00703 481.8 14.1
498(12) 0.00703 481.7 13.8
492(12) 0.00743 481.5 13.7
501(12) 0.00729 481.3 13.5
530(12) 0.00659 481.2 13.4
493(12) 0.00680 481.0 13.3
466(11) 0.00761 480.8 13.2
489(11) 0.00758 480.7 13.1
473(11) 0.00792 480.5 13.1
489(12) 0.00713 480.3 13.1
452(12) 0.00716 480.2 13.1
459(11) 0.00765 480.0 13.2
477(11) 0.00779 479.8 13.2
455(11) 0.00824 479.7 13.3
493(12) 0.00710 479.5 13.4
497(12) 0.00659 479.3 13.5
522(12) 0.00654 479.2 13.7
511(12) 0.00727 479.0 13.9
480(11) 0.00770 478.8 14.1
482(12) 0.00738 478.7 14.3
499(12) 0.00644 478.5 14.5
470(12) 0.00746 478.3 14.8
480(11) 0.00778 478.2 15.1
478(11) 0.00762 478.0 15.4
504(12) 0.00672 477.8 15.8
507(13) 0.00639 477.7 16.2
502(12) 0.00697 477.5 16.6
495(12) 0.00754 477.3 17.1
501(12) 0.00727 477.2 17.5
485(12) 0.00721 477.0 18.0
481(12) 0.00715 476.8 18.6
509(12) 0.00678 476.7 19.2
476(11) 0.00781 476.5 19.9
480(12) 0.00751 476.3 20.7
483(12) 0.00700 476.2 21.5
489(12) 0.00673 476.0 22.3
459(11) 0.00773 475.9 23.3
498(12) 0.00747 475.7 24.3
487(12) 0.00732 475.5 25.4
492(12) 0.00684 475.4 26.7
490(12) 0.00707 475.2 28.0
477(12) 0.00745 475.0 29.4
493(12) 0.00754 474.9 31.0
509(12) 0.00711 474.7 32.8
486(12) 0.00691 474.5 34.7
483(12) 0.00745 474.4 36.8
543(12) 0.00664 474.2 39.2
456(11) 0.00814 474.0 41.8
522(12) 0.00671 473.9 44.7
511(12) 0.00664 473.7 47.9
542(13) 0.00637 473.5 51.6
553(12) 0.00649 473.4 55.8
539(12) 0.00685 473.2 60.7
520(12) 0.00685 473.0 66.3
538(13) 0.00623 472.9 73.1
569(13) 0.00617 472.7 81.3
576(13) 0.00632 472.5 91.6
596(13) 0.00621 472.4 104.7
566(13) 0.00616 472.2 121.6
568(13) 0.00575 472.0 143.7
607(13) 0.00574 471.9 172.5
673(14) 0.00548 471.7 209.9
707(14) 0.00518 471.5 257.7
723(14) 0.00489 471.4 317.8
815(16) 0.00391 471.2 391.6
890(16) 0.00385 471.0 479.6
990(16) 0.00376 470.9 581.5
1125(17) 0.003284 470.7 695.1
1259(19) 0.002824 470.5 816.5
1437(21) 0.002253 470.4 938.8
1552(21) 0.002179 470.2 1052.0
1630(21) 0.002268 470.0 1142.9
1716(22) 0.002110 469.9 1197.8
1753(23) 0.001950 469.7 1206.8
1637(22) 0.002008 469.5 1168.2
1499(21) 0.002332 469.4 1089.9
1392(19) 0.002661 469.2 985.0
1310(19) 0.002761 469.0 867.3
1185(19) 0.002919 468.9 747.9
1096(18) 0.003057 468.7 634.8
969(17) 0.00359 468.5 532.9
907(16) 0.00406 468.4 445.1
883(16) 0.00404 468.2 372.7
893(16) 0.00381 468.0 315.9
820(15) 0.00418 467.9 274.2
797(15) 0.00437 467.7 247.2
791(15) 0.00466 467.5 234.7
787(15) 0.00448 467.4 236.7
751(15) 0.00454 467.2 254.0
796(15) 0.00422 467.0 287.3
838(16) 0.00415 466.9 337.2
871(15) 0.00427 466.7 403.7
954(17) 0.00367 466.5 484.6
1025(17) 0.003302 466.4 575.8
1132(18) 0.003003 466.2 669.9
1179(18) 0.002984 466.0 755.3
1317(19) 0.002804 465.9 816.8
1430(21) 0.002371 465.7 839.6
1377(20) 0.002394 465.6 816.8
1333(20) 0.002560 465.4 753.6
1244(19) 0.002858 465.2 664.1
1069(17) 0.003490 465.1 563.5
967(17) 0.003474 464.9 463.9
854(16) 0.00381 464.7 372.7
749(15) 0.00452 464.6 294.3
688(14) 0.00530 464.4 230.1
649(13) 0.00576 464.2 179.8
605(13) 0.00594 464.1 141.7
600(13) 0.00556 463.9 113.7
570(13) 0.00610 463.7 93.4
509(12) 0.00732 463.6 78.7
543(12) 0.00672 463.4 67.9
535(12) 0.00661 463.2 59.9
508(13) 0.00628 463.1 53.6
486(12) 0.00720 462.9 48.6
507(12) 0.00721 462.7 44.4
499(12) 0.00750 462.6 40.9
515(12) 0.00692 462.4 37.8
483(12) 0.00686 462.2 35.1
486(12) 0.00715 462.1 32.7
489(12) 0.00756 461.9 30.6
477(11) 0.00775 461.7 28.7
484(12) 0.00734 461.6 26.9
476(12) 0.00695 461.4 25.8
500(12) 0.00724 461.2 24.3
516(12) 0.00716 461.1 23.1
467(11) 0.00774 460.9 21.9
464(11) 0.00768 460.7 20.8
500(12) 0.00656 460.6 19.8
476(12) 0.00738 460.4 18.9
473(11) 0.00785 460.2 18.0
458(11) 0.00794 460.1 17.3
454(12) 0.00755 459.9 16.5
482(12) 0.00688 459.7 15.8
483(12) 0.00723 459.6 15.2
492(11) 0.00757 459.4 14.6
471(11) 0.00771 459.2 14.1
486(12) 0.00706 459.1 13.6
457(12) 0.00754 458.9 13.1
467(12) 0.00752 458.7 12.6
484(11) 0.00765 458.6 12.2
463(12) 0.00756 458.4 11.8
486(12) 0.00709 458.2 11.4
502(12) 0.00673 458.1 11.0
454(11) 0.00794 457.9 10.7
476(11) 0.00782 457.7 10.4
496(12) 0.00681 457.6 10.1
481(12) 0.00662 457.4 9.8
442(12) 0.00753 457.2 9.5
478(11) 0.00757 457.1 9.2
464(11) 0.00807 456.9 9.0
468(12) 0.00719 456.7 8.7
462(12) 0.00729 456.6 8.5
479(12) 0.00729 456.4 8.3
455(11) 0.00814 456.2 8.1
455(11) 0.00822 456.1 7.9
503(12) 0.00682 455.9 7.7
478(12) 0.00679 455.7 7.5
489(12) 0.00713 455.6 7.4
460(11) 0.00808 455.4 7.2
480(11) 0.00760 455.3 7.0
469(12) 0.00739 455.1 6.9
490(12) 0.00646 454.9 6.7
453(11) 0.00759 454.8 6.6
463(11) 0.00800 454.6 6.5
461(11) 0.00814 454.4 6.3
472(12) 0.00746 454.3 6.2
474(12) 0.00683 454.1 6.1
458(11) 0.00769 453.9 6.0
461(11) 0.00811 453.8 5.9
451(11) 0.00807 453.6 5.9
455(11) 0.00762 453.4 5.8
485(12) 0.00650 453.3 5.7
450(11) 0.00773 453.1 5.6
453(11) 0.00813 452.9 5.5
436(11) 0.00853 452.8 5.4
483(12) 0.00714 452.6 5.3
446(12) 0.00747 452.4 5.3
434(11) 0.00798 452.3 5.2
470(11) 0.00792 452.1 5.1
452(11) 0.00810 451.9 5.0
419(11) 0.00806 451.8 5.0
438(12) 0.00754 451.6 4.9
425(11) 0.00809 451.4 4.8
468(11) 0.00793 451.3 4.8
446(11) 0.00786 451.1 4.8
468(12) 0.00736 450.9 4.7
469(12) 0.00737 450.8 4.7
480(12) 0.00715 450.6 4.6
456(11) 0.00820 450.4 4.6
469(12) 0.00754 450.3 4.5
460(11) 0.00760 450.1 4.5
450(11) 0.00769 449.9 4.4
440(11) 0.00830 449.8 4.4
441(11) 0.00835 449.6 4.4
466(12) 0.00746 449.4 4.3
458(12) 0.00747 449.3 4.3
428(11) 0.00832 449.1 4.2
452(11) 0.00798 448.9 4.2
459(11) 0.00815 448.8 4.2
477(12) 0.00709 448.6 4.1
460(12) 0.00737 448.4 4.1
452(11) 0.00794 448.3 4.1
436(11) 0.00841 448.1 4.0
482(11) 0.00775 448.0 4.0
450(12) 0.00755 447.9 4.0
462(12) 0.00704 447.7 4.0
440(11) 0.00798 447.6 4.0
479(11) 0.00765 447.5 3.9
487(11) 0.00760 447.4 3.9
466(12) 0.00755 447.3 3.9
448(12) 0.00737 447.2 3.9
424(11) 0.00809 447.1 3.9
457(11) 0.00811 447.0 3.9
471(11) 0.00779 446.9 3.8
457(11) 0.00761 446.8 3.8
437(12) 0.00749 446.7 3.8
462(11) 0.00764 446.6 3.8
466(11) 0.00795 446.5 3.8
436(11) 0.00827 446.4 3.8
425(11) 0.00799 446.3 3.8
442(11) 0.00758 446.2 3.8
437(11) 0.00800 446.1 3.8
436(11) 0.00859 446.0 3.8
423(11) 0.00860 445.9 3.8
441(11) 0.00774 445.8 3.8
426(11) 0.00774 445.7 3.9
420(11) 0.00804 445.6 3.9
424(11) 0.00872 445.5 3.9
442(11) 0.00820 445.4 3.9
445(11) 0.00785 445.3 3.9
441(11) 0.00786 445.2 3.9
468(12) 0.00740 445.1 3.9
453(11) 0.00814 445.0 3.9
472(12) 0.00750 444.9 4.0
460(12) 0.00746 444.8 4.0
448(11) 0.00775 444.7 4.0
439(11) 0.00815 444.6 4.1
451(11) 0.00823 444.5 4.1
482(12) 0.00730 444.4 4.1
425(11) 0.00808 444.3 4.2
457(12) 0.00742 444.2 4.2
458(11) 0.00790 444.0 4.3
439(11) 0.00842 443.9 4.4
428(11) 0.00821 443.8 4.4
464(12) 0.00715 443.7 4.5
433(11) 0.00796 443.6 4.6
468(11) 0.00760 443.5 4.7
484(11) 0.00771 443.4 4.9
466(12) 0.00749 443.3 5.0
412(11) 0.00821 443.2 5.2
447(11) 0.00775 443.1 5.4
440(11) 0.00819 443.0 5.6
439(11) 0.00849 442.9 5.9
432(11) 0.00805 442.8 6.2
452(12) 0.00730 442.7 6.6
479(12) 0.00695 442.6 7.2
443(11) 0.00831 442.5 7.9
434(11) 0.00861 442.4 9.1
448(11) 0.00763 442.3 11.0
445(12) 0.00742 442.2 14.3
481(12) 0.00713 442.1 19.6
492(12) 0.00751 442.0 27.9
483(11) 0.00770 441.9 40.1
473(12) 0.00738 441.8 56.2
516(13) 0.00601 441.7 75.4
525(12) 0.00653 441.6 95.4
556(12) 0.00663 441.5 112.5
600(13) 0.00622 441.4 121.7
558(13) 0.00639 441.3 119.6
526(12) 0.00649 441.2 107.1
516(12) 0.00676 441.1 88.5
519(12) 0.00719 441.0 68.4
463(11) 0.00791 440.9 50.2
466(11) 0.00758 440.8 35.6
493(12) 0.00656 440.7 24.9
472(12) 0.00738 440.6 17.8
466(11) 0.00803 440.5 13.4
454(11) 0.00803 440.3 10.8
460(12) 0.00749 440.2 9.2
437(11) 0.00771 440.1 8.3
450(11) 0.00763 440.0 7.7
451(11) 0.00817 439.9 7.3
457(11) 0.00796 439.8 6.9
464(12) 0.00750 439.7 6.7
443(11) 0.00773 439.6 6.5
449(11) 0.00781 439.5 6.4
454(11) 0.00816 439.4 6.3
469(11) 0.00761 439.3 6.2
410(11) 0.00856 439.2 6.1
450(12) 0.00732 439.1 6.1
457(12) 0.00748 439.0 6.0
438(11) 0.00854 438.9 6.0
428(11) 0.00772 438.8 6.0
461(12) 0.00716 438.7 6.0
452(12) 0.00752 438.6 6.1
430(11) 0.00836 438.5 6.1
456(11) 0.00813 438.4 6.1
455(11) 0.00762 438.3 6.2
445(11) 0.00773 438.2 6.3
459(12) 0.00749 438.1 6.3
422(11) 0.00864 438.0 6.4
429(11) 0.00869 437.9 6.5
451(11) 0.00766 437.8 6.6
422(11) 0.00780 437.7 6.7
453(11) 0.00764 437.6 6.9
469(11) 0.00784 437.5 7.0
423(11) 0.00871 437.4 7.2
457(12) 0.00744 437.3 7.3
447(12) 0.00716 437.2 7.5
435(11) 0.00810 437.1 7.7
448(11) 0.00834 437.0 7.9
441(11) 0.00836 436.9 8.1
440(11) 0.00793 436.8 8.4
440(12) 0.00727 436.7 8.6
424(11) 0.00820 436.5 8.9
449(11) 0.00821 436.4 9.2
439(11) 0.00849 436.3 9.6
442(11) 0.00804 436.2 10.0
464(12) 0.00687 436.1 10.4
431(11) 0.00809 436.0 10.8
450(11) 0.00832 435.9 11.3
455(11) 0.00794 435.8 11.9
474(12) 0.00724 435.7 12.5
468(12) 0.00702 435.6 13.3
477(12) 0.00714 435.5 14.1
470(11) 0.00786 435.4 15.0
421(11) 0.00892 435.3 16.1
466(12) 0.00756 435.2 17.5
475(12) 0.00692 435.1 19.2
438(11) 0.00792 435.0 21.3
456(11) 0.00814 434.9 24.0
430(11) 0.00821 434.8 27.5
459(12) 0.00733 434.7 32.0
477(12) 0.00727 434.6 37.9
473(12) 0.00728 434.5 45.3
485(11) 0.00764 434.4 54.7
503(12) 0.00720 434.3 66.1
515(12) 0.00659 434.2 79.8
543(13) 0.00624 434.1 95.6
548(12) 0.00647 434.0 113.2
566(12) 0.00662 433.9 132.1
549(13) 0.00635 433.8 151.1
565(13) 0.00620 433.7 168.9
584(13) 0.00597 433.6 183.5
603(13) 0.00592 433.5 192.6
660(13) 0.00561 433.4 194.7
656(14) 0.00520 433.3 189.5
651(14) 0.00497 433.2 177.9
579(13) 0.00596 433.1 161.9
577(13) 0.00619 433.0 143.8
530(12) 0.00701 432.8 125.1
532(12) 0.00649 432.7 107.3
525(12) 0.00647 432.6 91.0
512(12) 0.00677 432.5 76.8
483(12) 0.00753 432.4 64.8
461(11) 0.00817 432.3 54.9
489(12) 0.00715 432.2 47.1
494(12) 0.00649 432.1 41.1
497(12) 0.00672 432.0 36.6
447(11) 0.00826 431.9 33.4
450(11) 0.00829 431.8 31.1
471(12) 0.00748 431.7 29.5
471(12) 0.00704 431.6 28.6
465(11) 0.00766 431.5 28.1
480(12) 0.00752 431.4 28.1
452(11) 0.00827 431.3 28.4
457(12) 0.00742 431.2 29.0
446(12) 0.00744 431.1 30.0
467(12) 0.00737 431.0 31.3
451(11) 0.00822 430.9 33.0
472(11) 0.00775 430.8 35.2
451(11) 0.00775 430.7 37.8
448(12) 0.00745 430.6 41.0
458(12) 0.00745 430.5 44.8
507(12) 0.00731 430.4 49.2
501(12) 0.00724 430.3 54.4
484(12) 0.00711 430.2 60.3
487(12) 0.00667 430.1 66.9
497(12) 0.00694 430.0 74.4
498(12) 0.00739 429.9 82.7
502(12) 0.00708 429.8 91.7
515(12) 0.00667 429.7 101.4
527(13) 0.00637 429.6 111.7
550(13) 0.00632 429.5 122.4
610(13) 0.00602 429.4 133.3
613(13) 0.00586 429.3 144.2
607(13) 0.00555 429.2 154.5
584(13) 0.00584 429.0 164.0
604(13) 0.00573 428.9 172.0
609(13) 0.00614 428.8 178.1
660(14) 0.00526 428.7 181.9
670(14) 0.00486 428.6 182.9
616(13) 0.00556 428.5 181.3
621(13) 0.00578 428.4 177.0
625(13) 0.00593 428.3 170.5
589(13) 0.00584 428.2 162.1
589(13) 0.00571 428.1 152.4
561(13) 0.00624 428.0 142.0
562(13) 0.00635 427.9 131.1
570(12) 0.00649 427.8 120.2
556(13) 0.00623 427.7 109.6
539(13) 0.00637 427.6 99.4
521(12) 0.00667 427.5 89.9
503(12) 0.00731 427.4 81.1
526(12) 0.00701 427.3 73.0
483(12) 0.00712 427.2 65.7
471(12) 0.00689 427.1 59.2
505(12) 0.00677 427.0 53.4
476(11) 0.00778 426.9 48.4
473(11) 0.00790 426.8 44.0
482(12) 0.00722 426.7 40.3
485(12) 0.00682 426.6 37.1
447(11) 0.00807 426.5 34.4
463(11) 0.00803 426.4 32.1
478(11) 0.00778 426.3 30.3
456(12) 0.00755 426.2 28.7
440(12) 0.00749 426.1 27.4
453(11) 0.00770 426.0 26.4
467(11) 0.00792 425.9 25.5
463(11) 0.00793 425.8 24.9
441(11) 0.00797 425.7 24.4
419(11) 0.00784 425.6 24.0
427(11) 0.00799 425.5 23.8
439(11) 0.00854 425.3 23.8
445(11) 0.00805 425.2 23.9
436(11) 0.00796 425.1 24.1
450(12) 0.00749 425.0 24.5
454(11) 0.00763 424.9 25.1
441(11) 0.00846 424.8 25.8
439(11) 0.00821 424.7 26.7
430(11) 0.00816 424.6 27.8
470(12) 0.00689 424.5 29.0
454(12) 0.00743 424.4 30.3
459(11) 0.00808 424.3 31.7
480(12) 0.00747 424.2 33.1
438(11) 0.00773 424.1 34.5
459(12) 0.00727 424.0 35.7
416(11) 0.00834 423.9 36.6
436(11) 0.00850 423.8 37.3
437(11) 0.00810 423.7 37.5
429(11) 0.00778 423.6 37.5
395(11) 0.00880 423.5 37.3
447(11) 0.00760 423.4 37.0
464(11) 0.00800 423.3 36.6
403(11) 0.00872 423.2 36.3
455(12) 0.00722 423.1 36.0
438(11) 0.00791 423.0 35.9
459(11) 0.00772 422.9 35.9
454(11) 0.00816 422.8 36.1
447(11) 0.00773 422.7 36.4
440(12) 0.00750 422.6 36.8
448(11) 0.00790 422.5 37.4
451(11) 0.00807 422.4 38.2
467(11) 0.00798 422.3 39.0
439(11) 0.00794 422.2 39.9
471(12) 0.00681 422.1 40.9
466(12) 0.00743 422.0 41.9
460(11) 0.00780 421.9 43.0
455(11) 0.00820 421.8 44.2
458(11) 0.00758 421.7 45.4
451(12) 0.00699 421.5 46.8
438(11) 0.00777 421.4 48.2
438(11) 0.00839 421.3 49.8
438(11) 0.00838 421.2 51.6
475(12) 0.00718 421.1 53.5
467(12) 0.00683 421.0 55.8
479(12) 0.00731 420.9 58.3
495(12) 0.00744 420.8 61.3
462(11) 0.00811 420.7 64.6
475(12) 0.00729 420.6 68.5
495(12) 0.00657 420.5 72.9
459(11) 0.00757 420.4 78.1
479(11) 0.00780 420.3 84.1
485(12) 0.00754 420.2 91.0
477(12) 0.00721 420.1 98.9
478(12) 0.00688 420.0 108.0
518(12) 0.00645 419.9 118.4
515(12) 0.00722 419.8 130.2
532(12) 0.00684 419.7 143.6
539(13) 0.00634 419.6 158.7
528(13) 0.00634 419.5 175.6
537(12) 0.00656 419.4 194.4
580(13) 0.00640 419.3 215.2
615(13) 0.00598 419.2 238.0
623(13) 0.00559 419.1 262.7
651(14) 0.00525 419.0 289.4
699(14) 0.00488 418.9 317.9
704(14) 0.00530 418.8 348.1
746(15) 0.00472 418.7 379.6
771(15) 0.00448 418.6 412.2
810(15) 0.00418 418.5 445.2
838(15) 0.00418 418.4 478.3
873(15) 0.00429 418.3 510.5
937(16) 0.00373 418.2 541.1
969(17) 0.00352 418.1 568.9
986(17) 0.00354 418.0 593.0
988(17) 0.00361 417.8 612.3
1002(16) 0.00370 417.7 625.8
986(17) 0.003455 417.6 632.9
951(17) 0.00352 417.5 633.1
973(17) 0.00354 417.4 626.7
954(16) 0.00377 417.3 613.9
897(16) 0.00414 417.2 595.6
848(16) 0.00404 417.1 572.8
867(16) 0.00371 417.0 546.6
808(15) 0.00434 416.9 518.2
841(15) 0.00437 416.8 488.4
813(15) 0.00459 416.7 458.3
756(15) 0.00464 416.6 428.5
770(15) 0.00422 416.5 399.8
774(15) 0.00447 416.4 372.4
746(14) 0.00493 416.3 346.9
691(14) 0.00541 416.2 323.4
689(14) 0.00516 416.1 302.2
693(15) 0.00464 416.0 283.2
669(14) 0.00518 415.9 266.6
666(13) 0.00557 415.8 252.3
652(13) 0.00562 415.7 240.2
643(14) 0.00535 415.6 230.0
640(14) 0.00501 415.5 221.6
627(13) 0.00549 415.4 214.6
635(13) 0.00580 415.3 208.8
642(13) 0.00582 415.2 203.7
609(13) 0.00578 415.1 198.9
632(14) 0.00522 415.0 194.1
673(14) 0.00510 414.9 189.1
649(13) 0.00577 414.8 183.6
628(13) 0.00581 414.7 177.5
614(13) 0.00564 414.6 171.0
615(14) 0.00535 414.5 164.0
600(13) 0.00561 414.4 156.9
560(12) 0.00668 414.3 149.7
592(13) 0.00607 414.1 142.6
551(13) 0.00616 414.0 135.8
540(13) 0.00628 413.9 129.2
562(13) 0.00614 413.8 123.0
538(12) 0.00694 413.7 117.2
539(12) 0.00673 413.6 111.7
518(12) 0.00661 413.5 106.8
515(12) 0.00671 413.4 102.2
512(12) 0.00689 413.3 98.0
559(12) 0.00662 413.2 94.1
501(12) 0.00686 413.1 90.6
511(12) 0.00663 413.0 87.4
489(12) 0.00706 412.9 84.4
505(12) 0.00707 412.8 81.6
514(12) 0.00718 412.7 79.0
488(12) 0.00715 412.6 76.6
448(11) 0.00764 412.5 74.3
474(12) 0.00718 412.4 72.0
467(11) 0.00774 412.3 69.9
461(11) 0.00804 412.2 67.8
501(12) 0.00687 412.1 65.8
503(12) 0.00655 412.0 63.8
494(12) 0.00710 411.9 61.8
465(11) 0.00795 411.8 59.8
438(11) 0.00835 411.7 57.9
447(12) 0.00748 411.6 56.0
462(12) 0.00710 411.5 54.2
479(12) 0.00729 411.4 52.3
461(11) 0.00800 411.3 50.5
455(11) 0.00817 411.2 48.8
450(11) 0.00766 411.1 47.0
438(12) 0.00723 411.0 45.3
436(11) 0.00775 410.9 43.7
444(11) 0.00840 410.8 42.0
436(11) 0.00832 410.7 40.5
445(11) 0.00779 410.6 38.9
476(12) 0.00676 410.5 37.4
444(11) 0.00777 410.3 36.0
444(11) 0.00835 410.2 34.6
434(11) 0.00850 410.1 33.2
420(11) 0.00832 410.0 31.9
441(12) 0.00730 409.9 30.7
435(11) 0.00800 409.8 29.4
427(11) 0.00871 409.7 28.3
404(11) 0.00901 409.6 27.2
427(11) 0.00788 409.5 26.1
405(11) 0.00824 409.4 25.1
422(11) 0.00821 409.3 24.1
417(11) 0.00889 409.2 23.1
421(11) 0.00869 409.1 22.2
420(11) 0.00790 409.0 21.4
422(11) 0.00788 408.9 20.5
425(11) 0.00813 408.8 19.8
412(11) 0.00900 408.7 19.0
422(11) 0.00849 408.6 18.3
430(11) 0.00801 408.5 17.6
417(11) 0.00803 408.4 17.0
398(11) 0.00896 408.3 16.4
430(11) 0.00865 408.2 15.8
422(11) 0.00861 408.1 15.3
427(11) 0.00805 408.0 14.8
443(11) 0.00787 407.9 14.3
433(11) 0.00830 407.8 13.8
419(11) 0.00894 407.7 13.4
432(11) 0.00786 407.6 12.9
411(11) 0.00794 407.5 12.5
411(11) 0.00831 407.4 12.2
424(11) 0.00837 407.3 11.8
402(10) 0.00922 407.2 11.5
392(11) 0.00879 407.1 11.2
414(11) 0.00807 407.0 10.8
408(11) 0.00849 406.9 10.6
389(10) 0.00939 406.8 10.3
402(10) 0.00928 406.6 10.0
417(11) 0.00815 406.5 9.8
405(11) 0.00821 406.4 9.5
426(11) 0.00820 406.3 9.3
399(10) 0.00924 406.2 9.1
390(10) 0.00953 406.1 8.9
401(11) 0.00889 406.0 8.7
394(11) 0.00858 405.9 8.5
415(11) 0.00836 405.8 8.3
408(11) 0.00900 405.7 8.1
397(10) 0.00938 405.6 8.0
393(11) 0.00870 405.5 7.8
429(12) 0.00732 405.4 7.6
390(11) 0.00900 405.3 7.5
408(10) 0.00908 405.2 7.3
416(11) 0.00891 405.1 7.2
403(11) 0.00857 405.0 7.1
422(12) 0.00751 404.9 6.9
415(11) 0.00801 404.8 6.8
391(10) 0.00942 404.7 6.7
398(10) 0.00932 404.6 6.6
442(11) 0.00818 404.5 6.4
425(11) 0.00797 404.4 6.3
396(11) 0.00869 404.3 6.2
386(10) 0.00951 404.2 6.1
406(11) 0.00897 404.1 6.0
406(11) 0.00860 404.0 5.9
389(11) 0.00899 403.9 5.8
393(11) 0.00863 403.8 5.7
376(10) 0.00985 403.7 5.6
385(10) 0.00929 403.6 5.5
408(11) 0.00848 403.5 5.4
414(11) 0.00814 403.4 5.4
408(11) 0.00827 403.3 5.3
395(10) 0.00933 403.2 5.2
417(11) 0.00824 403.1 5.1
410(11) 0.00816 403.0 5.0
404(11) 0.00835 402.8 5.0
401(11) 0.00859 402.7 4.9
345(10) 0.01072 402.6 4.8
386(11) 0.00866 402.5 4.7
389(11) 0.00860 402.4 4.7
389(10) 0.00910 402.3 4.6
419(11) 0.00854 402.2 4.5
399(10) 0.00933 402.1 4.5
411(11) 0.00837 402.0 4.4
423(11) 0.00761 401.9 4.4
392(10) 0.00909 401.8 4.3
401(10) 0.00919 401.7 4.2
400(10) 0.00924 401.6 4.2
396(11) 0.00869 401.5 4.1
388(11) 0.00852 401.4 4.1
393(11) 0.00874 401.3 4.0
392(10) 0.00932 401.2 4.0
398(10) 0.00925 401.1 3.9
386(10) 0.00910 401.0 3.9
399(11) 0.00826 400.9 3.8
404(11) 0.00860 400.8 3.8
402(10) 0.00918 400.7 3.7
403(10) 0.00921 400.6 3.7
402(11) 0.00852 400.5 3.6
400(11) 0.00782 400.4 3.6
398(11) 0.00868 400.3 3.5
388(10) 0.00935 400.2 3.5
399(10) 0.00929 400.1 3.5
439(12) 0.00750 400.0 3.4
389(11) 0.00856 399.9 3.4
396(11) 0.00892 399.8 3.3
387(10) 0.00949 399.7 3.3
384(10) 0.00944 399.6 3.3
394(11) 0.00894 399.5 3.2
357(10) 0.00974 399.4 3.2
407(11) 0.00849 399.3 3.2
384(10) 0.00963 399.1 3.1
405(11) 0.00901 399.0 3.1
380(10) 0.00943 398.9 3.0
406(11) 0.00814 398.8 3.0
393(11) 0.00856 398.7 3.0
405(10) 0.00913 398.6 2.9
401(11) 0.00900 398.5 2.9
391(11) 0.00881 398.4 2.9
407(11) 0.00806 398.3 2.9
429(11) 0.00793 398.2 2.8
404(10) 0.00919 398.1 2.8
418(11) 0.00856 398.0 2.8
421(11) 0.00798 397.9 2.7
397(11) 0.00864 397.8 2.7
377(10) 0.00946 397.7 2.7
380(10) 0.00982 397.6 2.7
377(10) 0.00924 397.5 2.6
420(11) 0.00774 397.4 2.6
396(11) 0.00856 397.3 2.6
375(10) 0.00948 397.2 2.6
392(10) 0.00947 397.1 2.5
390(10) 0.00912 397.0 2.5
374(10) 0.00930 396.9 2.5
410(11) 0.00818 396.8 2.5
391(10) 0.00923 396.7 2.5
399(10) 0.00931 396.6 2.5
391(10) 0.00910 396.5 2.4
398(11) 0.00844 396.4 2.4
390(11) 0.00888 396.3 2.4
387(10) 0.00949 396.3 2.4
391(10) 0.00947 396.2 2.4
384(10) 0.00923 396.1 2.3
394(11) 0.00830 396.0 2.3
391(11) 0.00899 395.9 2.3
381(10) 0.00983 395.8 2.3
391(10) 0.00959 395.7 2.3
381(10) 0.00956 395.6 2.3
398(11) 0.00807 395.5 2.2
408(11) 0.00851 395.4 2.2
400(10) 0.00926 395.3 2.2
368(10) 0.01015 395.2 2.2
387(11) 0.00885 395.2 2.2
421(11) 0.00767 395.1 2.2
407(11) 0.00878 395.0 2.1
411(10) 0.00908 394.9 2.1
357(10) 0.01041 394.8 2.1
406(11) 0.00863 394.7 2.1
380(11) 0.00899 394.6 2.1
370(10) 0.00934 394.5 2.1
410(10) 0.00911 394.4 2.1
396(10) 0.00914 394.3 2.0
368(10) 0.00957 394.2 2.0
387(11) 0.00868 394.1 2.0
415(11) 0.00812 394.1 2.0
375(10) 0.00997 394.0 2.0
372(10) 0.00963 393.9 2.0
388(11) 0.00881 393.8 2.0
384(11) 0.00901 393.7 1.9
378(10) 0.00907 393.6 1.9
388(10) 0.00954 393.5 1.9
371(10) 0.00968 393.4 1.9
382(10) 0.00910 393.3 1.9
365(10) 0.00926 393.2 1.9
370(10) 0.00957 393.1 1.9
387(10) 0.00961 393.0 1.9
384(10) 0.00919 393.0 1.8
374(10) 0.00922 392.9 1.8
376(10) 0.00917 392.8 1.8
355(10) 0.01001 392.7 1.8
364(10) 0.01010 392.6 1.8
382(11) 0.00879 392.5 1.8
388(11) 0.00841 392.4 1.8
397(11) 0.00837 392.3 1.8
355(10) 0.01017 392.2 1.8
393(10) 0.00939 392.1 1.8
378(11) 0.00888 392.0 1.7
364(10) 0.00945 392.0 1.7
394(11) 0.00866 391.9 1.7
380(10) 0.00977 391.8 1.7
395(10) 0.00923 391.7 1.7
373(10) 0.00926 391.6 1.7
365(10) 0.00941 391.5 1.7
384(10) 0.00928 391.4 1.7
411(11) 0.00889 391.3 1.7
403(10) 0.00918 391.2 1.7
403(11) 0.00850 391.1 1.7
383(11) 0.00855 391.0 1.7
415(11) 0.00814 390.9 1.6
419(11) 0.00886 390.9 1.6
384(10) 0.00966 390.8 1.6
393(10) 0.00921 390.7 1.6
369(11) 0.00890 390.6 1.6
405(11) 0.00858 390.5 1.6
365(10) 0.01017 390.4 1.6
378(10) 0.00981 390.3 1.6
391(11) 0.00883 390.2 1.6
383(11) 0.00898 390.1 1.6
373(10) 0.00970 390.0 1.6
373(10) 0.00986 389.9 1.6
391(10) 0.00913 389.8 1.6
390(11) 0.00901 389.8 1.6
388(11) 0.00864 389.7 1.6
361(10) 0.00969 389.6 1.6
364(10) 0.01009 389.5 1.6
386(10) 0.00940 389.4 1.6
367(10) 0.00951 389.3 1.6
388(11) 0.00838 389.2 1.6
387(11) 0.00884 389.1 1.5
364(10) 0.01029 389.0 1.5
363(10) 0.01005 388.9 1.5
375(10) 0.00915 388.8 1.5
376(11) 0.00877 388.7 1.5
388(11) 0.00892 388.7 1.5
357(10) 0.01040 388.6 1.5
362(10) 0.00975 388.5 1.5
361(10) 0.00983 388.4 1.5
379(11) 0.00883 388.3 1.5
373(10) 0.00936 388.2 1.5
395(10) 0.00945 388.1 1.5
390(11) 0.00902 388.0 1.5
377(11) 0.00905 387.9 1.5
392(11) 0.00859 387.8 1.5
372(10) 0.00984 387.7 1.5
379(10) 0.00977 387.6 1.6
359(10) 0.00955 387.6 1.6
374(11) 0.00884 387.5 1.6
382(11) 0.00906 387.4 1.6
376(10) 0.00969 387.3 1.6
393(10) 0.00934 387.2 1.6
381(10) 0.00919 387.1 1.6
369(11) 0.00882 387.0 1.6
376(10) 0.00947 386.9 1.6
382(10) 0.00964 386.8 1.6
373(10) 0.00998 386.7 1.6
380(10) 0.00945 386.6 1.7
380(11) 0.00868 386.5 1.7
365(10) 0.00953 386.5 1.7
354(10) 0.01045 386.4 1.7
375(10) 0.00972 386.3 1.8
372(10) 0.00944 386.2 1.8
370(11) 0.00901 386.1 1.8
380(10) 0.00950 386.0 1.9
382(10) 0.00976 385.9 1.9
372(10) 0.01002 385.8 2.0
375(10) 0.00929 385.7 2.1
377(11) 0.00845 385.6 2.2
390(11) 0.00877 385.5 2.3
368(10) 0.01001 385.5 2.4
386(10) 0.00929 385.4 2.7
366(10) 0.00978 385.3 3.0
372(11) 0.00907 385.2 3.5
378(10) 0.00938 385.1 4.4
389(10) 0.00951 385.0 5.6
370(10) 0.01000 384.9 7.5
424(11) 0.00816 384.8 9.9
398(11) 0.00854 384.7 13.0
399(11) 0.00842 384.6 16.6
404(10) 0.00912 384.5 20.2
420(11) 0.00851 384.4 23.2
391(11) 0.00879 384.4 24.8
416(11) 0.00786 384.3 24.4
402(11) 0.00868 384.2 22.2
394(10) 0.00933 384.1 18.9
352(10) 0.00998 384.0 15.2
394(11) 0.00879 383.9 11.8
412(11) 0.00823 383.8 9.0
393(11) 0.00870 383.7 6.8
370(10) 0.01002 383.6 5.2
353(10) 0.00973 383.5 4.1
361(10) 0.00926 383.4 3.4
379(11) 0.00892 383.3 3.0
412(11) 0.00880 383.3 2.7
375(10) 0.00992 383.2 2.5
362(10) 0.00950 383.1 2.4
372(11) 0.00871 383.0 2.3
356(10) 0.00975 382.9 2.3
369(10) 0.00972 382.8 2.2
368(10) 0.01017 382.7 2.2
385(11) 0.00897 382.6 2.1
354(10) 0.00935 382.5 2.1
385(11) 0.00888 382.4 2.1
383(10) 0.00957 382.3 2.1
361(10) 0.01015 382.2 2.1
384(10) 0.00913 382.2 2.1
383(11) 0.00864 382.1 2.1
383(11) 0.00899 382.0 2.1
378(10) 0.00958 381.9 2.1
343(10) 0.01087 381.8 2.1
400(11) 0.00890 381.7 2.1
387(11) 0.00850 381.6 2.2
370(10) 0.00957 381.5 2.2
373(10) 0.00999 381.4 2.2
371(10) 0.00988 381.3 2.3
364(10) 0.00999 381.2 2.3
397(11) 0.00833 381.1 2.4
400(11) 0.00852 381.1 2.4
360(10) 0.01035 381.0 2.5
369(10) 0.01000 380.9 2.5
384(11) 0.00875 380.8 2.6
375(11) 0.00876 380.7 2.7
376(10) 0.00944 380.6 2.7
353(10) 0.01056 380.5 2.8
375(10) 0.00947 380.4 2.9
372(10) 0.00934 380.3 3.0
386(11) 0.00877 380.2 3.1
355(10) 0.00993 380.1 3.2
379(10) 0.00983 380.0 3.3
392(10) 0.00933 380.0 3.4
364(10) 0.00978 379.9 3.5
337(10) 0.01024 379.8 3.6
364(10) 0.00964 379.7 3.8
385(10) 0.00968 379.6 3.9
388(11) 0.00865 379.5 4.1
382(11) 0.00885 379.4 4.2
403(11) 0.00831 379.3 4.4
399(11) 0.00898 379.2 4.5
360(10) 0.01045 379.1 4.7
386(10) 0.00910 379.0 4.9
373(10) 0.00921 378.9 5.1
391(11) 0.00870 378.9 5.2
386(10) 0.00935 378.8 5.4
372(10) 0.00997 378.7 5.6
401(11) 0.00851 378.6 5.8
371(10) 0.00919 378.5 6.0
380(10) 0.00909 378.4 6.2
368(10) 0.00982 378.3 6.4
396(10) 0.00935 378.2 6.6
380(10) 0.00944 378.1 6.8
388(11) 0.00855 378.0 7.0
391(11) 0.00889 377.9 7.2
395(10) 0.00920 377.9 7.4
376(10) 0.01002 377.8 7.6
396(11) 0.00849 377.7 7.8
385(11) 0.00842 377.6 8.0
395(10) 0.00909 377.5 8.1
387(10) 0.00969 377.4 8.3
383(10) 0.00972 377.3 8.4
412(11) 0.00830 377.2 8.5
375(11) 0.00859 377.1 8.7
407(11) 0.00811 377.0 8.7
386(10) 0.00971 376.9 8.8
381(10) 0.00974 376.8 8.9
386(11) 0.00884 376.8 8.9
400(11) 0.00807 376.7 8.9
387(11) 0.00906 376.6 9.0
388(10) 0.00954 376.5 8.9
381(10) 0.00963 376.4 8.9
391(11) 0.00895 376.3 8.9
390(11) 0.00826 376.2 8.8
383(11) 0.00885 376.1 8.8
395(10) 0.00923 376.0 8.7
401(10) 0.00911 375.9 8.7
375(10) 0.00911 375.8 8.6
352(10) 0.00964 375.7 8.6
372(10) 0.00956 375.7 8.6
385(10) 0.00975 375.6 8.6
386(10) 0.00934 375.5 8.7
396(11) 0.00864 375.4 8.8
357(10) 0.00976 375.3 8.9
403(11) 0.00853 375.2 9.2
410(11) 0.00902 375.1 9.5
396(10) 0.00914 375.0 9.9
374(10) 0.00908 374.9 10.5
376(10) 0.00916 374.8 11.2
382(10) 0.00935 374.7 12.0
385(10) 0.00974 374.6 13.0
387(11) 0.00896 374.6 14.1
378(10) 0.00942 374.5 15.3
380(10) 0.00923 374.4 16.5
389(10) 0.00914 374.3 17.8
405(10) 0.00919 374.2 19.0
402(11) 0.00843 374.1 20.0
394(11) 0.00871 374.0 20.7
395(11) 0.00860 373.9 21.0
376(10) 0.00976 373.8 20.9
364(10) 0.01005 373.7 20.4
393(11) 0.00876 373.6 19.6
386(11) 0.00859 373.5 18.4
377(11) 0.00900 373.5 17.2
358(10) 0.01006 373.4 15.9
386(10) 0.00966 373.3 14.7
377(10) 0.00928 373.2 13.5
384(11) 0.00871 373.1 12.5
391(11) 0.00900 373.0 11.6
361(10) 0.00997 372.9 10.9
372(10) 0.01008 372.8 10.4
369(10) 0.00954 372.7 10.0
377(11) 0.00880 372.6 9.8
386(10) 0.00945 372.5 9.7
390(10) 0.00940 372.4 9.7
370(10) 0.01013 372.4 9.9
369(10) 0.00924 372.3 10.1
361(10) 0.00911 372.2 10.4
398(11) 0.00884 372.1 10.7
403(10) 0.00929 372.0 11.1
391(10) 0.00927 371.9 11.5
377(10) 0.00924 371.8 11.9
380(11) 0.00865 371.7 12.3
389(11) 0.00876 371.6 12.7
400(10) 0.00923 371.5 13.0
393(10) 0.00930 371.4 13.3
411(11) 0.00858 371.4 13.4
377(11) 0.00905 371.3 13.5
391(10) 0.00910 371.2 13.4
417(11) 0.00885 371.1 13.3
382(10) 0.00942 371.0 13.0
382(10) 0.00923 370.9 12.7
372(10) 0.00948 370.8 12.2
372(10) 0.00942 370.7 11.7
354(10) 0.01048 370.6 11.2
364(10) 0.00992 370.5 10.6
415(11) 0.00784 370.4 10.0
401(11) 0.00853 370.3 9.5
385(11) 0.00906 370.3 8.9
384(10) 0.00978 370.2 8.3
359(10) 0.00974 370.1 7.8
365(11) 0.00905 370.0 7.2
374(10) 0.00921 369.9 6.7
395(11) 0.00889 369.8 6.3
369(10) 0.01003 369.7 5.8
365(10) 0.00969 369.6 5.4
349(10) 0.00984 369.5 5.1
324(10) 0.01059 369.4 4.7
348(10) 0.01011 369.3 4.4
358(10) 0.01042 369.2 4.2
359(10) 0.00967 369.2 3.9
342(10) 0.00948 369.1 3.7
346(10) 0.00995 369.0 3.5
372(10) 0.00994 368.9 3.4
354(10) 0.01034 368.8 3.2
356(10) 0.00983 368.7 3.1
379(11) 0.00816 368.6 3.0
356(10) 0.00974 368.5 2.9
358(10) 0.01031 368.4 2.8
358(10) 0.01042 368.3 2.7
347(10) 0.01016 368.2 2.6
383(11) 0.00814 368.1 2.6
369(10) 0.00924 368.1 2.5
358(10) 0.01039 368.0 2.5
355(10) 0.01026 367.9 2.5
352(10) 0.00978 367.8 2.4
347(10) 0.00929 367.7 2.4
343(10) 0.01013 367.6 2.4
376(10) 0.00976 367.5 2.3
382(10) 0.00966 367.4 2.3
354(10) 0.00966 367.3 2.3
329(10) 0.01021 367.2 2.3
373(10) 0.00933 367.1 2.3
375(10) 0.00989 367.0 2.3
354(10) 0.01043 367.0 2.3
358(10) 0.00963 366.9 2.3
356(10) 0.00943 366.8 2.3
372(10) 0.00931 366.7 2.2
356(10) 0.01039 366.6 2.2
332(10) 0.01086 366.5 2.3
354(10) 0.00995 366.4 2.3
358(10) 0.00956 366.3 2.3
353(10) 0.00978 366.2 2.3
349(10) 0.01061 366.1 2.3
341(10) 0.01052 366.0 2.3
382(11) 0.00890 365.9 2.3
364(10) 0.00945 365.9 2.3
349(10) 0.01030 365.8 2.3
357(10) 0.01051 365.7 2.3
378(11) 0.00881 365.6 2.4
351(10) 0.00968 365.5 2.4
339(10) 0.01010 365.4 2.4
369(10) 0.00960 365.3 2.4
395(10) 0.00938 365.2 2.5
381(10) 0.00939 365.1 2.5
388(11) 0.00849 365.1 2.5
337(10) 0.01030 365.0 2.6
372(10) 0.00956 364.9 2.6
370(10) 0.00999 364.9 2.7
362(10) 0.00967 364.8 2.7
350(10) 0.00994 364.8 2.8
343(10) 0.01030 364.7 2.8
351(10) 0.01017 364.7 2.9
359(10) 0.01038 364.6 3.0
359(10) 0.00971 364.5 3.0
387(11) 0.00864 364.5 3.1
356(10) 0.00998 364.4 3.2
378(10) 0.00970 364.4 3.3
372(10) 0.01004 364.3 3.3
373(10) 0.00936 364.3 3.4
370(11) 0.00873 364.2 3.5
366(10) 0.00957 364.1 3.6
368(10) 0.01001 364.1 3.7
343(10) 0.01077 364.0 3.8
349(10) 0.00975 364.0 4.0
355(11) 0.00907 363.9 4.1
373(10) 0.00927 363.9 4.2
367(10) 0.01005 363.8 4.3
364(10) 0.01011 363.7 4.5
351(10) 0.01029 363.7 4.6
384(11) 0.00847 363.6 4.8
363(10) 0.00966 363.6 4.9
370(10) 0.01017 363.5 5.1
353(10) 0.01032 363.5 5.2
366(10) 0.00915 363.4 5.4
342(10) 0.00987 363.3 5.5
371(10) 0.00933 363.3 5.7
369(10) 0.00992 363.2 5.9
353(10) 0.01022 363.2 6.0
347(10) 0.00986 363.1 6.2
381(11) 0.00886 363.1 6.3
361(10) 0.00946 363.0 6.5
335(9) 0.01119 362.9 6.6
356(10) 0.01000 362.9 6.8
335(10) 0.01063 362.8 6.9
353(10) 0.00974 362.8 7.0
365(10) 0.00961 362.7 7.1
338(10) 0.01073 362.6 7.2
352(10) 0.00990 362.6 7.3
383(11) 0.00879 362.5 7.4
373(11) 0.00897 362.5 7.5
350(10) 0.00990 362.4 7.5
349(10) 0.01067 362.4 7.6
374(10) 0.00908 362.3 7.6
372(11) 0.00896 362.2 7.7
387(11) 0.00882 362.2 7.7
353(10) 0.01025 362.1 7.7
360(10) 0.01033 362.1 7.7
352(10) 0.01003 362.0 7.7
351(10) 0.00997 362.0 7.7
349(10) 0.01004 361.9 7.7
354(10) 0.01027 361.8 7.8
377(10) 0.00982 361.8 7.8
368(10) 0.00935 361.7 7.8
347(10) 0.00938 361.7 7.8
348(10) 0.00991 361.6 7.9
361(10) 0.01012 361.6 7.9
366(10) 0.01014 361.5 8.0
360(10) 0.00981 361.4 8.1
369(11) 0.00887 361.4 8.1
372(10) 0.00908 361.3 8.3
354(10) 0.01046 361.3 8.4
356(10) 0.01045 361.2 8.5
364(10) 0.00942 361.2 8.7
379(11) 0.00896 361.1 8.9
369(10) 0.00986 361.0 9.1
346(10) 0.01078 361.0 9.4
350(10) 0.01044 360.9 9.7
338(10) 0.01053 360.9 10.0
363(11) 0.00836 360.8 10.4
344(10) 0.00993 360.8 10.8
371(10) 0.00999 360.7 11.3
378(10) 0.00961 360.6 11.8
369(10) 0.00948 360.6 12.4
374(11) 0.00837 360.5 13.1
352(10) 0.00966 360.5 13.8
349(10) 0.01057 360.4 14.7
360(10) 0.01027 360.3 15.6
364(10) 0.00917 360.3 16.7
362(11) 0.00901 360.2 17.8
348(10) 0.00979 360.2 19.1
360(10) 0.01029 360.1 20.5
388(10) 0.00911 360.1 22.0
399(11) 0.00860 360.0 23.7
360(10) 0.00957 359.9 25.5
388(11) 0.00859 359.9 27.5
383(10) 0.00974 359.8 29.7
369(10) 0.00979 359.8 32.0
414(11) 0.00820 359.7 34.4
382(11) 0.00896 359.7 37.1
374(10) 0.00933 359.6 39.9
403(10) 0.00921 359.5 42.8
384(11) 0.00907 359.5 45.9
367(10) 0.00920 359.4 49.1
407(11) 0.00814 359.4 52.5
379(10) 0.00958 359.3 55.9
406(10) 0.00913 359.3 59.4
439(11) 0.00790 359.2 63.0
419(11) 0.00808 359.1 66.5
444(11) 0.00765 359.1 70.0
434(11) 0.00846 359.0 73.4
442(11) 0.00832 359.0 76.6
433(11) 0.00787 358.9 79.6
433(11) 0.00768 358.9 82.4
433(11) 0.00801 358.8 84.7
452(11) 0.00810 358.7 86.7
462(11) 0.00799 358.7 88.2
446(11) 0.00762 358.6 89.1
432(12) 0.00751 358.6 89.6
439(11) 0.00782 358.5 89.6
460(11) 0.00787 358.5 89.0
426(11) 0.00871 358.4 88.0
428(11) 0.00815 358.3 86.6
442(12) 0.00715 358.3 84.8
423(11) 0.00828 358.2 82.7
434(11) 0.00848 358.2 80.4
418(11) 0.00885 358.1 78.0
425(11) 0.00817 358.0 75.4
422(11) 0.00759 358.0 72.7
444(11) 0.00780 357.9 70.1
414(11) 0.00891 357.9 67.4
416(11) 0.00877 357.8 64.8
414(11) 0.00837 357.8 62.3
392(11) 0.00852 357.7 59.8
417(11) 0.00815 357.6 57.4
401(10) 0.00933 357.6 55.1
395(10) 0.00927 357.5 52.9
430(11) 0.00798 357.5 50.8
389(11) 0.00889 357.4 48.8
428(11) 0.00809 357.4 46.9
411(10) 0.00910 357.3 45.1
391(10) 0.00924 357.2 43.3
399(11) 0.00885 357.2 41.6
391(11) 0.00854 357.1 40.0
377(10) 0.00911 357.1 38.4
391(10) 0.00958 357.0 36.9
401(10) 0.00908 357.0 35.5
406(11) 0.00850 356.9 34.1
382(11) 0.00900 356.8 32.7
364(10) 0.00985 356.8 31.4
378(10) 0.00983 356.7 30.1
377(10) 0.00927 356.7 28.7
370(11) 0.00901 356.6 27.5
398(11) 0.00820 356.6 26.3
365(10) 0.00955 356.5 25.2
352(10) 0.01047 356.4 24.1
385(11) 0.00894 356.4 23.1
360(10) 0.00936 356.3 22.1
379(11) 0.00883 356.3 21.1
357(10) 0.01037 356.2 20.2
389(10) 0.00954 356.2 19.2
362(10) 0.00967 356.1 18.4
371(11) 0.00883 356.0 17.5
376(10) 0.00921 356.0 16.7
364(10) 0.01029 355.9 16.0
367(10) 0.01014 355.9 15.2
369(10) 0.00947 355.8 14.5
378(11) 0.00870 355.8 13.8
352(10) 0.00970 355.7 13.2
358(10) 0.01034 355.6 12.5
349(10) 0.01075 355.6 11.9
397(11) 0.00875 355.5 11.4
362(10) 0.00941 355.5 10.8
399(11) 0.00872 355.4 10.3
387(10) 0.00957 355.3 9.8
366(10) 0.01011 355.3 9.4
354(10) 0.00972 355.2 8.9
349(10) 0.00910 355.2 8.5
339(10) 0.01029 355.1 8.1
353(10) 0.01058 355.1 7.8
373(10) 0.00982 355.0 7.4
371(10) 0.00939 354.9 7.1
372(11) 0.00885 354.9 6.8
367(10) 0.00934 354.8 6.5
344(10) 0.01089 354.8 6.2
368(10) 0.00981 354.7 6.0
352(10) 0.00965 354.7 5.7
368(11) 0.00886 354.6 5.5
385(11) 0.00892 354.5 5.3
348(10) 0.01056 354.5 5.1
350(10) 0.01053 354.4 4.9
357(10) 0.00963 354.4 4.7
343(10) 0.01015 354.3 4.5
372(10) 0.00951 354.3 4.4
362(10) 0.01026 354.2 4.2
367(10) 0.00976 354.1 4.1
337(10) 0.01054 354.1 4.0
367(10) 0.00907 354.0 3.8
370(10) 0.00947 354.0 3.7
350(10) 0.01068 353.9 3.6
309(9) 0.01187 353.9 3.5
332(10) 0.01044 353.8 3.4
378(10) 0.00918 353.7 3.3
360(10) 0.00982 353.7 3.2
322(9) 0.01161 353.6 3.1
359(10) 0.00948 353.6 3.1
361(10) 0.00929 353.5 3.0
359(10) 0.00963 353.5 2.9
351(10) 0.01039 353.4 2.8
357(10) 0.01029 353.3 2.8
363(10) 0.00973 353.3 2.7
359(10) 0.00956 353.2 2.6
361(10) 0.00954 353.2 2.6
351(10) 0.01047 353.1 2.5
362(10) 0.01029 353.0 2.5
328(10) 0.01027 353.0 2.4
311(10) 0.01030 352.9 2.4
339(10) 0.01016 352.9 2.3
346(10) 0.01057 352.8 2.3
362(10) 0.01023 352.8 2.2
346(10) 0.00998 352.7 2.2
322(10) 0.01044 352.6 2.1
340(10) 0.01012 352.6 2.1
346(10) 0.01061 352.5 2.1
366(10) 0.01022 352.5 2.0
359(10) 0.01010 352.4 2.0
365(11) 0.00888 352.4 1.9
348(10) 0.01023 352.3 1.9
347(10) 0.01066 352.2 1.9
377(10) 0.00978 352.2 1.8
373(10) 0.00929 352.1 1.8
343(10) 0.00967 352.1 1.8
346(10) 0.01008 352.0 1.7
349(10) 0.01086 352.0 1.7
345(10) 0.01059 351.9 1.7
333(10) 0.01036 351.8 1.7
331(10) 0.00972 351.8 1.6
330(10) 0.00996 351.7 1.6
347(10) 0.01050 351.7 1.6
340(10) 0.01078 351.6 1.6
364(10) 0.00970 351.6 1.5
361(10) 0.00911 351.5 1.5
341(10) 0.01028 351.4 1.5
344(10) 0.01084 351.4 1.5
361(10) 0.00999 351.3 1.4
347(10) 0.01005 351.3 1.4
336(10) 0.00987 351.2 1.4
324(10) 0.01098 351.2 1.4
343(10) 0.01074 351.1 1.4
337(10) 0.01082 351.0 1.8
353(10) 0.00981 351.0 1.8
336(10) 0.01031 350.9 1.8
359(10) 0.00962 350.9 1.7
315(9) 0.01176 350.8 1.7
373(11) 0.00902 350.7 1.7
349(10) 0.00957 350.7 1.7
350(10) 0.00988 350.6 1.7
349(10) 0.01009 350.6 1.7
342(10) 0.01091 350.5 1.7
326(10) 0.01079 350.5 1.7
339(10) 0.01006 350.4 1.7
331(10) 0.01050 350.3 1.6
356(10) 0.01019 350.3 1.6
374(10) 0.00983 350.2 1.6
330(10) 0.01056 350.2 1.6
333(10) 0.00998 350.1 1.6
339(10) 0.01045 350.1 1.6
357(10) 0.01027 350.0 1.6
365(10) 0.01015 349.9 1.6
355(10) 0.00981 349.9 1.6
348(10) 0.00962 349.8 1.6
351(10) 0.01012 349.8 1.6
344(10) 0.01061 349.7 1.6
347(10) 0.01066 349.7 1.6
350(10) 0.00979 349.6 1.5
344(10) 0.00944 349.5 1.5
352(10) 0.01012 349.5 1.5
347(10) 0.01068 349.4 1.5
328(9) 0.01134 349.4 1.5
351(10) 0.00986 349.3 1.5
347(10) 0.00921 349.3 1.5
333(10) 0.01015 349.2 1.5
335(9) 0.01113 349.1 1.5
385(10) 0.00936 349.2 1.5
339(10) 0.01041 349.2 1.5
351(10) 0.00934 349.2 1.9
343(10) 0.01010 349.3 1.9
346(10) 0.01079 349.3 1.9
343(10) 0.01068 349.3 1.9
338(10) 0.01012 349.3 1.9
365(11) 0.00864 349.4 1.9
337(10) 0.01017 349.4 1.9
347(10) 0.01085 349.4 2.0
325(9) 0.01108 349.5 2.0
339(10) 0.01016 349.5 2.0
351(10) 0.00970 349.5 2.0
345(10) 0.00988 349.6 2.0
359(10) 0.01030 349.6 2.0
377(10) 0.00922 349.6 2.0
342(10) 0.00999 349.7 2.0
351(10) 0.00969 349.7 2.0
339(10) 0.01046 349.7 2.0
341(10) 0.01092 349.8 2.1
332(10) 0.01043 349.8 2.1
339(10) 0.01013 349.8 2.1
351(10) 0.00984 349.8 2.1
364(10) 0.00936 349.9 2.1
360(10) 0.01032 349.9 2.1
352(10) 0.01007 349.9 2.1
357(10) 0.00946 350.0 2.2
361(10) 0.00917 350.0 2.2
335(10) 0.01073 350.0 2.2
327(9) 0.01135 350.1 2.2
334(10) 0.00997 350.1 2.2
335(10) 0.00999 350.1 2.2
331(10) 0.01081 350.2 2.3
362(10) 0.01016 350.2 2.3
376(10) 0.00990 350.2 2.3
352(10) 0.00996 350.3 2.3
359(10) 0.00912 350.3 2.4
338(10) 0.01045 350.3 2.4
361(10) 0.01005 350.4 2.4
313(9) 0.01151 350.4 2.4
345(10) 0.00995 350.4 2.5
349(10) 0.00944 350.4 2.5
358(10) 0.00949 350.5 2.5
367(10) 0.00989 350.5 2.6
357(10) 0.01053 350.5 2.6
368(10) 0.00957 350.6 2.6
354(10) 0.00937 350.6 2.7
363(10) 0.00961 350.6 2.7
333(9) 0.01120 350.7 2.7
356(10) 0.01044 350.7 2.8
330(10) 0.01104 350.7 2.8
336(10) 0.01012 350.8 2.9
330(10) 0.01052 350.8 2.9
338(10) 0.01098 350.8 3.0
329(9) 0.01121 350.9 3.0
354(10) 0.00966 350.9 3.1
357(10) 0.00926 350.9 3.1
364(10) 0.00943 351.0 3.2
365(10) 0.01020 351.0 3.2
362(10) 0.00994 351.0 3.3
348(10) 0.00974 351.0 3.4
332(10) 0.00994 351.1 3.4
361(10) 0.00942 351.1 3.5
355(10) 0.01050 351.1 3.6
350(10) 0.01015 351.2 3.7
341(10) 0.00952 351.2 3.7
330(10) 0.01022 351.2 3.8
350(10) 0.00989 351.3 3.9
368(10) 0.01001 351.3 4.0
341(10) 0.01029 351.3 4.1
322(10) 0.01103 351.4 4.2
361(10) 0.00944 351.4 4.4
339(10) 0.01045 351.4 4.5
349(10) 0.01065 351.5 4.6
347(10) 0.01007 351.5 4.7
367(11) 0.00874 351.5 4.9
333(10) 0.01046 351.6 5.0
355(10) 0.01032 351.6 5.2
358(10) 0.01014 351.6 5.4
363(11) 0.00904 351.6 5.5
357(10) 0.00932 351.7 5.7
353(10) 0.00998 351.7 5.9
344(10) 0.01054 351.7 6.1
335(9) 0.01115 351.8 6.4
348(10) 0.00958 351.8 6.6
339(10) 0.00984 351.8 6.8
329(10) 0.01095 351.9 7.0
368(10) 0.00995 351.9 7.3
361(10) 0.01011 351.9 7.5
361(10) 0.00964 352.0 7.8
344(10) 0.00969 352.0 8.0
348(10) 0.00990 352.0 8.3
362(10) 0.01000 352.1 8.6
374(10) 0.00998 352.1 9.0
371(10) 0.00919 352.1 9.4
384(11) 0.00847 352.1 9.7
343(10) 0.01018 352.2 10.1
354(10) 0.01041 352.2 10.5
351(10) 0.01050 352.2 10.9
358(10) 0.00956 352.3 11.4
354(10) 0.00940 352.3 11.9
379(10) 0.00920 352.3 12.5
366(10) 0.01018 352.4 13.1
380(10) 0.00936 352.4 13.9
389(11) 0.00884 352.4 14.7
374(10) 0.00913 352.5 15.6
383(11) 0.00870 352.5 16.7
356(10) 0.01042 352.5 17.9
384(11) 0.00896 352.6 19.2
364(10) 0.00960 352.6 20.8
361(10) 0.00915 352.6 22.7
376(11) 0.00906 352.7 24.8
390(10) 0.00941 352.7 27.4
401(10) 0.00908 352.7 30.4
391(11) 0.00904 352.7 34.1
412(11) 0.00831 352.8 38.8
427(11) 0.00793 352.8 45.0
439(11) 0.00848 352.8 53.9
442(11) 0.00802 352.9 67.7
493(12) 0.00690 352.9 90.4
519(12) 0.00665 352.9 128.0
573(13) 0.00613 353.0 188.9
640(13) 0.00585 353.0 281.9
778(15) 0.00455 353.0 414.1
898(16) 0.00385 353.1 585.1
1065(18) 0.003206 353.1 783.5
1241(19) 0.002849 353.1 984.5
1455(20) 0.002541 353.2 1145.4
1634(22) 0.002085 353.2 1217.6
1713(23) 0.001953 353.2 1172.8
1483(21) 0.002364 353.3 1029.5
1146(18) 0.003195 353.3 834.1
901(16) 0.00413 353.3 632.2
752(15) 0.00458 353.3 453.1
620(14) 0.00538 353.4 311.8
550(13) 0.00626 353.4 210.2
501(12) 0.00729 353.4 142.6
511(12) 0.00727 353.5 100.4
479(12) 0.00716 353.5 75.1
464(12) 0.00683 353.5 59.8
450(12) 0.00754 353.6 50.3
411(11) 0.00895 353.6 43.8
436(11) 0.00849 353.6 39.2
430(11) 0.00810 353.7 35.6
390(11) 0.00838 353.7 32.7
397(11) 0.00865 353.7 30.4
373(10) 0.00989 353.8 28.5
408(10) 0.00908 353.8 26.9
387(11) 0.00884 353.8 25.7
369(11) 0.00867 353.9 24.6
376(10) 0.00937 353.9 23.8
391(10) 0.00951 353.9 23.1
369(10) 0.00991 353.9 22.6
397(11) 0.00884 354.0 22.2
362(11) 0.00903 354.0 21.9
371(11) 0.00883 354.0 21.7
392(10) 0.00951 354.1 21.7
394(10) 0.00925 354.1 21.7
398(11) 0.00872 354.1 21.8
405(11) 0.00806 354.2 22.1
384(11) 0.00890 354.2 22.3
364(10) 0.01011 354.2 22.7
382(10) 0.00930 354.3 23.2
383(11) 0.00870 354.3 23.8
359(10) 0.00929 354.3 24.4
369(10) 0.00922 354.4 25.1
382(10) 0.00973 354.4 26.0
389(10) 0.00934 354.4 27.0
378(10) 0.00923 354.4 28.0
362(10) 0.00942 354.5 29.3
384(10) 0.00920 354.5 30.6
390(10) 0.00960 354.5 32.2
383(10) 0.00916 354.6 33.9
401(11) 0.00863 354.6 35.9
415(11) 0.00839 354.6 38.2
419(11) 0.00852 354.7 40.8
358(10) 0.01037 354.7 43.9
419(11) 0.00819 354.7 47.5
404(11) 0.00835 354.8 51.9
403(11) 0.00845 354.8 57.0
411(11) 0.00895 354.8 63.3
421(11) 0.00884 354.9 70.8
455(11) 0.00761 354.9 79.9
436(11) 0.00791 354.9 90.8
444(11) 0.00812 355.0 103.9
452(11) 0.00810 355.0 119.6
493(12) 0.00751 355.0 138.1
473(12) 0.00746 355.0 159.7
491(12) 0.00695 355.1 184.7
569(13) 0.00604 355.1 213.1
587(13) 0.00627 355.1 245.1
636(13) 0.00588 355.2 280.4
636(14) 0.00545 355.2 318.7
734(15) 0.00435 355.2 359.4
766(15) 0.00454 355.3 401.5
782(15) 0.00471 355.3 443.6
859(15) 0.00429 355.3 484.1
905(16) 0.00386 355.4 520.6
930(17) 0.003458 355.4 550.6
960(17) 0.00362 355.4 571.6
931(16) 0.00401 355.5 581.4
874(15) 0.00421 355.5 579.1
874(16) 0.00391 355.5 565.2
829(16) 0.00397 355.6 540.9
813(15) 0.00432 355.6 508.8
785(14) 0.00481 355.6 471.6
709(14) 0.00516 355.6 431.7
697(14) 0.00505 355.7 391.4
666(14) 0.00510 355.7 352.7
642(14) 0.00535 355.7 317.4
613(13) 0.00604 355.8 287.7
594(13) 0.00605 355.8 265.8
607(13) 0.00566 355.8 254.7
616(14) 0.00539 355.9 257.0
636(14) 0.00539 355.9 274.6
661(13) 0.00556 355.9 306.5
720(14) 0.00494 356.0 348.4
819(15) 0.00422 356.0 390.8
895(16) 0.00373 356.0 419.8
853(16) 0.00416 356.1 420.6
831(15) 0.00453 356.1 388.6
762(15) 0.00467 356.1 332.8
684(14) 0.00494 356.1 268.0
566(13) 0.00621 356.2 205.9
535(12) 0.00661 356.2 153.7
483(11) 0.00770 356.2 113.9
489(12) 0.00682 356.3 85.8
460(12) 0.00730 356.3 67.2
456(12) 0.00726 356.3 55.1
426(11) 0.00835 356.4 47.3
405(10) 0.00921 356.4 41.9
384(10) 0.00910 356.4 38.0
386(11) 0.00857 356.5 34.9
382(11) 0.00890 356.5 32.3
368(10) 0.00980 356.5 30.1
384(10) 0.00972 356.6 28.1
379(11) 0.00903 356.6 26.4
383(11) 0.00871 356.6 24.9
353(10) 0.01014 356.7 23.5
376(10) 0.00989 356.7 22.3
375(10) 0.00991 356.7 21.1
376(10) 0.00916 356.7 20.1
345(10) 0.00993 356.8 19.2
372(10) 0.00943 356.8 18.3
387(10) 0.00947 356.8 17.5
344(10) 0.01085 356.9 16.8
366(10) 0.00942 356.9 16.1
364(11) 0.00879 356.9 15.5
345(10) 0.00999 357.0 14.9
335(9) 0.01121 357.0 14.3
358(10) 0.01033 357.0 13.8
377(10) 0.00935 357.1 13.4
327(10) 0.01037 357.1 12.9
370(10) 0.00936 357.1 12.5
363(10) 0.01018 357.2 12.1
345(10) 0.01062 357.2 11.8
346(10) 0.01003 357.2 11.4
363(11) 0.00903 357.3 11.1
347(10) 0.00982 357.3 10.8
355(10) 0.01051 357.3 10.5
357(10) 0.01011 357.3 10.3
358(10) 0.00957 357.4 10.0
342(10) 0.00977 357.4 9.8
349(10) 0.00946 357.4 9.6
386(10) 0.00961 357.5 9.4
343(10) 0.01037 357.5 9.2
353(10) 0.00963 357.5 9.0
355(10) 0.00920 357.6 8.8
357(10) 0.00997 357.6 8.7
367(10) 0.01012 357.6 8.5
354(10) 0.01015 357.7 8.4
382(11) 0.00881 357.7 8.2
376(10) 0.00921 357.7 8.1
348(10) 0.01037 357.8 8.0
316(9) 0.01172 357.8 7.9
358(10) 0.00974 357.8 7.8
384(11) 0.00864 357.9 7.7
339(10) 0.01027 357.9 7.6
383(10) 0.00936 357.9 7.5
351(10) 0.01048 357.9 7.4
366(10) 0.00937 358.0 7.3
349(10) 0.00942 358.0 7.3
371(10) 0.00939 358.0 7.2
367(10) 0.00993 358.1 7.2
360(10) 0.01039 358.1 7.1
319(10) 0.01105 358.1 7.1
326(10) 0.01023 358.2 7.0
349(10) 0.00980 358.2 7.0
340(10) 0.01066 358.2 7.0
359(10) 0.01041 358.3 7.0
321(10) 0.01092 358.3 6.9
347(10) 0.00915 358.3 6.9
329(10) 0.01034 358.3 6.9
345(10) 0.01086 358.4 7.3
376(10) 0.00967 358.4 7.3
354(10) 0.00974 358.4 7.3
357(11) 0.00897 358.5 7.3
374(10) 0.00935 358.5 7.3
372(10) 0.00980 358.5 7.4
363(10) 0.01021 358.6 7.4
377(10) 0.00937 358.6 7.4
353(10) 0.00947 358.6 7.5
351(10) 0.00981 358.7 7.5
355(10) 0.01030 358.7 7.6
375(10) 0.01002 358.7 8.0
366(10) 0.00941 358.7 8.1
358(10) 0.00909 358.8 8.1
356(10) 0.00966 358.8 8.2
352(10) 0.01049 358.8 8.3
364(10) 0.01023 358.9 8.4
376(10) 0.00911 358.9 8.5
340(10) 0.01035 358.9 8.7
340(10) 0.01053 359.0 8.8
381(10) 0.00972 359.0 9.0
361(10) 0.01028 359.0 9.1
360(10) 0.00980 359.1 9.3
326(10) 0.01061 359.1 9.5
391(11) 0.00902 359.1 9.7
378(10) 0.00975 359.1 9.9
352(10) 0.01005 359.2 10.1
360(10) 0.00958 359.2 10.4
394(11) 0.00874 359.2 10.7
391(11) 0.00891 359.3 11.0
350(10) 0.01058 359.3 11.3
371(10) 0.00954 359.3 11.7
374(10) 0.00941 359.4 12.2
391(11) 0.00861 359.4 12.7
352(10) 0.01030 359.4 13.2
373(10) 0.00996 359.5 13.9
366(10) 0.00924 359.5 14.6
352(10) 0.00980 359.5 15.4
364(10) 0.00948 359.5 16.4
356(10) 0.00987 359.6 17.6
356(10) 0.01044 359.6 18.9
358(10) 0.00941 359.6 20.4
368(11) 0.00882 359.7 22.2
358(10) 0.00982 359.7 24.3
369(10) 0.01003 359.7 26.6
364(10) 0.01014 359.8 29.2
363(10) 0.00958 359.8 32.2
393(11) 0.00814 359.8 35.5
396(11) 0.00881 359.9 39.1
388(10) 0.00954 359.9 43.1
398(10) 0.00937 359.9 47.3
408(11) 0.00850 359.9 51.8
431(12) 0.00736 360.0 56.4
435(11) 0.00799 360.0 61.1
414(11) 0.00879 360.0 65.7
417(11) 0.00896 360.1 70.1
410(11) 0.00844 360.1 74.0
450(12) 0.00717 360.1 77.3
455(11) 0.00764 360.2 79.7
434(11) 0.00850 360.2 81.1
467(11) 0.00790 360.2 81.5
424(11) 0.00824 360.3 81.0
455(12) 0.00727 360.3 79.3
423(11) 0.00823 360.3 76.9
426(11) 0.00872 360.3 73.9
445(11) 0.00831 360.4 70.5
433(11) 0.00821 360.4 67.0
411(11) 0.00845 360.4 63.5
389(11) 0.00902 360.5 60.2
382(10) 0.00979 360.5 57.0
422(11) 0.00865 360.5 54.2
427(11) 0.00791 360.6 51.7
391(11) 0.00876 360.6 49.7
406(11) 0.00828 360.6 48.0
397(10) 0.00935 360.6 46.8
421(11) 0.00863 360.7 46.1
382(11) 0.00907 360.7 45.9
413(11) 0.00831 360.7 46.1
443(11) 0.00807 360.8 46.9
411(11) 0.00902 360.8 48.2
404(11) 0.00877 360.8 50.2
429(11) 0.00787 360.9 52.7
441(11) 0.00778 360.9 56.0
407(11) 0.00876 360.9 60.1
399(10) 0.00938 361.0 65.1
441(11) 0.00785 361.0 71.0
447(11) 0.00768 361.0 78.0
448(11) 0.00776 361.0 86.0
422(11) 0.00837 361.1 95.2
480(11) 0.00773 361.1 105.7
477(12) 0.00723 361.1 117.3
487(12) 0.00676 361.2 130.1
492(12) 0.00717 361.2 143.9
530(12) 0.00681 361.2 158.6
560(12) 0.00660 361.3 174.0
504(12) 0.00692 361.3 189.6
557(13) 0.00577 361.3 205.0
536(12) 0.00658 361.4 219.6
581(13) 0.00629 361.4 232.6
596(13) 0.00620 361.4 243.3
620(13) 0.00565 361.4 250.8
636(14) 0.00513 361.5 254.6
667(14) 0.00517 361.5 254.3
631(13) 0.00584 361.5 250.0
647(13) 0.00577 361.6 242.0
669(14) 0.00523 361.6 231.1
584(13) 0.00565 361.6 218.1
567(13) 0.00605 361.7 203.8
550(12) 0.00669 361.7 188.8
521(12) 0.00707 361.7 173.7
480(12) 0.00717 361.8 158.9
479(12) 0.00672 361.8 144.8
485(12) 0.00714 361.8 131.7
473(11) 0.00789 361.8 119.5
458(11) 0.00808 361.9 108.4
433(11) 0.00799 361.9 98.5
441(11) 0.00770 361.9 89.7
449(11) 0.00775 362.0 81.9
425(11) 0.00879 362.0 75.1
410(11) 0.00883 362.0 69.3
416(11) 0.00821 362.1 64.2
394(11) 0.00828 362.1 59.8
382(11) 0.00889 362.1 56.1
386(10) 0.00958 362.2 52.8
389(10) 0.00915 362.2 50.0
415(11) 0.00809 362.2 47.8
404(11) 0.00844 362.2 45.6
382(11) 0.00893 362.3 43.7
381(10) 0.00981 362.3 42.0
362(10) 0.00973 362.3 40.4
379(11) 0.00861 362.4 39.0
381(11) 0.00905 362.4 37.7
383(10) 0.00915 362.4 36.5
374(10) 0.00991 362.5 35.4
411(11) 0.00854 362.5 34.3
401(11) 0.00836 362.5 33.3
368(10) 0.00913 362.5 32.4
380(10) 0.00945 362.6 31.5
386(10) 0.00959 362.6 30.7
382(10) 0.00919 362.6 30.0
376(11) 0.00896 362.7 29.2
393(11) 0.00859 362.7 28.6
376(10) 0.00952 362.7 28.0
380(10) 0.00989 362.8 27.4
385(11) 0.00889 362.8 26.9
382(11) 0.00871 362.8 26.4
372(10) 0.00945 362.9 26.0
358(10) 0.01018 362.9 25.6
376(10) 0.00987 362.9 25.3
357(10) 0.00980 362.9 25.0
346(10) 0.00935 363.0 24.8
344(10) 0.01017 363.0 24.6
375(10) 0.00984 363.0 24.5
364(10) 0.01023 363.1 24.5
376(10) 0.00928 363.1 24.5
389(11) 0.00809 363.1 24.6
380(11) 0.00898 363.2 24.8
357(10) 0.01029 363.2 25.1
359(10) 0.01028 363.2 25.4
376(10) 0.00928 363.3 25.9
393(11) 0.00820 363.3 26.5
375(10) 0.00907 363.3 27.3
373(10) 0.00993 363.3 28.4
380(10) 0.00956 363.4 29.8
387(10) 0.00926 363.4 31.6
387(11) 0.00863 363.4 34.0
355(10) 0.00998 363.5 36.9
379(10) 0.00983 363.5 40.3
395(10) 0.00919 363.5 44.1
389(11) 0.00899 363.6 48.0
393(11) 0.00847 363.6 51.8
439(11) 0.00785 363.6 55.6
405(10) 0.00913 363.7 60.1
445(11) 0.00803 363.7 66.2
441(11) 0.00779 363.7 75.0
440(11) 0.00769 363.7 87.6
465(11) 0.00758 363.8 105.2
460(11) 0.00804 363.8 128.6
491(12) 0.00725 363.8 159.1
538(12) 0.00647 363.9 196.9
623(14) 0.00542 363.9 242.5
710(14) 0.00496 363.9 295.0
827(15) 0.00450 364.0 352.8
907(16) 0.00379 364.0 413.2
990(17) 0.003429 364.0 471.3
1097(18) 0.003119 364.1 520.8
1160(18) 0.003070 364.1 554.1
1169(18) 0.003167 364.1 564.9
1126(18) 0.003050 364.1 550.8
1026(17) 0.003301 364.2 515.0
925(16) 0.00369 364.2 463.9
809(15) 0.00452 364.2 405.1
785(15) 0.00471 364.3 344.9
719(14) 0.00476 364.3 287.5
658(14) 0.00516 364.3 235.8
613(13) 0.00583 364.4 191.0
559(12) 0.00665 364.4 153.9
533(12) 0.00699 364.4 124.0
519(12) 0.00670 364.5 100.6
488(12) 0.00680 364.5 82.7
453(11) 0.00759 364.5 69.3
455(11) 0.00803 364.5 59.4
418(11) 0.00887 364.6 52.1
437(11) 0.00805 364.6 46.6
459(12) 0.00671 364.6 42.4
419(11) 0.00828 364.7 39.2
442(11) 0.00835 364.7 36.8
390(10) 0.00955 364.7 34.8
408(11) 0.00852 364.8 33.2
401(11) 0.00817 364.8 32.0
418(11) 0.00818 364.8 31.0
428(11) 0.00854 364.8 30.3
378(10) 0.00977 364.9 29.8
397(11) 0.00879 364.9 29.5
416(11) 0.00793 364.9 29.4
386(11) 0.00860 365.0 29.5
394(10) 0.00942 365.0 29.8
421(11) 0.00874 365.0 30.4
420(11) 0.00840 365.1 31.2
430(11) 0.00762 365.1 32.4
420(11) 0.00846 365.1 34.0
422(11) 0.00883 365.2 36.1
437(11) 0.00819 365.2 38.9
428(11) 0.00823 365.2 42.9
433(11) 0.00806 365.2 48.3
465(12) 0.00744 365.3 56.0
471(11) 0.00787 365.3 66.8
479(12) 0.00738 365.3 81.6
503(12) 0.00675 365.4 101.6
529(12) 0.00649 365.4 127.8
555(13) 0.00637 365.4 161.0
587(13) 0.00636 365.5 201.3
655(14) 0.00549 365.5 248.0
691(14) 0.00502 365.5 299.6
753(15) 0.00443 365.6 352.5
831(15) 0.00428 365.6 401.8
888(15) 0.00416 365.6 440.5
966(17) 0.003506 365.6 461.1
981(17) 0.003454 365.7 459.1
937(16) 0.00375 365.7 434.7
879(16) 0.00415 365.7 393.5
768(14) 0.00485 365.8 343.0
671(14) 0.00504 365.8 289.8
591(13) 0.00575 365.8 238.6
545(12) 0.00641 365.9 192.6
496(12) 0.00742 365.9 153.2
487(11) 0.00767 365.9 121.0
459(11) 0.00774 366.0 95.6
437(11) 0.00775 366.0 76.3
431(11) 0.00816 366.0 62.0
410(11) 0.00893 366.0 51.5
434(11) 0.00854 366.1 43.9
406(11) 0.00853 366.1 38.4
360(11) 0.00900 366.1 34.3
392(11) 0.00881 366.2 31.2
408(11) 0.00889 366.2 28.7
386(10) 0.00962 366.2 26.8
371(10) 0.00939 366.3 25.2
362(10) 0.00931 366.3 23.8
373(10) 0.00935 366.3 22.7
376(10) 0.00981 366.4 21.7
377(10) 0.00980 366.4 20.9
387(11) 0.00883 366.4 20.2
374(11) 0.00870 366.4 19.6
371(10) 0.00916 366.5 19.1
399(10) 0.00921 366.5 18.7
376(10) 0.00968 366.5 18.4
372(10) 0.00933 366.6 18.2
381(11) 0.00850 366.6 18.0
373(11) 0.00902 366.6 18.0
366(10) 0.01010 366.7 17.9
373(10) 0.00950 366.7 18.0
394(11) 0.00862 366.7 18.1
350(10) 0.00977 366.8 18.3
375(10) 0.00923 366.8 18.6
370(10) 0.01008 366.8 19.0
388(10) 0.00929 366.8 19.4
371(10) 0.00942 366.9 20.0
387(11) 0.00879 366.9 20.6
405(11) 0.00837 366.9 21.4
373(10) 0.00993 367.0 22.3
398(11) 0.00872 367.0 23.4
399(11) 0.00862 367.0 24.7
390(11) 0.00881 367.1 26.3
403(11) 0.00855 367.1 28.1
382(10) 0.00982 367.1 30.4
393(10) 0.00911 367.1 33.3
375(10) 0.00921 367.2 37.0
403(11) 0.00842 367.2 42.0
376(10) 0.00981 367.2 48.8
420(11) 0.00887 367.3 58.3
434(11) 0.00794 367.3 71.3
428(11) 0.00797 367.3 89.0
487(12) 0.00722 367.4 112.6
523(12) 0.00698 367.4 143.0
535(12) 0.00696 367.4 180.9
573(13) 0.00622 367.5 226.1
617(14) 0.00539 367.5 277.0
701(14) 0.00506 367.5 331.2
781(15) 0.00470 367.5 383.6
800(15) 0.00461 367.6 427.2
847(16) 0.00415 367.6 453.7
815(16) 0.00403 367.6 456.7
820(15) 0.00426 367.7 435.4
736(14) 0.00504 367.7 395.1
702(14) 0.00527 367.7 344.1
638(14) 0.00545 367.8 289.9
614(14) 0.00533 367.8 238.0
554(12) 0.00650 367.8 191.3
504(12) 0.00738 367.9 151.7
505(12) 0.00731 367.9 119.6
470(12) 0.00741 367.9 94.5
464(12) 0.00713 367.9 75.6
450(11) 0.00775 368.0 61.6
457(11) 0.00811 368.0 51.5
419(11) 0.00869 368.0 44.2
425(11) 0.00797 368.1 38.9
406(11) 0.00815 368.1 35.0
394(11) 0.00859 368.1 32.1
386(10) 0.00950 368.2 29.8
380(10) 0.00970 368.2 28.0
404(11) 0.00874 368.2 26.6
394(11) 0.00885 368.3 25.5
391(11) 0.00872 368.3 24.7
377(10) 0.00970 368.3 24.3
406(11) 0.00878 368.3 24.3
383(11) 0.00893 368.4 24.8
389(11) 0.00884 368.4 26.0
380(10) 0.00944 368.4 28.3
399(10) 0.00926 368.5 31.8
412(11) 0.00891 368.5 36.8
426(11) 0.00825 368.5 43.4
432(11) 0.00792 368.6 51.4
415(11) 0.00855 368.6 60.4
440(11) 0.00844 368.6 69.5
484(12) 0.00720 368.7 77.1
462(12) 0.00709 368.7 81.5
489(12) 0.00694 368.7 81.2
448(11) 0.00796 368.7 76.3
423(11) 0.00879 368.8 68.2
407(11) 0.00843 368.8 58.7
422(11) 0.00790 368.8 49.2
413(11) 0.00858 368.9 40.7
400(10) 0.00928 368.9 33.5
404(10) 0.00919 368.9 28.0
408(11) 0.00849 369.0 23.8
375(11) 0.00897 369.0 20.9
372(10) 0.00959 369.0 18.8
366(10) 0.00994 369.0 17.4
382(10) 0.00980 369.1 16.5
371(10) 0.00963 369.1 15.8
397(11) 0.00822 369.1 15.3
383(10) 0.00927 369.2 15.0
372(10) 0.00985 369.2 14.7
385(10) 0.00955 369.2 14.4
390(11) 0.00906 369.3 14.3
404(11) 0.00760 369.3 14.1
388(11) 0.00873 369.3 14.0
392(10) 0.00936 369.4 13.9
380(10) 0.00957 369.4 13.8
367(10) 0.00984 369.4 13.7
391(11) 0.00829 369.4 13.7
394(11) 0.00863 369.5 13.7
362(10) 0.01035 369.5 13.7
370(10) 0.00979 369.5 13.7
355(10) 0.00986 369.6 13.7
351(10) 0.00940 369.6 13.8
386(11) 0.00889 369.6 13.8
428(11) 0.00878 369.7 13.9
349(10) 0.01033 369.7 13.9
369(10) 0.00941 369.7 14.0
394(11) 0.00809 369.7 14.1
348(10) 0.00989 369.7 14.2
359(10) 0.01024 369.7 14.3
334(10) 0.01096 369.6 14.5
389(11) 0.00868 369.6 14.6
383(11) 0.00845 369.6 14.8
351(10) 0.00999 369.5 15.0
372(10) 0.01004 369.5 15.1
381(10) 0.00909 369.5 15.3
370(10) 0.00941 369.4 15.5
390(11) 0.00859 369.4 15.7
373(10) 0.00968 369.4 16.0
385(10) 0.00974 369.3 16.2
379(11) 0.00878 369.3 16.5
367(10) 0.00929 369.3 16.7
350(10) 0.00988 369.2 17.0
366(10) 0.00989 369.2 17.3
385(10) 0.00956 369.1 17.6
380(10) 0.00914 369.1 18.0
357(10) 0.00935 369.1 18.3
389(11) 0.00867 369.0 18.7
384(10) 0.00917 369.0 19.1
409(10) 0.00910 369.0 19.5
377(10) 0.00911 368.9 19.9
378(11) 0.00872 368.9 20.4
375(10) 0.00932 368.9 20.9
372(10) 0.00979 368.8 21.4
361(10) 0.01023 368.8 21.9
387(11) 0.00859 368.8 22.4
370(11) 0.00877 368.7 23.0
387(11) 0.00887 368.7 23.6
356(10) 0.01046 368.7 24.3
392(10) 0.00923 368.6 25.0
396(11) 0.00878 368.6 25.7
379(11) 0.00838 368.6 26.4
375(10) 0.00920 368.5 27.2
406(11) 0.00892 368.5 28.1
386(10) 0.00962 368.4 29.0
393(11) 0.00886 368.4 30.0
400(11) 0.00820 368.4 31.0
417(11) 0.00829 368.3 32.1
413(11) 0.00899 368.3 33.2
400(10) 0.00913 368.3 34.5
389(11) 0.00901 368.2 35.8
380(11) 0.00880 368.2 37.2
390(11) 0.00876 368.2 38.8
395(10) 0.00948 368.1 40.5
408(11) 0.00887 368.1 42.4
408(11) 0.00843 368.1 44.4
398(11) 0.00830 368.0 46.6
378(10) 0.00916 368.0 49.0
404(11) 0.00906 368.0 51.7
429(11) 0.00840 367.9 54.7
436(11) 0.00765 367.9 58.0
428(11) 0.00767 367.8 61.7
393(11) 0.00887 367.8 65.8
437(11) 0.00851 367.8 70.4
412(11) 0.00853 367.7 75.5
429(11) 0.00810 367.7 81.2
438(11) 0.00778 367.7 87.5
478(12) 0.00713 367.6 94.5
456(11) 0.00815 367.6 102.2
458(11) 0.00768 367.6 110.8
471(12) 0.00714 367.5 120.3
469(12) 0.00730 367.5 130.8
465(11) 0.00773 367.5 142.3
477(11) 0.00782 367.4 154.8
525(13) 0.00640 367.4 168.5
521(12) 0.00645 367.4 183.2
512(12) 0.00660 367.3 199.2
560(13) 0.00622 367.3 216.4
577(13) 0.00634 367.3 234.7
610(13) 0.00558 367.2 254.1
674(15) 0.00476 367.2 274.7
641(14) 0.00536 367.1 296.3
661(13) 0.00551 367.1 318.8
658(13) 0.00556 367.1 342.1
727(14) 0.00477 367.0 366.0
775(15) 0.00417 367.0 390.2
762(15) 0.00449 367.0 414.6
811(15) 0.00449 366.9 438.9
864(15) 0.00422 366.9 462.5
894(16) 0.00384 366.9 485.1
919(17) 0.003486 366.8 506.3
895(16) 0.00391 366.8 525.5
919(16) 0.00394 366.8 542.4
956(16) 0.00382 366.7 556.3
924(16) 0.00378 366.7 567.0
923(17) 0.003507 366.7 574.1
914(16) 0.00381 366.6 577.6
900(16) 0.00415 366.6 577.5
932(16) 0.00393 366.5 573.9
882(16) 0.00398 366.5 567.1
872(16) 0.00375 366.5 557.5
870(16) 0.00390 366.4 545.6
793(15) 0.00473 366.4 531.7
787(15) 0.00465 366.4 516.3
844(16) 0.00409 366.3 499.4
813(16) 0.00403 366.3 481.2
761(15) 0.00463 366.3 461.5
784(15) 0.00471 366.2 440.1
749(14) 0.00488 366.2 417.0
706(14) 0.00494 366.2 392.2
711(15) 0.00461 366.1 366.3
675(14) 0.00512 366.1 339.8
650(13) 0.00573 366.1 313.6
667(14) 0.00532 366.0 288.2
620(13) 0.00560 366.0 264.0
637(14) 0.00533 366.0 241.3
579(13) 0.00625 365.9 220.2
572(12) 0.00657 365.9 201.0
560(13) 0.00636 365.8 183.5
566(13) 0.00592 365.8 167.8
548(13) 0.00622 365.8 153.7
546(12) 0.00652 365.7 141.2
517(12) 0.00725 365.7 130.1
505(12) 0.00694 365.7 120.2
486(12) 0.00723 365.6 111.6
504(12) 0.00696 365.6 104.0
478(12) 0.00747 365.6 97.3
480(11) 0.00786 365.5 91.5
476(12) 0.00716 365.5 86.5
488(12) 0.00674 365.5 82.2
465(12) 0.00747 365.4 78.5
467(11) 0.00778 365.4 75.5
479(11) 0.00776 365.4 73.0
449(11) 0.00793 365.3 71.1
421(11) 0.00765 365.3 69.7
414(11) 0.00820 365.3 68.8
418(11) 0.00865 365.2 68.5
445(11) 0.00832 365.2 68.7
425(11) 0.00818 365.1 69.5
430(12) 0.00751 365.1 70.8
436(11) 0.00806 365.1 72.7
462(11) 0.00809 365.0 75.2
441(11) 0.00837 365.0 78.2
461(12) 0.00750 365.0 81.8
447(12) 0.00726 364.9 86.1
456(12) 0.00756 364.9 90.9
451(11) 0.00823 364.9 96.1
458(11) 0.00795 364.8 101.8
465(12) 0.00751 364.8 107.7
446(12) 0.00735 364.8 113.9
472(12) 0.00735 364.7 120.1
491(12) 0.00751 364.7 126.1
491(12) 0.00745 364.7 131.7
483(12) 0.00728 364.6 136.5
482(12) 0.00691 364.6 140.3
471(12) 0.00753 364.5 142.8
509(12) 0.00727 364.5 143.8
498(12) 0.00725 364.5 143.2
497(12) 0.00674 364.4 141.1
482(12) 0.00692 364.4 137.6
472(12) 0.00720 364.4 132.9
496(12) 0.00745 364.3 127.4
454(11) 0.00794 364.3 121.4
472(12) 0.00724 364.3 115.1
466(12) 0.00735 364.2 108.6
481(12) 0.00719 364.2 102.3
440(11) 0.00845 364.2 96.3
448(11) 0.00798 364.1 90.5
418(11) 0.00827 364.1 85.2
447(12) 0.00754 364.1 80.3
434(11) 0.00828 364.0 75.9
427(11) 0.00873 364.0 72.0
415(11) 0.00840 364.0 68.5
396(11) 0.00881 363.9 65.5
436(11) 0.00759 363.9 62.9
421(11) 0.00856 363.8 60.6
452(11) 0.00826 363.8 58.7
459(12) 0.00755 363.8 57.1
443(11) 0.00762 363.7 55.8
438(11) 0.00783 363.7 54.6
428(11) 0.00844 363.7 53.7
429(11) 0.00864 363.6 52.9
410(11) 0.00834 363.6 52.2
427(11) 0.00779 363.6 51.6
449(11) 0.00777 363.5 51.1
442(11) 0.00830 363.5 50.6
419(11) 0.00878 363.5 50.1
406(11) 0.00842 363.4 49.7
417(11) 0.00763 363.4 49.2
431(11) 0.00795 363.4 48.7
403(10) 0.00924 363.3 48.2
426(11) 0.00862 363.3 47.6
413(11) 0.00855 363.2 47.0
416(11) 0.00757 363.2 46.4
403(11) 0.00868 363.2 45.7
416(11) 0.00896 363.1 45.0
432(11) 0.00852 363.1 44.3
418(11) 0.00807 363.1 43.5
400(11) 0.00814 363.0 42.7
409(11) 0.00839 363.0 41.9
411(11) 0.00898 363.0 41.1
404(11) 0.00905 362.9 40.3
406(11) 0.00852 362.9 39.4
416(11) 0.00788 362.9 38.6
376(10) 0.00927 362.8 37.8
403(10) 0.00927 362.8 37.1
380(10) 0.00945 362.8 36.3
402(11) 0.00868 362.7 35.7
363(10) 0.00956 362.7 35.0
362(10) 0.00952 362.7 34.4
392(10) 0.00942 362.6 33.9
403(11) 0.00896 362.6 33.4
404(11) 0.00852 362.5 33.1
422(11) 0.00796 362.5 32.8
406(11) 0.00874 362.5 32.7
399(10) 0.00930 362.4 32.7
394(11) 0.00892 362.4 32.8
406(11) 0.00850 362.4 33.1
397(11) 0.00875 362.3 33.6
416(11) 0.00832 362.3 34.3
408(11) 0.00905 362.3 35.2
394(11) 0.00898 362.2 36.3
407(11) 0.00819 362.2 37.7
406(11) 0.00848 362.2 39.3
425(11) 0.00838 362.1 41.3
399(10) 0.00935 362.1 43.5
419(11) 0.00830 362.1 46.0
425(11) 0.00801 362.0 48.8
408(11) 0.00853 362.0 51.9
414(11) 0.00882 361.9 55.3
422(11) 0.00889 361.9 58.9
434(11) 0.00809 361.9 62.7
451(11) 0.00764 361.8 66.7
458(11) 0.00771 361.8 70.8
453(11) 0.00807 361.8 74.9
452(11) 0.00832 361.7 78.9
440(11) 0.00794 361.7 82.7
479(12) 0.00669 361.7 86.1
465(12) 0.00736 361.6 89.1
473(11) 0.00769 361.6 91.4
456(11) 0.00809 361.6 92.9
469(12) 0.00707 361.5 93.6
461(12) 0.00692 361.5 93.3
472(12) 0.00727 361.5 92.2
462(11) 0.00800 361.4 90.1
476(11) 0.00774 361.4 87.3
476(12) 0.00743 361.4 83.8
504(13) 0.00632 361.3 79.9
458(11) 0.00772 361.3 75.6
429(11) 0.00872 361.2 71.2
421(11) 0.00870 361.2 66.6
428(11) 0.00824 361.2 62.0
433(11) 0.00777 361.1 57.6
400(11) 0.00894 361.1 53.3
393(10) 0.00957 361.1 49.1
411(11) 0.00871 361.0 45.3
417(11) 0.00841 361.0 41.6
428(11) 0.00763 361.0 38.3
383(10) 0.00921 360.9 35.2
383(10) 0.00976 360.9 32.4
379(10) 0.00961 360.9 29.9
380(10) 0.00941 360.8 27.6
402(11) 0.00820 360.8 25.6
365(10) 0.00921 360.8 23.8
361(10) 0.01035 360.7 22.3
344(10) 0.01053 360.7 20.9
353(10) 0.00976 360.7 19.7
356(10) 0.00939 360.6 18.7
367(10) 0.00963 360.6 17.8
337(10) 0.01102 360.5 17.0
354(10) 0.01026 360.5 16.4
392(11) 0.00838 360.5 15.9
380(11) 0.00896 360.4 15.5
416(11) 0.00828 360.4 15.1
405(10) 0.00922 360.4 14.8
369(10) 0.00918 360.3 14.6
350(10) 0.00967 360.3 14.5
370(10) 0.00932 360.3 14.4
375(10) 0.00993 360.2 14.4
385(10) 0.00971 360.2 14.4
379(11) 0.00884 360.2 14.6
355(10) 0.00908 360.1 14.7
362(10) 0.00949 360.1 15.0
356(10) 0.01049 360.1 15.3
350(10) 0.01046 360.0 15.7
385(11) 0.00894 360.0 16.2
397(11) 0.00843 359.9 16.7
372(10) 0.00949 359.9 17.4
377(10) 0.00981 359.9 18.1
378(10) 0.00990 359.8 19.0
367(10) 0.00967 359.8 19.9
375(11) 0.00881 359.8 20.9
380(10) 0.00932 359.7 22.0
385(10) 0.00969 359.7 23.2
414(11) 0.00904 359.7 24.5
439(11) 0.00788 359.6 25.9
396(11) 0.00821 359.6 27.4
358(10) 0.00982 359.6 28.9
383(10) 0.00969 359.5 30.5
387(10) 0.00953 359.5 32.2
405(11) 0.00860 359.5 33.9
389(11) 0.00863 359.4 35.5
409(11) 0.00863 359.4 37.2
408(11) 0.00907 359.4 38.8
400(10) 0.00927 359.3 40.3
399(11) 0.00883 359.3 41.7
392(11) 0.00861 359.2 42.9
423(11) 0.00823 359.2 43.8
408(10) 0.00914 359.2 44.6
401(11) 0.00890 359.1 45.0
393(11) 0.00868 359.1 45.1
400(11) 0.00832 359.1 45.0
409(11) 0.00852 359.0 44.5
408(10) 0.00913 359.0 43.7
386(11) 0.00906 359.0 42.7
396(11) 0.00873 358.9 41.4
392(11) 0.00867 358.9 40.0
385(11) 0.00902 358.9 38.4
377(10) 0.00986 358.8 36.7
369(10) 0.00962 358.8 35.0
396(11) 0.00851 358.8 33.2
389(11) 0.00841 358.7 31.5
370(10) 0.00921 358.7 29.7
363(10) 0.01038 358.6 28.0
378(10) 0.00930 358.6 26.4
408(11) 0.00818 358.6 24.8
359(10) 0.00981 358.5 23.3
386(10) 0.00953 358.5 21.9
367(10) 0.01012 358.5 20.6
378(10) 0.00912 358.4 19.4
376(11) 0.00885 358.4 18.2
371(10) 0.00932 358.4 17.2
373(10) 0.00966 358.3 16.3
365(10) 0.01012 358.3 15.4
381(11) 0.00889 358.3 14.7
373(11) 0.00867 358.2 14.0
373(10) 0.00963 358.2 13.4
367(10) 0.01017 358.2 12.9
322(9) 0.01148 358.1 12.4
348(10) 0.00985 358.1 12.0
357(11) 0.00871 358.1 11.7
356(10) 0.00959 358.0 11.4
339(10) 0.01085 358.0 11.2
351(10) 0.01058 357.9 11.0
334(10) 0.01053 357.9 10.9
346(11) 0.00902 357.9 10.9
325(10) 0.01070 357.8 10.8
335(9) 0.01112 357.8 10.8
344(10) 0.01072 357.8 10.9
358(10) 0.00998 357.7 11.0
341(10) 0.00973 357.7 11.2
366(10) 0.00940 357.7 11.4
373(10) 0.00987 357.6 11.6
388(10) 0.00951 357.6 11.9
384(11) 0.00891 357.6 12.3
386(11) 0.00846 357.5 12.7
356(10) 0.00945 357.5 13.3
353(10) 0.01057 357.5 14.0
354(10) 0.01005 357.4 14.8
380(11) 0.00901 357.4 15.8
353(10) 0.00965 357.4 17.0
384(11) 0.00880 357.3 18.5
383(10) 0.00978 357.3 20.3
364(10) 0.00997 357.2 22.5
376(11) 0.00902 357.2 25.2
384(11) 0.00891 357.2 28.3
362(10) 0.00987 357.1 32.0
413(11) 0.00902 357.1 36.6
388(11) 0.00905 357.1 41.6
362(10) 0.00947 357.0 47.3
391(11) 0.00840 357.0 53.6
374(10) 0.00929 357.0 60.6
408(10) 0.00913 356.9 68.1
441(11) 0.00789 356.9 76.0
437(11) 0.00763 356.9 84.1
425(11) 0.00818 356.8 92.0
482(12) 0.00732 356.8 99.5
433(11) 0.00856 356.8 106.0
448(11) 0.00780 356.7 111.0
452(11) 0.00759 356.7 114.1
459(12) 0.00739 356.6 114.9
442(11) 0.00811 356.6 113.5
445(11) 0.00842 356.6 110.1
481(12) 0.00699 356.5 105.0
450(12) 0.00745 356.5 98.9
455(11) 0.00758 356.5 92.3
431(11) 0.00838 356.4 85.8
438(11) 0.00860 356.4 80.1
445(11) 0.00781 356.4 75.7
431(11) 0.00766 356.3 73.5
445(11) 0.00801 356.3 74.0
459(11) 0.00822 356.3 77.9
497(12) 0.00732 356.2 85.6
489(12) 0.00682 356.2 96.8
508(13) 0.00631 356.2 110.8
583(13) 0.00581 356.1 125.8
600(13) 0.00612 356.1 138.7
633(13) 0.00589 356.1 145.8
624(13) 0.00568 356.0 144.0
573(13) 0.00570 356.0 133.2
514(12) 0.00692 355.9 116.3
512(12) 0.00726 355.9 96.7
452(11) 0.00804 355.9 77.7
412(11) 0.00844 355.8 60.8
435(12) 0.00755 355.8 47.0
380(10) 0.00937 355.8 36.3
398(10) 0.00937 355.7 28.5
406(11) 0.00886 355.7 23.0
388(10) 0.00917 355.7 19.2
374(10) 0.00922 355.6 16.6
375(10) 0.00934 355.6 14.7
360(10) 0.01036 355.6 13.4
400(11) 0.00902 355.5 12.3
383(11) 0.00897 355.5 11.5
381(11) 0.00857 355.5 10.7
358(10) 0.00971 355.4 10.1
361(10) 0.01035 355.4 9.6
354(10) 0.00996 355.3 9.1
350(10) 0.00960 355.3 8.7
371(11) 0.00873 355.3 8.3
369(10) 0.00950 355.2 8.0
355(10) 0.01045 355.2 7.6
339(10) 0.01022 355.2 7.4
372(11) 0.00895 355.1 7.1
370(10) 0.00920 355.1 6.9
352(10) 0.01014 355.1 6.7
361(10) 0.01017 355.0 6.5
323(10) 0.01052 355.0 6.3
335(10) 0.01032 355.0 6.2
331(10) 0.01071 354.9 6.1
369(10) 0.00974 354.9 5.9
356(10) 0.01056 354.9 5.8
358(10) 0.00962 354.8 5.7
340(10) 0.00959 354.8 5.6
337(10) 0.01050 354.8 5.5
376(10) 0.00943 354.7 5.4
360(10) 0.01040 354.7 5.3
336(10) 0.01012 354.6 5.2
353(10) 0.00940 354.6 5.1
370(10) 0.00954 354.6 5.1
350(10) 0.01035 354.5 5.0
340(10) 0.01095 354.5 5.0
367(10) 0.00948 354.5 4.9
368(11) 0.00860 354.4 4.9
353(10) 0.00998 354.4 4.8
376(10) 0.00960 354.4 4.8
345(10) 0.01064 354.3 4.7
366(10) 0.00962 354.3 4.7
361(11) 0.00884 354.2 4.7
367(10) 0.00922 354.2 4.7
319(9) 0.01164 354.1 4.6
361(10) 0.01032 354.1 4.6
336(10) 0.01060 354.0 4.6
360(10) 0.00924 354.0 4.6
334(10) 0.01062 353.9 4.6
355(10) 0.01054 353.9 4.6
335(10) 0.01089 353.8 4.6
369(10) 0.00947 353.8 4.6
358(10) 0.00931 353.7 4.6
354(10) 0.00972 353.7 4.6
336(10) 0.01102 353.6 4.6
347(10) 0.01020 353.6 4.7
363(10) 0.00921 353.5 4.7
355(10) 0.00966 353.5 4.7
359(10) 0.00953 353.4 4.8
341(10) 0.01099 353.4 4.8
360(10) 0.00989 353.3 4.9
371(10) 0.00945 353.3 4.9
366(10) 0.00964 353.2 5.0
352(10) 0.00994 353.2 5.0
357(10) 0.01036 353.1 5.1
342(10) 0.01034 353.1 5.2
367(10) 0.00909 353.0 5.3
336(10) 0.01027 353.0 5.5
339(10) 0.01019 352.9 5.6
350(10) 0.01077 352.9 5.7
331(10) 0.01042 352.8 5.9
372(11) 0.00895 352.8 6.1
350(10) 0.00998 352.7 6.4
365(10) 0.00986 352.7 6.6
358(10) 0.01044 352.6 6.9
355(10) 0.00979 352.5 7.3
347(10) 0.00970 352.5 7.8
364(10) 0.00940 352.4 8.4
357(10) 0.01017 352.4 9.3
392(10) 0.00947 352.3 10.4
412(11) 0.00837 352.3 12.0
390(11) 0.00842 352.2 14.3
360(10) 0.00971 352.2 17.4
382(10) 0.00959 352.1 21.6
401(10) 0.00929 352.1 27.1
392(11) 0.00901 352.0 33.9
409(11) 0.00846 352.0 42.1
445(11) 0.00770 351.9 51.1
468(11) 0.00791 351.9 60.6
462(11) 0.00790 351.8 69.3
480(12) 0.00743 351.8 75.8
526(13) 0.00589 351.7 78.7
524(12) 0.00662 351.7 77.2
491(12) 0.00755 351.6 71.6
454(11) 0.00811 351.6 63.5
458(12) 0.00753 351.5 54.2
432(12) 0.00747 351.5 45.1
414(11) 0.00841 351.4 36.7
408(10) 0.00911 351.4 29.6
377(10) 0.00977 351.3 23.8
367(10) 0.00943 351.3 19.3
380(11) 0.00863 351.2 16.0
363(10) 0.00954 351.2 13.6
358(10) 0.01042 351.1 11.9
379(10) 0.00977 351.1 10.8
366(10) 0.00955 351.0 10.0
352(10) 0.00958 351.0 9.4
339(10) 0.01004 350.9 9.0
372(10) 0.01002 350.8 8.7
370(10) 0.00940 350.8 8.5
355(10) 0.00961 350.7 8.4
340(10) 0.01014 350.7 8.3
356(10) 0.00993 350.6 8.3
357(10) 0.01039 350.6 8.3
347(10) 0.01013 350.5 8.3
336(10) 0.01028 350.5 8.4
343(10) 0.01022 350.4 8.5
361(10) 0.00992 350.4 8.7
349(10) 0.01063 350.3 8.9
351(10) 0.00996 350.3 9.2
346(10) 0.00977 350.2 9.5
357(10) 0.00936 350.2 9.9
365(10) 0.00989 350.1 10.3
356(10) 0.01048 350.1 10.8
346(10) 0.00975 350.0 11.4
355(10) 0.00945 350.0 12.1
348(10) 0.00978 349.9 12.8
347(10) 0.01052 349.9 13.7
346(10) 0.01083 349.8 14.6
340(10) 0.01044 349.8 15.6
365(11) 0.00895 349.7 16.6
364(10) 0.00973 349.7 17.7
338(10) 0.01092 349.6 18.9
392(10) 0.00947 349.6 20.2
369(10) 0.00947 349.5 21.4
373(11) 0.00867 349.5 22.6
369(10) 0.00950 349.4 23.8
363(10) 0.01025 349.4 25.0
363(10) 0.01020 349.3 26.0
343(10) 0.01017 349.3 26.8
380(11) 0.00816 349.2 27.4
347(10) 0.01038 349.1 27.8
353(10) 0.01066 349.1 27.9
396(10) 0.00915 349.0 27.8
366(10) 0.00972 349.0 27.5
376(11) 0.00871 348.9 27.0
365(10) 0.00916 348.9 26.3
380(10) 0.00967 348.8 25.6
340(10) 0.01096 348.8 24.8
383(11) 0.00902 348.7 24.0
387(11) 0.00874 348.7 23.2
370(10) 0.00955 348.6 22.4
344(10) 0.01075 348.6 21.7
353(10) 0.01034 348.5 21.1
362(10) 0.00966 348.5 20.5
356(10) 0.00958 348.4 20.1
387(11) 0.00880 348.4 19.8
361(10) 0.01031 348.3 19.6
332(10) 0.01074 348.3 19.5
361(10) 0.00973 348.2 19.5
341(10) 0.01014 348.2 19.6
350(10) 0.01010 348.1 19.8
339(10) 0.01087 348.1 20.2
352(10) 0.01013 348.0 20.6
340(10) 0.00997 348.0 21.2
359(10) 0.00933 347.9 21.9
354(10) 0.00983 347.9 22.7
371(10) 0.01005 347.8 23.7
373(10) 0.00943 347.8 24.8
380(11) 0.00871 347.7 26.0
377(11) 0.00903 347.7 27.5
375(10) 0.00934 347.6 29.2
363(10) 0.01018 347.5 31.1
367(10) 0.00918 347.5 33.4
374(11) 0.00893 347.4 36.1
393(11) 0.00880 347.4 39.4
374(10) 0.01003 347.3 43.3
396(10) 0.00938 347.3 48.1
401(11) 0.00877 347.2 54.0
441(12) 0.00731 347.2 61.2
436(11) 0.00804 347.1 70.1
446(11) 0.00824 347.1 80.9
461(11) 0.00810 347.0 94.0
448(11) 0.00764 347.0 109.6
490(12) 0.00675 346.9 128.0
565(13) 0.00611 346.9 149.4
556(12) 0.00661 346.8 173.7
581(13) 0.00635 346.8 200.9
601(13) 0.00589 346.7 230.7
636(14) 0.00505 346.7 262.3
683(14) 0.00508 346.6 294.8
738(14) 0.00508 346.6 326.7
762(14) 0.00485 346.5 356.1
829(15) 0.00420 346.5 380.6
860(16) 0.00376 346.4 397.8
840(16) 0.00416 346.4 405.6
797(15) 0.00463 346.3 403.0
771(15) 0.00466 346.3 390.7
706(14) 0.00491 346.2 370.0
677(14) 0.00491 346.2 343.6
689(14) 0.00507 346.1 313.8
684(14) 0.00542 346.1 282.8
658(13) 0.00550 346.0 252.2
603(13) 0.00572 346.0 223.2
560(13) 0.00602 345.9 196.5
554(13) 0.00632 345.8 172.6
516(12) 0.00719 345.8 151.7
509(12) 0.00716 345.7 133.9
511(12) 0.00666 345.7 118.9
492(12) 0.00678 345.6 106.7
506(12) 0.00673 345.6 96.8
466(11) 0.00797 345.5 89.1
445(11) 0.00822 345.5 83.2
475(12) 0.00716 345.4 78.7
456(11) 0.00771 345.4 75.4
432(11) 0.00834 345.3 73.1
468(11) 0.00783 345.3 71.6
458(11) 0.00760 345.2 70.7
452(12) 0.00729 345.2 70.3
407(11) 0.00853 345.1 70.2
419(11) 0.00863 345.1 70.4
424(11) 0.00877 345.0 70.8
436(11) 0.00797 345.0 71.3
440(11) 0.00775 344.9 72.0
441(11) 0.00793 344.9 72.7
441(11) 0.00833 344.8 73.4
438(11) 0.00849 344.8 74.1
435(11) 0.00807 344.7 74.8
419(11) 0.00786 344.7 75.4
429(11) 0.00812 344.6 75.9
452(11) 0.00797 344.6 76.2
436(11) 0.00851 344.5 76.5
456(11) 0.00769 344.5 76.5
451(12) 0.00704 344.4 76.4
448(11) 0.00763 344.4 76.1
437(11) 0.00820 344.3 75.7
432(11) 0.00867 344.3 75.0
432(11) 0.00805 344.2 74.3
435(11) 0.00760 344.1 73.3
438(11) 0.00791 344.1 72.3
399(10) 0.00931 344.0 71.1
413(11) 0.00904 344.0 69.9
427(11) 0.00801 343.9 68.5
413(11) 0.00766 343.9 67.2
419(11) 0.00814 343.8 65.8
394(10) 0.00939 343.8 64.3
426(11) 0.00865 343.7 62.9
447(11) 0.00783 343.7 61.4
410(11) 0.00823 343.6 60.0
406(11) 0.00851 343.6 58.5
398(10) 0.00931 343.5 57.1
399(10) 0.00926 343.5 55.6
413(11) 0.00835 343.4 54.2
395(11) 0.00843 343.4 52.8
411(11) 0.00841 343.3 51.4
394(10) 0.00932 343.3 49.9
407(11) 0.00884 343.2 48.5
396(11) 0.00882 343.2 47.2
399(11) 0.00838 343.1 45.8
410(11) 0.00844 343.1 44.4
394(10) 0.00943 343.0 43.0
358(10) 0.00993 343.0 41.7
389(11) 0.00877 342.9 40.3
385(11) 0.00852 342.9 39.0
380(10) 0.00930 342.8 37.7
402(10) 0.00926 342.8 36.4
382(10) 0.00941 342.7 35.1
410(11) 0.00830 342.7 33.8
370(10) 0.00929 342.6 32.6
359(10) 0.00971 342.6 31.4
353(10) 0.01052 342.5 30.2
352(10) 0.01010 342.4 29.1
355(10) 0.00969 342.4 27.9
390(11) 0.00851 342.3 26.8
349(10) 0.01048 342.3 25.8
362(10) 0.01031 342.2 24.8
376(10) 0.00919 342.2 23.8
376(11) 0.00862 342.1 22.8
361(10) 0.00951 342.1 21.9
372(10) 0.00982 342.0 21.0
365(10) 0.01026 342.0 20.2
341(10) 0.01011 341.9 19.3
337(10) 0.00982 341.9 18.6
371(11) 0.00898 341.8 17.8
378(10) 0.00976 341.8 17.1
362(10) 0.01017 341.7 16.4
339(10) 0.01032 341.7 15.7
358(11) 0.00886 341.6 15.1
355(10) 0.00948 341.6 14.5
333(9) 0.01118 341.5 13.9
349(10) 0.01027 341.5 13.3
370(10) 0.00911 341.4 12.8
332(10) 0.00975 341.4 12.3
349(10) 0.01000 341.3 11.8
341(10) 0.01083 341.3 11.4
372(10) 0.00994 341.2 11.0
363(10) 0.00927 341.2 10.6
336(10) 0.00944 341.1 10.2
356(10) 0.00965 341.1 9.8
344(10) 0.01079 341.0 9.5
341(10) 0.01093 341.0 9.1
354(10) 0.00984 340.9 8.8
342(10) 0.00972 340.9 8.5
342(10) 0.01043 340.8 8.3
321(9) 0.01134 340.7 8.0
360(10) 0.00999 340.7 7.7
335(10) 0.01048 340.6 7.6
348(10) 0.00923 340.6 7.4
337(10) 0.01008 340.5 7.2
322(9) 0.01149 340.5 7.0
340(10) 0.01049 340.4 6.8
303(9) 0.01151 340.4 6.6
314(10) 0.01049 340.3 6.5
318(9) 0.01109 340.3 6.3
344(10) 0.01090 340.2 6.2
318(9) 0.01122 340.2 6.0
323(10) 0.01083 340.1 5.9
343(10) 0.01021 340.1 5.8
341(10) 0.01022 340.0 5.6
341(10) 0.01095 340.0 5.6
335(10) 0.01037 339.9 5.5
350(10) 0.00955 339.9 5.4
339(10) 0.00992 339.8 5.3
305(9) 0.01209 339.8 5.2
338(10) 0.01085 339.7 5.1
358(10) 0.00958 339.7 5.0
335(10) 0.00988 339.6 4.9
338(10) 0.01021 339.6 4.8
361(10) 0.00993 339.5 4.8
333(9) 0.01117 339.5 4.7
345(10) 0.00967 339.4 4.6
353(10) 0.00952 339.4 4.5
349(10) 0.01007 339.3 4.5
352(10) 0.01045 339.3 4.4
332(10) 0.01107 339.2 4.4
317(9) 0.01111 339.2 4.3
337(10) 0.00988 339.1 4.3
345(10) 0.00993 339.0 4.2
331(10) 0.01085 339.0 4.1
334(9) 0.01111 338.9 4.1
332(10) 0.01046 338.9 4.0
343(10) 0.00927 338.8 4.0
351(10) 0.00979 338.8 3.9
345(10) 0.01066 338.7 3.9
328(9) 0.01142 338.7 3.9
339(10) 0.01055 338.6 3.8
337(10) 0.00958 338.6 3.8
310(9) 0.01162 338.5 3.8
352(10) 0.01051 338.5 3.7
346(10) 0.01068 338.4 3.7
322(10) 0.01094 338.4 3.7
322(10) 0.01009 338.3 3.6
334(10) 0.01031 338.3 3.6
320(9) 0.01149 338.2 3.6
325(10) 0.01093 338.2 3.6
339(10) 0.01000 338.1 3.5
355(10) 0.00926 338.1 3.5
324(10) 0.01064 338.0 3.5
318(9) 0.01161 338.0 3.5
332(10) 0.01045 337.9 3.4
310(9) 0.01134 337.9 3.4
325(10) 0.01039 337.8 3.4
326(10) 0.01096 337.8 3.4
338(9) 0.01113 337.7 3.4
334(10) 0.01075 337.7 3.4
326(10) 0.01081 337.6 3.3
351(10) 0.00970 337.6 3.3
341(10) 0.01029 337.5 3.3
331(9) 0.01131 337.4 3.3
357(10) 0.00956 337.3 3.3
331(10) 0.01040 337.3 3.3
326(10) 0.01061 337.2 3.3
326(10) 0.01100 337.1 3.3
350(10) 0.01057 337.0 3.2
334(10) 0.01032 337.0 3.2
355(10) 0.00942 336.9 3.2
351(10) 0.01002 336.8 3.2
339(10) 0.01065 336.7 3.2
344(10) 0.01084 336.6 3.2
328(10) 0.01049 336.6 3.2
341(10) 0.00989 336.5 3.2
345(10) 0.01015 336.4 3.2
358(10) 0.01032 336.3 3.3
326(9) 0.01142 336.3 3.3
326(10) 0.01096 336.2 3.3
354(10) 0.00909 336.1 3.3
355(10) 0.01005 336.0 3.3
325(9) 0.01136 336.0 3.3
358(10) 0.01037 335.9 3.3
346(10) 0.00998 335.8 3.3
347(11) 0.00901 335.7 3.3
327(10) 0.01073 335.7 3.3
319(9) 0.01156 335.6 3.3
331(9) 0.01112 335.5 3.3
351(10) 0.01013 335.4 3.3
317(10) 0.01072 335.3 3.4
335(10) 0.01055 335.3 3.4
342(10) 0.01076 335.2 3.4
321(9) 0.01143 335.1 3.4
323(9) 0.01112 335.0 3.4
335(10) 0.01010 335.0 3.5
333(10) 0.01064 334.9 3.5
331(9) 0.01120 334.8 3.5
356(10) 0.01040 334.7 3.5
313(9) 0.01118 334.7 3.6
333(10) 0.00963 334.6 3.6
336(10) 0.01036 334.5 3.6
328(9) 0.01127 334.4 3.7
366(10) 0.01016 334.4 3.7
325(9) 0.01118 334.3 3.7
328(10) 0.01070 334.2 3.8
368(10) 0.00915 334.1 3.8
328(9) 0.01138 334.0 3.9
344(10) 0.01038 334.0 3.9
359(10) 0.00949 333.9 4.0
328(10) 0.01082 333.8 4.0
328(10) 0.01105 333.7 4.1
319(9) 0.01165 333.7 4.1
347(10) 0.01016 333.6 4.2
339(10) 0.01057 333.5 4.3
353(10) 0.01003 333.4 4.3
333(10) 0.01075 333.4 4.4
356(10) 0.01040 333.3 4.5
343(10) 0.01016 333.2 4.6
350(10) 0.00972 333.1 4.7
354(10) 0.00970 333.1 4.7
330(10) 0.01090 333.0 4.8
357(10) 0.01030 332.9 4.9
317(9) 0.01141 332.8 5.1
325(10) 0.01047 332.7 5.2
321(10) 0.01103 332.7 5.3
346(10) 0.01065 332.6 5.4
331(9) 0.01118 332.5 5.6
340(10) 0.01029 332.4 5.7
331(10) 0.00989 332.4 5.9
320(10) 0.01090 332.3 6.1
327(10) 0.01106 332.2 6.3
357(10) 0.01047 332.1 6.5
325(10) 0.01086 332.1 6.7
309(10) 0.01076 332.0 6.9
327(10) 0.01050 331.9 7.2
348(10) 0.01054 331.8 7.5
338(10) 0.01073 331.7 7.8
325(10) 0.01096 331.7 8.2
345(10) 0.00921 331.6 8.6
347(10) 0.00950 331.5 9.0
336(10) 0.01102 331.4 9.5
336(9) 0.01109 331.4 10.1
354(10) 0.01002 331.3 10.6
356(10) 0.00909 331.2 11.3
346(10) 0.01006 331.1 12.0
346(10) 0.01077 331.1 12.8
350(10) 0.01057 331.0 13.6
330(10) 0.01037 330.9 14.6
362(11) 0.00867 330.8 15.6
322(10) 0.01056 330.8 16.7
329(9) 0.01132 330.7 17.9
362(10) 0.00989 330.6 19.2
350(10) 0.00981 330.5 20.6
348(10) 0.00957 330.4 22.1
327(10) 0.01090 330.4 23.7
357(10) 0.01037 330.3 25.5
357(10) 0.01009 330.2 27.3
368(10) 0.00926 330.1 29.3
355(10) 0.00968 330.1 31.3
368(10) 0.00988 330.0 33.5
386(10) 0.00966 329.9 35.7
361(10) 0.01008 329.8 38.0
377(11) 0.00895 329.8 40.4
368(11) 0.00902 329.7 42.9
385(10) 0.00923 329.6 45.4
391(10) 0.00959 329.5 47.9
365(10) 0.00988 329.5 50.4
411(11) 0.00807 329.4 52.9
388(11) 0.00902 329.3 55.3
381(10) 0.00952 329.2 57.6
354(10) 0.01039 329.1 59.8
422(11) 0.00817 329.1 61.8
391(11) 0.00869 329.0 63.6
411(11) 0.00832 328.9 65.1
395(10) 0.00912 328.8 66.3
398(10) 0.00947 328.8 67.2
406(11) 0.00825 328.7 67.7
393(11) 0.00824 328.6 67.9
406(11) 0.00852 328.5 67.6
389(10) 0.00951 328.5 67.0
358(10) 0.01020 328.4 66.1
397(11) 0.00889 328.3 64.8
389(11) 0.00841 328.2 63.3
395(11) 0.00874 328.2 61.5
385(10) 0.00963 328.1 59.6
372(10) 0.01001 328.0 57.5
353(10) 0.00975 327.9 55.4
372(11) 0.00847 327.8 53.2
370(10) 0.00966 327.8 51.0
384(10) 0.00949 327.7 48.9
386(10) 0.00951 327.6 47.0
336(10) 0.01033 327.5 45.5
392(11) 0.00814 327.5 44.5
395(11) 0.00851 327.4 44.5
379(10) 0.00983 327.3 46.1
368(10) 0.01007 327.2 49.6
375(10) 0.00917 327.2 55.7
380(11) 0.00857 327.1 64.4
396(11) 0.00898 327.0 75.0
417(10) 0.00908 326.9 86.2
445(11) 0.00794 326.8 95.6
453(12) 0.00744 326.8 100.1
425(11) 0.00778 326.7 97.5
393(11) 0.00875 326.6 88.3
413(11) 0.00901 326.5 75.1
391(10) 0.00933 326.5 60.9
406(11) 0.00826 326.4 47.8
394(11) 0.00866 326.3 37.0
354(10) 0.01012 326.2 28.7
339(10) 0.01082 326.2 22.8
351(10) 0.01045 326.1 18.8
350(10) 0.00975 326.0 16.1
334(10) 0.00998 325.9 14.3
344(10) 0.01039 325.9 12.9
322(9) 0.01154 325.8 11.9
322(10) 0.01103 325.7 11.1
352(10) 0.00937 325.6 10.4
339(10) 0.01012 325.5 9.8
327(10) 0.01044 325.5 9.3
345(10) 0.01087 325.4 8.8
352(10) 0.00994 325.3 8.4
320(10) 0.01064 325.2 8.0
321(10) 0.01059 325.2 7.7
306(9) 0.01195 325.1 7.4
330(9) 0.01136 325.0 7.1
329(10) 0.01052 324.9 6.9
330(10) 0.01002 324.9 6.7
348(10) 0.01001 324.8 6.5
342(10) 0.01075 324.7 6.3
335(9) 0.01120 324.6 6.1
328(10) 0.01082 324.6 6.0
304(10) 0.01052 324.5 5.6
305(9) 0.01142 324.4 5.5
335(9) 0.01123 324.3 5.4
327(9) 0.01117 324.2 5.3
340(10) 0.00993 324.2 5.1
330(10) 0.00975 324.1 5.0
346(10) 0.01006 324.0 5.0
339(10) 0.01107 323.9 4.9
354(10) 0.01045 323.9 4.8
312(9) 0.01133 323.8 4.7
332(10) 0.00979 323.7 4.6
341(10) 0.01038 323.6 4.6
319(9) 0.01170 323.6 4.5
343(10) 0.01051 323.5 4.5
332(10) 0.01066 323.4 4.4
332(10) 0.01015 323.3 4.4
336(10) 0.01030 323.3 4.3
338(10) 0.01098 323.2 4.3
331(10) 0.01101 323.1 4.2
336(10) 0.01052 323.0 4.2
336(10) 0.01019 322.9 4.2
342(10) 0.01045 322.9 4.2
322(9) 0.01157 322.8 4.1
329(10) 0.01058 322.7 4.1
343(10) 0.00959 322.6 4.1
314(10) 0.01045 322.6 4.1
299(9) 0.01156 322.5 4.1
312(9) 0.01199 322.4 4.0
321(9) 0.01154 322.3 4.0
343(10) 0.01049 322.3 4.0
342(10) 0.00998 322.2 4.0
339(10) 0.01066 322.1 4.0
341(10) 0.01096 322.0 4.0
335(10) 0.01059 321.9 4.0
348(10) 0.00981 321.9 4.0
334(10) 0.01041 321.8 4.0
334(10) 0.01086 321.7 4.1
318(9) 0.01155 321.6 4.1
329(10) 0.01042 321.6 4.1
332(10) 0.01022 321.5 4.1
314(10) 0.01095 321.4 4.1
338(10) 0.01076 321.3 4.2
312(9) 0.01200 321.3 4.2
346(10) 0.01018 321.2 4.2
353(10) 0.00933 321.1 4.3
356(10) 0.00975 321.1 4.3
327(9) 0.01140 321.1 4.3
313(9) 0.01183 321.1 4.4
314(10) 0.01105 321.1 4.4
332(10) 0.00999 321.1 4.5
312(9) 0.01129 321.1 4.5
318(9) 0.01157 321.1 4.6
342(10) 0.01072 321.1 4.6
342(10) 0.01020 321.1 4.7
333(10) 0.01016 321.1 4.8
336(10) 0.01036 321.1 4.8
332(9) 0.01124 321.1 4.9
348(10) 0.01055 321.1 5.0
324(10) 0.01080 321.1 5.1
334(10) 0.00969 321.1 5.2
308(9) 0.01150 321.1 5.3
336(10) 0.01107 321.1 5.4
327(9) 0.01127 321.1 5.5
308(9) 0.01172 321.1 5.6
304(10) 0.01105 321.1 5.7
334(10) 0.00997 321.1 5.8
324(9) 0.01151 321.1 6.0
337(10) 0.01061 321.1 6.1
304(9) 0.01170 321.1 6.2
344(10) 0.00944 321.1 6.4
316(9) 0.01127 321.1 6.5
313(9) 0.01191 321.1 6.7
312(9) 0.01168 321.1 6.9
345(10) 0.00979 321.1 7.1
324(10) 0.01044 321.1 7.3
320(10) 0.01097 321.1 7.5
337(10) 0.01100 321.1 7.8
331(10) 0.01096 321.1 8.0
342(10) 0.01005 321.1 8.3
344(10) 0.00995 321.1 8.6
326(10) 0.01074 321.1 8.9
338(10) 0.01105 321.1 9.2
325(10) 0.01069 321.1 9.6
314(10) 0.01064 321.1 10.1
312(9) 0.01128 321.1 10.5
329(10) 0.01094 321.1 11.0
333(9) 0.01124 321.1 11.6
327(10) 0.01052 321.1 12.2
356(11) 0.00899 321.1 13.0
315(10) 0.01081 321.1 13.7
326(9) 0.01108 321.1 14.6
336(10) 0.01097 321.1 15.5
330(10) 0.01067 321.1 16.5
326(10) 0.01017 321.1 17.7
338(10) 0.01039 321.1 18.9
333(9) 0.01118 321.1 20.2
338(10) 0.01096 321.1 21.6
337(10) 0.01044 321.1 23.1
352(10) 0.00950 321.1 24.7
356(10) 0.00993 321.1 26.3
338(10) 0.01082 321.1 28.0
358(10) 0.01039 321.1 29.7
353(10) 0.00941 321.1 31.5
363(11) 0.00874 321.1 33.2
358(10) 0.00976 321.1 34.9
364(10) 0.01010 321.1 36.5
324(9) 0.01145 321.1 37.9
336(10) 0.01083 321.1 39.2
384(11) 0.00815 321.1 40.3
359(10) 0.00966 321.1 41.3
366(10) 0.01017 321.1 42.1
334(9) 0.01111 321.1 42.7
368(10) 0.00962 321.1 43.3
362(11) 0.00886 321.1 43.8
334(10) 0.01058 321.1 44.3
364(10) 0.01019 321.1 44.9
368(10) 0.00992 321.1 45.5
377(10) 0.00915 321.1 46.1
372(11) 0.00885 321.1 46.8
364(10) 0.00935 321.1 47.7
342(10) 0.01097 321.1 48.5
385(10) 0.00922 321.1 49.5
400(11) 0.00851 321.1 50.6
381(11) 0.00866 321.1 52.0
369(10) 0.00926 321.1 53.8
359(10) 0.01034 321.1 56.0
355(10) 0.00998 321.1 58.6
373(10) 0.00918 321.1 61.7
372(10) 0.00912 321.1 65.4
368(10) 0.00970 321.1 69.7
390(10) 0.00958 321.1 74.5
390(10) 0.00920 321.1 79.8
393(11) 0.00882 321.1 85.7
444(11) 0.00756 321.1 92.1
446(11) 0.00818 321.1 98.9
441(11) 0.00841 321.1 106.0
464(11) 0.00771 321.1 113.4
473(12) 0.00716 321.1 120.9
480(12) 0.00715 321.1 128.4
484(12) 0.00718 321.1 135.6
494(11) 0.00764 321.1 142.5
511(12) 0.00662 321.1 148.7
479(12) 0.00704 321.1 154.0
495(12) 0.00705 321.1 158.2
481(11) 0.00765 321.1 161.0
531(12) 0.00694 321.1 162.3
524(12) 0.00659 321.1 162.0
497(12) 0.00667 321.1 160.2
508(12) 0.00669 321.1 156.9
477(11) 0.00777 321.1 152.2
442(11) 0.00840 321.1 146.5
467(12) 0.00744 321.1 139.8
461(12) 0.00711 321.1 132.6
414(11) 0.00867 321.1 124.8
412(11) 0.00882 321.1 116.9
433(11) 0.00858 321.1 108.9
422(11) 0.00810 321.1 101.0
387(11) 0.00839 321.1 93.3
394(11) 0.00874 321.1 85.8
391(10) 0.00955 321.1 78.7
415(11) 0.00880 321.1 72.1
378(10) 0.00929 321.1 65.8
389(11) 0.00847 321.1 60.1
371(10) 0.00913 321.1 54.7
377(10) 0.00975 321.1 49.8
381(10) 0.00948 321.1 45.3
361(10) 0.00971 321.1 41.3
365(10) 0.00915 321.1 37.6
380(10) 0.00943 321.1 34.4
347(10) 0.01065 321.1 31.4
355(10) 0.01014 321.1 28.8
345(10) 0.01020 321.1 26.5
365(10) 0.00919 321.1 24.5
345(10) 0.00999 321.1 22.7
374(10) 0.00983 321.1 21.1
357(10) 0.00994 321.1 19.7
355(10) 0.00970 321.1 18.4
348(10) 0.00960 321.1 17.3
336(10) 0.01053 321.1 16.3
337(10) 0.01094 321.1 15.4
346(10) 0.00966 321.1 14.7
332(10) 0.01024 321.1 13.9
337(10) 0.01015 321.1 13.3
358(10) 0.01002 321.1 12.8
343(10) 0.01079 321.1 12.2
317(10) 0.01096 321.1 11.8
339(10) 0.00981 321.1 11.3
344(10) 0.01015 321.1 10.9
323(9) 0.01135 321.1 10.5
318(9) 0.01154 321.1 10.2
328(10) 0.01034 321.1 9.8
351(10) 0.00927 321.1 9.5
319(10) 0.01074 321.1 9.2
332(10) 0.01093 321.1 9.0
317(9) 0.01164 321.1 8.7
325(10) 0.01036 321.1 8.5
320(10) 0.01048 321.1 8.3
331(10) 0.01043 321.1 8.1
325(9) 0.01116 321.1 7.9
340(10) 0.01067 321.1 7.7
326(10) 0.01070 321.1 7.5
319(10) 0.01061 321.1 7.3
346(10) 0.01019 321.1 7.2
328(9) 0.01141 321.1 7.1
309(9) 0.01199 321.1 6.9
329(10) 0.01008 321.1 6.8
339(10) 0.00915 321.1 6.7
306(9) 0.01158 321.1 6.6
370(10) 0.00997 321.1 6.5
338(10) 0.01080 321.1 6.4
336(10) 0.01043 321.1 6.3
309(10) 0.01100 321.1 6.2
319(10) 0.01086 321.1 6.1
342(10) 0.01078 321.1 6.1
321(9) 0.01162 321.1 6.0
334(10) 0.01055 321.1 5.9
324(10) 0.01011 321.1 5.9
340(10) 0.01020 321.1 5.8
351(10) 0.01062 321.1 5.8
319(9) 0.01149 321.1 5.7
319(10) 0.01071 321.1 5.7
322(10) 0.01002 321.1 5.6
318(10) 0.01071 321.1 5.6
319(9) 0.01170 321.1 5.5
315(9) 0.01157 321.1 5.5
318(10) 0.01108 321.1 5.5
328(10) 0.01044 321.1 5.5
329(10) 0.01099 321.1 5.4
332(9) 0.01112 321.1 5.4
337(10) 0.01060 321.1 5.4
320(10) 0.01098 321.1 5.4
319(10) 0.01104 321.1 5.4
315(9) 0.01156 321.1 5.3
309(9) 0.01201 321.1 5.3
320(10) 0.01100 321.1 5.3
316(10) 0.01090 321.1 5.3
318(10) 0.01097 321.1 5.3
330(10) 0.01092 321.2 5.3
330(9) 0.01117 321.2 5.3
307(9) 0.01117 321.2 5.3
322(10) 0.01054 321.2 5.3
296(9) 0.01176 321.2 5.4
307(9) 0.01137 321.2 5.4
313(9) 0.01178 321.2 5.4
308(9) 0.01159 321.2 5.4
342(10) 0.00962 321.2 5.5
332(10) 0.01052 321.2 5.5
306(9) 0.01204 321.2 5.5
334(9) 0.01114 321.2 5.6
334(10) 0.01007 321.2 5.6
313(10) 0.01086 321.2 5.7
342(10) 0.01032 321.2 5.8
329(10) 0.01097 321.2 5.8
316(9) 0.01178 321.3 5.9
323(10) 0.01082 321.3 6.0
335(10) 0.00973 321.3 6.1
351(10) 0.00985 321.3 6.2
333(9) 0.01123 321.3 6.3
329(9) 0.01118 321.3 6.5
335(10) 0.01026 321.3 6.6
337(10) 0.00953 321.3 6.8
334(10) 0.01056 321.3 6.9
303(9) 0.01210 321.3 7.1
323(9) 0.01140 321.3 7.3
329(10) 0.01069 321.3 7.6
339(10) 0.00976 321.3 7.8
351(10) 0.01011 321.3 8.1
334(9) 0.01114 321.3 8.4
310(9) 0.01175 321.3 8.8
321(10) 0.01032 321.3 9.2
312(10) 0.01094 321.4 9.6
346(10) 0.01003 321.4 10.1
313(9) 0.01195 321.4 10.7
337(10) 0.01017 321.4 11.3
327(10) 0.01054 321.4 12.0
349(10) 0.00949 321.4 12.9
329(10) 0.01033 321.4 13.9
366(10) 0.01007 321.4 15.2
343(10) 0.01048 321.4 16.7
336(10) 0.01044 321.4 18.7
334(10) 0.01043 321.4 21.3
367(10) 0.00932 321.4 24.7
366(10) 0.01010 321.4 29.2
371(10) 0.00958 321.4 35.0
362(10) 0.00941 321.4 42.4
392(11) 0.00853 321.4 51.5
384(11) 0.00906 321.5 62.8
415(11) 0.00891 321.5 76.1
438(11) 0.00801 321.5 91.3
401(11) 0.00841 321.5 107.8
461(12) 0.00739 321.5 124.9
496(12) 0.00728 321.5 141.4
550(12) 0.00674 321.5 155.9
514(12) 0.00689 321.5 167.0
527(12) 0.00642 321.5 173.1
511(12) 0.00674 321.5 173.5
487(12) 0.00743 321.5 168.1
490(11) 0.00764 321.5 157.9
489(12) 0.00694 321.5 144.7
446(12) 0.00748 321.5 130.4
443(11) 0.00762 321.5 116.9
423(11) 0.00869 321.5 105.3
458(11) 0.00805 321.5 96.3
398(10) 0.00915 321.6 90.1
403(11) 0.00825 321.6 86.7
426(11) 0.00803 321.6 85.3
428(11) 0.00865 321.6 85.0
437(11) 0.00853 321.6 84.4
399(11) 0.00906 321.6 82.2
406(11) 0.00803 321.6 77.7
405(11) 0.00869 321.6 71.0
402(10) 0.00927 321.6 63.1
370(10) 0.00988 321.6 54.9
368(10) 0.00953 321.6 47.1
377(11) 0.00867 321.6 40.3
366(10) 0.00966 321.6 34.7
361(10) 0.01024 321.6 30.2
342(10) 0.01071 321.6 26.9
342(10) 0.01036 321.6 24.5
354(10) 0.00929 321.6 23.0
353(10) 0.00982 321.7 22.1
369(10) 0.01003 321.7 21.9
370(10) 0.00976 321.7 22.1
361(10) 0.00951 321.7 22.9
358(10) 0.00919 321.7 24.3
376(11) 0.00894 321.7 26.6
349(10) 0.01065 321.7 29.8
392(10) 0.00913 321.7 34.3
390(11) 0.00888 321.7 40.5
392(11) 0.00875 321.7 48.6
399(11) 0.00897 321.7 58.8
399(10) 0.00930 321.7 71.5
395(11) 0.00907 321.7 86.4
421(11) 0.00793 321.7 103.2
442(11) 0.00789 321.7 121.2
493(12) 0.00726 321.7 139.0
499(12) 0.00742 321.8 154.7
531(12) 0.00668 321.8 166.0
529(13) 0.00624 321.8 170.7
496(12) 0.00707 321.8 167.6
486(12) 0.00740 321.8 157.6
492(11) 0.00765 321.8 142.5
454(11) 0.00758 321.8 124.9
444(11) 0.00759 321.8 106.7
424(11) 0.00819 321.8 89.5
383(10) 0.00972 321.8 74.0
390(10) 0.00957 321.8 60.8
397(11) 0.00831 321.8 49.8
355(10) 0.00934 321.8 41.1
357(10) 0.00970 321.8 34.4
349(10) 0.01032 321.8 29.3
369(10) 0.01004 321.8 25.6
359(10) 0.00964 321.8 22.8
350(10) 0.00930 321.9 20.8
340(10) 0.01001 321.9 19.3
311(9) 0.01187 321.9 18.2
319(9) 0.01167 321.9 17.4
307(9) 0.01119 321.9 16.7
363(11) 0.00850 321.9 16.2
320(9) 0.01117 321.9 15.8
347(10) 0.01068 321.9 15.5
355(10) 0.01028 321.9 15.3
358(10) 0.00963 321.9 15.1
332(10) 0.01019 321.9 15.0
349(10) 0.01002 321.9 15.0
311(9) 0.01200 321.9 14.9
311(9) 0.01179 321.9 14.9
328(10) 0.01069 321.9 15.0
340(10) 0.00977 321.9 15.0
326(10) 0.01077 322.0 15.1
308(9) 0.01206 322.0 15.3
309(9) 0.01184 322.0 15.4
352(10) 0.00957 322.0 15.6
345(10) 0.00955 322.0 15.8
315(9) 0.01111 322.0 16.0
325(9) 0.01137 322.0 16.2
340(10) 0.01070 322.0 16.5
375(11) 0.00883 322.0 16.7
363(11) 0.00906 322.0 17.0
327(10) 0.01087 322.0 17.3
329(9) 0.01126 322.0 17.7
329(10) 0.01099 322.0 18.0
320(10) 0.01102 322.0 18.4
339(10) 0.00997 322.0 18.8
335(10) 0.01062 322.0 19.2
310(9) 0.01195 322.0 19.6
337(10) 0.01060 322.1 20.0
332(10) 0.01033 322.1 20.5
349(10) 0.00969 322.1 21.0
352(10) 0.01040 322.1 21.5
350(10) 0.01058 322.1 22.0
347(10) 0.01004 322.1 22.6
345(10) 0.00994 322.1 23.1
354(10) 0.00999 322.1 23.7
349(10) 0.01033 322.1 24.4
345(10) 0.01069 322.1 25.0
325(10) 0.01089 322.1 25.7
365(11) 0.00892 322.1 26.4
352(10) 0.00974 322.1 27.2
355(10) 0.01048 322.1 28.0
357(10) 0.01039 322.1 28.9
328(10) 0.01044 322.1 29.9
341(10) 0.00967 322.1 31.0
370(10) 0.00934 322.2 32.4
372(10) 0.00978 322.2 34.2
342(10) 0.01106 322.2 36.9
386(11) 0.00895 322.2 41.0
373(11) 0.00885 322.2 47.3
373(11) 0.00884 322.2 56.3
389(10) 0.00954 322.2 68.4
395(10) 0.00947 322.2 82.8
437(11) 0.00799 322.2 97.7
476(12) 0.00657 322.2 110.2
458(12) 0.00746 322.2 116.6
480(11) 0.00772 322.2 114.7
453(11) 0.00799 322.2 105.6
395(11) 0.00888 322.2 92.9
387(11) 0.00822 322.2 80.0
389(11) 0.00858 322.2 68.8
376(10) 0.00977 322.3 60.6
377(10) 0.00962 322.3 55.3
400(11) 0.00856 322.3 52.4
388(11) 0.00850 322.3 51.2
367(10) 0.00929 322.3 50.9
364(10) 0.01009 322.3 51.3
382(10) 0.00943 322.3 52.0
390(11) 0.00884 322.3 52.9
388(11) 0.00876 322.3 54.0
381(11) 0.00903 322.3 55.2
410(11) 0.00901 322.3 56.6
405(11) 0.00866 322.3 58.2
367(10) 0.00936 322.3 60.0
382(11) 0.00901 322.3 62.0
393(10) 0.00909 322.3 64.3
393(10) 0.00931 322.3 66.8
415(11) 0.00847 322.3 69.6
429(11) 0.00760 322.4 72.6
425(11) 0.00804 322.4 75.8
402(11) 0.00880 322.4 79.1
400(10) 0.00924 322.4 82.4
431(11) 0.00810 322.4 85.7
451(12) 0.00725 322.4 88.6
412(11) 0.00840 322.4 91.0
432(11) 0.00826 322.4 92.6
416(11) 0.00884 322.4 93.3
424(11) 0.00795 322.4 92.8
428(11) 0.00772 322.4 91.1
413(11) 0.00807 322.4 88.3
386(10) 0.00941 322.4 84.6
411(11) 0.00905 322.4 80.3
424(11) 0.00820 322.4 75.7
420(11) 0.00767 322.4 70.8
400(11) 0.00858 322.4 66.1
381(10) 0.00977 322.5 61.4
391(10) 0.00935 322.5 57.1
386(11) 0.00891 322.5 53.0
380(11) 0.00836 322.5 49.3
362(10) 0.00961 322.5 45.9
384(10) 0.00967 322.5 42.9
359(10) 0.01017 322.5 40.3
345(10) 0.01016 322.5 38.0
387(11) 0.00835 322.5 36.0
370(10) 0.00960 322.5 34.2
356(10) 0.01054 322.5 32.7
354(10) 0.01043 322.5 31.4
364(10) 0.00932 322.5 30.3
342(10) 0.00943 322.5 29.3
354(10) 0.00975 322.5 28.4
355(10) 0.01047 322.5 27.7
339(10) 0.01068 322.6 27.1
370(10) 0.00907 322.6 26.6
371(11) 0.00860 322.6 26.1
351(10) 0.00942 322.6 25.8
349(10) 0.01066 322.6 25.5
317(9) 0.01148 322.6 25.3
336(10) 0.01019 322.6 25.1
360(10) 0.00907 322.6 25.1
346(10) 0.01012 322.6 25.1
350(10) 0.01059 322.6 25.1
348(10) 0.01049 322.6 25.2
313(9) 0.01114 322.6 25.4
319(10) 0.01103 322.6 25.7
380(11) 0.00902 322.6 26.0
336(10) 0.01107 322.6 26.5
320(10) 0.01097 322.6 26.9
335(10) 0.00998 322.6 27.5
338(10) 0.00982 322.7 28.1
337(10) 0.01056 322.7 28.9
352(10) 0.01059 322.7 29.7
336(10) 0.01039 322.7 30.6
353(10) 0.00945 322.7 31.5
349(10) 0.00968 322.7 32.6
369(10) 0.00968 322.7 33.8
352(10) 0.01051 322.7 35.1
345(10) 0.00982 322.7 36.5
345(10) 0.00934 322.7 38.1
329(10) 0.01048 322.7 39.7
373(10) 0.00987 322.7 41.5
339(10) 0.01092 322.7 43.5
369(10) 0.00930 322.7 45.6
347(10) 0.00972 322.7 47.9
344(10) 0.01044 322.7 50.4
360(10) 0.01008 322.8 53.1
384(10) 0.00957 322.8 56.0
374(10) 0.00928 322.8 59.2
358(10) 0.00912 322.8 62.5
367(10) 0.00941 322.8 66.2
374(10) 0.00995 322.8 70.0
427(11) 0.00876 322.8 74.2
410(11) 0.00862 322.8 78.6
402(11) 0.00788 322.8 83.2
381(10) 0.00909 322.8 88.1
409(10) 0.00907 322.8 93.3
406(10) 0.00908 322.8 98.7
417(11) 0.00842 322.8 104.2
405(11) 0.00778 322.8 110.0
422(11) 0.00801 322.8 115.8
455(11) 0.00822 322.8 121.8
453(11) 0.00817 322.8 127.7
444(11) 0.00787 322.9 133.7
432(12) 0.00754 322.9 139.4
470(12) 0.00721 322.9 145.0
460(11) 0.00807 322.9 150.1
495(12) 0.00747 322.9 154.8
461(12) 0.00742 322.9 158.9
457(12) 0.00741 322.9 162.3
467(11) 0.00758 322.9 164.8
486(11) 0.00761 322.9 166.2
475(11) 0.00757 322.9 166.7
495(12) 0.00691 322.9 166.0
469(12) 0.00734 322.9 164.3
466(12) 0.00752 322.9 161.5
460(11) 0.00811 322.9 157.8
465(11) 0.00766 322.9 153.3
453(11) 0.00760 322.9 148.2
446(12) 0.00747 322.9 142.7
451(11) 0.00780 323.0 136.8
426(11) 0.00868 323.0 130.7
427(11) 0.00830 323.0 124.6
436(11) 0.00763 323.0 118.5
431(11) 0.00772 323.0 112.6
423(11) 0.00854 323.0 106.9
402(10) 0.00914 323.0 101.4
396(11) 0.00881 323.0 96.2
421(11) 0.00787 323.0 91.2
393(11) 0.00866 323.0 86.6
395(10) 0.00912 323.0 82.3
391(10) 0.00947 323.0 78.3
378(11) 0.00893 323.0 74.5
380(11) 0.00853 323.0 71.0
401(11) 0.00845 323.0 67.6
371(10) 0.00995 323.0 64.5
358(10) 0.01032 323.1 61.5
366(10) 0.00934 323.1 58.6
366(11) 0.00894 323.1 55.8
351(10) 0.01016 323.1 53.1
370(10) 0.00991 323.1 50.6
385(10) 0.00972 323.1 48.3
370(10) 0.00928 323.1 46.0
358(11) 0.00891 323.1 44.0
354(10) 0.00967 323.1 42.0
362(10) 0.01020 323.1 40.3
350(10) 0.01062 323.1 38.7
356(10) 0.00997 323.1 37.3
352(10) 0.00912 323.1 36.0
361(10) 0.00965 323.1 34.8
341(9) 0.01110 323.1 33.8
369(10) 0.01009 323.1 32.9
345(10) 0.01012 323.1 32.2
353(10) 0.00945 323.2 31.6
359(10) 0.00980 323.2 31.1
371(10) 0.00994 323.2 30.7
357(10) 0.01025 323.2 30.4
371(10) 0.00917 323.2 30.2
366(10) 0.00923 323.2 30.2
350(10) 0.00985 323.2 30.3
357(10) 0.01045 323.2 30.5
370(10) 0.00957 323.2 30.8
345(10) 0.01004 323.2 31.4
384(11) 0.00845 323.2 32.1
373(10) 0.00913 323.2 33.1
357(10) 0.01043 323.2 34.5
378(10) 0.00948 323.2 36.1
393(11) 0.00870 323.2 38.3
391(11) 0.00883 323.2 40.9
379(10) 0.00944 323.3 44.2
389(10) 0.00961 323.3 48.2
399(11) 0.00858 323.3 52.9
383(11) 0.00862 323.3 58.4
406(11) 0.00827 323.3 64.8
408(11) 0.00874 323.3 71.9
431(11) 0.00863 323.3 79.8
443(11) 0.00796 323.3 88.4
428(11) 0.00805 323.3 97.3
441(11) 0.00799 323.3 106.2
455(11) 0.00802 323.3 114.8
479(11) 0.00775 323.3 122.3
461(12) 0.00732 323.3 128.3
478(12) 0.00687 323.3 131.9
480(12) 0.00721 323.3 132.8
472(11) 0.00781 323.3 130.9
522(12) 0.00708 323.3 126.2
500(12) 0.00702 323.4 119.5
478(12) 0.00698 323.4 111.3
468(12) 0.00742 323.4 102.2
412(11) 0.00904 323.4 92.9
427(11) 0.00871 323.4 83.8
401(11) 0.00857 323.4 75.1
411(11) 0.00763 323.4 67.0
373(10) 0.00933 323.4 59.7
376(10) 0.00984 323.4 53.2
367(10) 0.00990 323.4 47.5
366(10) 0.00968 323.4 42.7
366(11) 0.00893 323.4 38.5
349(10) 0.00998 323.4 35.0
380(10) 0.00990 323.4 32.1
387(10) 0.00918 323.4 29.6
341(10) 0.01041 323.4 27.6
361(10) 0.00908 323.4 25.8
375(10) 0.00912 323.5 24.4
345(10) 0.01077 323.5 23.2
341(10) 0.01067 323.5 22.1
346(10) 0.00974 323.5 21.2
345(10) 0.00958 323.5 20.3
335(10) 0.00993 323.5 19.6
339(10) 0.01090 323.5 18.9
351(10) 0.01009 323.5 18.3
324(10) 0.01076 323.5 17.8
315(9) 0.01121 323.5 17.2
351(10) 0.00967 323.5 16.8
329(9) 0.01130 323.5 16.3
341(10) 0.01054 323.5 15.9
358(10) 0.00979 323.5 15.6
343(10) 0.00992 323.5 15.2
310(9) 0.01170 323.5 14.9
323(9) 0.01149 323.6 14.6
324(9) 0.01109 323.6 14.4
335(10) 0.01010 323.6 14.2
334(10) 0.01028 323.6 14.0
341(10) 0.01033 323.6 13.9
309(9) 0.01211 323.6 13.8
342(10) 0.00967 323.6 13.7
337(10) 0.00994 323.6 13.7
342(10) 0.00994 323.6 13.7
351(10) 0.01017 323.6 13.7
350(10) 0.01064 323.6 13.7
337(10) 0.01006 323.6 13.8
350(10) 0.00966 323.6 13.9
335(10) 0.01058 323.6 14.0
344(10) 0.01069 323.6 14.1
350(10) 0.01076 323.6 14.2
336(10) 0.01067 323.6 14.3
348(10) 0.00948 323.7 14.3
357(10) 0.00955 323.7 14.3
352(10) 0.01022 323.7 14.3
331(9) 0.01115 323.7 14.2
323(10) 0.01090 323.7 14.0
336(10) 0.00944 323.7 13.8
330(10) 0.01068 323.7 13.5
322(9) 0.01135 323.7 13.2
332(9) 0.01120 323.7 12.8
340(10) 0.01023 323.7 12.5
350(11) 0.00884 323.7 12.1
319(10) 0.01105 323.7 11.8
335(10) 0.01104 323.7 11.5
292(9) 0.01252 323.7 11.1
337(10) 0.01035 323.7 10.8
324(10) 0.01033 323.7 10.6
316(9) 0.01116 323.8 10.3
339(10) 0.01104 323.8 10.1
338(10) 0.01100 323.8 9.9
340(10) 0.01029 323.8 9.8
305(9) 0.01148 323.8 9.7
338(10) 0.01056 323.8 9.5
306(9) 0.01224 323.8 9.5
312(9) 0.01142 323.8 9.4
318(10) 0.01087 323.8 9.4
326(10) 0.01044 323.7 9.3
317(10) 0.01093 323.7 9.3
341(10) 0.01086 323.7 9.3
316(9) 0.01168 323.7 9.3
329(10) 0.01057 323.6 9.4
341(10) 0.00996 323.6 9.4
316(10) 0.01075 323.6 9.5
344(10) 0.01080 323.6 9.6
321(10) 0.01080 323.6 9.6
330(10) 0.01001 323.5 9.7
319(10) 0.01069 323.5 9.8
325(10) 0.01098 323.5 10.0
315(9) 0.01176 323.5 10.1
321(10) 0.01085 323.5 10.2
336(10) 0.00997 323.4 10.4
345(10) 0.00986 323.4 10.6
321(9) 0.01126 323.4 10.7
305(9) 0.01223 323.4 10.9
329(10) 0.01030 323.3 11.2
333(10) 0.01011 323.3 11.4
323(10) 0.01078 323.3 11.7
322(9) 0.01123 323.3 12.0
333(9) 0.01113 323.3 12.3
316(10) 0.01093 323.2 12.6
318(10) 0.01025 323.2 13.0
327(10) 0.01072 323.2 13.4
342(10) 0.01069 323.2 13.9
324(9) 0.01147 323.1 14.4
325(10) 0.01091 323.1 14.9
313(10) 0.01021 323.1 15.5
309(9) 0.01142 323.1 16.2
332(10) 0.01104 323.1 16.9
343(10) 0.01095 323.0 17.7
316(9) 0.01136 323.0 18.6
323(10) 0.00972 323.0 19.5
329(10) 0.01022 323.0 20.6
349(10) 0.01034 323.0 21.7
329(9) 0.01143 322.9 23.0
339(10) 0.01058 322.9 24.3
344(10) 0.00966 322.9 25.8
324(9) 0.01112 322.9 27.4
332(9) 0.01116 322.8 29.1
355(10) 0.01041 322.8 30.9
348(10) 0.00987 322.8 32.9
332(10) 0.00992 322.8 35.1
406(11) 0.00846 322.8 37.4
376(10) 0.00998 322.7 39.8
374(10) 0.00980 322.7 42.4
342(10) 0.01031 322.7 45.2
372(10) 0.00910 322.7 48.1
363(10) 0.00973 322.6 51.1
369(10) 0.01005 322.6 54.3
370(10) 0.00964 322.6 57.6
369(10) 0.00911 322.6 61.0
386(11) 0.00856 322.6 64.6
372(10) 0.00942 322.5 68.2
367(10) 0.01012 322.5 71.9
406(11) 0.00875 322.5 75.6
396(11) 0.00847 322.5 79.4
391(11) 0.00892 322.4 83.1
383(10) 0.00916 322.4 86.8
411(10) 0.00907 322.4 90.3
432(11) 0.00794 322.4 93.7
403(11) 0.00835 322.4 96.9
403(11) 0.00845 322.3 99.9
433(11) 0.00823 322.3 102.5
440(11) 0.00842 322.3 104.7
425(11) 0.00815 322.3 106.5
396(11) 0.00860 322.3 107.9
405(11) 0.00874 322.2 108.7
410(11) 0.00873 322.2 109.0
412(11) 0.00901 322.2 108.8
422(11) 0.00841 322.2 108.0
425(11) 0.00784 322.1 106.8
412(11) 0.00838 322.1 105.1
429(11) 0.00862 322.1 103.0
402(10) 0.00929 322.1 100.5
395(11) 0.00868 322.1 97.7
415(11) 0.00762 322.0 94.6
371(10) 0.00931 322.0 91.3
391(10) 0.00939 322.0 87.9
375(10) 0.00991 322.0 84.5
360(10) 0.00925 321.9 80.9
374(11) 0.00848 321.9 77.4
335(10) 0.01081 321.9 73.8
341(10) 0.01055 321.9 70.4
362(10) 0.01026 321.9 67.0
383(10) 0.00922 321.8 63.7
397(11) 0.00806 321.8 60.5
385(10) 0.00912 321.8 57.5
395(10) 0.00947 321.8 54.6
360(10) 0.01029 321.8 51.9
395(11) 0.00867 321.7 49.4
364(10) 0.00941 321.7 47.0
378(10) 0.00939 321.7 44.8
366(10) 0.01018 321.7 42.8
356(10) 0.01046 321.6 40.9
384(10) 0.00934 321.6 39.3
378(11) 0.00895 321.6 37.8
342(10) 0.00999 321.6 36.5
337(10) 0.01100 321.6 35.4
355(10) 0.01025 321.5 34.4
336(10) 0.01042 321.5 33.6
346(10) 0.00958 321.5 33.0
360(10) 0.00952 321.5 32.6
352(10) 0.01050 321.4 32.3
331(10) 0.01095 321.4 32.2
338(10) 0.00998 321.4 32.3
352(10) 0.00947 321.4 32.5
349(10) 0.01015 321.4 32.8
372(10) 0.01013 321.3 33.4
362(10) 0.00972 321.3 34.0
339(10) 0.00996 321.3 34.8
319(10) 0.01085 321.3 35.8
364(10) 0.00956 321.2 36.9
376(10) 0.00988 321.2 38.1
352(10) 0.01013 321.2 39.5
394(11) 0.00851 321.2 41.0
379(10) 0.00941 321.2 42.6
367(10) 0.00989 321.1 44.4
372(10) 0.01013 321.1 46.3
387(10) 0.00908 321.1 48.3
384(11) 0.00856 321.1 50.4
372(10) 0.00941 321.1 52.6
367(10) 0.01020 321.0 54.9
360(10) 0.01028 321.0 57.3
373(10) 0.00914 321.0 59.8
364(11) 0.00892 321.0 62.3
357(10) 0.00962 320.9 64.8
367(10) 0.00991 320.9 67.3
396(10) 0.00932 320.9 69.9
372(10) 0.00948 320.9 72.4
424(12) 0.00717 320.9 74.9
374(10) 0.00973 320.8 77.3
391(10) 0.00947 320.8 79.5
414(11) 0.00894 320.8 81.6
376(10) 0.00950 320.8 83.6
407(11) 0.00797 320.7 85.3
404(11) 0.00866 320.7 86.8
427(11) 0.00858 320.7 87.9
401(10) 0.00934 320.7 88.8
393(10) 0.00911 320.7 89.4
391(11) 0.00845 320.6 89.6
400(11) 0.00853 320.6 89.5
381(10) 0.00988 320.6 89.0
385(10) 0.00966 320.6 88.2
416(11) 0.00821 320.6 87.1
418(11) 0.00802 320.5 85.8
414(11) 0.00828 320.5 84.1
392(10) 0.00957 320.5 82.2
379(10) 0.00938 320.5 80.2
384(10) 0.00911 320.4 78.0
400(11) 0.00840 320.4 75.6
369(10) 0.00962 320.4 73.2
402(10) 0.00922 320.4 70.7
373(10) 0.00961 320.4 68.2
372(10) 0.00908 320.3 65.6
372(10) 0.00923 320.3 63.1
380(10) 0.00944 320.3 60.7
366(10) 0.01014 320.3 58.3
392(11) 0.00871 320.2 56.0
363(10) 0.00964 320.2 53.7
358(10) 0.00941 320.2 51.6
393(11) 0.00906 320.2 49.6
352(10) 0.01056 320.2 47.7
344(10) 0.00982 320.1 45.9
333(10) 0.01006 320.1 44.3
345(10) 0.00999 320.1 42.8
358(10) 0.01018 320.1 41.5
346(10) 0.01070 320.1 40.3
352(10) 0.00975 320.0 39.3
366(11) 0.00902 320.0 38.4
362(10) 0.00964 320.0 37.7
354(10) 0.01046 320.0 37.1
348(10) 0.01066 319.9 36.7
346(10) 0.01005 319.9 36.5
358(10) 0.00925 319.9 36.4
346(10) 0.01043 319.9 36.4
349(10) 0.01061 319.9 36.6
364(10) 0.01010 319.8 36.9
349(10) 0.00999 319.8 37.4
360(11) 0.00903 319.8 38.0
366(10) 0.00964 319.8 38.6
370(10) 0.00983 319.7 39.4
349(10) 0.01072 319.7 40.3
357(10) 0.00975 319.7 41.3
366(11) 0.00871 319.7 42.3
348(10) 0.01001 319.7 43.4
389(10) 0.00943 319.6 44.5
382(10) 0.00970 319.6 45.6
370(10) 0.00947 319.6 46.7
381(11) 0.00835 319.6 47.8
353(10) 0.00973 319.5 48.8
359(10) 0.01036 319.5 49.7
365(10) 0.00991 319.5 50.5
395(11) 0.00850 319.5 51.2
410(11) 0.00779 319.5 51.7
378(10) 0.00913 319.4 52.0
372(10) 0.00997 319.4 52.1
360(10) 0.00996 319.4 52.1
363(10) 0.00943 319.4 51.7
371(10) 0.00927 319.4 51.2
368(10) 0.00961 319.3 50.5
356(10) 0.01040 319.3 49.6
365(10) 0.00994 319.3 48.5
367(10) 0.00935 319.3 47.2
331(10) 0.01075 319.2 45.9
364(10) 0.00946 319.2 44.4
360(10) 0.01032 319.2 42.8
367(10) 0.00980 319.2 41.2
364(11) 0.00905 319.2 39.5
357(10) 0.00935 319.1 37.9
361(10) 0.01004 319.1 36.2
337(10) 0.01095 319.1 34.5
345(10) 0.00994 319.1 32.8
342(10) 0.00994 319.0 31.2
340(10) 0.01007 319.0 29.6
340(10) 0.01062 319.0 28.1
343(10) 0.01092 319.0 26.6
335(10) 0.01019 319.0 25.2
346(10) 0.00956 318.9 23.9
307(9) 0.01157 318.9 22.7
356(10) 0.01026 318.9 21.4
319(9) 0.01176 318.9 20.3
317(9) 0.01117 318.9 19.2
339(10) 0.00972 318.8 18.2
339(10) 0.01006 318.8 17.2
326(9) 0.01121 318.8 16.3
350(10) 0.01066 318.8 15.5
350(10) 0.00954 318.7 14.7
351(10) 0.00923 318.7 14.0
357(10) 0.00997 318.7 13.4
343(10) 0.01100 318.7 12.8
364(10) 0.00997 318.7 12.2
336(10) 0.01067 318.6 11.7
322(10) 0.00986 318.6 11.2
318(9) 0.01114 318.6 10.8
338(10) 0.01090 318.6 10.4
310(9) 0.01223 318.5 10.0
335(10) 0.01032 318.5 9.7
345(10) 0.00912 318.5 9.4
328(10) 0.01018 318.5 9.1
330(9) 0.01133 318.5 8.9
321(9) 0.01133 318.4 8.7
309(9) 0.01118 318.5 8.5
317(10) 0.01062 318.5 8.3
329(10) 0.01028 318.5 8.1
307(9) 0.01204 318.5 8.0
364(10) 0.00981 318.5 7.8
340(10) 0.01004 318.5 7.7
324(10) 0.01028 318.5 7.6
324(10) 0.01088 318.6 7.5
338(10) 0.01097 318.6 7.5
316(9) 0.01128 318.6 7.4
320(10) 0.01101 318.6 7.4
356(10) 0.00943 318.6 7.4
337(10) 0.01022 318.6 7.4
311(9) 0.01200 318.6 7.4
336(10) 0.01093 318.7 7.5
348(10) 0.00959 318.7 7.6
325(10) 0.01070 318.7 7.8
338(10) 0.01046 318.7 8.0
332(10) 0.01108 318.7 8.5
331(10) 0.01046 318.7 9.4
338(10) 0.01000 318.8 11.3
320(10) 0.01077 318.8 15.2
326(9) 0.01122 318.8 22.7
348(10) 0.01059 318.8 35.3
374(11) 0.00892 318.8 53.8
370(10) 0.00907 318.8 76.8
392(11) 0.00863 318.8 100.1
428(11) 0.00857 318.9 117.2
423(11) 0.00878 318.9 121.4
412(11) 0.00813 318.9 111.0
390(11) 0.00860 318.9 90.2
359(10) 0.01002 318.9 66.4
355(10) 0.01009 318.9 45.0
327(9) 0.01149 318.9 29.1
321(10) 0.01089 319.0 18.9
344(10) 0.00923 319.0 13.2
323(10) 0.01080 319.0 10.3
336(10) 0.01067 319.0 8.9
350(10) 0.01049 319.0 8.2
306(9) 0.01145 319.0 7.9
329(10) 0.01019 319.0 7.7
333(10) 0.01043 319.1 7.6
333(10) 0.01106 319.1 7.5
310(9) 0.01186 319.1 7.5
329(10) 0.01006 319.1 7.5
311(10) 0.01060 319.1 7.6
340(10) 0.01012 319.1 7.6
323(9) 0.01141 319.1 7.7
333(10) 0.01073 319.2 7.8
349(10) 0.01016 319.2 7.9
352(10) 0.00949 319.2 8.1
338(10) 0.01026 319.2 8.3
306(9) 0.01222 319.2 8.5
314(9) 0.01151 319.2 8.7
351(10) 0.01000 319.2 8.9
330(10) 0.01048 319.3 9.2
322(10) 0.01088 319.3 9.5
331(9) 0.01120 319.3 9.9
301(9) 0.01218 319.3 10.2
318(10) 0.01103 319.3 10.6
345(10) 0.00958 319.3 11.0
339(10) 0.01043 319.4 11.5
303(9) 0.01210 319.4 12.0
323(9) 0.01122 319.4 12.5
331(10) 0.01006 319.4 13.1
336(10) 0.01022 319.4 13.7
333(10) 0.01052 319.4 14.4
331(9) 0.01124 319.4 15.1
341(10) 0.01030 319.5 15.8
335(10) 0.01003 319.5 16.6
305(9) 0.01110 319.5 17.4
322(9) 0.01120 319.5 18.3
315(9) 0.01174 319.5 19.2
324(10) 0.01060 319.5 20.3
308(9) 0.01114 319.5 21.3
349(10) 0.00974 319.6 22.4
321(9) 0.01117 319.6 23.5
345(10) 0.01059 319.6 24.6
342(10) 0.00991 319.6 25.8
336(10) 0.01011 319.6 27.0
360(10) 0.00960 319.6 28.2
357(10) 0.01036 319.6 29.5
374(10) 0.00999 319.7 30.8
346(10) 0.01002 319.7 32.1
357(10) 0.00932 319.7 33.4
357(10) 0.00999 319.7 34.7
350(10) 0.01066 319.7 36.0
376(10) 0.00973 319.7 37.3
381(10) 0.00926 319.7 38.5
373(10) 0.00912 319.8 39.7
375(10) 0.00915 319.8 40.9
356(10) 0.01031 319.8 42.0
371(10) 0.00989 319.8 43.0
354(10) 0.00987 319.8 43.9
386(11) 0.00828 319.8 44.7
383(11) 0.00901 319.9 45.3
377(10) 0.00993 319.9 45.9
370(10) 0.00987 319.9 46.3
367(10) 0.00907 319.9 46.5
365(11) 0.00860 319.9 46.6
349(10) 0.00983 319.9 46.5
353(10) 0.01046 319.9 46.3
374(10) 0.00999 320.0 45.9
381(11) 0.00892 320.0 45.4
375(11) 0.00867 320.0 44.7
378(11) 0.00890 320.0 44.0
348(10) 0.01069 320.0 43.1
375(10) 0.00964 320.0 42.1
352(10) 0.00989 320.0 41.0
359(10) 0.00944 320.1 39.9
359(10) 0.00993 320.1 38.7
356(10) 0.01043 320.1 37.4
344(10) 0.01056 320.1 36.1
351(10) 0.00951 320.1 34.9
369(11) 0.00888 320.1 33.6
347(10) 0.01015 320.1 32.3
363(10) 0.01021 320.2 31.0
348(10) 0.01029 320.2 29.7
344(10) 0.00966 320.2 28.4
337(10) 0.01003 320.2 27.2
363(10) 0.00975 320.2 26.0
347(10) 0.01070 320.2 24.9
334(10) 0.01015 320.2 23.8
334(10) 0.01010 320.3 22.7
333(10) 0.01007 320.3 21.7
366(10) 0.00964 320.3 20.7
324(9) 0.01151 320.3 19.7
339(10) 0.01021 320.3 18.9
352(10) 0.00929 320.3 18.0
329(10) 0.01063 320.3 17.2
345(10) 0.01067 320.4 16.5
340(10) 0.01094 320.4 15.8
366(10) 0.00924 320.4 15.2
351(10) 0.00948 320.4 14.6
347(10) 0.00990 320.4 14.1
314(9) 0.01170 320.4 13.6
327(9) 0.01126 320.5 13.2
319(9) 0.01113 320.5 12.9
338(10) 0.00963 320.5 12.5
354(10) 0.00964 320.5 12.3
366(10) 0.01010 320.5 12.1
352(10) 0.01056 320.5 12.0
343(10) 0.01033 320.5 11.9
334(10) 0.00978 320.6 11.9
340(10) 0.01050 320.6 12.0
336(9) 0.01116 320.6 12.3
321(9) 0.01154 320.6 12.7
340(10) 0.01033 320.6 13.5
345(10) 0.00941 320.6 14.8
343(10) 0.01037 320.6 17.3
383(10) 0.00980 320.7 21.6
361(10) 0.00991 320.7 28.9
394(11) 0.00884 320.7 40.4
382(10) 0.00914 320.7 57.1
424(11) 0.00812 320.7 78.7
443(11) 0.00839 320.7 103.9
493(12) 0.00741 320.7 128.7
520(12) 0.00673 320.8 147.5
529(13) 0.00624 320.8 153.6
490(12) 0.00695 320.8 144.6
469(11) 0.00791 320.8 124.0
423(11) 0.00842 320.8 98.4
375(10) 0.00921 320.8 73.4
377(11) 0.00903 320.8 52.2
382(10) 0.00914 320.9 36.3
354(10) 0.01053 320.9 25.3
340(10) 0.01028 320.9 18.4
335(10) 0.00980 320.9 14.1
342(10) 0.00982 320.9 11.6
343(10) 0.01028 320.9 10.1
343(10) 0.01081 321.0 9.0
352(10) 0.00945 321.0 8.3
363(11) 0.00905 321.0 7.7
343(10) 0.00987 321.0 7.3
335(10) 0.01052 321.0 6.9
335(9) 0.01114 321.0 6.6
318(10) 0.01075 321.0 6.3
328(10) 0.01026 321.1 6.0
332(10) 0.01057 321.1 5.8
312(9) 0.01177 321.1 5.7
314(9) 0.01180 321.1 5.5
333(10) 0.01026 321.1 5.4
338(10) 0.00968 321.1 5.3
340(10) 0.01020 321.1 5.2
344(10) 0.01057 321.2 5.1
324(9) 0.01138 321.2 5.0
319(9) 0.01121 321.2 5.0
336(10) 0.00939 321.2 4.9
332(10) 0.01007 321.2 4.9
310(9) 0.01184 321.2 4.9
329(9) 0.01108 321.2 4.9
320(10) 0.01054 321.3 4.9
342(11) 0.00906 321.3 4.9
308(9) 0.01151 321.3 4.9
330(10) 0.01104 321.3 5.0
347(10) 0.01061 321.3 5.0
330(10) 0.01070 321.3 5.1
317(10) 0.01005 321.3 5.2
316(9) 0.01120 321.4 5.3
326(9) 0.01127 321.4 5.4
309(9) 0.01171 321.4 5.5
335(10) 0.01029 321.4 5.7
331(10) 0.01002 321.4 5.9
323(10) 0.01082 321.4 6.1
343(10) 0.01058 321.4 6.3
321(10) 0.01090 321.5 6.5
312(9) 0.01116 321.5 6.8
347(10) 0.00932 321.5 7.2
320(10) 0.01063 321.5 7.7
328(9) 0.01136 321.5 8.4
370(10) 0.00965 321.5 9.4
341(10) 0.01034 321.6 11.0
344(10) 0.00963 321.6 13.1
355(10) 0.00987 321.6 16.0
370(10) 0.01001 321.6 19.5
390(10) 0.00920 321.6 23.3
401(11) 0.00851 321.6 26.8
372(10) 0.00919 321.6 29.1
382(10) 0.00930 321.7 29.4
362(10) 0.01015 321.7 27.7
369(10) 0.00951 321.7 24.9
354(10) 0.00936 321.7 21.8
331(10) 0.01061 321.7 19.0
349(10) 0.01014 321.7 16.8
339(10) 0.01092 321.7 15.3
343(10) 0.01002 321.8 14.4
327(10) 0.01082 321.8 14.0
363(10) 0.00931 321.8 13.8
325(9) 0.01113 321.8 13.7
341(10) 0.01076 321.8 13.7
353(10) 0.00986 321.8 13.7
387(11) 0.00837 321.8 13.7
340(10) 0.01044 321.9 13.6
343(10) 0.01084 321.9 13.6
342(10) 0.01088 321.9 13.5
315(10) 0.01107 321.9 13.4
343(10) 0.00909 321.9 13.2
345(10) 0.00965 321.9 13.1
348(10) 0.01071 321.9 13.0
331(9) 0.01110 322.0 12.8
321(10) 0.01072 322.0 12.6
344(10) 0.00933 322.0 12.5
327(10) 0.01074 322.0 12.3
337(10) 0.01104 322.0 12.2
325(9) 0.01131 322.0 12.1
305(9) 0.01145 322.1 11.9
326(10) 0.00992 322.1 11.8
314(9) 0.01120 322.1 11.8
339(10) 0.01081 322.1 11.7
349(10) 0.01057 322.1 11.6
326(10) 0.01075 322.1 11.6
318(10) 0.01023 322.1 11.6
339(10) 0.01013 322.2 11.6
352(10) 0.01063 322.2 11.7
333(10) 0.01037 322.2 11.7
322(10) 0.01080 322.2 11.8
337(10) 0.00999 322.2 11.9
344(10) 0.01001 322.2 12.0
336(10) 0.01102 322.2 12.2
321(9) 0.01133 322.3 12.4
338(10) 0.01011 322.3 12.6
321(10) 0.01050 322.3 12.8
325(10) 0.01068 322.3 13.1
332(9) 0.01116 322.3 13.4
321(10) 0.01105 322.3 13.7
347(10) 0.00990 322.3 14.0
326(10) 0.01022 322.4 14.4
303(9) 0.01169 322.4 14.8
336(10) 0.01104 322.4 15.2
335(10) 0.01048 322.4 15.6
304(9) 0.01126 322.4 16.0
321(10) 0.01082 322.4 16.5
334(10) 0.01042 322.4 16.9
330(9) 0.01128 322.5 17.4
353(10) 0.00984 322.5 17.9
310(9) 0.01108 322.5 18.4
318(10) 0.01087 322.5 18.9
346(10) 0.01065 322.5 19.3
324(9) 0.01146 322.5 19.8
353(10) 0.00957 322.6 20.2
335(10) 0.01001 322.6 20.6
348(10) 0.00994 322.6 20.9
339(10) 0.01099 322.6 21.2
340(10) 0.01093 322.6 21.5
335(10) 0.01039 322.6 21.6
342(10) 0.00993 322.6 21.7
346(10) 0.01020 322.7 21.8
327(9) 0.01147 322.7 21.7
334(10) 0.01098 322.7 21.6
351(10) 0.00989 322.7 21.4
337(10) 0.00963 322.7 21.2
326(10) 0.01093 322.7 20.8
328(9) 0.01145 322.7 20.4
317(9) 0.01171 322.8 20.0
323(10) 0.01032 322.8 19.5
334(10) 0.00937 322.8 19.0
329(10) 0.01046 322.8 18.4
340(10) 0.01094 322.8 17.9
339(10) 0.01093 322.8 17.2
302(9) 0.01185 322.8 16.6
324(10) 0.01011 322.9 16.0
326(9) 0.01111 322.9 15.4
338(10) 0.01097 322.9 14.7
314(9) 0.01168 322.9 14.1
332(10) 0.01022 322.9 13.5
332(10) 0.00993 322.9 12.8
358(11) 0.00905 322.9 12.3
334(9) 0.01117 323.0 11.7
327(10) 0.01096 323.0 11.2
320(10) 0.01087 323.0 10.7
318(10) 0.01075 323.0 10.2
344(10) 0.01005 323.0 9.7
339(10) 0.01091 323.0 9.3
307(9) 0.01191 323.0 8.9
332(10) 0.01041 323.1 8.5
337(10) 0.01021 323.1 8.2
342(10) 0.01002 323.1 7.9
306(9) 0.01214 323.1 7.6
328(10) 0.01086 323.1 7.4
319(10) 0.01098 323.1 7.2
335(10) 0.00984 323.2 7.0
312(9) 0.01121 323.2 6.8
306(9) 0.01227 323.2 6.7
317(10) 0.01066 323.2 6.7
305(9) 0.01133 323.2 6.7
322(10) 0.01087 323.2 6.7
303(9) 0.01202 323.2 6.8
341(10) 0.01088 323.3 6.9
319(10) 0.01100 323.3 7.1
342(10) 0.00984 323.3 7.4
325(10) 0.01045 323.3 7.8
317(9) 0.01119 323.3 8.5
337(10) 0.01094 323.3 9.5
327(10) 0.01086 323.3 11.0
321(10) 0.01048 323.4 13.1
328(10) 0.01041 323.4 16.1
340(10) 0.01060 323.4 20.2
354(10) 0.01055 323.4 25.7
342(10) 0.01017 323.4 32.5
327(10) 0.01002 323.4 40.5
331(10) 0.01050 323.4 49.4
361(10) 0.01010 323.5 58.3
331(9) 0.01115 323.5 65.9
342(10) 0.00991 323.5 70.9
353(10) 0.00951 323.5 71.7
366(10) 0.00951 323.5 68.4
347(10) 0.01068 323.5 61.8
357(10) 0.01043 323.5 53.6
341(10) 0.01023 323.6 45.2
339(10) 0.00966 323.6 37.5
369(10) 0.00953 323.6 31.1
365(10) 0.01020 323.6 26.1
347(10) 0.01054 323.6 22.5
340(10) 0.01009 323.6 20.0
346(10) 0.00956 323.7 18.2
354(10) 0.00969 323.7 16.7
343(10) 0.01079 323.7 15.3
359(10) 0.01014 323.7 13.9
363(10) 0.00960 323.7 12.4
350(10) 0.00939 323.7 11.0
336(10) 0.01041 323.7 9.7
348(10) 0.01070 323.8 8.6
337(10) 0.01074 323.8 7.7
347(10) 0.01015 323.8 6.9
337(10) 0.01037 323.8 6.3
341(10) 0.00996 323.8 5.9
327(9) 0.01140 323.8 5.5
321(9) 0.01112 323.8 5.3
339(10) 0.00994 323.9 5.1
349(10) 0.01007 323.9 5.0
335(10) 0.01059 323.9 5.0
316(9) 0.01184 323.9 4.9
347(10) 0.00981 323.9 5.0
354(10) 0.00915 323.9 5.0
323(10) 0.01060 323.9 5.0
326(10) 0.01102 324.0 5.1
309(9) 0.01216 324.0 5.3
317(9) 0.01114 324.0 5.5
336(10) 0.00981 324.0 5.7
307(9) 0.01111 324.0 6.0
311(9) 0.01181 324.0 6.4
342(10) 0.01086 324.0 6.9
320(10) 0.01055 324.1 7.6
317(10) 0.01048 324.1 8.3
345(10) 0.01027 324.1 9.3
339(10) 0.01090 324.1 10.5
327(9) 0.01148 324.1 11.9
340(10) 0.01031 324.1 13.5
322(10) 0.01003 324.1 15.3
331(10) 0.01016 324.2 17.4
348(10) 0.01047 324.2 19.7
345(10) 0.01071 324.2 22.1
328(10) 0.01089 324.2 24.6
344(10) 0.00918 324.2 27.0
345(10) 0.00969 324.2 29.3
352(10) 0.01060 324.3 31.2
327(9) 0.01131 324.3 32.5
338(10) 0.01039 324.3 33.1
346(10) 0.00925 324.3 32.9
318(10) 0.01100 324.3 32.0
342(10) 0.01071 324.3 30.3
328(9) 0.01128 324.3 28.3
320(9) 0.01136 324.4 25.9
329(10) 0.01025 324.4 23.5
338(10) 0.01027 324.4 21.1
357(10) 0.01039 324.4 18.9
342(10) 0.01078 324.4 16.7
332(10) 0.01047 324.4 14.8
332(10) 0.01031 324.4 13.2
332(10) 0.01049 324.5 11.8
300(9) 0.01245 324.5 10.5
334(10) 0.01097 324.5 9.5
316(10) 0.01044 324.5 8.7
318(10) 0.01053 324.5 8.2
330(9) 0.01113 324.5 7.7
312(9) 0.01155 324.5 7.3
338(10) 0.00999 324.6 7.0
348(10) 0.00958 324.6 6.7
296(9) 0.01167 324.6 6.6
332(9) 0.01121 324.6 6.4
340(10) 0.01003 324.6 6.3
326(10) 0.01020 324.6 6.3
340(10) 0.01012 324.6 6.2
322(9) 0.01126 324.7 6.2
344(10) 0.01089 324.7 6.2
311(9) 0.01119 324.7 6.2
316(10) 0.01024 324.7 6.2
302(10) 0.01089 324.7 6.2
315(9) 0.01149 324.7 6.3
356(10) 0.01049 324.8 6.3
327(10) 0.01079 324.8 6.3
325(10) 0.01048 324.8 6.4
343(10) 0.01028 324.8 6.4
349(10) 0.01081 324.8 6.5
323(9) 0.01160 324.8 6.6
320(10) 0.01100 324.8 6.6
331(10) 0.00975 324.9 6.7
319(10) 0.01102 324.9 6.8
348(10) 0.01076 324.9 6.8
332(9) 0.01110 324.9 6.9
339(10) 0.01046 324.9 7.0
318(10) 0.01025 324.9 7.0
329(10) 0.01065 324.9 7.1
323(9) 0.01123 325.0 7.1
318(9) 0.01184 325.0 7.2
310(9) 0.01142 325.0 7.2
337(10) 0.00945 325.0 7.3
364(10) 0.00934 325.0 7.3
335(10) 0.01101 325.0 7.4
321(9) 0.01130 325.0 7.4
353(10) 0.00966 325.1 7.4
340(10) 0.00937 325.1 7.4
308(9) 0.01158 325.1 7.4
309(9) 0.01206 325.1 7.5
360(10) 0.01007 325.1 7.5
350(10) 0.01006 325.1 7.4
332(10) 0.01017 325.1 7.4
344(10) 0.00991 325.2 7.4
350(10) 0.01071 325.2 7.4
320(9) 0.01133 325.2 7.4
339(10) 0.00996 325.2 7.3
347(10) 0.00983 325.2 7.3
340(10) 0.01017 325.2 7.2
344(10) 0.01082 325.2 7.2
327(10) 0.01108 325.2 7.1
340(10) 0.01019 325.2 7.1
310(9) 0.01135 325.3 7.0
333(10) 0.01061 325.3 7.0
349(10) 0.01069 325.3 6.9
327(10) 0.01075 325.3 6.9
330(10) 0.01085 325.3 6.8
331(10) 0.01035 325.3 6.7
334(10) 0.01076 325.3 6.7
312(9) 0.01197 325.3 6.6
332(10) 0.01023 325.3 6.6
334(10) 0.01002 325.4 6.5
319(9) 0.01112 325.4 6.5
332(10) 0.01091 325.4 6.4
314(9) 0.01194 325.4 6.4
353(10) 0.00979 325.4 6.3
354(11) 0.00906 325.4 6.3
326(10) 0.01047 325.4 6.3
332(10) 0.01092 325.4 6.3
348(10) 0.01075 325.5 6.2
326(10) 0.01087 325.5 6.2
351(10) 0.00917 325.5 6.2
335(10) 0.01037 325.5 6.2
306(9) 0.01210 325.5 6.2
328(9) 0.01123 325.5 6.2
344(10) 0.01020 325.5 6.3
315(10) 0.01060 325.5 6.3
331(10) 0.01009 325.5 6.3
327(10) 0.01108 325.6 6.4
311(9) 0.01217 325.6 6.4
334(10) 0.01049 325.6 6.5
356(11) 0.00866 325.6 6.6
327(10) 0.01073 325.6 6.7
334(9) 0.01114 325.6 6.8
333(10) 0.01099 325.6 6.9
306(9) 0.01152 325.6 7.1
327(10) 0.00978 325.6 7.3
343(10) 0.01011 325.7 7.4
365(10) 0.01027 325.7 7.7
347(10) 0.01063 325.7 7.9
342(10) 0.01008 325.7 8.2
346(10) 0.00921 325.7 8.4
317(10) 0.01068 325.7 8.8
320(9) 0.01181 325.7 9.2
352(10) 0.01017 325.7 9.6
340(10) 0.01019 325.8 10.0
347(10) 0.00945 325.8 10.5
361(10) 0.00938 325.8 11.1
337(10) 0.01101 325.8 11.7
320(9) 0.01168 325.8 12.5
353(10) 0.01001 325.8 13.3
365(10) 0.00939 325.8 14.2
363(10) 0.00987 325.8 15.4
344(10) 0.01086 325.8 16.7
348(10) 0.01043 325.9 18.4
356(10) 0.00956 325.9 20.7
361(10) 0.00962 325.9 23.8
378(10) 0.00939 325.9 28.2
394(10) 0.00942 325.9 34.5
392(11) 0.00897 325.9 43.3
420(11) 0.00786 325.9 55.1
409(11) 0.00828 325.9 70.2
439(11) 0.00827 325.9 88.3
460(11) 0.00803 326.0 108.2
479(12) 0.00721 326.0 128.0
487(12) 0.00686 326.0 144.8
464(12) 0.00750 326.0 156.6
462(11) 0.00785 326.0 163.7
489(11) 0.00763 326.0 169.4
489(12) 0.00728 326.0 177.7
489(12) 0.00672 326.0 191.0
484(12) 0.00719 326.1 210.4
528(12) 0.00695 326.1 234.7
554(12) 0.00672 326.1 260.9
567(13) 0.00606 326.1 284.3
549(13) 0.00612 326.1 299.4
574(13) 0.00608 326.1 302.7
591(13) 0.00618 326.1 294.4
563(12) 0.00656 326.1 277.8
553(13) 0.00638 326.1 256.8
533(13) 0.00621 326.2 234.3
556(13) 0.00615 326.2 212.0
478(11) 0.00768 326.2 191.2
508(12) 0.00732 326.2 171.7
480(12) 0.00737 326.2 153.6
458(12) 0.00677 326.2 136.3
431(12) 0.00750 326.2 119.8
433(11) 0.00869 326.2 104.4
410(10) 0.00908 326.3 90.0
392(11) 0.00887 326.3 77.1
404(11) 0.00826 326.3 65.6
383(10) 0.00935 326.3 55.7
372(10) 0.01009 326.3 47.3
387(10) 0.00927 326.3 40.3
376(10) 0.00927 326.3 34.6
375(11) 0.00877 326.3 29.9
366(10) 0.00935 326.3 26.2
340(10) 0.01098 326.4 23.3
337(10) 0.01062 326.4 20.9
345(10) 0.00981 326.4 19.0
324(10) 0.01045 326.4 17.5
351(10) 0.01019 326.4 16.2
344(10) 0.01078 326.4 15.1
355(10) 0.00981 326.4 14.2
328(10) 0.01043 326.4 13.4
315(10) 0.01070 326.4 12.7
359(10) 0.00974 326.5 12.1
354(10) 0.01046 326.5 11.6
335(10) 0.01060 326.5 11.1
321(10) 0.01030 326.5 10.7
334(10) 0.01009 326.5 10.4
305(9) 0.01162 326.5 10.0
320(9) 0.01178 326.5 9.7
346(10) 0.01022 326.5 9.5
350(10) 0.01000 326.6 9.2
346(10) 0.00999 326.6 9.0
334(10) 0.01087 326.6 8.8
335(10) 0.01104 326.6 8.6
344(10) 0.01036 326.6 8.5
332(10) 0.01023 326.6 8.4
348(10) 0.00969 326.6 8.2
328(9) 0.01119 326.6 8.1
339(10) 0.01093 326.6 8.2
358(10) 0.00969 326.7 8.1
351(10) 0.00927 326.7 8.1
339(10) 0.01039 326.7 8.0
325(9) 0.01140 326.7 8.0
320(9) 0.01164 326.7 8.0
317(10) 0.01090 326.7 8.0
335(10) 0.00967 326.7 8.1
336(10) 0.01024 326.7 8.1
347(10) 0.01077 326.7 8.2
333(10) 0.01102 326.8 8.4
342(10) 0.01020 326.8 8.6
319(10) 0.01011 326.8 8.9
308(9) 0.01145 326.8 9.4
329(9) 0.01125 326.8 10.0
323(9) 0.01148 326.8 10.7
329(10) 0.01040 326.8 11.7
327(10) 0.01054 326.8 12.8
334(10) 0.01077 326.9 14.2
346(10) 0.01077 326.9 15.7
343(10) 0.01076 326.9 17.3
335(10) 0.01034 326.9 18.9
322(10) 0.01052 326.9 20.3
345(10) 0.01011 326.9 21.3
357(10) 0.01042 326.9 21.8
326(9) 0.01123 326.9 21.7
356(10) 0.00973 326.9 20.9
346(10) 0.00969 327.0 19.6
327(10) 0.01061 327.0 18.1
343(10) 0.01079 327.0 16.4
333(10) 0.01034 327.0 14.7
319(10) 0.01073 327.0 13.2
332(10) 0.01032 327.0 11.9
343(10) 0.01023 327.0 10.7
327(9) 0.01136 327.0 9.7
335(10) 0.01066 327.0 9.0
343(10) 0.01001 327.1 8.3
355(10) 0.00960 327.1 7.9
330(10) 0.01084 327.1 7.5
343(10) 0.01078 327.1 7.2
335(10) 0.01037 327.1 7.0
324(10) 0.01064 327.1 6.8
350(10) 0.01004 327.1 6.6
367(10) 0.00977 327.1 6.5
342(10) 0.01074 327.2 6.4
336(10) 0.01010 327.2 6.3
335(10) 0.00979 327.2 6.2
327(10) 0.01067 327.2 6.1
357(10) 0.00996 327.2 6.1
315(9) 0.01182 327.2 6.0
325(10) 0.01067 327.2 5.9
328(10) 0.01037 327.2 5.9
323(9) 0.01114 327.3 5.8
356(10) 0.01041 327.3 5.8
324(9) 0.01133 327.3 5.7
327(10) 0.01069 327.4 5.7
330(10) 0.00969 327.4 5.7
349(10) 0.00974 327.4 5.7
308(9) 0.01213 327.5 5.7
320(9) 0.01153 327.5 5.6
341(10) 0.01019 327.5 5.6
341(10) 0.00958 327.6 5.6
320(10) 0.01085 327.6 5.6
326(9) 0.01134 327.6 5.6
323(9) 0.01127 327.7 5.6
328(10) 0.01023 327.7 5.6
326(10) 0.01035 327.7 5.6
342(10) 0.01046 327.8 5.6
331(9) 0.01136 327.8 5.6
325(9) 0.01124 327.8 5.6
358(10) 0.00908 327.9 5.7
358(11) 0.00904 327.9 5.7
333(10) 0.01019 327.9 5.7
347(10) 0.01084 328.0 5.7
345(10) 0.01051 328.0 5.8
333(10) 0.01019 328.0 5.8
346(10) 0.00962 328.1 5.9
333(10) 0.01056 328.1 5.9
319(9) 0.01170 328.1 6.0
340(10) 0.01068 328.2 6.1
344(10) 0.00999 328.2 6.2
306(9) 0.01159 328.2 6.3
333(10) 0.01046 328.3 6.3
361(10) 0.01030 328.3 6.5
331(10) 0.01106 328.3 6.6
317(10) 0.01066 328.4 6.7
329(10) 0.01054 328.4 6.8
320(10) 0.01093 328.4 7.0
326(9) 0.01139 328.5 7.1
348(10) 0.00999 328.5 7.3
339(10) 0.01000 328.5 7.5
344(10) 0.01018 328.6 7.7
356(10) 0.00976 328.6 7.9
322(9) 0.01141 328.6 8.2
345(10) 0.00994 328.7 8.4
348(10) 0.00925 328.7 8.7
320(10) 0.01069 328.7 9.0
320(9) 0.01142 328.8 9.3
347(10) 0.01085 328.8 9.7
369(10) 0.00925 328.8 10.1
328(10) 0.01025 328.9 10.5
347(10) 0.00972 328.9 11.0
332(10) 0.01101 328.9 11.5
335(9) 0.01117 329.0 12.0
354(10) 0.00970 329.0 12.6
329(10) 0.00976 329.0 13.3
325(10) 0.01049 329.1 14.0
372(10) 0.00977 329.1 14.8
324(9) 0.01153 329.1 15.7
384(11) 0.00883 329.2 16.7
364(11) 0.00855 329.2 17.9
356(10) 0.00961 329.2 19.3
382(10) 0.00981 329.3 21.0
375(10) 0.00945 329.3 23.2
349(10) 0.01023 329.3 26.1
360(11) 0.00872 329.4 30.2
397(11) 0.00882 329.4 36.1
412(11) 0.00899 329.4 44.6
359(10) 0.01046 329.5 56.7
420(11) 0.00803 329.5 73.2
418(11) 0.00807 329.5 94.8
442(11) 0.00783 329.6 121.5
493(12) 0.00747 329.6 152.5
498(12) 0.00740 329.6 185.6
526(12) 0.00652 329.7 217.0
534(13) 0.00635 329.7 241.2
566(13) 0.00596 329.7 252.3
560(12) 0.00660 329.8 247.0
540(12) 0.00651 329.8 227.3
482(12) 0.00701 329.8 198.7
431(11) 0.00794 329.9 167.1
455(11) 0.00762 329.9 136.8
428(11) 0.00870 329.9 110.4
409(11) 0.00878 330.0 89.2
397(11) 0.00872 330.0 73.3
400(11) 0.00834 330.0 62.3
361(10) 0.01005 330.1 55.4
399(10) 0.00934 330.1 51.7
400(11) 0.00873 330.1 50.4
371(10) 0.00924 330.2 50.9
387(11) 0.00907 330.2 52.8
392(10) 0.00934 330.2 55.9
390(10) 0.00966 330.3 60.0
407(11) 0.00851 330.3 65.0
390(11) 0.00907 330.3 70.9
422(11) 0.00818 330.4 77.6
410(11) 0.00884 330.4 85.0
432(11) 0.00866 330.4 93.0
433(11) 0.00791 330.4 101.3
456(12) 0.00717 330.5 109.8
477(12) 0.00716 330.5 118.0
446(11) 0.00821 330.5 125.5
482(11) 0.00759 330.6 131.7
432(11) 0.00786 330.6 135.9
423(11) 0.00790 330.6 137.8
478(12) 0.00724 330.7 137.2
481(11) 0.00770 330.7 133.9
468(11) 0.00792 330.7 128.5
434(11) 0.00809 330.8 121.4
441(12) 0.00729 330.8 113.2
409(11) 0.00854 330.8 104.5
418(11) 0.00898 330.9 95.7
432(11) 0.00846 330.9 87.1
393(11) 0.00891 330.9 79.1
376(11) 0.00859 331.0 71.7
393(11) 0.00875 331.0 65.2
381(10) 0.00978 331.0 59.5
393(10) 0.00915 331.1 54.7
376(10) 0.00934 331.1 50.8
369(11) 0.00886 331.1 47.9
369(10) 0.00943 331.2 46.0
400(10) 0.00934 331.2 45.3
365(10) 0.01009 331.2 45.8
389(10) 0.00911 331.3 47.6
376(11) 0.00899 331.3 51.0
363(10) 0.00965 331.3 56.0
380(10) 0.00978 331.4 62.5
380(10) 0.00951 331.4 70.3
394(11) 0.00884 331.4 78.7
421(11) 0.00799 331.5 87.1
398(11) 0.00850 331.5 94.0
390(10) 0.00951 331.5 98.0
395(11) 0.00898 331.6 98.0
388(11) 0.00862 331.6 93.9
398(11) 0.00847 331.6 86.8
392(10) 0.00922 331.7 78.1
375(10) 0.00989 331.7 69.2
360(10) 0.00970 331.7 60.8
350(10) 0.00984 331.8 53.6
348(10) 0.00972 331.8 47.7
364(10) 0.00995 331.8 43.2
358(10) 0.01035 331.9 39.9
357(10) 0.00993 331.9 37.7
363(10) 0.00945 331.9 36.4
356(10) 0.00995 332.0 35.8
376(10) 0.00958 332.0 35.8
343(10) 0.01084 332.0 36.2
388(11) 0.00893 332.1 37.1
381(11) 0.00897 332.1 38.2
375(10) 0.00954 332.1 39.8
386(10) 0.00931 332.2 41.7
403(10) 0.00927 332.2 43.9
369(10) 0.00944 332.2 46.4
390(11) 0.00834 332.3 49.1
410(11) 0.00846 332.3 52.1
388(10) 0.00947 332.3 55.1
396(10) 0.00938 332.4 58.0
409(11) 0.00836 332.4 60.7
423(12) 0.00745 332.4 62.8
402(11) 0.00878 332.5 64.2
413(11) 0.00879 332.5 64.7
403(10) 0.00924 332.5 64.3
387(10) 0.00936 332.6 63.2
378(11) 0.00863 332.6 61.5
383(10) 0.00919 332.6 59.4
397(10) 0.00942 332.7 57.1
397(10) 0.00925 332.7 54.9
388(11) 0.00891 332.7 52.8
391(11) 0.00855 332.8 50.8
416(11) 0.00831 332.8 49.1
377(10) 0.00979 332.8 47.6
394(10) 0.00932 332.9 46.3
377(11) 0.00882 332.9 45.2
366(11) 0.00888 332.9 44.4
368(10) 0.00908 333.0 43.6
365(10) 0.01019 333.0 43.1
367(10) 0.00999 333.0 42.6
382(11) 0.00900 333.1 42.1
374(11) 0.00884 333.1 41.7
355(10) 0.00971 333.1 41.3
371(10) 0.01017 333.2 40.9
398(11) 0.00890 333.2 40.5
371(10) 0.00914 333.2 40.1
404(11) 0.00799 333.3 39.7
384(10) 0.00920 333.3 39.2
397(10) 0.00938 333.3 38.6
375(10) 0.00930 333.4 38.1
368(10) 0.00935 333.4 37.5
368(10) 0.00925 333.4 36.9
364(10) 0.00995 333.5 36.2
377(10) 0.00972 333.5 35.5
365(10) 0.00931 333.5 34.8
372(11) 0.00873 333.6 34.1
366(10) 0.00935 333.6 33.4
373(10) 0.00978 333.6 32.6
364(10) 0.01022 333.7 31.8
365(10) 0.00942 333.7 31.1
382(11) 0.00876 333.7 30.3
390(11) 0.00881 333.8 29.5
373(10) 0.00978 333.8 28.7
359(10) 0.01040 333.8 27.9
338(10) 0.01056 333.9 27.2
371(11) 0.00872 333.9 26.4
389(11) 0.00888 333.9 25.7
371(10) 0.01013 334.0 24.9
364(10) 0.01011 334.0 24.2
341(10) 0.01025 334.0 23.5
361(10) 0.00913 334.1 22.8
360(10) 0.00978 334.1 22.1
349(10) 0.01071 334.1 21.4
341(10) 0.01089 334.2 20.8
353(10) 0.01007 334.2 20.1
359(11) 0.00871 334.2 19.5
340(10) 0.01008 334.3 18.9
349(10) 0.01071 334.3 18.3
348(10) 0.01045 334.3 17.8
361(10) 0.00947 334.4 17.3
379(11) 0.00848 334.4 16.7
364(10) 0.00985 334.4 16.3
374(10) 0.00995 334.5 15.8
347(10) 0.01056 334.5 15.4
393(11) 0.00859 334.5 14.9
341(10) 0.01004 334.6 14.5
343(10) 0.01010 334.6 14.1
362(10) 0.01017 334.6 13.8
334(10) 0.01084 334.7 13.4
357(10) 0.00953 334.7 13.1
338(10) 0.01024 334.7 12.8
335(10) 0.01032 334.8 12.5
341(10) 0.01106 334.8 12.2
344(10) 0.01063 334.8 12.0
359(10) 0.00954 334.9 11.7
349(10) 0.00961 334.9 11.5
352(10) 0.00993 334.9 11.3
335(10) 0.01105 335.0 11.1
365(10) 0.00960 335.0 10.9
352(10) 0.00982 335.0 10.8
398(11) 0.00868 335.1 10.6
400(11) 0.00891 335.1 10.5
358(10) 0.01042 335.1 10.4
356(10) 0.00959 335.2 10.3
347(10) 0.00965 335.2 10.2
367(10) 0.00926 335.2 10.1
371(10) 0.00973 335.3 10.1
376(10) 0.00992 335.3 10.0
343(10) 0.01033 335.3 10.0
373(11) 0.00884 335.4 10.0
367(10) 0.00920 335.4 9.9
376(10) 0.00963 335.4 9.9
316(9) 0.01185 335.5 10.0
324(10) 0.01063 335.5 10.0
339(10) 0.00980 335.5 10.1
346(10) 0.01011 335.6 10.1
376(10) 0.00987 335.6 10.2
345(10) 0.01074 335.6 10.3
342(10) 0.01028 335.7 10.4
358(11) 0.00893 335.7 10.5
362(10) 0.00967 335.7 10.7
324(9) 0.01153 335.8 10.8
355(10) 0.01031 335.8 11.0
334(10) 0.01052 335.8 11.2
337(10) 0.00966 335.9 11.5
348(10) 0.01027 335.9 11.7
348(10) 0.01066 335.9 12.0
354(10) 0.01048 335.9 12.4
383(10) 0.00912 336.0 12.7
349(10) 0.00956 336.0 13.2
331(10) 0.01068 336.0 13.6
369(10) 0.00989 336.1 14.1
367(10) 0.01004 336.1 14.7
359(10) 0.00989 336.1 15.3
354(10) 0.00956 336.2 16.0
348(10) 0.01032 336.2 16.7
364(10) 0.01019 336.2 17.5
367(10) 0.00987 336.3 18.5
377(11) 0.00888 336.3 19.5
356(10) 0.00944 336.3 20.6
352(10) 0.00979 336.4 21.7
358(10) 0.01047 336.4 23.0
385(10) 0.00950 336.4 24.4
402(11) 0.00867 336.5 25.9
371(11) 0.00882 336.5 27.6
371(10) 0.00933 336.5 29.3
385(10) 0.00969 336.6 31.1
355(10) 0.00969 336.6 33.0
351(10) 0.00983 336.6 35.0
389(11) 0.00878 336.7 37.0
377(10) 0.00929 336.7 39.1
391(10) 0.00949 336.7 41.2
370(10) 0.00953 336.8 43.2
373(10) 0.00923 336.8 45.2
392(11) 0.00880 336.8 47.1
388(10) 0.00915 336.9 48.9
385(10) 0.00962 336.9 50.5
384(11) 0.00906 336.9 52.0
400(11) 0.00836 337.0 53.4
369(10) 0.00964 337.0 54.7
389(10) 0.00937 337.0 55.9
368(10) 0.01010 337.1 57.1
401(11) 0.00849 337.1 58.2
396(11) 0.00852 337.1 59.3
418(11) 0.00818 337.2 60.4
387(10) 0.00930 337.2 61.4
407(10) 0.00908 337.2 62.3
414(11) 0.00838 337.3 63.3
402(11) 0.00840 337.3 64.1
392(11) 0.00904 337.3 64.8
411(10) 0.00910 337.4 65.4
407(11) 0.00891 337.4 65.9
396(11) 0.00893 337.4 66.2
404(11) 0.00785 337.5 66.4
401(11) 0.00877 337.5 66.4
404(10) 0.00923 337.5 66.2
403(10) 0.00924 337.6 65.9
422(11) 0.00819 337.6 65.3
449(12) 0.00713 337.6 64.6
422(11) 0.00867 337.7 63.7
418(11) 0.00897 337.7 62.6
436(11) 0.00851 337.7 61.4
367(10) 0.00951 337.8 60.1
398(11) 0.00815 337.8 58.8
421(11) 0.00814 337.8 57.3
388(10) 0.00955 337.9 55.8
402(11) 0.00868 337.9 54.2
370(10) 0.00916 337.9 52.7
391(11) 0.00833 338.0 51.1
395(11) 0.00881 338.0 49.6
363(10) 0.01030 338.0 48.0
407(11) 0.00897 338.1 46.6
409(11) 0.00837 338.1 45.1
372(10) 0.00937 338.1 43.8
393(11) 0.00877 338.2 42.5
364(10) 0.01023 338.2 41.3
381(10) 0.00944 338.2 40.2
393(11) 0.00859 338.3 39.2
392(11) 0.00856 338.3 38.4
387(11) 0.00886 338.3 37.7
352(10) 0.01061 338.4 37.0
380(11) 0.00899 338.4 36.4
370(10) 0.00924 338.4 36.0
395(11) 0.00864 338.5 35.6
379(10) 0.00919 338.5 35.4
381(10) 0.00987 338.5 35.3
397(11) 0.00856 338.6 35.3
358(10) 0.00943 338.6 35.4
372(11) 0.00898 338.6 35.7
358(10) 0.01008 338.7 36.0
362(10) 0.01032 338.7 36.5
373(10) 0.00934 338.7 37.2
376(11) 0.00894 338.8 37.9
383(11) 0.00872 338.8 38.9
411(11) 0.00886 338.8 39.9
397(10) 0.00936 338.9 41.2
368(10) 0.00960 338.9 42.6
389(11) 0.00859 338.9 44.2
372(10) 0.00932 339.0 46.0
360(10) 0.01000 339.0 48.0
372(10) 0.01004 339.0 50.1
376(10) 0.00932 339.1 52.4
400(11) 0.00820 339.1 54.9
409(11) 0.00882 339.1 57.5
409(11) 0.00893 339.2 60.2
408(10) 0.00917 339.2 63.0
434(11) 0.00801 339.2 65.8
396(11) 0.00847 339.3 68.7
394(11) 0.00879 339.3 71.6
398(10) 0.00938 339.3 74.4
395(10) 0.00936 339.4 77.2
409(11) 0.00852 339.4 79.8
386(11) 0.00832 339.4 82.2
414(11) 0.00810 339.5 84.3
437(11) 0.00855 339.5 86.2
408(11) 0.00892 339.5 87.6
399(11) 0.00873 339.6 88.6
421(11) 0.00765 339.6 89.3
427(11) 0.00820 339.6 89.5
384(10) 0.00960 339.7 89.4
392(10) 0.00919 339.7 89.4
421(11) 0.00827 339.7 90.0
423(11) 0.00794 339.8 92.2
400(11) 0.00872 339.8 97.0
427(11) 0.00878 339.8 105.0
437(11) 0.00806 339.9 115.3
414(11) 0.00854 339.9 125.3
450(12) 0.00748 339.9 131.2
438(11) 0.00796 340.0 129.4
390(10) 0.00960 340.0 119.4
433(11) 0.00787 340.0 104.0
388(11) 0.00900 340.1 87.5
408(11) 0.00839 340.1 72.9
402(11) 0.00872 340.1 61.7
370(10) 0.00999 340.2 53.8
389(11) 0.00885 340.2 48.4
393(11) 0.00852 340.2 44.5
394(11) 0.00865 340.3 41.3
362(10) 0.00993 340.3 38.6
374(10) 0.00996 340.3 36.2
359(10) 0.00962 340.4 33.9
369(11) 0.00900 340.4 31.8
379(11) 0.00906 340.4 29.8
371(10) 0.00975 340.5 28.0
346(10) 0.01076 340.5 26.4
395(11) 0.00886 340.5 24.9
390(11) 0.00831 340.6 23.5
361(10) 0.00944 340.6 22.3
368(10) 0.00978 340.6 21.2
371(10) 0.01009 340.7 20.1
357(10) 0.00980 340.7 19.3
379(11) 0.00835 340.7 18.5
352(10) 0.01005 340.8 17.8
357(10) 0.01044 340.8 17.2
378(10) 0.00951 340.8 16.7
320(9) 0.01119 340.9 16.2
330(10) 0.00982 340.9 15.9
369(10) 0.00952 340.9 15.6
375(10) 0.00983 341.0 15.4
354(10) 0.01062 341.0 15.3
350(10) 0.01013 341.0 15.2
361(11) 0.00890 341.1 15.2
390(11) 0.00872 341.1 15.3
376(10) 0.00997 341.1 15.5
371(10) 0.00975 341.2 15.8
349(10) 0.01009 341.2 16.1
368(11) 0.00873 341.2 16.6
383(11) 0.00897 341.3 17.3
386(10) 0.00954 341.3 18.2
377(10) 0.00982 341.3 19.6
386(11) 0.00879 341.4 21.5
376(11) 0.00873 341.4 24.3
352(10) 0.00967 341.4 28.5
425(11) 0.00880 341.4 34.5
435(11) 0.00840 341.5 43.1
433(11) 0.00781 341.5 54.7
445(11) 0.00778 341.5 69.3
490(12) 0.00724 341.6 86.7
561(12) 0.00670 341.6 105.6
550(13) 0.00629 341.6 124.0
536(13) 0.00622 341.7 138.4
550(13) 0.00605 341.7 145.2
553(13) 0.00626 341.7 142.2
478(11) 0.00782 341.8 130.4
466(12) 0.00754 341.8 113.2
457(12) 0.00733 341.8 94.2
421(11) 0.00801 341.9 76.1
386(10) 0.00909 341.9 60.4
377(10) 0.00986 341.9 47.7
396(11) 0.00892 342.0 38.0
386(11) 0.00882 342.0 31.1
392(10) 0.00920 342.0 26.4
410(11) 0.00899 342.1 23.2
371(10) 0.01004 342.1 21.1
367(10) 0.00973 342.1 19.7
378(11) 0.00844 342.2 18.8
358(10) 0.00962 342.2 18.2
376(10) 0.00981 342.2 17.9
385(10) 0.00968 342.3 17.7
361(10) 0.00972 342.3 17.7
373(11) 0.00885 342.3 17.8
356(10) 0.00963 342.4 18.1
365(10) 0.01018 342.4 18.5
378(10) 0.00980 342.4 19.0
370(10) 0.00946 342.5 19.6
359(11) 0.00869 342.5 20.4
346(10) 0.01005 342.5 21.3
387(10) 0.00947 342.6 22.3
374(10) 0.00999 342.6 23.4
378(11) 0.00906 342.6 24.7
365(10) 0.00913 342.7 26.0
362(10) 0.00957 342.7 27.3
382(10) 0.00968 342.7 28.7
374(10) 0.00961 342.8 30.1
386(11) 0.00895 342.8 31.5
394(11) 0.00850 342.8 32.7
409(11) 0.00855 342.9 33.8
368(10) 0.00996 342.9 34.8
419(11) 0.00872 342.9 35.5
387(11) 0.00892 343.0 35.9
394(11) 0.00847 343.0 36.0
414(11) 0.00831 343.0 35.8
359(10) 0.01038 343.1 35.4
387(10) 0.00920 343.1 34.8
367(10) 0.00943 343.1 34.0
404(11) 0.00828 343.2 33.1
388(11) 0.00880 343.2 32.1
337(10) 0.01090 343.2 31.1
382(10) 0.00921 343.3 30.2
401(11) 0.00841 343.3 29.3
387(10) 0.00920 343.3 28.6
375(10) 0.00959 343.4 27.9
367(10) 0.01017 343.4 27.4
349(10) 0.01020 343.4 27.0
366(10) 0.00946 343.5 26.9
358(10) 0.00976 343.5 27.0
388(10) 0.00910 343.5 27.3
380(10) 0.00976 343.6 27.9
395(11) 0.00857 343.6 28.9
394(11) 0.00863 343.6 30.4
406(11) 0.00871 343.7 32.5
404(11) 0.00878 343.7 35.4
426(11) 0.00875 343.7 39.3
407(11) 0.00874 343.8 44.3
422(11) 0.00806 343.8 50.7
417(11) 0.00871 343.8 58.7
471(11) 0.00781 343.9 68.3
461(11) 0.00789 343.9 79.6
456(11) 0.00767 343.9 92.5
491(12) 0.00690 344.0 106.6
466(11) 0.00766 344.0 121.3
515(12) 0.00724 344.0 135.7
542(12) 0.00684 344.1 148.5
537(13) 0.00639 344.1 158.0
535(13) 0.00595 344.1 162.7
508(12) 0.00697 344.2 161.7
498(12) 0.00746 344.2 155.3
507(12) 0.00727 344.2 144.7
494(12) 0.00694 344.3 131.5
431(11) 0.00768 344.3 117.2
430(11) 0.00815 344.3 103.1
451(11) 0.00839 344.4 89.8
413(11) 0.00887 344.4 77.8
439(11) 0.00775 344.4 67.5
424(12) 0.00756 344.5 58.8
417(11) 0.00837 344.5 51.7
400(10) 0.00932 344.5 46.0
380(10) 0.00952 344.6 41.6
412(11) 0.00856 344.6 38.1
386(11) 0.00879 344.6 35.4
396(11) 0.00873 344.7 33.3
401(10) 0.00918 344.7 31.7
395(10) 0.00927 344.7 30.3
374(10) 0.00932 344.8 29.1
370(10) 0.00919 344.8 27.9
385(10) 0.00909 344.8 26.8
376(10) 0.00985 344.9 25.7
388(10) 0.00911 344.9 24.6
366(10) 0.00927 344.9 23.4
373(11) 0.00868 345.0 22.3
343(10) 0.01007 345.0 21.2
391(10) 0.00957 345.0 20.2
387(10) 0.00907 345.1 19.1
369(11) 0.00880 345.1 18.2
365(10) 0.00924 345.1 17.3
346(10) 0.01016 345.2 16.4
320(9) 0.01153 345.2 15.6
362(10) 0.00947 345.2 14.9
392(11) 0.00873 345.3 14.2
327(10) 0.01076 345.3 13.6
363(10) 0.00997 345.3 13.0
363(10) 0.01026 345.4 12.5
382(10) 0.00927 345.4 12.0
364(10) 0.00951 345.4 11.5
378(11) 0.00903 345.5 11.1
368(10) 0.00973 345.5 10.8
361(10) 0.01026 345.5 10.4
351(10) 0.00990 345.6 10.1
333(10) 0.00976 345.6 9.8
337(10) 0.01034 345.6 9.5
348(10) 0.01077 345.7 9.3
361(10) 0.01029 345.7 9.1
340(10) 0.01049 345.7 8.9
363(11) 0.00883 345.8 8.7
350(10) 0.00982 345.8 8.6
371(10) 0.01012 345.8 8.4
365(10) 0.01018 345.9 8.3
374(10) 0.00918 345.9 8.2
371(11) 0.00853 345.9 8.2
364(10) 0.00967 346.0 8.1
355(10) 0.01064 346.0 8.1
355(10) 0.01020 346.0 8.1
369(10) 0.00962 346.1 8.1
356(10) 0.00913 346.1 8.1
356(10) 0.00935 346.1 8.2
351(10) 0.01065 346.2 8.3
382(10) 0.00949 346.2 8.4
361(10) 0.00982 346.2 8.5
360(10) 0.00940 346.3 8.7
367(10) 0.00945 346.3 8.9
359(10) 0.01047 346.3 9.2
345(10) 0.01038 346.4 9.5
394(11) 0.00878 346.4 9.9
361(10) 0.00950 346.4 10.3
376(10) 0.00909 346.5 10.8
359(10) 0.01040 346.5 11.3
383(10) 0.00946 346.5 12.0
394(11) 0.00877 346.6 12.8
342(10) 0.01025 346.6 13.9
382(11) 0.00900 346.6 15.2
375(10) 0.00997 346.7 16.9
392(11) 0.00896 346.7 19.1
378(11) 0.00892 346.7 22.0
364(10) 0.00986 346.8 26.0
382(10) 0.00958 346.8 31.2
416(11) 0.00900 346.8 38.1
387(10) 0.00921 346.9 46.9
426(11) 0.00785 346.9 57.9
403(11) 0.00837 346.9 71.3
447(11) 0.00799 347.0 87.0
455(11) 0.00815 347.0 104.5
452(11) 0.00773 347.0 123.3
488(12) 0.00684 347.0 142.0
487(12) 0.00741 347.1 158.8
529(12) 0.00692 347.1 171.3
524(12) 0.00712 347.1 177.3
537(13) 0.00624 347.2 175.4
509(12) 0.00653 347.2 166.1
502(12) 0.00697 347.2 151.3
461(11) 0.00793 347.3 133.3
463(11) 0.00812 347.3 114.4
440(11) 0.00801 347.3 96.1
421(11) 0.00806 347.4 79.3
401(10) 0.00915 347.4 64.8
383(10) 0.00974 347.4 52.5
377(10) 0.00990 347.5 42.5
366(10) 0.00976 347.5 34.7
366(11) 0.00873 347.5 28.7
378(10) 0.00914 347.6 24.1
373(10) 0.00992 347.6 20.7
366(10) 0.01019 347.6 18.2
410(11) 0.00832 347.7 16.3
390(11) 0.00832 347.7 14.8
358(10) 0.00999 347.7 13.8
367(10) 0.01010 347.8 12.9
357(10) 0.01022 347.8 12.3
347(10) 0.01019 347.8 11.8
381(11) 0.00846 347.9 11.5
363(10) 0.00935 347.9 11.2
359(10) 0.01047 347.9 11.1
341(10) 0.01067 348.0 11.0
337(10) 0.01014 348.0 11.1
343(10) 0.01004 348.0 11.3
367(10) 0.00913 348.1 11.5
350(10) 0.01061 348.1 11.9
357(10) 0.00988 348.1 12.3
357(10) 0.00932 348.2 12.8
352(10) 0.00938 348.2 13.5
352(10) 0.00980 348.2 14.2
367(10) 0.01012 348.3 15.0
349(10) 0.01039 348.3 15.8
362(10) 0.00945 348.3 16.8
352(10) 0.01006 348.4 17.7
357(10) 0.00979 348.4 18.7
370(10) 0.01004 348.4 19.7
365(10) 0.00961 348.5 20.6
340(10) 0.00997 348.5 21.5
326(10) 0.01083 348.5 22.2
357(10) 0.00981 348.6 22.7
335(9) 0.01122 348.6 23.1
358(10) 0.00954 348.6 23.2
396(11) 0.00831 348.7 23.0
374(10) 0.00909 348.7 22.7
368(10) 0.00995 348.7 22.1
352(10) 0.01060 348.8 21.3
355(10) 0.01004 348.8 20.3
384(11) 0.00863 348.8 19.3
355(10) 0.00947 348.9 18.2
361(10) 0.00993 348.9 17.0
348(10) 0.01063 348.9 15.9
368(10) 0.00959 349.0 14.8
350(10) 0.00941 349.0 13.7
351(10) 0.01013 349.0 12.7
387(10) 0.00948 349.1 11.7
358(10) 0.01045 349.1 10.9
342(10) 0.01008 349.1 10.1
325(10) 0.01055 349.2 9.3
358(10) 0.00983 349.2 8.7
350(10) 0.01049 349.2 8.1
365(10) 0.01012 349.3 7.5
358(10) 0.00967 349.3 7.1
373(11) 0.00821 349.3 6.7
339(10) 0.00989 349.4 6.3
333(9) 0.01134 349.4 6.0
351(10) 0.01037 349.4 5.7
343(10) 0.01053 349.5 5.5
361(10) 0.00926 349.5 5.3
345(10) 0.01004 349.5 5.1
348(10) 0.01061 349.6 5.0
342(10) 0.01079 349.6 4.8
350(10) 0.00979 349.6 4.7
344(10) 0.00990 349.7 4.6
348(10) 0.00967 349.7 4.5
348(10) 0.01078 349.7 4.5
353(10) 0.01027 349.8 4.4
359(10) 0.00971 349.8 4.4
364(10) 0.00926 349.8 4.3
343(10) 0.01041 349.9 4.3
347(10) 0.01083 349.9 4.2
357(10) 0.00993 349.9 4.2
337(10) 0.01051 350.0 4.2
372(11) 0.00889 350.0 4.2
340(10) 0.01040 350.0 4.2
340(10) 0.01092 350.1 4.2
329(10) 0.01102 350.1 4.2
349(10) 0.00973 350.1 4.1
365(10) 0.00936 350.2 4.2
336(10) 0.01087 350.2 4.2
387(10) 0.00954 350.2 4.2
348(10) 0.01052 350.3 4.2
336(10) 0.01008 350.3 4.2
355(10) 0.00973 350.3 4.3
348(10) 0.01080 350.4 4.3
350(10) 0.01067 350.4 4.3
343(10) 0.01010 350.4 4.4
341(10) 0.00998 350.5 4.4
336(10) 0.01037 350.5 4.5
349(10) 0.01050 350.5 4.5
360(10) 0.01038 350.5 4.6
335(10) 0.01059 350.6 4.7
358(10) 0.00952 350.6 4.8
357(10) 0.00955 350.6 4.9
356(10) 0.01026 350.6 5.0
353(10) 0.01059 350.7 5.1
337(10) 0.01043 350.7 5.2
341(10) 0.00944 350.7 5.4
312(9) 0.01114 350.7 5.5
349(10) 0.01041 350.8 5.7
357(10) 0.01032 350.8 5.9
360(10) 0.00986 350.8 6.1
350(10) 0.00934 350.8 6.3
355(10) 0.00949 350.9 6.5
343(10) 0.01095 350.9 6.8
346(10) 0.01087 350.9 7.0
360(10) 0.00963 350.9 7.3
366(11) 0.00900 351.0 7.6
366(10) 0.00943 351.0 7.9
374(10) 0.00991 351.0 8.3
357(10) 0.01036 351.0 8.6
357(10) 0.00995 351.1 8.9
370(11) 0.00883 351.1 9.3
381(10) 0.00914 351.1 9.7
349(10) 0.01058 351.1 10.0
356(10) 0.01025 351.2 10.4
342(10) 0.01023 351.2 10.8
365(10) 0.00941 351.2 11.1
349(10) 0.01021 351.2 11.4
370(10) 0.01006 351.3 11.7
361(10) 0.00977 351.3 12.0
369(10) 0.00934 351.3 12.2
355(10) 0.00928 351.3 12.4
368(10) 0.00914 351.4 12.6
382(10) 0.00967 351.4 12.7
353(10) 0.00996 351.4 12.8
387(11) 0.00877 351.4 12.8
351(10) 0.00994 351.5 12.8
365(10) 0.00982 351.5 12.8
362(10) 0.01028 351.5 12.7
361(10) 0.00940 351.5 12.6
335(10) 0.01015 351.6 12.5
360(10) 0.00959 351.6 12.4
359(10) 0.01026 351.6 12.3
379(10) 0.00979 351.6 12.2
375(10) 0.00930 351.7 12.1
346(10) 0.00965 351.7 12.0
381(11) 0.00885 351.7 12.0
341(10) 0.01095 351.7 11.9
376(10) 0.00977 351.8 11.9
349(10) 0.01001 351.8 12.0
364(11) 0.00882 351.8 12.0
368(10) 0.00929 351.8 12.2
358(10) 0.01034 351.8 12.3
352(10) 0.01059 351.9 12.5
370(10) 0.00943 351.9 12.8
381(11) 0.00841 351.9 13.1
331(10) 0.01089 351.9 13.4
393(10) 0.00922 352.0 13.8
336(10) 0.01097 352.0 14.2
334(10) 0.01068 352.0 14.7
346(10) 0.00959 352.0 15.3
366(10) 0.00944 352.1 15.9
331(9) 0.01109 352.1 16.5
345(10) 0.01059 352.1 17.3
365(10) 0.00943 352.1 18.0
369(11) 0.00889 352.2 18.9
367(10) 0.00922 352.2 19.8
350(10) 0.01057 352.2 20.8
361(10) 0.01014 352.2 21.8
384(11) 0.00899 352.3 22.9
359(10) 0.00937 352.3 24.0
375(10) 0.00907 352.3 25.2
357(10) 0.01043 352.3 26.5
349(10) 0.01050 352.4 27.8
408(11) 0.00831 352.4 29.2
364(10) 0.00909 352.4 30.6
360(10) 0.00967 352.4 32.1
379(10) 0.00979 352.5 33.6
390(10) 0.00923 352.5 35.2
367(10) 0.00914 352.5 36.8
357(10) 0.00927 352.5 38.4
369(10) 0.00957 352.6 40.1
398(10) 0.00935 352.6 41.7
389(11) 0.00901 352.6 43.4
408(11) 0.00830 352.6 45.1
386(11) 0.00898 352.7 46.8
382(10) 0.00938 352.7 48.5
419(11) 0.00901 352.7 50.1
426(11) 0.00804 352.7 51.7
379(10) 0.00924 352.8 53.2
408(11) 0.00837 352.8 54.7
416(11) 0.00864 352.8 56.2
394(10) 0.00938 352.8 57.5
389(11) 0.00878 352.9 58.9
382(11) 0.00864 352.9 60.1
408(11) 0.00848 352.9 61.3
379(10) 0.00975 352.9 62.4
421(11) 0.00885 353.0 63.4
391(10) 0.00935 353.0 64.5
395(11) 0.00839 353.0 65.4
413(11) 0.00842 353.0 66.4
428(11) 0.00852 353.1 67.3
421(11) 0.00893 353.1 68.2
437(11) 0.00806 353.1 69.1
437(11) 0.00759 353.1 70.0
428(11) 0.00819 353.2 70.8
430(11) 0.00868 353.2 71.6
429(11) 0.00856 353.2 72.3
425(11) 0.00821 353.2 72.8
438(12) 0.00730 353.3 73.2
417(11) 0.00880 353.3 73.3
418(11) 0.00884 353.3 73.0
399(10) 0.00933 353.3 72.2
417(11) 0.00845 353.4 71.0
398(11) 0.00827 353.4 69.1
415(11) 0.00820 353.4 66.7
396(10) 0.00954 353.4 63.8
409(11) 0.00888 353.4 60.6
397(11) 0.00882 353.5 57.2
425(11) 0.00767 353.5 53.8
420(11) 0.00816 353.5 50.6
434(11) 0.00849 353.5 47.5
418(11) 0.00848 353.6 44.7
388(11) 0.00864 353.6 42.1
389(11) 0.00864 353.6 39.8
395(11) 0.00878 353.6 37.7
419(11) 0.00890 353.7 35.9
396(10) 0.00924 353.7 34.3
402(11) 0.00883 353.7 33.0
417(11) 0.00806 353.7 31.8
382(10) 0.00944 353.8 30.8
385(10) 0.00970 353.8 30.1
402(11) 0.00873 353.8 29.4
371(10) 0.00936 353.8 28.9
375(10) 0.00918 353.9 28.6
387(10) 0.00932 353.9 28.4
379(10) 0.00974 353.9 28.3
396(11) 0.00905 353.9 28.3
373(10) 0.00909 354.0 28.4
383(11) 0.00901 354.0 28.6
386(10) 0.00945 354.0 28.8
427(11) 0.00870 354.0 29.2
407(11) 0.00834 354.1 29.5
388(11) 0.00866 354.1 30.0
399(11) 0.00857 354.1 30.5
412(11) 0.00890 354.1 31.1
408(10) 0.00925 354.2 31.7
425(11) 0.00805 354.2 32.3
398(11) 0.00839 354.2 32.9
386(10) 0.00930 354.2 33.6
416(11) 0.00875 354.3 34.3
386(10) 0.00969 354.3 35.0
367(10) 0.00974 354.3 35.7
407(11) 0.00811 354.3 36.4
427(11) 0.00825 354.4 37.1
419(11) 0.00885 354.4 37.8
393(10) 0.00949 354.4 38.5
380(10) 0.00917 354.4 39.1
394(11) 0.00811 354.5 39.6
406(11) 0.00844 354.5 40.2
397(10) 0.00933 354.5 40.7
381(10) 0.00967 354.5 41.1
393(11) 0.00829 354.6 41.4
404(11) 0.00779 354.6 41.7
384(10) 0.00916 354.6 41.9
402(10) 0.00938 354.6 42.0
372(10) 0.00991 354.7 42.1
414(11) 0.00829 354.7 42.0
404(11) 0.00810 354.7 41.9
418(11) 0.00799 354.7 41.7
378(10) 0.00994 354.8 41.5
386(10) 0.00952 354.8 41.1
359(10) 0.00969 354.8 40.7
367(10) 0.00908 354.8 40.3
372(10) 0.00943 354.9 39.8
371(10) 0.00994 354.9 39.3
399(11) 0.00891 354.9 38.7
378(10) 0.00941 354.9 38.1
383(11) 0.00889 355.0 37.5
381(11) 0.00887 355.0 36.9
399(10) 0.00930 355.0 36.2
394(11) 0.00907 355.0 35.6
386(10) 0.00907 355.1 35.0
372(10) 0.00917 355.1 34.3
390(11) 0.00861 355.1 33.7
385(10) 0.00968 355.1 33.1
371(10) 0.00945 355.1 32.5
372(10) 0.00917 355.2 32.0
378(11) 0.00892 355.2 31.4
378(10) 0.00964 355.2 30.9
370(10) 0.01006 355.2 30.4
403(11) 0.00859 355.3 29.9
400(11) 0.00854 355.3 29.5
384(10) 0.00927 355.3 29.1
375(10) 0.00971 355.3 28.6
386(10) 0.00958 355.4 28.2
385(11) 0.00893 355.4 27.8
389(11) 0.00890 355.4 27.5
382(11) 0.00901 355.4 27.1
408(11) 0.00891 355.5 26.7
369(10) 0.01005 355.5 26.3
388(11) 0.00874 355.5 25.9
372(11) 0.00871 355.5 25.5
372(10) 0.00951 355.6 25.1
368(10) 0.00990 355.6 24.7
389(10) 0.00955 355.6 24.3
394(11) 0.00894 355.6 23.8
378(11) 0.00876 355.7 23.4
377(10) 0.00924 355.7 23.0
352(10) 0.01058 355.7 22.6
393(10) 0.00938 355.7 22.2
396(11) 0.00905 355.8 21.9
370(11) 0.00885 355.8 21.5
370(10) 0.00908 355.8 21.3
361(10) 0.01034 355.8 21.0
368(10) 0.00998 355.9 20.9
384(10) 0.00931 355.9 20.8
388(11) 0.00841 355.9 20.9
380(10) 0.00938 355.9 21.0
361(10) 0.01026 356.0 21.4
355(10) 0.01047 356.0 21.9
389(11) 0.00901 356.0 22.6
396(11) 0.00843 356.0 23.5
398(11) 0.00872 356.1 24.7
374(10) 0.00995 356.1 26.2
376(10) 0.00965 356.1 27.9
399(11) 0.00859 356.1 29.9
379(11) 0.00897 356.2 32.1
408(11) 0.00845 356.2 34.5
388(10) 0.00964 356.2 37.0
396(11) 0.00887 356.2 39.5
387(11) 0.00902 356.3 41.7
391(11) 0.00899 356.3 43.4
404(11) 0.00855 356.3 44.4
391(10) 0.00954 356.3 44.6
429(11) 0.00793 356.4 43.9
393(11) 0.00869 356.4 42.2
387(10) 0.00910 356.4 40.0
383(10) 0.00932 356.4 37.3
383(10) 0.00966 356.5 34.3
389(11) 0.00848 356.5 31.3
384(11) 0.00878 356.5 28.4
388(11) 0.00885 356.5 25.7
376(10) 0.00964 356.6 23.2
353(10) 0.01049 356.6 21.0
362(10) 0.00938 356.6 19.1
355(10) 0.00910 356.6 17.5
353(10) 0.01013 356.7 16.1
413(11) 0.00894 356.7 15.0
397(10) 0.00935 356.7 14.1
397(11) 0.00883 356.7 13.3
395(11) 0.00822 356.7 12.7
363(10) 0.00957 356.8 12.3
367(10) 0.01026 356.8 11.9
381(10) 0.00965 356.8 11.6
357(10) 0.01001 356.8 11.4
394(11) 0.00805 356.9 11.2
369(10) 0.00969 356.9 11.1
374(10) 0.00991 356.9 11.1
365(10) 0.01028 356.9 11.1
384(10) 0.00917 357.0 11.1
364(11) 0.00859 357.0 11.2
343(10) 0.01014 357.0 11.3
379(10) 0.00980 357.0 11.4
356(10) 0.01044 357.1 11.6
353(10) 0.00998 357.1 11.9
372(11) 0.00873 357.1 12.3
379(11) 0.00892 357.1 12.8
387(10) 0.00964 357.2 13.4
395(10) 0.00915 357.2 14.1
363(10) 0.00968 357.2 15.1
390(11) 0.00841 357.2 16.3
381(10) 0.00909 357.3 17.9
396(10) 0.00947 357.3 19.8
401(11) 0.00901 357.3 22.2
380(10) 0.00915 357.3 25.2
381(11) 0.00896 357.4 28.8
423(11) 0.00792 357.4 33.1
390(10) 0.00954 357.4 38.2
422(11) 0.00855 357.4 44.0
387(10) 0.00921 357.5 50.6
432(11) 0.00811 357.5 57.8
432(11) 0.00819 357.5 65.5
409(11) 0.00903 357.5 73.4
444(11) 0.00778 357.6 81.3
459(12) 0.00738 357.6 88.6
463(12) 0.00748 357.6 94.6
472(12) 0.00750 357.6 98.8
484(11) 0.00776 357.7 100.7
478(12) 0.00746 357.7 100.0
483(12) 0.00701 357.7 96.7
484(12) 0.00701 357.7 91.4
451(11) 0.00796 357.8 84.5
433(11) 0.00860 357.8 76.8
430(11) 0.00800 357.8 68.8
424(11) 0.00777 357.8 60.9
421(11) 0.00845 357.9 53.4
432(11) 0.00857 357.9 46.5
394(10) 0.00946 357.9 40.2
394(11) 0.00886 357.9 34.8
404(11) 0.00819 358.0 30.1
417(11) 0.00840 358.0 26.1
408(10) 0.00912 358.0 22.8
380(10) 0.00963 358.0 20.0
382(11) 0.00903 358.1 17.8
392(11) 0.00836 358.1 16.0
369(10) 0.00945 358.1 14.6
370(10) 0.01008 358.1 13.4
387(10) 0.00957 358.2 12.5
373(11) 0.00888 358.2 11.7
371(11) 0.00865 358.2 11.1
375(10) 0.00955 358.2 10.6
369(10) 0.01015 358.3 10.2
375(10) 0.00978 358.3 9.8
370(10) 0.00958 358.3 9.5
359(10) 0.00948 358.3 9.3
373(10) 0.00935 358.4 9.1
369(10) 0.01006 358.4 8.9
342(10) 0.01085 358.4 8.7
365(10) 0.00952 358.4 8.6
389(11) 0.00836 358.4 8.5
389(11) 0.00871 358.5 8.4
358(10) 0.01038 358.5 8.3
351(10) 0.01043 358.5 8.3
339(10) 0.01016 358.5 8.3
344(10) 0.00930 358.6 8.2
375(11) 0.00867 358.6 8.2
370(10) 0.01009 358.6 8.2
355(10) 0.01034 358.6 8.2
363(10) 0.00952 358.7 8.3
367(10) 0.00922 358.7 8.3
342(10) 0.01000 358.7 8.3
352(10) 0.01067 358.7 8.4
373(10) 0.00985 358.8 8.5
373(10) 0.00922 358.8 8.5
363(10) 0.00979 358.8 8.6
374(10) 0.00951 358.8 8.7
339(10) 0.01100 358.9 8.8
322(10) 0.01091 358.9 8.9
375(11) 0.00884 358.9 9.0
362(10) 0.00940 358.9 9.1
370(10) 0.00930 359.0 9.3
345(10) 0.01088 359.0 9.4
342(10) 0.00965 359.0 9.5
372(11) 0.00871 359.0 9.7
391(11) 0.00876 359.1 9.8
378(10) 0.00961 359.1 10.0
405(10) 0.00919 359.1 10.1
357(10) 0.00993 359.1 10.3
357(10) 0.00936 359.2 10.4
378(11) 0.00881 359.2 10.6
362(10) 0.01017 359.2 10.8
357(10) 0.01022 359.2 11.0
359(10) 0.00966 359.3 11.2
345(10) 0.00930 359.3 11.3
352(10) 0.01005 359.3 11.5
344(10) 0.01075 359.3 11.7
354(10) 0.01041 359.4 11.9
352(10) 0.00997 359.4 12.1
355(11) 0.00906 359.4 12.3
361(10) 0.00959 359.4 12.5
356(10) 0.01029 359.5 12.7
357(10) 0.01057 359.5 12.9
374(10) 0.00945 359.5 13.1
366(11) 0.00873 359.5 13.2
396(11) 0.00849 359.6 13.4
357(10) 0.01045 359.6 13.6
378(10) 0.00982 359.6 13.8
358(10) 0.00985 359.6 14.0
342(10) 0.01005 359.7 14.2
361(10) 0.00978 359.7 14.3
376(10) 0.00984 359.7 14.5
361(10) 0.01017 359.7 14.7
412(11) 0.00861 359.8 14.8
371(10) 0.00912 359.8 15.0
378(11) 0.00897 359.8 15.1
356(10) 0.01048 359.8 15.3
389(10) 0.00914 359.8 15.4
372(10) 0.00965 359.9 15.5
371(10) 0.00933 359.9 15.7
372(10) 0.00912 359.9 15.8
379(10) 0.00976 359.9 15.9
372(10) 0.00973 359.9 16.0
353(10) 0.00981 360.0 16.1
346(10) 0.00980 360.0 16.2
369(10) 0.00961 360.0 16.3
371(10) 0.01006 360.0 16.3
367(10) 0.00952 360.0 16.4
398(11) 0.00851 360.0 16.5
353(10) 0.00974 360.1 16.6
383(10) 0.00949 360.1 16.6
367(10) 0.01019 360.1 16.7
379(10) 0.00949 360.1 16.7
352(10) 0.00959 360.1 16.8
371(11) 0.00873 360.1 16.8
364(10) 0.00996 360.2 16.9
371(10) 0.01009 360.2 16.9
372(10) 0.00916 360.2 16.9
358(10) 0.00973 360.2 17.0
388(11) 0.00888 360.2 17.0
353(10) 0.01031 360.2 17.1
363(10) 0.01020 360.3 17.1
367(10) 0.00955 360.3 17.1
368(11) 0.00897 360.3 17.1
365(10) 0.00943 360.3 17.1
388(10) 0.00942 360.3 17.2
384(10) 0.00976 360.3 17.2
404(11) 0.00882 360.4 17.2
382(11) 0.00874 360.4 17.2
370(10) 0.00931 360.4 17.2
378(10) 0.00968 360.4 17.2
357(10) 0.01060 360.4 17.2
392(11) 0.00861 360.4 17.2
379(11) 0.00856 360.5 17.3
359(10) 0.00961 360.5 17.3
377(10) 0.00983 360.5 17.3
354(10) 0.01029 360.5 17.3
382(10) 0.00929 360.5 17.3
373(11) 0.00897 360.5 17.3
391(11) 0.00871 360.6 17.3
395(10) 0.00943 360.6 17.3
386(10) 0.00962 360.6 17.4
397(11) 0.00872 360.6 17.4
373(11) 0.00894 360.6 17.4
361(10) 0.00957 360.7 17.4
371(10) 0.01009 360.7 17.5
367(10) 0.01012 360.7 17.5
343(10) 0.01069 360.7 17.5
393(11) 0.00855 360.7 17.6
381(11) 0.00888 360.7 17.6
348(10) 0.01059 360.8 17.7
372(10) 0.01000 360.8 17.7
368(10) 0.00928 360.8 17.8
381(11) 0.00876 360.8 17.8
374(10) 0.00962 360.8 17.9
375(10) 0.00998 360.8 18.0
390(11) 0.00885 360.9 18.0
389(11) 0.00872 360.9 18.1
356(10) 0.00963 360.9 18.2
376(10) 0.00965 360.9 18.3
388(10) 0.00948 360.9 18.3
380(10) 0.00917 360.9 18.4
369(10) 0.00931 361.0 18.5
382(11) 0.00906 361.0 18.6
364(10) 0.00963 361.0 18.7
370(10) 0.01007 361.0 18.8
383(10) 0.00915 361.0 18.9
382(11) 0.00848 361.0 19.0
365(10) 0.00946 361.1 19.0
367(10) 0.00993 361.1 19.1
375(10) 0.00978 361.1 19.2
378(10) 0.00929 361.1 19.3
381(11) 0.00822 361.1 19.4
366(10) 0.00929 361.1 19.4
391(10) 0.00917 361.2 19.5
377(10) 0.00987 361.2 19.6
421(11) 0.00821 361.2 19.6
397(11) 0.00825 361.2 19.7
364(10) 0.00972 361.2 19.7
366(10) 0.01011 361.3 19.8
386(10) 0.00962 361.3 19.8
371(10) 0.00973 361.3 19.9
405(11) 0.00792 361.3 19.9
397(11) 0.00857 361.3 20.0
327(9) 0.01150 361.3 20.1
375(10) 0.00972 361.4 20.3
372(10) 0.00951 361.4 20.6
370(11) 0.00902 361.4 20.9
400(11) 0.00884 361.4 21.5
374(10) 0.01004 361.4 22.3
350(10) 0.01046 361.4 23.5
383(10) 0.00916 361.5 25.1
413(11) 0.00799 361.5 27.3
401(11) 0.00838 361.5 30.1
400(10) 0.00930 361.5 33.5
396(10) 0.00917 361.5 37.4
388(10) 0.00938 361.5 41.6
440(11) 0.00759 361.6 45.8
422(11) 0.00828 361.6 49.2
394(10) 0.00934 361.6 51.3
459(11) 0.00760 361.6 51.5
409(11) 0.00855 361.6 49.6
373(11) 0.00904 361.6 46.3
392(11) 0.00902 361.7 42.1
406(10) 0.00913 361.7 37.8
405(11) 0.00872 361.7 33.7
360(10) 0.00955 361.7 30.1
371(10) 0.00910 361.7 27.1
377(10) 0.00910 361.7 24.7
376(10) 0.00986 361.8 22.9
373(11) 0.00907 361.8 21.5
372(11) 0.00899 361.8 20.6
364(10) 0.00908 361.8 20.0
365(10) 0.00991 361.8 19.5
390(10) 0.00959 361.8 19.3
368(10) 0.00917 361.9 19.1
367(11) 0.00896 361.9 18.9
373(10) 0.00929 361.9 18.8
376(10) 0.00963 361.9 18.8
383(10) 0.00954 361.9 18.7
351(10) 0.00989 362.0 18.7
384(11) 0.00850 362.0 18.6
370(10) 0.00994 362.0 18.6
391(10) 0.00959 362.0 18.5
394(10) 0.00930 362.0 18.4
375(10) 0.00952 362.0 18.3
409(11) 0.00777 362.1 18.2
377(11) 0.00905 362.1 18.1
354(10) 0.01040 362.1 18.0
343(10) 0.01096 362.1 17.8
354(10) 0.00979 362.1 17.6
375(11) 0.00844 362.1 17.4
344(10) 0.00999 362.2 17.2
374(10) 0.00990 362.2 16.9
401(10) 0.00917 362.2 16.7
359(10) 0.00993 362.2 16.4
371(11) 0.00904 362.2 16.1
405(11) 0.00811 362.2 15.8
362(10) 0.01032 362.3 15.5
352(10) 0.01044 362.3 15.2
391(11) 0.00882 362.3 14.9
352(10) 0.00954 362.3 14.6
346(10) 0.01014 362.3 14.3
367(10) 0.01011 362.3 14.0
386(10) 0.00950 362.4 13.7
393(11) 0.00902 362.4 13.4
388(11) 0.00873 362.4 13.2
359(10) 0.00931 362.4 12.9
343(10) 0.01088 362.4 12.7
361(10) 0.01018 362.4 12.5
379(10) 0.00913 362.5 12.3
374(10) 0.00935 362.5 12.1
384(10) 0.00926 362.5 12.0
373(10) 0.01003 362.5 11.8
364(10) 0.00987 362.5 11.7
360(10) 0.00957 362.5 11.7
354(10) 0.00989 362.6 11.6
346(10) 0.01014 362.6 11.6
371(10) 0.01014 362.6 11.6
364(10) 0.00941 362.6 11.7
367(11) 0.00905 362.6 11.7
371(10) 0.00947 362.7 11.8
385(10) 0.00934 362.7 11.9
387(10) 0.00962 362.7 12.0
364(10) 0.00954 362.7 12.2
372(11) 0.00895 362.7 12.3
375(10) 0.00919 362.7 12.5
369(10) 0.00989 362.8 12.8
381(10) 0.00981 362.8 13.0
372(10) 0.00913 362.8 13.3
372(10) 0.00908 362.8 13.6
368(10) 0.00967 362.8 14.0
348(10) 0.01049 362.8 14.3
364(10) 0.01014 362.9 14.7
367(10) 0.00937 362.9 15.1
366(11) 0.00890 362.9 15.5
366(10) 0.00969 362.9 16.0
372(10) 0.00991 362.9 16.6
368(10) 0.01012 362.9 17.3
361(10) 0.00984 363.0 18.1
366(11) 0.00885 363.0 19.1
353(10) 0.00964 363.0 20.4
367(10) 0.01007 363.0 22.1
395(10) 0.00936 363.0 24.3
370(10) 0.00970 363.0 27.2
383(11) 0.00860 363.1 30.8
388(10) 0.00908 363.1 35.3
386(10) 0.00955 363.1 40.6
407(10) 0.00908 363.1 46.8
377(10) 0.00939 363.1 53.7
395(11) 0.00827 363.1 61.0
390(11) 0.00869 363.2 68.2
406(10) 0.00926 363.2 74.8
419(11) 0.00884 363.2 79.7
417(11) 0.00857 363.2 82.2
444(12) 0.00754 363.2 81.6
442(11) 0.00784 363.3 78.2
424(11) 0.00880 363.3 72.6
391(10) 0.00924 363.3 65.5
411(11) 0.00844 363.3 58.0
395(11) 0.00861 363.3 50.5
372(10) 0.00935 363.3 43.6
370(10) 0.00985 363.4 37.5
379(10) 0.00946 363.4 32.2
370(10) 0.00924 363.4 27.9
388(11) 0.00880 363.4 24.5
358(10) 0.01003 363.4 22.0
362(10) 0.01027 363.4 20.0
371(10) 0.00948 363.5 18.7
366(11) 0.00890 363.5 17.8
379(11) 0.00897 363.5 17.4
407(11) 0.00892 363.5 17.3
392(10) 0.00944 363.5 17.5
366(10) 0.00970 363.5 18.0
382(11) 0.00865 363.6 18.7
388(11) 0.00868 363.6 19.8
383(10) 0.00934 363.6 21.1
391(10) 0.00954 363.6 22.7
403(11) 0.00886 363.6 24.6
412(11) 0.00799 363.6 26.7
399(11) 0.00872 363.7 29.1
375(10) 0.00949 363.7 31.8
407(10) 0.00922 363.7 34.5
407(11) 0.00864 363.7 37.4
394(11) 0.00857 363.7 40.3
389(11) 0.00906 363.7 43.0
416(11) 0.00865 363.8 45.3
373(10) 0.01001 363.8 47.1
421(11) 0.00820 363.8 48.3
395(11) 0.00839 363.8 48.8
385(11) 0.00892 363.8 48.5
402(10) 0.00921 363.8 47.6
388(10) 0.00953 363.9 46.3
401(11) 0.00852 363.9 44.6
400(11) 0.00822 363.9 42.7
398(11) 0.00874 363.9 40.9
385(10) 0.00966 363.9 39.1
405(11) 0.00907 364.0 37.5
389(10) 0.00916 364.0 36.2
393(11) 0.00846 364.0 35.1
392(11) 0.00887 364.0 34.3
394(10) 0.00936 364.0 33.7
414(11) 0.00887 364.0 33.4
378(10) 0.00947 364.1 33.4
375(11) 0.00900 364.1 33.5
389(11) 0.00906 364.1 33.8
358(10) 0.01025 364.1 34.2
381(10) 0.00949 364.1 34.7
396(11) 0.00869 364.1 35.3
418(11) 0.00786 364.2 35.8
409(11) 0.00826 364.2 36.3
358(10) 0.01049 364.2 36.7
381(10) 0.00923 364.2 36.9
386(11) 0.00893 364.2 37.0
387(11) 0.00889 364.2 36.9
359(10) 0.01000 364.3 36.7
391(10) 0.00944 364.3 36.2
386(10) 0.00917 364.3 35.6
386(11) 0.00879 364.3 34.9
375(10) 0.00938 364.3 34.0
389(10) 0.00912 364.3 33.0
383(10) 0.00972 364.4 31.9
358(10) 0.00984 364.4 30.7
358(10) 0.00968 364.4 29.5
387(11) 0.00873 364.4 28.3
369(10) 0.00975 364.4 27.0
396(10) 0.00935 364.4 25.8
359(10) 0.00977 364.5 24.6
349(10) 0.00944 364.5 23.4
369(10) 0.00936 364.5 22.3
414(11) 0.00865 364.5 21.3
378(10) 0.00996 364.5 20.3
380(10) 0.00911 364.6 19.4
391(11) 0.00857 364.6 18.6
381(10) 0.00934 364.6 17.8
367(10) 0.01000 364.6 17.1
357(10) 0.01038 364.6 16.4
355(10) 0.00979 364.6 15.8
381(11) 0.00846 364.7 15.3
392(11) 0.00881 364.7 14.9
354(10) 0.01055 364.7 14.5
374(10) 0.00986 364.7 14.1
358(10) 0.00979 364.7 13.9
361(11) 0.00876 364.7 13.6
345(10) 0.01039 364.8 13.5
355(10) 0.01057 364.8 13.4
376(10) 0.00967 364.8 13.3
403(11) 0.00826 364.8 13.3
371(11) 0.00885 364.8 13.3
355(10) 0.00991 364.8 13.3
330(9) 0.01133 364.9 13.4
352(10) 0.01065 364.9 13.5
361(10) 0.00963 364.9 13.6
389(11) 0.00822 364.9 13.8
356(10) 0.00957 364.9 13.9
333(9) 0.01125 364.9 14.1
334(10) 0.01102 365.0 14.3
366(10) 0.00961 365.0 14.5
348(10) 0.00956 365.0 14.7
360(10) 0.00922 365.0 14.8
373(10) 0.00995 365.0 15.0
372(10) 0.00985 365.0 15.2
339(10) 0.01032 365.1 15.3
376(11) 0.00903 365.1 15.4
372(10) 0.00962 365.1 15.5
383(10) 0.00977 365.1 15.5
348(10) 0.01012 365.1 15.5
367(10) 0.00919 365.1 15.5
370(10) 0.00908 365.2 15.5
350(10) 0.00995 365.2 15.4
364(10) 0.01019 365.1 15.3
366(10) 0.00983 365.1 15.1
380(11) 0.00900 365.0 14.9
385(11) 0.00900 364.9 14.7
363(10) 0.01012 364.9 14.5
359(10) 0.01029 364.8 14.2
358(10) 0.00967 364.8 14.0
340(10) 0.00962 364.7 13.7
362(10) 0.00943 364.7 13.4
380(10) 0.00958 364.6 13.1
364(10) 0.01017 364.6 12.8
375(10) 0.00912 364.5 12.6
373(11) 0.00868 364.4 12.3
368(10) 0.00913 364.4 12.0
375(10) 0.00963 364.3 11.8
369(10) 0.01000 364.3 11.5
344(10) 0.00990 364.2 11.3
360(10) 0.00909 364.2 11.1
362(10) 0.00987 364.1 10.9
360(10) 0.01036 364.0 10.7
377(10) 0.00972 364.0 10.6
371(10) 0.00944 363.9 10.4
352(11) 0.00904 363.9 10.3
363(10) 0.00938 363.8 10.2
358(10) 0.01038 363.8 10.1
372(10) 0.00981 363.7 10.1
371(10) 0.00929 363.7 10.0
368(11) 0.00891 363.6 10.0
375(10) 0.00934 363.5 10.0
363(10) 0.01036 363.5 10.1
363(10) 0.00994 363.4 10.1
362(10) 0.00976 363.4 10.2
358(10) 0.00935 363.3 10.4
361(10) 0.00978 363.3 10.5
355(10) 0.01053 363.2 10.7
354(10) 0.01037 363.1 11.0
355(10) 0.00979 363.1 11.2
392(11) 0.00850 363.0 11.6
398(11) 0.00858 363.0 12.0
364(10) 0.01030 362.9 12.4
365(10) 0.00973 362.9 13.0
407(11) 0.00835 362.8 13.6
360(10) 0.00987 362.7 14.4
378(10) 0.00947 362.7 15.3
358(10) 0.01025 362.6 16.4
393(10) 0.00914 362.6 17.8
381(10) 0.00926 362.5 19.6
397(11) 0.00854 362.5 21.8
367(10) 0.00973 362.4 24.5
398(10) 0.00934 362.4 27.8
406(11) 0.00866 362.3 31.9
399(11) 0.00867 362.2 36.6
420(11) 0.00815 362.2 42.0
443(11) 0.00809 362.1 48.2
458(11) 0.00809 362.1 55.4
466(12) 0.00728 362.0 64.2
471(12) 0.00710 362.0 75.7
479(12) 0.00717 361.9 91.5
485(12) 0.00740 361.8 112.8
543(12) 0.00685 361.8 140.1
566(13) 0.00619 361.7 173.2
634(14) 0.00522 361.7 209.8
660(14) 0.00528 361.6 245.9
681(14) 0.00539 361.6 275.5
687(14) 0.00542 361.5 291.1
635(14) 0.00538 361.5 287.7
609(14) 0.00533 361.4 266.3
564(13) 0.00601 361.3 233.0
524(12) 0.00709 361.3 195.0
508(12) 0.00726 361.2 157.9
468(12) 0.00739 361.2 125.1
464(12) 0.00711 361.1 98.4
456(11) 0.00768 361.1 77.9
459(11) 0.00783 361.0 63.2
439(11) 0.00843 360.9 53.2
438(11) 0.00795 360.9 46.7
401(11) 0.00847 360.8 42.6
410(11) 0.00828 360.8 40.2
432(11) 0.00857 360.7 38.8
364(10) 0.01001 360.7 38.1
392(11) 0.00882 360.6 37.9
414(11) 0.00794 360.6 37.9
410(11) 0.00855 360.5 38.2
401(10) 0.00935 360.4 38.6
370(10) 0.00991 360.4 39.2
407(11) 0.00869 360.3 39.8
408(11) 0.00821 360.3 40.6
375(10) 0.00947 360.2 41.4
386(10) 0.00962 360.2 42.2
388(10) 0.00940 360.1 43.0
407(11) 0.00851 360.0 43.8
417(11) 0.00797 360.0 44.6
395(11) 0.00875 359.9 45.4
412(11) 0.00895 359.9 46.1
429(11) 0.00816 359.8 46.7
380(10) 0.00932 359.8 47.2
416(11) 0.00795 359.7 47.7
403(11) 0.00871 359.7 48.0
389(10) 0.00960 359.6 48.2
405(11) 0.00870 359.5 48.3
412(11) 0.00811 359.5 48.3
391(10) 0.00908 359.4 48.1
397(11) 0.00875 359.4 47.9
384(10) 0.00980 359.3 47.5
422(11) 0.00842 359.3 47.0
415(11) 0.00807 359.2 46.5
422(11) 0.00806 359.1 45.8
406(11) 0.00878 359.1 45.1
414(11) 0.00892 359.0 44.4
408(11) 0.00840 359.0 43.6
392(11) 0.00856 358.9 42.7
394(11) 0.00885 358.9 41.9
408(11) 0.00892 358.8 41.1
378(10) 0.00967 358.8 40.3
400(11) 0.00868 358.7 39.5
414(11) 0.00782 358.6 38.7
394(11) 0.00906 358.6 38.0
407(10) 0.00916 358.5 37.4
397(10) 0.00929 358.5 36.8
391(11) 0.00868 358.4 36.4
379(11) 0.00836 358.4 36.0
365(10) 0.00947 358.3 35.7
359(10) 0.01053 358.2 35.6
407(10) 0.00914 358.2 35.6
391(11) 0.00902 358.1 35.8
399(11) 0.00815 358.1 36.2
347(10) 0.01014 358.0 36.8
399(10) 0.00927 358.0 37.6
403(10) 0.00908 357.9 38.7
397(10) 0.00911 357.9 40.1
405(11) 0.00829 357.8 41.8
417(11) 0.00823 357.7 43.8
401(10) 0.00916 357.7 46.2
429(11) 0.00845 357.6 48.9
406(11) 0.00862 357.6 52.0
403(11) 0.00822 357.5 55.5
413(11) 0.00836 357.5 59.4
435(11) 0.00848 357.4 63.6
450(11) 0.00819 357.3 68.1
463(11) 0.00769 357.3 73.0
490(12) 0.00677 357.2 78.0
467(12) 0.00748 357.2 83.1
449(11) 0.00822 357.1 88.3
483(12) 0.00724 357.1 93.3
538(13) 0.00616 357.0 98.0
488(12) 0.00704 357.0 102.2
495(12) 0.00722 356.9 105.6
497(12) 0.00749 356.8 108.2
492(12) 0.00709 356.8 109.7
474(12) 0.00741 356.7 110.1
471(12) 0.00736 356.7 109.4
481(12) 0.00729 356.6 107.6
465(11) 0.00793 356.6 104.8
446(11) 0.00770 356.5 101.3
435(11) 0.00765 356.4 97.3
458(11) 0.00756 356.4 92.9
468(11) 0.00767 356.3 88.3
451(11) 0.00829 356.3 83.7
465(12) 0.00745 356.2 79.1
448(12) 0.00715 356.2 74.8
446(12) 0.00751 356.1 70.6
470(11) 0.00774 356.1 66.8
432(11) 0.00867 356.0 63.2
399(11) 0.00832 355.9 60.0
407(11) 0.00788 355.9 57.1
410(11) 0.00851 355.8 54.5
422(11) 0.00864 355.8 52.3
428(11) 0.00868 355.7 50.4
422(11) 0.00817 355.7 48.7
405(11) 0.00807 355.6 47.4
392(10) 0.00911 355.5 46.3
413(11) 0.00877 355.5 45.4
411(10) 0.00909 355.4 44.7
373(10) 0.00948 355.4 44.3
438(12) 0.00714 355.3 44.1
428(11) 0.00813 355.3 44.1
415(11) 0.00904 355.2 44.3
430(11) 0.00865 355.2 44.8
427(11) 0.00799 355.1 45.6
418(11) 0.00800 355.0 46.7
432(11) 0.00819 355.0 48.2
438(11) 0.00846 354.9 50.2
416(11) 0.00867 354.9 52.6
434(11) 0.00780 354.8 55.7
430(11) 0.00783 354.8 59.4
421(11) 0.00834 354.7 63.8
423(11) 0.00878 354.6 69.0
445(11) 0.00830 354.6 75.0
460(11) 0.00781 354.5 81.8
477(12) 0.00708 354.5 89.5
496(12) 0.00679 354.4 97.8
497(12) 0.00744 354.4 106.7
502(12) 0.00717 354.3 116.0
511(12) 0.00662 354.2 125.4
534(13) 0.00611 354.2 134.3
544(13) 0.00638 354.1 142.5
535(12) 0.00699 354.1 149.1
516(12) 0.00706 354.0 153.8
532(13) 0.00639 354.0 155.8
541(13) 0.00609 353.9 155.1
540(12) 0.00653 353.9 151.6
546(12) 0.00682 353.8 145.5
511(12) 0.00690 353.7 137.6
505(12) 0.00677 353.7 128.2
476(12) 0.00742 353.6 118.0
462(11) 0.00767 353.6 107.6
445(11) 0.00833 353.5 97.2
477(12) 0.00719 353.5 87.3
426(11) 0.00813 353.4 78.0
413(11) 0.00850 353.3 69.4
403(11) 0.00901 353.3 61.7
426(11) 0.00885 353.2 54.8
370(10) 0.00964 353.2 48.7
387(11) 0.00856 353.1 43.4
396(11) 0.00860 353.1 38.8
396(10) 0.00909 353.0 34.9
379(10) 0.00985 353.0 31.6
383(11) 0.00900 352.9 28.8
379(11) 0.00842 352.8 26.4
378(10) 0.00916 352.8 24.4
373(10) 0.00989 352.7 22.6
366(10) 0.01009 352.7 21.2
390(11) 0.00872 352.6 19.9
388(11) 0.00801 352.6 18.8
375(10) 0.00932 352.5 17.8
361(10) 0.01030 352.4 16.9
358(10) 0.01051 352.4 16.1
387(11) 0.00883 352.3 15.4
375(11) 0.00864 352.3 14.7
379(10) 0.00909 352.2 14.1
353(10) 0.01022 352.2 13.6
320(9) 0.01138 352.1 13.1
359(10) 0.00937 352.1 12.6
383(11) 0.00850 352.0 12.2
377(10) 0.00933 351.9 11.8
406(10) 0.00908 351.9 11.4
374(10) 0.00966 351.8 11.1
376(10) 0.00941 351.8 10.8
369(10) 0.00933 351.7 10.5
390(11) 0.00900 351.7 10.2
380(10) 0.00976 351.6 10.0
369(10) 0.00947 351.5 9.8
368(10) 0.00926 351.5 9.6
364(10) 0.00927 351.4 9.5
367(10) 0.00945 351.4 9.3
356(10) 0.01041 351.3 9.2
368(10) 0.00946 351.3 9.2
382(11) 0.00872 351.2 9.1
354(10) 0.00970 351.2 9.1
380(11) 0.00905 351.1 9.0
331(9) 0.01125 351.0 9.0
348(10) 0.01034 351.0 9.1
332(10) 0.01044 350.9 9.1
350(10) 0.00976 350.9 9.2
367(10) 0.00958 350.8 9.3
367(10) 0.01020 350.8 9.4
368(10) 0.00952 350.7 9.5
357(10) 0.00927 350.6 9.6
361(10) 0.00958 350.6 9.7
370(10) 0.00993 350.5 9.8
368(10) 0.01013 350.5 9.9
366(10) 0.00948 350.4 10.0
358(10) 0.00938 350.4 10.1
367(10) 0.00935 350.3 10.2
366(10) 0.01001 350.3 10.2
337(9) 0.01109 350.2 10.3
366(10) 0.00953 350.1 10.2
348(10) 0.00928 350.1 10.2
361(10) 0.00923 350.0 10.1
357(10) 0.01009 350.0 10.0
355(10) 0.01052 349.9 9.9
366(10) 0.00965 349.9 9.7
350(10) 0.00940 349.8 9.5
348(10) 0.01018 349.7 9.3
359(10) 0.01038 349.7 9.1
351(10) 0.01053 349.6 8.9
357(10) 0.00967 349.6 8.7
377(11) 0.00841 349.5 8.5
321(10) 0.01106 349.5 8.3
372(10) 0.00989 349.4 8.1
369(10) 0.01008 349.4 7.9
362(10) 0.00945 349.3 7.7
363(11) 0.00891 349.2 7.4
353(10) 0.00983 349.2 7.2
371(10) 0.00986 349.1 7.0
361(10) 0.00989 349.1 6.8
352(10) 0.00955 349.0 6.6
359(11) 0.00890 349.0 6.4
339(10) 0.01024 348.9 6.2
343(10) 0.01077 348.8 6.1
353(10) 0.01031 348.8 5.9
338(10) 0.01047 348.7 5.7
352(10) 0.00970 348.7 5.6
367(10) 0.00949 348.6 5.4
377(10) 0.00986 348.6 5.3
350(10) 0.01010 348.5 5.1
336(10) 0.01058 348.5 5.0
349(10) 0.01006 348.4 4.9
352(10) 0.00998 348.3 4.7
357(10) 0.01038 348.3 4.6
356(10) 0.00969 348.2 4.5
351(10) 0.00937 348.2 4.4
339(10) 0.01012 348.1 4.3
360(10) 0.00946 348.1 4.2
352(10) 0.01057 348.0 4.1
352(10) 0.01012 347.9 4.1
332(10) 0.01029 347.9 4.0
345(10) 0.01021 347.8 3.9
376(10) 0.00976 347.8 3.9
327(9) 0.01122 347.7 3.8
344(10) 0.00999 347.7 3.7
361(10) 0.00919 347.6 3.7
335(10) 0.01028 347.6 3.6
346(10) 0.01048 347.5 3.6
345(10) 0.01076 347.4 3.6
355(10) 0.00974 347.4 3.5
359(10) 0.00915 347.3 3.5
344(10) 0.01015 347.3 3.4
358(10) 0.01015 347.2 3.4
352(10) 0.01062 347.2 3.4
369(10) 0.00934 347.1 3.4
346(10) 0.00960 347.0 3.3
344(10) 0.01031 347.0 3.3
343(10) 0.01080 346.9 3.3
358(10) 0.01033 346.9 3.3
352(10) 0.00978 346.8 3.3
370(11) 0.00889 346.8 3.3
347(10) 0.01014 346.7 3.2
330(9) 0.01125 346.6 3.2
377(10) 0.00970 346.6 3.2
359(10) 0.00979 346.5 3.2
379(11) 0.00853 346.5 3.2
366(10) 0.00973 346.5 3.2
359(10) 0.01020 346.5 3.2
339(10) 0.01080 346.5 3.2
343(10) 0.01051 346.5 3.2
334(10) 0.01036 346.5 3.2
353(10) 0.00983 346.5 3.2
340(10) 0.01091 346.5 3.2
349(10) 0.01024 346.5 3.2
363(10) 0.00933 346.5 3.2
357(10) 0.00980 346.5 3.2
366(10) 0.00965 346.5 3.2
345(10) 0.01089 346.5 3.2
342(10) 0.01053 346.5 3.2
320(10) 0.01092 346.5 3.2
354(10) 0.00949 346.5 3.3
387(11) 0.00899 346.5 3.3
352(10) 0.01062 346.5 3.3
360(10) 0.01022 346.5 3.3
318(9) 0.01126 346.5 3.3
339(10) 0.01049 346.5 3.3
352(10) 0.00996 346.5 3.3
320(9) 0.01171 346.5 3.4
334(10) 0.01064 346.5 3.4
362(10) 0.00919 346.5 3.4
345(10) 0.00995 346.5 3.4
346(10) 0.01048 346.5 3.5
376(10) 0.00991 346.5 3.5
353(10) 0.00996 346.5 3.5
375(11) 0.00903 346.4 3.5
354(10) 0.01005 346.4 3.6
343(10) 0.01044 346.4 3.6
339(10) 0.01099 346.4 3.7
353(10) 0.00971 346.4 3.7
323(10) 0.01037 346.4 3.7
337(10) 0.01032 346.4 3.8
342(10) 0.01092 346.4 3.8
384(10) 0.00967 346.4 3.9
355(10) 0.00980 346.4 3.9
344(10) 0.00941 346.4 4.0
356(10) 0.00979 346.4 4.0
355(10) 0.01027 346.4 4.1
339(10) 0.01095 346.4 4.2
354(10) 0.00983 346.4 4.2
355(11) 0.00891 346.4 4.3
351(10) 0.00982 346.4 4.4
359(10) 0.01022 346.4 4.4
363(10) 0.01022 346.4 4.5
346(10) 0.01042 346.4 4.6
359(11) 0.00903 346.4 4.7
370(10) 0.00912 346.4 4.8
357(10) 0.01039 346.4 4.9
336(10) 0.01086 346.4 5.0
315(9) 0.01113 346.4 5.1
342(10) 0.00931 346.4 5.2
324(10) 0.01107 346.4 5.3
365(10) 0.01011 346.4 5.4
347(10) 0.01059 346.4 5.6
359(10) 0.00925 346.4 5.7
363(10) 0.00908 346.4 5.9
338(10) 0.01006 346.4 6.0
341(10) 0.01103 346.4 6.2
347(10) 0.01028 346.4 6.4
366(10) 0.00958 346.4 6.5
371(11) 0.00894 346.4 6.7
364(10) 0.00941 346.4 7.0
371(10) 0.01006 346.4 7.2
359(10) 0.00983 346.4 7.4
379(11) 0.00861 346.4 7.7
347(10) 0.00986 346.4 8.0
334(10) 0.01069 346.4 8.3
325(9) 0.01158 346.4 8.6
356(10) 0.00978 346.4 9.0
338(10) 0.01024 346.4 9.4
365(10) 0.00944 346.4 9.8
367(10) 0.00929 346.4 10.2
331(9) 0.01124 346.4 10.7
348(10) 0.00986 346.4 11.2
362(11) 0.00900 346.4 11.8
373(10) 0.00912 346.4 12.4
364(10) 0.01004 346.4 13.1
355(10) 0.01054 346.4 13.8
341(10) 0.01021 346.4 14.5
381(11) 0.00886 346.4 15.3
373(10) 0.00958 346.4 16.2
363(10) 0.01033 346.4 17.2
355(10) 0.01051 346.4 18.1
365(10) 0.00970 346.4 19.2
389(11) 0.00845 346.4 20.3
381(11) 0.00904 346.4 21.5
367(10) 0.00996 346.4 22.8
361(10) 0.01022 346.4 24.1
347(10) 0.01006 346.4 25.5
380(11) 0.00860 346.4 27.0
405(11) 0.00852 346.4 28.6
377(10) 0.00991 346.4 30.2
371(10) 0.01007 346.4 31.8
393(11) 0.00868 346.4 33.5
387(11) 0.00801 346.4 35.3
363(10) 0.00956 346.4 37.1
371(10) 0.01003 346.3 39.0
382(10) 0.00958 346.3 40.8
394(11) 0.00893 346.3 42.7
381(11) 0.00859 346.3 44.6
420(11) 0.00797 346.3 46.4
394(10) 0.00942 346.3 48.2
374(10) 0.00983 346.3 50.0
388(10) 0.00911 346.3 51.6
412(11) 0.00816 346.3 53.2
398(11) 0.00859 346.3 54.7
409(10) 0.00908 346.3 56.0
416(11) 0.00879 346.3 57.2
397(11) 0.00885 346.3 58.2
402(11) 0.00827 346.3 59.0
385(10) 0.00914 346.3 59.7
377(10) 0.00990 346.3 60.0
401(11) 0.00902 346.3 60.2
417(11) 0.00824 346.3 60.1
390(11) 0.00884 346.3 59.8
397(11) 0.00882 346.3 59.2
359(10) 0.01036 346.3 58.5
432(11) 0.00810 346.3 57.5
398(11) 0.00878 346.3 56.3
374(10) 0.00909 346.3 55.0
360(10) 0.00973 346.3 53.5
388(10) 0.00952 346.3 52.0
384(11) 0.00902 346.3 50.3
367(10) 0.00918 346.3 48.6
390(11) 0.00897 346.3 46.8
414(11) 0.00856 346.3 44.9
381(10) 0.00975 346.3 43.0
378(10) 0.00937 346.3 41.1
379(11) 0.00863 346.3 39.3
352(10) 0.00980 346.3 37.4
372(10) 0.00973 346.3 35.6
360(10) 0.01033 346.3 33.9
404(11) 0.00825 346.3 32.1
391(11) 0.00858 346.3 30.5
358(10) 0.01006 346.3 28.9
385(10) 0.00948 346.3 27.3
353(10) 0.01056 346.3 25.8
384(10) 0.00917 346.3 24.4
360(10) 0.00909 346.3 23.1
358(10) 0.00963 346.3 21.8
378(10) 0.00970 346.3 20.6
351(10) 0.01013 346.3 19.5
368(10) 0.00924 346.3 18.4
343(10) 0.00947 346.3 17.4
364(10) 0.00939 346.3 16.5
361(10) 0.01030 346.3 15.6
359(10) 0.01041 346.3 14.8
381(10) 0.00917 346.3 14.0
373(11) 0.00881 346.3 13.3
361(10) 0.00971 346.3 12.7
372(10) 0.01002 346.3 12.1
366(10) 0.00993 346.3 11.5
362(10) 0.00968 346.3 11.0
368(10) 0.00910 346.3 10.6
364(10) 0.00948 346.3 10.1
343(10) 0.01072 346.3 9.7
381(10) 0.00941 346.3 9.4
397(11) 0.00868 346.3 9.1
396(11) 0.00846 346.3 8.8
365(10) 0.00960 346.3 8.5
368(10) 0.01009 346.3 8.3
366(10) 0.00982 346.3 8.1
366(10) 0.00929 346.3 7.9
357(10) 0.00971 346.3 7.7
359(10) 0.00975 346.3 7.6
348(10) 0.01065 346.3 7.5
334(10) 0.01037 346.3 7.3
347(10) 0.01017 346.3 7.3
362(10) 0.00983 346.2 7.2
374(10) 0.00985 346.2 7.1
360(10) 0.01039 346.2 7.1
359(10) 0.00973 346.2 7.1
365(10) 0.00928 346.2 7.1
346(10) 0.01001 346.2 7.1
357(10) 0.01002 346.2 7.1
361(10) 0.01029 346.2 7.1
371(10) 0.00958 346.2 7.2
342(10) 0.01011 346.2 7.3
366(10) 0.00946 346.2 7.4
345(10) 0.01068 346.2 7.6
384(10) 0.00970 346.2 7.7
378(10) 0.00915 346.2 7.9
346(10) 0.00968 346.2 8.2
363(10) 0.00973 346.2 8.5
354(10) 0.01051 346.2 8.8
373(10) 0.00987 346.2 9.1
350(10) 0.01024 346.2 9.6
366(10) 0.00907 346.2 10.0
374(10) 0.00934 346.2 10.5
377(10) 0.00965 346.2 11.1
324(9) 0.01156 346.2 11.8
351(10) 0.00990 346.2 12.5
411(12) 0.00750 346.2 13.4
356(10) 0.01001 346.2 14.3
374(10) 0.00999 346.2 15.3
369(10) 0.00998 346.2 16.5
374(10) 0.00911 346.2 17.9
380(11) 0.00852 346.2 19.6
393(11) 0.00868 346.2 21.9
392(10) 0.00959 346.2 25.2
413(11) 0.00902 346.2 30.2
390(11) 0.00904 346.2 37.8
429(11) 0.00777 346.2 48.8
436(11) 0.00821 346.2 63.9
462(11) 0.00807 346.2 82.4
453(11) 0.00813 346.2 102.8
462(12) 0.00739 346.2 121.6
489(12) 0.00696 346.2 133.7
508(12) 0.00694 346.2 135.1
476(11) 0.00771 346.2 125.2
446(11) 0.00828 346.2 108.1
450(11) 0.00762 346.2 88.8
433(11) 0.00793 346.2 71.0
398(11) 0.00888 346.2 56.4
403(10) 0.00921 346.2 45.7
405(11) 0.00902 346.2 38.4
396(11) 0.00891 346.2 33.6
390(11) 0.00887 346.2 30.5
378(10) 0.00979 346.2 28.4
404(10) 0.00917 346.2 26.6
399(11) 0.00890 346.2 25.1
384(11) 0.00883 346.2 23.7
374(11) 0.00882 346.2 22.3
361(10) 0.00998 346.2 20.9
363(10) 0.01022 346.2 19.6
379(11) 0.00904 346.2 18.3
383(11) 0.00863 346.2 17.1
367(10) 0.00961 346.2 16.0
375(10) 0.00970 346.2 15.0
355(10) 0.01051 346.2 14.0
362(10) 0.00943 346.2 13.1
362(10) 0.00942 346.2 12.3
383(10) 0.00925 346.2 11.6
352(10) 0.01038 346.2 10.9
339(9) 0.01115 346.2 10.2
359(10) 0.00998 346.2 9.7
376(11) 0.00898 346.2 9.2
362(10) 0.00962 346.2 8.7
349(10) 0.01054 346.2 8.3
338(10) 0.01092 346.1 7.9
369(10) 0.00926 346.1 7.5
370(11) 0.00818 346.1 7.2
356(10) 0.00963 346.1 6.9
361(10) 0.01035 346.1 6.7
352(10) 0.01047 346.1 6.5
363(10) 0.00927 346.1 6.3
347(10) 0.00930 346.1 6.1
369(11) 0.00897 346.1 5.9
372(10) 0.00996 346.1 5.8
366(10) 0.00983 346.1 5.7
360(10) 0.00947 346.1 5.6
342(10) 0.00960 346.1 5.5
352(10) 0.00966 346.1 5.4
352(10) 0.01038 346.1 5.3
332(9) 0.01116 346.1 5.3
324(10) 0.01092 346.1 5.2
325(10) 0.01037 346.1 5.2
328(10) 0.01069 346.1 5.1
352(10) 0.01059 346.1 5.1
355(10) 0.01013 346.1 5.0
344(10) 0.01001 346.1 5.0
342(10) 0.01005 346.1 5.0
333(10) 0.01069 346.1 5.0
327(9) 0.01135 346.1 5.0
330(10) 0.01077 346.1 5.0
368(11) 0.00905 346.1 5.0
341(10) 0.01000 346.1 5.0
349(10) 0.01018 346.1 5.0
345(10) 0.01075 346.1 5.0
337(10) 0.01071 346.1 5.1
354(10) 0.00973 346.1 5.1
358(10) 0.00975 346.1 5.1
347(10) 0.01062 346.1 5.2
344(10) 0.01082 346.1 5.2
363(10) 0.00942 346.1 5.3
318(10) 0.01051 346.1 5.4
329(10) 0.01049 346.1 5.5
338(10) 0.01081 346.1 5.7
341(10) 0.01102 346.1 5.8
368(10) 0.00922 346.1 6.0
339(10) 0.00975 346.1 6.2
358(10) 0.00973 346.1 6.5
371(10) 0.00976 346.1 6.9
360(10) 0.01021 346.1 7.4
360(10) 0.00966 346.1 7.9
364(10) 0.00923 346.1 8.6
379(10) 0.00907 346.1 9.4
332(9) 0.01116 346.1 10.3
338(10) 0.01093 346.1 11.3
348(10) 0.01030 346.1 12.3
355(10) 0.00923 346.1 13.4
363(10) 0.00915 346.1 14.3
372(10) 0.00998 346.1 15.1
383(10) 0.00960 346.1 15.7
389(11) 0.00872 346.1 15.9
367(11) 0.00903 346.1 15.7
340(10) 0.01042 346.1 15.4
348(10) 0.01065 346.1 14.8
378(10) 0.00973 346.1 14.2
355(10) 0.01000 346.1 13.6
347(10) 0.00963 346.1 13.1
349(10) 0.01024 346.1 12.6
368(10) 0.01017 346.1 12.3
371(10) 0.00997 346.1 12.1
401(11) 0.00900 346.1 12.0
366(10) 0.00975 346.1 12.0
373(10) 0.00926 346.1 12.0
329(9) 0.01140 346.1 12.2
362(10) 0.00997 346.1 12.5
383(11) 0.00899 346.1 12.8
376(11) 0.00890 346.0 13.1
394(11) 0.00862 346.0 13.5
379(10) 0.00997 346.0 13.9
369(10) 0.00976 346.0 14.3
364(10) 0.00957 346.0 14.8
371(10) 0.00915 346.0 15.3
355(10) 0.00968 346.0 15.8
386(10) 0.00965 346.0 16.3
361(10) 0.00970 346.0 16.8
373(11) 0.00901 346.0 17.3
393(11) 0.00857 346.0 17.8
377(10) 0.00926 346.0 18.2
382(10) 0.00972 346.0 18.5
348(10) 0.01037 346.0 18.7
340(10) 0.01035 346.0 18.9
363(10) 0.00958 346.0 19.0
344(10) 0.01066 346.0 19.0
360(10) 0.01029 346.0 18.9
372(10) 0.00925 346.0 18.8
353(10) 0.00944 346.0 18.7
348(10) 0.01014 346.0 18.6
375(10) 0.00982 346.0 18.5
385(10) 0.00956 346.0 18.4
367(10) 0.00950 346.0 18.3
403(11) 0.00808 346.0 18.3
370(10) 0.00946 346.0 18.2
356(10) 0.01033 346.0 18.2
376(10) 0.00988 346.0 18.2
380(10) 0.00911 346.0 18.2
377(11) 0.00831 346.0 18.3
339(10) 0.01008 346.0 18.4
365(10) 0.01009 346.0 18.5
364(10) 0.01019 346.0 18.6
359(10) 0.01001 346.0 18.8
391(11) 0.00834 346.0 19.0
384(11) 0.00886 346.0 19.3
358(10) 0.01038 346.0 19.6
370(10) 0.01005 346.0 19.9
375(10) 0.00937 346.0 20.3
397(11) 0.00830 346.0 20.8
376(10) 0.00925 346.0 21.3
396(10) 0.00937 346.0 22.0
382(10) 0.00966 346.0 23.0
383(10) 0.00929 346.0 24.3
377(11) 0.00899 346.0 26.2
358(10) 0.00986 346.0 29.2
375(10) 0.00994 346.0 33.4
369(10) 0.00972 346.0 39.3
399(11) 0.00861 346.0 46.8
423(11) 0.00775 346.0 55.4
437(11) 0.00773 346.0 64.2
404(10) 0.00923 346.0 71.3
406(11) 0.00865 346.0 75.0
399(11) 0.00859 346.0 74.2
388(11) 0.00874 346.0 69.9
398(11) 0.00889 346.0 64.0
380(10) 0.00982 346.0 58.4
435(11) 0.00795 346.0 54.1
422(11) 0.00806 346.0 51.4
410(11) 0.00839 346.0 50.5
418(11) 0.00863 346.0 50.9
426(11) 0.00874 346.0 52.1
396(11) 0.00903 346.0 53.7
429(11) 0.00809 346.0 55.2
414(11) 0.00844 346.0 56.4
405(11) 0.00887 346.0 57.2
444(11) 0.00841 346.0 57.5
432(11) 0.00790 346.0 57.4
428(12) 0.00751 346.0 56.9
415(11) 0.00845 346.0 56.3
388(10) 0.00952 346.0 55.3
411(11) 0.00903 346.0 54.2
411(11) 0.00830 345.9 53.0
418(11) 0.00787 345.9 51.5
404(11) 0.00868 345.9 50.0
417(11) 0.00888 345.9 48.4
410(11) 0.00905 345.9 46.8
383(11) 0.00884 345.9 45.1
420(11) 0.00781 345.9 43.5
382(10) 0.00949 345.9 42.1
393(10) 0.00949 345.9 40.7
369(10) 0.01015 345.9 39.6
377(11) 0.00892 345.9 38.6
364(11) 0.00867 345.9 38.0
388(11) 0.00886 345.9 37.8
372(10) 0.00989 345.9 38.1
380(10) 0.00981 345.9 38.8
402(11) 0.00855 345.9 40.2
371(11) 0.00886 345.9 42.1
375(10) 0.00917 345.9 44.6
387(10) 0.00963 345.9 47.6
375(10) 0.00967 345.9 51.0
386(10) 0.00920 345.9 54.3
394(11) 0.00841 345.9 57.4
393(11) 0.00897 345.9 59.5
434(11) 0.00849 345.9 60.3
405(11) 0.00883 345.9 59.4
361(10) 0.00990 345.9 56.9
389(11) 0.00862 345.9 53.3
371(10) 0.00931 345.9 49.1
375(10) 0.00985 345.9 44.6
361(10) 0.01012 345.9 40.3
375(11) 0.00898 345.9 36.4
354(10) 0.00928 345.9 32.9
380(11) 0.00900 345.9 29.9
386(10) 0.00960 345.9 27.4
371(10) 0.00976 345.9 25.4
383(11) 0.00884 345.9 23.9
395(11) 0.00841 345.9 22.6
367(10) 0.00947 345.9 21.6
352(10) 0.01074 345.9 20.9
353(10) 0.00997 345.9 20.2
372(11) 0.00898 345.9 19.7
383(10) 0.00915 345.9 19.3
382(10) 0.00930 345.9 19.0
355(10) 0.01055 345.9 18.7
378(10) 0.00913 345.9 18.4
367(10) 0.00917 345.9 18.2
364(10) 0.00916 345.9 18.0
376(10) 0.00951 345.9 17.9
367(10) 0.01015 345.9 17.8
354(10) 0.00959 345.9 17.8
367(11) 0.00871 345.9 17.8
364(10) 0.00980 345.9 17.9
354(10) 0.01055 345.9 18.1
346(10) 0.01078 345.9 18.5
388(11) 0.00892 345.9 19.2
404(11) 0.00792 345.9 20.2
385(10) 0.00934 345.9 21.7
405(10) 0.00910 345.9 23.8
383(10) 0.00962 345.9 26.7
391(11) 0.00906 345.9 30.3
413(11) 0.00800 345.9 34.6
408(11) 0.00883 345.9 39.4
421(11) 0.00888 345.9 44.3
385(10) 0.00950 345.9 48.5
381(11) 0.00895 345.9 51.2
378(11) 0.00838 345.9 51.5
392(11) 0.00884 345.9 49.5
379(10) 0.00979 345.9 45.8
397(10) 0.00911 345.9 41.2
365(10) 0.00965 345.9 36.5
356(11) 0.00904 345.9 32.2
333(10) 0.01060 345.8 28.6
372(10) 0.01006 345.8 25.7
383(10) 0.00958 345.8 23.6
363(10) 0.00921 345.8 22.2
335(10) 0.01007 345.8 21.3
347(10) 0.01037 345.8 20.8
383(10) 0.00978 345.8 20.6
385(10) 0.00953 345.8 20.5
377(10) 0.00939 345.8 20.6
386(11) 0.00893 345.8 20.8
382(10) 0.00926 345.8 21.1
368(10) 0.01004 345.8 21.4
378(10) 0.00939 345.8 21.8
386(11) 0.00881 345.8 22.2
371(10) 0.00931 345.8 22.6
353(10) 0.01022 345.8 23.0
362(10) 0.01030 345.8 23.5
359(10) 0.00972 345.8 23.9
363(10) 0.00934 345.8 24.4
359(10) 0.00958 345.8 24.9
361(10) 0.00987 345.8 25.4
353(10) 0.01044 345.8 25.8
369(10) 0.00918 345.8 26.3
368(10) 0.00930 345.8 26.7
387(11) 0.00867 345.8 27.1
363(10) 0.00978 345.8 27.4
358(10) 0.01038 345.8 27.8
372(10) 0.00943 345.8 28.1
385(11) 0.00874 345.8 28.4
355(10) 0.00996 345.8 28.6
402(10) 0.00924 345.8 28.8
404(10) 0.00920 345.8 29.0
374(11) 0.00899 345.8 29.2
372(11) 0.00880 345.8 29.3
366(10) 0.00955 345.8 29.5
367(10) 0.01023 345.8 29.6
376(10) 0.00976 345.8 29.7
380(10) 0.00940 345.8 29.8
380(11) 0.00873 345.8 29.9
364(10) 0.00949 345.8 29.9
367(10) 0.01023 345.8 30.0
358(10) 0.01032 345.8 30.1
368(10) 0.00945 345.8 30.2
348(10) 0.00919 345.8 30.2
332(10) 0.00998 345.8 30.3
356(10) 0.01038 345.8 30.3
413(11) 0.00887 345.8 30.4
382(10) 0.00942 345.8 30.4
380(11) 0.00866 345.8 30.5
389(11) 0.00870 345.8 30.5
364(10) 0.01030 345.8 30.6
362(10) 0.01010 345.8 30.6
399(11) 0.00889 345.8 30.7
362(10) 0.00937 345.8 30.7
393(11) 0.00868 345.8 30.8
354(10) 0.01050 345.8 30.8
364(10) 0.00975 345.8 30.9
384(11) 0.00890 345.8 31.0
383(11) 0.00880 345.8 31.1
409(11) 0.00857 345.8 31.2
393(10) 0.00949 345.8 31.3
342(10) 0.01047 345.8 31.4
390(11) 0.00881 345.8 31.5
370(10) 0.00951 345.8 31.6
353(10) 0.00966 345.8 31.7
348(10) 0.01063 345.8 31.9
356(10) 0.00991 345.8 32.0
374(10) 0.00926 345.8 32.2
374(10) 0.00925 345.8 32.3
375(10) 0.00967 345.8 32.5
378(10) 0.00986 345.8 32.7
366(10) 0.00923 345.7 32.9
376(11) 0.00900 345.7 33.1
363(10) 0.00990 345.7 33.3
374(10) 0.00982 345.7 33.5
374(10) 0.01000 345.7 33.7
396(11) 0.00852 345.7 34.0
368(10) 0.00919 345.7 34.2
372(10) 0.00907 345.7 34.5
394(10) 0.00942 345.7 34.7
418(11) 0.00868 345.7 35.0
411(11) 0.00866 345.7 35.3
375(10) 0.00932 345.7 35.6
376(10) 0.00956 345.7 35.9
371(10) 0.01010 345.7 36.3
361(10) 0.01037 345.7 36.6
389(11) 0.00895 345.7 36.9
383(11) 0.00869 345.7 37.3
403(11) 0.00855 345.7 37.6
384(10) 0.00956 345.7 37.9
368(10) 0.01003 345.7 38.2
346(10) 0.01002 345.7 38.5
390(11) 0.00784 345.7 38.7
378(10) 0.00913 345.7 38.7
403(11) 0.00888 345.7 38.7
397(10) 0.00926 345.7 38.6
397(11) 0.00880 345.7 38.3
406(11) 0.00812 345.7 37.8
372(10) 0.00945 345.7 37.2
369(10) 0.01011 345.7 36.4
380(10) 0.00971 345.7 35.5
407(11) 0.00818 345.7 34.6
372(11) 0.00858 345.7 33.6
387(11) 0.00903 345.7 32.5
386(10) 0.00967 345.7 31.5
356(10) 0.01016 345.7 30.5
353(10) 0.00994 345.7 29.5
355(10) 0.00929 345.7 28.5
362(10) 0.00952 345.7 27.7
386(10) 0.00966 345.7 26.9
361(10) 0.01004 345.7 26.1
358(10) 0.00974 345.7 25.5
356(10) 0.00980 345.7 24.9
379(10) 0.00923 345.7 24.4
383(10) 0.00964 345.7 23.9
350(10) 0.01032 345.7 23.5
372(10) 0.00911 345.7 23.2
387(11) 0.00896 345.7 23.0
344(10) 0.01046 345.7 22.8
371(10) 0.00992 345.7 22.7
384(10) 0.00930 345.7 22.6
375(11) 0.00866 345.7 22.5
378(11) 0.00881 345.7 22.5
372(10) 0.00939 345.7 22.5
354(10) 0.01040 345.7 22.5
364(10) 0.00949 345.7 22.6
335(10) 0.01012 345.7 22.6
364(10) 0.00957 345.7 22.8
377(10) 0.00989 345.7 22.9
392(10) 0.00958 345.7 23.0
355(10) 0.00990 345.7 23.2
370(11) 0.00864 345.7 23.4
355(10) 0.00966 345.7 23.7
370(10) 0.00986 345.7 23.9
373(10) 0.00988 345.7 24.2
382(11) 0.00898 345.7 24.5
389(11) 0.00827 345.7 24.9
382(10) 0.00914 345.7 25.2
381(10) 0.00981 345.7 25.6
382(10) 0.00969 345.7 26.0
378(10) 0.00928 345.7 26.5
408(12) 0.00749 345.7 26.9
356(10) 0.01024 345.7 27.4
393(10) 0.00948 345.6 27.8
397(10) 0.00943 345.6 28.3
366(10) 0.00976 345.6 28.8
396(11) 0.00796 345.6 29.3
374(10) 0.00912 345.6 29.8
367(10) 0.01021 345.6 30.3
394(10) 0.00930 345.6 30.8
393(11) 0.00893 345.6 31.3
362(10) 0.00944 345.6 31.8
401(11) 0.00852 345.6 32.3
398(10) 0.00934 345.6 32.8
407(11) 0.00906 345.6 33.3
379(10) 0.00921 345.6 33.7
405(11) 0.00808 345.6 34.1
429(11) 0.00811 345.6 34.5
412(10) 0.00908 345.6 34.9
403(11) 0.00897 345.6 35.3
397(11) 0.00882 345.6 35.7
393(11) 0.00873 345.6 36.0
395(11) 0.00882 345.6 36.3
387(10) 0.00964 345.6 36.7
364(10) 0.01000 345.6 37.0
372(10) 0.00952 345.6 37.4
408(11) 0.00822 345.6 37.7
389(10) 0.00928 345.6 38.1
384(10) 0.00967 345.6 38.6
381(10) 0.00948 345.6 39.1
401(11) 0.00833 345.6 39.7
399(11) 0.00847 345.6 40.4
405(11) 0.00862 345.6 41.2
400(10) 0.00930 345.6 42.1
362(10) 0.00963 345.6 43.2
366(11) 0.00906 345.6 44.5
384(11) 0.00896 345.6 46.0
369(10) 0.00970 345.6 47.8
391(10) 0.00933 345.6 49.8
379(11) 0.00876 345.6 52.1
381(11) 0.00864 345.6 54.6
421(11) 0.00818 345.6 57.4
400(10) 0.00926 345.6 60.4
414(11) 0.00890 345.6 63.7
410(11) 0.00863 345.6 67.1
424(11) 0.00756 345.6 70.6
417(11) 0.00840 345.6 74.1
418(11) 0.00876 345.6 77.5
439(11) 0.00848 345.6 80.7
398(11) 0.00885 345.6 83.3
404(11) 0.00787 345.6 85.3
421(11) 0.00846 345.6 86.4
424(11) 0.00862 345.6 86.4
442(11) 0.00852 345.6 85.4
424(11) 0.00827 345.6 83.2
431(12) 0.00733 345.6 80.1
387(10) 0.00917 345.6 76.3
389(10) 0.00958 345.6 72.0
427(11) 0.00841 345.6 67.5
430(11) 0.00813 345.6 62.8
374(10) 0.00935 345.6 58.3
394(11) 0.00881 345.6 53.9
405(10) 0.00918 345.6 49.7
380(10) 0.00962 345.6 45.9
399(11) 0.00856 345.6 42.4
335(10) 0.01075 345.6 39.2
349(10) 0.00999 345.6 36.4
372(10) 0.01010 345.6 33.9
374(10) 0.00971 345.6 31.8
384(10) 0.00927 345.6 29.9
385(11) 0.00904 345.6 28.3
394(11) 0.00882 345.6 27.0
352(10) 0.01066 345.6 25.8
380(10) 0.00921 345.6 24.8
360(10) 0.00922 345.5 24.0
392(11) 0.00846 345.5 23.3
361(10) 0.00970 345.5 22.8
372(10) 0.00989 345.5 22.3
358(10) 0.01004 345.5 21.8
357(10) 0.00976 345.5 21.5
368(10) 0.00974 345.5 21.2
352(10) 0.01017 345.5 21.0
362(10) 0.01018 345.5 20.7
367(10) 0.00932 345.5 20.6
366(10) 0.00923 345.5 20.4
356(10) 0.00935 345.5 20.3
358(10) 0.00994 345.5 20.2
407(10) 0.00920 345.5 20.2
385(10) 0.00914 345.5 20.1
368(10) 0.00918 345.5 20.1
356(10) 0.00978 345.5 20.0
385(10) 0.00957 345.5 20.0
364(10) 0.01025 345.5 20.0
358(10) 0.00944 345.5 20.1
361(11) 0.00894 345.5 20.1
351(10) 0.01019 345.5 20.1
343(10) 0.01087 345.5 20.2
344(10) 0.01080 345.5 20.2
377(11) 0.00897 345.5 20.2
362(11) 0.00894 345.5 20.3
338(10) 0.01050 345.5 20.3
368(10) 0.01008 345.5 20.4
340(10) 0.01075 345.5 20.4
367(10) 0.00957 345.5 20.4
386(11) 0.00836 345.5 20.4
350(10) 0.01004 345.5 20.4
357(10) 0.01035 345.5 20.4
356(10) 0.01059 345.5 20.4
367(10) 0.00940 345.5 20.4
359(10) 0.00908 345.5 20.3
393(11) 0.00880 345.5 20.2
375(10) 0.00982 345.5 20.2
360(10) 0.01024 345.5 20.1
325(10) 0.01076 345.5 20.0
351(10) 0.00955 345.5 19.9
353(10) 0.00985 345.5 19.8
355(10) 0.01041 345.5 19.6
361(10) 0.00999 345.5 19.5
355(10) 0.00956 345.5 19.4
331(10) 0.01046 345.5 19.2
357(10) 0.00992 345.5 19.1
361(10) 0.01030 345.5 19.0
363(10) 0.00946 345.5 18.9
364(10) 0.00945 345.5 18.8
335(10) 0.01038 345.5 18.7
358(10) 0.00953 345.5 18.6
355(10) 0.01058 345.5 18.5
358(10) 0.00990 345.5 18.4
381(11) 0.00866 345.5 18.4
375(10) 0.00909 345.5 18.4
401(11) 0.00888 345.5 18.4
355(10) 0.01059 345.5 18.5
380(11) 0.00905 345.5 18.5
335(10) 0.01028 345.5 18.6
352(10) 0.00966 345.5 18.8
369(10) 0.00972 345.5 18.9
336(9) 0.01112 345.5 19.2
330(10) 0.01092 345.5 19.4
390(11) 0.00864 345.5 19.7
372(10) 0.00957 345.5 20.0
376(10) 0.00966 345.5 20.4
364(10) 0.01019 345.5 20.9
382(11) 0.00888 345.5 21.4
362(10) 0.00929 345.5 22.1
369(10) 0.00934 345.5 22.8
377(10) 0.00992 345.4 23.8
384(10) 0.00938 345.4 25.1
380(11) 0.00903 345.4 26.8
376(11) 0.00846 345.4 29.1
365(10) 0.00938 345.4 32.1
383(10) 0.00975 345.4 36.1
386(10) 0.00958 345.4 40.9
424(11) 0.00802 345.4 46.4
393(11) 0.00819 345.4 52.2
398(11) 0.00886 345.4 57.7
414(11) 0.00900 345.4 61.7
402(10) 0.00926 345.4 63.3
403(11) 0.00864 345.4 62.1
390(11) 0.00851 345.4 58.5
429(11) 0.00800 345.4 53.7
402(10) 0.00929 345.4 48.6
374(10) 0.00987 345.4 43.7
368(10) 0.00989 345.4 39.6
417(11) 0.00789 345.4 36.3
405(11) 0.00879 345.4 33.7
388(10) 0.00966 345.4 31.7
383(10) 0.00962 345.4 30.3
372(10) 0.00952 345.4 29.2
364(10) 0.00951 345.4 28.3
363(10) 0.00986 345.4 27.4
381(10) 0.00979 345.4 26.7
386(10) 0.00912 345.4 25.9
346(10) 0.01004 345.4 25.2
366(10) 0.00911 345.4 24.4
358(10) 0.00960 345.4 23.7
377(10) 0.00983 345.4 22.9
394(11) 0.00886 345.4 22.1
379(11) 0.00903 345.4 21.4
357(10) 0.00990 345.4 20.6
354(10) 0.01007 345.4 19.9
351(10) 0.01060 345.4 19.1
349(10) 0.00986 345.4 18.4
359(10) 0.00958 345.4 17.7
394(11) 0.00853 345.4 17.0
372(10) 0.00967 345.4 16.4
351(10) 0.01067 345.4 15.8
361(10) 0.00935 345.4 15.1
366(10) 0.00911 345.4 14.6
387(11) 0.00899 345.4 14.0
373(10) 0.00970 345.4 13.5
342(10) 0.01082 345.4 13.0
356(10) 0.00993 345.4 12.5
366(11) 0.00870 345.4 12.1
372(10) 0.00945 345.4 11.7
365(10) 0.01018 345.4 11.3
358(10) 0.01033 345.4 10.9
364(10) 0.00974 345.4 10.6
380(11) 0.00860 345.4 10.3
370(10) 0.00961 345.4 10.0
360(10) 0.01018 345.4 9.7
350(10) 0.01062 345.4 9.5
360(10) 0.00954 345.4 9.3
344(10) 0.00961 345.4 9.1
372(10) 0.00916 345.4 8.9
356(10) 0.01040 345.4 8.8
357(10) 0.01035 345.4 8.6
348(10) 0.01003 345.4 8.5
351(10) 0.00919 345.4 8.4
335(10) 0.01066 345.4 8.4
357(10) 0.01024 345.4 8.3
340(10) 0.01072 345.4 8.3
361(10) 0.00955 345.4 8.3
378(11) 0.00855 345.4 8.3
352(10) 0.00971 345.4 8.3
390(10) 0.00939 345.4 8.4
359(10) 0.01040 345.4 8.5
357(10) 0.00988 345.4 8.6
348(10) 0.01001 345.3 8.8
351(10) 0.01032 345.3 9.0
335(9) 0.01109 345.3 9.2
336(10) 0.01035 345.3 9.5
334(10) 0.00999 345.3 9.7
351(10) 0.00930 345.3 9.9
359(10) 0.00942 345.3 10.1
354(10) 0.01061 345.3 10.2
346(10) 0.01004 345.3 10.3
353(10) 0.00988 345.3 10.4
333(10) 0.01035 345.3 10.5
325(10) 0.01085 345.3 10.6
359(10) 0.01033 345.3 10.7
339(10) 0.01024 345.3 10.8
360(10) 0.00947 345.3 11.0
346(10) 0.01021 345.3 11.2
369(10) 0.00983 345.3 11.4
340(10) 0.01088 345.3 11.6
369(10) 0.00944 345.3 11.8
363(10) 0.00939 345.3 12.1
363(10) 0.00974 345.3 12.3
375(10) 0.00963 345.3 12.5
366(10) 0.01021 345.3 12.7
390(11) 0.00876 345.3 12.9
357(10) 0.00921 345.3 13.1
363(10) 0.00984 345.3 13.2
358(10) 0.01017 345.3 13.3
370(10) 0.01003 345.3 13.4
336(10) 0.01042 345.3 13.5
334(10) 0.01015 345.3 13.5
364(10) 0.00937 345.3 13.5
336(10) 0.01099 345.3 13.5
365(10) 0.01014 345.3 13.4
354(10) 0.00961 345.3 13.3
362(11) 0.00885 345.3 13.1
319(9) 0.01116 345.3 13.0
337(10) 0.01089 345.3 12.8
328(9) 0.01127 345.3 12.5
361(10) 0.00958 345.3 12.3
370(11) 0.00883 345.3 12.0
352(10) 0.00994 345.3 11.8
353(10) 0.01060 345.3 11.5
347(10) 0.01022 345.3 11.2
345(10) 0.00993 345.3 10.9
360(10) 0.00913 345.3 10.6
338(10) 0.01012 345.3 10.3
339(10) 0.01085 345.3 10.0
366(10) 0.00987 345.3 9.7
377(10) 0.00931 345.3 9.4
342(10) 0.00998 345.3 9.1
359(10) 0.00960 345.3 8.8
351(10) 0.01064 345.3 8.6
342(10) 0.01040 345.3 8.4
348(10) 0.00989 345.3 8.1
333(10) 0.01031 345.3 7.9
362(10) 0.00966 345.3 7.8
355(10) 0.01055 345.3 7.6
340(10) 0.01077 345.3 7.5
377(11) 0.00898 345.3 7.4
352(10) 0.00991 345.3 7.4
364(10) 0.00969 345.3 7.4
350(10) 0.01050 345.3 7.5
322(10) 0.01070 345.3 7.7
359(10) 0.00954 345.3 8.1
348(10) 0.01007 345.3 8.6
349(10) 0.01022 345.3 9.2
374(10) 0.00995 345.3 10.1
343(10) 0.01017 345.3 11.2
360(10) 0.00946 345.3 12.6
347(10) 0.00994 345.3 14.2
368(10) 0.00976 345.3 16.0
356(10) 0.01048 345.2 17.9
356(10) 0.00963 345.2 19.9
334(10) 0.01002 345.2 21.9
342(10) 0.01027 345.2 23.5
361(10) 0.01014 345.2 24.6
369(10) 0.01005 345.2 24.9
364(10) 0.00955 345.2 24.5
358(10) 0.00925 345.2 23.3
347(10) 0.01040 345.2 21.6
323(9) 0.01135 345.2 19.6
351(10) 0.01059 345.2 17.4
337(10) 0.01038 345.2 15.3
346(10) 0.00934 345.2 13.3
352(10) 0.00974 345.2 11.6
350(10) 0.01057 345.2 10.0
359(10) 0.01028 345.2 8.7
335(10) 0.01057 345.2 7.7
348(10) 0.00959 345.2 6.8
343(10) 0.01048 345.2 6.1
335(9) 0.01116 345.2 5.6
343(10) 0.01074 345.2 5.2
345(10) 0.01029 345.2 4.8
356(11) 0.00906 345.2 4.6
350(10) 0.00969 345.2 4.4
350(10) 0.01059 345.2 4.2
380(10) 0.00955 345.2 4.1
334(10) 0.01072 345.2 4.0
324(10) 0.01049 345.2 3.9
318(9) 0.01123 345.2 3.8
341(10) 0.01093 345.2 3.8
333(10) 0.01095 345.2 3.7
337(10) 0.01041 345.2 3.7
322(10) 0.01071 345.2 3.7
338(10) 0.01033 345.2 3.6
357(10) 0.01034 345.2 3.6
342(10) 0.01018 345.2 3.6
345(10) 0.00953 345.2 3.6
327(10) 0.01010 345.2 3.6
343(10) 0.00998 345.2 3.6
347(10) 0.01072 345.2 3.5
359(10) 0.01008 345.2 3.5
339(10) 0.01031 345.2 3.5
332(10) 0.01062 345.2 3.5
368(10) 0.00985 345.2 3.5
335(9) 0.01118 345.2 3.5
366(10) 0.00930 345.2 3.5
346(10) 0.00982 345.2 3.5
337(10) 0.01019 345.2 3.5
349(10) 0.01058 345.2 3.5
339(10) 0.01077 345.2 3.4
335(10) 0.01044 345.2 3.4
347(10) 0.00964 345.2 3.4
340(10) 0.01001 345.2 3.4
357(10) 0.01011 345.2 3.3
355(10) 0.01044 345.2 3.3
373(10) 0.00922 345.2 3.3
341(10) 0.00976 345.2 3.3
328(10) 0.01032 345.2 3.2
348(10) 0.01041 345.2 3.2
337(9) 0.01121 345.2 3.2
323(10) 0.01089 345.2 3.2
356(10) 0.00918 345.2 3.1
342(10) 0.01010 345.2 3.1
381(10) 0.00957 345.2 3.1
349(10) 0.01059 345.2 3.1
346(10) 0.00982 345.2 3.1
332(10) 0.00971 345.2 3.0
329(10) 0.01059 345.2 3.0
338(10) 0.01093 345.2 3.0
330(9) 0.01118 345.2 3.0
365(10) 0.00936 345.2 3.0
334(10) 0.00970 345.1 3.0
341(10) 0.01017 345.1 3.0
328(9) 0.01127 345.1 3.0
348(10) 0.01041 345.1 3.0
345(10) 0.01015 345.1 3.0
360(11) 0.00903 345.1 3.0
328(10) 0.01056 345.1 3.0
339(10) 0.01094 345.1 3.0
337(10) 0.01073 345.1 3.1
359(10) 0.00956 345.1 3.1
331(10) 0.01014 345.1 3.1
344(10) 0.00980 345.1 3.1
327(9) 0.01130 345.1 3.1
342(10) 0.01076 345.1 3.1
360(10) 0.00917 345.1 3.1
332(10) 0.00987 345.1 3.2
335(10) 0.01045 345.1 3.2
334(9) 0.01123 345.1 3.2
346(10) 0.01041 345.1 3.2
354(10) 0.00961 345.1 3.2
357(10) 0.00983 345.1 3.2
358(10) 0.01022 345.1 3.2
333(9) 0.01117 345.1 3.3
379(11) 0.00900 345.1 3.3
354(10) 0.00968 345.1 3.3
352(10) 0.00973 345.1 3.3
320(9) 0.01169 345.1 3.3
356(10) 0.01043 345.1 3.3
338(10) 0.01002 345.1 3.3
332(10) 0.00988 345.1 3.3
327(10) 0.01076 345.1 3.3
371(10) 0.00974 345.1 3.3
358(10) 0.01027 345.1 3.3
353(10) 0.00940 345.1 3.4
351(10) 0.00938 345.1 3.4
343(10) 0.01023 345.1 3.4
335(10) 0.01090 345.1 3.4
360(10) 0.01030 345.1 3.4
339(10) 0.01036 345.1 3.4
351(10) 0.00929 345.1 3.4
371(10) 0.00956 345.1 3.4
348(10) 0.01074 345.1 3.4
352(10) 0.01046 345.1 3.4
350(10) 0.01036 345.1 3.4
350(10) 0.00966 345.1 3.4
352(10) 0.00967 345.1 3.5
374(10) 0.00976 345.1 3.5
332(9) 0.01117 345.1 3.5
340(10) 0.01052 345.1 3.5
346(10) 0.00971 345.1 3.5
338(10) 0.01008 345.1 3.5
335(9) 0.01115 345.1 3.5
314(9) 0.01150 345.1 3.6
328(10) 0.01056 345.1 3.6
340(10) 0.00984 345.1 3.6
348(10) 0.01034 345.1 3.6
344(10) 0.01088 345.1 3.7
347(10) 0.01073 345.1 3.7
352(10) 0.00993 345.1 3.8
369(11) 0.00887 345.1 3.8
347(10) 0.01033 345.1 3.8
383(10) 0.00975 345.1 3.9
341(10) 0.01069 345.1 3.9
349(10) 0.01003 345.1 4.0
370(10) 0.00939 345.1 4.1
367(10) 0.00925 345.1 4.2
340(10) 0.01100 345.1 4.2
332(10) 0.01068 345.1 4.3
350(10) 0.00956 345.1 4.4
333(10) 0.01033 345.1 4.5
311(9) 0.01162 345.1 4.6
347(10) 0.01072 345.1 4.8
348(10) 0.01048 345.1 4.9
373(10) 0.00910 345.1 5.0
344(10) 0.01029 345.1 5.2
357(10) 0.01002 345.1 5.3
348(10) 0.01063 345.1 5.5
350(10) 0.00970 345.1 5.7
354(10) 0.00953 345.1 5.9
353(10) 0.00958 345.1 6.1
348(10) 0.01015 345.1 6.3
338(10) 0.01106 345.1 6.5
337(10) 0.01039 345.1 6.7
361(10) 0.00930 345.1 6.9
359(10) 0.01002 345.1 7.2
347(10) 0.01038 345.1 7.4
362(10) 0.01039 345.1 7.7
364(10) 0.00948 345.1 7.9
363(11) 0.00890 345.1 8.2
357(10) 0.00964 345.1 8.5
367(10) 0.01010 345.1 8.8
360(10) 0.01039 345.1 9.1
379(11) 0.00899 345.1 9.3
354(10) 0.00916 345.1 9.6
367(10) 0.00971 345.1 9.9
340(10) 0.01100 345.1 10.2
354(10) 0.01055 345.1 10.5
340(10) 0.01048 345.1 10.8
332(10) 0.01004 345.1 11.1
344(10) 0.01024 345.1 11.3
379(10) 0.00980 345.1 11.6
385(10) 0.00949 345.1 12.0
361(10) 0.00931 345.1 12.3
354(10) 0.00911 345.1 12.6
356(10) 0.00986 345.1 13.0
384(10) 0.00979 345.1 13.3
390(10) 0.00944 345.1 13.8
385(11) 0.00891 345.1 14.2
353(10) 0.00942 345.1 14.8
378(11) 0.00866 345.1 15.4
366(10) 0.01010 345.1 16.0
343(10) 0.01089 345.1 16.8
350(10) 0.01002 345.1 17.6
335(10) 0.01050 345.1 18.6
365(10) 0.00960 345.1 19.6
334(9) 0.01120 345.1 20.7
370(10) 0.00966 345.1 22.0
370(10) 0.00908 345.1 23.4
367(11) 0.00872 345.1 24.8
338(10) 0.01035 345.1 26.4
370(10) 0.01005 345.1 28.0
360(10) 0.00972 345.1 29.7
341(10) 0.01021 345.1 31.5
351(10) 0.00995 345.1 33.3
372(10) 0.00944 345.1 35.0
340(10) 0.01100 345.1 36.8
383(11) 0.00900 345.1 38.4
365(10) 0.00945 345.1 39.8
360(10) 0.00974 345.1 41.1
371(10) 0.00970 345.1 42.1
370(10) 0.01000 345.1 42.9
395(11) 0.00860 345.1 43.3
367(10) 0.00915 345.1 43.3
380(10) 0.00928 345.1 43.1
385(10) 0.00957 345.1 42.5
371(10) 0.01008 345.1 41.7
362(10) 0.00982 345.1 40.6
373(11) 0.00893 345.1 39.4
387(10) 0.00923 345.1 38.0
391(10) 0.00948 345.1 36.5
348(10) 0.01069 345.1 34.9
398(11) 0.00853 345.1 33.3
368(11) 0.00867 345.1 31.6
370(10) 0.00955 345.1 29.9
370(10) 0.01002 345.1 28.2
346(10) 0.01084 345.1 26.6
355(10) 0.00986 345.1 25.0
351(10) 0.00918 345.1 23.5
360(10) 0.00982 345.1 22.0
346(10) 0.01039 345.1 20.5
382(10) 0.00980 345.1 19.2
369(10) 0.00964 345.1 17.9
345(10) 0.00990 345.1 16.7
373(10) 0.00958 345.1 15.6
366(10) 0.01018 345.1 14.6
331(10) 0.01099 345.1 13.6
350(10) 0.00969 345.1 12.7
334(10) 0.00998 345.1 11.9
341(10) 0.01026 345.1 11.1
343(10) 0.01075 345.1 10.4
344(10) 0.01068 345.1 9.8
345(10) 0.01017 345.1 9.2
363(10) 0.00946 345.1 8.6
330(10) 0.01060 345.1 8.1
324(9) 0.01150 345.1 7.7
346(10) 0.01044 345.1 7.3
364(10) 0.00939 345.1 6.9
346(10) 0.00975 345.1 6.5
322(9) 0.01115 345.1 6.2
350(10) 0.01060 345.1 5.9
356(10) 0.00994 345.1 5.6
342(10) 0.01035 345.1 5.4
322(10) 0.01094 345.1 5.2
342(10) 0.01074 345.1 5.0
335(9) 0.01113 345.1 4.8
370(10) 0.00912 345.1 4.6
354(10) 0.00984 345.1 4.5
346(10) 0.01039 345.1 4.3
340(10) 0.01072 345.1 4.2
321(9) 0.01169 345.1 4.1
338(10) 0.01005 345.1 4.0
355(10) 0.00950 345.1 3.9
355(10) 0.00972 345.1 3.8
362(10) 0.01019 345.1 3.7
356(10) 0.01043 345.1 3.7
365(10) 0.00979 345.1 3.6
361(11) 0.00904 345.1 3.5
351(10) 0.00970 345.1 3.5
328(9) 0.01142 345.1 3.5
345(10) 0.01086 345.1 3.4
336(10) 0.01038 345.1 3.4
316(10) 0.01030 345.1 3.4
330(10) 0.01054 345.1 3.3
358(10) 0.01044 345.1 3.3
338(10) 0.01082 345.1 3.3
352(10) 0.00999 345.1 3.3
323(10) 0.01037 345.1 3.3
336(10) 0.01065 345.1 3.3
330(10) 0.01104 345.1 3.4
331(9) 0.01123 345.1 3.4
334(10) 0.01035 345.1 3.4
339(10) 0.01010 345.1 3.4
339(10) 0.01003 345.1 3.4
336(10) 0.01107 345.1 3.5
353(10) 0.01034 345.1 3.5
346(10) 0.01007 345.1 3.6
345(10) 0.00925 345.1 3.6
323(10) 0.01063 345.1 3.7
343(10) 0.01090 345.1 3.7
359(10) 0.01016 345.1 3.8
341(10) 0.01027 345.1 3.9
344(10) 0.00977 345.1 4.0
353(10) 0.00961 345.1 4.1
343(10) 0.01083 345.1 4.2
343(10) 0.01044 345.1 4.3
354(10) 0.00949 345.1 4.5
344(10) 0.00983 345.1 4.7
331(10) 0.01064 345.1 4.9
361(10) 0.01031 345.1 5.1
333(10) 0.01087 345.1 5.5
360(10) 0.00946 345.1 5.9
352(10) 0.01010 345.1 6.4
358(10) 0.01022 345.1 7.0
361(10) 0.01029 345.1 7.7
358(10) 0.00990 345.1 8.6
323(10) 0.01038 345.1 9.6
312(9) 0.01146 345.1 10.8
372(10) 0.00963 345.1 12.0
376(10) 0.00994 345.1 13.2
358(10) 0.00963 345.1 14.4
333(10) 0.01027 345.1 15.3
378(10) 0.00916 345.1 15.9
360(10) 0.01016 345.1 16.1
336(9) 0.01115 345.1 15.8
353(10) 0.00967 345.1 15.2
362(10) 0.00918 345.1 14.3
364(10) 0.00967 345.1 13.4
349(10) 0.01055 345.1 12.5
359(10) 0.01035 345.1 11.6
400(11) 0.00847 345.1 10.9
368(10) 0.00928 345.1 10.3
377(10) 0.00943 345.1 9.9
374(10) 0.00988 345.1 9.6
370(10) 0.01011 345.1 9.3
364(10) 0.00940 345.1 9.2
367(11) 0.00854 345.1 9.1
360(10) 0.00960 345.1 9.1
361(10) 0.01015 345.1 9.1
330(9) 0.01135 345.1 9.2
343(10) 0.00996 345.1 9.2
334(10) 0.00986 345.1 9.2
339(10) 0.01035 345.1 9.3
354(10) 0.01040 345.1 9.3
363(10) 0.01037 345.1 9.4
371(10) 0.00934 345.1 9.4
373(11) 0.00879 345.1 9.4
334(10) 0.01005 345.1 9.4
335(9) 0.01116 345.1 9.4
344(10) 0.01040 345.1 9.5
359(10) 0.00960 345.1 9.5
378(11) 0.00862 345.1 9.4
346(10) 0.00994 345.1 9.4
343(10) 0.01081 345.1 9.4
343(10) 0.01057 345.1 9.4
325(10) 0.01087 345.1 9.3
341(10) 0.00991 345.1 9.3
333(10) 0.01074 345.1 9.3
346(10) 0.01079 345.1 9.2
355(10) 0.01018 345.1 9.2
361(10) 0.00951 345.1 9.1
367(10) 0.00919 345.1 9.1
349(10) 0.01056 345.1 9.0
358(10) 0.01043 345.1 9.0
338(10) 0.01038 345.1 8.9
355(10) 0.00924 345.1 8.9
355(10) 0.00915 345.1 8.8
339(10) 0.01020 345.1 8.8
360(10) 0.01034 345.1 8.7
340(10) 0.01037 345.1 8.7
362(11) 0.00905 345.1 8.7
356(10) 0.00973 345.1 8.6
382(10) 0.00940 345.1 8.6
336(9) 0.01124 345.1 8.6
383(11) 0.00880 345.1 8.7
335(10) 0.01039 345.1 8.7
343(10) 0.01024 345.1 8.8
337(10) 0.01086 345.1 8.9
317(9) 0.01165 345.1 9.1
370(10) 0.00938 345.1 9.5
360(10) 0.00919 345.1 10.1
334(10) 0.01033 345.1 11.0
340(10) 0.01084 345.1 12.2
362(10) 0.01024 345.1 13.6
363(10) 0.00952 345.1 15.1
348(10) 0.00946 345.1 16.2
366(10) 0.00934 345.1 16.7
354(10) 0.01053 345.1 16.4
340(10) 0.01087 345.1 15.6
327(10) 0.01092 345.1 14.5
352(10) 0.00915 345.1 13.5
349(10) 0.01021 345.1 12.7
366(10) 0.01014 345.1 12.1
355(10) 0.01047 345.1 11.7
352(10) 0.00978 345.1 11.5
358(11) 0.00893 345.1 11.3
385(10) 0.00911 345.1 11.1
354(10) 0.01059 345.1 11.0
359(10) 0.01022 345.1 10.9
345(10) 0.01005 345.1 10.9
322(10) 0.01013 345.1 10.9
344(10) 0.01031 345.1 10.9
391(10) 0.00941 345.1 10.9
342(10) 0.01070 345.1 11.0
359(10) 0.00994 345.1 11.1
363(11) 0.00902 345.1 11.2
362(10) 0.00958 345.1 11.3
344(10) 0.01074 345.1 11.5
357(10) 0.01004 345.1 11.6
329(10) 0.01029 345.1 11.8
327(10) 0.01025 345.1 12.0
337(10) 0.01012 345.1 12.1
352(10) 0.01048 345.1 12.3
366(10) 0.00944 345.1 12.5
381(11) 0.00883 345.1 12.7
344(10) 0.01016 345.1 12.9
359(10) 0.00971 345.1 13.2
354(10) 0.01039 345.1 13.4
335(10) 0.01044 345.1 13.6
372(11) 0.00868 345.1 13.8
383(10) 0.00912 345.1 14.1
349(10) 0.01029 345.1 14.3
343(10) 0.01085 345.1 14.5
363(10) 0.00969 345.1 14.8
384(11) 0.00856 345.1 15.1
343(10) 0.00998 345.1 15.3
360(10) 0.00991 345.1 15.6
373(10) 0.00984 345.1 15.9
389(11) 0.00904 345.1 16.2
384(11) 0.00858 345.1 16.5
375(10) 0.00938 345.1 16.8
353(10) 0.01048 345.1 17.1
360(10) 0.01036 345.1 17.4
371(10) 0.00916 345.1 17.8
376(11) 0.00838 345.1 18.1
361(10) 0.00936 345.1 18.5
357(10) 0.01045 345.1 18.8
362(10) 0.01014 345.1 19.1
397(11) 0.00848 345.1 19.5
361(11) 0.00894 345.1 19.8
346(10) 0.00988 345.1 20.1
390(10) 0.00937 345.1 20.3
350(10) 0.01056 345.1 20.5
361(10) 0.00928 345.1 20.7
374(11) 0.00885 345.1 20.9
390(11) 0.00884 345.1 21.1
375(10) 0.00993 345.1 21.2
362(10) 0.01009 345.1 21.4
346(10) 0.01025 345.1 21.7
356(10) 0.00932 345.1 22.1
344(10) 0.00917 345.1 22.6
385(10) 0.00970 345.1 23.5
371(10) 0.00976 345.1 24.7
354(10) 0.00996 345.1 26.4
373(11) 0.00896 345.1 28.9
358(10) 0.00978 345.1 32.1
400(10) 0.00933 345.1 36.2
405(11) 0.00881 345.1 41.3
405(11) 0.00831 345.1 47.3
411(11) 0.00807 345.1 54.0
411(11) 0.00852 345.1 61.0
437(11) 0.00855 345.1 67.6
403(11) 0.00892 345.1 73.1
433(11) 0.00810 345.1 76.3
413(11) 0.00822 345.1 76.7
375(10) 0.00931 345.1 74.2
381(10) 0.00974 345.1 69.5
401(11) 0.00877 345.1 63.7
412(11) 0.00823 345.1 57.7
409(11) 0.00855 345.1 52.4
356(10) 0.01034 345.1 48.0
390(10) 0.00950 345.1 44.7
376(10) 0.00940 345.1 42.5
392(11) 0.00831 345.1 40.9
420(11) 0.00818 345.1 39.5
378(10) 0.00972 345.1 37.7
397(10) 0.00937 345.1 35.3
387(11) 0.00870 345.1 32.2
378(11) 0.00837 345.1 28.7
359(10) 0.00987 345.1 25.1
369(10) 0.00993 345.1 21.8
366(10) 0.01015 345.1 18.9
369(10) 0.00938 345.1 16.4
362(10) 0.00916 345.1 14.4
366(10) 0.00928 345.1 12.7
372(10) 0.00967 345.1 11.5
349(10) 0.01070 345.1 10.5
354(10) 0.00986 345.1 9.7
367(11) 0.00872 345.1 9.1
355(10) 0.00958 345.1 8.6
327(9) 0.01123 345.1 8.2
328(9) 0.01143 345.1 7.9
352(10) 0.00979 345.1 7.6
356(10) 0.00943 345.1 7.3
351(10) 0.00993 345.1 7.1
340(10) 0.01095 345.1 6.9
322(9) 0.01138 345.1 6.7
345(10) 0.00992 345.1 6.5
366(11) 0.00875 345.1 6.3
314(10) 0.01077 345.1 6.2
339(10) 0.01103 345.1 6.1
380(10) 0.00917 345.1 6.0
350(10) 0.00971 345.1 5.8
329(10) 0.01041 345.1 5.8
337(10) 0.01006 345.1 5.7
346(10) 0.01051 345.1 5.6
328(10) 0.01100 345.1 5.5
333(10) 0.01046 345.1 5.5
338(10) 0.01002 345.1 5.4
354(10) 0.01015 345.1 5.4
350(10) 0.01067 345.1 5.4
332(10) 0.01069 345.1 5.3
334(10) 0.01028 345.1 5.3
331(10) 0.01028 345.1 5.3
331(10) 0.01074 345.1 5.3
354(10) 0.01048 345.1 5.3
339(10) 0.01037 345.1 5.3
363(10) 0.00932 345.1 5.3
375(11) . . .
330(10) . . .
342(10) . . .
331(10) . . .
349(10) . . .
340(10) . . .
358(10) . . .
358(10) . . .
341(10) . . .
319(10) . . .
343(10) . . .
334(10) . . .
353(10) . . .
355(10) . . .
331(10) . . .
333(10) . . .
350(10) . . .
349(10) . . .
334(10) . . .
335(10) . . .
338(10) . . .
334(9) . . .
322(9) . . .
327(10) . . .
320(10) . . .
361(10) . . .
327(9) . . .
317(9) . . .
355(10) . . .
359(10) . . .
363(10) . . .
337(10) . . .
336(10) . . .
335(10) . . .
328(10) . . .
338(10) . . .
324(9) . . .
326(9) . . .
373(10) . . .
337(10) . . .
342(10) . . .
336(10) . . .
369(10) . . .
352(10) . . .
353(10) . . .
321(9) . . .
367(10) . . .
372(10) . . .
349(10) . . .
350(10) . . .
339(10) . . .
346(10) . . .
352(10) . . .
371(11) . . .
363(10) . . .
325(10) . . .
343(10) . . .
337(10) . . .
322(10) . . .
349(10) . . .
363(10) . . .
342(10) . . .
335(10) . . .
351(10) . . .
332(10) . . .
370(10) . . .
354(10) . . .
319(10) . . .
353(11) . . .
342(10) . . .
335(10) . . .
338(10) . . .
350(10) . . .
354(10) . . .
351(10) . . .
349(10) . . .
359(10) . . .
359(10) . . .
366(11) . . .
345(10) . . .
355(10) . . .
382(10) . . .
355(10) . . .
349(10) . . .
319(10) . . .
359(10) . . .
357(10) . . .
363(10) . . .
368(11) . . .
345(10) . . .
373(10) . . .
344(10) . . .
343(10) . . .
357(10) . . .
367(10) . . .
380(10) . . .
376(10) . . .
355(10) . . .
354(10) . . .
355(10) . . .
345(10) . . .
350(10) . . .
346(10) . . .
334(10) . . .
367(10) . . .
333(9) . . .
356(10) . . .
350(10) . . .
361(10) . . .
382(10) . . .
386(10) . . .
355(10) . . .
361(10) . . .
365(10) . . .
370(10) . . .
368(10) . . .
345(10) . . .
351(10) . . .
364(10) . . .
349(10) . . .
345(10) . . .
349(10) . . .
343(10) . . .
337(10) . . .
329(9) . . .
333(9) . . .
363(10) . . .
361(11) . . .
313(9) . . .
343(10) . . .
355(10) . . .
348(10) . . .
360(10) . . .
338(10) . . .
361(10) . . .
331(10) . . .
325(10) . . .
320(10) . . .
332(10) . . .
357(10) . . .
328(10) . . .
353(10) . . .
326(10) . . .
334(10) . . .
365(10) . . .
349(10) . . .
333(10) . . .
346(10) . . .
352(10) . . .
322(9) . . .
349(10) . . .
351(10) . . .
348(10) . . .
329(9) . . .
361(10) . . .
351(10) . . .
341(10) . . .
342(10) . . .
331(10) . . .
350(10) . . .
363(10) . . .
330(10) . . .
329(10) . . .
350(10) . . .
343(10) . . .
332(10) . . .
362(11) . . .
354(10) . . .
357(10) . . .
356(10) . . .
345(10) . . .
335(10) . . .
313(10) . . .
344(10) . . .
386(10) . . .
322(10) . . .
315(10) . . .
366(10) . . .
311(9) . . .
365(10) . . .
335(10) . . .
320(10) . . .
363(10) . . .
371(10) . . .
336(10) . . .
340(10) . . .
325(10) . . .
335(10) . . .
329(9) . . .
351(10) . . .
363(10) . . .
347(10) . . .
340(10) . . .
318(9) . . .
376(10) . . .
352(10) . . .
338(10) . . .
367(10) . . .
363(10) . . .
349(10) . . .
368(11) . . .
368(10) . . .
357(10) . . .
370(10) . . .
371(11) . . .
349(10) . . .
358(10) . . .
364(10) . . .
345(10) . . .
341(10) . . .
349(10) . . .
344(10) . . .
334(10) . . .
350(10) . . .
331(10) . . .
325(10) . . .
358(10) . . .
327(9) . . .
337(10) . . .
343(10) . . .
314(10) . . .
337(10) . . .
348(10) . . .
343(10) . . .
321(10) . . .
343(10) . . .
324(10) . . .
339(10) . . .
356(10) . . .
346(10) . . .
345(10) . . .
345(10) . . .
333(9) . . .
345(10) . . .
356(10) . . .
334(10) . . .
330(10) . . .
343(10) . . .
348(10) . . .
316(9) . . .
332(10) . . .
319(10) . . .
349(10) . . .
364(10) . . .
341(10) . . .
339(10) . . .
321(10) . . .
350(10) . . .
330(10) . . .
348(10) . . .
360(10) . . .
335(10) . . .
337(10) . . .
359(10) . . .
334(10) . . .
358(10) . . .
345(10) . . .
371(10) . . .
379(10) . . .
379(11) . . .
365(10) . . .
372(10) . . .
397(10) . . .
378(10) . . .
392(11) . . .
401(11) . . .
408(10) . . .
392(10) . . .
439(11) . . .
444(12) . . .
448(11) . . .
430(11) . . .
441(11) . . .
419(11) . . .
438(12) . . .
424(11) . . .
404(10) . . .
372(10) . . .
392(11) . . .
376(10) . . .
410(11) . . .
368(10) . . .
377(10) . . .
365(10) . . .
356(10) . . .
346(10) . . .
342(10) . . .
364(10) . . .
365(10) . . .
347(10) . . .
339(10) . . .
343(10) . . .
322(9) . . .
364(10) . . .
350(10) . . .
339(10) . . .
357(10) . . .
353(10) . . .
369(10) . . .
349(10) . . .
350(10) . . .
334(9) . . .
356(10) . . .
322(10) . . .
367(10) . . .
342(10) . . .
336(9) . . .
350(10) . . .
359(10) . . .
364(10) . . .
360(10) . . .
345(10) . . .
358(10) . . .
365(10) . . .
349(10) . . .
370(10) . . .
341(10) . . .
350(10) . . .
356(10) . . .
360(10) . . .
329(9) . . .
349(10) . . .
342(10) . . .
329(10) . . .
371(10) . . .
340(10) . . .
360(10) . . .
360(10) . . .
371(11) . . .
317(9) . . .
352(10) . . .
340(10) . . .
370(10) . . .
370(11) . . .
349(10) . . .
317(9) . . .
316(9) . . .
329(10) . . .
327(10) . . .
339(10) . . .
317(9) . . .
348(10) . . .
354(10) . . .
361(10) . . .
363(10) . . .
376(10) . . .
342(10) . . .
353(10) . . .
370(11) . . .
343(10) . . .
339(10) . . .
330(10) . . .
327(10) . . .
359(10) . . .
336(10) . . .
320(9) . . .
317(10) . . .
327(10) . . .
337(10) . . .
337(10) . . .
323(9) . . .
324(10) . . .
347(10) . . .
345(10) . . .
333(9) . . .
318(9) . . .
326(10) . . .
313(10) . . .
321(9) . . .
340(10) . . .
337(10) . . .
317(10) . . .
340(10) . . .
322(10) . . .
329(9) . . .
349(10) . . .
344(10) . . .
331(10) . . .
326(10) . . .
337(9) . . .
334(10) . . .
320(10) . . .
326(10) . . .
323(10) . . .
311(9) . . .
326(9) . . .
310(10) . . .
317(10) . . .
332(10) . . .
322(9) . . .
301(9) . . .
315(10) . . .
334(10) . . .
310(9) . . .
322(9) . . .
326(10) . . .
326(10) . . .
301(9) . . .
299(9) . . .
329(9) . . .
335(10) . . .
310(9) . . .
312(10) . . .
326(9) . . .
326(9) . . .
292(9) . . .
302(10) . . .
305(9) . . .
312(9) . . .
322(9) . . .
339(10) . . .
314(10) . . .
305(9) . . .
326(9) . . .
313(9) . . .
309(9) . . .
317(10) . . .
336(10) . . .
293(9) . . .
300(9) . . .
320(9) . . .
330(10) . . .
327(10) . . .
344(10) . . .
315(9) . . .
296(9) . . .
307(10) . . .
291(9) . . .
317(9) . . .
320(9) . . .
321(10) . . .
332(10) . . .
340(10) . . .
358(10) . . .
321(9) . . .
316(10) . . .
308(10) . . .
310(10) . . .
328(9) . . .
324(9) . . .
348(10) . . .
351(10) . . .
357(10) . . .
356(10) . . .
355(10) . . .
351(10) . . .
366(10) . . .
372(10) . . .
340(10) . . .
342(10) . . .
373(11) . . .
368(10) . . .
351(10) . . .
389(10) . . .
409(11) . . .
391(11) . . .
376(10) . . .
394(10) . . .
391(10) . . .
379(11) . . .
400(11) . . .
383(10) . . .
407(11) . . .
410(11) . . .
399(11) . . .
386(11) . . .
391(11) . . .
368(10) . . .
377(10) . . .
369(10) . . .
368(11) . . .
356(10) . . .
380(10) . . .
354(10) . . .
323(9) . . .
353(10) . . .
336(10) . . .
319(9) . . .
337(10) . . .
330(10) . . .
334(10) . . .
343(10) . . .
334(10) . . .
326(9) . . .
330(10) . . .
337(10) . . .
348(10) . . .
317(9) . . .
334(10) . . .
329(10) . . .
314(9) . . .
334(10) . . .
305(9) . . .
310(9) . . .
325(10) . . .
319(9) . . .
327(10) . . .
315(9) . . .
344(10) . . .
318(10) . . .
304(9) . . .
322(10) . . .
303(9) . . .
322(10) . . .
323(10) . . .
301(9) . . .
324(10) . . .
319(9) . . .
323(10) . . .
329(10) . . .
320(10) . . .
328(9) . . .
316(9) . . .
315(10) . . .
297(10) . . .
306(9) . . .
333(10) . . .
318(9) . . .
317(10) . . .
302(10) . . .
317(10) . . .
311(9) . . .
313(9) . . .
312(9) . . .
324(10) . . .
306(9) . . .
300(9) . . .
306(9) . . .
295(9) . . .
312(10) . . .
311(10) . . .
308(9) . . .
287(9) . . .
315(10) . . .
301(10) . . .
290(9) . . .
307(9) . . .
321(9) . . .
313(9) . . .
327(10) . . .
307(9) . . .
305(9) . . .
297(9) . . .
268(9) . . .
278(9) . . .
321(10) . . .
298(9) . . .
308(9) . . .
315(10) . . .
318(10) . . .
304(9) . . .
293(9) . . .
288(9) . . .
289(9) . . .
312(9) . . .
276(9) . . .
305(9) . . .
318(10) . . .
306(10) . . .
330(10) . . .
325(10) . . .
336(9) . . .
306(9) . . .
321(10) . . .
315(9) . . .
333(10) . . .
301(9) . . .
315(10) . . .
300(10) . . .
309(9) . . .
292(9) . . .
313(9) . . .
302(9) . . .
320(10) . . .
333(10) . . .
316(9) . . .
297(9) . . .
309(10) . . .
289(9) . . .
341(10) . . .
305(9) . . .
300(9) . . .
304(9) . . .
303(9) . . .
303(9) . . .
317(9) . . .
288(9) . . .
300(9) . . .
286(9) . . .
289(9) . . .
296(9) . . .
331(10) . . .
313(9) . . .
306(10) . . .
292(9) . . .
314(9) . . .
275(9) . . .
311(10) . . .
294(9) . . .
273(9) . . .
308(9) . . .
299(9) . . .
295(9) . . .
290(9) . . .
295(9) . . .
309(9) . . .
288(9) . . .
314(10) . . .
277(9) . . .
304(9) . . .
303(9) . . .
300(9) . . .
325(10) . . .
320(9) . . .
321(9) . . .
312(9) . . .
275(9) . . .
327(10) . . .
295(9) . . .
286(9) . . .
293(9) . . .
296(9) . . .
281(9) . . .
288(9) . . .
306(9) . . .
332(9) . . .
287(9) . . .
292(10) . . .
315(10) . . .
311(9) . . .
300(9) . . .
307(9) . . .
293(9) . . .
317(10) . . .
311(9) . . .
303(9) . . .
334(10) . . .
302(10) . . .
294(9) . . .
308(9) . . .
320(9) . . .
300(9) . . .
304(10) . . .
296(9) . . .
308(9) . . .
302(9) . . .
302(9) . . .
302(9) . . .
330(10) . . .
341(10) . . .
334(10) . . .
320(10) . . .
340(10) . . .
334(10) . . .
319(9) . . .
328(10) . . .
287(9) . . .
302(9) . . .
304(9) . . .
316(9) . . .
293(9) . . .
303(10) . . .
307(9) . . .
304(9) . . .
299(9) . . .
285(9) . . .
302(10) . . .
293(9) . . .
288(9) . . .
296(9) . . .
311(9) . . .
302(10) . . .
308(9) . . .
307(9) . . .
306(9) . . .
295(9) . . .
306(10) . . .
304(9) . . .
320(9) . . .
304(9) . . .
314(10) . . .
356(11) . . .
334(10) . . .
312(9) . . .
309(9) . . .
297(9) . . .
313(10) . . .
342(10) . . .
353(10) . . .
334(10) . . .
331(10) . . .
348(10) . . .
343(10) . . .
318(9) . . .
346(10) . . .
311(10) . . .
297(9) . . .
271(9) . . .
308(9) . . .
315(9) . . .
308(9) . . .
307(10) . . .
293(9) . . .
295(9) . . .
301(9) . . .
296(9) . . .
323(10) . . .
309(9) . . .
286(9) . . .
305(9) . . .
304(9) . . .
318(9) . . .
323(9) . . .
303(9) . . .
273(9) . . .
290(9) . . .
287(9) . . .
262(8) . . .
296(9) . . .
288(9) . . .
294(9) . . .
275(9) . . .
265(8) . . .
285(9) . . .
292(9) . . .
301(10) . . .
283(9) . . .
312(9) . . .
294(9) . . .
294(9) . . .
283(9) . . .
277(9) . . .
283(9) . . .
303(9) . . .
296(9) . . .
286(9) . . .
298(9) . . .
306(9) . . .
279(9) . . .
291(9) . . .
318(10) . . .
295(9) . . .
291(9) . . .
290(9) . . .
291(9) . . .
293(10) . . .
274(9) . . .
278(9) . . .
277(9) . . .
307(10) . . .
298(9) . . .
308(9) . . .
274(9) . . .
309(10) . . .
271(9) . . .
298(9) . . .
293(9) . . .
286(9) . . .
260(9) . . .
272(9) . . .
285(9) . . .
286(9) . . .
275(9) . . .
274(9) . . .
284(9) . . .
308(9) . . .
289(9) . . .
305(9) . . .
319(10) . . .
301(10) . . .
299(9) . . .
319(9) . . .
274(9) . . .
284(9) . . .
290(10) . . .
290(9) . . .
308(9) . . .
279(9) . . .
293(9) . . .
291(10) . . .
283(9) . . .
289(9) . . .
273(9) . . .
287(9) . . .
281(9) . . .
297(9) . . .
291(9) . . .
291(9) . . .
305(9) . . .
306(10) . . .
303(9) . . .
281(9) . . .
301(9) . . .
303(9) . . .
311(10) . . .
290(9) . . .
313(9) . . .
306(9) . . .
354(10) . . .
309(9) . . .
312(9) . . .
322(9) . . .
321(9) . . .
309(10) . . .
323(10) . . .
285(9) . . .
295(9) . . .
299(9) . . .
316(10) . . .
300(9) . . .
304(9) . . .
302(9) . . .
297(9) . . .
286(9) . . .
328(10) . . .
328(9) . . .
312(9) . . .
329(10) . . .
314(10) . . .
329(10) . . .
324(9) . . .
292(9) . . .
295(9) . . .
335(10) . . .
327(9) . . .
382(10) . . .
328(9) . . .
325(10) . . .
338(10) . . .
342(10) . . .
321(9) . . .
326(9) . . .
327(10) . . .
351(10) . . .
369(10) . . .
355(10) . . .
333(9) . . .
343(10) . . .
337(10) . . .
347(10) . . .
329(9) . . .
328(10) . . .
330(10) . . .
345(10) . . .
342(10) . . .
331(9) . . .
334(10) . . .
312(9) . . .
316(10) . . .
291(9) . . .
341(10) . . .
320(9) . . .
315(9) . . .
311(10) . . .
302(9) . . .
281(9) . . .
301(9) . . .
311(10) . . .
297(9) . . .
308(9) . . .
324(9) . . .
318(10) . . .
298(10) . . .
297(9) . . .
308(9) . . .
313(9) . . .
320(10) . . .
271(9) . . .
281(9) . . .
287(9) . . .
289(9) . . .
296(9) . . .
270(9) . . .
310(10) . . .
311(9) . . .
292(9) . . .
278(9) . . .
282(10) . . .
289(9) . . .
271(9) . . .
258(8) . . .
256(9) . . .
270(9) . . .
277(9) . . .
266(8) . . .
268(9) . . .
267(9) . . .
274(9) . . .
262(9) . . .
280(9) . . .
258(8) . . .
283(9) . . .
268(9) . . .
255(9) . . .
253(8) . . .
268(9) . . .
266(9) . . .
273(9) . . .
282(9) . . .
263(8) . . .
263(9) . . .
276(9) . . .
256(9) . . .
266(9) . . .
268(8) . . .
271(9) . . .
280(9) . . .
275(9) . . .
293(9) . . .
252(8) . . .
256(8) . . .
265(9) . . .
275(9) . . .
257(8) . . .
237(8) . . .
243(8) . . .
272(9) . . .
278(9) . . .
268(8) . . .
248(8) . . .
276(9) . . .
275(9) . . .
280(9) . . .
247(8) . . .
272(9) . . .
269(9) . . .
267(9) . . .
261(9) . . .
259(8) . . .
267(8) . . .
267(9) . . .
263(9) . . .
278(9) . . .
251(8) . . .
267(9) . . .
268(9) . . .
262(9) . . .
260(9) . . .
288(9) . . .
271(9) . . .
278(9) . . .
286(9) . . .
282(9) . . .
268(8) . . .
284(9) . . .
269(9) . . .
270(9) . . .
261(9) . . .
268(8) . . .
284(9) . . .
252(8) . . .
274(9) . . .
257(8) . . .
255(8) . . .
264(9) . . .
271(9) . . .
258(9) . . .
289(9) . . .
306(9) . . .
280(9) . . .
279(9) . . .
278(9) . . .
268(9) . . .
288(9) . . .
274(9) . . .
289(9) . . .
282(9) . . .
271(9) . . .
266(8) . . .
266(9) . . .
253(9) . . .
274(9) . . .
287(9) . . .
282(9) . . .
279(9) . . .
292(9) . . .
270(9) . . .
270(9) . . .
246(8) . . .
297(9) . . .
292(9) . . .
276(9) . . .
252(8) . . .
280(9) . . .
240(8) . . .
263(9) . . .
285(9) . . .
269(8) . . .
261(9) . . .
288(9) . . .
268(9) . . .
254(9) . . .
276(9) . . .
268(9) . . .
287(9) . . .
235(8) . . .
261(9) . . .
266(8) . . .
265(8) . . .
270(9) . . .
278(9) . . .
258(8) . . .
279(9) . . .
262(9) . . .
279(9) . . .
274(9) . . .
261(9) . . .
252(8) . . .
240(8) . . .
251(9) . . .
259(9) . . .
257(8) . . .
254(8) . . .
274(9) . . .
278(9) . . .
266(9) . . .
264(8) . . .
247(8) . . .
269(9) . . .
275(9) . . .
256(9) . . .
250(8) . . .
234(8) . . .
248(9) . . .
276(9) . . .
252(8) . . .
256(8) . . .
270(8) . . .
265(9) . . .
275(9) . . .
267(9) . . .
256(8) . . .
257(9) . . .
273(9) . . .
287(10) . . .
248(9) . . .
245(8) . . .
258(8) . . .
253(9) . . .
242(9) . . .
237(8) . . .
265(8) . . .
249(8) . . .
262(9) . . .
276(9) . . .
270(9) . . .
279(9) . . .
275(9) . . .
273(9) . . .
255(9) . . .
253(8) . . .
259(8) . . .
260(9) . . .
273(9) . . .
285(9) . . .
268(9) . . .
261(8) . . .
243(8) . . .
240(8) . . .
243(8) . . .
256(8) . . .
219(8) . . .
254(9) . . .
255(9) . . .
241(8) . . .
266(9) . . .
236(8) . . .
267(9) . . .
236(8) . . .
257(9) . . .
264(8) . . .
261(8) . . .
262(9) . . .
265(9) . . .
276(9) . . .
260(8) . . .
267(8) . . .
246(8) . . .
231(8) . . .
264(9) . . .
236(8) . . .
229(8) . . .
271(9) . . .
248(9) . . .
241(8) . . .
248(8) . . .
245(8) . . .
271(9) . . .
273(9) . . .
246(8) . . .
248(8) . . .
258(8) . . .
283(9) . . .
263(9) . . .
252(9) . . .
255(8) . . .
254(9) . . .
251(9) . . .
243(9) . . .
255(9) . . .
272(9) . . .
256(9) . . .
251(9) . . .
264(9) . . .
244(8) . . .
254(8) . . .
269(9) . . .
258(9) . . .
246(8) . . .
275(9) . . .
255(8) . . .
257(9) . . .
254(9) . . .
257(9) . . .
262(9) . . .
245(8) . . .
229(8) . . .
243(9) . . .
260(9) . . .
264(9) . . .
280(9) . . .
268(9) . . .
271(9) . . .
266(9) . . .
262(8) . . .
247(8) . . .
251(8) . . .
258(9) . . .
256(9) . . .
274(9) . . .
245(8) . . .
241(8) . . .
266(9) . . .
263(9) . . .
261(8) . . .
276(9) . . .
257(9) . . .
241(9) . . .
251(8) . . .
258(8) . . .
240(8) . . .
246(8) . . .
236(8) . . .
279(9) . . .
247(8) . . .
258(8) . . .
242(8) . . .
276(9) . . .
251(8) . . .
250(8) . . .
255(8) . . .
261(9) . . .
225(8) . . .
238(8) . . .
242(8) . . .
250(8) . . .
239(8) . . .
246(9) . . .
260(9) . . .
238(8) . . .
249(9) . . .
239(8) . . .
252(8) . . .
275(9) . . .
236(8) . . .
271(9) . . .
233(8) . . .
240(8) . . .
234(8) . . .
237(8) . . .
255(9) . . .
235(8) . . .
251(9) . . .
240(8) . . .
252(8) . . .
227(8) . . .
232(8) . . .
273(9) . . .
254(8) . . .
246(8) . . .
254(9) . . .
240(9) . . .
248(8) . . .
221(8) . . .
238(8) . . .
244(8) . . .
234(9) . . .
235(8) . . .
242(8) . . .
241(8) . . .
248(8) . . .
258(9) . . .
242(8) . . .
248(8) . . .
237(8) . . .
242(8) . . .
239(8) . . .
241(8) . . .
238(8) . . .
231(8) . . .
241(8) . . .
244(8) . . .
221(8) . . .
224(8) . . .
238(8) . . .
215(8) . . .
218(8) . . .
221(8) . . .
250(8) . . .
238(8) . . .
237(8) . . .
225(8) . . .
239(8) . . .
241(8) . . .
245(8) . . .
238(9) . . .
234(8) . . .
245(8) . . .
250(8) . . .
233(8) . . .
234(9) . . .
248(8) . . .
213(8) . . .
230(8) . . .
237(8) . . .
219(8) . . .
211(8) . . .
220(8) . . .
243(8) . . .
244(8) . . .
242(9) . . .
242(8) . . .
219(8) . . .
246(8) . . .
225(8) . . .
235(8) . . .
248(8) . . .
221(8) . . .
253(8) . . .
253(8) . . .
242(9) . . .
240(8) . . .
253(8) . . .
239(8) . . .
240(8) . . .
279(9) . . .
262(9) . . .
236(8) . . .
245(8) . . .
234(8) . . .
239(8) . . .
246(8) . . .
252(8) . . .
238(8) . . .
238(8) . . .
239(8) . . .
235(8) . . .
228(8) . . .
221(8) . . .
230(8) . . .
234(8) . . .
219(8) . . .
222(8) . . .
231(8) . . .
243(9) . . .
242(8) . . .
228(8) . . .
235(8) . . .
239(8) . . .
232(8) . . .
244(8) . . .
249(8) . . .
230(8) . . .
231(8) . . .
218(8) . . .
232(8) . . .
225(8) . . .
229(8) . . .
250(8) . . .
253(9) . . .
251(9) . . .
255(8) . . .
262(8) . . .
261(9) . . .
237(8) . . .
250(9) . . .
255(8) . . .
272(9) . . .
270(9) . . .
251(9) . . .
271(9) . . .
303(9) . . .
305(9) . . .
297(9) . . .
299(9) . . .
300(9) . . .
269(8) . . .
269(9) . . .
268(9) . . .
281(9) . . .
251(9) . . .
267(9) . . .
274(9) . . .
269(9) . . .
235(8) . . .
253(8) . . .
248(8) . . .
244(8) . . .
249(9) . . .
231(8) . . .
252(8) . . .
246(8) . . .
261(9) . . .
277(9) . . .
259(9) . . .
249(8) . . .
249(8) . . .
277(9) . . .
277(9) . . .
242(8) . . .
257(8) . . .
270(8) . . .
246(8) . . .
259(9) . . .
256(9) . . .
253(8) . . .
244(8) . . .
262(9) . . .
281(9) . . .
276(9) . . .
240(8) . . .
250(8) . . .
257(8) . . .
269(9) . . .
251(8) . . .
261(8) . . .
274(9) . . .
246(8) . . .
234(8) . . .
257(9) . . .
223(8) . . .
262(8) . . .
256(9) . . .
252(9) . . .
263(9) . . .
267(8) . . .
256(9) . . .
235(8) . . .
256(9) . . .
247(8) . . .
244(8) . . .
253(8) . . .
241(8) . . .
243(9) . . .
230(8) . . .
255(8) . . .
230(8) . . .
237(8) . . .
241(8) . . .
252(8) . . .
256(8) . . .
279(9) . . .
268(9) . . .
250(8) . . .
255(9) . . .
237(8) . . .
234(8) . . .
265(9) . . .
251(9) . . .
246(8) . . .
267(8) . . .
272(9) . . .
265(9) . . .
254(9) . . .
253(8) . . .
266(8) . . .
279(9) . . .
259(9) . . .
276(9) . . .
283(9) . . .
297(9) . . .
290(9) . . .
289(9) . . .
294(9) . . .
285(9) . . .
285(9) . . .
274(9) . . .
276(9) . . .
270(9) . . .
260(8) . . .
274(9) . . .
250(8) . . .
252(9) . . .
275(9) . . .
278(9) . . .
267(9) . . .
288(9) . . .
269(9) . . .
252(9) . . .
238(8) . . .
259(9) . . .
273(9) . . .
267(9) . . .
268(9) . . .
255(8) . . .
251(8) . . .
253(9) . . .
249(8) . . .
257(9) . . .
258(8) . . .
234(8) . . .
246(8) . . .
237(8) . . .
244(8) . . .
265(8) . . .
266(9) . . .
251(9) . . .
233(8) . . .
234(8) . . .
229(8) . . .
239(8) . . .
243(9) . . .
230(8) . . .
244(8) . . .
234(8) . . .
253(9) . . .
261(9) . . .
243(8) . . .
246(8) . . .
243(8) . . .
234(8) . . .
218(8) . . .
225(8) . . .
242(8) . . .
225(8) . . .
239(8) . . .
234(8) . . .
246(8) . . .
250(8) . . .
261(8) . . .
244(9) . . .
220(8) . . .
240(8) . . .
244(8) . . .
232(8) . . .
227(8) . . .
242(9) . . .
223(8) . . .
231(8) . . .
235(8) . . .
233(8) . . .
242(8) . . .
244(8) . . .
250(8) . . .
244(8) . . .
228(8) . . .
227(8) . . .
248(8) . . .
227(8) . . .
224(8) . . .
221(8) . . .
234(9) . . .
243(8) . . .
264(8) . . .
236(8) . . .
229(8) . . .
222(8) . . .
244(8) . . .
247(8) . . .
240(8) . . .
239(8) . . .
241(8) . . .
223(8) . . .
260(8) . . .
244(8) . . .
263(9) . . .
241(8) . . .
231(8) . . .
246(8) . . .
226(8) . . .
226(8) . . .
265(9) . . .
259(8) . . .
231(8) . . .
248(9) . . .
234(9) . . .
244(9) . . .
242(8) . . .
226(8) . . .
266(9) . . .
230(8) . . .
258(9) . . .
245(8) . . .
260(8) . . .
235(8) . . .
230(8) . . .
240(8) . . .
224(8) . . .
259(8) . . .
243(8) . . .
261(9) . . .
229(8) . . .
234(8) . . .
228(8) . . .
222(8) . . .
229(8) . . .
236(8) . . .
243(8) . . .
235(8) . . .
237(9) . . .
230(8) . . .
236(8) . . .
232(8) . . .
230(8) . . .
245(9) . . .
261(9) . . .
248(8) . . .
251(8) . . .
266(9) . . .
230(8) . . .
225(8) . . .
246(8) . . .
254(8) . . .
259(9) . . .
270(9) . . .
242(8) . . .
252(8) . . .
249(8) . . .
245(8) . . .
236(9) . . .
248(8) . . .
226(8) . . .
233(8) . . .
215(8) . . .
244(9) . . .
220(8) . . .
204(7) . . .
236(8) . . .
231(8) . . .
244(9) . . .
235(8) . . .
217(8) . . .
224(8) . . .
233(8) . . .
230(8) . . .
245(8) . . .
212(8) . . .
230(8) . . .
256(9) . . .
235(8) . . .
227(8) . . .
229(8) . . .
238(8) . . .
243(9) . . .
203(8) . . .
232(8) . . .
236(8) . . .
215(8) . . .
222(8) . . .
220(8) . . .
237(8) . . .
227(8) . . .
218(8) . . .
212(8) . . .
203(8) . . .
215(8) . . .
232(8) . . .
221(8) . . .
233(8) . . .
245(8) . . .
241(8) . . .
236(8) . . .
234(8) . . .
224(8) . . .
201(8) . . .
205(8) . . .
237(8) . . .
220(8) . . .
205(8) . . .
213(8) . . .
205(7) . . .
246(8) . . .
231(8) . . .
216(8) . . .
211(8) . . .
220(8) . . .
202(7) . . .
216(8) . . .
228(8) . . .
249(9) . . .
229(8) . . .
250(8) . . .
235(8) . . .
220(8) . . .
222(8) . . .
221(8) . . .
219(8) . . .
221(8) . . .
216(8) . . .
212(8) . . .
212(8) . . .
216(8) . . .
236(8) . . .
227(8) . . .
245(8) . . .
231(8) . . .
238(8) . . .
221(8) . . .
202(8) . . .
226(8) . . .
231(8) . . .
217(8) . . .
211(8) . . .
215(8) . . .
224(8) . . .
225(8) . . .
218(8) . . .
246(9) . . .
231(8) . . .
217(8) . . .
217(8) . . .
222(8) . . .
223(8) . . .
244(8) . . .
218(8) . . .
216(8) . . .
220(8) . . .
244(9) . . .
245(8) . . .
246(8) . . .
227(8) . . .
222(8) . . .
240(9) . . .
233(8) . . .
217(8) . . .
209(8) . . .
222(8) . . .
228(8) . . .
228(8) . . .
211(8) . . .
239(8) . . .
224(8) . . .
235(8) . . .
246(8) . . .
247(8) . . .
228(8) . . .
237(8) . . .
249(9) . . .
232(8) . . .
228(8) . . .
241(8) . . .
229(8) . . .
242(9) . . .
217(8) . . .
211(8) . . .
230(8) . . .
216(8) . . .
234(8) . . .
229(8) . . .
214(8) . . .
218(8) . . .
248(9) . . .
224(8) . . .
210(8) . . .
203(7) . . .
242(8) . . .
223(8) . . .
234(8) . . .
224(8) . . .
219(8) . . .
197(8) . . .
223(8) . . .
227(8) . . .
221(8) . . .
239(8) . . .
220(8) . . .
215(8) . . .
211(8) . . .
232(8) . . .
224(8) . . .
222(8) . . .
240(9) . . .
251(9) . . .
214(8) . . .
223(8) . . .
240(8) . . .
216(8) . . .
225(8) . . .
217(8) . . .
213(8) . . .
226(8) . . .
226(8) . . .
207(8) . . .
224(8) . . .
241(8) . . .
213(8) . . .
224(8) . . .
224(8) . . .
240(8) . . .
233(8) . . .
186(7) . . .
226(8) . . .
222(8) . . .
210(7) . . .
217(8) . . .
201(8) . . .
217(8) . . .
200(7) . . .
230(8) . . .
216(8) . . .
208(8) . . .
202(8) . . .
214(8) . . .
229(8) . . .
216(8) . . .
245(9) . . .
228(8) . . .
225(8) . . .
204(7) . . .
227(8) . . .
213(8) . . .
210(8) . . .
248(8) . . .
226(8) . . .
221(8) . . .
194(8) . . .
204(8) . . .
209(8) . . .
222(8) . . .
229(8) . . .
207(8) . . .
219(8) . . .
184(7) . . .
216(8) . . .
219(8) . . .
216(8) . . .
203(8) . . .
187(7) . . .
209(7) . . .
213(8) . . .
201(8) . . .
231(8) . . .
250(8) . . .
216(8) . . .
204(8) . . .
201(8) . . .
221(8) . . .
224(8) . . .
213(8) . . .
229(8) . . .
200(7) . . .
218(8) . . .
230(8) . . .
222(8) . . .
223(8) . . .
215(8) . . .
226(8) . . .
219(8) . . .
212(8) . . .
202(8) . . .
203(8) . . .
217(8) . . .
207(7) . . .
222(8) . . .
213(8) . . .
215(8) . . .
237(8) . . .
189(7) . . .
231(8) . . .
202(8) . . .
217(8) . . .
210(8) . . .
202(7) . . .
208(8) . . .
215(8) . . .
209(8) . . .
226(8) . . .
219(8) . . .
235(8) . . .
225(8) . . .
229(8) . . .
220(8) . . .
227(8) . . .
201(7) . . .
236(9) . . .
229(8) . . .
216(8) . . .
227(8) . . .
237(8) . . .
226(8) . . .
227(8) . . .
218(8) . . .
193(7) . . .
216(8) . . .
238(8) . . .
230(8) . . .
212(8) . . .
217(8) . . .
207(8) . . .
225(8) . . .
213(8) . . .
200(7) . . .
211(8) . . .
246(8) . . .
237(8) . . .
219(8) . . .
219(8) . . .
231(8) . . .
206(8) . . .
220(8) . . .
225(8) . . .
225(8) . . .
225(8) . . .
234(8) . . .
225(8) . . .
231(8) . . .
217(8) . . .
238(8) . . .
268(9) . . .
239(8) . . .
244(8) . . .
235(8) . . .
240(8) . . .
232(9) . . .
230(8) . . .
235(8) . . .
228(8) . . .
217(8) . . .
217(8) . . .
229(8) . . .
221(8) . . .
253(8) . . .
258(9) . . .
265(9) . . .
263(9) . . .
276(9) . . .
271(9) . . .
256(9) . . .
265(9) . . .
242(8) . . .
254(8) . . .
222(8) . . .
256(9) . . .
223(8) . . .
283(9) . . .
234(8) . . .
234(8) . . .
228(8) . . .
251(9) . . .
256(8) . . .
246(8) . . .
237(8) . . .
231(8) . . .
224(8) . . .
252(9) . . .
219(8) . . .
228(8) . . .
242(8) . . .
227(8) . . .
241(8) . . .
233(8) . . .
206(8) . . .
205(8) . . .
224(8) . . .
202(7) . . .
207(7) . . .
228(8) . . .
233(8) . . .
230(8) . . .
210(8) . . .
238(8) . . .
212(8) . . .
218(8) . . .
219(8) . . .
234(8) . . .
219(8) . . .
200(8) . . .
230(9) . . .
241(8) . . .
214(8) . . .
208(8) . . .
210(8) . . .
216(8) . . .
206(8) . . .
204(7) . . .
210(7) . . .
235(8) . . .
220(8) . . .
207(8) . . .
219(8) . . .
211(8) . . .
223(8) . . .
218(8) . . .
203(8) . . .
212(8) . . .
231(8) . . .
194(7) . . .
239(9) . . .
223(8) . . .
201(7) . . .
218(8) . . .
229(8) . . .
218(8) . . .
206(8) . . .
210(8) . . .
225(8) . . .
200(8) . . .
219(8) . . .
208(8) . . .
213(8) . . .
208(8) . . .
248(9) . . .
221(8) . . .
204(8) . . .
214(8) . . .
231(8) . . .
235(9) . . .
217(8) . . .
210(8) . . .
214(8) . . .
207(8) . . .
200(8) . . .
195(7) . . .
233(8) . . .
210(8) . . .
207(7) . . .
219(8) . . .
213(8) . . .
222(8) . . .
190(7) . . .
203(8) . . .
207(8) . . .
206(8) . . .
210(7) . . .
232(8) . . .
212(8) . . .
200(8) . . .
221(8) . . .
239(8) . . .
220(8) . . .
220(8) . . .
203(8) . . .
219(8) . . .
187(7) . . .
218(8) . . .
195(7) . . .
206(8) . . .
223(8) . . .
200(7) . . .
216(8) . . .
191(7) . . .
219(8) . . .
212(8) . . .
215(8) . . .
207(8) . . .
199(8) . . .
212(8) . . .
220(8) . . .
218(8) . . .
207(8) . . .
203(8) . . .
221(8) . . .
210(8) . . .
199(7) . . .
219(8) . . .
214(8) . . .
243(9) . . .
220(8) . . .
215(8) . . .
210(8) . . .
196(8) . . .
205(8) . . .
202(7) . . .
231(8) . . .
233(8) . . .
214(8) . . .
221(8) . . .
211(8) . . .
221(8) . . .
204(8) . . .
196(8) . . .
213(8) . . .
217(8) . . .
232(8) . . .
249(8) . . .
225(8) . . .
204(8) . . .
234(8) . . .
215(8) . . .
204(8) . . .
226(8) . . .
208(8) . . .
199(7) . . .
198(7) . . .
224(8) . . .
202(8) . . .
206(8) . . .
240(8) . . .
218(8) . . .
211(8) . . .
199(8) . . .
220(8) . . .
223(8) . . .
216(8) . . .
223(8) . . .
218(8) . . .
213(8) . . .
212(8) . . .
212(8) . . .
207(8) . . .
221(8) . . .
225(8) . . .
225(8) . . .
214(8) . . .
234(9) . . .
208(8) . . .
205(8) . . .
227(8) . . .
220(8) . . .
206(8) . . .
228(8) . . .
225(8) . . .
237(8) . . .
231(8) . . .
221(8) . . .
212(8) . . .
227(8) . . .
216(8) . . .
215(8) . . .
226(8) . . .
218(8) . . .
205(7) . . .
242(8) . . .
223(8) . . .
244(9) . . .
206(8) . . .
222(8) . . .
242(8) . . .
241(8) . . .
235(8) . . .
260(9) . . .
263(9) . . .
259(8) . . .
223(8) . . .
235(8) . . .
231(8) . . .
233(8) . . .
242(8) . . .
229(8) . . .
231(8) . . .
230(8) . . .
236(8) . . .
228(8) . . .
218(8) . . .
209(8) . . .
212(8) . . .
217(8) . . .
225(8) . . .
203(8) . . .
194(7) . . .
233(8) . . .
232(8) . . .
226(8) . . .
209(8) . . .
216(8) . . .
226(8) . . .
229(8) . . .
226(8) . . .
219(8) . . .
216(8) . . .
251(8) . . .
222(8) . . .
208(8) . . .
230(8) . . .
243(8) . . .
235(8) . . .
209(7) . . .
218(8) . . .
225(8) . . .
227(8) . . .
234(8) . . .
240(8) . . .
212(8) . . .
225(8) . . .
221(8) . . .
209(7) . . .
229(8) . . .
233(8) . . .
241(9) . . .
213(8) . . .
237(8) . . .
249(8) . . .
233(8) . . .
217(8) . . .
227(8) . . .
243(8) . . .
235(8) . . .
216(8) . . .
238(8) . . .
222(8) . . .
239(8) . . .
212(8) . . .
211(8) . . .
202(8) . . .
208(8) . . .
236(8) . . .
216(8) . . .
221(8) . . .
217(8) . . .
226(8) . . .
209(8) . . .
245(8) . . .
231(8) . . .
233(8) . . .
219(8) . . .
227(8) . . .
201(8) . . .
219(8) . . .
225(8) . . .
222(8) . . .
228(8) . . .
225(8) . . .
222(8) . . .
217(8) . . .
234(8) . . .
232(8) . . .
204(8) . . .
219(8) . . .
202(8) . . .
209(8) . . .
206(7) . . .
228(8) . . .
213(8) . . .
211(8) . . .
203(7) . . .
214(8) . . .
207(8) . . .
208(8) . . .
230(8) . . .
214(8) . . .
218(8) . . .
227(8) . . .
226(8) . . .
202(8) . . .
230(8) . . .
217(8) . . .
225(8) . . .
216(8) . . .
217(8) . . .
225(8) . . .
233(8) . . .
225(8) . . .
215(8) . . .
231(8) . . .
235(8) . . .
230(8) . . .
216(8) . . .
222(8) . . .
240(8) . . .
266(8) . . .
242(8) . . .
228(8) . . .
241(8) . . .
251(8) . . .
259(8) . . .
273(9) . . .
261(9) . . .
249(9) . . .
243(8) . . .
232(8) . . .
221(8) . . .
211(8) . . .
219(8) . . .
231(8) . . .
236(8) . . .
210(8) . . .
231(8) . . .
208(8) . . .
215(8) . . .
219(8) . . .
211(8) . . .
239(9) . . .
220(8) . . .
206(7) . . .
223(8) . . .
219(8) . . .
225(8) . . .
218(8) . . .
220(8) . . .
220(8) . . .
238(8) . . .
228(8) . . .
221(8) . . .
233(8) . . .
245(8) . . .
215(8) . . .
234(8) . . .
220(8) . . .
244(8) . . .
231(8) . . .
203(8) . . .
208(8) . . .
212(8) . . .
189(7) . . .
205(7) . . .
223(8) . . .
220(8) . . .
224(8) . . .
214(8) . . .
216(8) . . .
211(8) . . .
252(9) . . .
222(8) . . .
214(8) . . .
217(8) . . .
204(8) . . .
202(8) . . .
209(8) . . .
205(7) . . .
219(8) . . .
203(8) . . .
223(8) . . .
215(8) . . .
211(8) . . .
197(8) . . .
196(8) . . .
203(8) . . .
205(8) . . .
215(8) . . .
207(8) . . .
209(8) . . .
233(8) . . .
222(8) . . .
216(8) . . .
197(8) . . .
203(8) . . .
229(8) . . .
211(8) . . .
215(8) . . .
230(8) . . .
198(8) . . .
196(8) . . .
221(8) . . .
216(8) . . .
237(8) . . .
226(8) . . .
229(8) . . .
224(8) . . .
220(8) . . .
220(8) . . .
211(8) . . .
204(8) . . .
193(7) . . .
205(8) . . .
190(7) . . .
209(8) . . .
185(7) . . .
206(7) . . .
198(7) . . .
228(8) . . .
213(8) . . .
237(8) . . .
222(8) . . .
210(8) . . .
215(8) . . .
234(8) . . .
212(8) . . .
210(8) . . .
234(8) . . .
228(8) . . .
227(8) . . .
204(8) . . .
224(8) . . .
202(8) . . .
231(8) . . .
210(8) . . .
209(8) . . .
236(8) . . .
206(8) . . .
205(8) . . .
227(8) . . .
216(8) . . .
211(8) . . .
206(8) . . .
197(8) . . .
218(8) . . .
216(8) . . .
202(7) . . .
217(8) . . .
207(8) . . .
207(8) . . .
201(7) . . .
228(8) . . .
227(8) . . .
223(8) . . .
205(8) . . .
243(8) . . .
215(8) . . .
214(8) . . .
214(8) . . .
234(8) . . .
209(8) . . .
208(8) . . .
232(8) . . .
241(9) . . .
217(8) . . .
222(8) . . .
225(8) . . .
214(8) . . .
220(8) . . .
230(8) . . .
226(8) . . .
238(8) . . .
245(9) . . .
226(8) . . .
244(8) . . .
240(8) . . .
244(9) . . .
247(9) . . .
239(8) . . .
238(8) . . .
269(9) . . .
266(9) . . .
256(9) . . .
259(9) . . .
259(9) . . .
264(8) . . .
262(9) . . .
247(9) . . .
253(8) . . .
260(8) . . .
253(8) . . .
221(8) . . .
240(9) . . .
243(8) . . .
254(8) . . .
218(8) . . .
246(8) . . .
217(8) . . .
222(8) . . .
236(8) . . .
226(8) . . .
225(8) . . .
215(8) . . .
208(8) . . .
217(8) . . .
209(8) . . .
247(8) . . .
225(8) . . .
224(8) . . .
225(8) . . .
223(8) . . .
219(8) . . .
217(8) . . .
183(7) . . .
219(8) . . .
223(8) . . .
217(8) . . .
190(7) . . .
209(8) . . .
241(8) . . .
210(8) . . .
215(8) . . .
220(8) . . .
207(8) . . .
206(7) . . .
205(8) . . .
202(8) . . .
228(8) . . .
205(8) . . .
215(8) . . .
197(8) . . .
221(8) . . .
191(8) . . .
198(7) . . .
224(8) . . .
221(8) . . .
201(8) . . .
194(7) . . .
232(8) . . .
209(8) . . .
210(8) . . .
227(8) . . .
220(8) . . .
208(8) . . .
215(8) . . .
200(8) . . .
220(8) . . .
217(8) . . .
220(8) . . .
209(7) . . .
209(8) . . .
209(8) . . .
214(8) . . .
209(8) . . .
196(7) . . .
208(8) . . .
221(8) . . .
232(8) . . .
200(7) . . .
211(8) . . .
215(8) . . .
206(8) . . .
219(8) . . .
202(7) . . .
205(8) . . .
221(8) . . .
216(8) . . .
212(8) . . .
216(8) . . .
216(8) . . .
229(8) . . .
208(8) . . .
222(8) . . .
204(7) . . .
208(8) . . .
193(7) . . .
213(8) . . .
220(8) . . .
203(7) . . .
210(8) . . .
211(8) . . .
205(8) . . .
205(7) . . .
215(8) . . .
214(8) . . .
222(8) . . .
214(8) . . .
224(8) . . .
203(7) . . .
240(8) . . .
221(8) . . .
198(7) . . .
209(7) . . .
201(7) . . .
207(8) . . .
215(8) . . .
221(8) . . .
206(7) . . .
247(8) . . .
205(8) . . .
206(8) . . .
200(8) . . .
203(7) . . .
230(8) . . .
247(8) . . .
241(8) . . .
229(8) . . .
219(8) . . .
247(8) . . .
265(9) . . .
259(9) . . .
242(9) . . .
224(8) . . .
243(8) . . .
246(8) . . .
263(9) . . .
274(9) . . .
275(9) . . .
263(9) . . .
255(9) . . .
238(8) . . .
221(8) . . .
209(8) . . .
224(8) . . .
222(8) . . .
227(8) . . .
235(8) . . .
223(8) . . .
225(8) . . .
212(8) . . .
222(8) . . .
194(7) . . .
211(8) . . .
217(8) . . .
214(8) . . .
218(8) . . .
187(7) . . .
212(8) . . .
224(8) . . .
215(8) . . .
219(8) . . .
205(7) . . .
194(7) . . .
203(8) . . .
203(8) . . .
209(8) . . .
216(8) . . .
211(8) . . .
226(8) . . .
204(8) . . .
213(8) . . .
212(8) . . .
208(7) . . .
218(8) . . .
204(8) . . .
237(8) . . .
212(8) . . .
200(8) . . .
184(7) . . .
210(8) . . .
207(8) . . .
215(8) . . .
211(8) . . .
232(8) . . .
208(8) . . .
209(8) . . .
217(8) . . .
196(7) . . .
218(8) . . .
226(8) . . .
218(8) . . .
211(8) . . .
218(8) . . .
229(8) . . .
232(8) . . .
218(8) . . .
207(7) . . .
211(8) . . .
219(8) . . .
210(8) . . .
205(8) . . .
216(8) . . .
225(8) . . .
220(8) . . .
223(8) . . .
215(8) . . .
226(8) . . .
215(8) . . .
207(8) . . .
206(8) . . .
201(7) . . .
216(8) . . .
204(8) . . .
218(8) . . .
209(8) . . .
210(8) . . .
220(8) . . .
200(8) . . .
194(8) . . .
208(8) . . .
219(8) . . .
196(7) . . .
211(8) . . .
194(7) . . .
207(8) . . .
220(8) . . .
193(7) . . .
219(8) . . .
203(8) . . .
194(8) . . .
199(7) . . .
196(7) . . .
211(8) . . .
212(8) . . .
193(7) . . .
206(7) . . .
205(8) . . .
209(8) . . .
197(8) . . .
194(7) . . .
199(7) . . .
222(8) . . .
189(7) . . .
213(8) . . .
223(8) . . .
215(8) . . .
199(8) . . .
189(7) . . .
204(8) . . .
199(7) . . .
193(7) . . .
205(8) . . .
192(7) . . .
195(8) . . .
196(7) . . .
210(8) . . .
184(7) . . .
187(8) . . .
194(7) . . .
216(8) . . .
223(8) . . .
216(8) . . .
190(8) . . .
211(8) . . .
201(7) . . .
201(7) . . .
189(7) . . .
228(9) . . .
214(8) . . .
182(7) . . .
216(8) . . .
209(8) . . .
208(8) . . .
238(8) . . .
236(8) . . .
207(7) . . .
212(8) . . .
242(9) . . .
223(8) . . .
221(8) . . .
212(8) . . .
202(7) . . .
229(8) . . .
226(8) . . .
220(8) . . .
199(7) . . .
216(8) . . .
213(8) . . .
214(8) . . .
210(8) . . .
196(7) . . .
210(8) . . .
219(8) . . .
218(8) . . .
215(8) . . .
206(8) . . .
224(8) . . .
219(8) . . .
212(8) . . .
221(8) . . .
193(7) . . .
223(8) . . .
212(8) . . .
195(7) . . .
190(7) . . .
210(8) . . .
216(8) . . .
218(8) . . .
216(8) . . .
186(7) . . .
188(7) . . .
212(8) . . .
190(8) . . .
213(8) . . .
209(7) . . .
233(8) . . .
197(8) . . .
214(8) . . .
213(8) . . .
203(7) . . .
182(7) . . .
180(7) . . .
182(7) . . .
224(8) . . .
198(7) . . .
213(8) . . .
223(8) . . .
229(8) . . .
222(8) . . .
216(8) . . .
222(8) . . .
243(9) . . .
219(8) . . .
219(8) . . .
228(8) . . .
227(8) . . .
198(7) . . .
202(8) . . .
201(7) . . .
214(8) . . .
211(8) . . .
231(8) . . .
219(8) . . .
208(7) . . .
229(8) . . .
218(8) . . .
217(8) . . .
242(8) . . .
241(8) . . .
230(8) . . .
233(8) . . .
239(8) . . .
225(8) . . .
230(8) . . .
246(8) . . .
232(8) . . .
235(8) . . .
224(8) . . .
232(8) . . .
232(8) . . .
210(8) . . .
214(8) . . .
213(8) . . .
247(8) . . .
244(8) . . .
229(9) . . .
204(8) . . .
206(7) . . .
206(7) . . .
223(8) . . .
201(8) . . .
221(8) . . .
236(8) . . .
212(8) . . .
239(8) . . .
248(9) . . .
232(8) . . .
225(8) . . .
226(8) . . .
209(8) . . .
218(8) . . .
224(8) . . .
238(8) . . .
226(8) . . .
233(8) . . .
234(8) . . .
237(8) . . .
236(8) . . .
224(8) . . .
238(8) . . .
231(8) . . .
238(8) . . .
237(8) . . .
235(8) . . .
266(9) . . .
241(8) . . .
241(8) . . .
244(8) . . .
236(8) . . .
238(8) . . .
222(8) . . .
245(8) . . .
261(8) . . .
231(8) . . .
219(8) . . .
240(8) . . .
239(8) . . .
220(8) . . .
221(8) . . .
236(9) . . .
198(7) . . .
207(8) . . .
207(7) . . .
205(8) . . .
217(8) . . .
218(8) . . .
211(7) . . .
204(7) . . .
228(8) . . .
243(9) . . .
208(8) . . .
218(8) . . .
211(8) . . .
202(7) . . .
215(8) . . .
217(8) . . .
223(8) . . .
242(8) . . .
213(8) . . .
216(8) . . .
204(8) . . .
199(7) . . .
193(7) . . .
189(7) . . .
195(7) . . .
223(8) . . .
194(7) . . .
225(8) . . .
225(8) . . .
220(8) . . .
212(8) . . .
205(7) . . .
219(8) . . .
204(8) . . .
227(8) . . .
217(8) . . .
216(8) . . .
188(7) . . .
213(8) . . .
211(8) . . .
193(7) . . .
215(8) . . .
200(8) . . .
209(8) . . .
234(8) . . .
224(8) . . .
205(7) . . .
211(8) . . .
215(8) . . .
204(8) . . .
197(7) . . .
219(8) . . .
200(8) . . .
211(8) . . .
222(8) . . .
218(8) . . .
205(7) . . .
211(8) . . .
224(8) . . .
222(8) . . .
236(8) . . .
230(8) . . .
220(8) . . .
192(8) . . .
211(8) . . .
205(7) . . .
189(7) . . .
198(7) . . .
213(8) . . .
210(8) . . .
218(8) . . .
193(7) . . .
199(8) . . .
195(8) . . .
193(7) . . .
213(8) . . .
213(8) . . .
222(8) . . .
205(8) . . .
195(7) . . .
177(7) . . .
204(8) . . .
205(8) . . .
197(7) . . .
206(8) . . .
207(7) . . .
202(8) . . .
206(8) . . .
209(8) . . .
227(8) . . .
236(8) . . .
233(8) . . .
210(8) . . .
204(8) . . .
202(7) . . .
203(7) . . .
211(8) . . .
205(8) . . .
190(7) . . .
193(7) . . .
222(8) . . .
207(8) . . .
215(8) . . .
184(7) . . .
181(7) . . .
196(7) . . .
201(8) . . .
216(8) . . .
199(8) . . .
219(8) . . .
198(7) . . .
189(7) . . .
195(8) . . .
218(8) . . .
226(8) . . .
198(7) . . .
209(8) . . .
202(8) . . .
225(8) . . .
214(8) . . .
239(8) . . .
242(9) . . .
214(8) . . .
218(8) . . .
206(7) . . .
212(8) . . .
216(8) . . .
198(7) . . .
204(8) . . .
191(7) . . .
189(7) . . .
201(8) . . .
206(8) . . .
213(8) . . .
206(7) . . .
208(8) . . .
208(8) . . .
210(8) . . .
225(8) . . .
200(7) . . .
227(8) . . .
209(8) . . .
229(8) . . .
220(8) . . .
216(8) . . .
222(8) . . .
219(8) . . .
235(8) . . .
228(8) . . .
236(8) . . .
219(8) . . .
215(8) . . .
244(9) . . .
232(8) . . .
218(8) . . .
210(8) . . .
243(9) . . .
236(8) . . .
218(8) . . .
200(7) . . .
233(8) . . .
200(8) . . .
213(8) . . .
226(8) . . .
220(8) . . .
203(8) . . .
221(8) . . .
245(9) . . .
240(8) . . .
215(8) . . .
202(7) . . .
218(8) . . .
223(8) . . .
195(7) . . .
231(8) . . .
230(8) . . .
233(8) . . .
216(8) . . .
226(8) . . .
242(8) . . .
241(8) . . .
234(8) . . .
226(8) . . .
244(8) . . .
237(8) . . .
215(8) . . .
231(8) . . .
235(8) . . .
204(7) . . .
213(8) . . .
224(8) . . .
227(8) . . .
218(8) . . .
199(7) . . .
212(8) . . .
221(8) . . .
218(8) . . .
228(8) . . .
231(8) . . .
241(9) . . .
180(7) . . .
204(8) . . .
205(7) . . .
202(7) . . .
223(8) . . .
189(7) . . .
220(8) . . .
194(7) . . .
185(7) . . .
202(8) . . .
196(8) . . .
213(8) . . .
207(7) . . .
213(8) . . .
200(8) . . .
214(8) . . .
210(8) . . .
217(8) . . .
203(7) . . .
225(8) . . .
207(8) . . .
216(8) . . .
234(8) . . .
217(8) . . .
222(8) . . .
221(8) . . .
211(8) . . .
220(8) . . .
209(8) . . .
221(8) . . .
207(8) . . .
225(8) . . .
229(8) . . .
234(8) . . .
219(8) . . .
219(8) . . .
216(8) . . .
192(7) . . .
202(8) . . .
222(8) . . .
227(8) . . .
217(8) . . .
214(8) . . .
239(8) . . .
209(8) . . .
201(8) . . .
212(8) . . .
209(7) . . .
209(8) . . .
216(8) . . .
223(8) . . .
208(8) . . .
215(8) . . .
227(8) . . .
224(8) . . .
227(8) . . .
204(7) . . .
220(8) . . .
225(8) . . .
233(9) . . .
213(8) . . .
199(7) . . .
212(8) . . .
204(8) . . .
206(8) . . .
200(8) . . .
201(7) . . .
197(7) . . .
210(8) . . .
225(8) . . .
205(8) . . .
201(7) . . .
206(7) . . .
205(8) . . .
212(8) . . .
210(8) . . .
193(7) . . .
208(8) . . .
177(7) . . .
185(7) . . .
206(8) . . .
205(7) . . .
203(8) . . .
217(8) . . .
210(8) . . .
197(8) . . .
214(8) . . .
193(7) . . .
207(8) . . .
210(8) . . .
214(8) . . .
200(7) . . .
197(8) . . .
200(8) . . .
205(8) . . .
220(8) . . .
205(7) . . .
198(7) . . .
196(8) . . .
190(7) . . .
193(7) . . .
183(7) . . .
202(8) . . .
207(8) . . .
185(7) . . .
190(7) . . .
209(8) . . .
203(8) . . .
209(8) . . .
199(7) . . .
206(7) . . .
223(8) . . .
197(8) . . .
209(8) . . .
212(8) . . .
191(7) . . .
201(8) . . .
184(7) . . .
197(8) . . .
209(8) . . .
225(8) . . .
218(8) . . .
222(8) . . .
190(8) . . .
228(8) . . .
240(8) . . .
204(7) . . .
223(8) . . .
210(8) . . .
196(8) . . .
230(8) . . .
235(8) . . .
210(8) . . .
229(8) . . .
213(8) . . .
232(8) . . .
223(8) . . .
228(8) . . .
220(8) . . .
232(8) . . .
246(8) . . .
240(9) . . .
226(8) . . .
216(8) . . .
237(8) . . .
250(8) . . .
216(8) . . .
214(8) . . .
224(8) . . .
222(8) . . .
224(8) . . .
222(8) . . .
230(8) . . .
232(8) . . .
231(8) . . .
219(8) . . .
218(8) . . .
225(8) . . .
234(8) . . .
237(8) . . .
217(8) . . .
196(7) . . .
219(8) . . .
213(8) . . .
210(8) . . .
211(8) . . .
225(8) . . .
223(8) . . .
216(8) . . .
216(8) . . .
219(8) . . .
214(8) . . .
248(9) . . .
218(8) . . .
207(8) . . .
214(8) . . .
219(8) . . .
203(8) . . .
245(9) . . .
217(8) . . .
234(8) . . .
214(8) . . .
222(8) . . .
193(7) . . .
214(8) . . .
204(8) . . .
199(8) . . .
205(8) . . .
198(7) . . .
201(7) . . .
195(7) . . .
203(8) . . .
217(8) . . .
213(8) . . .
197(7) . . .
220(8) . . .
215(8) . . .
191(7) . . .
208(8) . . .
199(7) . . .
191(7) . . .
188(7) . . .
200(8) . . .
214(8) . . .
206(7) . . .
211(8) . . .
203(8) . . .
220(8) . . .
204(7) . . .
181(7) . . .
196(8) . . .
204(8) . . .
216(8) . . .
193(7) . . .
203(7) . . .
200(8) . . .
214(8) . . .
203(8) . . .
190(7) . . .
201(7) . . .
212(8) . . .
209(8) . . .
209(8) . . .
205(7) . . .
199(7) . . .
198(8) . . .
207(8) . . .
216(8) . . .
204(7) . . .
220(8) . . .
186(7) . . .
182(7) . . .
184(7) . . .
193(7) . . .
184(7) . . .
207(8) . . .
211(8) . . .
211(8) . . .
197(7) . . .
207(8) . . .
204(8) . . .
199(8) . . .
217(8) . . .
197(7) . . .
196(8) . . .
193(8) . . .
204(8) . . .
218(8) . . .
196(7) . . .
191(7) . . .
200(8) . . .
214(8) . . .
195(7) . . .
222(8) . . .
183(7) . . .
199(8) . . .
196(7) . . .
193(7) . . .
204(7) . . .
219(8) . . .
217(8) . . .
192(7) . . .
201(7) . . .
196(7) . . .
181(7) . . .
211(8) . . .
207(8) . . .
198(7) . . .
198(7) . . .
194(7) . . .
208(8) . . .
208(8) . . .
205(7) . . .
211(8) . . .
209(8) . . .
218(8) . . .
202(8) . . .
211(8) . . .
227(8) . . .
206(8) . . .
183(7) . . .
190(7) . . .
179(7) . . .
203(8) . . .
195(7) . . .
190(8) . . .
215(8) . . .
218(8) . . .
192(7) . . .
206(8) . . .
208(8) . . .
192(7) . . .
218(8) . . .
200(8) . . .
214(8) . . .
197(7) . . .
204(8) . . .
189(7) . . .
209(8) . . .
221(8) . . .
205(8) . . .
199(7) . . .
184(7) . . .
208(8) . . .
210(8) . . .
207(8) . . .
218(8) . . .
208(8) . . .
221(8) . . .
222(8) . . .
215(8) . . .
200(7) . . .
204(7) . . .
205(8) . . .
221(8) . . .
221(8) . . .
194(7) . . .
203(7) . . .
216(8) . . .
206(8) . . .
193(7) . . .
203(7) . . .
196(7) . . .
200(7) . . .
206(8) . . .
186(7) . . .
192(7) . . .
187(7) . . .
213(8) . . .
210(8) . . .
209(8) . . .
227(8) . . .
219(8) . . .
209(8) . . .
220(8) . . .
218(8) . . .
221(8) . . .
209(8) . . .
198(8) . . .
211(8) . . .
236(8) . . .
203(7) . . .
214(8) . . .
216(8) . . .
218(8) . . .
215(8) . . .
196(7) . . .
235(8) . . .
216(8) . . .
216(8) . . .
211(8) . . .
205(7) . . .
199(8) . . .
220(8) . . .
222(8) . . .
186(7) . . .
213(8) . . .
215(8) . . .
197(8) . . .
205(8) . . .
214(8) . . .
192(7) . . .
190(7) . . .
216(8) . . .
203(8) . . .
207(7) . . .
206(7) . . .
190(7) . . .
204(8) . . .
185(7) . . .
203(7) . . .
218(8) . . .
226(8) . . .
195(8) . . .
212(8) . . .
198(7) . . .
191(7) . . .
200(8) . . .
191(7) . . .
208(8) . . .
221(8) . . .
204(8) . . .
216(8) . . .
214(8) . . .
216(8) . . .
229(8) . . .
241(8) . . .
223(8) . . .
206(8) . . .
208(8) . . .
196(7) . . .
212(8) . . .
214(8) . . .
209(8) . . .
208(8) . . .
212(8) . . .
190(7) . . .
180(7) . . .
201(8) . . .
220(8) . . .
201(7) . . .
209(8) . . .
194(8) . . .
198(8) . . .
161(7) . . .
205(7) . . .
208(8) . . .
199(8) . . .
199(8) . . .
192(7) . . .
193(7) . . .
210(8) . . .
178(8) . . .
231(8) . . .
198(7) . . .
184(7) . . .
216(8) . . .
205(8) . . .
199(8) . . .
199(7) . . .
191(7) . . .
195(8) . . .
202(8) . . .
184(7) . . .
183(7) . . .
182(7) . . .
170(7) . . .
209(8) . . .
191(7) . . .
196(7) . . .
174(7) . . .
189(7) . . .
197(8) . . .
187(7) . . .
197(7) . . .
186(7) . . .
198(8) . . .
185(7) . . .
203(8) . . .
210(8) . . .
184(7) . . .
223(8) . . .
219(8) . . .
212(8) . . .
210(8) . . .
182(7) . . .
217(8) . . .
217(8) . . .
214(8) . . .
207(7) . . .
206(8) . . .
204(8) . . .
209(8) . . .
202(8) . . .
205(7) . . .
214(8) . . .
220(8) . . .
201(7) . . .
202(7) . . .
227(8) . . .
223(8) . . .
217(8) . . .
218(8) . . .
205(7) . . .
210(8) . . .
197(7) . . .
195(8) . . .
195(8) . . .
206(7) . . .
209(8) . . .
197(8) . . .
205(8) . . .
194(8) . . .
195(7) . . .
183(7) . . .
224(8) . . .
217(8) . . .
210(8) . . .
196(7) . . .
190(7) . . .
218(8) . . .
219(8) . . .
210(8) . . .
233(8) . . .
194(7) . . .
194(8) . . .
216(8) . . .
205(7) . . .
201(7) . . .
197(8) . . .
188(7) . . .
208(8) . . .
192(7) . . .
211(8) . . .
200(8) . . .
185(7) . . .
190(7) . . .
207(8) . . .
216(8) . . .
206(8) . . .
196(8) . . .
199(8) . . .
215(8) . . .
211(8) . . .
210(8) . . .
207(8) . . .
215(8) . . .
203(7) . . .
210(8) . . .
209(8) . . .
205(8) . . .
202(8) . . .
199(7) . . .
199(7) . . .
208(8) . . .
212(8) . . .
211(8) . . .
196(7) . . .
198(7) . . .
197(7) . . .
214(8) . . .
220(8) . . .
216(8) . . .
202(8) . . .
209(8) . . .
193(8) . . .
179(7) . . .
211(8) . . .
190(7) . . .
185(7) . . .
222(8) . . .
203(8) . . .
176(7) . . .
190(7) . . .
194(7) . . .
187(7) . . .
215(8) . . .
203(7) . . .
202(8) . . .
202(7) . . .
220(8) . . .
195(7) . . .
192(7) . . .
207(8) . . .
189(7) . . .
195(8) . . .
181(7) . . .
183(7) . . .
217(8) . . .
201(8) . . .
190(8) . . .
196(7) . . .
185(7) . . .
184(7) . . .
181(7) . . .
184(7) . . .
195(7) . . .
210(8) . . .
186(7) . . .
190(8) . . .
183(7) . . .
202(7) . . .
201(8) . . .
209(8) . . .
189(8) . . .
184(7) . . .
180(7) . . .
178(7) . . .
206(8) . . .
191(8) . . .
183(7) . . .
182(7) . . .
207(8) . . .
207(8) . . .
201(8) . . .
185(7) . . .
208(7) . . .
177(7) . . .
204(8) . . .
197(8) . . .
184(7) . . .
205(7) . . .
200(8) . . .
187(7) . . .
193(8) . . .
224(8) . . .
191(7) . . .
209(8) . . .
224(8) . . .
202(8) . . .
193(7) . . .
199(7) . . .
190(7) . . .
190(7) . . .
186(7) . . .
190(7) . . .
200(7) . . .
195(7) . . .
186(7) . . .
214(8) . . .
201(7) . . .
210(8) . . .
190(7) . . .
206(8) . . .
211(8) . . .
168(7) . . .
216(8) . . .
196(7) . . .
185(8) . . .
184(8) . . .
207(7) . . .
206(7) . . .
192(7) . . .
190(8) . . .
196(8) . . .
203(7) . . .
187(7) . . .
189(7) . . .
196(8) . . .
190(7) . . .
195(7) . . .
209(8) . . .
191(8) . . .
186(8) . . .
188(7) . . .
184(7) . . .
188(8) . . .
183(7) . . .
197(8) . . .
183(7) . . .
206(7) . . .
196(7) . . .
202(8) . . .
193(7) . . .
203(8) . . .
227(8) . . .
217(8) . . .
188(7) . . .
200(8) . . .
200(8) . . .
196(7) . . .
213(8) . . .
190(7) . . .
187(7) . . .
187(7) . . .
195(7) . . .
190(7) . . .
182(7) . . .
192(8) . . .
207(8) . . .
181(7) . . .
195(7) . . .
200(8) . . .
203(7) . . .
183(7) . . .
183(7) . . .
207(8) . . .
203(8) . . .
208(8) . . .
192(7) . . .
197(7) . . .
210(8) . . .
182(7) . . .
188(7) . . .
197(7) . . .
190(7) . . .
209(8) . . .
188(8) . . .
182(7) . . .
204(7) . . .
194(7) . . .
197(7) . . .
195(8) . . .
180(7) . . .
180(7) . . .
191(7) . . .
200(8) . . .
191(8) . . .
192(7) . . .
218(8) . . .
202(7) . . .
199(8) . . .
187(7) . . .
187(7) . . .
193(7) . . .
201(8) . . .
181(7) . . .
202(8) . . .
195(7) . . .
201(7) . . .
176(7) . . .
200(8) . . .
178(7) . . .
209(8) . . .
204(7) . . .
210(8) . . .
200(8) . . .
189(7) . . .
187(7) . . .
202(7) . . .
204(8) . . .
192(7) . . .
191(7) . . .
193(7) . . .
211(8) . . .
207(8) . . .
216(8) . . .
191(7) . . .
209(7) . . .
197(7) . . .
192(7) . . .
196(8) . . .
206(8) . . .
207(7) . . .
217(8) . . .
200(8) . . .
208(8) . . .
201(8) . . .
172(7) . . .
190(7) . . .
198(8) . . .
206(8) . . .
211(8) . . .
190(7) . . .
182(7) . . .
182(7) . . .
186(8) . . .
185(7) . . .
194(7) . . .
184(7) . . .
204(8) . . .
195(8) . . .
220(8) . . .
215(8) . . .
203(8) . . .
183(7) . . .
182(7) . . .
204(8) . . .
195(7) . . .
199(8) . . .
205(8) . . .
223(8) . . .
197(7) . . .
202(7) . . .
211(8) . . .
208(8) . . .
194(7) . . .
216(8) . . .
203(7) . . .
202(8) . . .
194(8) . . .
182(7) . . .
180(7) . . .
212(8) . . .
179(7) . . .
180(7) . . .
188(7) . . .
189(7) . . .
202(7) . . .
177(7) . . .
196(8) . . .
210(8) . . .
212(8) . . .
176(7) . . .
178(7) . . .
186(8) . . .
187(7) . . .
185(7) . . .
204(7) . . .
195(7) . . .
171(7) . . .
196(8) . . .
180(7) . . .
193(7) . . .
196(8) . . .
182(7) . . .
207(8) . . .
196(7) . . .
189(7) . . .
186(7) . . .
189(8) . . .
193(8) . . .
202(7) . . .
190(7) . . .
199(8) . . .
169(7) . . .
190(7) . . .
180(7) . . .
184(7) . . .
202(8) . . .
199(8) . . .
198(8) . . .
188(7) . . .
207(8) . . .
202(8) . . .
194(8) . . .
189(7) . . .
213(8) . . .
227(8) . . .
205(8) . . .
209(8) . . .
185(7) . . .
195(7) . . .
182(7) . . .
209(8) . . .
191(7) . . .
209(8) . . .
203(7) . . .
208(8) . . .
205(8) . . .
217(8) . . .
200(7) . . .
193(7) . . .
224(8) . . .
205(8) . . .
181(7) . . .
194(7) . . .
206(7) . . .
199(8) . . .
212(8) . . .
224(8) . . .
198(7) . . .
203(7) . . .
222(8) . . .
205(8) . . .
202(8) . . .
198(7) . . .
196(8) . . .
200(8) . . .
203(8) . . .
211(8) . . .
194(7) . . .
176(7) . . .
195(7) . . .
202(8) . . .
193(7) . . .
191(7) . . .
189(7) . . .
198(8) . . .
176(7) . . .
201(8) . . .
180(7) . . .
184(7) . . .
193(8) . . .
217(8) . . .
216(8) . . .
193(7) . . .
203(8) . . .
198(8) . . .
219(8) . . .
205(7) . . .
201(7) . . .
192(8) . . .
176(7) . . .
168(7) . . .
172(7) . . .
186(7) . . .
191(8) . . .
186(8) . . .
177(7) . . .
182(7) . . .
205(8) . . .
184(7) . . .
178(8) . . .
189(7) . . .
214(8) . . .
202(7) . . .
178(7) . . .
199(8) . . .
211(8) . . .
186(7) . . .
186(7) . . .
183(7) . . .
186(8) . . .
176(7) . . .
197(7) . . .
194(7) . . .
189(7) . . .
189(7) . . .
198(8) . . .
195(7) . . .
193(7) . . .
183(7) . . .
200(8) . . .
199(8) . . .
183(7) . . .
195(8) . . .
204(8) . . .
196(8) . . .
188(7) . . .
219(8) . . .
193(8) . . .
192(7) . . .
185(7) . . .
195(7) . . .
180(7) . . .
182(7) . . .
197(8) . . .
203(8) . . .
176(7) . . .
183(7) . . .
215(8) . . .
191(8) . . .
190(7) . . .
205(8) . . .
193(7) . . .
192(7) . . .
186(8) . . .
189(7) . . .
173(7) . . .
188(7) . . .
223(8) . . .
210(8) . . .
211(8) . . .
187(7) . . .
196(7) . . .
201(8) . . .
201(8) . . .
189(7) . . .
169(7) . . .
179(7) . . .
196(8) . . .
185(8) . . .
179(7) . . .
179(7) . . .
189(7) . . .
203(8) . . .
212(8) . . .
190(8) . . .
185(7) . . .
195(7) . . .
203(8) . . .
189(7) . . .
175(7) . . .
191(7) . . .
208(8) . . .
201(8) . . .
198(8) . . .
189(7) . . .
204(7) . . .
195(8) . . .
188(8) . . .
199(8) . . .
205(8) . . .
193(7) . . .
207(8) . . .
196(8) . . .
196(7) . . .
179(7) . . .
180(7) . . .
196(8) . . .
200(8) . . .
172(7) . . .
183(7) . . .
186(7) . . .
164(7) . . .
197(8) . . .
184(7) . . .
192(7) . . .
201(7) . . .
201(8) . . .
174(7) . . .
194(7) . . .
176(7) . . .
200(7) . . .
186(7) . . .
196(8) . . .
213(8) . . .
191(7) . . .
209(7) . . .
200(8) . . .
215(8) . . .
180(7) . . .
194(7) . . .
206(7) . . .
192(7) . . .
206(8) . . .
196(7) . . .
211(8) . . .
213(8) . . .
204(8) . . .
197(8) . . .
182(7) . . .
206(7) . . .
216(8) . . .
200(8) . . .
201(8) . . .
198(8) . . .
199(7) . . .
185(7) . . .
188(8) . . .
204(8) . . .
189(7) . . .
203(7) . . .
197(8) . . .
194(8) . . .
199(8) . . .
217(8) . . .
196(7) . . .
185(7) . . .
189(7) . . .
207(8) . . .
185(7) . . .
187(7) . . .
186(8) . . .
174(7) . . .
203(8) . . .
176(7) . . .
190(7) . . .
205(8) . . .
195(8) . . .
198(8) . . .
218(8) . . .
214(8) . . .
182(7) . . .
204(8) . . .
216(8) . . .
205(7) . . .
199(7) . . .
212(8) . . .
200(8) . . .
183(7) . . .
200(7) . . .
196(7) . . .
209(8) . . .
205(8) . . .
205(8) . . .
191(7) . . .
200(7) . . .
190(7) . . .
188(8) . . .
210(8) . . .
194(7) . . .
207(8) . . .
186(7) . . .
194(7) . . .
218(8) . . .
216(8) . . .
225(8) . . .
191(7) . . .
209(8) . . .
233(8) . . .
222(8) . . .
202(7) . . .
210(8) . . .
195(8) . . .
203(8) . . .
206(7) . . .
210(8) . . .
209(8) . . .
197(7) . . .
196(7) . . .
209(8) . . .
202(8) . . .
185(7) . . .
200(8) . . .
205(8) . . .
191(7) . . .
204(8) . . .
188(8) . . .
191(7) . . .
181(7) . . .
204(7) . . .
199(8) . . .
195(8) . . .
199(7) . . .
182(7) . . .
206(8) . . .
205(8) . . .
195(8) . . .
188(7) . . .
223(8) . . .
205(7) . . .
190(7) . . .
211(8) . . .
226(8) . . .
189(7) . . .
202(8) . . .
184(7) . . .
181(7) . . .
202(8) . . .
197(7) . . .
198(8) . . .
188(7) . . .
200(8) . . .
186(7) . . .
191(7) . . .
215(8) . . .
193(8) . . .
185(7) . . .
194(7) . . .
182(7) . . .
195(7) . . .
210(8) . . .
199(7) . . .
191(7) . . .
183(7) . . .
193(7) . . .
183(7) . . .
189(8) . . .
186(7) . . .
205(7) . . .
189(7) . . .
207(8) . . .
180(7) . . .
183(7) . . .
193(7) . . .
173(7) . . .
192(8) . . .
177(7) . . .
197(7) . . .
197(7) . . .
185(7) . . .
200(8) . . .
189(7) . . .
166(7) . . .
197(7) . . .
209(8) . . .
186(7) . . .
184(7) . . .
179(7) . . .
221(8) . . .
185(7) . . .
213(8) . . .
190(7) . . .
195(7) . . .
203(7) . . .
192(7) . . .
204(8) . . .
214(8) . . .
202(7) . . .
193(7) . . .
205(8) . . .
198(8) . . .
198(8) . . .
189(7) . . .
193(7) . . .
177(7) . . .
179(7) . . .
201(8) . . .
200(7) . . .
189(7) . . .
186(7) . . .
198(7) . . .
200(7) . . .
204(8) . . .
206(8) . . .
186(7) . . .
188(7) . . .
189(7) . . .
189(7) . . .
167(7) . . .
195(8) . . .
197(8) . . .
196(7) . . .
182(7) . . .
172(7) . . .
202(8) . . .
184(7) . . .
203(8) . . .
193(7) . . .
168(7) . . .
179(8) . . .
176(7) . . .
187(7) . . .
185(7) . . .
182(7) . . .
195(8) . . .
195(7) . . .
201(7) . . .
181(7) . . .
197(8) . . .
178(7) . . .
178(7) . . .
177(7) . . .
194(7) . . .
197(8) . . .
183(7) . . .
189(7) . . .
200(7) . . .
195(7) . . .
188(7) . . .
194(8) . . .
182(7) . . .
191(7) . . .
192(7) . . .
184(7) . . .
197(8) . . .
177(7) . . .
188(7) . . .
193(7) . . .
210(8) . . .
189(7) . . .
201(8) . . .
194(7) . . .
190(7) . . .
195(8) . . .
168(7) . . .
189(7) . . .
214(8) . . .
203(8) . . .
185(7) . . .
184(7) . . .
190(7) . . .
203(7) . . .
199(8) . . .
194(8) . . .
195(7) . . .
187(7) . . .
180(7) . . .
173(7) . . .
193(8) . . .
187(7) . . .
202(7) . . .
187(7) . . .
202(8) . . .
214(8) . . .
174(7) . . .
182(7) . . .
202(7) . . .
194(7) . . .
220(9) . . .
196(8) . . .
199(7) . . .
211(8) . . .
191(7) . . .
196(8) . . .
168(7) . . .
199(8) . . .
188(7) . . .
200(8) . . .
199(8) . . .
194(8) . . .
189(7) . . .
183(7) . . .
179(7) . . .
177(7) . . .
196(7) . . .
202(7) . . .
187(7) . . .
179(7) . . .
196(8) . . .
203(7) . . .
196(7) . . .
199(7) . . .
186(7) . . .
171(7) . . .
181(7) . . .
180(7) . . .
174(7) . . .
191(8) . . .
182(7) . . .
189(7) . . .
186(7) . . .
196(8) . . .
181(7) . . .
186(7) . . .
180(7) . . .
184(7) . . .
188(7) . . .
184(7) . . .
178(7) . . .
185(7) . . .
204(7) . . .
184(7) . . .
189(8) . . .
190(7) . . .
191(7) . . .
193(7) . . .
173(7) . . .
186(8) . . .
178(7) . . .
171(7) . . .
192(7) . . .
181(7) . . .
168(7) . . .
189(7) . . .
194(7) . . .
184(7) . . .
191(8) . . .
190(8) . . .
187(7) . . .
160(7) . . .
210(8) . . .
193(7) . . .
185(7) . . .
174(7) . . .
167(7) . . .
186(7) . . .
187(7) . . .
178(7) . . .
178(7) . . .
198(7) . . .
216(8) . . .
181(7) . . .
195(8) . . .
180(7) . . .
177(7) . . .
188(7) . . .
173(7) . . .
192(7) . . .
176(7) . . .
173(7) . . .
191(7) . . .
192(8) . . .
179(7) . . .
190(7) . . .
194(7) . . .
212(8) . . .
185(7) . . .
191(7) . . .
197(7) . . .
194(7) . . .
192(7) . . .
197(8) . . .
184(7) . . .
194(7) . . .
212(8) . . .
181(7) . . .
182(7) . . .
194(7) . . .
199(7) . . .
191(7) . . .
189(7) . . .
198(8) . . .
204(8) . . .
188(7) . . .
194(7) . . .
206(8) . . .
186(8) . . .
182(7) . . .
191(7) . . .
189(7) . . .
185(7) . . .
183(7) . . .
188(7) . . .
191(7) . . .
189(8) . . .
202(8) . . .
192(8) . . .
180(7) . . .
185(7) . . .
171(7) . . .
185(8) . . .
194(8) . . .
196(7) . . .
198(7) . . .
179(7) . . .
184(7) . . .
187(7) . . .
180(7) . . .
182(7) . . .
198(8) . . .
174(7) . . .
191(7) . . .
206(7) . . .
197(7) . . .
187(7) . . .
179(7) . . .
206(8) . . .
198(7) . . .
177(7) . . .
184(7) . . .
171(7) . . .
192(7) . . .
197(7) . . .
189(7) . . .
188(7) . . .
187(8) . . .
165(7) . . .
198(7) . . .
194(7) . . .
193(7) . . .
175(7) . . .
188(7) . . .
206(8) . . .
182(7) . . .
183(7) . . .
186(7) . . .
197(8) . . .
189(7) . . .
172(7) . . .
183(7) . . .
186(7) . . .
176(7) . . .
167(7) . . .
189(7) . . .
182(7) . . .
199(8) . . .
175(7) . . .
175(7) . . .
183(7) . . .
189(7) . . .
182(7) . . .
193(7) . . .
189(7) . . .
161(7) . . .
181(7) . . .
173(7) . . .
194(7) . . .
195(7) . . .
196(7) . . .
188(8) . . .
188(7) . . .
179(7) . . .
209(7) . . .
173(7) . . .
180(7) . . .
188(7) . . .
183(7) . . .
185(7) . . .
185(7) . . .
217(8) . . .
184(7) . . .
199(7) . . .
175(7) . . .
186(7) . . .
200(8) . . .
194(8) . . .
199(7) . . .
189(7) . . .
176(7) . . .
173(7) . . .
191(7) . . .
200(7) . . .
184(7) . . .
198(8) . . .
198(8) . . .
197(8) . . .
189(7) . . .
183(7) . . .
205(8) . . .
196(8) . . .
185(7) . . .
198(7) . . .
195(7) . . .
190(7) . . .
195(8) . . .
190(7) . . .
213(8) . . .
208(8) . . .
187(7) . . .
191(8) . . .
201(8) . . .
212(8) . . .
199(8) . . .
187(8) . . .
167(7) . . .
188(7) . . .
198(7) . . .
175(7) . . .
182(7) . . .
202(8) . . .
177(7) . . .
176(7) . . .
191(7) . . .
203(8) . . .
182(7) . . .
182(7) . . .
184(7) . . .
188(8) . . .
184(7) . . .
185(7) . . .
173(7) . . .
187(7) . . .
179(7) . . .
208(8) . . .
188(8) . . .
185(7) . . .
176(7) . . .
184(7) . . .
212(8) . . .
186(7) . . .
194(7) . . .
193(7) . . .
185(7) . . .
175(7) . . .
221(8) . . .
202(7) . . .
190(7) . . .
189(7) . . .
186(7) . . .
190(7) . . .
189(7) . . .
207(8) . . .
205(8) . . .
187(7) . . .
165(7) . . .
170(7) . . .
209(8) . . .
215(8) . . .
183(7) . . .
200(8) . . .
211(8) . . .
201(8) . . .
195(8) . . .
206(8) . . .
220(8) . . .
196(7) . . .
201(8) . . .
197(8) . . .
193(8) . . .
180(7) . . .
183(7) . . .
182(7) . . .
199(8) . . .
203(8) . . .
198(7) . . .
210(8) . . .
196(7) . . .
197(7) . . .
211(8) . . .
184(7) . . .
186(7) . . .
196(8) . . .
189(8) . . .
185(7) . . .
172(7) . . .
185(7) . . .
187(7) . . .
204(8) . . .
191(7) . . .
183(7) . . .
184(7) . . .
183(7) . . .
183(7) . . .
197(8) . . .
168(7) . . .
177(7) . . .
191(8) . . .
185(7) . . .
192(8) . . .
190(7) . . .
175(7) . . .
162(7) . . .
164(7) . . .
153(7) . . .
192(7) . . .
184(7) . . .
174(7) . . .
196(8) . . .
170(7) . . .
183(7) . . .
180(7) . . .
165(7) . . .
189(8) . . .
192(7) . . .
187(7) . . .
178(7) . . .
168(7) . . .
165(7) . . .
188(7) . . .
173(7) . . .
211(8) . . .
211(8) . . .
187(7) . . .
179(7) . . .
175(7) . . .
195(8) . . .
177(7) . . .
208(8) . . .
182(7) . . .
202(7) . . .
203(8) . . .
205(8) . . .
213(8) . . .
190(7) . . .
197(7) . . .
175(7) . . .
201(8) . . .
208(8) . . .
201(7) . . .
191(7) . . .
194(8) . . .
191(8) . . .
209(8) . . .
175(7) . . .
204(7) . . .
206(8) . . .
205(8) . . .
210(8) . . .
202(7) . . .
186(7) . . .
190(7) . . .
208(8) . . .
199(8) . . .
196(7) . . .
179(7) . . .
189(7) . . .
187(7) . . .
194(8) . . .
187(7) . . .
202(8) . . .
195(7) . . .
173(7) . . .
200(8) . . .
181(7) . . .
188(7) . . .
184(7) . . .
170(7) . . .
183(7) . . .
178(7) . . .
180(7) . . .
189(8) . . .
169(7) . . .
184(7) . . .
192(7) . . .
186(7) . . .
190(8) . . .
182(7) . . .
197(7) . . .
181(7) . . .
166(7) . . .
187(8) . . .
184(7) . . .
191(7) . . .
202(7) . . .
194(8) . . .
180(7) . . .
181(7) . . .
176(7) . . .
159(7) . . .
175(7) . . .
204(8) . . .
181(7) . . .
188(7) . . .
190(7) . . .
161(7) . . .
189(8) . . .
197(7) . . .
201(7) . . .
181(7) . . .
184(7) . . .
193(8) . . .
183(7) . . .
192(7) . . .
178(7) . . .
182(7) . . .
182(7) . . .
207(8) . . .
221(8) . . .
198(8) . . .
182(7) . . .
201(8) . . .
186(7) . . .
188(7) . . .
197(8) . . .
197(8) . . .
201(8) . . .
171(7) . . .
193(7) . . .
189(7) . . .
182(7) . . .
182(7) . . .
187(7) . . .
181(7) . . .
188(7) . . .
176(7) . . .
201(8) . . .
187(7) . . .
180(7) . . .
199(7) . . .
188(7) . . .
182(7) . . .
186(7) . . .
176(7) . . .
202(8) . . .
192(8) . . .
184(7) . . .
185(7) . . .
184(7) . . .
195(8) . . .
191(8) . . .
188(7) . . .
186(7) . . .
191(7) . . .
186(7) . . .
162(7) . . .
169(7) . . .
187(7) . . .
187(7) . . .
187(8) . . .
172(7) . . .
171(7) . . .
166(7) . . .
191(7) . . .
180(7) . . .
199(8) . . .
170(7) . . .
164(7) . . .
178(7) . . .
164(7) . . .
164(7) . . .
165(7) . . .
178(7) . . .
184(7) . . .
166(7) . . .
172(7) . . .
173(7) . . .
178(7) . . .
177(7) . . .
169(7) . . .
192(8) . . .
190(7) . . .
180(7) . . .
192(7) . . .
174(7) . . .
172(7) . . .
182(7) . . .
188(7) . . .
178(7) . . .
186(8) . . .
180(7) . . .
173(7) . . .
177(7) . . .
178(7) . . .
172(7) . . .
207(8) . . .
202(7) . . .
191(7) . . .
190(7) . . .
171(7) . . .
207(8) . . .
207(8) . . .
177(7) . . .
191(7) . . .
176(7) . . .
182(7) . . .
178(7) . . .
182(7) . . .
171(7) . . .
192(8) . . .
196(8) . . .
197(7) . . .
175(7) . . .
180(7) . . .
173(7) . . .
178(7) . . .
173(7) . . .
189(7) . . .
183(7) . . .
182(7) . . .
167(7) . . .
172(7) . . .
184(7) . . .
187(7) . . .
184(7) . . .
183(7) . . .
200(7) . . .
187(8) . . .
177(7) . . .
175(7) . . .
167(7) . . .
172(7) . . .
199(8) . . .
178(7) . . .
180(7) . . .
193(7) . . .
176(7) . . .
184(7) . . .
181(7) . . .
182(7) . . .
188(7) . . .
189(7) . . .
186(7) . . .
191(7) . . .
205(8) . . .
179(7) . . .
169(7) . . .
170(7) . . .
207(8) . . .
184(7) . . .
179(7) . . .
197(7) . . .
185(7) . . .
200(8) . . .
198(8) . . .
175(7) . . .
169(7) . . .
171(7) . . .
194(8) . . .
174(7) . . .
186(7) . . .
171(7) . . .
208(8) . . .
183(7) . . .
193(8) . . .
175(7) . . .
186(7) . . .
188(7) . . .
185(7) . . .
179(7) . . .
183(7) . . .
171(7) . . .
173(7) . . .
196(8) . . .
167(7) . . .
190(7) . . .
184(7) . . .
181(7) . . .
176(7) . . .
182(7) . . .
173(7) . . .
188(8) . . .
182(7) . . .
211(8) . . .
191(7) . . .
176(7) . . .
183(7) . . .
183(8) . . .
185(7) . . .
183(7) . . .
181(7) . . .
175(7) . . .
195(8) . . .
212(8) . . .
192(7) . . .
184(7) . . .
182(7) . . .
189(8) . . .
190(7) . . .
177(7) . . .
183(7) . . .
186(7) . . .
192(8) . . .
165(7) . . .
178(7) . . .
192(7) . . .
180(7) . . .
193(8) . . .
180(7) . . .
172(7) . . .
195(7) . . .
199(8) . . .
185(7) . . .
200(8) . . .
203(7) . . .
185(7) . . .
175(7) . . .
189(8) . . .
175(7) . . .
188(7) . . .
176(7) . . .
174(7) . . .
184(7) . . .
170(7) . . .
175(7) . . .
175(7) . . .
188(8) . . .
172(7) . . .
170(7) . . .
160(7) . . .
178(7) . . .
152(7) . . .
168(7) . . .
186(7) . . .
172(7) . . .
177(7) . . .
176(7) . . .
187(7) . . .
175(7) . . .
176(7) . . .
180(7) . . .
193(8) . . .
165(7) . . .
173(7) . . .
166(7) . . .
173(7) . . .
186(8) . . .
178(7) . . .
184(7) . . .
160(7) . . .
195(8) . . .
192(8) . . .
195(7) . . .
196(7) . . .
168(7) . . .
191(8) . . .
171(7) . . .
181(7) . . .
170(7) . . .
171(7) . . .
192(8) . . .
189(8) . . .
167(7) . . .
194(7) . . .
193(7) . . .
168(7) . . .
175(7) . . .
181(7) . . .
177(7) . . .
189(7) . . .
180(7) . . .
179(7) . . .
199(8) . . .
199(7) . . .
174(7) . . .
185(7) . . .
194(7) . . .
166(7) . . .
177(7) . . .
172(7) . . .
174(7) . . .
158(7) . . .
193(7) . . .
162(7) . . .
185(7) . . .
176(7) . . .
182(7) . . .
197(7) . . .
182(7) . . .
172(7) . . .
171(7) . . .
160(7) . . .
172(7) . . .
165(7) . . .
175(7) . . .
163(7) . . .
170(7) . . .
169(7) . . .
165(7) . . .
192(8) . . .
181(8) . . .
194(8) . . .
159(7) . . .
169(7) . . .
167(7) . . .
164(7) . . .
183(7) . . .
171(7) . . .
170(7) . . .
171(7) . . .
180(7) . . .
183(7) . . .
165(7) . . .
163(7) . . .
168(7) . . .
185(8) . . .
173(7) . . .
184(7) . . .
177(7) . . .
171(7) . . .
172(7) . . .
176(7) . . .
153(6) . . .
156(7) . . .
174(7) . . .
166(7) . . .
156(7) . . .
167(7) . . .
173(7) . . .
185(8) . . .
175(7) . . .
176(7) . . .
177(7) . . .
158(7) . . .
173(7) . . .
174(7) . . .
182(7) . . .
171(7) . . .
163(7) . . .
179(8) . . .
163(7) . . .
173(7) . . .
165(7) . . .
168(7) . . .
151(7) . . .
151(7) . . .
180(7) . . .
170(7) . . .
171(7) . . .
160(7) . . .
159(7) . . .
167(7) . . .
166(7) . . .
176(7) . . .
165(7) . . .
171(7) . . .
166(7) . . .
180(7) . . .
173(7) . . .
181(7) . . .
189(7) . . .
169(7) . . .
163(7) . . .
161(7) . . .
167(7) . . .
158(7) . . .
164(7) . . .
163(7) . . .
162(7) . . .
185(7) . . .
169(7) . . .
163(7) . . .
172(7) . . .
153(7) . . .
171(7) . . .
162(7) . . .
154(6) . . .
175(7) . . .
138(6) . . .
165(7) . . .
170(7) . . .
175(7) . . .
174(7) . . .
177(7) . . .
154(7) . . .
155(7) . . .
164(7) . . .
174(7) . . .
181(8) . . .
156(7) . . .
166(7) . . .
153(6) . . .
151(7) . . .
168(7) . . .
188(7) . . .
190(7) . . .
179(7) . . .
176(7) . . .
180(7) . . .
147(6) . . .
162(7) . . .
165(7) . . .
162(7) . . .
173(7) . . .
181(7) . . .
185(7) . . .
169(7) . . .
177(7) . . .
159(7) . . .
173(7) . . .
165(7) . . .
154(7) . . .
190(7) . . .
178(7) . . .
152(7) . . .
150(6) . . .
174(7) . . .
162(7) . . .
182(7) . . .
167(7) . . .
177(7) . . .
179(7) . . .
176(7) . . .
168(7) . . .
172(7) . . .
163(7) . . .
153(7) . . .
153(7) . . .
167(7) . . .
174(7) . . .
179(7) . . .
170(7) . . .
149(7) . . .
167(7) . . .
161(7) . . .
179(7) . . .
165(7) . . .
176(7) . . .
184(7) . . .
160(7) . . .
169(7) . . .
166(7) . . .
161(7) . . .
161(7) . . .
180(7) . . .
161(7) . . .
169(7) . . .
183(7) . . .
165(7) . . .
174(7) . . .
179(7) . . .
139(6) . . .
174(8) . . .
185(7) . . .
173(7) . . .
173(7) . . .
180(7) . . .
162(7) . . .
168(7) . . .
174(7) . . .
172(7) . . .
178(7) . . .
183(7) . . .
166(7) . . .
157(7) . . .
166(7) . . .
161(7) . . .
177(7) . . .
156(7) . . .
181(7) . . .
144(6) . . .
158(7) . . .
176(7) . . .
172(7) . . .
160(7) . . .
174(7) . . .
169(7) . . .
153(7) . . .
163(7) . . .
174(7) . . .
170(7) . . .
188(8) . . .
165(7) . . .
167(7) . . .
173(7) . . .
170(7) . . .
180(7) . . .
176(7) . . .
156(7) . . .
142(6) . . .
160(7) . . .
167(7) . . .
157(7) . . .
165(7) . . .
173(7) . . .
175(7) . . .
180(8) . . .
175(7) . . .
165(7) . . .
166(7) . . .
174(7) . . .
171(7) . . .
164(7) . . .
156(7) . . .
163(7) . . .
166(7) . . .
153(7) . . .
170(7) . . .
165(7) . . .
172(7) . . .
176(7) . . .
176(7) . . .
198(8) . . .
174(7) . . .
165(7) . . .
194(8) . . .
185(7) . . .
184(7) . . .
169(7) . . .
169(7) . . .
148(7) . . .
155(7) . . .
177(7) . . .
164(7) . . .
166(7) . . .
178(7) . . .
178(7) . . .
183(7) . . .
188(7) . . .
180(7) . . .
165(7) . . .
180(7) . . .
164(7) . . .
151(6) . . .
161(7) . . .
178(7) . . .
166(7) . . .
171(7) . . .
168(7) . . .
177(7) . . .
182(7) . . .
164(7) . . .
168(7) . . .
196(7) . . .
182(7) . . .
186(7) . . .
186(7) . . .
190(7) . . .
194(7) . . .
167(7) . . .
153(7) . . .
161(7) . . .
182(7) . . .
166(7) . . .
188(8) . . .
169(7) . . .
191(8) . . .
173(7) . . .
171(7) . . .
165(7) . . .
181(7) . . .
187(7) . . .
183(7) . . .
178(7) . . .
181(7) . . .
185(8) . . .
170(7) . . .
190(7) . . .
190(7) . . .
181(7) . . .
163(7) . . .
179(7) . . .
191(7) . . .
184(7) . . .
172(7) . . .
186(8) . . .
162(7) . . .
180(7) . . .
176(7) . . .
179(7) . . .
187(7) . . .
175(7) . . .
175(7) . . .
198(8) . . .
180(7) . . .
184(7) . . .
187(7) . . .
174(7) . . .
187(7) . . .
178(7) . . .
176(7) . . .
199(7) . . .
202(7) . . .
195(8) . . .
188(8) . . .
176(7) . . .
180(7) . . .
172(7) . . .
179(7) . . .
184(8) . . .
175(7) . . .
185(7) . . .
163(7) . . .
150(6) . . .
179(7) . . .
173(7) . . .
167(7) . . .
162(7) . . .
180(7) . . .
178(7) . . .
185(8) . . .
168(7) . . .
185(7) . . .
184(7) . . .
183(7) . . .
171(7) . . .
191(7) . . .
169(7) . . .
191(7) . . .
177(7) . . .
169(7) . . .
174(7) . . .
204(8) . . .
185(7) . . .
197(8) . . .
168(7) . . .
162(7) . . .
168(7) . . .
166(7) . . .
186(8) . . .
170(7) . . .
161(7) . . .
171(7) . . .
157(7) . . .
160(7) . . .
153(7) . . .
150(6) . . .
162(7) . . .
174(7) . . .
191(7) . . .
156(7) . . .
155(6) . . .
159(7) . . .
147(7) . . .
169(7) . . .
176(7) . . .
152(6) . . .
173(7) . . .
179(8) . . .
167(7) . . .
174(7) . . .
170(7) . . .
180(7) . . .
173(7) . . .
175(7) . . .
175(7) . . .
170(7) . . .
180(7) . . .
174(7) . . .
174(7) . . .
178(7) . . .
174(7) . . .
170(7) . . .
173(7) . . .
181(7) . . .
170(7) . . .
165(7) . . .
173(7) . . .
160(7) . . .
165(7) . . .
158(7) . . .
158(7) . . .
145(6) . . .
162(7) . . .
163(7) . . .
167(7) . . .
176(7) . . .
154(7) . . .
146(6) . . .
160(7) . . .
168(7) . . .
169(7) . . .
154(7) . . .
145(6) . . .
174(7) . . .
160(7) . . .
154(7) . . .
188(8) . . .
163(7) . . .
156(7) . . .
163(7) . . .
179(7) . . .
172(7) . . .
166(7) . . .
167(7) . . .
156(6) . . .
148(6) . . .
169(7) . . .
150(7) . . .
162(7) . . .
162(7) . . .
163(7) . . .
175(8) . . .
169(7) . . .
170(7) . . .
177(7) . . .
181(7) . . .
173(7) . . .
174(7) . . .
147(6) . . .
160(7) . . .
157(7) . . .
167(7) . . .
158(7) . . .
172(7) . . .
166(7) . . .
180(7) . . .
170(7) . . .
156(7) . . .
162(7) . . .
175(7) . . .
158(7) . . .
150(7) . . .
161(7) . . .
171(7) . . .
155(7) . . .
160(7) . . .
167(7) . . .
155(7) . . .
160(7) . . .
160(7) . . .
161(7) . . .
165(7) . . .
151(7) . . .
168(7) . . .
169(7) . . .
157(7) . . .
183(8) . . .
177(7) . . .
171(7) . . .
160(7) . . .
148(7) . . .
165(7) . . .
169(7) . . .
173(7) . . .
154(7) . . .
148(7) . . .
139(6) . . .
161(7) . . .
161(7) . . .
172(7) . . .
160(7) . . .
155(7) . . .
159(7) . . .
179(7) . . .
153(7) . . .
162(7) . . .
160(7) . . .
161(7) . . .
175(7) . . .
146(6) . . .
161(7) . . .
166(7) . . .
153(6) . . .
162(7) . . .
175(7) . . .
177(7) . . .
174(7) . . .
173(7) . . .
161(7) . . .
165(7) . . .
154(7) . . .
166(7) . . .
143(6) . . .
155(7) . . .
165(7) . . .
144(6) . . .
152(6) . . .
158(7) . . .
152(7) . . .
167(7) . . .
159(7) . . .
160(7) . . .
172(7) . . .
165(7) . . .
171(7) . . .
154(7) . . .
164(7) . . .
157(7) . . .
169(7) . . .
178(7) . . .
179(7) . . .
167(7) . . .
175(7) . . .
148(6) . . .
173(8) . . .
161(7) . . .
170(7) . . .
165(7) . . .
165(7) . . .
175(7) . . .
185(7) . . .
170(7) . . .
160(7) . . .
171(7) . . .
171(7) . . .
164(7) . . .
157(7) . . .
170(7) . . .
177(7) . . .
172(7) . . .
156(7) . . .
152(6) . . .
167(7) . . .
188(7) . . .
181(7) . . .
173(7) . . .
175(7) . . .
174(7) . . .
172(7) . . .
168(7) . . .
172(7) . . .
190(7) . . .
168(7) . . .
184(7) . . .
180(7) . . .
171(7) . . .
159(7) . . .
169(7) . . .
156(7) . . .
174(7) . . .
169(7) . . .
161(7) . . .
169(7) . . .
152(7) . . .
156(7) . . .
188(7) . . .
156(6) . . .
170(7) . . .
160(7) . . .
177(7) . . .
176(7) . . .
158(7) . . .
182(7) . . .
171(7) . . .
157(7) . . .
168(7) . . .
151(6) . . .
171(7) . . .
180(7) . . .
164(7) . . .
166(7) . . .
157(7) . . .
172(7) . . .
187(8) . . .
174(7) . . .
184(7) . . .
174(7) . . .
172(7) . . .
189(8) . . .
161(7) . . .
165(7) . . .
169(7) . . .
171(7) . . .
176(7) . . .
158(7) . . .
164(7) . . .
172(7) . . .
170(7) . . .
162(7) . . .
168(7) . . .
161(7) . . .
160(7) . . .
152(7) . . .
142(6) . . .
175(7) . . .
175(7) . . .
156(7) . . .
169(7) . . .
157(7) . . .
158(7) . . .
154(6) . . .
186(7) . . .
162(7) . . .
179(7) . . .
167(7) . . .
165(7) . . .
152(7) . . .
162(7) . . .
162(7) . . .
157(7) . . .
159(7) . . .
152(7) . . .
178(7) . . .
163(7) . . .
160(7) . . .
174(7) . . .
157(7) . . .
172(7) . . .
145(6) . . .
157(7) . . .
157(7) . . .
158(7) . . .
174(8) . . .
164(7) . . .
163(7) . . .
179(7) . . .
164(7) . . .
162(7) . . .
172(7) . . .
186(7) . . .
171(7) . . .
179(7) . . .
162(7) . . .
171(7) . . .
169(7) . . .
162(7) . . .
164(7) . . .
173(7) . . .
165(7) . . .
143(6) . . .
172(7) . . .
179(7) . . .
148(6) . . .
164(7) . . .
167(7) . . .
174(7) . . .
176(7) . . .
188(8) . . .
168(7) . . .
180(7) . . .
168(7) . . .
161(7) . . .
174(7) . . .
170(7) . . .
165(7) . . .
165(7) . . .
172(7) . . .
169(7) . . .
166(7) . . .
167(7) . . .
146(6) . . .
152(7) . . .
169(7) . . .
175(7) . . .
159(7) . . .
168(7) . . .
154(7) . . .
162(7) . . .
171(7) . . .
171(7) . . .
152(7) . . .
161(7) . . .
160(7) . . .
157(6) . . .
158(7) . . .
172(7) . . .
164(7) . . .
172(7) . . .
157(7) . . .
173(7) . . .
168(7) . . .
160(7) . . .
156(7) . . .
157(7) . . .
174(7) . . .
164(7) . . .
160(7) . . .
151(6) . . .
177(7) . . .
157(7) . . .
167(7) . . .
145(7) . . .
155(7) . . .
160(7) . . .
164(7) . . .
159(7) . . .
164(7) . . .
166(7) . . .
161(7) . . .
152(7) . . .
171(7) . . .
153(7) . . .
139(6) . . .
165(7) . . .
173(7) . . .
166(7) . . .
152(7) . . .
178(7) . . .
173(7) . . .
149(6) . . .
160(7) . . .
160(7) . . .
149(6) . . .
139(6) . . .
142(6) . . .
149(7) . . .
158(7) . . .
157(7) . . .
152(6) . . .
149(6) . . .
169(7) . . .
138(6) . . .
146(6) . . .
149(6) . . .
178(7) . . .
162(7) . . .
169(7) . . .
155(6) . . .
157(7) . . .
151(7) . . .
167(7) . . .
161(7) . . .
176(7) . . .
184(7) . . .
179(7) . . .
165(7) . . .
157(7) . . .
155(7) . . .
160(7) . . .
161(7) . . .
164(7) . . .
159(7) . . .
158(6) . . .
159(7) . . .
160(7) . . .
167(7) . . .
154(7) . . .
167(7) . . .
161(7) . . .
162(7) . . .
164(7) . . .
174(7) . . .
159(7) . . .
159(7) . . .
168(7) . . .
167(7) . . .
143(6) . . .
152(6) . . .
150(7) . . .
164(7) . . .
171(7) . . .
174(7) . . .
171(7) . . .
172(7) . . .
166(7) . . .
167(7) . . .
171(7) . . .
151(6) . . .
157(7) . . .
159(7) . . .
159(7) . . .
164(7) . . .
147(6) . . .
168(7) . . .
160(7) . . .
159(7) . . .
154(6) . . .
162(7) . . .
164(7) . . .
141(6) . . .
164(7) . . .
169(7) . . .
155(6) . . .
156(7) . . .
160(7) . . .
172(7) . . .
173(7) . . .
157(7) . . .
160(7) . . .
166(7) . . .
158(7) . . .
167(7) . . .
171(7) . . .
153(7) . . .
167(7) . . .
164(7) . . .
178(7) . . .
160(7) . . .
168(7) . . .
158(7) . . .
163(7) . . .
168(7) . . .
185(7) . . .
155(7) . . .
146(7) . . .
141(6) . . .
146(6) . . .
154(7) . . .
160(7) . . .
158(7) . . .
178(7) . . .
179(7) . . .
158(7) . . .
146(6) . . .
185(7) . . .
184(7) . . .
168(7) . . .
175(7) . . .
153(7) . . .
169(7) . . .
147(6) . . .
175(7) . . .
154(7) . . .
151(7) . . .
147(7) . . .
167(7) . . .
159(7) . . .
159(7) . . .
148(7) . . .
157(7) . . .
153(6) . . .
150(6) . . .
186(7) . . .
170(7) . . .
170(7) . . .
176(7) . . .
161(7) . . .
163(7) . . .
184(8) . . .
158(7) . . .
171(7) . . .
171(7) . . .
160(7) . . .
176(7) . . .
159(7) . . .
150(6) . . .
163(7) . . .
164(7) . . .
162(7) . . .
166(7) . . .
168(7) . . .
163(7) . . .
186(7) . . .
171(7) . . .
184(7) . . .
160(7) . . .
159(7) . . .
179(8) . . .
167(7) . . .
160(7) . . .
160(7) . . .
165(7) . . .
179(7) . . .
180(7) . . .
177(7) . . .
157(7) . . .
175(7) . . .
189(8) . . .
170(7) . . .
183(7) . . .
161(7) . . .
162(7) . . .
174(7) . . .
181(7) . . .
165(7) . . .
200(7) . . .
171(7) . . .
185(8) . . .
168(7) . . .
173(7) . . .
154(7) . . .
154(7) . . .
166(7) . . .
171(7) . . .
157(7) . . .
165(7) . . .
166(7) . . .
167(7) . . .
161(7) . . .
178(7) . . .
178(7) . . .
177(7) . . .
156(7) . . .
164(7) . . .
154(6) . . .
166(7) . . .
160(7) . . .
178(7) . . .
184(7) . . .
176(7) . . .
154(7) . . .
144(6) . . .
162(7) . . .
150(6) . . .
150(6) . . .
165(7) . . .
164(7) . . .
154(7) . . .
149(6) . . .
156(7) . . .
160(7) . . .
165(7) . . .
156(7) . . .
158(7) . . .
161(7) . . .
162(7) . . .
155(7) . . .
148(7) . . .
162(7) . . .
169(7) . . .
158(7) . . .
176(8) . . .
175(7) . . .
166(7) . . .
168(7) . . .
147(6) . . .
172(7) . . .
153(7) . . .
169(7) . . .
166(7) . . .
167(7) . . .
152(7) . . .
130(6) . . .
148(6) . . .
170(7) . . .
162(7) . . .
161(7) . . .
158(7) . . .
149(6) . . .
138(6) . . .
152(7) . . .
169(7) . . .
161(7) . . .
144(6) . . .
161(7) . . .
156(7) . . .
159(7) . . .
164(7) . . .
153(6) . . .
168(7) . . .
161(7) . . .
163(7) . . .
157(7) . . .
149(6) . . .
147(6) . . .
156(7) . . .
165(7) . . .
169(7) . . .
177(7) . . .
157(7) . . .
148(7) . . .
164(7) . . .
143(6) . . .
150(6) . . .
152(7) . . .
135(6) . . .
142(6) . . .
150(6) . . .
140(6) . . .
163(7) . . .
149(7) . . .
153(7) . . .
177(7) . . .
156(6) . . .
150(7) . . .
169(7) . . .
155(7) . . .
145(6) . . .
154(7) . . .
151(7) . . .
164(7) . . .
161(7) . . .
165(7) . . .
153(7) . . .
144(6) . . .
146(7) . . .
138(6) . . .
149(6) . . .
145(6) . . .
153(7) . . .
141(6) . . .
138(6) . . .
155(6) . . .
150(6) . . .
146(7) . . .
147(7) . . .
160(7) . . .
144(6) . . .
158(7) . . .
136(6) . . .
153(7) . . .
174(7) . . .
172(7) . . .
155(7) . . .
160(7) . . .
140(6) . . .
158(7) . . .
148(6) . . .
160(7) . . .
157(7) . . .
175(7) . . .
169(7) . . .
156(6) . . .
152(7) . . .
144(7) . . .
123(6) . . .
153(6) . . .
149(6) . . .
151(7) . . .
145(7) . . .
156(7) . . .
148(6) . . .
161(7) . . .
171(7) . . .
138(7) . . .
131(6) . . .
169(7) . . .
175(7) . . .
158(7) . . .
151(7) . . .
158(7) . . .
147(6) . . .
169(7) . . .
161(7) . . .
157(7) . . .
155(7) . . .
160(7) . . .
171(7) . . .
156(7) . . .
165(7) . . .
153(7) . . .
141(6) . . .
155(7) . . .
168(7) . . .
160(7) . . .
147(7) . . .
155(6) . . .
155(7) . . .
157(7) . . .
163(7) . . .
170(7) . . .
157(7) . . .
136(6) . . .
142(7) . . .
159(7) . . .
180(7) . . .
161(7) . . .
153(7) . . .
143(6) . . .
157(7) . . .
150(6) . . .
140(6) . . .
154(7) . . .
172(7) . . .
162(7) . . .
146(6) . . .
158(7) . . .
150(6) . . .
152(7) . . .
135(6) . . .
151(7) . . .
143(6) . . .
159(7) . . .
160(7) . . .
142(6) . . .
168(7) . . .
157(6) . . .
172(7) . . .
173(7) . . .
153(7) . . .
144(6) . . .
155(6) . . .
163(7) . . .
172(7) . . .
161(7) . . .
154(6) . . .
153(6) . . .
164(7) . . .
156(7) . . .
151(7) . . .
160(7) . . .
165(7) . . .
167(7) . . .
151(7) . . .
141(6) . . .
164(7) . . .
158(7) . . .
170(7) . . .
152(6) . . .
176(7) . . .
166(7) . . .
166(7) . . .
154(7) . . .
153(7) . . .
160(7) . . .
161(7) . . .
162(7) . . .
153(7) . . .
151(7) . . .
157(7) . . .
145(6) . . .
143(7) . . .
143(6) . . .
155(7) . . .
159(7) . . .
163(7) . . .
160(7) . . .
156(7) . . .
163(7) . . .
154(7) . . .
152(6) . . .
155(7) . . .
163(7) . . .
174(7) . . .
162(7) . . .
166(7) . . .
170(7) . . .
161(7) . . .
165(7) . . .
188(7) . . .
169(7) . . .
181(7) . . .
160(7) . . .
157(7) . . .
157(7) . . .
139(6) . . .
175(7) . . .
155(7) . . .
183(7) . . .
136(6) . . .
167(7) . . .
181(7) . . .
164(7) . . .
159(7) . . .
153(6) . . .
165(7) . . .
148(6) . . .
157(7) . . .
139(6) . . .
164(7) . . .
145(7) . . .
156(7) . . .
153(7) . . .
157(7) . . .
141(6) . . .
157(7) . . .
150(7) . . .
162(7) . . .
162(7) . . .
147(6) . . .
161(7) . . .
159(7) . . .
148(6) . . .
178(7) . . .
168(7) . . .
150(6) . . .
151(7) . . .
152(7) . . .
145(6) . . .
156(7) . . .
163(7) . . .
152(7) . . .
174(7) . . .
168(7) . . .
140(6) . . .
164(7) . . .
157(7) . . .
140(6) . . .
151(6) . . .
144(6) . . .
154(7) . . .
159(7) . . .
156(7) . . .
160(7) . . .
162(7) . . .
156(6) . . .
154(7) . . .
151(7) . . .
171(7) . . .
179(7) . . .
153(6) . . .
148(7) . . .
144(7) . . .
157(6) . . .
149(6) . . .
144(6) . . .
151(7) . . .
177(7) . . .
154(6) . . .
147(6) . . .
148(7) . . .
150(7) . . .
162(7) . . .
166(7) . . .
158(7) . . .
158(7) . . .
158(7) . . .
140(6) . . .
158(7) . . .
162(7) . . .
151(7) . . .
149(7) . . .
167(7) . . .
141(6) . . .
153(7) . . .
157(7) . . .
176(7) . . .
174(7) . . .
163(7) . . .
167(7) . . .
151(7) . . .
185(8) . . .
166(7) . . .
169(7) . . .
159(7) . . .
165(7) . . .
164(7) . . .
171(7) . . .
160(7) . . .
163(7) . . .
183(8) . . .
159(7) . . .
165(7) . . .
179(7) . . .
169(7) . . .
175(7) . . .
185(8) . . .
181(7) . . .
162(7) . . .
163(7) . . .
159(7) . . .
169(7) . . .
165(7) . . .
175(7) . . .
156(7) . . .
167(7) . . .
163(7) . . .
168(7) . . .
138(6) . . .
160(7) . . .
165(7) . . .
158(7) . . .
163(7) . . .
166(7) . . .
171(7) . . .
167(7) . . .
172(7) . . .
159(7) . . .
173(7) . . .
183(7) . . .
186(7) . . .
180(7) . . .
164(7) . . .
173(7) . . .
174(7) . . .
172(7) . . .
172(7) . . .
174(7) . . .
173(7) . . .
184(8) . . .
183(7) . . .
191(7) . . .
186(7) . . .
183(7) . . .
184(8) . . .
174(7) . . .
151(6) . . .
170(7) . . .
185(7) . . .
180(7) . . .
187(7) . . .
182(7) . . .
180(7) . . .
176(7) . . .
186(8) . . .
148(7) . . .
165(7) . . .
188(7) . . .
187(7) . . .
180(7) . . .
182(7) . . .
165(7) . . .
177(7) . . .
175(7) . . .
179(7) . . .
176(7) . . .
167(7) . . .
160(7) . . .
178(7) . . .
170(7) . . .
180(7) . . .
165(7) . . .
165(7) . . .
155(7) . . .
169(7) . . .
200(8) . . .
169(7) . . .
200(8) . . .
178(7) . . .
183(7) . . .
162(7) . . .
151(6) . . .
168(7) . . .
163(7) . . .
168(7) . . .
160(7) . . .
167(7) . . .
174(7) . . .
168(7) . . .
161(7) . . .
182(7) . . .
173(7) . . .
177(7) . . .
184(7) . . .
178(7) . . .
157(6) . . .
166(7) . . .
156(7) . . .
176(7) . . .
167(7) . . .
177(7) . . .
196(7) . . .
186(7) . . .
191(8) . . .
189(7) . . .
181(7) . . .
179(7) . . .
172(7) . . .
201(8) . . .
173(7) . . .
188(7) . . .
177(7) . . .
211(8) . . .
188(7) . . .
170(7) . . .
183(7) . . .
191(7) . . .
189(7) . . .
180(7) . . .
164(7) . . .
159(7) . . .
170(7) . . .
195(8) . . .
174(7) . . .
169(7) . . .
150(6) . . .
169(7) . . .
195(8) . . .
177(7) . . .
161(7) . . .
152(6) . . .
189(7) . . .
183(7) . . .
155(7) . . .
165(7) . . .
168(7) . . .
148(7) . . .
150(7) . . .
165(7) . . .
184(7) . . .
169(7) . . .
166(7) . . .
179(8) . . .
179(7) . . .
168(7) . . .
180(7) . . .
185(7) . . .
186(8) . . .
187(7) . . .
165(7) . . .
174(7) . . .
177(7) . . .
168(7) . . .
171(7) . . .
198(7) . . .
167(7) . . .
164(7) . . .
177(7) . . .
171(7) . . .
147(6) . . .
153(6) . . .
148(7) . . .
164(7) . . .
172(7) . . .
162(7) . . .
174(7) . . .
154(6) . . .
166(7) . . .
177(7) . . .
170(7) . . .
150(7) . . .
168(7) . . .
163(7) . . .
164(7) . . .
156(6) . . .
159(7) . . .
155(7) . . .
161(7) . . .
154(7) . . .
174(7) . . .
172(7) . . .
167(7) . . .
152(6) . . .
167(7) . . .
161(7) . . .
141(7) . . .
157(7) . . .
167(7) . . .
153(7) . . .
154(6) . . .
174(7) . . .
154(7) . . .
144(7) . . .
174(7) . . .
155(6) . . .
154(7) . . .
173(7) . . .
163(7) . . .
150(6) . . .
150(6) . . .
166(7) . . .
159(7) . . .
162(7) . . .
169(7) . . .
163(7) . . .
174(7) . . .
156(7) . . .
152(7) . . .
168(7) . . .
160(7) . . .
149(6) . . .
154(7) . . .
148(7) . . .
157(6) . . .
157(7) . . .
156(7) . . .
165(7) . . .
165(7) . . .
170(7) . . .
170(7) . . .
162(7) . . .
166(7) . . .
164(7) . . .
161(7) . . .
159(7) . . .
167(7) . . .
163(7) . . .
161(7) . . .
148(6) . . .
187(7) . . .
177(7) . . .
179(7) . . .
160(7) . . .
183(7) . . .
163(7) . . .
169(7) . . .
156(7) . . .
163(7) . . .
166(7) . . .
158(7) . . .
159(7) . . .
171(7) . . .
180(7) . . .
163(7) . . .
166(7) . . .
150(7) . . .
162(7) . . .
150(6) . . .
170(7) . . .
170(7) . . .
151(7) . . .
158(7) . . .
162(7) . . .
158(7) . . .
146(6) . . .
171(7) . . .
154(7) . . .
137(6) . . .
154(6) . . .
144(6) . . .
148(7) . . .
165(7) . . .
135(6) . . .
150(6) . . .
161(7) . . .
152(7) . . .
167(7) . . .
158(7) . . .
156(7) . . .
167(7) . . .
173(7) . . .
156(7) . . .
169(7) . . .
146(6) . . .
159(7) . . .
173(7) . . .
170(7) . . .
171(7) . . .
152(7) . . .
149(7) . . .
159(7) . . .
144(6) . . .
144(6) . . .
152(7) . . .
155(7) . . .
168(7) . . .
153(6) . . .
160(7) . . .
151(7) . . .
153(7) . . .
146(6) . . .
158(7) . . .
156(7) . . .
176(7) . . .
150(7) . . .
153(7) . . .
159(7) . . .
163(7) . . .
164(7) . . .
164(7) . . .
178(7) . . .
174(7) . . .
166(7) . . .
167(7) . . .
182(7) . . .
164(7) . . .
178(7) . . .
155(6) . . .
169(7) . . .
181(7) . . .
165(7) . . .
173(7) . . .
168(7) . . .
166(7) . . .
185(7) . . .
174(7) . . .
163(7) . . .
162(7) . . .
178(7) . . .
148(7) . . .
144(6) . . .
166(7) . . .
168(7) . . .
165(7) . . .
141(7) . . .
171(7) . . .
154(6) . . .
149(7) . . .
165(7) . . .
154(7) . . .
144(6) . . .
152(6) . . .
167(7) . . .
168(7) . . .
154(7) . . .
156(7) . . .
162(7) . . .
140(6) . . .
155(7) . . .
149(7) . . .
165(7) . . .
164(7) . . .
140(6) . . .
153(7) . . .
177(7) . . .
167(7) . . .
163(7) . . .
173(7) . . .
185(8) . . .
169(7) . . .
169(7) . . .
171(7) . . .
157(7) . . .
164(7) . . .
150(7) . . .
157(7) . . .
161(7) . . .
176(7) . . .
166(7) . . .
150(7) . . .
153(6) . . .
144(6) . . .
144(6) . . .
153(7) . . .
170(7) . . .
161(7) . . .
138(6) . . .
146(6) . . .
167(7) . . .
145(6) . . .
171(7) . . .
169(7) . . .
161(7) . . .
157(7) . . .
153(6) . . .
166(7) . . .
151(6) . . .
164(7) . . .
147(7) . . .
141(6) . . .
154(6) . . .
160(7) . . .
158(7) . . .
138(6) . . .
165(7) . . .
163(7) . . .
160(7) . . .
155(7) . . .
165(7) . . .
143(6) . . .
157(7) . . .
162(7) . . .
143(7) . . .
153(7) . . .
159(7) . . .
145(6) . . .
161(7) . . .
151(7) . . .
155(7) . . .
168(7) . . .
135(6) . . .
162(7) . . .
160(7) . . .
154(7) . . .
176(7) . . .
154(7) . . .
172(7) . . .
152(7) . . .
172(7) . . .
162(7) . . .
158(7) . . .
165(7) . . .
157(7) . . .
140(6) . . .
149(6) . . .
145(6) . . .
160(7) . . .
158(7) . . .
166(7) . . .
170(7) . . .
156(7) . . .
150(7) . . .
140(6) . . .
149(7) . . .
169(7) . . .
150(7) . . .
135(6) . . .
153(7) . . .
155(7) . . .
164(7) . . .
150(7) . . .
154(7) . . .
171(7) . . .
172(7) . . .
165(7) . . .
142(6) . . .
166(7) . . .
149(7) . . .
158(7) . . .
147(6) . . .
157(7) . . .
153(7) . . .
156(7) . . .
137(6) . . .
148(6) . . .
155(7) . . .
172(8) . . .
153(7) . . .
153(6) . . .
139(6) . . .
144(7) . . .
161(7) . . .
153(7) . . .
150(6) . . .
139(6) . . .
145(6) . . .
151(7) . . .
160(7) . . .
165(7) . . .
149(6) . . .
146(6) . . .
144(7) . . .
154(7) . . .
151(6) . . .
181(7) . . .
146(6) . . .
166(7) . . .
160(7) . . .
160(7) . . .
141(6) . . .
138(6) . . .
146(7) . . .
161(7) . . .
165(7) . . .
168(7) . . .
143(7) . . .
155(7) . . .
151(7) . . .
142(6) . . .
156(7) . . .
162(7) . . .
135(6) . . .
168(7) . . .
177(7) . . .
151(7) . . .
145(7) . . .
152(7) . . .
143(6) . . .
152(6) . . .
151(7) . . .
177(7) . . .
144(6) . . .
138(6) . . .
151(6) . . .
156(7) . . .
146(7) . . .
140(6) . . .
143(6) . . .
159(7) . . .
169(7) . . .
155(7) . . .
153(7) . . .
156(7) . . .
150(6) . . .
139(6) . . .
140(7) . . .
152(7) . . .
141(6) . . .
166(7) . . .
164(7) . . .
168(7) . . .
168(7) . . .
152(6) . . .
151(6) . . .
150(7) . . .
138(6) . . .
147(7) . . .
153(6) . . .
152(7) . . .
154(7) . . .
141(6) . . .
148(7) . . .
134(6) . . .
138(6) . . .
159(7) . . .
141(7) . . .
153(7) . . .
159(7) . . .
153(7) . . .
152(7) . . .
155(7) . . .
162(7) . . .
165(7) . . .
173(7) . . .
144(7) . . .
150(7) . . .
155(7) . . .
145(6) . . .
148(6) . . .
158(7) . . .
146(6) . . .
133(6) . . .
161(7) . . .
169(7) . . .
163(7) . . .
157(7) . . .
149(6) . . .
165(7) . . .
149(7) . . .
166(7) . . .
168(7) . . .
162(7) . . .
160(7) . . .
159(7) . . .
172(8) . . .
154(7) . . .
162(7) . . .
154(7) . . .
147(7) . . .
152(7) . . .
156(7) . . .
169(7) . . .
157(7) . . .
170(7) . . .
178(7) . . .
163(7) . . .
152(6) . . .
149(6) . . .
145(7) . . .
152(7) . . .
166(7) . . .
163(7) . . .
164(7) . . .
161(7) . . .
162(7) . . .
148(7) . . .
145(6) . . .
147(6) . . .
146(7) . . .
164(7) . . .
163(7) . . .
159(7) . . .
159(7) . . .
167(7) . . .
156(7) . . .
148(6) . . .
157(6) . . .
154(7) . . .
171(7) . . .
165(7) . . .
144(6) . . .
150(6) . . .
162(7) . . .
166(7) . . .
176(7) . . .
160(7) . . .
152(6) . . .
172(7) . . .
156(7) . . .
138(6) . . .
152(6) . . .
166(7) . . .
147(7) . . .
142(6) . . .
159(7) . . .
139(6) . . .
146(6) . . .
168(7) . . .
154(7) . . .
151(6) . . .
146(7) . . .
129(6) . . .
149(6) . . .
154(7) . . .
151(7) . . .
136(6) . . .
147(7) . . .
149(6) . . .
142(6) . . .
149(7) . . .
143(7) . . .
150(7) . . .
153(6) . . .
134(6) . . .
157(7) . . .
147(7) . . .
153(7) . . .
138(6) . . .
154(7) . . .
153(7) . . .
146(7) . . .
138(6) . . .
150(6) . . .
147(6) . . .
151(7) . . .
150(7) . . .
141(6) . . .
136(6) . . .
147(6) . . .
142(6) . . .
140(6) . . .
136(6) . . .
153(6) . . .
153(7) . . .
147(7) . . .
144(7) . . .
138(6) . . .
144(6) . . .
148(6) . . .
140(7) . . .
148(7) . . .
135(6) . . .
135(6) . . .
140(6) . . .
133(6) . . .
144(6) . . .
164(7) . . .
143(6) . . .
151(7) . . .
141(6) . . .
139(6) . . .
146(6) . . .
157(7) . . .
155(7) . . .
159(7) . . .
162(7) . . .
154(6) . . .
133(6) . . .
132(6) . . .
144(6) . . .
154(7) . . .
147(6) . . .
129(6) . . .
135(6) . . .
152(7) . . .
140(6) . . .
143(6) . . .
122(6) . . .
163(7) . . .
152(7) . . .
154(7) . . .
142(6) . . .
126(6) . . .
158(7) . . .
135(6) . . .
153(7) . . .
161(7) . . .
148(6) . . .
141(6) . . .
145(6) . . .
155(6) . . .
147(6) . . .
147(6) . . .
167(7) . . .
166(7) . . .
152(6) . . .
158(7) . . .
143(6) . . .
138(7) . . .
151(7) . . .
137(6) . . .
149(6) . . .
142(6) . . .
137(6) . . .
138(6) . . .
135(6) . . .
157(6) . . .
149(6) . . .
149(7) . . .
138(6) . . .
154(6) . . .
154(6) . . .
161(7) . . .
157(7) . . .
146(6) . . .
136(6) . . .
140(6) . . .
137(6) . . .
137(6) . . .
149(7) . . .
138(6) . . .
147(7) . . .
139(6) . . .
141(6) . . .
138(6) . . .
131(6) . . .
154(6) . . .
159(7) . . .
152(7) . . .
145(6) . . .
153(6) . . .
137(6) . . .
157(7) . . .
157(7) . . .
146(6) . . .
131(6) . . .
132(6) . . .
153(7) . . .
149(7) . . .
153(7) . . .
155(6) . . .
159(7) . . .
142(6) . . .
151(7) . . .
146(6) . . .
149(6) . . .
153(7) . . .
159(7) . . .
131(6) . . .
146(6) . . .
145(6) . . .
146(7) . . .
140(7) . . .
157(7) . . .
142(6) . . .
158(7) . . .
156(7) . . .
140(6) . . .
166(7) . . .
169(7) . . .
147(6) . . .
147(7) . . .
146(7) . . .
152(7) . . .
141(6) . . .
136(6) . . .
144(6) . . .
155(7) . . .
153(7) . . .
155(6) . . .
142(6) . . .
153(7) . . .
158(7) . . .
157(7) . . .
161(7) . . .
176(7) . . .
153(6) . . .
165(7) . . .
160(7) . . .
161(7) . . .
168(7) . . .
152(7) . . .
166(7) . . .
148(6) . . .
144(6) . . .
154(7) . . .
139(6) . . .
157(7) . . .
158(7) . . .
155(6) . . .
152(6) . . .
160(7) . . .
159(7) . . .
156(6) . . .
147(6) . . .
158(7) . . .
168(7) . . .
151(7) . . .
156(7) . . .
167(7) . . .
163(7) . . .
156(7) . . .
165(7) . . .
140(6) . . .
158(6) . . .
143(6) . . .
147(7) . . .
152(6) . . .
161(7) . . .
150(7) . . .
152(7) . . .
168(7) . . .
146(6) . . .
152(6) . . .
167(7) . . .
163(7) . . .
141(7) . . .
154(7) . . .
144(6) . . .
166(7) . . .
148(6) . . .
168(7) . . .
143(6) . . .
146(6) . . .
160(7) . . .
145(7) . . .
146(6) . . .
137(6) . . .
135(6) . . .
150(7) . . .
153(7) . . .
153(6) . . .
144(6) . . .
148(6) . . .
138(6) . . .
150(7) . . .
145(6) . . .
138(6) . . .
144(6) . . .
139(6) . . .
141(7) . . .
143(7) . . .
147(6) . . .
152(6) . . .
150(7) . . .
151(7) . . .
140(6) . . .
148(6) . . .
156(6) . . .
163(7) . . .
167(7) . . .
137(6) . . .
148(6) . . .
146(6) . . .
132(6) . . .
144(7) . . .
156(7) . . .
159(7) . . .
135(6) . . .
144(7) . . .
152(7) . . .
149(7) . . .
141(6) . . .
138(6) . . .
141(6) . . .
140(6) . . .
137(6) . . .
152(6) . . .
150(7) . . .
139(6) . . .
151(7) . . .
151(6) . . .
144(6) . . .
136(6) . . .
150(7) . . .
150(7) . . .
160(7) . . .
161(7) . . .
150(6) . . .
157(7) . . .
148(7) . . .
154(7) . . .
150(6) . . .
140(6) . . .
156(7) . . .
167(7) . . .
133(6) . . .
140(6) . . .
134(6) . . .
129(6) . . .
148(7) . . .
151(6) . . .
134(6) . . .
149(6) . . .
140(6) . . .
149(7) . . .
165(7) . . .
136(6) . . .
152(7) . . .
142(7) . . .
125(6) . . .
145(6) . . .
143(6) . . .
136(6) . . .
133(6) . . .
150(6) . . .
163(7) . . .
140(6) . . .
149(7) . . .
129(6) . . .
162(7) . . .
157(7) . . .
131(6) . . .
137(6) . . .
144(7) . . .
149(7) . . .
142(6) . . .
140(6) . . .
141(6) . . .
146(7) . . .
145(7) . . .
152(6) . . .
151(7) . . .
156(7) . . .
144(7) . . .
138(6) . . .
138(6) . . .
138(6) . . .
138(6) . . .
149(7) . . .
153(7) . . .
146(6) . . .
138(6) . . .
148(7) . . .
160(7) . . .
136(6) . . .
147(6) . . .
145(7) . . .
132(6) . . .
139(6) . . .
142(6) . . .
152(6) . . .
134(6) . . .
145(7) . . .
138(6) . . .
162(7) . . .
143(6) . . .
142(6) . . .
154(7) . . .
175(7) . . .
154(6) . . .
136(6) . . .
153(7) . . .
145(7) . . .
156(7) . . .
152(6) . . .
139(6) . . .
139(6) . . .
145(7) . . .
142(6) . . .
155(6) . . .
161(7) . . .
149(7) . . .
158(7) . . .
139(6) . . .
155(6) . . .
158(7) . . .
145(6) . . .
152(7) . . .
158(7) . . .
129(6) . . .
151(7) . . .
147(7) . . .
142(7) . . .
139(6) . . .
154(6) . . .
152(7) . . .
126(6) . . .
153(7) . . .
153(7) . . .
131(6) . . .
160(7) . . .
171(7) . . .
168(7) . . .
162(7) . . .
152(6) . . .
154(7) . . .
162(7) . . .
150(7) . . .
147(6) . . .
157(7) . . .
160(7) . . .
146(7) . . .
145(6) . . .
137(6) . . .
150(6) . . .
147(6) . . .
159(7) . . .
154(7) . . .
149(6) . . .
148(6) . . .
147(7) . . .
133(6) . . .
149(7) . . .
157(6) . . .
154(6) . . .
151(7) . . .
144(7) . . .
150(7) . . .
141(6) . . .
141(6) . . .
157(7) . . .
135(6) . . .
145(6) . . .
135(6) . . .
157(7) . . .
153(7) . . .
134(6) . . .
143(6) . . .
162(7) . . .
148(6) . . .
146(7) . . .
149(7) . . .
137(6) . . .
129(6) . . .
141(6) . . .
154(7) . . .
152(7) . . .
135(6) . . .
152(6) . . .
155(7) . . .
152(7) . . .
155(7) . . .
148(6) . . .
169(7) . . .
153(7) . . .
138(6) . . .
162(7) . . .
149(6) . . .
146(6) . . .
145(6) . . .
153(7) . . .
146(6) . . .
157(7) . . .
159(7) . . .
150(7) . . .
142(6) . . .
142(6) . . .
145(6) . . .
153(6) . . .
142(6) . . .
142(7) . . .
148(7) . . .
144(6) . . .
163(7) . . .
147(7) . . .
156(7) . . .
154(7) . . .
148(6) . . .
153(6) . . .
148(6) . . .
143(6) . . .
141(6) . . .
152(6) . . .
148(6) . . .
153(7) . . .
167(7) . . .
152(7) . . .
142(6) . . .
136(6) . . .
150(7) . . .
143(7) . . .
162(7) . . .
147(6) . . .
145(6) . . .
136(6) . . .
143(6) . . .
148(6) . . .
155(6) . . .
141(6) . . .
171(7) . . .
140(6) . . .
151(6) . . .
139(6) . . .
152(7) . . .
150(7) . . .
156(7) . . .
140(6) . . .
157(7) . . .
147(7) . . .
134(6) . . .
154(7) . . .
139(6) . . .
159(7) . . .
156(7) . . .
145(7) . . .
156(7) . . .
149(6) . . .
158(7) . . .
147(6) . . .
134(6) . . .
151(7) . . .
144(6) . . .
157(7) . . .
145(7) . . .
154(7) . . .
155(7) . . .
146(6) . . .
152(6) . . .
138(6) . . .
151(7) . . .
152(7) . . .
170(7) . . .
162(7) . . .
145(6) . . .
149(7) . . .
139(6) . . .
153(6) . . .
144(6) . . .
152(7) . . .
158(7) . . .
156(7) . . .
163(7) . . .
170(7) . . .
160(7) . . .
187(8) . . .
171(7) . . .
158(7) . . .
158(7) . . .
185(8) . . .
180(7) . . .
162(7) . . .
162(7) . . .
167(7) . . .
165(7) . . .
155(7) . . .
162(7) . . .
144(6) . . .
135(6) . . .
132(6) . . .
158(7) . . .
150(6) . . .
147(6) . . .
152(7) . . .
160(7) . . .
159(7) . . .
149(6) . . .
142(6) . . .
161(7) . . .
153(7) . . .
156(7) . . .
144(6) . . .
133(6) . . .
142(6) . . .
146(7) . . .
135(6) . . .
161(7) . . .
152(6) . . .
134(6) . . .
138(7) . . .
169(7) . . .
146(6) . . .
135(6) . . .
133(6) . . .
158(7) . . .
171(7) . . .
153(6) . . .
171(7) . . .
150(7) . . .
137(6) . . .
148(7) . . .
156(6) . . .
150(6) . . .
156(7) . . .
166(7) . . .
154(7) . . .
160(7) . . .
139(6) . . .
170(7) . . .
159(7) . . .
147(6) . . .
156(6) . . .
153(7) . . .
151(7) . . .
132(6) . . .
154(7) . . .
141(6) . . .
165(7) . . .
156(7) . . .
146(6) . . .
160(7) . . .
155(6) . . .
158(7) . . .
143(7) . . .
143(7) . . .
153(6) . . .
134(6) . . .
145(7) . . .
166(7) . . .
147(6) . . .
146(6) . . .
155(6) . . .
163(7) . . .
162(7) . . .
156(7) . . .
134(6) . . .
156(6) . . .
167(7) . . .
152(7) . . .
158(7) . . .
159(7) . . .
153(6) . . .
144(6) . . .
148(7) . . .
168(7) . . .
177(7) . . .
177(7) . . .
159(7) . . .
164(7) . . .
164(7) . . .
158(7) . . .
140(6) . . .
155(7) . . .
163(7) . . .
155(7) . . .
148(6) . . .
162(7) . . .
169(7) . . .
174(7) . . .
158(7) . . .
158(7) . . .
176(7) . . .
167(7) . . .
172(7) . . .
166(7) . . .
169(7) . . .
158(7) . . .
156(7) . . .
175(7) . . .
164(7) . . .
141(6) . . .
144(7) . . .
141(6) . . .
159(7) . . .
164(7) . . .
155(6) . . .
147(7) . . .
145(7) . . .
153(7) . . .
132(6) . . .
151(6) . . .
155(7) . . .
155(7) . . .
155(7) . . .
172(7) . . .
157(6) . . .
154(7) . . .
148(7) . . .
139(6) . . .
146(6) . . .
144(6) . . .
137(6) . . .
155(7) . . .
142(6) . . .
133(6) . . .
153(6) . . .
133(6) . . .
140(6) . . .
144(6) . . .
138(6) . . .
142(6) . . .
142(6) . . .
144(6) . . .
155(7) . . .
140(6) . . .
141(6) . . .
149(6) . . .
153(7) . . .
151(7) . . .
166(7) . . .
161(7) . . .
153(7) . . .
149(7) . . .
165(7) . . .
156(7) . . .
149(6) . . .
148(7) . . .
153(7) . . .
160(7) . . .
163(7) . . .
160(7) . . .
159(7) . . .
146(6) . . .
159(7) . . .
162(7) . . .
156(7) . . .
148(7) . . .
159(7) . . .
165(7) . . .
146(6) . . .
172(7) . . .
136(6) . . .
140(6) . . .
155(7) . . .
140(6) . . .
157(7) . . .
164(7) . . .
158(7) . . .
169(7) . . .
156(7) . . .
141(6) . . .
168(7) . . .
169(7) . . .
161(7) . . .
152(6) . . .
159(7) . . .
151(7) . . .
143(6) . . .
145(6) . . .
167(7) . . .
173(7) . . .
157(7) . . .
161(7) . . .
168(7) . . .
148(6) . . .
139(6) . . .
160(7) . . .
153(7) . . .
156(6) . . .
145(6) . . .
149(7) . . .
145(6) . . .
162(7) . . .
166(7) . . .
161(7) . . .
145(6) . . .
151(7) . . .
142(6) . . .
141(6) . . .
160(7) . . .
159(7) . . .
167(7) . . .
162(7) . . .
173(7) . . .
174(7) . . .
142(6) . . .
153(7) . . .
157(7) . . .
158(7) . . .
146(7) . . .
144(6) . . .
145(6) . . .
141(6) . . .
145(6) . . .
159(7) . . .
149(7) . . .
165(7) . . .
168(7) . . .
156(6) . . .
164(7) . . .
159(7) . . .
180(7) . . .
150(6) . . .
154(6) . . .
166(7) . . .
147(7) . . .
152(7) . . .
156(7) . . .
150(6) . . .
157(7) . . .
173(7) . . .
162(7) . . .
151(6) . . .
149(7) . . .
151(7) . . .
149(7) . . .
147(6) . . .
174(7) . . .
147(6) . . .
162(7) . . .
170(7) . . .
140(6) . . .
146(6) . . .
146(7) . . .
162(7) . . .
154(7) . . .
168(7) . . .
145(6) . . .
156(7) . . .
160(7) . . .
145(6) . . .
145(6) . . .
146(6) . . .
159(7) . . .
161(7) . . .
149(7) . . .
158(7) . . .
159(6) . . .
161(7) . . .
147(7) . . .
143(6) . . .
148(6) . . .
150(6) . . .
152(7) . . .
158(7) . . .
144(6) . . .
138(6) . . .
152(6) . . .
147(6) . . .
161(7) . . .
153(7) . . .
165(7) . . .
150(6) . . .
156(7) . . .
136(7) . . .
154(7) . . .
141(6) . . .
146(6) . . .
141(6) . . .
168(7) . . .
142(7) . . .
145(6) . . .
153(6) . . .
158(7) . . .
140(6) . . .
153(7) . . .
137(6) . . .
161(7) . . .
149(7) . . .
136(6) . . .
162(7) . . .
140(6) . . .
141(6) . . .
153(7) . . .
141(7) . . .
149(7) . . .
146(6) . . .
146(6) . . .
160(7) . . .
162(7) . . .
138(6) . . .
139(6) . . .
149(7) . . .
137(6) . . .
157(7) . . .
137(6) . . .
178(7) . . .
148(6) . . .
153(7) . . .
148(7) . . .
154(6) . . .
152(6) . . .
161(7) . . .
157(7) . . .
152(7) . . .
148(6) . . .
148(6) . . .
160(7) . . .
161(7) . . .
154(6) . . .
141(6) . . .
143(6) . . .
169(7) . . .
173(7) . . .
167(7) . . .
148(6) . . .
171(7) . . .
161(7) . . .
177(7) . . .
176(7) . . .
177(7) . . .
153(7) . . .
149(7) . . .
178(7) . . .
170(7) . . .
155(6) . . .
153(7) . . .
150(7) . . .
147(7) . . .
149(6) . . .
147(6) . . .
155(6) . . .
155(7) . . .
144(6) . . .
156(7) . . .
141(6) . . .
152(7) . . .
144(6) . . .
157(7) . . .
152(7) . . .
160(7) . . .
162(7) . . .
161(7) . . .
145(6) . . .
147(6) . . .
129(6) . . .
151(7) . . .
147(7) . . .
141(6) . . .
136(6) . . .
160(7) . . .
140(6) . . .
153(7) . . .
144(7) . . .
142(6) . . .
158(6) . . .
138(6) . . .
144(7) . . .
129(6) . . .
147(6) . . .
162(7) . . .
137(6) . . .
143(7) . . .
159(7) . . .
136(6) . . .
135(6) . . .
146(7) . . .
146(7) . . .
152(7) . . .
150(6) . . .
147(6) . . .
143(6) . . .
147(7) . . .
136(6) . . .
139(6) . . .
140(6) . . .
150(7) . . .
162(7) . . .
137(6) . . .
132(6) . . .
150(7) . . .
140(6) . . .
151(7) . . .
150(7) . . .
129(6) . . .
147(7) . . .
151(7) . . .
143(6) . . .
138(6) . . .
147(6) . . .
132(6) . . .
145(7) . . .
150(6) . . .
148(6) . . .
134(6) . . .
157(7) . . .
142(6) . . .
142(6) . . .
153(7) . . .
159(7) . . .
149(7) . . .
145(7) . . .
156(7) . . .
137(6) . . .
155(7) . . .
155(7) . . .
172(7) . . .
151(7) . . .
146(6) . . .
162(7) . . .
143(6) . . .
136(6) . . .
147(6) . . .
141(6) . . .
154(7) . . .
148(7) . . .
153(7) . . .
146(7) . . .
167(7) . . .
152(7) . . .
138(6) . . .
150(7) . . .
150(6) . . .
151(6) . . .
148(7) . . .
149(7) . . .
146(7) . . .
132(6) . . .
153(6) . . .
160(7) . . .
159(7) . . .
147(6) . . .
146(6) . . .
136(6) . . .
147(7) . . .
158(7) . . .
145(6) . . .
147(6) . . .
159(7) . . .
160(7) . . .
156(7) . . .
137(6) . . .
129(6) . . .
151(6) . . .
154(7) . . .
155(7) . . .
152(7) . . .
151(6) . . .
135(6) . . .
145(6) . . .
153(7) . . .
146(7) . . .
152(7) . . .
146(6) . . .
148(7) . . .
152(7) . . .
154(7) . . .
163(7) . . .
148(6) . . .
142(6) . . .
149(7) . . .
137(6) . . .
150(6) . . .
148(6) . . .
147(6) . . .
152(7) . . .
160(7) . . .
150(6) . . .
144(6) . . .
130(6) . . .
148(7) . . .
134(6) . . .
145(6) . . .
157(7) . . .
153(7) . . .
148(7) . . .
154(7) . . .
150(6) . . .
138(6) . . .
136(6) . . .
152(7) . . .
133(6) . . .
149(6) . . .
151(7) . . .
140(6) . . .
145(6) . . .
154(6) . . .
139(6) . . .
157(7) . . .
133(6) . . .
148(7) . . .
154(7) . . .
142(6) . . .
149(6) . . .
148(7) . . .
159(7) . . .
153(7) . . .
142(6) . . .
144(6) . . .
157(7) . . .
154(7) . . .
164(7) . . .
173(7) . . .
151(7) . . .
152(7) . . .
136(6) . . .
132(6) . . .
147(6) . . .
151(6) . . .
147(7) . . .
172(7) . . .
138(6) . . .
153(6) . . .
156(7) . . .
160(7) . . .
162(7) . . .
166(7) . . .
145(6) . . .
171(7) . . .
143(6) . . .
152(6) . . .
146(6) . . .
158(7) . . .
142(6) . . .
153(7) . . .
164(7) . . .
150(6) . . .
173(7) . . .
157(7) . . .
166(7) . . .
157(7) . . .
153(6) . . .
149(6) . . .
148(7) . . .
145(7) . . .
159(7) . . .
145(6) . . .
150(7) . . .
162(7) . . .
145(6) . . .
139(6) . . .
154(6) . . .
144(6) . . .
166(7) . . .
140(6) . . .
163(7) . . .
176(7) . . .
164(7) . . .
147(7) . . .
149(7) . . .
156(7) . . .
154(6) . . .
160(7) . . .
150(7) . . .
141(6) . . .
154(6) . . .
156(6) . . .
154(7) . . .
155(7) . . .
162(7) . . .
134(6) . . .
150(6) . . .
143(6) . . .
147(7) . . .
144(7) . . .
144(6) . . .
159(7) . . .
139(6) . . .
144(7) . . .
148(7) . . .
130(6) . . .
150(6) . . .
168(7) . . .
159(7) . . .
156(7) . . .
145(6) . . .
136(6) . . .
153(7) . . .
136(6) . . .
157(7) . . .
128(6) . . .
148(7) . . .
164(7) . . .
156(7) . . .
129(6) . . .
154(6) . . .
145(6) . . .
159(7) . . .
177(7) . . .
162(7) . . .
138(6) . . .
152(7) . . .
140(6) . . .
150(7) . . .
160(7) . . .
153(6) . . .
148(7) . . .
150(7) . . .
139(6) . . .
152(6) . . .
153(6) . . .
142(6) . . .
155(7) . . .
150(7) . . .
152(7) . . .
144(6) . . .
162(7) . . .
161(7) . . .
136(6) . . .
159(6) . . .
141(6) . . .
154(7) . . .
163(7) . . .
163(7) . . .
155(6) . . .
142(6) . . .
146(6) . . .
163(7) . . .
150(6) . . .
147(6) . . .
151(7) . . .
153(7) . . .
152(7) . . .
149(6) . . .
150(6) . . .
158(7) . . .
150(7) . . .
145(7) . . .
142(7) . . .
148(6) . . .
149(6) . . .
162(7) . . .
136(6) . . .
134(6) . . .
159(7) . . .
146(6) . . .
165(7) . . .
155(7) . . .
168(7) . . .
167(7) . . .
156(7) . . .
162(7) . . .
146(6) . . .
145(6) . . .
136(6) . . .
145(6) . . .
159(7) . . .
144(6) . . .
140(6) . . .
149(6) . . .
150(7) . . .
145(7) . . .
137(6) . . .
151(7) . . .
141(6) . . .
128(6) . . .
135(7) . . .
148(7) . . .
147(6) . . .
144(6) . . .
159(7) . . .
144(7) . . .
149(7) . . .
137(6) . . .
130(6) . . .
139(6) . . .
148(7) . . .
149(7) . . .
155(6) . . .
149(6) . . .
144(6) . . .
137(6) . . .
145(6) . . .
143(6) . . .
165(7) . . .
154(7) . . .
155(7) . . .
147(7) . . .
155(6) . . .
152(7) . . .
153(7) . . .
155(7) . . .
148(6) . . .
156(6) . . .
148(7) . . .
150(7) . . .
141(7) . . .
144(6) . . .
152(6) . . .
154(7) . . .
150(7) . . .
135(6) . . .
146(6) . . .
156(6) . . .
155(7) . . .
146(7) . . .
165(7) . . .
172(7) . . .
154(6) . . .
156(7) . . .
167(7) . . .
163(7) . . .
161(7) . . .
175(7) . . .
153(7) . . .
156(7) . . .
158(7) . . .
174(7) . . .
163(7) . . .
162(7) . . .
154(7) . . .
152(7) . . .
140(6) . . .
154(6) . . .
146(6) . . .
141(7) . . .
141(6) . . .
144(6) . . .
131(6) . . .
134(6) . . .
147(7) . . .
158(7) . . .
154(7) . . .
162(7) . . .
159(7) . . .
131(6) . . .
145(6) . . .
176(7) . . .
151(7) . . .
164(7) . . .
144(7) . . .
149(7) . . .
157(6) . . .
134(6) . . .
149(7) . . .
151(7) . . .
141(6) . . .
145(6) . . .
152(7) . . .
144(7) . . .
149(7) . . .
157(7) . . .
159(7) . . .
163(7) . . .
146(7) . . .
153(7) . . .
151(7) . . .
132(6) . . .
150(7) . . .
134(6) . . .
151(7) . . .
164(7) . . .
144(6) . . .
154(7) . . .
146(7) . . .
137(6) . . .
146(6) . . .
139(6) . . .
160(7) . . .
146(7) . . .
144(7) . . .
156(7) . . .
147(6) . . .
142(6) . . .
159(7) . . .
145(6) . . .
145(6) . . .
139(6) . . .
152(7) . . .
145(7) . . .
153(7) . . .
138(6) . . .
152(7) . . .
147(7) . . .
144(6) . . .
162(7) . . .
136(6) . . .
152(6) . . .
169(7) . . .
137(6) . . .
151(7) . . .
153(6) . . .
155(7) . . .
152(7) . . .
143(7) . . .
131(6) . . .
135(6) . . .
145(6) . . .
161(7) . . .
154(7) . . .
125(6) . . .
158(7) . . .
156(7) . . .
157(7) . . .
137(6) . . .
160(7) . . .
148(6) . . .
151(7) . . .
156(7) . . .
159(7) . . .
151(6) . . .
157(6) . . .
144(6) . . .
142(7) . . .
155(7) . . .
139(6) . . .
153(6) . . .
144(6) . . .
142(7) . . .
140(6) . . .
149(6) . . .
130(6) . . .
151(7) . . .
140(7) . . .
159(7) . . .
146(6) . . .
145(6) . . .
148(7) . . .
128(6) . . .
141(6) . . .
127(6) . . .
144(6) . . .
152(7) . . .
161(7) . . .
149(6) . . .
149(6) . . .
145(6) . . .
168(7) . . .
151(7) . . .
140(6) . . .
148(6) . . .
152(7) . . .
161(7) . . .
154(7) . . .
150(6) . . .
155(6) . . .
166(7) . . .
158(7) . . .
153(7) . . .
158(7) . . .
150(6) . . .
165(7) . . .
160(7) . . .
139(6) . . .
149(6) . . .
151(6) . . .
162(7) . . .
145(6) . . .
155(7) . . .
158(6) . . .
155(6) . . .
149(7) . . .
149(7) . . .
145(6) . . .
151(6) . . .
136(6) . . .
142(6) . . .
155(7) . . .
145(7) . . .
120(6) . . .
140(6) . . .
156(7) . . .
146(7) . . .
149(7) . . .
144(6) . . .
149(6) . . .
140(6) . . .
141(7) . . .
147(7) . . .
151(6) . . .
147(6) . . .
141(6) . . .
147(7) . . .
129(6) . . .
133(6) . . .
144(6) . . .
152(7) . . .
169(7) . . .
150(6) . . .
145(6) . . .
144(6) . . .
155(7) . . .
143(7) . . .
129(6) . . .
155(6) . . .
150(6) . . .
149(7) . . .
147(7) . . .
159(7) . . .
143(6) . . .
131(6) . . .
138(6) . . .
131(6) . . .
160(7) . . .
141(6) . . .
167(7) . . .
153(7) . . .
144(6) . . .
158(7) . . .
164(7) . . .
147(6) . . .
149(7) . . .
135(6) . . .
149(6) . . .
149(6) . . .
161(7) . . .
154(7) . . .
144(6) . . .
142(6) . . .
140(6) . . .
140(6) . . .
141(6) . . .
147(6) . . .
156(6) . . .
147(6) . . .
156(7) . . .
138(7) . . .
129(6) . . .
142(6) . . .
136(6) . . .
135(6) . . .
166(7) . . .
141(6) . . .
136(6) . . .
142(6) . . .
149(7) . . .
141(6) . . .
144(6) . . .
137(6) . . .
138(6) . . .
137(6) . . .
141(6) . . .
146(7) . . .
148(6) . . .
145(6) . . .
159(7) . . .
136(6) . . .
160(7) . . .
131(6) . . .
147(7) . . .
144(7) . . .
142(7) . . .
138(6) . . .
145(6) . . .
156(7) . . .
152(7) . . .
151(7) . . .
131(6) . . .
133(6) . . .
154(7) . . .
141(7) . . .
141(6) . . .
140(6) . . .
145(6) . . .
144(6) . . .
139(7) . . .
133(6) . . .
143(6) . . .
131(6) . . .
153(7) . . .
149(7) . . .
146(6) . . .
152(6) . . .
137(6) . . .
147(7) . . .
154(7) . . .
115(6) . . .
125(6) . . .
145(6) . . .
159(7) . . .
143(7) . . .
134(6) . . .
131(6) . . .
153(6) . . .
147(6) . . .
146(7) . . .
145(6) . . .
147(6) . . .
145(6) . . .
140(6) . . .
133(6) . . .
153(7) . . .
159(7) . . .
163(7) . . .
143(6) . . .
146(6) . . .
136(6) . . .
140(6) . . .
142(6) . . .
138(6) . . .
153(7) . . .
127(6) . . .
138(6) . . .
161(7) . . .
146(7) . . .
147(6) . . .
152(6) . . .
149(6) . . .
141(6) . . .
154(7) . . .
150(7) . . .
148(6) . . .
132(6) . . .
149(7) . . .
143(7) . . .
133(6) . . .
154(7) . . .
152(6) . . .
153(7) . . .
155(7) . . .
132(6) . . .
126(6) . . .
139(6) . . .
167(7) . . .
143(7) . . .
143(6) . . .
155(7) . . .
132(6) . . .
147(7) . . .
152(7) . . .
157(7) . . .
142(6) . . .
130(6) . . .
122(6) . . .
147(7) . . .
132(6) . . .
134(6) . . .
143(6) . . .
152(7) . . .
149(7) . . .
140(6) . . .
137(6) . . .
138(6) . . .
137(6) . . .
148(7) . . .
169(7) . . .
164(7) . . .
129(6) . . .
142(7) . . .
151(7) . . .
175(7) . . .
159(7) . . .
165(7) . . .
162(7) . . .
139(6) . . .
152(6) . . .
162(7) . . .
156(7) . . .
159(7) . . .
136(6) . . .
148(6) . . .
124(6) . . .
138(6) . . .
152(7) . . .
140(6) . . .
155(6) . . .
140(6) . . .
145(6) . . .
136(6) . . .
135(6) . . .
155(7) . . .
145(6) . . .
145(6) . . .
140(7) . . .
146(7) . . .
145(6) . . .
148(6) . . .
149(7) . . .
134(6) . . .
135(6) . . .
147(6) . . .
142(6) . . .
129(6) . . .
132(6) . . .
151(7) . . .
153(6) . . .
155(6) . . .
143(6) . . .
143(7) . . .
135(6) . . .
151(6) . . .
159(7) . . .
143(6) . . .
140(6) . . .
167(7) . . .
157(7) . . .
142(6) . . .
160(7) . . .
163(7) . . .
159(7) . . .
167(7) . . .
140(6) . . .
153(7) . . .
167(7) . . .
156(7) . . .
155(6) . . .
137(6) . . .
138(6) . . .
145(6) . . .
145(6) . . .
146(6) . . .
144(6) . . .
130(6) . . .
155(7) . . .
145(6) . . .
150(6) . . .
131(6) . . .
128(6) . . .
144(7) . . .
141(6) . . .
145(6) . . .
148(6) . . .
139(7) . . .
153(7) . . .
141(6) . . .
151(6) . . .
142(6) . . .
142(7) . . .
144(6) . . .
143(6) . . .
153(6) . . .
142(6) . . .
150(7) . . .
139(6) . . .
142(6) . . .
132(6) . . .
145(6) . . .
153(7) . . .
145(6) . . .
157(7) . . .
150(6) . . .
151(7) . . .
144(7) . . .
125(6) . . .
140(6) . . .
169(7) . . .
151(7) . . .
144(6) . . .
146(6) . . .
152(6) . . .
143(6) . . .
143(6) . . .
135(6) . . .
153(7) . . .
153(6) . . .
142(6) . . .
135(6) . . .
153(7) . . .
138(6) . . .
147(6) . . .
145(6) . . .
142(6) . . .
146(6) . . .
131(6) . . .
127(6) . . .
158(7) . . .
158(7) . . .
132(6) . . .
162(7) . . .
156(6) . . .
142(7) . . .
138(7) . . .
159(7) . . .
149(6) . . .
147(6) . . .
156(7) . . .
141(7) . . .
141(6) . . .
143(6) . . .
156(7) . . .
130(6) . . .
159(7) . . .
133(6) . . .
146(6) . . .
162(7) . . .
144(6) . . .
157(7) . . .
146(7) . . .
138(6) . . .
153(7) . . .
145(6) . . .
136(6) . . .
137(6) . . .
149(6) . . .
160(7) . . .
145(7) . . .
124(6) . . .
143(6) . . .
159(7) . . .
137(6) . . .
153(7) . . .
152(6) . . .
148(6) . . .
149(6) . . .
143(6) . . .
155(7) . . .
160(7) . . .
141(6) . . .
135(6) . . .
151(7) . . .
141(6) . . .
143(6) . . .
126(6) . . .
156(6) . . .
139(6) . . .
149(7) . . .
137(6) . . .
161(7) . . .
136(6) . . .
160(7) . . .
158(7) . . .
173(7) . . .
152(6) . . .
148(6) . . .
149(7) . . .
142(6) . . .
157(7) . . .
132(6) . . .
153(6) . . .
153(7) . . .
151(7) . . .
160(7) . . .
161(7) . . .
145(6) . . .
159(7) . . .
152(7) . . .
143(6) . . .
166(7) . . .
155(6) . . .
149(7) . . .
141(6) . . .
141(6) . . .
144(6) . . .
145(6) . . .
169(7) . . .
144(6) . . .
141(6) . . .
148(6) . . .
148(6) . . .
154(7) . . .
146(6) . . .
147(6) . . .
130(6) . . .
137(6) . . .
143(7) . . .
146(6) . . .
142(6) . . .
157(6) . . .
156(7) . . .
136(6) . . .
135(6) . . .
146(6) . . .
154(6) . . .
135(6) . . .
161(7) . . .
135(6) . . .
144(6) . . .
147(6) . . .
153(7) . . .
153(7) . . .
148(6) . . .
159(7) . . .
146(6) . . .
144(6) . . .
151(7) . . .
133(6) . . .
144(6) . . .
149(6) . . .
140(6) . . .
135(6) . . .
150(6) . . .
137(6) . . .
156(7) . . .
137(6) . . .
151(7) . . .
159(7) . . .
150(6) . . .
146(6) . . .
146(6) . . .
134(6) . . .
149(7) . . .
128(6) . . .
139(6) . . .
154(7) . . .
137(7) . . .
137(6) . . .
146(6) . . .
146(6) . . .
157(7) . . .
156(7) . . .
143(6) . . .
134(6) . . .
142(6) . . .
159(7) . . .
144(6) . . .
156(7) . . .
138(6) . . .
149(7) . . .
139(6) . . .
141(6) . . .
145(6) . . .
150(6) . . .
147(7) . . .
144(7) . . .
138(6) . . .
161(7) . . .
144(6) . . .
173(7) . . .
161(7) . . .
143(6) . . .
149(6) . . .
141(6) . . .
137(6) . . .
147(7) . . .
154(7) . . .
156(7) . . .
133(6) . . .
126(6) . . .
160(7) . . .
162(7) . . .
173(7) . . .
156(6) . . .
137(7) . . .
144(7) . . .
160(7) . . .
140(6) . . .
145(6) . . .
150(7) . . .
143(7) . . .
152(7) . . .
155(6) . . .
142(6) . . .
135(6) . . .
147(7) . . .
155(7) . . .
140(6) . . .
156(7) . . .
160(7) . . .
145(6) . . .
150(6) . . .
154(6) . . .
171(7) . . .
151(7) . . .
153(7) . . .
149(6) . . .
156(6) . . .
149(7) . . .
145(7) . . .
147(7) . . .
143(6) . . .
132(6) . . .
152(7) . . .
149(7) . . .
156(7) . . .
138(6) . . .
134(6) . . .
137(6) . . .
147(7) . . .
148(6) . . .
150(6) . . .
147(6) . . .
153(7) . . .
138(6) . . .
148(6) . . .
155(6) . . .
165(7) . . .
155(7) . . .
159(7) . . .
146(6) . . .
148(6) . . .
140(6) . . .
151(7) . . .
149(7) . . .
145(7) . . .
141(6) . . .
153(6) . . .
148(7) . . .
152(7) . . .
148(7) . . .
142(6) . . .
148(6) . . .
136(6) . . .
142(7) . . .
146(6) . . .
149(6) . . .
167(7) . . .
136(6) . . .
136(6) . . .
148(6) . . .
131(6) . . .
131(6) . . .
147(7) . . .
139(6) . . .
151(7) . . .
145(6) . . .
157(7) . . .
167(7) . . .
132(6) . . .
149(6) . . .
152(6) . . .
140(6) . . .
158(7) . . .
144(6) . . .
141(6) . . .
152(6) . . .
151(7) . . .
143(6) . . .
141(6) . . .
151(6) . . .
140(6) . . .
152(7) . . .
153(7) . . .
147(7) . . .
145(6) . . .
147(6) . . .
163(7) . . .
152(7) . . .
161(7) . . .
149(6) . . .
153(6) . . .
141(6) . . .
148(7) . . .
144(6) . . .
140(6) . . .
131(6) . . .
143(6) . . .
149(7) . . .
158(7) . . .
153(6) . . .
141(6) . . .
156(7) . . .
142(7) . . .
162(7) . . .
138(6) . . .
142(6) . . .
155(7) . . .
155(7) . . .
140(6) . . .
142(6) . . .
148(7) . . .
155(7) . . .
137(6) . . .
150(6) . . .
152(6) . . .
139(6) . . .
152(7) . . .
144(7) . . .
135(6) . . .
171(7) . . .
150(6) . . .
150(7) . . .
152(7) . . .
160(7) . . .
139(6) . . .
149(7) . . .
160(7) . . .
144(6) . . .
147(6) . . .
150(6) . . .
134(6) . . .
139(7) . . .
142(6) . . .
139(6) . . .
153(6) . . .
132(6) . . .
154(7) . . .
124(6) . . .
144(6) . . .
135(6) . . .
138(6) . . .
153(7) . . .
136(6) . . .
140(6) . . .
146(6) . . .
147(6) . . .
147(7) . . .
141(6) . . .
135(6) . . .
154(7) . . .
156(7) . . .
155(7) . . .
151(7) . . .
146(6) . . .
144(6) . . .
130(6) . . .
140(6) . . .
150(7) . . .
127(6) . . .
142(6) . . .
144(6) . . .
142(6) . . .
157(7) . . .
150(6) . . .
144(7) . . .
155(7) . . .
155(7) . . .
146(6) . . .
130(6) . . .
149(7) . . .
134(6) . . .
125(6) . . .
137(6) . . .
146(6) . . .
152(7) . . .
145(7) . . .
149(6) . . .
153(7) . . .
145(6) . . .
144(7) . . .
120(6) . . .
144(6) . . .
155(6) . . .
142(6) . . .
142(6) . . .
137(6) . . .
150(6) . . .
143(6) . . .
150(6) . . .
160(7) . . .
158(7) . . .
143(7) . . .
144(6) . . .
151(6) . . .
149(7) . . .
156(7) . . .
141(6) . . .
140(6) . . .
142(6) . . .
149(6) . . .
151(7) . . .
142(7) . . .
148(6) . . .
143(6) . . .
129(6) . . .
137(6) . . .
131(6) . . .
139(6) . . .
141(6) . . .
134(6) . . .
134(6) . . .
141(6) . . .
167(7) . . .
149(6) . . .
145(6) . . .
125(6) . . .
140(6) . . .
142(6) . . .
141(6) . . .
138(6) . . .
120(6) . . .
147(6) . . .
127(6) . . .
128(6) . . .
138(6) . . .
157(7) . . .
143(6) . . .
136(6) . . .
132(6) . . .
138(7) . . .
121(6) . . .
138(6) . . .
143(6) . . .
143(7) . . .
142(7) . . .
133(6) . . .
138(6) . . .
142(6) . . .
148(7) . . .
143(7) . . .
135(6) . . .
137(6) . . .
156(7) . . .
133(6) . . .
133(6) . . .
148(7) . . .
140(6) . . .
129(6) . . .
125(6) . . .
140(6) . . .
145(7) . . .
153(6) . . .
141(6) . . .
131(6) . . .
126(6) . . .
128(6) . . .
114(6) . . .
141(6) . . .
147(6) . . .
150(7) . . .
147(6) . . .
113(5) . . .
126(6) . . .
134(6) . . .
151(7) . . .
136(6) . . .
143(6) . . .
147(7) . . .
127(6) . . .
141(6) . . .
147(6) . . .
141(6) . . .
153(7) . . .
142(6) . . .
143(6) . . .
131(6) . . .
151(7) . . .
148(7) . . .
145(7) . . .
114(6) . . .
137(6) . . .
129(6) . . .
139(7) . . .
134(7) . . .
137(6) . . .
129(6) . . .
130(6) . . .
123(6) . . .
127(6) . . .
140(6) . . .
147(6) . . .
138(6) . . .
154(7) . . .
148(7) . . .
147(6) . . .
140(6) . . .
139(6) . . .
128(6) . . .
143(7) . . .
125(6) . . .
123(6) . . .
141(6) . . .
144(7) . . .
131(6) . . .
143(6) . . .
141(6) . . .
157(7) . . .
142(6) . . .
134(6) . . .
132(6) . . .
158(7) . . .
147(7) . . .
134(6) . . .
146(7) . . .
159(7) . . .
134(6) . . .
137(6) . . .
123(6) . . .
137(6) . . .
152(6) . . .
151(6) . . .
147(7) . . .
138(7) . . .
142(6) . . .
141(6) . . .
149(6) . . .
150(7) . . .
153(7) . . .
154(7) . . .
141(6) . . .
140(6) . . .
131(6) . . .
144(7) . . .
139(6) . . .
127(6) . . .
146(6) . . .
138(6) . . .
151(7) . . .
154(7) . . .
142(6) . . .
129(6) . . .
155(7) . . .
130(6) . . .
133(6) . . .
146(6) . . .
148(7) . . .
145(6) . . .
152(7) . . .
166(7) . . .
153(6) . . .
147(6) . . .
164(7) . . .
147(7) . . .
154(7) . . .
131(6) . . .
128(6) . . .
142(7) . . .
138(7) . . .
130(6) . . .
118(6) . . .
130(6) . . .
138(6) . . .
141(7) . . .
145(6) . . .
163(7) . . .
128(6) . . .
133(6) . . .
143(7) . . .
131(6) . . .
134(6) . . .
138(6) . . .
140(6) . . .
147(6) . . .
144(6) . . .
146(6) . . .
144(6) . . .
153(7) . . .
143(6) . . .
131(6) . . .
136(6) . . .
139(6) . . .
132(6) . . .
142(7) . . .
137(6) . . .
144(6) . . .
152(7) . . .
129(6) . . .
143(6) . . .
144(6) . . .
153(6) . . .
161(7) . . .
147(6) . . .
147(6) . . .
150(6) . . .
133(6) . . .
138(6) . . .
138(6) . . .
144(6) . . .
151(6) . . .
148(6) . . .
135(6) . . .
150(7) . . .
148(7) . . .
159(7) . . .
157(7) . . .
143(6) . . .
145(7) . . .
160(7) . . .
144(6) . . .
128(6) . . .
135(6) . . .
142(7) . . .
128(6) . . .
121(6) . . .
139(6) . . .
139(6) . . .
142(7) . . .
127(6) . . .
139(6) . . .
135(6) . . .
135(6) . . .
144(6) . . .
131(6) . . .
137(6) . . .
139(6) . . .
142(7) . . .
149(7) . . .
149(7) . . .
136(6) . . .
128(6) . . .
156(7) . . .
145(6) . . .
145(6) . . .
139(6) . . .
137(6) . . .
125(6) . . .
132(6) . . .
141(6) . . .
139(6) . . .
127(6) . . .
146(7) . . .
129(6) . . .
126(6) . . .
141(6) . . .
139(6) . . .
151(7) . . .
142(7) . . .
135(6) . . .
131(6) . . .
137(6) . . .
127(6) . . .
148(6) . . .
136(6) . . .
126(6) . . .
146(7) . . .
143(7) . . .
148(6) . . .
133(6) . . .
134(6) . . .
128(6) . . .
135(6) . . .
137(6) . . .
128(6) . . .
123(6) . . .
139(6) . . .
135(6) . . .
147(7) . . .
134(6) . . .
131(6) . . .
130(6) . . .
120(6) . . .
139(6) . . .
134(6) . . .
115(6) . . .
120(6) . . .
149(7) . . .
145(6) . . .
140(6) . . .
121(6) . . .
134(7) . . .
133(6) . . .
131(6) . . .
150(6) . . .
136(6) . . .
133(6) . . .
139(6) . . .
130(6) . . .
122(6) . . .
146(6) . . .
137(6) . . .
148(7) . . .
144(6) . . .
130(6) . . .
140(6) . . .
156(7) . . .
159(7) . . .
153(6) . . .
122(6) . . .
134(6) . . .
126(6) . . .
137(6) . . .
130(6) . . .
138(6) . . .
138(6) . . .
137(6) . . .
135(6) . . .
137(6) . . .
144(6) . . .
157(7) . . .
130(6) . . .
125(6) . . .
138(6) . . .
142(6) . . .
141(6) . . .
121(6) . . .
132(6) . . .
138(6) . . .
134(6) . . .
132(6) . . .
129(6) . . .
130(6) . . .
136(6) . . .
137(6) . . .
133(6) . . .
137(6) . . .
133(6) . . .
139(6) . . .
157(7) . . .
148(7) . . .
148(7) . . .
143(6) . . .
144(6) . . .
126(6) . . .
135(6) . . .
143(7) . . .
128(6) . . .
147(6) . . .
133(6) . . .
133(7) . . .
133(6) . . .
127(6) . . .
138(6) . . .
129(6) . . .
146(7) . . .
144(6) . . .
131(6) . . .
137(6) . . .
129(6) . . .
139(7) . . .
122(6) . . .
130(6) . . .
149(6) . . .
139(6) . . .
144(7) . . .
148(7) . . .
153(6) . . .
133(6) . . .
151(7) . . .
153(7) . . .
136(6) . . .
135(6) . . .
140(6) . . .
145(7) . . .
137(6) . . .
146(6) . . .
142(6) . . .
131(6) . . .
125(6) . . .
139(6) . . .
143(6) . . .
147(6) . . .
140(6) . . .
140(7) . . .
163(7) . . .
135(6) . . .
146(6) . . .
127(6) . . .
157(7) . . .
131(6) . . .
134(6) . . .
135(6) . . .
133(6) . . .
134(6) . . .
140(6) . . .
118(6) . . .
132(6) . . .
132(6) . . .
115(6) . . .
133(6) . . .
135(6) . . .
136(6) . . .
136(6) . . .
120(6) . . .
133(6) . . .
126(6) . . .
129(6) . . .
130(6) . . .
152(7) . . .
129(6) . . .
133(6) . . .
123(6) . . .
139(7) . . .
148(7) . . .
142(7) . . .
125(6) . . .
141(6) . . .
150(7) . . .
133(6) . . .
129(6) . . .
133(6) . . .
143(6) . . .
136(6) . . .
126(6) . . .
132(6) . . .
137(6) . . .
136(6) . . .
134(6) . . .
136(6) . . .
124(6) . . .
153(7) . . .
133(6) . . .
121(6) . . .
127(6) . . .
144(6) . . .
121(6) . . .
138(7) . . .
135(6) . . .
127(6) . . .
138(6) . . .
126(6) . . .
138(6) . . .
134(6) . . .
140(6) . . .
130(6) . . .
139(6) . . .
141(6) . . .
126(6) . . .
134(6) . . .
138(6) . . .
139(6) . . .
133(6) . . .
141(6) . . .
146(7) . . .
122(6) . . .
127(6) . . .
133(6) . . .
134(6) . . .
140(6) . . .
150(6) . . .
145(6) . . .
136(6) . . .
134(6) . . .
136(6) . . .
142(6) . . .
133(6) . . .
124(6) . . .
128(6) . . .
116(6) . . .
130(6) . . .
152(7) . . .
144(6) . . .
132(6) . . .
134(6) . . .
131(6) . . .
144(6) . . .
136(6) . . .
146(7) . . .
131(6) . . .
143(6) . . .
127(6) . . .
147(7) . . .
132(6) . . .
128(6) . . .
134(6) . . .
137(6) . . .
132(6) . . .
130(6) . . .
143(6) . . .
129(6) . . .
117(6) . . .
137(7) . . .
138(6) . . .
128(6) . . .
138(6) . . .
131(6) . . .
143(7) . . .
139(6) . . .
132(6) . . .
130(6) . . .
127(6) . . .
136(7) . . .
133(6) . . .
137(6) . . .
126(6) . . .
137(6) . . .
147(7) . . .
154(7) . . .
127(6) . . .
134(6) . . .
124(6) . . .
123(6) . . .
135(6) . . .
131(6) . . .
124(6) . . .
131(6) . . .
124(6) . . .
134(6) . . .
132(6) . . .
136(6) . . .
151(7) . . .
132(6) . . .
140(6) . . .
125(6) . . .
125(6) . . .
113(6) . . .
126(6) . . .
130(6) . . .
132(6) . . .
137(6) . . .
137(6) . . .
137(6) . . .
140(6) . . .
136(6) . . .
132(6) . . .
123(6) . . .
152(7) . . .
139(6) . . .
133(6) . . .
132(6) . . .
135(6) . . .
123(6) . . .
126(6) . . .
149(6) . . .
127(6) . . .
152(7) . . .
126(6) . . .
119(6) . . .
130(6) . . .
123(6) . . .
134(7) . . .
147(7) . . .
144(6) . . .
140(6) . . .
130(6) . . .
142(7) . . .
136(6) . . .
133(6) . . .
138(6) . . .
153(7) . . .
137(7) . . .
131(6) . . .
127(6) . . .
136(6) . . .
136(6) . . .
141(7) . . .
129(6) . . .
147(6) . . .
119(6) . . .
122(6) . . .
136(6) . . .
134(6) . . .
133(6) . . .
136(6) . . .
140(6) . . .
142(6) . . .
138(6) . . .
127(6) . . .
152(7) . . .
141(7) . . .
140(7) . . .
139(6) . . .
126(6) . . .
131(6) . . .
133(6) . . .
122(6) . . .
140(7) . . .
137(6) . . .
123(6) . . .
137(7) . . .
125(6) . . .
134(6) . . .
136(6) . . .
144(6) . . .
127(6) . . .
122(6) . . .
121(6) . . .
135(6) . . .
134(6) . . .
127(6) . . .
147(7) . . .
142(6) . . .
132(6) . . .
129(6) . . .
124(6) . . .
130(6) . . .
124(6) . . .
153(6) . . .
155(7) . . .
142(6) . . .
128(6) . . .
143(6) . . .
142(6) . . .
143(6) . . .
131(6) . . .
131(6) . . .
136(6) . . .
130(6) . . .
134(6) . . .
133(6) . . .
136(6) . . .
134(6) . . .
153(7) . . .
150(7) . . .
144(6) . . .
136(6) . . .
134(6) . . .
140(6) . . .
142(6) . . .
137(6) . . .
130(6) . . .
139(6) . . .
124(6) . . .
126(6) . . .
136(6) . . .
138(6) . . .
141(6) . . .
132(6) . . .
128(6) . . .
136(6) . . .
145(6) . . .
149(6) . . .
133(6) . . .
140(7) . . .
134(6) . . .
138(6) . . .
138(6) . . .
144(6) . . .
130(6) . . .
118(6) . . .
138(6) . . .
122(6) . . .
128(6) . . .
129(6) . . .
139(6) . . .
134(6) . . .
145(6) . . .
135(6) . . .
129(6) . . .
139(6) . . .
123(6) . . .
144(6) . . .
141(6) . . .
150(7) . . .
136(6) . . .
134(6) . . .
150(6) . . .
117(6) . . .
129(6) . . .
133(6) . . .
122(6) . . .
145(6) . . .
125(6) . . .
126(6) . . .
142(6) . . .
139(6) . . .
128(6) . . .
134(6) . . .
126(6) . . .
137(6) . . .
117(6) . . .
122(6) . . .
128(6) . . .
118(6) . . .
132(6) . . .
138(6) . . .
111(6) . . .
137(7) . . .
139(7) . . .
120(6) . . .
138(6) . . .
141(6) . . .
143(7) . . .
126(6) . . .
120(6) . . .
127(6) . . .
142(6) . . .
129(6) . . .
132(6) . . .
133(6) . . .
136(6) . . .
132(6) . . .
132(6) . . .
124(6) . . .
136(6) . . .
147(6) . . .
136(6) . . .
121(6) . . .
136(6) . . .
129(6) . . .
124(6) . . .
129(6) . . .
135(7) . . .
125(6) . . .
137(6) . . .
141(6) . . .
120(6) . . .
137(6) . . .
147(7) . . .
141(6) . . .
125(6) . . .
128(6) . . .
132(6) . . .
134(6) . . .
126(6) . . .
142(6) . . .
144(6) . . .
138(6) . . .
141(6) . . .
137(6) . . .
130(6) . . .
132(6) . . .
132(6) . . .
122(6) . . .
120(6) . . .
133(6) . . .
149(7) . . .
125(6) . . .
136(6) . . .
127(6) . . .
154(7) . . .
130(6) . . .
150(7) . . .
136(6) . . .
150(6) . . .
138(6) . . .
140(7) . . .
160(7) . . .
146(6) . . .
121(6) . . .
124(6) . . .
118(6) . . .
134(6) . . .
128(6) . . .
157(7) . . .
126(6) . . .
130(6) . . .
130(6) . . .
116(6) . . .
128(6) . . .
132(6) . . .
136(6) . . .
144(7) . . .
147(6) . . .
124(6) . . .
140(6) . . .
141(7) . . .
125(6) . . .
118(6) . . .
135(6) . . .
142(6) . . .
145(7) . . .
134(6) . . .
133(6) . . .
117(6) . . .
129(6) . . .
147(7) . . .
137(6) . . .
137(6) . . .
136(6) . . .
131(6) . . .
139(6) . . .
132(6) . . .
129(6) . . .
136(6) . . .
140(7) . . .
136(6) . . .
137(6) . . .
146(6) . . .
144(6) . . .
130(6) . . .
127(6) . . .
142(6) . . .
126(6) . . .
127(6) . . .
119(6) . . .
128(6) . . .
127(6) . . .
139(6) . . .
137(6) . . .
128(6) . . .
123(6) . . .
124(6) . . .
132(6) . . .
137(6) . . .
129(6) . . .
121(6) . . .
129(6) . . .
132(6) . . .
132(6) . . .
141(7) . . .
130(6) . . .
133(6) . . .
142(6) . . .
150(7) . . .
125(6) . . .
130(6) . . .
130(6) . . .
126(6) . . .
131(6) . . .
137(6) . . .
134(6) . . .
146(6) . . .
132(6) . . .
122(6) . . .
130(6) . . .
127(6) . . .
122(6) . . .
124(6) . . .
126(6) . . .
140(6) . . .
119(6) . . .
133(6) . . .
132(6) . . .
126(6) . . .
149(7) . . .
143(6) . . .
121(6) . . .
131(6) . . .
131(6) . . .
130(6) . . .
139(6) . . .
133(6) . . .
136(6) . . .
133(6) . . .
122(6) . . .
129(6) . . .
136(6) . . .
142(7) . . .
143(7) . . .
117(6) . . .
144(6) . . .
121(6) . . .
139(7) . . .
123(6) . . .
128(6) . . .
141(6) . . .
141(6) . . .
136(6) . . .
130(6) . . .
131(6) . . .
122(6) . . .
130(6) . . .
132(6) . . .
124(6) . . .
140(6) . . .
139(6) . . .
133(6) . . .
139(6) . . .
149(7) . . .
134(6) . . .
124(6) . . .
128(6) . . .
123(6) . . .
140(7) . . .
125(6) . . .
126(6) . . .
127(6) . . .
115(6) . . .
134(6) . . .
130(6) . . .
135(6) . . .
132(6) . . .
137(6) . . .
123(6) . . .
124(6) . . .
117(6) . . .
137(6) . . .
134(6) . . .
125(6) . . .
125(6) . . .
123(6) . . .
141(6) . . .
122(6) . . .
132(6) . . .
122(6) . . .
125(6) . . .
142(6) . . .
142(7) . . .
142(7) . . .
140(6) . . .
155(6) . . .
132(6) . . .
125(6) . . .
128(6) . . .
127(6) . . .
129(6) . . .
135(6) . . .
140(7) . . .
126(6) . . .
127(6) . . .
125(6) . . .
128(6) . . .
126(6) . . .
138(6) . . .
134(6) . . .
146(6) . . .
121(6) . . .
130(6) . . .
128(6) . . .
141(6) . . .
136(6) . . .
142(7) . . .
122(6) . . .
131(6) . . .
128(6) . . .
137(6) . . .
125(6) . . .
127(6) . . .
142(6) . . .
128(6) . . .
130(6) . . .
133(6) . . .
114(6) . . .
117(6) . . .
141(6) . . .
139(6) . . .
123(6) . . .
132(6) . . .
142(6) . . .
129(6) . . .
141(7) . . .
132(6) . . .
125(6) . . .
126(6) . . .
139(6) . . .
130(6) . . .
116(6) . . .
110(5) . . .
129(6) . . .
141(6) . . .
122(6) . . .
140(7) . . .
132(6) . . .
129(6) . . .
128(6) . . .
144(6) . . .
136(6) . . .
137(6) . . .
129(6) . . .
123(6) . . .
149(7) . . .
138(6) . . .
139(6) . . .
143(6) . . .
132(6) . . .
127(6) . . .
120(6) . . .
130(6) . . .
127(6) . . .
142(6) . . .
140(7) . . .
142(6) . . .
130(6) . . .
147(6) . . .
138(6) . . .
131(6) . . .
134(6) . . .
125(6) . . .
137(6) . . .
146(7) . . .
132(6) . . .
131(6) . . .
120(6) . . .
133(6) . . .
131(6) . . .
141(7) . . .
147(7) . . .
120(6) . . .
142(6) . . .
127(6) . . .
129(6) . . .
124(6) . . .
124(6) . . .
130(6) . . .
133(6) . . .
150(7) . . .
131(6) . . .
137(6) . . .
126(6) . . .
123(6) . . .
113(6) . . .
115(6) . . .
125(6) . . .
132(6) . . .
144(7) . . .
138(7) . . .
136(6) . . .
128(6) . . .
124(6) . . .
103(5) . . .
128(6) . . .
124(6) . . .
123(6) . . .
130(6) . . .
134(6) . . .
140(6) . . .
119(6) . . .
108(5) . . .
119(6) . . .
142(6) . . .
138(6) . . .
124(6) . . .
136(6) . . .
134(6) . . .
114(6) . . .
117(6) . . .
124(6) . . .
140(6) . . .
130(6) . . .
125(6) . . .
115(6) . . .
124(6) . . .
130(6) . . .
127(6) . . .
136(7) . . .
112(6) . . .
149(6) . . .
134(6) . . .
126(6) . . .
133(6) . . .
138(6) . . .
159(7) . . .
136(6) . . .
112(6) . . .
125(6) . . .
120(6) . . .
123(6) . . .
122(6) . . .
113(6) . . .
130(7) . . .
129(6) . . .
132(6) . . .
114(6) . . .
135(6) . . .
136(6) . . .
128(6) . . .
145(6) . . .
140(6) . . .
132(6) . . .
139(7) . . .
120(6) . . .
142(6) . . .
127(6) . . .
143(7) . . .
128(6) . . .
118(6) . . .
116(6) . . .
135(6) . . .
125(6) . . .
130(6) . . .
121(6) . . .
124(6) . . .
135(6) . . .
123(6) . . .
139(7) . . .
132(6) . . .
134(6) . . .
127(6) . . .
128(6) . . .
148(7) . . .
153(7) . . .
123(6) . . .
126(6) . . .
128(6) . . .
126(6) . . .
121(6) . . .
121(6) . . .
124(6) . . .
139(6) . . .
132(6) . . .
131(6) . . .
139(6) . . .
126(6) . . .
139(7) . . .
120(6) . . .
133(6) . . .
117(6) . . .
134(6) . . .
146(7) . . .
132(6) . . .
136(6) . . .
146(6) . . .
127(6) . . .
137(7) . . .
134(6) . . .
132(6) . . .
121(6) . . .
123(6) . . .
119(6) . . .
143(7) . . .
153(6) . . .
134(6) . . .
128(6) . . .
137(6) . . .
134(6) . . .
147(6) . . .
122(6) . . .
134(6) . . .
141(7) . . .
127(6) . . .
130(6) . . .
122(6) . . .
120(6) . . .
134(6) . . .
133(6) . . .
141(6) . . .
132(6) . . .
129(6) . . .
135(6) . . .
131(6) . . .
132(6) . . .
105(5) . . .
124(6) . . .
141(6) . . .
127(6) . . .
138(6) . . .
129(6) . . .
132(6) . . .
123(6) . . .
122(6) . . .
139(6) . . .
118(6) . . .
133(6) . . .
133(6) . . .
121(6) . . .
128(6) . . .
135(6) . . .
135(6) . . .
141(6) . . .
125(6) . . .
124(6) . . .
125(6) . . .
114(6) . . .
134(6) . . .
142(6) . . .
124(6) . . .
134(6) . . .
133(6) . . .
133(6) . . .
138(6) . . .
153(6) . . .
142(6) . . .
118(6) . . .
131(6) . . .
119(6) . . .
131(6) . . .
138(6) . . .
130(6) . . .
132(6) . . .
139(6) . . .
138(6) . . .
145(7) . . .
124(6) . . .
142(7) . . .
142(6) . . .
141(6) . . .
136(6) . . .
124(6) . . .
128(6) . . .
123(6) . . .
147(6) . . .
121(6) . . .
135(6) . . .
145(6) . . .
132(6) . . .
141(6) . . .
142(7) . . .
125(6) . . .
111(6) . . .
119(6) . . .
141(6) . . .
142(7) . . .
124(6) . . .
129(6) . . .
131(6) . . .
137(6) . . .
119(6) . . .
119(6) . . .
121(6) . . .
132(6) . . .
125(6) . . .
133(6) . . .
121(6) . . .
130(6) . . .
129(6) . . .
130(6) . . .
115(6) . . .
117(6) . . .
122(6) . . .
114(6) . . .
110(6) . . .
130(6) . . .
129(6) . . .
117(6) . . .
125(6) . . .
122(6) . . .
119(6) . . .
118(6) . . .
121(6) . . .
123(6) . . .
132(6) . . .
146(7) . . .
131(6) . . .
138(6) . . .
142(6) . . .
138(6) . . .
125(6) . . .
135(6) . . .
145(6) . . .
132(6) . . .
120(6) . . .
125(6) . . .
132(6) . . .
118(6) . . .
130(6) . . .
113(6) . . .
124(6) . . .
111(5) . . .
123(6) . . .
131(6) . . .
128(6) . . .
118(6) . . .
125(6) . . .
121(6) . . .
123(6) . . .
132(7) . . .
124(6) . . .
131(6) . . .
129(6) . . .
133(6) . . .
126(6) . . .
134(6) . . .
139(6) . . .
124(6) . . .
114(6) . . .
120(6) . . .
129(6) . . .
116(6) . . .
145(6) . . .
130(6) . . .
130(6) . . .
137(6) . . .
130(6) . . .
128(6) . . .
129(6) . . .
132(6) . . .
127(6) . . .
135(6) . . .
140(6) . . .
114(6) . . .
114(6) . . .
134(6) . . .
135(6) . . .
125(6) . . .
131(6) . . .
130(6) . . .
135(6) . . .
140(6) . . .
104(5) . . .
128(6) . . .
108(5) . . .
124(6) . . .
107(5) . . .
126(6) . . .
125(6) . . .
136(6) . . .
123(6) . . .
131(6) . . .
131(6) . . .
117(6) . . .
148(7) . . .
130(6) . . .
129(6) . . .
115(6) . . .
126(6) . . .
138(6) . . .
136(6) . . .
144(6) . . .
135(6) . . .
135(6) . . .
121(6) . . .
128(6) . . .
116(6) . . .
127(6) . . .
128(6) . . .
138(6) . . .
124(6) . . .
123(6) . . .
124(6) . . .
141(6) . . .
130(6) . . .
123(6) . . .
127(6) . . .
123(6) . . .
128(6) . . .
136(6) . . .
112(6) . . .
100(5) . . .
136(6) . . .
130(6) . . .
125(6) . . .
129(6) . . .
126(6) . . .
131(6) . . .
120(6) . . .
134(6) . . .
137(6) . . .
131(6) . . .
125(6) . . .
134(6) . . .
133(6) . . .
133(6) . . .
134(6) . . .
107(6) . . .
120(6) . . .
128(6) . . .
113(6) . . .
139(6) . . .
143(7) . . .
130(6) . . .
129(6) . . .
129(6) . . .
121(6) . . .
135(6) . . .
135(6) . . .
106(5) . . .
120(6) . . .
146(7) . . .
135(6) . . .
133(6) . . .
135(6) . . .
132(6) . . .
121(6) . . .
123(6) . . .
144(6) . . .
133(6) . . .
131(6) . . .
125(6) . . .
141(7) . . .
137(6) . . .
131(6) . . .
141(6) . . .
134(6) . . .
122(6) . . .
125(6) . . .
128(6) . . .
120(6) . . .
130(6) . . .
137(6) . . .
130(6) . . .
130(6) . . .
121(6) . . .
121(6) . . .
128(6) . . .
113(6) . . .
127(6) . . .
137(6) . . .
126(6) . . .
126(6) . . .
125(6) . . .
121(6) . . .
125(6) . . .
118(6) . . .
135(6) . . .
144(6) . . .
135(6) . . .
123(6) . . .
123(6) . . .
123(6) . . .
127(6) . . .
126(6) . . .
129(6) . . .
133(6) . . .
140(6) . . .
118(6) . . .
118(6) . . .
132(6) . . .
112(6) . . .
144(7) . . .
145(6) . . .
115(6) . . .
129(6) . . .
133(6) . . .
111(6) . . .
121(6) . . .
127(6) . . .
126(6) . . .
125(6) . . .
126(6) . . .
134(6) . . .
118(6) . . .
118(6) . . .
122(6) . . .
125(6) . . .
132(6) . . .
105(5) . . .
125(6) . . .
125(6) . . .
128(6) . . .
132(6) . . .
141(6) . . .
127(6) . . .
123(6) . . .
127(6) . . .
124(6) . . .
129(6) . . .
119(6) . . .
104(6) . . .
118(6) . . .
128(6) . . .
123(6) . . .
130(6) . . .
134(6) . . .
124(6) . . .
129(6) . . .
126(6) . . .
119(6) . . .
123(6) . . .
121(6) . . .
127(6) . . .
120(6) . . .
129(6) . . .
106(5) . . .
140(6) . . .
120(6) . . .
127(6) . . .
116(6) . . .
122(6) . . .
119(6) . . .
124(6) . . .
114(6) . . .
124(6) . . .
113(6) . . .
129(6) . . .
125(6) . . .
122(6) . . .
137(7) . . .
146(6) . . .
129(6) . . .
134(6) . . .
126(6) . . .
137(7) . . .
141(6) . . .
115(6) . . .
136(6) . . .
130(6) . . .
120(6) . . .
118(6) . . .
115(6) . . .
130(6) . . .
127(6) . . .
114(6) . . .
102(6) . . .
133(6) . . .
112(6) . . .
105(5) . . .
110(6) . . .
124(6) . . .
120(6) . . .
116(6) . . .
118(6) . . .
120(6) . . .
122(6) . . .
121(6) . . .
118(6) . . .
131(6) . . .
120(6) . . .
119(6) . . .
127(6) . . .
130(6) . . .
115(6) . . .
128(6) . . .
139(6) . . .
114(6) . . .
121(6) . . .
128(6) . . .
107(6) . . .
116(6) . . .
117(6) . . .
126(6) . . .
131(6) . . .
142(6) . . .
110(5) . . .
114(5) . . .
129(6) . . .
117(6) . . .
122(6) . . .
118(6) . . .
130(6) . . .
129(6) . . .
141(7) . . .
142(7) . . .
139(6) . . .
117(6) . . .
113(6) . . .
119(6) . . .
128(6) . . .
117(6) . . .
115(6) . . .
130(6) . . .
136(6) . . .
122(6) . . .
114(6) . . .
120(6) . . .
138(6) . . .
120(6) . . .
125(6) . . .
122(6) . . .
124(6) . . .
133(6) . . .
124(6) . . .
118(6) . . .
115(6) . . .
115(6) . . .
105(6) . . .
107(6) . . .
115(6) . . .
113(6) . . .
123(6) . . .
117(6) . . .
117(6) . . .
107(5) . . .
133(6) . . .
130(6) . . .
120(6) . . .
120(6) . . .
127(6) . . .
123(6) . . .
108(5) . . .
120(6) . . .
119(6) . . .
134(6) . . .
120(6) . . .
130(6) . . .
131(6) . . .
135(6) . . .
115(6) . . .
118(6) . . .
121(6) . . .
118(6) . . .
133(6) . . .
115(6) . . .
118(6) . . .
122(6) . . .
120(6) . . .
124(6) . . .
127(6) . . .
106(5) . . .
121(6) . . .
135(6) . . .
129(6) . . .
124(6) . . .
129(6) . . .
124(6) . . .
121(6) . . .
111(6) . . .
118(6) . . .
129(6) . . .
142(6) . . .
126(6) . . .
122(6) . . .
137(6) . . .
126(6) . . .
124(6) . . .
121(6) . . .
127(6) . . .
129(6) . . .
133(6) . . .
133(6) . . .
116(6) . . .
125(6) . . .
120(6) . . .
126(6) . . .
109(6) . . .
122(6) . . .
124(6) . . .
120(6) . . .
145(6) . . .
154(7) . . .
119(6) . . .
111(6) . . .
124(6) . . .
119(6) . . .
126(6) . . .
137(6) . . .
122(6) . . .
114(5) . . .
116(6) . . .
119(6) . . .
115(6) . . .
109(5) . . .
116(6) . . .
119(6) . . .
113(6) . . .
117(6) . . .
118(6) . . .
132(6) . . .
124(6) . . .
126(6) . . .
129(6) . . .
134(6) . . .
117(6) . . .
121(6) . . .
125(6) . . .
118(6) . . .
101(5) . . .
112(6) . . .
123(6) . . .
136(6) . . .
135(6) . . .
131(6) . . .
121(6) . . .
125(6) . . .
112(6) . . .
112(6) . . .
104(5) . . .
121(6) . . .
138(6) . . .
136(6) . . .
126(6) . . .
119(6) . . .
111(6) . . .
125(6) . . .
130(6) . . .
109(5) . . .
110(5) . . .
108(6) . . .
127(6) . . .
126(6) . . .
114(5) . . .
110(5) . . .
114(6) . . .
123(6) . . .
120(6) . . .
136(6) . . .
117(6) . . .
133(6) . . .
125(6) . . .
121(6) . . .
127(6) . . .
117(6) . . .
122(6) . . .
113(6) . . .
108(6) . . .
120(6) . . .
119(6) . . .
117(6) . . .
115(6) . . .
107(5) . . .
114(6) . . .
115(6) . . .
123(6) . . .
120(6) . . .
119(6) . . .
116(6) . . .
124(6) . . .
135(6) . . .
111(6) . . .
114(6) . . .
113(6) . . .
123(6) . . .
124(6) . . .
125(6) . . .
112(6) . . .
117(6) . . .
140(6) . . .
118(6) . . .
120(6) . . .
124(6) . . .
118(6) . . .
131(6) . . .
116(6) . . .
122(6) . . .
118(6) . . .
117(6) . . .
116(6) . . .
126(6) . . .
125(6) . . .
129(6) . . .
116(6) . . .
115(6) . . .
129(6) . . .
129(6) . . .
131(6) . . .
131(6) . . .
130(6) . . .
112(6) . . .
111(6) . . .
111(5) . . .
124(6) . . .
126(6) . . .
117(6) . . .
122(6) . . .
115(6) . . .
125(6) . . .
113(6) . . .
131(6) . . .
125(6) . . .
110(5) . . .
126(6) . . .
124(6) . . .
115(6) . . .
130(6) . . .
124(6) . . .
115(6) . . .
118(6) . . .
112(6) . . .
119(6) . . .
122(6) . . .
113(6) . . .
118(6) . . .
102(5) . . .
121(6) . . .
122(6) . . .
108(6) . . .
125(6) . . .
121(6) . . .
116(6) . . .
127(6) . . .
123(6) . . .
127(6) . . .
116(6) . . .
121(6) . . .
114(6) . . .
132(6) . . .
120(6) . . .
121(6) . . .
111(5) . . .
121(6) . . .
132(6) . . .
131(6) . . .
121(6) . . .
120(6) . . .
123(6) . . .
119(6) . . .
94(5) . . .
112(6) . . .
107(5) . . .
118(6) . . .
113(6) . . .
113(6) . . .
130(6) . . .
121(6) . . .
130(6) . . .
120(6) . . .
121(6) . . .
128(6) . . .
113(6) . . .
129(6) . . .
118(6) . . .
110(6) . . .
123(6) . . .
111(5) . . .
124(6) . . .
128(6) . . .
118(6) . . .
122(6) . . .
128(6) . . .
116(6) . . .
112(6) . . .
119(6) . . .
127(6) . . .
111(5) . . .
108(6) . . .
127(6) . . .
123(6) . . .
117(6) . . .
117(6) . . .
110(6) . . .
95(5) . . .
125(6) . . .
132(6) . . .
115(6) . . .
135(6) . . .
129(6) . . .
117(6) . . .
113(6) . . .
120(6) . . .
110(6) . . .
122(6) . . .
108(6) . . .
110(6) . . .
121(6) . . .
124(6) . . .
122(6) . . .
126(6) . . .
115(6) . . .
121(6) . . .
110(6) . . .
124(6) . . .
116(6) . . .
113(6) . . .
120(6) . . .
116(6) . . .
120(6) . . .
128(6) . . .
117(6) . . .
126(6) . . .
108(5) . . .
106(6) . . .
97(5) . . .
130(6) . . .
106(5) . . .
119(6) . . .
102(5) . . .
114(6) . . .
129(6) . . .
117(6) . . .
129(6) . . .
123(6) . . .
126(6) . . .
129(6) . . .
121(6) . . .
116(6) . . .
122(6) . . .
115(6) . . .
117(6) . . .
124(6) . . .
130(6) . . .
117(6) . . .
127(6) . . .
125(6) . . .
113(6) . . .
107(5) . . .
119(6) . . .
120(6) . . .
126(6) . . .
110(6) . . .
108(6) . . .
111(6) . . .
117(6) . . .
119(6) . . .
116(6) . . .
101(5) . . .
115(6) . . .
107(5) . . .
120(6) . . .
114(6) . . .
127(6) . . .
120(6) . . .
107(5) . . .
114(6) . . .
118(6) . . .
105(6) . . .
117(6) . . .
117(6) . . .
114(6) . . .
121(6) . . .
119(6) . . .
121(6) . . .
125(6) . . .
123(6) . . .
113(6) . . .
107(6) . . .
116(6) . . .
106(5) . . .
120(6) . . .
118(6) . . .
127(6) . . .
119(6) . . .
127(6) . . .
117(6) . . .
112(6) . . .
103(6) . . .
116(6) . . .
119(6) . . .
121(6) . . .
106(6) . . .
119(6) . . .
127(6) . . .
109(5) . . .
113(6) . . .
126(6) . . .
126(6) . . .
115(6) . . .
101(5) . . .
116(6) . . .
129(6) . . .
127(6) . . .
122(6) . . .
127(6) . . .
119(6) . . .
115(6) . . .
123(6) . . .
129(6) . . .
112(5) . . .
109(6) . . .
119(6) . . .
115(6) . . .
122(6) . . .
123(6) . . .
121(6) . . .
121(6) . . .
126(6) . . .
121(6) . . .
131(6) . . .
123(6) . . .
125(6) . . .
122(6) . . .
112(5) . . .
125(6) . . .
105(5) . . .
131(6) . . .
135(6) . . .
117(6) . . .
121(6) . . .
115(6) . . .
106(6) . . .
117(6) . . .
117(6) . . .
120(6) . . .
112(6) . . .
120(6) . . .
127(6) . . .
121(6) . . .
119(6) . . .
121(6) . . .
118(6) . . .
112(5) . . .
122(6) . . .
118(6) . . .
113(6) . . .
122(6) . . .
113(6) . . .
110(5) . . .
113(6) . . .
135(6) . . .
115(6) . . .
115(6) . . .
109(5) . . .
131(6) . . .
130(6) . . .
119(6) . . .
126(6) . . .
132(6) . . .
117(6) . . .
129(6) . . .
120(6) . . .
101(5) . . .
110(5) . . .
110(6) . . .
108(6) . . .
118(6) . . .
110(5) . . .
111(5) . . .
110(6) . . .
134(7) . . .
118(6) . . .
125(6) . . .
122(6) . . .
117(6) . . .
134(6) . . .
133(6) . . .
137(6) . . .
138(6) . . .
116(6) . . .
113(6) . . .
128(6) . . .
122(6) . . .
117(6) . . .
123(6) . . .
122(6) . . .
124(6) . . .
111(6) . . .
111(6) . . .
112(6) . . .
124(6) . . .
111(6) . . .
103(5) . . .
121(6) . . .
124(6) . . .
109(6) . . .
107(5) . . .
106(5) . . .
99(5) . . .
115(6) . . .
121(6) . . .
118(6) . . .
118(6) . . .
116(6) . . .
117(6) . . .
134(6) . . .
113(5) . . .
120(6) . . .
120(6) . . .
120(6) . . .
134(6) . . .
116(6) . . .
128(6) . . .
136(6) . . .
123(6) . . .
125(6) . . .
125(6) . . .
126(6) . . .
125(6) . . .
111(6) . . .
110(6) . . .
132(6) . . .
143(6) . . .
128(6) . . .
111(6) . . .
127(6) . . .
130(6) . . .
147(6) . . .
125(6) . . .
111(6) . . .
119(6) . . .
123(6) . . .
111(5) . . .
121(6) . . .
119(6) . . .
116(6) . . .
125(6) . . .
128(6) . . .
118(6) . . .
115(6) . . .
117(6) . . .
125(6) . . .
114(6) . . .
124(6) . . .
132(6) . . .
124(6) . . .
139(6) . . .
106(6) . . .
108(6) . . .
111(5) . . .
129(6) . . .
118(6) . . .
121(6) . . .
128(6) . . .
119(6) . . .
114(6) . . .
114(6) . . .
114(6) . . .
104(6) . . .
116(6) . . .
130(6) . . .
126(6) . . .
107(5) . . .
109(6) . . .
106(6) . . .
99(5) . . .
106(5) . . .
121(6) . . .
112(6) . . .
106(5) . . .
113(6) . . .
111(5) . . .
127(6) . . .
118(6) . . .
124(6) . . .
115(6) . . .
118(6) . . .
123(6) . . .
96(5) . . .
112(6) . . .
120(6) . . .
120(6) . . .
123(6) . . .
114(6) . . .
100(5) . . .
116(6) . . .
122(6) . . .
96(5) . . .
110(6) . . .
124(6) . . .
132(6) . . .
126(6) . . .
116(6) . . .
126(6) . . .
140(6) . . .
130(6) . . .
121(6) . . .
109(6) . . .
129(6) . . .
110(6) . . .
106(5) . . .
116(6) . . .
120(6) . . .
122(6) . . .
125(6) . . .
114(5) . . .
121(6) . . .
109(6) . . .
124(6) . . .
121(6) . . .
121(6) . . .
115(6) . . .
110(6) . . .
105(5) . . .
129(6) . . .
106(5) . . .
117(6) . . .
120(6) . . .
122(6) . . .
129(6) . . .
116(6) . . .
107(5) . . .
118(6) . . .
115(6) . . .
115(6) . . .
114(6) . . .
116(6) . . .
126(6) . . .
106(5) . . .
115(6) . . .
111(6) . . .
107(6) . . .
114(6) . . .
118(6) . . .
113(6) . . .
109(5) . . .
119(6) . . .
118(6) . . .
111(6) . . .
110(5) . . .
109(5) . . .
121(6) . . .
119(6) . . .
115(6) . . .
136(6) . . .
104(5) . . .
117(6) . . .
103(5) . . .
125(6) . . .
111(6) . . .
106(6) . . .
112(6) . . .
126(6) . . .
107(5) . . .
108(5) . . .
123(6) . . .
95(5) . . .
111(6) . . .
107(5) . . .
112(5) . . .
115(6) . . .
132(6) . . .
110(5) . . .
112(5) . . .
114(5) . . .
120(6) . . .
123(6) . . .
116(6) . . .
108(5) . . .
109(5) . . .
116(6) . . .
109(6) . . .
106(5) . . .
101(5) . . .
111(6) . . .
116(6) . . .
108(6) . . .
116(6) . . .
120(6) . . .
116(6) . . .
109(6) . . .
114(6) . . .
125(6) . . .
127(6) . . .
108(5) . . .
115(6) . . .
113(6) . . .
113(6) . . .
112(6) . . .
129(6) . . .
121(6) . . .
120(6) . . .
124(6) . . .
120(6) . . .
115(6) . . .
133(6) . . .
126(6) . . .
120(6) . . .
115(6) . . .
119(6) . . .
135(6) . . .
128(6) . . .
114(6) . . .
117(6) . . .
128(6) . . .
111(6) . . .
104(6) . . .
106(5) . . .
123(6) . . .
114(6) . . .
128(6) . . .
104(5) . . .
126(6) . . .
113(6) . . .
103(5) . . .
115(6) . . .
108(5) . . .
117(6) . . .
110(5) . . .
127(6) . . .
121(6) . . .
113(6) . . .
119(6) . . .
113(6) . . .
125(6) . . .
121(6) . . .
106(5) . . .
110(5) . . .
125(6) . . .
115(6) . . .
130(6) . . .
127(6) . . .
134(6) . . .
121(6) . . .
115(6) . . .
117(6) . . .
114(6) . . .
108(5) . . .
109(6) . . .
111(6) . . .
115(6) . . .
114(6) . . .
111(5) . . .
111(6) . . .
125(6) . . .
114(6) . . .
121(6) . . .
124(6) . . .
142(7) . . .
115(6) . . .
120(6) . . .
122(6) . . .
112(6) . . .
113(6) . . .
121(6) . . .
107(6) . . .
116(6) . . .
99(5) . . .
107(6) . . .
118(6) . . .
112(5) . . .
122(6) . . .
123(6) . . .
124(6) . . .
108(6) . . .
114(6) . . .
114(6) . . .
135(6) . . .
106(5) . . .
117(6) . . .
122(6) . . .
110(5) . . .
111(6) . . .
125(6) . . .
127(6) . . .
106(5) . . .
119(6) . . .
134(6) . . .
114(6) . . .
115(6) . . .
101(5) . . .
130(6) . . .
120(6) . . .
116(6) . . .
116(6) . . .
124(6) . . .
123(6) . . .
105(5) . . .
105(5) . . .
119(6) . . .
108(6) . . .
107(5) . . .
122(6) . . .
135(6) . . .
127(6) . . .
102(5) . . .
112(5) . . .
109(6) . . .
101(6) . . .
105(6) . . .
104(5) . . .
104(5) . . .
113(6) . . .
119(6) . . .
125(6) . . .
98(5) . . .
108(5) . . .
124(6) . . .
108(6) . . .
104(5) . . .
116(6) . . .
137(6) . . .
123(6) . . .
113(6) . . .
104(5) . . .
116(6) . . .
119(6) . . .
119(6) . . .
122(6) . . .
110(5) . . .
123(6) . . .
116(6) . . .
119(6) . . .
116(6) . . .
114(6) . . .
114(6) . . .
116(6) . . .
111(6) . . .
119(6) . . .
119(6) . . .
107(5) . . .
109(5) . . .
122(6) . . .
114(6) . . .
112(6) . . .
119(6) . . .
99(5) . . .
121(6) . . .
109(6) . . .
120(6) . . .
118(6) . . .
115(6) . . .
124(6) . . .
112(6) . . .
112(6) . . .
101(5) . . .
108(6) . . .
115(6) . . .
103(5) . . .
125(6) . . .
111(5) . . .
111(6) . . .
100(6) . . .
108(6) . . .
106(5) . . .
118(6) . . .
111(6) . . .
108(6) . . .
114(6) . . .
122(6) . . .
119(6) . . .
109(6) . . .
109(6) . . .
115(6) . . .
120(6) . . .
127(6) . . .
119(6) . . .
110(6) . . .
97(5) . . .
107(5) . . .
105(5) . . .
112(6) . . .
113(6) . . .
108(5) . . .
116(6) . . .
111(6) . . .
111(6) . . .
124(6) . . .
118(6) . . .
117(6) . . .
108(5) . . .
114(6) . . .
121(6) . . .
120(6) . . .
115(6) . . .
114(6) . . .
120(6) . . .
105(6) . . .
103(5) . . .
108(5) . . .
108(6) . . .
95(5) . . .
93(5) . . .
122(6) . . .
125(6) . . .
103(5) . . .
107(6) . . .
108(5) . . .
114(6) . . .
97(5) . . .
101(5) . . .
113(6) . . .
120(6) . . .
101(5) . . .
92(5) . . .
115(6) . . .
108(6) . . .
110(5) . . .
103(5) . . .
112(6) . . .
109(6) . . .
102(6) . . .
110(6) . . .
122(6) . . .
119(6) . . .
102(5) . . .
118(6) . . .
114(6) . . .
112(6) . . .
114(6) . . .
112(6) . . .
104(6) . . .
112(6) . . .
114(5) . . .
119(6) . . .
112(6) . . .
118(6) . . .
121(6) . . .
111(5) . . .
99(5) . . .
114(6) . . .
120(6) . . .
109(5) . . .
100(5) . . .
124(6) . . .
116(6) . . .
105(6) . . .
106(6) . . .
98(5) . . .
101(5) . . .
115(6) . . .
115(6) . . .
109(6) . . .
114(6) . . .
124(6) . . .
105(5) . . .
111(6) . . .
106(5) . . .
114(6) . . .
128(6) . . .
111(6) . . .
122(6) . . .
117(6) . . .
114(6) . . .
107(5) . . .
117(6) . . .
103(5) . . .
114(6) . . .
103(5) . . .
113(6) . . .
112(6) . . .
117(6) . . .
111(5) . . .
108(5) . . .
115(6) . . .
113(6) . . .
118(6) . . .
110(5) . . .
98(5) . . .
116(6) . . .
117(6) . . .
121(6) . . .
107(5) . . .
111(5) . . .
115(6) . . .
127(6) . . .
111(6) . . .
113(5) . . .
126(6) . . .
120(6) . . .
114(6) . . .
138(6) . . .
119(6) . . .
107(6) . . .
118(6) . . .
108(6) . . .
108(5) . . .
121(6) . . .
109(6) . . .
118(6) . . .
121(6) . . .
118(6) . . .
113(6) . . .
115(6) . . .
123(6) . . .
123(6) . . .
127(6) . . .
120(6) . . .
110(6) . . .
114(6) . . .
134(6) . . .
137(6) . . .
117(6) . . .
123(6) . . .
119(6) . . .
112(6) . . .
119(6) . . .
119(6) . . .
118(6) . . .
126(6) . . .
113(6) . . .
120(6) . . .
110(5) . . .
121(6) . . .
115(6) . . .
116(6) . . .
124(6) . . .
122(6) . . .
114(6) . . .
103(6) . . .
102(5) . . .
122(6) . . .
125(6) . . .
109(6) . . .
121(6) . . .
105(6) . . .
110(5) . . .
109(5) . . .
113(6) . . .
109(6) . . .
104(5) . . .
101(5) . . .
107(5) . . .
118(6) . . .
109(6) . . .
122(6) . . .
111(5) . . .
123(6) . . .
124(6) . . .
109(6) . . .
128(6) . . .
119(6) . . .
112(6) . . .
112(6) . . .
105(6) . . .
121(6) . . .
105(5) . . .
101(5) . . .
92(5) . . .
113(6) . . .
104(5) . . .
108(5) . . .
121(6) . . .
112(6) . . .
112(6) . . .
108(5) . . .
123(6) . . .
125(6) . . .
126(6) . . .
106(5) . . .
98(5) . . .
115(6) . . .
121(6) . . .
119(6) . . .
118(6) . . .
124(6) . . .
115(6) . . .
112(6) . . .
109(6) . . .
127(6) . . .
118(6) . . .
109(5) . . .
119(6) . . .
136(6) . . .
112(6) . . .
100(5) . . .
118(6) . . .
119(6) . . .
113(6) . . .
103(5) . . .
105(5) . . .
122(6) . . .
102(5) . . .
112(6) . . .
131(7) . . .
116(6) . . .
108(5) . . .
105(6) . . .
120(6) . . .
97(5) . . .
104(5) . . .
118(6) . . .
111(6) . . .
110(6) . . .
113(6) . . .
104(5) . . .
130(6) . . .
107(6) . . .
116(6) . . .
104(6) . . .
103(5) . . .
108(6) . . .
117(6) . . .
106(6) . . .
93(5) . . .
90(5) . . .
115(6) . . .
124(6) . . .
108(5) . . .
118(6) . . .
112(5) . . .
123(6) . . .
125(6) . . .
114(6) . . .
112(6) . . .
120(6) . . .
122(6) . . .
111(6) . . .
110(6) . . .
109(5) . . .
102(5) . . .
120(6) . . .
106(6) . . .
111(6) . . .
113(6) . . .
115(6) . . .
111(6) . . .
126(6) . . .
114(6) . . .
109(5) . . .
125(6) . . .
126(6) . . .
120(6) . . .
104(6) . . .
131(6) . . .
111(6) . . .
117(6) . . .
99(5) . . .
117(6) . . .
110(5) . . .
100(5) . . .
118(6) . . .
112(6) . . .
100(5) . . .
119(6) . . .
103(6) . . .
108(6) . . .
117(6) . . .
110(5) . . .
136(6) . . .
117(6) . . .
102(5) . . .
113(6) . . .
112(6) . . .
93(5) . . .
120(6) . . .
107(6) . . .
101(5) . . .
114(6) . . .
110(5) . . .
102(5) . . .
113(6) . . .
99(5) . . .
135(6) . . .
110(6) . . .
111(6) . . .
106(6) . . .
116(6) . . .
116(6) . . .
102(5) . . .
114(6) . . .
124(6) . . .
119(6) . . .
114(6) . . .
124(6) . . .
118(6) . . .
120(6) . . .
122(6) . . .
104(5) . . .
119(6) . . .
105(5) . . .
100(5) . . .
112(6) . . .
111(5) . . .
116(6) . . .
122(6) . . .
109(6) . . .
100(5) . . .
104(5) . . .
117(6) . . .
104(6) . . .
108(6) . . .
107(5) . . .
101(5) . . .
106(5) . . .
113(6) . . .
113(6) . . .
118(6) . . .
109(5) . . .
107(5) . . .
119(6) . . .
117(6) . . .
112(6) . . .
102(5) . . .
109(6) . . .
110(6) . . .
99(5) . . .
95(5) . . .
94(5) . . .
104(6) . . .
96(6) . . .
108(6) . . .
120(6) . . .
104(5) . . .
114(6) . . .
109(6) . . .
105(6) . . .
108(5) . . .
117(6) . . .
98(5) . . .
128(6) . . .
110(5) . . .
116(6) . . .
106(5) . . .
112(6) . . .
116(6) . . .
103(5) . . .
93(5) . . .
108(5) . . .
111(6) . . .
119(6) . . .
103(5) . . .
108(5) . . .
114(6) . . .
119(6) . . .
119(6) . . .
103(5) . . .
96(5) . . .
116(6) . . .
111(6) . . .
105(5) . . .
98(5) . . .
113(6) . . .
113(6) . . .
101(5) . . .
94(5) . . .
106(5) . . .
107(5) . . .
99(5) . . .
109(6) . . .
104(5) . . .
108(6) . . .
96(5) . . .
103(5) . . .
118(6) . . .
113(6) . . .
108(6) . . .
113(6) . . .
104(6) . . .
103(6) . . .
117(6) . . .
102(5) . . .
102(5) . . .
96(5) . . .
98(5) . . .
100(5) . . .
104(5) . . .
119(6) . . .
94(5) . . .
95(6) . . .
102(6) . . .
99(5) . . .
91(5) . . .
108(6) . . .
96(5) . . .
111(6) . . .
107(5) . . .
107(5) . . .
103(5) . . .
112(6) . . .
107(6) . . .
108(5) . . .
118(6) . . .
113(6) . . .
103(5) . . .
110(6) . . .
108(5) . . .
109(6) . . .
106(6) . . .
122(6) . . .
102(5) . . .
114(6) . . .
111(6) . . .
94(5) . . .
112(6) . . .
117(6) . . .
117(6) . . .
124(6) . . .
104(6) . . .
109(6) . . .
110(6) . . .
109(5) . . .
114(6) . . .
106(6) . . .
121(6) . . .
114(6) . . .
110(5) . . .
103(6) . . .
104(6) . . .
114(6) . . .
107(5) . . .
97(5) . . .
101(6) . . .
105(6) . . .
112(6) . . .
109(5) . . .
100(5) . . .
109(6) . . .
100(5) . . .
115(6) . . .
108(5) . . .
110(5) . . .
104(5) . . .
99(5) . . .
102(5) . . .
94(5) . . .
102(5) . . .
105(6) . . .
95(5) . . .
124(6) . . .
101(5) . . .
107(5) . . .
99(5) . . .
110(6) . . .
92(5) . . .
109(5) . . .
109(6) . . .
116(6) . . .
100(6) . . .
109(5) . . .
100(5) . . .
103(5) . . .
115(6) . . .
103(6) . . .
115(6) . . .
117(6) . . .
102(5) . . .
106(6) . . .
109(6) . . .
105(6) . . .
101(5) . . .
107(6) . . .
90(5) . . .
98(5) . . .
118(6) . . .
110(5) . . .
109(6) . . .
106(6) . . .
95(5) . . .
118(6) . . .
103(5) . . .
103(5) . . .
97(5) . . .
98(5) . . .
107(5) . . .
98(5) . . .
93(5) . . .
96(5) . . .
112(6) . . .
108(5) . . .
104(5) . . .
96(5) . . .
99(6) . . .
100(5) . . .
117(6) . . .
106(5) . . .
106(6) . . .
103(6) . . .
109(6) . . .
94(5) . . .
107(5) . . .
117(6) . . .
126(6) . . .
105(6) . . .
109(5) . . .
102(5) . . .
101(5) . . .
96(5) . . .
116(6) . . .
104(5) . . .
90(5) . . .
97(5) . . .
101(5) . . .
114(6) . . .
114(6) . . .
96(5) . . .
124(6) . . .
106(6) . . .
99(5) . . .
115(6) . . .
100(5) . . .
103(5) . . .
99(5) . . .
107(6) . . .
93(5) . . .
110(6) . . .
124(6) . . .
115(6) . . .
111(5) . . .
109(5) . . .
123(6) . . .
103(6) . . .
116(6) . . .
97(5) . . .
112(6) . . .
106(6) . . .
111(6) . . .
109(6) . . .
103(5) . . .
96(5) . . .
110(6) . . .
105(6) . . .
103(5) . . .
121(6) . . .
112(6) . . .
108(6) . . .
114(6) . . .
104(5) . . .
95(5) . . .
95(5) . . .
112(6) . . .
109(6) . . .
105(6) . . .
106(5) . . .
109(6) . . .
112(6) . . .
117(6) . . .
101(5) . . .
125(6) . . .
122(6) . . .
117(6) . . .
113(6) . . .
99(5) . . .
105(5) . . .
98(5) . . .
108(6) . . .
96(5) . . .
101(5) . . .
107(5) . . .
123(6) . . .
124(6) . . .
101(6) . . .
106(6) . . .
119(6) . . .
108(6) . . .
109(6) . . .
102(5) . . .
119(6) . . .
126(6) . . .
99(5) . . .
112(6) . . .
121(6) . . .
109(5) . . .
112(5) . . .
117(6) . . .
104(6) . . .
111(6) . . .
108(5) . . .
111(5) . . .
107(6) . . .
106(6) . . .
106(6) . . .
99(5) . . .
115(6) . . .
109(6) . . .
106(6) . . .
111(6) . . .
96(5) . . .
102(5) . . .
110(6) . . .
93(5) . . .
114(6) . . .
107(5) . . .
112(6) . . .
95(5) . . .
110(6) . . .
103(5) . . .
96(5) . . .
91(5) . . .
120(6) . . .
118(6) . . .
98(5) . . .
98(5) . . .
108(6) . . .
102(5) . . .
98(5) . . .
98(5) . . .
108(5) . . .
102(5) . . .
89(5) . . .
108(6) . . .
103(5) . . .
104(5) . . .
92(5) . . .
97(5) . . .
109(6) . . .
111(6) . . .
108(5) . . .
109(6) . . .
89(5) . . .
112(6) . . .
111(5) . . .
104(5) . . .
109(5) . . .
113(6) . . .
102(6) . . .
106(5) . . .
104(5) . . .
117(6) . . .
94(5) . . .
97(5) . . .
99(5) . . .
110(5) . . .
106(6) . . .
102(6) . . .
114(6) . . .
102(5) . . .
101(5) . . .
108(6) . . .
99(6) . . .
99(5) . . .
97(5) . . .
98(5) . . .
111(6) . . .
108(6) . . .
102(5) . . .
111(5) . . .
101(5) . . .
104(5) . . .
105(5) . . .
103(5) . . .
96(5) . . .
111(6) . . .
98(5) . . .
102(5) . . .
107(5) . . .
119(6) . . .
89(5) . . .
99(5) . . .
101(5) . . .
116(6) . . .
100(5) . . .
99(6) . . .
101(5) . . .
108(5) . . .
115(6) . . .
118(6) . . .
100(5) . . .
103(6) . . .
108(6) . . .
95(5) . . .
96(5) . . .
103(6) . . .
87(5) . . .
105(5) . . .
119(6) . . .
105(5) . . .
113(6) . . .
124(6) . . .
101(5) . . .
92(5) . . .
111(6) . . .
89(5) . . .
108(6) . . .
99(5) . . .
103(5) . . .
103(5) . . .
97(5) . . .
99(6) . . .
118(6) . . .
117(6) . . .
96(5) . . .
112(6) . . .
113(6) . . .
117(6) . . .
103(5) . . .
105(5) . . .
101(5) . . .
98(5) . . .
99(5) . . .
106(5) . . .
108(5) . . .
106(6) . . .
107(6) . . .
114(6) . . .
98(5) . . .
104(6) . . .
118(6) . . .
100(5) . . .
104(5) . . .
105(5) . . .
118(6) . . .
116(6) . . .
99(5) . . .
109(6) . . .
105(5) . . .
101(5) . . .
107(6) . . .
103(6) . . .
108(5) . . .
105(5) . . .
105(6) . . .
108(6) . . .
113(6) . . .
89(5) . . .
109(5) . . .
107(6) . . .
102(6) . . .
90(5) . . .
105(5) . . .
116(6) . . .
107(6) . . .
107(6) . . .
113(6) . . .
106(5) . . .
100(5) . . .
113(6) . . .
106(6) . . .
104(5) . . .
111(5) . . .
108(6) . . .
111(6) . . .
115(6) . . .
111(6) . . .
106(5) . . .
100(5) . . .
111(6) . . .
108(6) . . .
108(5) . . .
109(5) . . .
119(6) . . .
95(5) . . .
97(5) . . .
104(5) . . .
102(5) . . .
113(6) . . .
83(5) . . .
109(6) . . .
105(5) . . .
98(5) . . .
107(6) . . .
90(5) . . .
98(5) . . .
97(5) . . .
111(6) . . .
111(6) . . .
108(6) . . .
98(5) . . .
96(5) . . .
84(5) . . .
102(5) . . .
112(6) . . .
95(5) . . .
114(6) . . .
110(5) . . .
103(5) . . .
115(6) . . .
114(6) . . .
110(5) . . .
94(5) . . .
105(5) . . .
114(6) . . .
97(5) . . .
101(5) . . .
119(6) . . .
113(6) . . .
102(5) . . .
104(5) . . .
103(5) . . .
112(6) . . .
102(5) . . .
111(6) . . .
112(6) . . .
106(5) . . .
97(5) . . .
98(5) . . .
99(6) . . .
102(5) . . .
109(5) . . .
105(5) . . .
106(5) . . .
106(5) . . .
97(5) . . .
104(5) . . .
100(5) . . .
103(5) . . .
116(6) . . .
115(6) . . .
105(5) . . .
101(5) . . .
107(6) . . .
107(6) . . .
106(6) . . .
102(5) . . .
98(5) . . .
113(6) . . .
105(6) . . .
104(5) . . .
104(5) . . .
108(6) . . .
95(5) . . .
105(6) . . .
99(5) . . .
105(5) . . .
103(5) . . .
107(6) . . .
101(5) . . .
83(5) . . .
90(5) . . .
106(5) . . .
111(6) . . .
106(5) . . .
97(5) . . .
101(5) . . .
103(6) . . .
96(5) . . .
112(6) . . .
102(5) . . .
109(6) . . .
108(6) . . .
101(6) . . .
95(5) . . .
102(5) . . .
114(6) . . .
104(5) . . .
110(6) . . .
110(6) . . .
98(5) . . .
104(5) . . .
101(5) . . .
112(6) . . .
87(5) . . .
105(5) . . .
116(6) . . .
92(5) . . .
116(6) . . .
95(5) . . .
102(5) . . .
92(5) . . .
87(5) . . .
100(6) . . .
102(5) . . .
110(5) . . .
102(6) . . .
96(5) . . .
96(5) . . .
100(5) . . .
87(5) . . .
101(6) . . .
106(6) . . .
97(5) . . .
101(5) . . .
107(5) . . .
94(5) . . .
107(6) . . .
105(6) . . .
102(5) . . .
101(5) . . .
99(5) . . .
96(5) . . .
95(5) . . .
104(5) . . .
93(5) . . .
104(5) . . .
104(6) . . .
109(6) . . .
112(5) . . .
94(5) . . .
90(5) . . .
105(5) . . .
104(5) . . .
91(5) . . .
93(5) . . .
100(5) . . .
107(6) . . .
99(5) . . .
112(6) . . .
106(5) . . .
98(5) . . .
110(6) . . .
102(5) . . .
90(5) . . .
116(6) . . .
110(6) . . .
101(5) . . .
113(6) . . .
97(5) . . .
85(5) . . .
94(5) . . .
118(6) . . .
111(5) . . .
97(5) . . .
109(6) . . .
96(6) . . .
94(5) . . .
94(5) . . .
91(5) . . .
99(5) . . .
104(6) . . .
104(5) . . .
98(5) . . .
100(5) . . .
102(6) . . .
110(6) . . .
104(6) . . .
92(5) . . .
111(5) . . .
96(5) . . .
110(6) . . .
108(6) . . .
93(5) . . .
100(5) . . .
97(5) . . .
93(5) . . .
98(5) . . .
96(5) . . .
94(5) . . .
99(5) . . .
98(6) . . .
110(6) . . .
105(5) . . .
106(5) . . .
90(5) . . .
96(5) . . .
110(6) . . .
103(5) . . .
105(5) . . .
101(5) . . .
102(5) . . .
94(5) . . .
104(5) . . .
103(5) . . .
106(5) . . .
111(6) . . .
83(5) . . .
105(5) . . .
99(5) . . .
107(6) . . .
99(5) . . .
108(5) . . .
86(5) . . .
101(5) . . .
106(6) . . .
102(5) . . .
100(5) . . .
99(5) . . .
96(5) . . .
89(5) . . .
95(5) . . .
102(5) . . .
96(5) . . .
92(5) . . .
106(6) . . .
102(5) . . .
105(5) . . .
86(5) . . .
103(6) . . .
99(6) . . .
107(6) . . .
98(5) . . .
104(5) . . .
107(6) . . .
110(6) . . .
92(5) . . .
89(5) . . .
112(5) . . .
96(5) . . .
99(6) . . .
113(6) . . .
103(5) . . .
102(5) . . .
101(5) . . .
111(6) . . .
101(5) . . .
92(5) . . .
106(5) . . .
104(6) . . .
95(5) . . .
87(5) . . .
96(5) . . .
99(5) . . .
113(6) . . .
98(5) . . .
101(5) . . .
106(5) . . .
109(6) . . .
104(6) . . .
108(6) . . .
107(6) . . .
94(5) . . .
113(6) . . .
104(5) . . .
93(5) . . .
113(6) . . .
107(5) . . .
98(5) . . .
96(5) . . .
100(5) . . .
112(6) . . .
85(5) . . .
118(6) . . .
100(5) . . .
93(5) . . .
100(5) . . .
89(5) . . .
78(5) . . .
97(5) . . .
106(6) . . .
104(5) . . .
106(5) . . .
102(5) . . .
88(5) . . .
111(6) . . .
115(6) . . .
96(5) . . .
106(6) . . .
107(6) . . .
89(5) . . .
102(5) . . .
90(5) . . .
90(5) . . .
100(5) . . .
104(5) . . .
111(5) . . .
105(5) . . .
93(5) . . .
109(6) . . .
114(6) . . .
104(5) . . .
113(6) . . .
102(5) . . .
106(6) . . .
90(5) . . .
92(5) . . .
98(5) . . .
109(6) . . .
91(5) . . .
95(5) . . .
94(5) . . .
99(5) . . .
106(6) . . .
120(6) . . .
90(5) . . .
89(5) . . .
112(6) . . .
102(6) . . .
106(6) . . .
110(5) . . .
101(5) . . .
103(5) . . .
103(6) . . .
102(5) . . .
99(5) . . .
99(5) . . .
102(5) . . .
105(6) . . .
110(6) . . .
96(5) . . .
112(5) . . .
110(6) . . .
107(6) . . .
96(5) . . .
104(5) . . .
96(5) . . .
95(5) . . .
97(6) . . .
93(5) . . .
95(5) . . .
112(5) . . .
101(5) . . .
108(6) . . .
102(5) . . .
99(5) . . .
93(5) . . .
108(6) . . .
102(6) . . .
115(6) . . .
111(5) . . .
103(5) . . .
104(6) . . .
87(5) . . .
109(6) . . .
100(5) . . .
86(5) . . .
95(5) . . .
94(6) . . .
97(5) . . .
96(5) . . .
96(5) . . .
94(5) . . .
89(5) . . .
95(5) . . .
99(5) . . .
87(5) . . .
88(5) . . .
90(5) . . .
83(5) . . .
105(5) . . .
102(6) . . .
95(5) . . .
94(5) . . .
81(5) . . .
97(5) . . .
118(6) . . .
103(5) . . .
128(6) . . .
106(5) . . .
112(6) . . .
106(6) . . .
97(5) . . .
116(6) . . .
103(5) . . .
93(5) . . .
98(5) . . .
95(5) . . .
99(5) . . .
107(5) . . .
111(6) . . .
110(6) . . .
93(5) . . .
87(5) . . .
102(5) . . .
107(5) . . .
118(6) . . .
96(5) . . .
89(5) . . .
93(5) . . .
98(5) . . .
93(5) . . .
102(6) . . .
107(6) . . .
105(5) . . .
96(5) . . .
95(5) . . .
105(6) . . .
113(6) . . .
103(5) . . .
110(6) . . .
88(5) . . .
102(5) . . .
109(6) . . .
97(5) . . .
86(5) . . .
95(5) . . .
92(5) . . .
89(5) . . .
97(5) . . .
103(5) . . .
99(5) . . .
91(5) . . .
89(5) . . .
92(5) . . .
109(6) . . .
105(6) . . .
109(6) . . .
97(5) . . .
92(5) . . .
97(5) . . .
90(5) . . .
98(5) . . .
109(5) . . .
87(5) . . .
95(5) . . .
94(6) . . .
101(5) . . .
104(5) . . .
99(5) . . .
102(5) . . .
102(6) . . .
99(5) . . .
102(5) . . .
96(5) . . .
91(5) . . .
92(5) . . .
82(5) . . .
92(5) . . .
91(5) . . .
94(5) . . .
95(5) . . .
102(5) . . .
94(5) . . .
98(5) . . .
99(5) . . .
95(5) . . .
90(5) . . .
96(5) . . .
94(5) . . .
92(5) . . .
91(5) . . .
105(5) . . .
95(5) . . .
98(5) . . .
94(5) . . .
96(5) . . .
93(5) . . .
108(5) . . .
95(5) . . .
98(5) . . .
94(5) . . .
87(5) . . .
83(5) . . .
101(5) . . .
110(6) . . .
95(5) . . .
101(5) . . .
92(5) . . .
110(6) . . .
108(6) . . .
92(5) . . .
87(5) . . .
84(5) . . .
82(5) . . .
103(6) . . .
84(5) . . .
100(5) . . .
107(5) . . .
88(5) . . .
90(5) . . .
97(5) . . .
86(5) . . .
96(5) . . .
90(5) . . .
90(5) . . .
91(5) . . .
101(5) . . .
99(5) . . .
91(5) . . .
108(6) . . .
95(5) . . .
87(5) . . .
92(5) . . .
98(5) . . .
101(5) . . .
87(5) . . .
80(5) . . .
83(5) . . .
87(5) . . .
89(5) . . .
90(5) . . .
93(5) . . .
98(5) . . .
91(5) . . .
109(6) . . .
101(5) . . .
104(5) . . .
91(5) . . .
96(5) . . .
114(6) . . .
106(6) . . .
92(5) . . .
92(5) . . .
94(5) . . .
94(5) . . .
94(5) . . .
91(5) . . .
109(6) . . .
95(5) . . .
97(5) . . .
94(5) . . .
92(5) . . .
85(5) . . .
102(6) . . .
100(5) . . .
110(5) . . .
96(5) . . .
102(5) . . .
107(6) . . .
85(5) . . .
86(5) . . .
96(5) . . .
101(5) . . .
106(6) . . .
96(5) . . .
103(5) . . .
111(5) . . .
88(5) . . .
92(5) . . .
102(5) . . .
94(5) . . .
97(5) . . .
110(6) . . .
94(5) . . .
92(5) . . .
86(5) . . .
95(5) . . .
99(5) . . .
91(5) . . .
114(6) . . .
114(6) . . .
96(5) . . .
88(5) . . .
101(5) . . .
98(5) . . .
105(5) . . .
86(5) . . .
114(6) . . .
97(5) . . .
105(5) . . .
95(5) . . .
95(5) . . .
106(6) . . .
86(5) . . .
104(5) . . .
96(5) . . .
92(5) . . .
92(5) . . .
107(6) . . .
105(5) . . .
100(5) . . .
92(5) . . .
103(6) . . .
99(5) . . .
111(6) . . .
100(5) . . .
96(5) . . .
98(6) . . .
100(5) . . .
95(5) . . .
95(5) . . .
95(5) . . .
97(6) . . .
84(5) . . .
99(5) . . .
108(6) . . .
100(6) . . .
95(5) . . .
93(5) . . .
102(5) . . .
99(5) . . .
97(5) . . .
88(5) . . .
97(5) . . .
101(5) . . .
99(5) . . .
93(5) . . .
101(5) . . .
101(5) . . .
90(5) . . .
94(5) . . .
104(6) . . .
98(5) . . .
110(6) . . .
104(5) . . .
95(5) . . .
106(6) . . .
89(5) . . .
92(5) . . .
84(5) . . .
107(6) . . .
104(5) . . .
96(5) . . .
97(5) . . .
100(5) . . .
104(6) . . .
110(6) . . .
91(5) . . .
97(5) . . .
94(5) . . .
86(5) . . .
97(6) . . .
97(5) . . .
99(5) . . .
98(5) . . .
96(5) . . .
104(6) . . .
94(5) . . .
96(5) . . .
96(5) . . .
88(5) . . .
115(6) . . .
98(5) . . .
90(5) . . .
94(5) . . .
104(5) . . .
96(5) . . .
89(5) . . .
103(5) . . .
82(5) . . .
100(6) . . .
100(5) . . .
98(5) . . .
90(5) . . .
92(5) . . .
98(5) . . .
87(5) . . .
93(5) . . .
99(5) . . .
101(5) . . .
100(5) . . .
95(5) . . .
93(5) . . .
87(5) . . .
96(5) . . .
102(6) . . .
90(5) . . .
84(5) . . .
95(5) . . .
94(5) . . .
101(6) . . .
96(6) . . .
94(5) . . .
100(5) . . .
94(5) . . .
100(6) . . .
94(5) . . .
91(5) . . .
101(5) . . .
93(5) . . .
96(6) . . .
106(6) . . .
89(5) . . .
88(5) . . .
101(5) . . .
99(5) . . .
85(5) . . .
100(5) . . .
92(5) . . .
92(5) . . .
94(5) . . .
91(5) . . .
77(4) . . .
87(5) . . .
87(5) . . .
110(6) . . .
103(5) . . .
87(5) . . .
96(5) . . .
101(5) . . .
105(6) . . .
96(5) . . .
112(5) . . .
106(5) . . .
90(5) . . .
87(5) . . .
94(5) . . .
90(5) . . .
88(5) . . .
86(5) . . .
94(5) . . .
104(5) . . .
87(5) . . .
103(6) . . .
99(5) . . .
94(5) . . .
94(5) . . .
86(5) . . .
99(5) . . .
92(5) . . .
111(6) . . .
94(5) . . .
97(5) . . .
90(5) . . .
97(5) . . .
95(5) . . .
89(5) . . .
101(5) . . .
97(5) . . .
82(5) . . .
101(5) . . .
90(5) . . .
93(5) . . .
98(5) . . .
105(6) . . .
94(5) . . .
100(5) . . .
101(5) . . .
90(5) . . .
104(6) . . .
97(5) . . .
85(5) . . .
97(5) . . .
107(6) . . .
93(5) . . .
108(6) . . .
106(5) . . .
103(5) . . .
101(5) . . .
95(5) . . .
95(5) . . .
89(5) . . .
98(5) . . .
94(5) . . .
101(6) . . .
91(5) . . .
94(5) . . .
100(5) . . .
104(5) . . .
95(5) . . .
94(5) . . .
91(5) . . .
101(5) . . .
90(5) . . .
104(5) . . .
102(5) . . .
101(5) . . .
103(5) . . .
95(5) . . .
93(5) . . .
95(5) . . .
98(5) . . .
102(5) . . .
88(5) . . .
88(5) . . .
97(5) . . .
105(5) . . .
86(5) . . .
93(5) . . .
90(5) . . .
102(5) . . .
91(5) . . .
85(5) . . .
103(6) . . .
85(5) . . .
78(5) . . .
87(5) . . .
91(5) . . .
94(5) . . .
104(5) . . .
92(5) . . .
99(5) . . .
106(6) . . .
102(6) . . .
92(5) . . .
95(5) . . .
94(5) . . .
94(5) . . .
107(6) . . .
86(5) . . .
81(5) . . .
87(5) . . .
92(5) . . .
107(6) . . .
89(5) . . .
78(5) . . .
93(5) . . .
98(5) . . .
88(5) . . .
102(6) . . .
93(5) . . .
96(5) . . .
99(5) . . .
89(5) . . .
110(6) . . .
93(5) . . .
91(5) . . .
92(5) . . .
95(5) . . .
99(5) . . .
99(5) . . .
89(5) . . .
89(5) . . .
86(5) . . .
83(5) . . .
79(5) . . .
95(5) . . .
90(5) . . .
99(5) . . .
103(5) . . .
121(6) . . .
112(6) . . .
107(6) . . .
96(5) . . .
106(5) . . .
94(5) . . .
88(5) . . .
91(5) . . .
74(5) . . .
99(5) . . .
94(5) . . .
88(5) . . .
90(5) . . .
90(5) . . .
90(5) . . .
100(5) . . .
106(6) . . .
92(5) . . .
94(5) . . .
83(5) . . .
94(5) . . .
94(5) . . .
87(5) . . .
79(5) . . .
84(5) . . .
98(5) . . .
94(5) . . .
98(6) . . .
103(6) . . .
86(5) . . .
102(5) . . .
98(5) . . .
89(5) . . .
85(5) . . .
90(5) . . .
80(5) . . .
95(5) . . .
86(5) . . .
104(5) . . .
101(5) . . .
92(5) . . .
95(5) . . .
87(5) . . .
101(5) . . .
82(5) . . .
89(5) . . .
81(5) . . .
92(5) . . .
106(5) . . .
85(5) . . .
87(5) . . .
91(5) . . .
106(6) . . .
93(5) . . .
105(5) . . .
87(5) . . .
87(5) . . .
107(5) . . .
110(5) . . .
104(5) . . .
99(5) . . .
93(5) . . .
79(5) . . .
91(5) . . .
98(5) . . .
95(5) . . .
95(5) . . .
94(5) . . .
101(5) . . .
84(5) . . .
93(5) . . .
85(5) . . .
86(5) . . .
99(5) . . .
91(5) . . .
88(5) . . .
93(5) . . .
80(5) . . .
83(5) . . .
102(5) . . .
97(5) . . .
97(5) . . .
90(5) . . .
85(5) . . .
89(5) . . .
98(5) . . .
86(5) . . .
105(5) . . .
95(5) . . .
96(5) . . .
98(5) . . .
114(6) . . .
106(5) . . .
110(5) . . .
92(5) . . .
101(5) . . .
96(5) . . .
97(5) . . .
117(6) . . .
99(5) . . .
85(5) . . .
96(5) . . .
99(5) . . .
95(5) . . .
91(5) . . .
99(6) . . .
100(5) . . .
99(5) . . .
99(5) . . .
93(5) . . .
91(5) . . .
96(6) . . .
92(5) . . .
100(5) . . .
97(5) . . .
95(6) . . .
82(5) . . .
89(5) . . .
86(5) . . .
86(5) . . .
88(5) . . .
86(5) . . .
104(5) . . .
96(5) . . .
88(5) . . .
85(5) . . .
94(5) . . .
101(5) . . .
93(5) . . .
100(5) . . .
106(6) . . .
99(5) . . .
86(5) . . .
104(5) . . .
110(6) . . .
92(5) . . .
85(5) . . .
90(5) . . .
88(5) . . .
82(5) . . .
94(5) . . .
93(5) . . .
104(5) . . .
94(5) . . .
88(5) . . .
100(5) . . .
115(6) . . .
100(5) . . .
90(5) . . .
94(5) . . .
96(5) . . .
112(6) . . .
103(5) . . .
107(6) . . .
89(5) . . .
85(5) . . .
106(5) . . .
102(5) . . .
94(5) . . .
94(5) . . .
95(5) . . .
109(5) . . .
102(5) . . .
100(5) . . .
93(5) . . .
96(5) . . .
100(5) . . .
100(5) . . .
94(5) . . .
81(5) . . .
89(5) . . .
74(4) . . .
93(5) . . .
95(5) . . .
84(5) . . .
94(5) . . .
81(5) . . .
95(5) . . .
97(5) . . .
94(5) . . .
100(5) . . .
96(5) . . .
108(6) . . .
97(5) . . .
92(5) . . .
98(5) . . .
96(5) . . .
82(5) . . .
83(5) . . .
80(5) . . .
88(5) . . .
93(5) . . .
107(6) . . .
101(5) . . .
90(5) . . .
87(5) . . .
102(5) . . .
94(5) . . .
92(5) . . .
100(5) . . .
85(5) . . .
103(5) . . .
109(6) . . .
97(5) . . .
100(5) . . .
95(5) . . .
107(5) . . .
98(5) . . .
99(5) . . .
100(5) . . .
82(5) . . .
92(5) . . .
96(5) . . .
87(5) . . .
92(5) . . .
104(5) . . .
98(5) . . .
104(6) . . .
97(5) . . .
107(6) . . .
85(5) . . .
85(5) . . .
97(5) . . .
86(5) . . .
84(5) . . .
107(5) . . .
96(5) . . .
94(5) . . .
98(5) . . .
104(5) . . .
92(5) . . .
94(5) . . .
98(5) . . .
110(6) . . .
100(5) . . .
96(5) . . .
95(5) . . .
84(5) . . .
96(6) . . .
99(5) . . .
110(5) . . .
108(6) . . .
101(6) . . .
89(5) . . .
94(5) . . .
89(5) . . .
93(5) . . .
99(5) . . .
95(5) . . .
98(5) . . .
101(5) . . .
90(5) . . .
95(6) . . .
101(5) . . .
98(5) . . .
95(5) . . .
92(5) . . .
101(6) . . .
97(5) . . .
107(5) . . .
91(5) . . .
88(5) . . .
90(5) . . .
86(5) . . .
99(5) . . .
99(5) . . .
102(5) . . .
86(5) . . .
93(5) . . .
89(5) . . .
95(5) . . .
100(5) . . .
99(5) . . .
96(5) . . .
102(5) . . .
91(5) . . .
96(5) . . .
93(5) . . .
97(6) . . .
105(5) . . .
94(5) . . .
104(6) . . .
103(6) . . .
110(6) . . .
96(5) . . .
105(6) . . .
90(5) . . .
99(5) . . .
107(6) . . .
98(5) . . .
108(6) . . .
103(5) . . .
104(6) . . .
102(5) . . .
97(5) . . .
103(5) . . .
93(5) . . .
97(5) . . .
100(5) . . .
94(5) . . .
115(6) . . .
103(6) . . .
101(5) . . .
88(5) . . .
86(5) . . .
81(5) . . .
99(6) . . .
96(5) . . .
92(5) . . .
93(5) . . .
109(6) . . .
88(5) . . .
101(5) . . .
87(5) . . .
90(5) . . .
92(5) . . .
99(5) . . .
94(5) . . .
93(5) . . .
96(5) . . .
98(5) . . .
84(5) . . .
86(5) . . .
88(5) . . .
91(5) . . .
96(5) . . .
85(5) . . .
90(5) . . .
96(5) . . .
91(5) . . .
89(5) . . .
87(5) . . .
95(5) . . .
99(5) . . .
95(5) . . .
96(5) . . .
96(5) . . .
98(5) . . .
86(5) . . .
99(5) . . .
108(6) . . .
90(5) . . .
97(5) . . .
87(5) . . .
92(5) . . .
85(5) . . .
86(5) . . .
94(5) . . .
93(5) . . .
81(5) . . .
88(5) . . .
95(5) . . .
101(5) . . .
102(5) . . .
90(5) . . .
94(6) . . .
92(5) . . .
89(5) . . .
90(5) . . .
95(5) . . .
93(5) . . .
101(5) . . .
85(5) . . .
97(5) . . .
96(5) . . .
89(5) . . .
98(5) . . .
112(6) . . .
107(5) . . .
100(5) . . .
81(5) . . .
110(6) . . .
97(5) . . .
89(5) . . .
97(5) . . .
88(5) . . .
100(6) . . .
94(5) . . .
103(5) . . .
92(5) . . .
90(5) . . .
81(5) . . .
106(5) . . .
103(5) . . .
104(6) . . .
91(5) . . .
97(5) . . .
101(5) . . .
95(5) . . .
93(5) . . .
105(6) . . .
88(5) . . .
90(5) . . .
91(5) . . .
97(5) . . .
93(5) . . .
93(5) . . .
94(5) . . .
96(6) . . .
88(5) . . .
97(5) . . .
99(5) . . .
101(5) . . .
97(5) . . .
115(6) . . .
96(5) . . .
93(5) . . .
86(5) . . .
97(5) . . .
109(6) . . .
97(5) . . .
89(5) . . .
90(5) . . .
93(5) . . .
104(6) . . .
104(6) . . .
104(5) . . .
110(6) . . .
91(5) . . .
98(6) . . .
99(5) . . .
83(5) . . .
94(5) . . .
93(5) . . .
90(5) . . .
96(5) . . .
89(5) . . .
116(6) . . .
105(6) . . .
91(5) . . .
92(5) . . .
90(5) . . .
94(5) . . .
85(5) . . .
94(5) . . .
88(5) . . .
85(5) . . .
94(5) . . .
105(6) . . .
97(5) . . .
86(5) . . .
87(5) . . .
91(5) . . .
80(5) . . .
91(5) . . .
90(5) . . .
84(5) . . .
105(5) . . .
91(5) . . .
96(5) . . .
98(5) . . .
100(5) . . .
101(5) . . .
92(5) . . .
93(5) . . .
97(5) . . .
97(5) . . .
97(5) . . .
96(6) . . .
91(5) . . .
93(5) . . .
89(5) . . .
84(5) . . .
103(6) . . .
85(5) . . .
96(5) . . .
104(5) . . .
87(5) . . .
76(5) . . .
85(5) . . .
97(5) . . .
84(5) . . .
88(5) . . .
95(5) . . .
92(5) . . .
89(5) . . .
84(5) . . .
95(5) . . .
94(5) . . .
101(5) . . .
102(5) . . .
106(5) . . .
92(5) . . .
92(5) . . .
93(5) . . .
98(5) . . .
90(5) . . .
109(6) . . .
87(5) . . .
96(5) . . .
103(5) . . .
105(5) . . .
98(5) . . .
99(5) . . .
98(5) . . .
81(5) . . .
101(6) . . .
94(5) . . .
85(5) . . .
84(5) . . .
88(5) . . .
89(5) . . .
89(5) . . .
90(5) . . .
88(5) . . .
92(5) . . .
97(5) . . .
91(5) . . .
96(5) . . .
92(5) . . .
83(5) . . .
91(5) . . .
94(6) . . .
85(5) . . .
83(5) . . .
99(5) . . .
101(5) . . .
102(6) . . .
95(5) . . .
101(5) . . .
102(5) . . .
84(5) . . .
96(5) . . .
93(5) . . .
77(5) . . .
88(5) . . .
86(5) . . .
92(5) . . .
93(5) . . .
99(5) . . .
96(5) . . .
107(6) . . .
90(5) . . .
103(5) . . .
85(5) . . .
98(6) . . .
95(5) . . .
92(5) . . .
107(5) . . .
104(5) . . .
96(5) . . .
96(5) . . .
104(5) . . .
97(5) . . .
96(5) . . .
92(5) . . .
83(5) . . .
96(5) . . .
105(5) . . .
83(5) . . .
90(5) . . .
97(6) . . .
89(5) . . .
86(5) . . .
101(5) . . .
84(5) . . .
96(5) . . .
88(5) . . .
88(5) . . .
90(5) . . .
81(5) . . .
90(5) . . .
99(5) . . .
90(5) . . .
96(5) . . .
80(5) . . .
76(5) . . .
82(5) . . .
89(5) . . .
92(5) . . .
90(5) . . .
97(5) . . .
101(5) . . .
87(5) . . .
85(5) . . .
93(5) . . .
98(5) . . .
95(5) . . .
80(5) . . .
81(5) . . .
96(5) . . .
91(5) . . .
86(5) . . .
85(5) . . .
82(5) . . .
80(5) . . .
90(5) . . .
88(5) . . .
98(5) . . .
89(5) . . .
92(5) . . .
93(5) . . .
93(5) . . .
85(5) . . .
99(5) . . .
105(6) . . .
98(5) . . .
105(5) . . .
104(5) . . .
90(5) . . .
92(5) . . .
91(5) . . .
74(4) . . .
89(5) . . .
93(5) . . .
89(5) . . .
77(5) . . .
92(5) . . .
98(5) . . .
98(5) . . .
105(6) . . .
94(5) . . .
84(5) . . .
77(5) . . .
87(5) . . .
96(6) . . .
91(5) . . .
100(5) . . .
84(5) . . .
79(5) . . .
81(5) . . .
90(5) . . .
89(5) . . .
96(5) . . .
96(5) . . .
89(5) . . .
85(5) . . .
91(5) . . .
76(5) . . .
87(5) . . .
104(5) . . .
97(5) . . .
81(5) . . .
79(5) . . .
91(5) . . .
90(5) . . .
93(5) . . .
90(5) . . .
106(6) . . .
89(5) . . .
84(5) . . .
97(5) . . .
91(5) . . .
87(5) . . .
82(5) . . .
84(5) . . .
93(5) . . .
103(5) . . .
94(5) . . .
84(5) . . .
98(5) . . .
80(5) . . .
80(5) . . .
89(5) . . .
92(5) . . .
78(5) . . .
78(5) . . .
91(5) . . .
100(5) . . .
96(5) . . .
85(5) . . .
89(5) . . .
101(5) . . .
85(5) . . .
78(5) . . .
87(5) . . .
87(5) . . .
97(5) . . .
91(5) . . .
97(5) . . .
95(5) . . .
92(5) . . .
82(5) . . .
84(5) . . .
88(5) . . .
89(5) . . .
84(5) . . .
80(5) . . .
78(5) . . .
83(5) . . .
91(5) . . .
83(5) . . .
72(4) . . .
78(5) . . .
85(5) . . .
89(5) . . .
95(5) . . .
99(5) . . .
93(5) . . .
89(5) . . .
98(5) . . .
88(5) . . .
90(5) . . .
85(5) . . .
99(6) . . .
79(5) . . .
93(5) . . .
90(5) . . .
87(5) . . .
85(5) . . .
78(5) . . .
91(5) . . .
76(5) . . .
77(5) . . .
95(5) . . .
89(5) . . .
83(5) . . .
75(5) . . .
84(5) . . .
91(5) . . .
88(5) . . .
92(5) . . .
92(5) . . .
81(5) . . .
104(6) . . .
105(5) . . .
97(5) . . .
95(5) . . .
93(5) . . .
78(5) . . .
89(5) . . .
95(5) . . .
85(5) . . .
74(5) . . .
78(5) . . .
90(5) . . .
84(5) . . .
90(5) . . .
89(5) . . .
82(5) . . .
86(5) . . .
87(5) . . .
90(5) . . .
103(6) . . .
95(5) . . .
81(5) . . .
72(4) . . .
87(5) . . .
68(4) . . .
84(5) . . .
87(5) . . .
89(5) . . .
78(5) . . .
82(5) . . .
98(5) . . .
83(5) . . .
82(5) . . .
79(5) . . .
94(5) . . .
84(5) . . .
88(5) . . .
87(5) . . .
94(5) . . .
87(5) . . .
82(5) . . .
90(5) . . .
84(5) . . .
85(5) . . .
81(5) . . .
90(5) . . .
88(5) . . .
91(5) . . .
97(6) . . .
87(5) . . .
92(5) . . .
94(5) . . .
90(5) . . .
93(5) . . .
92(5) . . .
100(5) . . .
84(5) . . .
85(5) . . .
89(5) . . .
89(5) . . .
76(5) . . .
95(5) . . .
90(5) . . .
78(5) . . .
87(5) . . .
85(5) . . .
97(5) . . .
86(5) . . .
93(5) . . .
90(5) . . .
93(5) . . .
88(5) . . .
81(5) . . .
81(5) . . .
94(5) . . .
89(5) . . .
86(5) . . .
91(5) . . .
87(5) . . .
85(5) . . .
105(5) . . .
92(5) . . .
86(5) . . .
79(5) . . .
81(5) . . .
85(5) . . .
79(5) . . .
79(5) . . .
81(5) . . .
86(5) . . .
90(5) . . .
81(5) . . .
81(5) . . .
100(5) . . .
86(5) . . .
77(5) . . .
89(5) . . .
89(5) . . .
93(5) . . .
80(5) . . .
86(5) . . .
88(5) . . .
82(5) . . .
84(5) . . .
85(5) . . .
98(5) . . .
94(5) . . .
82(5) . . .
69(4) . . .
86(5) . . .
96(5) . . .
89(5) . . .
85(5) . . .
82(5) . . .
91(5) . . .
93(5) . . .
81(5) . . .
77(5) . . .
93(5) . . .
85(5) . . .
84(5) . . .
81(5) . . .
89(5) . . .
87(5) . . .
84(5) . . .
77(5) . . .
78(5) . . .
90(5) . . .
79(5) . . .
78(5) . . .
85(5) . . .
91(5) . . .
88(5) . . .
98(5) . . .
93(5) . . .
87(5) . . .
89(5) . . .
75(5) . . .
90(5) . . .
95(5) . . .
96(5) . . .
86(5) . . .
88(5) . . .
82(5) . . .
79(5) . . .
90(5) . . .
97(6) . . .
87(5) . . .
89(5) . . .
101(5) . . .
91(5) . . .
89(5) . . .
89(5) . . .
80(5) . . .
88(5) . . .
80(5) . . .
76(5) . . .
97(5) . . .
93(5) . . .
100(5) . . .
93(5) . . .
96(5) . . .
87(5) . . .
88(5) . . .
89(5) . . .
91(5) . . .
82(5) . . .
83(5) . . .
101(5) . . .
91(5) . . .
104(6) . . .
96(5) . . .
91(5) . . .
99(5) . . .
94(5) . . .
81(5) . . .
98(5) . . .
96(5) . . .
97(5) . . .
92(5) . . .
92(6) . . .
81(5) . . .
107(5) . . .
94(5) . . .
90(5) . . .
83(5) . . .
101(6) . . .
105(5) . . .
101(5) . . .
96(5) . . .
83(5) . . .
100(5) . . .
110(5) . . .
91(5) . . .
88(5) . . .
86(5) . . .
103(6) . . .
99(5) . . .
93(5) . . .
94(5) . . .
96(5) . . .
101(5) . . .
96(5) . . .
90(5) . . .
99(5) . . .
97(6) . . .
87(5) . . .
88(5) . . .
86(5) . . .
94(5) . . .
98(6) . . .
85(5) . . .
101(5) . . .
99(5) . . .
89(5) . . .
99(5) . . .
91(5) . . .
94(5) . . .
91(5) . . .
92(5) . . .
81(5) . . .
81(5) . . .
92(5) . . .
89(5) . . .
84(5) . . .
85(5) . . .
90(5) . . .
81(5) . . .
96(5) . . .
82(5) . . .
93(5) . . .
96(5) . . .
81(5) . . .
88(5) . . .
82(5) . . .
96(5) . . .
76(5) . . .
86(5) . . .
68(4) . . .
86(5) . . .
85(5) . . .
80(5) . . .
87(5) . . .
92(5) . . .
88(5) . . .
96(5) . . .
84(5) . . .
83(5) . . .
87(5) . . .
94(6) . . .
84(5) . . .
76(4) . . .
91(5) . . .
69(4) . . .
84(5) . . .
82(5) . . .
86(5) . . .
97(5) . . .
75(5) . . .
81(5) . . .
87(5) . . .
95(5) . . .
88(5) . . .
83(5) . . .
83(5) . . .
87(5) . . .
75(5) . . .
85(5) . . .
76(5) . . .
72(5) . . .
79(5) . . .
92(5) . . .
83(5) . . .
81(5) . . .
92(5) . . .
89(5) . . .
89(5) . . .
83(5) . . .
94(5) . . .
73(5) . . .
78(5) . . .
88(5) . . .
86(5) . . .
83(5) . . .
89(5) . . .
84(5) . . .
85(5) . . .
85(5) . . .
85(5) . . .
88(5) . . .
97(5) . . .
92(5) . . .
83(5) . . .
85(5) . . .
88(5) . . .
89(5) . . .
99(5) . . .
88(5) . . .
73(5) . . .
87(5) . . .
82(5) . . .
81(5) . . .
70(4) . . .
85(5) . . .
89(5) . . .
91(5) . . .
88(5) . . .
90(5) . . .
86(5) . . .
102(5) . . .
87(5) . . .
87(5) . . .
88(5) . . .
89(5) . . .
95(5) . . .
89(5) . . .
88(5) . . .
80(5) . . .
91(5) . . .
89(5) . . .
83(5) . . .
86(5) . . .
90(5) . . .
85(5) . . .
76(5) . . .
70(4) . . .
77(5) . . .
82(5) . . .
83(5) . . .
104(5) . . .
85(5) . . .
99(5) . . .
93(5) . . .
88(5) . . .
76(5) . . .
72(4) . . .
86(5) . . .
75(5) . . .
83(5) . . .
87(5) . . .
75(5) . . .
99(5) . . .
93(5) . . .
93(5) . . .
87(5) . . .
76(5) . . .
78(5) . . .
75(5) . . .
95(5) . . .
79(5) . . .
72(4) . . .
83(5) . . .
91(5) . . .
76(5) . . .
84(5) . . .
85(5) . . .
94(5) . . .
77(5) . . .
94(5) . . .
96(5) . . .
86(5) . . .
93(5) . . .
88(5) . . .
73(4) . . .
75(5) . . .
84(5) . . .
89(5) . . .
92(5) . . .
87(5) . . .
76(4) . . .
87(5) . . .
83(5) . . .
76(5) . . .
87(5) . . .
77(5) . . .
79(5) . . .
84(5) . . .
80(5) . . .
81(5) . . .
73(4) . . .
80(5) . . .
68(4) . . .
79(5) . . .
82(5) . . .
89(5) . . .
92(5) . . .
88(5) . . .
88(5) . . .
107(5) . . .
78(5) . . .
85(5) . . .
91(5) . . .
83(5) . . .
89(5) . . .
94(5) . . .
79(5) . . .
82(5) . . .
86(5) . . .
80(5) . . .
84(5) . . .
86(5) . . .
94(5) . . .
85(5) . . .
76(5) . . .
89(5) . . .
77(5) . . .
86(5) . . .
72(4) . . .
93(5) . . .
83(5) . . .
86(5) . . .
88(5) . . .
74(5) . . .
76(5) . . .
81(5) . . .
78(5) . . .
79(5) . . .
87(5) . . .
95(5) . . .
95(5) . . .
88(5) . . .
73(5) . . .
86(5) . . .
80(5) . . .
97(5) . . .
84(5) . . .
74(5) . . .
94(5) . . .
85(5) . . .
84(5) . . .
82(5) . . .
87(5) . . .
85(5) . . .
80(5) . . .
95(5) . . .
99(5) . . .
98(5) . . .
88(5) . . .
95(5) . . .
95(5) . . .
73(5) . . .
76(5) . . .
88(5) . . .
79(5) . . .
84(5) . . .
82(5) . . .
86(5) . . .
83(5) . . .
85(5) . . .
80(5) . . .
82(5) . . .
82(5) . . .
84(5) . . .
86(5) . . .
80(5) . . .
91(5) . . .
88(5) . . .
81(5) . . .
96(5) . . .
86(5) . . .
86(5) . . .
83(5) . . .
79(5) . . .
86(5) . . .
89(5) . . .
89(5) . . .
93(5) . . .
80(5) . . .
83(5) . . .
90(5) . . .
87(5) . . .
82(5) . . .
79(5) . . .
81(5) . . .
82(5) . . .
82(5) . . .
88(5) . . .
79(5) . . .
84(5) . . .
87(5) . . .
87(5) . . .
90(5) . . .
84(5) . . .
77(5) . . .
83(5) . . .
97(5) . . .
89(5) . . .
77(5) . . .
90(5) . . .
106(6) . . .
76(5) . . .
78(5) . . .
76(5) . . .
88(5) . . .
85(5) . . .
84(5) . . .
82(5) . . .
88(5) . . .
83(5) . . .
85(5) . . .
79(5) . . .
90(5) . . .
85(5) . . .
93(5) . . .
91(5) . . .
87(5) . . .
84(5) . . .
84(5) . . .
83(5) . . .
71(5) . . .
88(5) . . .
83(5) . . .
82(5) . . .
83(5) . . .
85(5) . . .
87(5) . . .
83(5) . . .
72(4) . . .
81(5) . . .
80(5) . . .
79(5) . . .
97(5) . . .
87(5) . . .
85(5) . . .
83(5) . . .
72(5) . . .
72(4) . . .
83(5) . . .
79(5) . . .
80(5) . . .
79(5) . . .
87(5) . . .
81(5) . . .
83(5) . . .
82(5) . . .
85(5) . . .
83(5) . . .
92(5) . . .
87(5) . . .
81(5) . . .
79(5) . . .
88(5) . . .
77(5) . . .
80(5) . . .
87(5) . . .
87(5) . . .
85(5) . . .
82(5) . . .
87(5) . . .
92(5) . . .
73(5) . . .
88(5) . . .
90(5) . . .
79(5) . . .
75(5) . . .
82(5) . . .
99(5) . . .
86(5) . . .
92(5) . . .
79(5) . . .
79(5) . . .
81(5) . . .
70(4) . . .
71(5) . . .
94(5) . . .
85(5) . . .
92(5) . . .
80(5) . . .
75(5) . . .
78(5) . . .
86(5) . . .
74(4) . . .
77(5) . . .
72(4) . . .
97(5) . . .
100(5) . . .
78(5) . . .
93(5) . . .
93(5) . . .
89(5) . . .
71(4) . . .
72(4) . . .
90(5) . . .
75(5) . . .
85(5) . . .
91(5) . . .
90(5) . . .
71(5) . . .
90(5) . . .
81(5) . . .
74(4) . . .
85(5) . . .
79(5) . . .
78(5) . . .
82(5) . . .
85(5) . . .
85(5) . . .
70(5) . . .
80(5) . . .
89(5) . . .
109(5) . . .
87(5) . . .
86(5) . . .
85(5) . . .
83(5) . . .
112(5) . . .
79(5) . . .
73(5) . . .
83(5) . . .
78(5) . . .
88(5) . . .
90(5) . . .
86(5) . . .
83(5) . . .
81(5) . . .
98(5) . . .
84(5) . . .
86(5) . . .
72(5) . . .
84(5) . . .
74(5) . . .
80(5) . . .
72(5) . . .
92(5) . . .
85(5) . . .
88(5) . . .
88(5) . . .
90(5) . . .
85(5) . . .
80(5) . . .
87(5) . . .
82(5) . . .
80(5) . . .
80(5) . . .
83(5) . . .
81(5) . . .
75(5) . . .
82(5) . . .
77(5) . . .
68(4) . . .
76(5) . . .
75(5) . . .
86(5) . . .
89(5) . . .
91(5) . . .
93(5) . . .
76(5) . . .
87(5) . . .
83(5) . . .
92(5) . . .
87(5) . . .
92(6) . . .
82(5) . . .
76(5) . . .
72(4) . . .
86(5) . . .
83(5) . . .
90(5) . . .
77(4) . . .
89(5) . . .
80(5) . . .
82(5) . . .
78(5) . . .
80(5) . . .
88(5) . . .
71(4) . . .
83(5) . . .
82(5) . . .
85(5) . . .
95(5) . . .
75(5) . . .
66(4) . . .
71(5) . . .
85(5) . . .
87(5) . . .
74(5) . . .
69(4) . . .
80(5) . . .
70(4) . . .
77(5) . . .
75(5) . . .
87(5) . . .
84(5) . . .
71(4) . . .
79(5) . . .
76(5) . . .
86(5) . . .
82(5) . . .
84(5) . . .
83(5) . . .
84(5) . . .
77(5) . . .
83(5) . . .
93(5) . . .
87(5) . . .
86(5) . . .
89(5) . . .
74(4) . . .
94(5) . . .
78(5) . . .
78(5) . . .
90(5) . . .
69(4) . . .
82(5) . . .
79(5) . . .
83(5) . . .
92(5) . . .
77(5) . . .
81(5) . . .
83(5) . . .
80(5) . . .
70(5) . . .
75(4) . . .
86(5) . . .
86(5) . . .
85(5) . . .
89(5) . . .
75(5) . . .
92(5) . . .
84(5) . . .
82(5) . . .
76(5) . . .
83(5) . . .
72(4) . . .
81(5) . . .
74(5) . . .
79(5) . . .
87(5) . . .
72(4) . . .
86(5) . . .
80(5) . . .
77(5) . . .
87(5) . . .
81(5) . . .
84(5) . . .
88(5) . . .
60(4) . . .
83(5) . . .
84(5) . . .
84(5) . . .
77(5) . . .
70(4) . . .
80(5) . . .
77(5) . . .
76(5) . . .
79(5) . . .
79(5) . . .
92(5) . . .
78(5) . . .
87(5) . . .
87(5) . . .
84(5) . . .
74(5) . . .
82(5) . . .
93(6) . . .
83(5) . . .
74(4) . . .
73(4) . . .
75(5) . . .
71(5) . . .
78(5) . . .
81(5) . . .
81(5) . . .
77(5) . . .
84(5) . . .
77(5) . . .
92(5) . . .
77(5) . . .
81(5) . . .
68(4) . . .
82(5) . . .
81(5) . . .
92(5) . . .
72(5) . . .
77(5) . . .
84(5) . . .
79(5) . . .
82(5) . . .
87(5) . . .
73(4) . . .
81(5) . . .
95(5) . . .
82(5) . . .
82(5) . . .
74(5) . . .
73(4) . . .
86(5) . . .
90(5) . . .
84(5) . . .
83(5) . . .
80(5) . . .
75(5) . . .
84(5) . . .
83(5) . . .
67(4) . . .
73(5) . . .
94(5) . . .
79(5) . . .
84(5) . . .
72(4) . . .
98(5) . . .
80(5) . . .
92(5) . . .
76(5) . . .
76(4) . . .
86(5) . . .
81(5) . . .
79(5) . . .
80(5) . . .
89(5) . . .
76(5) . . .
80(5) . . .
78(5) . . .
80(5) . . .
82(5) . . .
76(5) . . .
84(5) . . .
75(5) . . .
87(5) . . .
83(5) . . .
84(5) . . .
66(4) . . .
81(5) . . .
81(5) . . .
72(4) . . .
74(4) . . .
75(4) . . .
82(5) . . .
83(5) . . .
84(5) . . .
82(5) . . .
77(5) . . .
85(5) . . .
88(5) . . .
73(5) . . .
69(4) . . .
77(5) . . .
76(5) . . .
80(5) . . .
74(5) . . .
75(5) . . .
82(5) . . .
78(5) . . .
79(5) . . .
87(5) . . .
78(5) . . .
93(5) . . .
80(5) . . .
81(5) . . .
79(5) . . .
95(5) . . .
80(5) . . .
85(5) . . .
82(5) . . .
81(5) . . .
82(5) . . .
77(5) . . .
80(5) . . .
84(5) . . .
69(4) . . .
79(5) . . .
78(5) . . .
78(5) . . .
83(5) . . .
89(5) . . .
92(5) . . .
80(5) . . .
89(5) . . .
82(5) . . .
93(5) . . .
89(5) . . .
73(5) . . .
73(5) . . .
82(5) . . .
87(5) . . .
83(5) . . .
74(5) . . .
73(5) . . .
79(5) . . .
80(5) . . .
86(5) . . .
78(5) . . .
87(5) . . .
78(5) . . .
69(4) . . .
83(5) . . .
92(5) . . .
82(5) . . .
84(5) . . .
87(5) . . .
90(5) . . .
85(5) . . .
79(5) . . .
84(5) . . .
70(4) . . .
67(4) . . .
69(4) . . .
66(4) . . .
75(5) . . .
79(5) . . .
72(5) . . .
85(5) . . .
87(5) . . .
87(5) . . .
78(5) . . .
78(5) . . .
73(5) . . .
73(5) . . .
68(4) . . .
80(5) . . .
62(4) . . .
71(5) . . .
68(4) . . .
89(5) . . .
76(5) . . .
82(5) . . .
84(5) . . .
88(5) . . .
85(5) . . .
72(4) . . .
82(5) . . .
84(5) . . .
88(5) . . .
79(5) . . .
87(5) . . .
94(5) . . .
88(5) . . .
83(5) . . .
80(5) . . .
91(5) . . .
81(5) . . .
71(4) . . .
76(5) . . .
75(4) . . .
79(5) . . .
79(5) . . .
81(5) . . .
77(5) . . .
78(5) . . .
81(5) . . .
87(5) . . .
84(5) . . .
82(5) . . .
77(5) . . .
74(5) . . .
83(5) . . .
74(5) . . .
79(5) . . .
83(5) . . .
83(5) . . .
65(4) . . .
70(4) . . .
73(4) . . .
86(5) . . .
84(5) . . .
72(5) . . .
89(5) . . .
82(5) . . .
89(5) . . .
89(5) . . .
85(5) . . .
76(5) . . .
83(5) . . .
76(5) . . .
86(5) . . .
83(5) . . .
88(5) . . .
84(5) . . .
80(5) . . .
79(5) . . .
75(5) . . .
77(5) . . .
77(5) . . .
94(5) . . .
83(5) . . .
68(4) . . .
81(5) . . .
73(4) . . .
98(5) . . .
93(5) . . .
73(4) . . .
89(5) . . .
82(5) . . .
94(5) . . .
81(5) . . .
85(5) . . .
69(4) . . .
77(5) . . .
87(5) . . .
85(5) . . .
86(5) . . .
72(5) . . .
83(5) . . .
82(5) . . .
80(5) . . .
82(5) . . .
90(5) . . .
82(5) . . .
93(5) . . .
87(5) . . .
96(5) . . .
71(4) . . .
84(5) . . .
88(5) . . .
79(5) . . .
82(5) . . .
87(5) . . .
72(4) . . .
83(5) . . .
74(5) . . .
79(5) . . .
89(5) . . .
75(5) . . .
87(5) . . .
71(5) . . .
76(5) . . .
72(4) . . .
68(4) . . .
85(5) . . .
78(5) . . .
84(5) . . .
89(5) . . .
84(5) . . .
83(5) . . .
88(5) . . .
83(5) . . .
78(5) . . .
79(5) . . .
89(5) . . .
82(5) . . .
84(5) . . .
74(4) . . .
80(5) . . .
76(5) . . .
79(5) . . .
75(5) . . .
73(4) . . .
79(5) . . .
87(5) . . .
80(5) . . .
83(5) . . .
85(5) . . .
88(5) . . .
76(5) . . .
75(5) . . .
81(5) . . .
84(5) . . .
81(5) . . .
72(5) . . .
90(5) . . .
77(5) . . .
83(5) . . .
74(5) . . .
77(5) . . .
75(5) . . .
73(4) . . .
77(5) . . .
84(5) . . .
77(5) . . .
85(5) . . .
82(5) . . .
68(4) . . .
79(5) . . .
82(5) . . .
73(5) . . .
61(4) . . .
71(4) . . .
71(4) . . .
69(4) . . .
69(4) . . .
67(4) . . .
76(5) . . .
82(5) . . .
85(5) . . .
89(5) . . .
88(5) . . .
87(5) . . .
80(5) . . .
82(5) . . .
82(5) . . .
76(5) . . .
75(5) . . .
80(5) . . .
83(5) . . .
90(5) . . .
77(5) . . .
83(5) . . .
81(5) . . .
84(5) . . .
78(5) . . .
85(5) . . .
82(5) . . .
82(5) . . .
89(5) . . .
82(5) . . .
75(5) . . .
88(5) . . .
92(5) . . .
90(5) . . .
84(5) . . .
91(5) . . .
84(5) . . .
72(5) . . .
78(5) . . .
66(4) . . .
63(4) . . .
77(5) . . .
99(6) . . .
84(5) . . .
81(5) . . .
85(5) . . .
66(4) . . .
80(5) . . .
79(5) . . .
78(5) . . .
83(5) . . .
68(4) . . .
71(4) . . .
79(5) . . .
82(5) . . .
78(5) . . .
69(4) . . .
78(5) . . .
80(5) . . .
82(5) . . .
87(5) . . .
92(5) . . .
70(4) . . .
81(5) . . .
75(5) . . .
77(5) . . .
71(5) . . .
89(5) . . .
73(4) . . .
74(4) . . .
90(5) . . .
86(5) . . .
86(5) . . .
78(5) . . .
88(5) . . .
85(5) . . .
73(5) . . .
82(5) . . .
80(5) . . .
81(5) . . .
89(5) . . .
73(5) . . .
72(4) . . .
67(4) . . .
84(5) . . .
70(4) . . .
74(5) . . .
73(5) . . .
89(5) . . .
79(5) . . .
74(5) . . .
79(5) . . .
64(4) . . .
78(5) . . .
85(5) . . .
76(5) . . .
77(5) . . .
75(5) . . .
78(5) . . .
78(5) . . .
82(5) . . .
70(4) . . .
83(5) . . .
86(5) . . .
80(5) . . .
71(4) . . .
88(5) . . .
78(5) . . .
75(5) . . .
71(4) . . .
76(5) . . .
78(5) . . .
87(5) . . .
87(5) . . .
72(5) . . .
65(4) . . .
77(5) . . .
76(4) . . .
81(5) . . .
87(5) . . .
81(5) . . .
68(4) . . .
73(5) . . .
72(4) . . .
69(4) . . .
88(5) . . .
79(5) . . .
82(5) . . .
83(5) . . .
81(5) . . .
82(5) . . .
82(5) . . .
83(5) . . .
85(5) . . .
78(5) . . .
72(5) . . .
72(5) . . .
77(5) . . .
77(5) . . .
81(5) . . .
73(5) . . .
77(5) . . .
80(5) . . .
81(5) . . .
72(5) . . .
72(5) . . .
80(5) . . .
70(4) . . .
74(4) . . .
82(5) . . .
97(6) . . .
88(5) . . .
93(5) . . .
83(5) . . .
77(5) . . .
78(5) . . .
88(5) . . .
69(4) . . .
70(4) . . .
85(5) . . .
75(5) . . .
76(5) . . .
66(4) . . .
74(5) . . .
79(5) . . .
83(5) . . .
70(4) . . .
76(5) . . .
81(5) . . .
75(5) . . .
79(5) . . .
76(5) . . .
75(5) . . .
69(5) . . .
70(5) . . .
73(5) . . .
82(5) . . .
82(5) . . .
82(5) . . .
84(5) . . .
79(5) . . .
80(5) . . .
77(5) . . .
89(5) . . .
71(5) . . .
65(4) . . .
75(5) . . .
70(4) . . .
82(5) . . .
87(5) . . .
83(5) . . .
79(5) . . .
65(4) . . .
91(5) . . .
83(5) . . .
87(5) . . .
70(4) . . .
81(5) . . .
76(5) . . .
87(5) . . .
84(5) . . .
90(5) . . .
72(4) . . .
75(5) . . .
76(5) . . .
83(5) . . .
69(4) . . .
79(5) . . .
79(5) . . .
73(5) . . .
78(5) . . .
88(5) . . .
72(4) . . .
82(5) . . .
75(5) . . .
76(5) . . .
72(4) . . .
79(5) . . .
74(5) . . .
75(5) . . .
79(5) . . .
70(4) . . .
74(5) . . .
79(5) . . .
81(5) . . .
80(5) . . .
94(5) . . .
87(5) . . .
73(5) . . .
67(4) . . .
76(5) . . .
67(4) . . .
83(5) . . .
82(5) . . .
75(5) . . .
85(5) . . .
78(5) . . .
78(5) . . .
76(5) . . .
79(5) . . .
77(5) . . .
74(5) . . .
74(5) . . .
80(5) . . .
75(5) . . .
73(4) . . .
72(4) . . .
75(5) . . .
79(5) . . .
78(5) . . .
63(4) . . .
74(5) . . .
79(5) . . .
75(5) . . .
73(4) . . .
81(5) . . .
77(5) . . .
85(5) . . .
83(5) . . .
67(4) . . .
71(4) . . .
73(5) . . .
85(5) . . .
83(5) . . .
86(5) . . .
78(5) . . .
79(5) . . .
58(4) . . .
90(5) . . .
72(4) . . .
67(4) . . .
76(5) . . .
79(5) . . .
85(5) . . .
89(5) . . .
69(4) . . .
80(5) . . .
74(5) . . .
72(5) . . .
80(5) . . .
75(5) . . .
91(5) . . .
70(5) . . .
85(5) . . .
71(4) . . .
74(5) . . .
77(5) . . .
73(5) . . .
75(5) . . .
74(5) . . .
78(5) . . .
70(4) . . .
89(6) . . .
83(5) . . .
74(4) . . .
77(5) . . .
87(5) . . .
74(5) . . .
82(5) . . .
84(5) . . .
76(4) . . .
79(5) . . .
80(5) . . .
69(4) . . .
77(5) . . .
85(5) . . .
74(5) . . .
71(5) . . .
69(5) . . .
79(5) . . .
78(5) . . .
82(5) . . .
83(5) . . .
82(5) . . .
80(5) . . .
73(4) . . .
78(5) . . .
81(5) . . .
75(5) . . .
76(5) . . .
68(5) . . .
66(4) . . .
62(4) . . .
78(5) . . .
81(5) . . .
77(5) . . .
78(5) . . .
72(5) . . .
64(4) . . .
77(5) . . .
80(5) . . .
69(4) . . .
74(5) . . .
83(5) . . .
77(5) . . .
80(5) . . .
82(5) . . .
83(5) . . .
78(5) . . .
73(4) . . .
70(5) . . .
78(5) . . .
72(5) . . .
75(5) . . .
80(5) . . .
72(5) . . .
70(5) . . .
78(5) . . .
76(5) . . .
79(5) . . .
84(5) . . .
84(5) . . .
76(5) . . .
66(4) . . .
68(5) . . .
68(4) . . .
74(5) . . .
77(5) . . .
73(4) . . .
74(5) . . .
74(5) . . .
68(4) . . .
80(5) . . .
68(4) . . .
72(4) . . .
75(5) . . .
67(4) . . .
77(5) . . .
85(5) . . .
76(5) . . .
76(5) . . .
69(5) . . .
73(5) . . .
74(5) . . .
75(5) . . .
77(5) . . .
69(4) . . .
65(4) . . .
75(5) . . .
61(4) . . .
76(5) . . .
77(5) . . .
61(4) . . .
70(4) . . .
72(4) . . .
78(5) . . .
78(5) . . .
76(5) . . .
74(4) . . .
91(5) . . .
84(5) . . .
78(5) . . .
85(5) . . .
83(5) . . .
74(4) . . .
76(5) . . .
83(5) . . .
75(5) . . .
83(5) . . .
84(5) . . .
85(5) . . .
81(5) . . .
74(4) . . .
79(5) . . .
84(5) . . .
71(5) . . .
78(5) . . .
89(5) . . .
78(5) . . .
86(5) . . .
68(4) . . .
80(5) . . .
76(5) . . .
75(5) . . .
74(5) . . .
66(4) . . .
72(4) . . .
85(5) . . .
83(5) . . .
91(5) . . .
86(5) . . .
83(5) . . .
74(4) . . .
74(5) . . .
75(5) . . .
72(4) . . .
85(5) . . .
73(4) . . .
78(5) . . .
81(5) . . .
81(5) . . .
84(5) . . .
83(5) . . .
73(5) . . .
76(5) . . .
74(5) . . .
79(5) . . .
86(5) . . .
73(5) . . .
86(5) . . .
86(5) . . .
77(5) . . .
94(5) . . .
90(5) . . .
89(5) . . .
72(4) . . .
76(5) . . .
81(5) . . .
76(5) . . .
80(5) . . .
84(5) . . .
81(5) . . .
88(5) . . .
69(4) . . .
75(5) . . .
90(5) . . .
93(5) . . .
81(5) . . .
78(5) . . .
74(5) . . .
78(5) . . .
73(4) . . .
78(5) . . .
79(5) . . .
80(5) . . .
71(4) . . .
72(4) . . .
78(5) . . .
74(4) . . .
82(5) . . .
73(5) . . .
82(5) . . .
73(5) . . .
79(5) . . .
76(5) . . .
79(5) . . .
79(5) . . .
79(5) . . .
71(5) . . .
70(5) . . .
72(4) . . .
69(4) . . .
90(5) . . .
73(5) . . .
64(4) . . .
70(4) . . .
65(4) . . .
77(5) . . .
78(5) . . .
88(5) . . .
81(5) . . .
70(4) . . .
76(5) . . .
80(5) . . .
91(5) . . .
76(5) . . .
68(4) . . .
84(5) . . .
76(5) . . .
73(5) . . .
69(4) . . .
78(5) . . .
79(5) . . .
72(4) . . .
80(5) . . .
74(4) . . .
78(5) . . .
83(5) . . .
77(5) . . .
80(5) . . .
79(5) . . .
72(4) . . .
74(5) . . .
72(5) . . .
63(4) . . .
70(4) . . .
67(4) . . .
82(5) . . .
73(5) . . .
73(5) . . .
85(5) . . .
86(5) . . .
74(5) . . .
68(4) . . .
66(4) . . .
87(5) . . .
86(5) . . .
74(5) . . .
75(5) . . .
81(5) . . .
62(4) . . .
59(4) . . .
69(4) . . .
93(6) . . .
69(4) . . .
80(5) . . .
72(5) . . .
82(5) . . .
90(5) . . .
84(5) . . .
89(5) . . .
73(5) . . .
57(4) . . .
62(4) . . .
81(5) . . .
75(5) . . .
80(5) . . .
69(4) . . .
80(5) . . .
73(4) . . .
73(5) . . .
77(5) . . .
78(5) . . .
83(5) . . .
78(5) . . .
86(5) . . .
74(5) . . .
73(5) . . .
64(4) . . .
74(5) . . .
77(5) . . .
78(5) . . .
78(5) . . .
76(5) . . .
89(5) . . .
87(5) . . .
81(5) . . .
76(5) . . .
72(5) . . .
82(5) . . .
84(5) . . .
70(5) . . .
73(5) . . .
82(5) . . .
83(5) . . .
72(5) . . .
92(5) . . .
78(5) . . .
78(5) . . .
70(4) . . .
89(5) . . .
72(4) . . .
82(5) . . .
79(5) . . .
77(5) . . .
75(5) . . .
82(5) . . .
78(5) . . .
72(4) . . .
75(4) . . .
80(5) . . .
74(5) . . .
63(4) . . .
71(4) . . .
83(5) . . .
74(5) . . .
75(5) . . .
76(5) . . .
73(5) . . .
67(4) . . .
73(5) . . .
70(5) . . .
72(5) . . .
76(5) . . .
85(5) . . .
74(4) . . .
77(5) . . .
80(5) . . .
65(4) . . .
72(4) . . .
77(5) . . .
75(5) . . .
69(4) . . .
73(4) . . .
78(5) . . .
71(4) . . .
63(4) . . .
78(5) . . .
71(4) . . .
86(5) . . .
59(4) . . .
75(5) . . .
71(4) . . .
69(4) . . .
73(4) . . .
74(5) . . .
71(5) . . .
59(4) . . .
85(5) . . .
75(5) . . .
79(5) . . .
66(4) . . .
75(4) . . .
69(4) . . .
85(5) . . .
71(4) . . .
68(4) . . .
79(5) . . .
81(5) . . .
77(5) . . .
60(4) . . .
79(5) . . .
74(5) . . .
78(5) . . .
77(5) . . .
77(5) . . .
81(5) . . .
87(5) . . .
89(5) . . .
73(5) . . .
64(4) . . .
77(5) . . .
71(4) . . .
74(5) . . .
70(4) . . .
67(4) . . .
72(5) . . .
72(4) . . .
81(5) . . .
80(5) . . .
72(5) . . .
77(5) . . .
80(5) . . .
73(5) . . .
73(4) . . .
78(5) . . .
73(4) . . .
65(4) . . .
74(5) . . .
80(5) . . .
80(5) . . .
93(5) . . .
76(5) . . .
75(5) . . .
72(5) . . .
70(4) . . .
82(5) . . .
87(5) . . .
71(5) . . .
70(4) . . .
82(5) . . .
73(4) . . .
68(4) . . .
79(5) . . .
72(5) . . .
70(4) . . .
63(4) . . .
66(4) . . .
75(5) . . .
65(4) . . .
65(4) . . .
79(5) . . .
76(5) . . .
68(4) . . .
84(5) . . .
78(5) . . .
71(4) . . .
66(4) . . .
70(4) . . .
64(4) . . .
71(5) . . .
86(5) . . .
76(5) . . .
74(5) . . .
76(5) . . .
83(5) . . .
81(5) . . .
81(5) . . .
74(5) . . .
73(5) . . .
64(4) . . .
69(4) . . .
71(5) . . .
69(5) . . .
87(5) . . .
82(5) . . .
72(4) . . .
75(5) . . .
70(4) . . .
63(4) . . .
72(4) . . .
69(4) . . .
75(5) . . .
86(5) . . .
87(5) . . .
74(5) . . .
84(5) . . .
82(5) . . .
71(4) . . .
74(5) . . .
69(4) . . .
84(5) . . .
74(5) . . .
89(5) . . .
76(5) . . .
69(4) . . .
70(4) . . .
67(4) . . .
65(4) . . .
79(5) . . .
73(4) . . .
72(4) . . .
71(4) . . .
85(5) . . .
75(4) . . .
79(5) . . .
89(5) . . .
73(5) . . .
70(5) . . .
87(5) . . .
79(5) . . .
82(5) . . .
78(5) . . .
69(5) . . .
77(5) . . .
72(4) . . .
77(5) . . .
69(4) . . .
69(5) . . .
67(4) . . .
74(4) . . .
71(4) . . .
74(5) . . .
66(4) . . .
75(5) . . .
72(5) . . .
76(5) . . .
87(5) . . .
86(5) . . .
79(5) . . .
80(5) . . .
71(5) . . .
71(5) . . .
66(4) . . .
80(5) . . .
75(4) . . .
75(5) . . .
79(5) . . .
77(5) . . .
93(5) . . .
80(5) . . .
81(5) . . .
71(4) . . .
81(5) . . .
71(4) . . .
91(5) . . .
73(5) . . .
77(5) . . .
75(5) . . .
90(5) . . .
68(4) . . .
69(4) . . .
85(5) . . .
83(5) . . .
70(4) . . .
64(4) . . .
73(5) . . .
74(5) . . .
76(5) . . .
69(4) . . .
71(5) . . .
86(5) . . .
82(5) . . .
80(5) . . .
84(5) . . .
87(5) . . .
80(5) . . .
86(5) . . .
81(5) . . .
77(5) . . .
71(4) . . .
79(5) . . .
73(5) . . .
69(5) . . .
75(4) . . .
60(4) . . .
82(5) . . .
76(5) . . .
81(5) . . .
78(5) . . .
77(5) . . .
77(5) . . .
80(5) . . .
76(5) . . .
89(5) . . .
85(5) . . .
77(5) . . .
78(5) . . .
83(5) . . .
74(5) . . .
75(5) . . .
73(4) . . .
70(4) . . .
73(4) . . .
64(4) . . .
82(5) . . .
70(5) . . .
74(5) . . .
70(4) . . .
70(4) . . .
71(4) . . .
83(5) . . .
78(5) . . .
75(5) . . .
72(4) . . .
79(5) . . .
72(5) . . .
72(4) . . .
67(4) . . .
75(4) . . .
86(5) . . .
79(5) . . .
70(4) . . .
72(4) . . .
71(4) . . .
72(5) . . .
82(5) . . .
78(5) . . .
78(5) . . .
76(5) . . .
71(4) . . .
74(5) . . .
78(5) . . .
80(5) . . .
73(5) . . .
78(5) . . .
75(5) . . .
80(5) . . .
71(4) . . .
69(4) . . .
84(5) . . .
90(5) . . .
91(5) . . .
63(4) . . .
74(5) . . .
84(5) . . .
80(5) . . .
72(4) . . .
72(4) . . .
71(5) . . .
74(5) . . .
73(5) . . .
80(5) . . .
82(5) . . .
79(5) . . .
70(5) . . .
69(5) . . .
71(4) . . .
75(4) . . .
75(5) . . .
78(5) . . .
73(5) . . .
76(5) . . .
84(5) . . .
80(5) . . .
73(5) . . .
72(5) . . .
75(5) . . .
71(4) . . .
85(5) . . .
80(5) . . .
64(4) . . .
73(4) . . .
69(4) . . .
71(4) . . .
84(5) . . .
72(5) . . .
75(5) . . .
72(4) . . .
66(4) . . .
63(4) . . .
75(5) . . .
71(4) . . .
72(4) . . .
81(5) . . .
71(5) . . .
64(4) . . .
78(5) . . .
72(5) . . .
79(5) . . .
75(5) . . .
74(5) . . .
64(4) . . .
72(4) . . .
76(5) . . .
72(4) . . .
79(5) . . .
73(4) . . .
74(5) . . .
74(5) . . .
78(5) . . .
73(4) . . .
77(5) . . .
76(5) . . .
74(5) . . .
73(5) . . .
73(5) . . .
66(4) . . .
80(5) . . .
80(5) . . .
78(5) . . .
67(4) . . .
68(4) . . .
79(5) . . .
84(5) . . .
71(5) . . .
81(5) . . .
74(4) . . .
79(5) . . .
80(5) . . .
73(5) . . .
83(5) . . .
80(5) . . .
70(4) . . .
80(5) . . .
81(5) . . .
67(4) . . .
55(4) . . .
64(4) . . .
75(5) . . .
72(5) . . .
72(4) . . .
72(4) . . .
73(5) . . .
70(4) . . .
73(5) . . .
69(4) . . .
80(5) . . .
79(5) . . .
83(5) . . .
71(4) . . .
76(5) . . .
70(4) . . .
80(5) . . .
74(5) . . .
75(5) . . .
77(5) . . .
89(5) . . .
84(5) . . .
78(5) . . .
74(5) . . .
89(5) . . .
83(5) . . .
80(5) . . .
69(4) . . .
79(5) . . .
76(4) . . .
77(5) . . .
65(4) . . .
67(4) . . .
64(4) . . .
67(4) . . .
64(4) . . .
72(5) . . .
75(5) . . .
77(5) . . .
67(4) . . .
72(4) . . .
82(5) . . .
81(5) . . .
72(4) . . .
81(5) . . .
62(4) . . .
69(5) . . .
81(5) . . .
81(5) . . .
85(5) . . .
69(4) . . .
74(5) . . .
70(4) . . .
75(5) . . .
67(4) . . .
75(5) . . .
75(5) . . .
72(5) . . .
65(4) . . .
74(5) . . .
62(4) . . .
74(5) . . .
79(5) . . .
82(5) . . .
72(4) . . .
86(5) . . .
73(5) . . .
73(5) . . .
86(5) . . .
82(5) . . .
81(5) . . .
82(5) . . .
72(5) . . .
72(4) . . .
81(5) . . .
81(5) . . .
74(5) . . .
77(5) . . .
73(4) . . .
68(4) . . .
84(5) . . .
78(5) . . .
91(5) . . .
77(5) . . .
68(4) . . .
72(5) . . .
79(5) . . .
74(4) . . .
71(4) . . .
73(5) . . .
81(5) . . .
77(5) . . .
79(5) . . .
75(4) . . .
74(5) . . .
79(5) . . .
72(4) . . .
80(5) . . .
58(4) . . .
70(4) . . .
81(5) . . .
72(5) . . .
75(4) . . .
82(5) . . .
75(5) . . .
68(4) . . .
89(5) . . .
75(5) . . .
65(4) . . .
75(5) . . .
84(5) . . .
74(5) . . .
69(4) . . .
83(5) . . .
77(5) . . .
66(4) . . .
79(5) . . .
68(4) . . .
69(4) . . .
76(5) . . .
67(4) . . .
81(5) . . .
69(4) . . .
67(4) . . .
84(5) . . .
78(5) . . .
76(5) . . .
69(4) . . .
74(5) . . .
77(5) . . .
83(5) . . .
65(4) . . .
70(4) . . .
75(5) . . .
73(5) . . .
74(5) . . .
65(4) . . .
79(5) . . .
76(5) . . .
71(5) . . .
73(5) . . .
79(5) . . .
83(5) . . .
75(5) . . .
69(5) . . .
78(5) . . .
75(5) . . .
84(5) . . .
73(5) . . .
64(4) . . .
80(5) . . .
81(5) . . .
80(5) . . .
63(4) . . .
77(5) . . .
72(5) . . .
75(5) . . .
70(5) . . .
71(5) . . .
66(4) . . .
58(4) . . .
74(4) . . .
77(5) . . .
65(4) . . .
71(5) . . .
70(4) . . .
84(5) . . .
75(5) . . .
75(5) . . .
79(5) . . .
59(4) . . .
70(4) . . .
72(5) . . .
66(5) . . .
78(5) . . .
72(4) . . .
67(4) . . .
80(5) . . .
66(5) . . .
71(4) . . .
64(4) . . .
69(4) . . .
78(5) . . .
82(5) . . .
75(4) . . .
77(5) . . .
72(4) . . .
69(4) . . .
79(5) . . .
72(5) . . .
70(4) . . .
80(5) . . .
71(5) . . .
71(5) . . .
63(4) . . .
69(4) . . .
79(5) . . .
73(5) . . .
67(4) . . .
71(4) . . .
65(4) . . .
67(4) . . .
71(5) . . .
61(4) . . .
74(5) . . .
66(4) . . .
74(5) . . .
68(4) . . .
70(5) . . .
77(5) . . .
81(5) . . .
65(4) . . .
69(4) . . .
76(5) . . .
77(5) . . .
74(4) . . .
71(4) . . .
64(4) . . .
78(5) . . .
71(5) . . .
83(5) . . .
67(4) . . .
58(4) . . .
71(5) . . .
67(4) . . .
75(4) . . .
77(5) . . .
69(5) . . .
69(4) . . .
71(5) . . .
69(4) . . .
73(5) . . .
73(5) . . .
66(4) . . .
67(4) . . .
73(4) . . .
72(5) . . .
78(5) . . .
75(5) . . .
67(4) . . .
75(4) . . .
70(4) . . .
74(5) . . .
68(5) . . .
64(4) . . .
75(4) . . .
73(5) . . .
68(4) . . .
65(4) . . .
81(5) . . .
82(5) . . .
70(4) . . .
77(5) . . .
63(4) . . .
90(5) . . .
76(5) . . .
67(4) . . .
83(5) . . .
75(5) . . .
67(4) . . .
67(4) . . .
70(5) . . .
70(5) . . .
70(5) . . .
77(5) . . .
70(4) . . .
74(5) . . .
59(4) . . .
67(4) . . .
76(5) . . .
75(5) . . .
64(4) . . .
77(5) . . .
73(5) . . .
72(4) . . .
75(5) . . .
63(4) . . .
67(4) . . .
76(5) . . .
65(4) . . .
71(5) . . .
73(5) . . .
71(5) . . .
70(4) . . .
76(5) . . .
65(4) . . .
74(5) . . .
86(5) . . .
79(5) . . .
76(5) . . .
80(5) . . .
80(5) . . .
81(5) . . .
74(4) . . .
65(4) . . .
78(5) . . .
75(5) . . .
76(5) . . .
72(4) . . .
86(5) . . .
73(5) . . .
78(5) . . .
78(5) . . .
78(5) . . .
66(4) . . .
69(4) . . .
67(4) . . .
66(4) . . .
80(5) . . .
70(4) . . .
74(5) . . .
70(5) . . .
67(4) . . .
88(5) . . .
77(5) . . .
73(5) . . .
70(5) . . .
70(5) . . .
78(5) . . .
66(4) . . .
83(5) . . .
76(5) . . .
81(5) . . .
68(4) . . .
74(5) . . .
69(4) . . .
75(5) . . .
69(4) . . .
71(4) . . .
78(5) . . .
72(5) . . .
67(5) . . .
58(4) . . .
66(4) . . .
65(4) . . .
73(5) . . .
76(5) . . .
84(5) . . .
77(5) . . .
72(5) . . .
84(5) . . .
70(4) . . .
67(4) . . .
74(4) . . .
73(5) . . .
75(5) . . .
72(5) . . .
68(4) . . .
69(4) . . .
76(5) . . .
72(5) . . .
66(4) . . .
67(4) . . .
76(5) . . .
84(5) . . .
78(5) . . .
72(5) . . .
71(4) . . .
80(5) . . .
69(4) . . .
77(5) . . .
79(5) . . .
87(5) . . .
65(4) . . .
73(5) . . .
74(5) . . .
80(5) . . .
73(4) . . .
67(4) . . .
66(4) . . .
67(4) . . .
70(4) . . .
79(5) . . .
70(5) . . .
72(5) . . .
69(4) . . .
66(4) . . .
70(4) . . .
73(5) . . .
59(4) . . .
70(4) . . .
73(5) . . .
66(4) . . .
83(5) . . .
71(5) . . .
75(5) . . .
73(4) . . .
84(5) . . .
65(4) . . .
72(5) . . .
79(5) . . .
76(5) . . .
55(4) . . .
74(5) . . .
70(5) . . .
71(5) . . .
65(4) . . .
70(4) . . .
77(5) . . .
80(5) . . .
69(5) . . .
73(4) . . .
71(4) . . .
66(4) . . .
80(5) . . .
89(5) . . .
78(5) . . .
77(5) . . .
63(4) . . .
72(5) . . .
80(5) . . .
76(5) . . .
76(5) . . .
78(5) . . .
72(5) . . .
78(5) . . .
72(4) . . .
77(5) . . .
66(4) . . .
74(5) . . .
69(5) . . .
85(5) . . .
71(4) . . .
73(5) . . .
68(5) . . .
77(5) . . .
89(5) . . .
77(5) . . .
79(5) . . .
69(4) . . .
72(4) . . .
95(5) . . .
88(5) . . .
80(5) . . .
78(5) . . .
71(4) . . .
76(5) . . .
82(5) . . .
69(5) . . .
73(5) . . .
75(4) . . .
82(5) . . .
77(5) . . .
73(5) . . .
65(4) . . .
70(4) . . .
75(5) . . .
69(5) . . .
58(4) . . .
67(4) . . .
71(4) . . .
60(4) . . .
82(5) . . .
73(5) . . .
75(5) . . .
81(5) . . .
84(5) . . .
81(5) . . .
74(5) . . .
68(4) . . .
73(4) . . .
83(5) . . .
77(5) . . .
64(4) . . .
66(4) . . .
81(5) . . .
76(5) . . .
73(5) . . .
73(5) . . .
82(5) . . .
80(5) . . .
71(4) . . .
69(4) . . .
83(5) . . .
79(5) . . .
69(4) . . .
63(4) . . .
69(4) . . .
78(5) . . .
68(4) . . .
79(5) . . .
52(4) . . .
70(5) . . .
74(5) . . .
67(4) . . .
72(4) . . .
58(4) . . .
67(5) . . .
74(5) . . .
66(4) . . .
69(4) . . .
71(4) . . .
76(5) . . .
74(5) . . .
71(4) . . .
81(5) . . .
73(5) . . .
70(5) . . .
81(5) . . .
71(4) . . .
72(4) . . .
63(4) . . .
71(5) . . .
72(4) . . .
67(4) . . .
75(5) . . .
68(5) . . .
75(5) . . .
63(4) . . .
71(4) . . .
71(4) . . .
61(4) . . .
82(5) . . .
74(5) . . .
64(4) . . .
64(4) . . .
79(5) . . .
78(5) . . .
68(4) . . .
80(5) . . .
70(4) . . .
68(5) . . .
80(5) . . .
72(4) . . .
70(4) . . .
63(4) . . .
72(5) . . .
80(5) . . .
81(5) . . .
85(5) . . .
73(4) . . .
73(5) . . .
74(5) . . .
78(5) . . .
63(4) . . .
69(5) . . .
57(4) . . .
69(5) . . .
63(4) . . .
74(5) . . .
77(5) . . .
65(4) . . .
62(4) . . .
69(4) . . .
80(5) . . .
70(5) . . .
72(5) . . .
77(5) . . .
73(4) . . .
65(4) . . .
71(5) . . .
73(5) . . .
77(5) . . .
77(5) . . .
64(4) . . .
74(5) . . .
77(5) . . .
69(4) . . .
74(5) . . .
79(5) . . .
74(5) . . .
74(5) . . .
60(4) . . .
60(4) . . .
74(4) . . .
78(5) . . .
69(4) . . .
84(5) . . .
68(4) . . .
62(4) . . .
77(5) . . .
63(4) . . .
75(5) . . .
92(5) . . .
74(5) . . .
66(4) . . .
68(4) . . .
80(5) . . .
62(4) . . .
77(5) . . .
72(5) . . .
73(5) . . .
84(5) . . .
76(5) . . .
73(5) . . .
72(5) . . .
62(4) . . .
76(5) . . .
84(5) . . .
66(4) . . .
87(5) . . .
67(4) . . .
69(4) . . .
74(4) . . .
65(4) . . .
64(4) . . .
69(4) . . .
67(4) . . .
61(4) . . .
68(4) . . .
63(4) . . .
76(5) . . .
68(4) . . .
75(5) . . .
80(5) . . .
65(4) . . .
78(5) . . .
76(5) . . .
76(5) . . .
73(5) . . .
71(5) . . .
54(4) . . .
70(4) . . .
75(5) . . .
79(5) . . .
70(5) . . .
70(5) . . .
70(4) . . .
79(5) . . .
83(5) . . .
98(5) . . .
83(5) . . .
68(4) . . .
83(5) . . .
76(5) . . .
72(5) . . .
74(5) . . .
91(5) . . .
89(5) . . .
84(5) . . .
86(5) . . .
64(4) . . .
72(4) . . .
75(5) . . .
77(5) . . .
64(4) . . .
66(4) . . .
79(5) . . .
79(5) . . .
65(4) . . .
80(5) . . .
72(4) . . .
73(4) . . .
76(5) . . .
84(5) . . .
60(4) . . .
76(5) . . .
76(4) . . .
67(4) . . .
67(5) . . .
67(4) . . .
72(4) . . .
71(4) . . .
70(4) . . .
66(4) . . .
76(5) . . .
84(5) . . .
66(4) . . .
78(5) . . .
85(5) . . .
77(5) . . .
71(4) . . .
71(4) . . .
61(4) . . .
65(4) . . .
82(5) . . .
65(4) . . .
66(4) . . .
82(5) . . .
78(5) . . .
82(5) . . .
62(4) . . .
83(5) . . .
65(4) . . .
85(5) . . .
75(5) . . .
78(5) . . .
68(4) . . .
66(5) . . .
67(4) . . .
68(4) . . .
77(5) . . .
75(5) . . .
72(5) . . .
71(5) . . .
86(5) . . .
72(4) . . .
72(5) . . .
73(5) . . .
76(5) . . .
79(5) . . .
73(4) . . .
67(4) . . .
64(4) . . .
70(5) . . .
75(4) . . .
65(4) . . .
83(5) . . .
79(5) . . .
69(4) . . .
72(4) . . .
73(4) . . .
82(5) . . .
75(5) . . .
75(5) . . .
72(4) . . .
64(4) . . .
75(5) . . .
79(5) . . .
82(5) . . .
70(4) . . .
71(4) . . .
66(4) . . .
71(5) . . .
85(5) . . .
69(4) . . .
75(5) . . .
77(5) . . .
70(4) . . .
75(5) . . .
81(5) . . .
78(5) . . .
78(5) . . .
66(4) . . .
63(4) . . .
75(5) . . .
62(4) . . .
70(5) . . .
73(5) . . .
86(5) . . .
74(4) . . .
68(5) . . .
78(5) . . .
74(5) . . .
77(5) . . .
89(5) . . .
66(4) . . .
75(5) . . .
80(5) . . .
83(5) . . .
64(4) . . .
75(5) . . .
79(5) . . .
76(5) . . .
59(4) . . .
64(4) . . .
74(5) . . .
74(5) . . .
70(4) . . .
77(5) . . .
73(4) . . .
76(5) . . .
83(5) . . .
75(5) . . .
78(5) . . .
82(5) . . .
70(5) . . .
91(5) . . .
80(5) . . .
67(4) . . .
63(4) . . .
61(4) . . .
64(4) . . .
63(4) . . .
61(4) . . .
77(5) . . .
82(5) . . .
73(5) . . .
77(5) . . .
71(4) . . .
72(4) . . .
69(4) . . .
62(4) . . .
65(4) . . .
69(4) . . .
70(5) . . .
73(5) . . .
65(4) . . .
71(4) . . .
62(4) . . .
72(5) . . .
85(5) . . .
80(5) . . .
73(4) . . .
78(5) . . .
70(5) . . .
65(4) . . .
68(4) . . .
77(5) . . .
66(4) . . .
67(4) . . .
74(5) . . .
59(4) . . .
83(5) . . .
70(4) . . .
80(5) . . .
80(5) . . .
85(5) . . .
66(4) . . .
69(4) . . .
70(4) . . .
83(5) . . .
73(5) . . .
74(4) . . .
61(4) . . .
75(5) . . .
62(4) . . .
69(4) . . .
68(4) . . .
69(4) . . .
77(5) . . .
72(5) . . .
69(5) . . .
78(5) . . .
57(4) . . .
82(5) . . .
73(5) . . .
81(5) . . .
75(4) . . .
75(5) . . .
93(5) . . .
67(5) . . .
63(4) . . .
69(4) . . .
77(5) . . .
66(5) . . .
64(4) . . .
61(4) . . .
66(4) . . .
59(4) . . .
77(5) . . .
78(5) . . .
78(5) . . .
77(5) . . .
83(5) . . .
69(4) . . .
68(4) . . .
71(4) . . .
79(5) . . .
74(5) . . .
71(5) . . .
68(4) . . .
74(4) . . .
80(5) . . .
80(5) . . .
64(4) . . .
68(4) . . .
73(4) . . .
82(5) . . .
62(4) . . .
75(5) . . .
76(5) . . .
69(4) . . .
67(4) . . .
84(5) . . .
71(4) . . .
73(5) . . .
81(5) . . .
65(4) . . .
60(4) . . .
59(4) . . .
69(4) . . .
77(5) . . .
82(5) . . .
77(5) . . .
67(4) . . .
62(4) . . .
69(4) . . .
77(5) . . .
80(5) . . .
69(4) . . .
73(5) . . .
76(5) . . .
71(4) . . .
70(5) . . .
78(5) . . .
78(5) . . .
67(4) . . .
71(5) . . .
68(4) . . .
78(5) . . .
72(5) . . .
71(4) . . .
80(5) . . .
72(5) . . .
69(4) . . .
69(4) . . .
61(4) . . .
70(4) . . .
80(5) . . .
75(5) . . .
77(5) . . .
76(5) . . .
94(5) . . .
65(5) . . .
60(4) . . .
86(5) . . .
82(5) . . .
69(4) . . .
72(5) . . .
73(5) . . .
63(4) . . .
70(4) . . .
75(5) . . .
70(5) . . .
79(5) . . .
63(4) . . .
65(4) . . .
69(5) . . .
67(4) . . .
75(5) . . .
78(5) . . .
73(5) . . .
78(5) . . .
67(5) . . .
67(4) . . .
74(4) . . .
75(5) . . .
72(5) . . .
72(5) . . .
79(5) . . .
74(5) . . .
77(5) . . .
65(4) . . .
77(5) . . .
73(5) . . .
60(4) . . .
69(4) . . .
76(5) . . .
79(5) . . .
82(5) . . .
68(4) . . .
76(5) . . .
68(5) . . .
62(4) . . .
86(5) . . .
74(4) . . .
63(4) . . .
65(4) . . .
75(5) . . .
77(5) . . .
67(4) . . .
66(4) . . .
61(4) . . .
67(5) . . .
67(4) . . .
73(4) . . .
81(5) . . .
66(5) . . .
65(4) . . .
63(4) . . .
77(5) . . .
74(5) . . .
73(5) . . .
65(4) . . .
65(4) . . .
68(4) . . .
79(5) . . .
82(5) . . .
82(5) . . .
83(5) . . .
86(5) . . .
72(5) . . .
68(4) . . .
69(4) . . .
71(4) . . .
68(4) . . .
73(5) . . .
75(5) . . .
60(4) . . .
68(4) . . .
78(5) . . .
61(4) . . .
72(4) . . .
65(4) . . .
64(4) . . .
70(5) . . .
64(4) . . .
71(5) . . .
56(4) . . .
72(4) . . .
68(4) . . .
70(5) . . .
76(5) . . .
63(4) . . .
60(4) . . .
63(4) . . .
68(4) . . .
64(4) . . .
70(4) . . .
73(4) . . .
78(5) . . .
71(5) . . .
65(4) . . .
63(4) . . .
61(4) . . .
78(5) . . .
67(5) . . .
64(4) . . .
70(4) . . .
67(4) . . .
63(4) . . .
74(5) . . .
76(5) . . .
63(4) . . .
68(4) . . .
72(4) . . .
69(5) . . .
70(5) . . .
75(4) . . .
60(4) . . .
80(5) . . .
69(4) . . .
84(5) . . .
72(4) . . .
82(5) . . .
61(4) . . .
63(4) . . .
83(5) . . .
75(4) . . .
70(4) . . .
65(4) . . .
70(4) . . .
69(4) . . .
80(5) . . .
68(4) . . .
65(4) . . .
74(5) . . .
70(4) . . .
65(4) . . .
73(5) . . .
76(5) . . .
72(5) . . .
62(4) . . .
65(4) . . .
63(4) . . .
54(4) . . .
69(4) . . .
77(5) . . .
57(4) . . .
79(5) . . .
63(4) . . .
76(5) . . .
77(5) . . .
65(4) . . .
65(4) . . .
75(5) . . .
64(4) . . .
74(4) . . .
78(5) . . .
65(4) . . .
69(5) . . .
66(4) . . .
64(4) . . .
58(4) . . .
68(5) . . .
56(4) . . .
71(5) . . .
68(4) . . .
59(4) . . .
58(4) . . .
68(4) . . .
67(4) . . .
69(4) . . .
70(4) . . .
71(5) . . .
72(5) . . .
72(5) . . .
67(4) . . .
73(5) . . .
80(5) . . .
76(5) . . .
77(5) . . .
73(4) . . .
62(4) . . .
56(4) . . .
79(5) . . .
65(4) . . .
66(4) . . .
68(4) . . .
73(5) . . .
67(4) . . .
72(5) . . .
76(5) . . .
73(5) . . .
86(5) . . .
63(4) . . .
66(4) . . .
74(4) . . .
75(5) . . .
62(4) . . .
71(5) . . .
67(4) . . .
67(4) . . .
87(5) . . .
75(5) . . .
68(5) . . .
76(5) . . .
67(4) . . .
67(4) . . .
70(5) . . .
64(4) . . .
76(4) . . .
60(4) . . .
70(4) . . .
81(5) . . .
60(4) . . .
60(4) . . .
71(4) . . .
76(5) . . .
63(4) . . .
67(4) . . .
70(4) . . .
63(4) . . .
76(5) . . .
74(5) . . .
62(4) . . .
84(5) . . .
77(5) . . .
80(5) . . .
80(5) . . .
78(5) . . .
79(5) . . .
82(5) . . .
79(5) . . .
65(4) . . .
68(4) . . .
69(4) . . .
70(5) . . .
67(4) . . .
67(4) . . .
58(4) . . .
66(4) . . .
69(4) . . .
71(5) . . .
73(5) . . .
66(4) . . .
56(4) . . .
74(5) . . .
75(5) . . .
73(5) . . .
62(4) . . .
62(4) . . .
67(4) . . .
69(5) . . .
67(4) . . .
65(4) . . .
70(4) . . .
64(4) . . .
65(5) . . .
72(4) . . .
76(5) . . .
70(4) . . .
65(4) . . .
74(5) . . .
84(5) . . .
72(4) . . .
65(4) . . .
68(4) . . .
78(5) . . .
73(5) . . .
77(5) . . .
70(4) . . .
61(4) . . .
72(5) . . .
70(5) . . .
71(4) . . .
73(5) . . .
69(4) . . .
67(4) . . .
68(4) . . .
73(4) . . .
66(4) . . .
71(5) . . .
68(4) . . .
69(4) . . .
67(4) . . .
68(5) . . .
68(5) . . .
78(5) . . .
86(5) . . .
82(5) . . .
75(5) . . .
69(4) . . .
73(4) . . .
67(4) . . .
71(4) . . .
70(5) . . .
73(5) . . .
73(5) . . .
78(5) . . .
88(5) . . .
78(5) . . .
63(4) . . .
75(5) . . .
69(4) . . .
58(4) . . .
66(5) . . .
65(5) . . .
74(5) . . .
66(4) . . .
75(4) . . .
75(4) . . .
62(4) . . .
70(4) . . .
72(4) . . .
72(4) . . .
65(4) . . .
75(5) . . .
80(5) . . .
65(4) . . .
65(4) . . .
62(4) . . .
71(5) . . .
59(4) . . .
71(4) . . .
81(5) . . .
71(5) . . .
75(5) . . .
61(4) . . .
75(4) . . .
79(5) . . .
67(4) . . .
67(4) . . .
72(5) . . .
76(5) . . .
70(5) . . .
65(4) . . .
64(4) . . .
67(4) . . .
74(4) . . .
80(5) . . .
70(4) . . .
71(4) . . .
74(5) . . .
68(5) . . .
67(4) . . .
71(4) . . .
71(4) . . .
67(5) . . .
82(5) . . .
75(5) . . .
78(5) . . .
73(5) . . .
73(5) . . .
59(4) . . .
71(5) . . .
65(4) . . .
67(4) . . .
76(5) . . .
71(5) . . .
66(4) . . .
75(4) . . .
78(5) . . .
65(4) . . .
68(4) . . .
74(5) . . .
73(5) . . .
72(4) . . .
79(5) . . .
85(5) . . .
84(5) . . .
80(5) . . .
69(4) . . .
73(5) . . .
83(5) . . .
74(5) . . .
73(4) . . .
71(4) . . .
72(5) . . .
65(4) . . .
79(5) . . .
69(4) . . .
73(5) . . .
79(5) . . .
62(4) . . .
71(4) . . .
74(4) . . .
71(4) . . .
65(4) . . .
71(5) . . .
69(4) . . .
73(4) . . .
76(5) . . .
71(5) . . .
66(4) . . .
65(4) . . .
72(4) . . .
62(4) . . .
73(5) . . .
75(5) . . .
67(4) . . .
59(4) . . .
70(4) . . .
70(4) . . .
56(4) . . .
62(4) . . .
72(4) . . .
78(5) . . .
80(5) . . .
68(4) . . .
58(4) . . .
74(5) . . .
69(4) . . .
61(4) . . .
51(4) . . .
69(4) . . .
63(4) . . .
60(4) . . .
66(4) . . .
73(5) . . .
69(4) . . .
70(4) . . .
76(5) . . .
72(5) . . .
73(5) . . .
72(4) . . .
64(4) . . .
69(5) . . .
64(4) . . .
64(4) . . .
72(4) . . .
65(4) . . .
70(5) . . .
72(5) . . .
75(5) . . .
86(5) . . .
65(4) . . .
68(4) . . .
74(5) . . .
86(5) . . .
70(4) . . .
71(5) . . .
69(4) . . .
66(4) . . .
73(4) . . .
68(4) . . .
59(4) . . .
66(4) . . .
80(5) . . .
74(5) . . .
80(5) . . .
73(5) . . .
79(5) . . .
72(5) . . .
68(4) . . .
73(4) . . .
68(4) . . .
62(4) . . .
70(5) . . .
79(5) . . .
71(5) . . .
76(5) . . .
71(5) . . .
74(5) . . .
61(4) . . .
83(5) . . .
66(4) . . .
64(4) . . .
76(5) . . .
78(5) . . .
70(4) . . .
66(4) . . .
66(4) . . .
68(4) . . .
80(5) . . .
72(5) . . .
69(4) . . .
63(4) . . .
57(4) . . .
60(4) . . .
67(4) . . .
61(4) . . .
63(4) . . .
79(5) . . .
76(4) . . .
67(4) . . .
59(4) . . .
62(4) . . .
61(4) . . .
59(4) . . .
62(4) . . .
72(5) . . .
81(5) . . .
74(4) . . .
65(4) . . .
63(4) . . .
69(5) . . .
73(5) . . .
62(4) . . .
62(4) . . .
68(4) . . .
77(5) . . .
78(5) . . .
73(4) . . .
62(4) . . .
68(4) . . .
65(4) . . .
70(5) . . .
67(4) . . .
66(4) . . .
70(4) . . .
65(4) . . .
68(4) . . .
64(4) . . .
67(4) . . .
58(4) . . .
80(5) . . .
69(5) . . .
72(4) . . .
70(4) . . .
69(4) . . .
66(4) . . .
69(4) . . .
82(5) . . .
73(4) . . .
77(5) . . .
68(4) . . .
70(5) . . .
70(4) . . .
67(4) . . .
56(4) . . .
80(5) . . .
74(5) . . .
71(4) . . .
65(4) . . .
69(4) . . .
71(4) . . .
65(4) . . .
67(4) . . .
75(5) . . .
80(5) . . .
70(4) . . .
69(4) . . .
69(4) . . .
67(4) . . .
76(5) . . .
71(5) . . .
65(4) . . .
60(4) . . .
80(5) . . .
61(4) . . .
65(4) . . .
62(4) . . .
58(4) . . .
63(4) . . .
65(5) . . .
73(5) . . .
77(5) . . .
76(4) . . .
79(5) . . .
69(5) . . .
67(4) . . .
72(5) . . .
77(5) . . .
61(4) . . .
72(5) . . .
76(5) . . .
76(5) . . .
85(5) . . .
69(4) . . .
64(4) . . .
69(5) . . .
64(4) . . .
63(4) . . .
68(4) . . .
65(4) . . .
84(5) . . .
84(5) . . .
66(5) . . .
65(5) . . .
68(5) . . .
67(5) . . .
59(4) . . .
65(4) . . .
60(4) . . .
59(4) . . .
78(5) . . .
55(4) . . .
61(4) . . .
72(5) . . .
75(5) . . .
72(5) . . .
59(4) . . .
68(4) . . .
66(4) . . .
58(4) . . .
72(4) . . .
68(4) . . .
78(5) . . .
75(5) . . .
75(5) . . .
72(4) . . .
59(4) . . .
61(4) . . .
55(4) . . .
67(4) . . .
73(4) . . .
60(4) . . .
52(4) . . .
81(5) . . .
70(4) . . .
79(5) . . .
69(4) . . .
69(5) . . .
64(5) . . .
66(5) . . .
55(4) . . .
68(4) . . .
75(5) . . .
67(5) . . .
65(4) . . .
74(4) . . .
55(4) . . .
70(5) . . .
65(4) . . .
65(4) . . .
75(5) . . .
72(5) . . .
63(4) . . .
79(5) . . .
74(5) . . .
82(5) . . .
70(4) . . .
81(5) . . .
80(5) . . .
61(4) . . .
79(5) . . .
74(5) . . .
63(4) . . .
70(5) . . .
69(4) . . .
73(4) . . .
68(4) . . .
74(5) . . .
74(5) . . .
64(4) . . .
64(4) . . .
67(4) . . .
72(5) . . .
79(5) . . .
76(5) . . .
69(4) . . .
66(4) . . .
77(5) . . .
62(4) . . .
63(4) . . .
75(5) . . .
70(4) . . .
80(5) . . .
75(5) . . .
61(4) . . .
66(4) . . .
67(4) . . .
84(5) . . .
73(5) . . .
60(4) . . .
62(4) . . .
67(4) . . .
65(5) . . .
71(5) . . .
75(5) . . .
74(5) . . .
58(4) . . .
69(4) . . .
68(4) . . .
59(4) . . .
58(4) . . .
70(4) . . .
67(4) . . .
68(4) . . .
68(4) . . .
60(4) . . .
64(5) . . .
58(4) . . .
58(4) . . .
63(4) . . .
60(4) . . .
69(5) . . .
70(4) . . .
60(4) . . .
59(4) . . .
65(4) . . .
59(4) . . .
71(5) . . .
65(4) . . .
61(4) . . .
69(4) . . .
69(4) . . .
75(5) . . .
60(4) . . .
72(4) . . .
60(4) . . .
69(5) . . .
64(4) . . .
76(5) . . .
73(4) . . .
76(5) . . .
73(5) . . .
62(4) . . .
58(4) . . .
73(4) . . .
63(4) . . .
74(5) . . .
69(4) . . .
67(4) . . .
64(4) . . .
66(5) . . .
65(5) . . .
71(4) . . .
72(4) . . .
67(4) . . .
75(5) . . .
65(4) . . .
60(4) . . .
61(4) . . .
67(4) . . .
80(5) . . .
72(5) . . .
61(4) . . .
60(4) . . .
60(4) . . .
63(5) . . .
56(4) . . .
66(4) . . .
59(4) . . .
61(4) . . .
84(5) . . .
70(4) . . .
73(5) . . .
80(5) . . .
69(4) . . .
60(4) . . .
68(5) . . .
63(4) . . .
72(4) . . .
73(5) . . .
84(5) . . .
75(5) . . .
76(5) . . .
73(4) . . .
73(5) . . .
57(4) . . .
71(4) . . .
65(4) . . .
77(5) . . .
77(5) . . .
72(4) . . .
79(5) . . .
77(4) . . .
63(4) . . .
70(5) . . .
76(5) . . .
72(5) . . .
69(4) . . .
82(5) . . .
70(5) . . .
88(5) . . .
77(5) . . .
64(4) . . .
63(4) . . .
72(5) . . .
68(4) . . .
72(5) . . .
78(5) . . .
62(4) . . .
78(5) . . .
66(4) . . .
75(5) . . .
59(4) . . .
65(4) . . .
80(5) . . .
68(4) . . .
78(5) . . .
77(5) . . .
68(4) . . .
71(5) . . .
71(5) . . .
70(5) . . .
83(5) . . .
75(5) . . .
82(5) . . .
90(5) . . .
74(5) . . .
72(4) . . .
77(5) . . .
70(4) . . .
77(5) . . .
67(4) . . .
71(4) . . .
65(4) . . .
61(4) . . .
63(4) . . .
63(4) . . .
64(4) . . .
63(5) . . .
63(4) . . .
70(4) . . .
61(4) . . .
77(5) . . .
58(4) . . .
70(5) . . .
66(4) . . .
60(4) . . .
71(4) . . .
75(5) . . .
62(4) . . .
69(4) . . .
76(5) . . .
67(4) . . .
60(4) . . .
64(4) . . .
71(4) . . .
76(5) . . .
76(5) . . .
88(5) . . .
71(4) . . .
63(4) . . .
75(4) . . .
67(4) . . .
71(5) . . .
81(5) . . .
77(5) . . .
71(4) . . .
63(4) . . .
63(4) . . .
70(5) . . .
69(5) . . .
67(4) . . .
67(4) . . .
68(4) . . .
67(4) . . .
63(4) . . .
66(4) . . .
71(4) . . .
72(5) . . .
66(4) . . .
62(4) . . .
77(5) . . .
61(4) . . .
60(4) . . .
57(4) . . .
62(4) . . .
67(4) . . .
68(4) . . .
70(5) . . .
61(4) . . .
83(5) . . .
78(5) . . .
68(4) . . .
72(5) . . .
57(4) . . .
67(4) . . .
67(4) . . .
65(4) . . .
72(5) . . .
81(5) . . .
68(4) . . .
58(4) . . .
65(4) . . .
69(5) . . .
73(5) . . .
70(4) . . .
71(4) . . .
75(5) . . .
82(5) . . .
71(4) . . .
63(4) . . .
76(5) . . .
61(4) . . .
66(4) . . .
62(4) . . .
66(4) . . .
71(5) . . .
62(4) . . .
72(5) . . .
63(4) . . .
74(5) . . .
75(5) . . .
74(5) . . .
75(5) . . .
72(4) . . .
56(4) . . .
67(4) . . .
71(5) . . .
81(5) . . .
64(4) . . .
64(4) . . .
64(4) . . .
63(4) . . .
64(4) . . .
68(4) . . .
64(4) . . .
57(4) . . .
65(4) . . .
63(4) . . .
77(5) . . .
68(4) . . .
62(4) . . .
68(5) . . .
69(5) . . .
65(4) . . .
74(4) . . .
72(4) . . .
69(5) . . .
71(5) . . .
56(4) . . .
73(4) . . .
67(4) . . .
63(5) . . .
78(5) . . .
53(4) . . .
71(4) . . .
67(5) . . .
80(5) . . .
73(5) . . .
67(4) . . .
68(5) . . .
71(5) . . .
75(5) . . .
70(5) . . .
60(4) . . .
65(4) . . .
73(5) . . .
72(5) . . .
71(4) . . .
62(4) . . .
70(4) . . .
69(4) . . .
60(4) . . .
71(5) . . .
64(4) . . .
75(5) . . .
74(4) . . .
73(5) . . .
64(4) . . .
67(4) . . .
63(4) . . .
68(5) . . .
64(4) . . .
59(4) . . .
69(4) . . .
70(4) . . .
76(5) . . .
66(4) . . .
65(4) . . .
72(4) . . .
69(5) . . .
69(4) . . .
69(4) . . .
66(4) . . .
66(4) . . .
69(4) . . .
63(4) . . .
78(5) . . .
75(5) . . .
72(4) . . .
67(4) . . .
63(4) . . .
64(4) . . .
70(4) . . .
66(4) . . .
77(5) . . .
72(5) . . .
70(4) . . .
70(4) . . .
74(5) . . .
64(4) . . .
74(5) . . .
68(4) . . .
68(4) . . .
68(5) . . .
65(4) . . .
76(5) . . .
76(5) . . .
74(5) . . .
69(4) . . .
76(5) . . .
69(4) . . .
69(5) . . .
62(4) . . .
66(5) . . .
67(5) . . .
68(5) . . .
56(4) . . .
59(4) . . .
64(4) . . .
61(4) . . .
66(4) . . .
60(4) . . .
73(4) . . .
73(5) . . .
67(5) . . .
61(4) . . .
81(5) . . .
66(4) . . .
70(4) . . .
67(5) . . .
68(4) . . .
64(4) . . .
67(4) . . .
69(4) . . .
71(5) . . .
71(5) . . .
61(4) . . .
66(4) . . .
62(4) . . .
47(4) . . .
62(4) . . .
70(4) . . .
70(5) . . .
70(4) . . .
61(4) . . .
69(4) . . .
72(4) . . .
62(4) . . .
79(5) . . .
80(5) . . .
72(4) . . .
66(4) . . .
69(4) . . .
70(4) . . .
72(5) . . .
64(4) . . .
73(4) . . .
65(4) . . .
76(5) . . .
74(5) . . .
58(4) . . .
62(4) . . .
68(4) . . .
73(5) . . .
69(4) . . .
80(5) . . .
69(4) . . .
60(4) . . .
69(5) . . .
65(4) . . .
55(4) . . .
60(4) . . .
56(4) . . .
66(4) . . .
64(4) . . .
68(4) . . .
65(4) . . .
62(4) . . .
64(4) . . .
60(4) . . .
57(4) . . .
51(4) . . .
56(4) . . .
70(5) . . .
70(4) . . .
69(4) . . .
56(4) . . .
66(4) . . .
68(5) . . .
67(5) . . .
67(4) . . .
62(4) . . .
77(5) . . .
65(4) . . .
72(5) . . .
64(4) . . .
66(4) . . .
75(5) . . .
70(5) . . .
59(4) . . .
56(4) . . .
58(4) . . .
54(4) . . .
58(4) . . .
64(4) . . .
67(4) . . .
53(4) . . .
66(4) . . .
76(5) . . .
63(4) . . .
70(4) . . .
76(5) . . .
67(4) . . .
65(4) . . .
60(4) . . .
57(4) . . .
65(4) . . .
55(4) . . .
59(4) . . .
64(4) . . .
62(4) . . .
75(5) . . .
67(4) . . .
69(5) . . .
67(4) . . .
61(4) . . .
67(4) . . .
57(4) . . .
58(4) . . .
61(4) . . .
76(5) . . .
65(4) . . .
65(4) . . .
62(4) . . .
68(4) . . .
64(4) . . .
66(4) . . .
68(5) . . .
68(4) . . .
64(4) . . .
61(4) . . .
69(5) . . .
57(4) . . .
63(4) . . .
54(4) . . .
70(4) . . .
69(4) . . .
76(5) . . .
64(4) . . .
70(4) . . .
71(4) . . .
66(4) . . .
69(5) . . .
63(4) . . .
64(4) . . .
76(5) . . .
72(5) . . .
59(4) . . .
68(5) . . .
66(4) . . .
68(4) . . .
60(4) . . .
60(4) . . .
61(4) . . .
54(4) . . .
60(4) . . .
57(4) . . .
64(4) . . .
65(4) . . .
69(4) . . .
66(4) . . .
72(5) . . .
63(4) . . .
56(4) . . .
63(4) . . .
73(5) . . .
80(5) . . .
77(5) . . .
57(4) . . .
70(4) . . .
66(4) . . .
55(4) . . .
64(4) . . .
65(4) . . .
66(4) . . .
60(4) . . .
66(5) . . .
64(4) . . .
68(4) . . .
73(4) . . .
63(4) . . .
64(4) . . .
62(4) . . .
60(4) . . .
70(4) . . .
59(4) . . .
69(5) . . .
66(4) . . .
59(4) . . .
69(4) . . .
68(5) . . .
66(4) . . .
55(4) . . .
67(4) . . .
73(5) . . .
70(4) . . .
64(4) . . .
67(4) . . .
70(4) . . .
58(4) . . .
70(4) . . .
75(5) . . .
72(4) . . .
73(4) . . .
62(4) . . .
69(5) . . .
62(4) . . .
67(4) . . .
59(4) . . .
62(4) . . .
67(5) . . .
59(4) . . .
72(4) . . .
69(4) . . .
60(4) . . .
65(4) . . .
64(4) . . .
57(4) . . .
59(4) . . .
61(4) . . .
62(4) . . .
74(4) . . .
75(4) . . .
72(4) . . .
69(4) . . .
64(4) . . .
63(4) . . .
63(4) . . .
68(4) . . .
74(5) . . .
66(5) . . .
67(4) . . .
72(4) . . .
74(5) . . .
65(4) . . .
70(5) . . .
63(4) . . .
64(4) . . .
67(4) . . .
57(4) . . .
62(4) . . .
57(4) . . .
65(4) . . .
65(4) . . .
67(5) . . .
68(4) . . .
66(4) . . .
63(4) . . .
59(4) . . .
61(4) . . .
60(4) . . .
58(4) . . .
66(4) . . .
76(5) . . .
59(4) . . .
71(5) . . .
59(4) . . .
70(4) . . .
75(5) . . .
57(4) . . .
65(4) . . .
54(4) . . .
73(4) . . .
70(4) . . .
70(5) . . .
79(5) . . .
67(4) . . .
68(4) . . .
62(4) . . .
71(5) . . .
65(4) . . .
66(4) . . .
66(4) . . .
70(4) . . .
63(5) . . .
60(4) . . .
76(5) . . .
71(4) . . .
78(5) . . .
68(4) . . .
64(4) . . .
65(4) . . .
61(4) . . .
62(4) . . .
69(5) . . .
66(5) . . .
67(4) . . .
66(4) . . .
60(4) . . .
72(5) . . .
67(4) . . .
65(4) . . .
62(4) . . .
58(4) . . .
64(5) . . .
66(4) . . .
50(4) . . .
65(5) . . .
64(5) . . .
58(4) . . .
68(5) . . .
70(4) . . .
69(5) . . .
74(5) . . .
65(4) . . .
67(4) . . .
57(4) . . .
72(5) . . .
64(4) . . .
76(5) . . .
64(4) . . .
68(4) . . .
66(4) . . .
64(4) . . .
71(4) . . .
62(4) . . .
60(4) . . .
64(4) . . .
63(4) . . .
70(5) . . .
55(4) . . .
70(4) . . .
74(5) . . .
68(5) . . .
65(4) . . .
55(4) . . .
64(4) . . .
66(4) . . .
60(4) . . .
61(4) . . .
65(4) . . .
68(4) . . .
70(5) . . .
62(4) . . .
64(4) . . .
65(4) . . .
66(4) . . .
67(4) . . .
56(4) . . .
69(5) . . .
66(4) . . .
81(5) . . .
78(5) . . .
70(5) . . .
71(5) . . .
62(4) . . .
67(4) . . .
59(4) . . .
70(5) . . .
58(4) . . .
67(4) . . .
59(4) . . .
70(5) . . .
70(5) . . .
63(4) . . .
74(4) . . .
61(4) . . .
59(4) . . .
61(4) . . .
62(4) . . .
63(4) . . .
68(4) . . .
69(5) . . .
63(4) . . .
61(4) . . .
76(5) . . .
79(5) . . .
67(5) . . .
71(5) . . .
61(4) . . .
64(4) . . .
62(4) . . .
68(5) . . .
70(5) . . .
64(4) . . .
69(4) . . .
66(4) . . .
56(4) . . .
73(5) . . .
62(4) . . .
67(4) . . .
66(4) . . .
69(5) . . .
49(4) . . .
70(5) . . .
73(4) . . .
76(5) . . .
67(4) . . .
58(4) . . .
68(4) . . .
63(4) . . .
62(4) . . .
57(4) . . .
70(5) . . .
63(4) . . .
59(4) . . .
65(4) . . .
68(5) . . .
66(5) . . .
50(4) . . .
68(4) . . .
71(4) . . .
61(4) . . .
67(4) . . .
69(4) . . .
75(5) . . .
72(5) . . .
62(4) . . .
53(4) . . .
69(4) . . .
66(5) . . .
68(4) . . .
65(4) . . .
62(4) . . .
67(4) . . .
67(4) . . .
65(5) . . .
63(4) . . .
64(4) . . .
58(4) . . .
63(4) . . .
59(4) . . .
55(4) . . .
57(4) . . .
65(4) . . .
64(4) . . .
66(5) . . .
67(5) . . .
69(4) . . .
58(4) . . .
64(4) . . .
65(4) . . .
70(4) . . .
70(4) . . .
59(4) . . .
63(4) . . .
61(4) . . .
64(4) . . .
69(4) . . .
64(4) . . .
58(4) . . .
61(4) . . .
61(4) . . .
73(4) . . .
65(4) . . .
66(4) . . .
69(4) . . .
68(5) . . .
65(4) . . .
55(4) . . .
70(5) . . .
72(5) . . .
66(4) . . .
74(4) . . .
63(4) . . .
58(4) . . .
69(5) . . .
56(4) . . .
58(4) . . .
62(4) . . .
79(5) . . .
66(4) . . .
64(4) . . .
62(4) . . .
66(4) . . .
70(5) . . .
78(5) . . .
67(4) . . .
68(4) . . .
56(4) . . .
66(5) . . .
76(5) . . .
60(4) . . .
74(4) . . .
65(4) . . .
73(5) . . .
53(4) . . .
58(4) . . .
77(5) . . .
68(4) . . .
80(5) . . .
60(4) . . .
54(4) . . .
55(4) . . .
65(4) . . .
69(4) . . .
63(4) . . .
77(5) . . .
57(4) . . .
61(4) . . .
65(5) . . .
62(4) . . .
73(4) . . .
49(4) . . .
66(4) . . .
63(5) . . .
56(4) . . .
62(4) . . .
66(4) . . .
62(4) . . .
63(4) . . .
55(4) . . .
61(4) . . .
60(4) . . .
70(5) . . .
72(5) . . .
67(4) . . .
50(4) . . .
52(4) . . .
52(4) . . .
63(4) . . .
62(4) . . .
63(4) . . .
70(5) . . .
50(4) . . .
63(4) . . .
69(4) . . .
68(4) . . .
68(4) . . .
66(4) . . .
70(4) . . .
69(5) . . .
65(4) . . .
76(5) . . .
81(5) . . .
56(4) . . .
63(4) . . .
70(4) . . .
75(5) . . .
76(5) . . .
57(4) . . .
57(4) . . .
62(4) . . .
63(4) . . .
77(5) . . .
68(4) . . .
63(4) . . .
64(4) . . .
52(4) . . .
56(4) . . .
77(5) . . .
60(4) . . .
64(4) . . .
63(4) . . .
74(5) . . .
70(5) . . .
53(4) . . .
75(5) . . .
54(4) . . .
69(5) . . .
72(5) . . .
59(4) . . .
63(4) . . .
66(4) . . .
67(5) . . .
70(4) . . .
67(4) . . .
65(4) . . .
60(4) . . .
64(4) . . .
67(4) . . .
58(4) . . .
63(4) . . .
73(5) . . .
59(4) . . .
63(4) . . .
61(4) . . .
62(4) . . .
64(5) . . .
65(4) . . .
69(4) . . .
68(4) . . .
63(4) . . .
62(4) . . .
61(4) . . .
60(4) . . .
58(4) . . .
58(4) . . .
64(4) . . .
70(4) . . .
69(4) . . .
54(4) . . .
69(4) . . .
72(5) . . .
62(4) . . .
64(4) . . .
63(4) . . .
66(4) . . .
68(5) . . .
60(4) . . .
59(4) . . .
57(4) . . .
65(5) . . .
60(4) . . .
61(4) . . .
63(4) . . .
60(4) . . .
64(4) . . .
59(4) . . .
61(4) . . .
60(4) . . .
64(4) . . .
80(5) . . .
71(4) . . .
61(4) . . .
59(4) . . .
63(4) . . .
65(4) . . .
67(4) . . .
69(5) . . .
69(4) . . .
63(4) . . .
66(4) . . .
61(4) . . .
71(4) . . .
64(4) . . .
65(4) . . .
60(4) . . .
58(4) . . .
57(4) . . .
69(4) . . .
72(5) . . .
70(5) . . .
64(4) . . .
68(4) . . .
64(4) . . .
60(4) . . .
57(4) . . .
66(4) . . .
67(4) . . .
55(4) . . .
57(4) . . .
78(5) . . .
63(4) . . .
64(4) . . .
64(4) . . .
71(5) . . .
67(5) . . .
56(4) . . .
62(4) . . .
71(4) . . .
69(5) . . .
71(5) . . .
56(4) . . .
64(4) . . .
58(4) . . .
60(4) . . .
70(5) . . .
62(4) . . .
65(4) . . .
63(4) . . .
67(4) . . .
63(4) . . .
56(4) . . .
65(4) . . .
63(4) . . .
61(4) . . .
55(4) . . .
65(4) . . .
67(4) . . .
58(4) . . .
49(4) . . .
52(4) . . .
66(4) . . .
53(4) . . .
61(4) . . .
62(5) . . .
63(4) . . .
70(4) . . .
54(4) . . .
73(5) . . .
67(4) . . .
57(4) . . .
55(4) . . .
59(4) . . .
55(4) . . .
64(4) . . .
68(5) . . .
63(4) . . .
68(4) . . .
71(5) . . .
56(4) . . .
53(4) . . .
59(4) . . .
58(4) . . .
64(4) . . .
49(4) . . .
63(4) . . .
65(4) . . .
65(4) . . .
55(4) . . .
47(4) . . .
61(4) . . .
58(4) . . .
62(4) . . .
64(4) . . .
69(5) . . .
73(5) . . .
67(4) . . .
60(4) . . .
52(4) . . .
60(4) . . .
72(5) . . .
61(4) . . .
53(4) . . .
71(5) . . .
57(4) . . .
59(4) . . .
71(4) . . .
77(5) . . .
55(4) . . .
65(5) . . .
59(4) . . .
62(4) . . .
73(5) . . .
63(4) . . .
55(4) . . .
59(4) . . .
66(4) . . .
53(4) . . .
57(4) . . .
67(4) . . .
55(4) . . .
76(5) . . .
66(4) . . .
73(5) . . .
61(4) . . .
69(4) . . .
65(4) . . .
62(4) . . .
58(4) . . .
77(5) . . .
62(4) . . .
63(4) . . .
64(4) . . .
62(4) . . .
61(4) . . .
74(4) . . .
65(4) . . .
56(4) . . .
55(4) . . .
69(5) . . .
66(4) . . .
61(4) . . .
62(4) . . .
65(4) . . .
61(4) . . .
62(4) . . .
66(4) . . .
66(5) . . .
62(4) . . .
70(4) . . .
66(4) . . .
54(4) . . .
55(4) . . .
60(4) . . .
57(4) . . .
61(4) . . .
60(4) . . .
57(4) . . .
69(5) . . .
73(5) . . .
67(4) . . .
60(4) . . .
64(4) . . .
68(4) . . .
70(4) . . .
67(4) . . .
65(4) . . .
68(5) . . .
71(5) . . .
65(4) . . .
65(4) . . .
62(4) . . .
65(5) . . .
60(4) . . .
57(4) . . .
65(4) . . .
62(4) . . .
54(4) . . .
55(4) . . .
68(4) . . .
69(4) . . .
59(4) . . .
76(5) . . .
75(5) . . .
68(4) . . .
68(4) . . .
67(5) . . .
65(5) . . .
63(4) . . .
53(4) . . .
56(4) . . .
60(4) . . .
62(4) . . .
60(4) . . .
50(4) . . .
64(4) . . .
59(4) . . .
66(4) . . .
56(4) . . .
55(4) . . .
61(4) . . .
60(4) . . .
56(4) . . .
64(4) . . .
64(4) . . .
81(5) . . .
60(4) . . .
78(5) . . .
71(4) . . .
69(4) . . .
54(4) . . .
65(4) . . .
59(4) . . .
70(4) . . .
55(4) . . .
58(4) . . .
48(4) . . .
59(4) . . .
64(4) . . .
61(4) . . .
63(4) . . .
53(4) . . .
60(4) . . .
61(4) . . .
65(4) . . .
63(4) . . .
66(4) . . .
56(4) . . .
67(4) . . .
66(4) . . .
61(4) . . .
62(4) . . .
60(4) . . .
63(4) . . .
52(4) . . .
55(4) . . .
65(4) . . .
68(5) . . .
71(4) . . .
61(4) . . .
66(4) . . .
58(4) . . .
63(4) . . .
50(4) . . .
61(4) . . .
74(5) . . .
58(4) . . .
57(4) . . .
64(4) . . .
61(4) . . .
61(5) . . .
55(4) . . .
58(4) . . .
72(4) . . .
66(4) . . .
64(4) . . .
63(4) . . .
60(4) . . .
56(4) . . .
62(4) . . .
55(4) . . .
70(5) . . .
65(4) . . .
54(4) . . .
71(5) . . .
63(5) . . .
51(4) . . .
59(4) . . .
66(4) . . .
70(5) . . .
57(4) . . .
62(4) . . .
64(4) . . .
58(4) . . .
60(4) . . .
57(4) . . .
73(5) . . .
70(4) . . .
63(4) . . .
58(4) . . .
63(4) . . .
62(4) . . .
70(4) . . .
69(4) . . .
67(4) . . .
69(5) . . .
70(4) . . .
67(4) . . .
59(4) . . .
53(4) . . .
59(4) . . .
60(4) . . .
72(4) . . .
60(4) . . .
63(4) . . .
54(4) . . .
56(4) . . .
72(4) . . .
65(4) . . .
67(4) . . .
64(4) . . .
74(5) . . .
67(4) . . .
59(4) . . .
72(5) . . .
62(4) . . .
66(4) . . .
70(4) . . .
64(4) . . .
70(5) . . .
61(4) . . .
56(4) . . .
71(4) . . .
65(4) . . .
62(4) . . .
70(5) . . .
61(4) . . .
70(4) . . .
58(4) . . .
64(4) . . .
57(4) . . .
60(4) . . .
63(4) . . .
50(4) . . .
59(4) . . .
57(4) . . .
59(4) . . .
67(4) . . .
71(5) . . .
63(4) . . .
67(4) . . .
61(4) . . .
64(4) . . .
75(5) . . .
72(5) . . .
66(4) . . .
66(4) . . .
58(4) . . .
66(4) . . .
59(4) . . .
64(4) . . .
62(4) . . .
62(4) . . .
65(4) . . .
57(4) . . .
67(4) . . .
68(4) . . .
65(4) . . .
63(4) . . .
65(4) . . .
80(5) . . .
63(4) . . .
54(4) . . .
58(4) . . .
59(4) . . .
69(5) . . .
58(4) . . .
69(4) . . .
62(4) . . .
76(5) . . .
70(4) . . .
63(4) . . .
65(4) . . .
57(4) . . .
71(5) . . .
57(4) . . .
53(4) . . .
60(4) . . .
61(4) . . .
62(4) . . .
54(4) . . .
49(4) . . .
66(4) . . .
65(4) . . .
60(4) . . .
65(4) . . .
51(4) . . .
58(4) . . .
62(4) . . .
69(4) . . .
67(4) . . .
60(4) . . .
65(4) . . .
72(5) . . .
69(5) . . .
57(4) . . .
57(4) . . .
57(4) . . .
58(4) . . .
63(4) . . .
70(4) . . .
77(5) . . .
69(4) . . .
62(4) . . .
68(5) . . .
59(4) . . .
62(4) . . .
63(4) . . .
55(4) . . .
55(4) . . .
54(4) . . .
66(4) . . .
65(4) . . .
68(4) . . .
73(4) . . .
56(4) . . .
60(4) . . .
67(4) . . .
55(4) . . .
58(4) . . .
58(4) . . .
62(4) . . .
64(4) . . .
51(4) . . .
66(4) . . .
59(4) . . .
58(4) . . .
69(5) . . .
52(4) . . .
58(4) . . .
59(4) . . .
61(4) . . .
66(4) . . .
66(4) . . .
60(4) . . .
71(4) . . .
63(4) . . .
71(5) . . .
64(4) . . .
65(4) . . .
61(4) . . .
72(5) . . .
71(5) . . .
56(4) . . .
46(4) . . .
50(4) . . .
65(5) . . .
68(5) . . .
76(5) . . .
61(4) . . .
66(4) . . .
67(5) . . .
59(4) . . .
54(4) . . .
61(4) . . .
52(4) . . .
58(4) . . .
66(5) . . .
67(4) . . .
67(4) . . .
55(4) . . .
58(4) . . .
64(4) . . .
65(4) . . .
65(4) . . .
56(4) . . .
63(4) . . .
50(4) . . .
61(4) . . .
58(4) . . .
64(4) . . .
59(4) . . .
60(4) . . .
66(4) . . .
72(4) . . .
62(4) . . .
59(4) . . .
63(4) . . .
56(4) . . .
56(4) . . .
58(4) . . .
58(4) . . .
74(5) . . .
66(4) . . .
50(4) . . .
64(4) . . .
63(4) . . .
63(4) . . .
58(4) . . .
63(4) . . .
56(4) . . .
54(4) . . .
63(4) . . .
68(4) . . .
66(4) . . .
63(4) . . .
64(4) . . .
57(4) . . .
67(4) . . .
71(4) . . .
61(4) . . .
68(5) . . .
54(4) . . .
57(4) . . .
67(4) . . .
67(4) . . .
68(5) . . .
59(4) . . .
64(4) . . .
55(4) . . .
68(4) . . .
71(5) . . .
56(4) . . .
58(4) . . .
59(4) . . .
67(5) . . .
68(4) . . .
60(4) . . .
67(4) . . .
56(4) . . .
58(4) . . .
56(4) . . .
55(4) . . .
60(4) . . .
55(4) . . .
62(4) . . .
48(4) . . .
63(4) . . .
61(4) . . .
54(4) . . .
64(4) . . .
68(5) . . .
63(4) . . .
66(4) . . .
71(5) . . .
70(5) . . .
64(4) . . .
53(4) . . .
67(4) . . .
59(4) . . .
56(4) . . .
65(4) . . .
64(4) . . .
55(4) . . .
58(4) . . .
58(4) . . .
56(4) . . .
52(4) . . .
48(4) . . .
69(5) . . .
75(5) . . .
71(4) . . .
70(4) . . .
59(4) . . .
60(4) . . .
50(4) . . .
65(5) . . .
71(4) . . .
66(4) . . .
66(4) . . .
63(4) . . .
52(4) . . .
62(4) . . .
66(4) . . .
63(4) . . .
59(4) . . .
64(4) . . .
61(4) . . .
53(4) . . .
67(5) . . .
62(4) . . .
60(4) . . .
59(4) . . .
59(4) . . .
67(4) . . .
73(4) . . .
63(4) . . .
66(4) . . .
67(4) . . .
53(4) . . .
51(4) . . .
66(4) . . .
59(4) . . .
54(4) . . .
66(4) . . .
59(4) . . .
61(4) . . .
63(4) . . .
56(4) . . .
55(4) . . .
64(4) . . .
54(4) . . .
56(4) . . .
73(5) . . .
66(4) . . .
55(4) . . .
60(4) . . .
52(4) . . .
61(4) . . .
66(5) . . .
59(4) . . .
55(4) . . .
64(4) . . .
59(4) . . .
56(4) . . .
51(4) . . .
59(4) . . .
58(4) . . .
49(4) . . .
52(4) . . .
56(4) . . .
65(4) . . .
64(4) . . .
61(4) . . .
55(4) . . .
56(4) . . .
55(4) . . .
54(4) . . .
61(4) . . .
64(4) . . .
65(4) . . .
63(4) . . .
58(4) . . .
58(4) . . .
67(5) . . .
65(4) . . .
59(4) . . .
62(4) . . .
67(5) . . .
59(4) . . .
58(4) . . .
55(4) . . .
55(4) . . .
64(5) . . .
56(4) . . .
66(4) . . .
60(4) . . .
73(4) . . .
60(4) . . .
55(4) . . .
65(4) . . .
58(4) . . .
62(4) . . .
59(4) . . .
56(4) . . .
57(4) . . .
64(4) . . .
68(5) . . .
61(4) . . .
59(4) . . .
68(4) . . .
77(5) . . .
63(4) . . .
59(4) . . .
60(4) . . .
62(4) . . .
67(4) . . .
69(4) . . .
55(4) . . .
56(4) . . .
57(4) . . .
56(4) . . .
66(4) . . .
59(4) . . .
64(4) . . .
60(4) . . .
72(4) . . .
63(4) . . .
64(4) . . .
65(4) . . .
63(4) . . .
48(4) . . .
53(4) . . .
55(4) . . .
56(4) . . .
71(4) . . .
65(4) . . .
49(4) . . .
55(4) . . .
61(4) . . .
65(4) . . .
63(4) . . .
55(4) . . .
64(4) . . .
66(4) . . .
63(4) . . .
60(4) . . .
56(4) . . .
60(4) . . .
60(4) . . .
55(4) . . .
64(4) . . .
63(4) . . .
65(4) . . .
55(4) . . .
54(4) . . .
70(5) . . .
56(4) . . .
66(4) . . .
57(4) . . .
49(4) . . .
60(4) . . .
58(4) . . .
53(4) . . .
67(4) . . .
71(4) . . .
56(4) . . .
63(4) . . .
66(4) . . .
60(4) . . .
66(4) . . .
55(4) . . .
52(4) . . .
49(4) . . .
56(4) . . .
62(4) . . .
61(4) . . .
71(5) . . .
65(4) . . .
57(4) . . .
51(4) . . .
67(4) . . .
61(4) . . .
52(4) . . .
54(4) . . .
61(4) . . .
74(5) . . .
70(5) . . .
56(4) . . .
59(4) . . .
62(4) . . .
55(4) . . .
49(4) . . .
65(4) . . .
63(4) . . .
58(4) . . .
56(4) . . .
62(4) . . .
51(4) . . .
58(4) . . .
55(4) . . .
66(5) . . .
58(4) . . .
62(4) . . .
57(4) . . .
58(4) . . .
61(4) . . .
42.3(34) . . .
58(4) . . .
57(4) . . .
67(4) . . .
57(4) . . .
57(4) . . .
54(4) . . .
48(4) . . .
50(4) . . .
55(4) . . .
67(5) . . .
63(4) . . .
63(4) . . .
54(4) . . .
52(4) . . .
54(4) . . .
64(4) . . .
58(4) . . .
56(4) . . .
71(5) . . .
58(4) . . .
55(4) . . .
54(4) . . .
59(4) . . .
64(4) . . .
65(4) . . .
68(4) . . .
55(4) . . .
66(4) . . .
55(4) . . .
74(5) . . .
59(4) . . .
60(4) . . .
53(4) . . .
58(4) . . .
56(4) . . .
63(4) . . .
62(4) . . .
62(4) . . .
54(4) . . .
60(4) . . .
51(4) . . .
63(4) . . .
63(4) . . .
66(4) . . .
58(4) . . .
61(4) . . .
58(4) . . .
55(4) . . .
55(4) . . .
67(4) . . .
63(4) . . .
60(4) . . .
66(5) . . .
54(4) . . .
60(4) . . .
61(4) . . .
66(4) . . .
60(4) . . .
64(4) . . .
61(4) . . .
52(4) . . .
53(4) . . .
65(4) . . .
52(4) . . .
66(4) . . .
55(4) . . .
56(4) . . .
53(4) . . .
50(4) . . .
59(4) . . .
58(4) . . .
57(5) . . .
40.4(34) . . .
49(4) . . .
61(4) . . .
61(4) . . .
67(5) . . .
56(4) . . .
51(4) . . .
63(4) . . .
67(4) . . .
51(4) . . .
59(4) . . .
60(4) . . .
50(4) . . .
56(4) . . .
60(5) . . .
62(4) . . .
65(4) . . .
61(4) . . .
60(4) . . .
64(5) . . .
59(4) . . .
62(4) . . .
58(4) . . .
62(4) . . .
56(4) . . .
56(4) . . .
50(4) . . .
57(4) . . .
67(4) . . .
61(4) . . .
62(4) . . .
61(4) . . .
71(4) . . .
62(4) . . .
58(4) . . .
59(4) . . .
65(4) . . .
62(4) . . .
61(4) . . .
53(4) . . .
69(4) . . .
52(4) . . .
49(4) . . .
52(4) . . .
58(4) . . .
51(4) . . .
62(4) . . .
63(4) . . .
60(4) . . .
63(4) . . .
62(4) . . .
67(4) . . .
71(5) . . .
66(5) . . .
56(4) . . .
59(4) . . .
67(4) . . .
55(4) . . .
74(5) . . .
62(4) . . .
54(4) . . .
51(4) . . .
66(4) . . .
57(4) . . .
60(4) . . .
53(4) . . .
66(4) . . .
69(4) . . .
59(4) . . .
65(4) . . .
67(4) . . .
56(4) . . .
59(4) . . .
57(4) . . .
56(4) . . .
56(4) . . .
53(4) . . .
55(4) . . .
57(4) . . .
58(4) . . .
57(4) . . .
61(4) . . .
62(4) . . .
60(4) . . .
66(5) . . .
63(4) . . .
55(4) . . .
60(4) . . .
64(5) . . .
68(5) . . .
64(4) . . .
62(4) . . .
58(4) . . .
63(4) . . .
73(5) . . .
58(4) . . .
66(4) . . .
64(5) . . .
61(4) . . .
64(4) . . .
59(4) . . .
52(4) . . .
63(5) . . .
62(4) . . .
65(4) . . .
59(4) . . .
58(4) . . .
65(4) . . .
56(4) . . .
52(4) . . .
55(4) . . .
58(4) . . .
61(4) . . .
57(4) . . .
56(4) . . .
55(4) . . .
57(4) . . .
55(4) . . .
58(4) . . .
60(4) . . .
53(4) . . .
58(4) . . .
59(4) . . .
65(4) . . .
63(4) . . .
57(4) . . .
66(4) . . .
56(4) . . .
60(4) . . .
57(4) . . .
49(4) . . .
54(4) . . .
55(4) . . .
68(5) . . .
60(4) . . .
62(4) . . .
60(4) . . .
63(4) . . .
63(4) . . .
63(4) . . .
65(4) . . .
57(4) . . .
70(5) . . .
70(5) . . .
52(4) . . .
55(4) . . .
65(4) . . .
67(5) . . .
62(4) . . .
56(4) . . .
64(4) . . .
55(4) . . .
70(5) . . .
56(4) . . .
57(4) . . .
60(4) . . .
53(4) . . .
64(5) . . .
60(4) . . .
60(4) . . .
60(4) . . .
62(4) . . .
69(5) . . .
67(4) . . .
57(4) . . .
61(4) . . .
53(4) . . .
56(4) . . .
54(4) . . .
66(4) . . .
70(4) . . .
63(4) . . .
57(4) . . .
62(4) . . .
69(4) . . .
64(4) . . .
67(5) . . .
61(4) . . .
54(4) . . .
71(5) . . .
62(4) . . .
62(4) . . .
58(4) . . .
65(4) . . .
58(4) . . .
53(4) . . .
60(4) . . .
64(4) . . .
68(4) . . .
51(4) . . .
60(4) . . .
65(4) . . .
61(4) . . .
57(4) . . .
50(4) . . .
55(4) . . .
63(4) . . .
65(4) . . .
60(4) . . .
62(4) . . .
61(4) . . .
66(4) . . .
69(4) . . .
68(4) . . .
61(4) . . .
56(4) . . .
56(4) . . .
62(4) . . .
63(4) . . .
56(4) . . .
56(4) . . .
58(4) . . .
52(4) . . .
59(4) . . .
72(4) . . .
66(4) . . .
58(4) . . .
48(4) . . .
63(4) . . .
55(4) . . .
64(4) . . .
56(4) . . .
63(4) . . .
61(4) . . .
62(4) . . .
55(4) . . .
64(4) . . .
60(4) . . .
62(4) . . .
57(4) . . .
73(5) . . .
63(4) . . .
59(4) . . .
56(4) . . .
62(4) . . .
68(5) . . .
47(4) . . .
62(4) . . .
73(5) . . .
62(4) . . .
54(4) . . .
56(4) . . .
59(4) . . .
56(4) . . .
64(4) . . .
69(4) . . .
77(5) . . .
65(4) . . .
64(4) . . .
53(4) . . .
65(5) . . .
65(4) . . .
67(4) . . .
63(4) . . .
52(4) . . .
66(4) . . .
59(4) . . .
60(4) . . .
55(4) . . .
68(5) . . .
54(4) . . .
64(4) . . .
60(4) . . .
43.8(35) . . .
53(4) . . .
52(4) . . .
62(4) . . .
59(4) . . .
58(4) . . .
59(4) . . .
54(4) . . .
52(4) . . .
61(4) . . .
69(4) . . .
62(4) . . .
69(4) . . .
58(4) . . .
73(4) . . .
65(4) . . .
67(5) . . .
57(4) . . .
64(4) . . .
57(4) . . .
61(4) . . .
59(4) . . .
59(4) . . .
57(4) . . .
62(4) . . .
65(4) . . .
69(5) . . .
57(4) . . .
57(4) . . .
51(4) . . .
63(4) . . .
68(4) . . .
58(4) . . .
71(4) . . .
57(4) . . .
63(4) . . .
71(5) . . .
54(4) . . .
62(4) . . .
54(4) . . .
54(4) . . .
68(5) . . .
63(4) . . .
59(4) . . .
60(4) . . .
62(4) . . .
55(4) . . .
60(4) . . .
75(5) . . .
58(4) . . .
59(4) . . .
57(4) . . .
65(4) . . .
59(4) . . .
54(4) . . .
59(4) . . .
63(4) . . .
61(4) . . .
52(4) . . .
63(4) . . .
57(4) . . .
50(4) . . .
61(4) . . .
61(4) . . .
57(4) . . .
55(4) . . .
54(4) . . .
54(4) . . .
47(4) . . .
57(4) . . .
53(4) . . .
58(4) . . .
49(4) . . .
56(4) . . .
58(4) . . .
55(4) . . .
57(4) . . .
60(4) . . .
56(4) . . .
57(4) . . .
59(4) . . .
55(4) . . .
66(4) . . .
48(4) . . .
61(4) . . .
62(4) . . .
58(4) . . .
60(4) . . .
58(4) . . .
66(5) . . .
54(4) . . .
57(4) . . .
55(4) . . .
51(4) . . .
47(4) . . .
61(4) . . .
61(4) . . .
64(4) . . .
52(4) . . .
65(4) . . .
57(4) . . .
62(4) . . .
55(4) . . .
54(4) . . .
59(4) . . .
64(4) . . .
58(4) . . .
49(4) . . .
65(4) . . .
56(4) . . .
54(4) . . .
65(4) . . .
52(4) . . .
74(5) . . .
57(4) . . .
60(4) . . .
50(4) . . .
57(4) . . .
56(4) . . .
59(4) . . .
61(4) . . .
68(4) . . .
66(4) . . .
60(4) . . .
60(4) . . .
65(4) . . .
60(4) . . .
60(4) . . .
63(4) . . .
66(5) . . .
56(4) . . .
60(4) . . .
65(5) . . .
59(4) . . .
63(4) . . .
64(4) . . .
72(4) . . .
60(4) . . .
57(4) . . .
45.1(35) . . .
64(4) . . .
66(4) . . .
61(4) . . .
57(4) . . .
56(4) . . .
68(4) . . .
61(4) . . .
63(4) . . .
63(4) . . .
63(4) . . .
61(4) . . .
57(4) . . .
53(4) . . .
54(4) . . .
60(4) . . .
72(4) . . .
76(5) . . .
55(4) . . .
52(4) . . .
63(4) . . .
54(4) . . .
63(4) . . .
51(4) . . .
56(4) . . .
50(4) . . .
69(4) . . .
62(4) . . .
57(4) . . .
64(4) . . .
67(4) . . .
51(4) . . .
62(4) . . .
66(5) . . .
60(4) . . .
58(4) . . .
59(4) . . .
59(4) . . .
59(4) . . .
59(4) . . .
64(4) . . .
61(4) . . .
67(4) . . .
67(4) . . .
64(4) . . .
58(4) . . .
65(4) . . .
64(4) . . .
60(4) . . .
62(4) . . .
70(4) . . .
58(4) . . .
51(4) . . .
53(4) . . .
55(4) . . .
60(4) . . .
50(4) . . .
59(4) . . .
61(4) . . .
61(4) . . .
66(4) . . .
61(4) . . .
64(4) . . .
65(4) . . .
61(4) . . .
53(4) . . .
59(4) . . .
66(4) . . .
59(4) . . .
58(4) . . .
66(4) . . .
51(4) . . .
52(4) . . .
62(5) . . .
52(4) . . .
54(4) . . .
59(4) . . .
69(4) . . .
65(4) . . .
46(4) . . .
54(4) . . .
66(4) . . .
54(4) . . .
49(4) . . .
56(4) . . .
62(4) . . .
58(4) . . .
59(4) . . .
57(4) . . .
57(4) . . .
64(4) . . .
50(4) . . .
64(5) . . .
58(4) . . .
62(4) . . .
59(4) . . .
61(4) . . .
56(4) . . .
65(4) . . .
62(4) . . .
65(4) . . .
53(4) . . .
46(4) . . .
57(4) . . .
64(4) . . .
68(4) . . .
60(4) . . .
56(4) . . .
56(4) . . .
52(4) . . .
59(4) . . .
54(4) . . .
53(4) . . .
80(5) . . .
56(4) . . .
61(4) . . .
55(4) . . .
60(4) . . .
60(4) . . .
56(4) . . .
60(4) . . .
60(4) . . .
54(4) . . .
58(4) . . .
58(4) . . .
62(4) . . .
63(4) . . .
59(4) . . .
61(4) . . .
60(4) . . .
58(4) . . .
59(4) . . .
55(4) . . .
59(4) . . .
60(4) . . .
59(4) . . .
58(4) . . .
49(4) . . .
69(5) . . .
70(4) . . .
60(4) . . .
59(4) . . .
60(4) . . .
49(4) . . .
66(4) . . .
62(4) . . .
61(4) . . .
63(5) . . .
50(4) . . .
58(4) . . .
57(4) . . .
59(4) . . .
58(4) . . .
56(4) . . .
63(4) . . .
47(4) . . .
62(4) . . .
62(4) . . .
66(4) . . .
63(4) . . .
50(4) . . .
53(4) . . .
58(4) . . .
52(4) . . .
60(4) . . .
65(4) . . .
58(4) . . .
57(4) . . .
63(4) . . .
49(4) . . .
55(4) . . .
59(4) . . .
51(4) . . .
51(4) . . .
63(4) . . .
54(4) . . .
54(4) . . .
59(4) . . .
53(4) . . .
54(4) . . .
55(4) . . .
57(4) . . .
55(4) . . .
61(4) . . .
48(4) . . .
57(4) . . .
63(5) . . .
58(4) . . .
59(4) . . .
54(4) . . .
60(4) . . .
58(4) . . .
59(4) . . .
41.0(33) . . .
62(4) . . .
64(4) . . .
59(4) . . .
53(4) . . .
55(4) . . .
64(4) . . .
47(4) . . .
59(4) . . .
60(4) . . .
57(4) . . .
56(4) . . .
50(4) . . .
50(4) . . .
57(4) . . .
48(4) . . .
50(4) . . .
54(4) . . .
58(5) . . .
47(4) . . .
67(4) . . .
60(4) . . .
58(4) . . .
73(5) . . .
66(4) . . .
56(4) . . .
46(4) . . .
52(4) . . .
61(4) . . .
61(4) . . .
56(4) . . .
51(4) . . .
58(4) . . .
55(4) . . .
56(4) . . .
57(4) . . .
51(4) . . .
50(4) . . .
58(4) . . .
49(4) . . .
58(4) . . .
55(4) . . .
56(4) . . .
43.1(35) . . .
64(4) . . .
60(4) . . .
57(4) . . .
57(4) . . .
54(4) . . .
59(4) . . .
58(4) . . .
64(4) . . .
57(4) . . .
55(4) . . .
59(4) . . .
50(4) . . .
49(4) . . .
59(4) . . .
63(4) . . .
66(4) . . .
62(4) . . .
55(4) . . .
58(4) . . .
65(4) . . .
69(4) . . .
68(4) . . .
63(4) . . .
62(4) . . .
50(4) . . .
45.7(35) . . .
60(4) . . .
55(4) . . .
65(5) . . .
58(4) . . .
56(4) . . .
52(4) . . .
69(5) . . .
59(4) . . .
55(4) . . .
52(4) . . .
59(4) . . .
59(4) . . .
66(4) . . .
59(4) . . .
58(4) . . .
50(4) . . .
55(4) . . .
56(4) . . .
50(4) . . .
53(4) . . .
55(4) . . .
54(4) . . .
59(4) . . .
59(4) . . .
52(4) . . .
59(4) . . .
55(4) . . .
58(4) . . .
54(4) . . .
60(4) . . .
52(4) . . .
54(4) . . .
58(4) . . .
59(4) . . .
60(4) . . .
57(4) . . .
63(4) . . .
54(4) . . .
53(4) . . .
54(4) . . .
58(4) . . .
61(5) . . .
53(4) . . .
54(4) . . .
64(4) . . .
68(4) . . .
54(4) . . .
55(4) . . .
51(4) . . .
55(4) . . .
64(5) . . .
58(4) . . .
55(4) . . .
53(4) . . .
53(4) . . .
60(4) . . .
52(4) . . .
62(4) . . .
50(4) . . .
58(4) . . .
52(4) . . .
67(4) . . .
61(4) . . .
56(4) . . .
59(4) . . .
52(4) . . .
53(4) . . .
62(4) . . .
61(4) . . .
63(4) . . .
59(4) . . .
48(4) . . .
65(4) . . .
57(4) . . .
64(4) . . .
69(5) . . .
70(5) . . .
58(4) . . .
59(4) . . .
60(4) . . .
54(4) . . .
59(4) . . .
73(4) . . .
69(4) . . .
69(4) . . .
55(4) . . .
55(4) . . .
55(4) . . .
64(4) . . .
62(4) . . .
46(4) . . .
59(4) . . .
67(4) . . .
58(4) . . .
70(5) . . .
53(4) . . .
63(4) . . .
54(4) . . .
62(4) . . .
67(4) . . .
53(4) . . .
54(4) . . .
56(4) . . .
60(4) . . .
66(4) . . .
60(4) . . .
50(4) . . .
56(4) . . .
64(5) . . .
63(4) . . .
58(4) . . .
57(4) . . .
54(4) . . .
60(4) . . .
60(4) . . .
56(4) . . .
51(4) . . .
60(4) . . .
53(4) . . .
58(4) . . .
62(4) . . .
48(4) . . .
64(4) . . .
57(4) . . .
57(4) . . .
59(4) . . .
59(4) . . .
58(4) . . .
52(4) . . .
59(4) . . .
62(4) . . .
65(4) . . .
61(4) . . .
56(4) . . .
47(4) . . .
51(4) . . .
56(4) . . .
56(4) . . .
57(4) . . .
57(4) . . .
66(4) . . .
68(4) . . .
49(4) . . .
51(4) . . .
56(4) . . .
55(4) . . .
54(4) . . .
54(4) . . .
64(4) . . .
64(4) . . .
59(4) . . .
63(4) . . .
61(4) . . .
53(4) . . .
48(4) . . .
52(4) . . .
53(4) . . .
64(4) . . .
63(5) . . .
56(4) . . .
64(4) . . .
54(4) . . .
63(4) . . .
60(4) . . .
62(4) . . .
53(4) . . .
55(4) . . .
51(4) . . .
56(4) . . .
48(4) . . .
56(4) . . .
66(4) . . .
58(4) . . .
54(4) . . .
62(4) . . .
70(4) . . .
60(4) . . .
58(4) . . .
51(4) . . .
60(4) . . .
61(4) . . .
66(4) . . .
65(4) . . .
63(4) . . .
69(4) . . .
71(4) . . .
58(4) . . .
61(4) . . .
55(4) . . .
62(4) . . .
51(4) . . .
58(4) . . .
56(4) . . .
51(4) . . .
55(4) . . .
54(4) . . .
49(4) . . .
48(4) . . .
52(4) . . .
43.3(34) . . .
51(4) . . .
49(4) . . .
53(4) . . .
53(4) . . .
51(4) . . .
56(4) . . .
55(4) . . .
47(4) . . .
52(4) . . .
56(4) . . .
64(4) . . .
59(4) . . .
56(4) . . .
60(4) . . .
57(4) . . .
53(4) . . .
58(4) . . .
65(4) . . .
60(4) . . .
59(4) . . .
48(4) . . .
45(4) . . .
57(4) . . .
63(4) . . .
58(4) . . .
69(4) . . .
59(4) . . .
66(5) . . .
52(4) . . .
55(4) . . .
57(4) . . .
51(4) . . .
56(4) . . .
70(5) . . .
48(4) . . .
58(4) . . .
68(5) . . .
50(4) . . .
69(5) . . .
50(4) . . .
57(4) . . .
53(4) . . .
54(4) . . .
54(4) . . .
59(4) . . .
55(4) . . .
58(4) . . .
54(4) . . .
54(4) . . .
52(4) . . .
55(4) . . .
60(4) . . .
50(4) . . .
59(4) . . .
62(4) . . .
59(4) . . .
59(4) . . .
69(4) . . .
68(4) . . .
62(4) . . .
51(4) . . .
49(4) . . .
52(4) . . .
42.3(35) . . .
65(4) . . .
57(4) . . .
60(4) . . .
63(4) . . .
54(4) . . .
59(4) . . .
66(4) . . .
49(4) . . .
56(4) . . .
61(4) . . .
57(4) . . .
69(4) . . .
61(4) . . .
54(4) . . .
59(4) . . .
64(4) . . .
53(4) . . .
60(4) . . .
65(5) . . .
59(4) . . .
54(4) . . .
54(4) . . .
56(4) . . .
51(4) . . .
66(4) . . .
58(4) . . .
44(4) . . .
61(4) . . .
67(4) . . .
61(4) . . .
55(4) . . .
63(4) . . .
63(4) . . .
67(4) . . .
57(4) . . .
55(4) . . .
43.7(34) . . .
57(4) . . .
57(4) . . .
63(4) . . .
63(4) . . .
49(4) . . .
55(4) . . .
65(4) . . .
50(4) . . .
52(4) . . .
62(4) . . .
54(4) . . .
59(4) . . .
57(4) . . .
53(4) . . .
70(5) . . .
60(4) . . .
51(4) . . .
67(4) . . .
62(4) . . .
50(4) . . .
60(4) . . .
50(4) . . .
55(4) . . .
57(4) . . .
57(4) . . .
53(4) . . .
59(4) . . .
57(4) . . .
64(4) . . .
63(4) . . .
50(4) . . .
48(4) . . .
63(4) . . .
67(4) . . .
52(4) . . .
54(4) . . .
54(4) . . .
73(5) . . .
64(4) . . .
59(4) . . .
60(4) . . .
59(4) . . .
51(4) . . .
58(4) . . .
53(4) . . .
65(4) . . .
60(4) . . .
55(4) . . .
64(4) . . .
74(5) . . .
67(4) . . .
55(4) . . .
51(4) . . .
52(4) . . .
49(4) . . .
61(4) . . .
58(4) . . .
67(4) . . .
57(4) . . .
59(4) . . .
59(4) . . .
67(4) . . .
71(5) . . .
53(4) . . .
51(4) . . .
60(4) . . .
47(4) . . .
49(4) . . .
59(5) . . .
51(4) . . .
55(4) . . .
54(4) . . .
48(4) . . .
59(4) . . .
53(4) . . .
69(4) . . .
62(4) . . .
61(4) . . .
57(4) . . .
57(4) . . .
59(4) . . .
54(4) . . .
57(4) . . .
56(4) . . .
52(4) . . .
57(4) . . .
54(4) . . .
47(4) . . .
55(4) . . .
51(4) . . .
53(4) . . .
56(4) . . .
58(4) . . .
56(4) . . .
42.3(34) . . .
53(4) . . .
64(5) . . .
53(4) . . .
49(4) . . .
56(4) . . .
53(4) . . .
68(5) . . .
59(4) . . .
60(4) . . .
51(4) . . .
59(4) . . .
52(4) . . .
54(4) . . .
53(4) . . .
57(4) . . .
56(4) . . .
57(4) . . .
57(4) . . .
56(4) . . .
61(4) . . .
60(4) . . .
60(4) . . .
56(4) . . .
66(4) . . .
51(4) . . .
58(4) . . .
55(4) . . .
55(4) . . .
59(4) . . .
57(4) . . .
68(4) . . .
52(4) . . .
62(4) . . .
63(4) . . .
62(4) . . .
57(4) . . .
63(4) . . .
66(4) . . .
66(4) . . .
59(4) . . .
63(4) . . .
60(4) . . .
54(4) . . .
60(4) . . .
59(4) . . .
44.9(35) . . .
56(4) . . .
54(4) . . .
52(4) . . .
61(4) . . .
52(4) . . .
56(4) . . .
56(4) . . .
57(4) . . .
59(4) . . .
43.3(34) . . .
57(4) . . .
70(5) . . .
58(4) . . .
50(4) . . .
54(4) . . .
52(4) . . .
71(5) . . .
70(4) . . .
58(4) . . .
52(4) . . .
64(5) . . .
60(4) . . .
68(4) . . .
53(4) . . .
54(4) . . .
69(5) . . .
47(4) . . .
50(4) . . .
58(4) . . .
57(4) . . .
52(4) . . .
59(4) . . .
53(4) . . .
60(4) . . .
67(4) . . .
62(4) . . .
55(4) . . .
50(4) . . .
53(4) . . .
51(4) . . .
56(4) . . .
55(4) . . .
59(4) . . .
55(4) . . .
58(4) . . .
57(4) . . .
51(4) . . .
50(4) . . .
54(4) . . .
60(4) . . .
55(4) . . .
59(4) . . .
58(4) . . .
59(4) . . .
59(4) . . .
51(4) . . .
60(4) . . .
58(4) . . .
53(4) . . .
57(4) . . .
50(4) . . .
53(4) . . .
60(4) . . .
50(4) . . .
69(5) . . .
55(4) . . .
60(4) . . .
50(4) . . .
58(4) . . .
47(4) . . .
47(4) . . .
54(4) . . .
60(4) . . .
42.1(33) . . .
54(4) . . .
55(4) . . .
48(4) . . .
53(4) . . .
59(4) . . .
51(4) . . .
53(4) . . .
65(4) . . .
58(4) . . .
57(4) . . .
57(4) . . .
59(4) . . .
54(4) . . .
52(4) . . .
63(4) . . .
62(4) . . .
54(4) . . .
59(4) . . .
59(4) . . .
60(4) . . .
51(4) . . .
53(4) . . .
56(4) . . .
42.5(34) . . .
51(4) . . .
54(4) . . .
58(4) . . .
54(4) . . .
65(4) . . .
59(4) . . .
57(4) . . .
56(4) . . .
57(4) . . .
52(4) . . .
55(4) . . .
56(4) . . .
57(4) . . .
57(4) . . .
45(4) . . .
51(4) . . .
45(4) . . .
55(4) . . .
57(4) . . .
51(4) . . .
59(4) . . .
67(4) . . .
53(4) . . .
61(4) . . .
57(4) . . .
68(5) . . .
61(4) . . .
56(4) . . .
56(4) . . .
64(4) . . .
52(4) . . .
48(4) . . .
57(4) . . .
54(4) . . .
51(4) . . .
49(4) . . .
51(4) . . .
64(4) . . .
54(4) . . .
51(4) . . .
53(4) . . .
61(4) . . .
61(4) . . .
57(4) . . .
58(4) . . .
57(4) . . .
58(4) . . .
57(4) . . .
59(4) . . .
50(4) . . .
58(4) . . .
61(4) . . .
58(4) . . .
60(4) . . .
52(4) . . .
53(4) . . .
54(4) . . .
61(4) . . .
58(4) . . .
51(4) . . .
55(4) . . .
68(4) . . .
51(4) . . .
54(4) . . .
58(4) . . .
55(4) . . .
66(4) . . .
57(4) . . .
57(4) . . .
48(4) . . .
52(4) . . .
57(4) . . .
63(4) . . .
59(4) . . .
50(4) . . .
56(4) . . .
57(4) . . .
64(4) . . .
53(4) . . .
39.9(35) . . .
42.8(34) . . .
64(4) . . .
58(4) . . .
54(4) . . .
47(4) . . .
56(4) . . .
49(4) . . .
63(4) . . .
55(4) . . .
66(5) . . .
58(4) . . .
54(4) . . .
44.4(34) . . .
57(4) . . .
61(4) . . .
65(4) . . .
60(4) . . .
59(4) . . .
45(4) . . .
53(4) . . .
54(4) . . .
55(4) . . .
54(4) . . .
52(4) . . .
54(4) . . .
50(4) . . .
62(4) . . .
49(4) . . .
60(5) . . .
50(4) . . .
61(4) . . .
59(4) . . .
49(4) . . .
60(4) . . .
51(4) . . .
51(4) . . .
60(4) . . .
54(4) . . .
66(4) . . .
58(4) . . .
53(4) . . .
58(4) . . .
60(4) . . .
62(4) . . .
57(4) . . .
52(4) . . .
56(4) . . .
63(4) . . .
56(4) . . .
66(4) . . .
67(4) . . .
58(4) . . .
61(4) . . .
50(4) . . .
54(4) . . .
51(4) . . .
55(4) . . .
68(4) . . .
58(4) . . .
60(4) . . .
60(4) . . .
51(4) . . .
58(4) . . .
59(4) . . .
53(4) . . .
69(4) . . .
55(4) . . .
62(4) . . .
54(4) . . .
59(4) . . .
66(4) . . .
66(4) . . .
60(4) . . .
48(4) . . .
48(4) . . .
50(4) . . .
57(4) . . .
56(4) . . .
56(4) . . .
61(4) . . .
62(4) . . .
63(4) . . .
56(4) . . .
65(4) . . .
55(4) . . .
54(4) . . .
49(4) . . .
55(4) . . .
56(4) . . .
54(4) . . .
62(4) . . .
61(4) . . .
67(5) . . .
56(4) . . .
48(4) . . .
40.8(33) . . .
58(4) . . .
52(4) . . .
52(4) . . .
60(4) . . .
55(4) . . .
66(4) . . .
61(4) . . .
49(4) . . .
57(4) . . .
45(4) . . .
51(4) . . .
45(4) . . .
65(4) . . .
65(4) . . .
56(4) . . .
56(4) . . .
53(4) . . .
52(4) . . .
58(4) . . .
61(4) . . .
64(4) . . .
62(4) . . .
59(4) . . .
54(4) . . .
51(4) . . .
57(4) . . .
62(4) . . .
55(4) . . .
55(4) . . .
64(4) . . .
56(4) . . .
61(4) . . .
67(4) . . .
61(4) . . .
55(4) . . .
57(4) . . .
67(4) . . .
66(4) . . .
59(4) . . .
52(4) . . .
55(4) . . .
62(4) . . .
58(4) . . .
54(4) . . .
53(4) . . .
63(4) . . .
55(4) . . .
62(4) . . .
55(4) . . .
56(4) . . .
52(4) . . .
66(4) . . .
57(4) . . .
56(4) . . .
63(4) . . .
60(4) . . .
61(4) . . .
66(4) . . .
61(4) . . .
55(4) . . .
47(4) . . .
57(4) . . .
55(4) . . .
49(4) . . .
63(4) . . .
54(4) . . .
54(4) . . .
66(4) . . .
49(4) . . .
57(4) . . .
54(4) . . .
56(4) . . .
59(4) . . .
52(4) . . .
50(4) . . .
47(4) . . .
58(4) . . .
66(4) . . .
53(4) . . .
52(4) . . .
54(4) . . .
55(4) . . .
57(4) . . .
47(4) . . .
59(4) . . .
48(4) . . .
50(4) . . .
61(4) . . .
61(4) . . .
53(4) . . .
56(4) . . .
59(4) . . .
57(4) . . .
62(4) . . .
64(4) . . .
64(4) . . .
77(5) . . .
54(4) . . .
47(4) . . .
60(4) . . .
60(4) . . .
62(4) . . .
53(4) . . .
47(4) . . .
46(4) . . .
59(4) . . .
65(4) . . .
61(4) . . .
60(4) . . .
58(4) . . .
49(4) . . .
52(4) . . .
72(4) . . .
55(4) . . .
66(5) . . .
60(4) . . .
50(4) . . .
54(4) . . .
69(4) . . .
59(4) . . .
54(4) . . .
66(4) . . .
48(4) . . .
56(4) . . .
55(4) . . .
60(4) . . .
52(4) . . .
56(4) . . .
64(4) . . .
62(4) . . .
69(4) . . .
53(4) . . .
54(4) . . .
59(4) . . .
50(4) . . .
58(4) . . .
60(4) . . .
57(4) . . .
60(4) . . .
56(4) . . .
54(4) . . .
63(4) . . .
54(4) . . .
52(4) . . .
58(4) . . .
50(4) . . .
45.8(35) . . .
52(4) . . .
54(4) . . .
56(4) . . .
57(4) . . .
78(5) . . .
60(4) . . .
49(4) . . .
69(4) . . .
54(4) . . .
60(4) . . .
56(4) . . .
57(4) . . .
61(4) . . .
51(4) . . .
51(4) . . .
50(4) . . .
57(4) . . .
51(4) . . .
57(4) . . .
56(4) . . .
55(4) . . .
50(4) . . .
55(4) . . .
63(4) . . .
69(4) . . .
57(4) . . .
55(4) . . .
52(4) . . .
52(4) . . .
46.0(35) . . .
60(4) . . .
62(4) . . .
58(4) . . .
53(4) . . .
52(4) . . .
67(5) . . .
58(4) . . .
63(4) . . .
59(4) . . .
53(4) . . .
69(5) . . .
65(4) . . .
54(4) . . .
59(4) . . .
57(4) . . .
57(4) . . .
52(4) . . .
54(4) . . .
63(4) . . .
55(4) . . .
54(4) . . .
61(4) . . .
55(4) . . .
60(4) . . .
56(4) . . .
65(5) . . .
60(4) . . .
51(4) . . .
57(4) . . .
51(4) . . .
54(4) . . .
59(4) . . .
60(4) . . .
61(4) . . .
61(4) . . .
58(4) . . .
62(4) . . .
50(4) . . .
60(4) . . .
63(4) . . .
50(4) . . .
53(4) . . .
68(4) . . .
63(4) . . .
70(5) . . .
54(4) . . .
57(4) . . .
64(4) . . .
54(4) . . .
55(4) . . .
55(4) . . .
52(4) . . .
62(4) . . .
58(4) . . .
61(4) . . .
58(4) . . .
54(4) . . .
65(4) . . .
53(4) . . .
57(4) . . .
69(5) . . .
60(4) . . .
58(4) . . .
56(4) . . .
62(4) . . .
57(4) . . .
56(4) . . .
62(4) . . .
57(4) . . .
59(4) . . .
56(4) . . .
56(4) . . .
65(4) . . .
63(4) . . .
67(5) . . .
61(4) . . .
59(4) . . .
52(4) . . .
62(4) . . .
52(4) . . .
54(4) . . .
62(4) . . .
61(4) . . .
52(4) . . .
61(4) . . .
60(4) . . .
61(4) . . .
55(4) . . .
64(5) . . .
55(4) . . .
54(4) . . .
55(4) . . .
59(4) . . .
57(4) . . .
72(5) . . .
56(4) . . .
59(4) . . .
52(4) . . .
59(4) . . .
61(4) . . .
61(4) . . .
56(4) . . .
58(4) . . .
55(4) . . .
56(4) . . .
51(4) . . .
56(4) . . .
65(4) . . .
52(4) . . .
66(5) . . .
68(4) . . .
67(4) . . .
61(4) . . .
46(4) . . .
53(4) . . .
60(4) . . .
52(4) . . .
58(4) . . .
63(4) . . .
51(4) . . .
56(4) . . .
60(4) . . .
56(4) . . .
64(5) . . .
52(4) . . .
67(4) . . .
52(4) . . .
47(4) . . .
61(4) . . .
59(4) . . .
62(4) . . .
63(4) . . .
57(4) . . .
53(4) . . .
67(4) . . .
54(4) . . .
53(4) . . .
61(4) . . .
57(4) . . .
60(4) . . .
60(4) . . .
57(4) . . .
45(4) . . .
54(4) . . .
53(4) . . .
57(4) . . .
59(4) . . .
58(4) . . .
53(4) . . .
49(4) . . .
58(4) . . .
55(4) . . .
50(4) . . .
48(4) . . .
50(4) . . .
58(4) . . .
58(4) . . .
57(4) . . .
56(4) . . .
58(4) . . .
57(4) . . .
58(4) . . .
57(4) . . .
56(4) . . .
53(4) . . .
49(4) . . .
49(4) . . .
58(5) . . .
54(4) . . .
46(4) . . .
51(4) . . .
53(4) . . .
55(4) . . .
60(4) . . .
65(4) . . .
67(4) . . .
56(4) . . .
55(4) . . .
47(4) . . .
60(4) . . .
71(5) . . .
57(4) . . .
70(5) . . .
53(4) . . .
59(4) . . .
55(4) . . .
57(4) . . .
64(5) . . .
48(4) . . .
54(4) . . .
62(4) . . .
55(4) . . .
52(4) . . .
59(4) . . .
55(4) . . .
55(4) . . .
60(4) . . .
60(4) . . .
51(4) . . .
65(4) . . .
56(4) . . .
61(4) . . .
58(4) . . .
56(4) . . .
55(4) . . .
51(4) . . .
57(4) . . .
56(4) . . .
62(4) . . .
55(4) . . .
51(4) . . .
56(4) . . .
52(4) . . .
60(4) . . .
44.2(35) . . .
63(4) . . .
58(4) . . .
51(4) . . .
57(4) . . .
56(4) . . .
61(4) . . .
64(4) . . .
55(4) . . .
60(4) . . .
56(4) . . .
52(4) . . .
64(5) . . .
67(5) . . .
57(4) . . .
62(4) . . .
62(4) . . .
50(4) . . .
62(4) . . .
59(4) . . .
56(4) . . .
72(5) . . .
61(4) . . .
63(4) . . .
55(4) . . .
52(4) . . .
50(4) . . .
50(4) . . .
56(4) . . .
54(4) . . .
61(4) . . .
59(4) . . .
60(4) . . .
57(4) . . .
63(4) . . .
47(4) . . .
55(4) . . .
58(4) . . .
69(4) . . .
63(4) . . .
55(4) . . .
56(4) . . .
50(4) . . .
66(4) . . .
71(4) . . .
56(4) . . .
59(4) . . .
57(4) . . .
66(4) . . .
57(4) . . .
59(4) . . .
56(4) . . .
57(4) . . .
66(4) . . .
58(4) . . .
61(4) . . .
57(4) . . .
57(4) . . .
52(4) . . .
59(4) . . .
60(4) . . .
64(5) . . .
58(4) . . .
56(4) . . .
63(4) . . .
58(4) . . .
53(4) . . .
55(4) . . .
60(4) . . .
58(4) . . .
68(4) . . .
62(4) . . .
59(4) . . .
58(4) . . .
60(4) . . .
55(4) . . .
58(4) . . .
64(4) . . .
57(4) . . .
61(4) . . .
55(4) . . .
56(4) . . .
49(4) . . .
58(4) . . .
66(4) . . .
60(4) . . .
58(4) . . .
69(5) . . .
66(4) . . .
74(5) . . .
59(4) . . .
60(4) . . .
57(4) . . .
60(4) . . .
54(4) . . .
57(4) . . .
52(4) . . .
71(4) . . .
50(4) . . .
52(4) . . .
44(4) . . .
56(4) . . .
61(4) . . .
53(4) . . .
55(4) . . .
52(4) . . .
52(4) . . .
52(4) . . .
52(4) . . .
50(4) . . .
44(4) . . .
57(4) . . .
51(4) . . .
54(4) . . .
45(4) . . .
57(4) . . .
53(4) . . .
53(4) . . .
50(4) . . .
58(4) . . .
64(4) . . .
66(4) . . .
69(4) . . .
60(4) . . .
60(4) . . .
49(4) . . .
55(4) . . .
53(4) . . .
53(4) . . .
59(4) . . .
58(4) . . .
56(4) . . .
53(4) . . .
65(4) . . .
59(4) . . .
50(4) . . .
53(4) . . .
62(4) . . .
58(4) . . .
59(4) . . .
62(4) . . .
47(4) . . .
55(4) . . .
70(5) . . .
55(4) . . .
47(4) . . .
55(4) . . .
55(4) . . .
52(4) . . .
58(4) . . .
53(4) . . .
57(4) . . .
62(4) . . .
60(4) . . .
68(5) . . .
52(4) . . .
55(4) . . .
63(4) . . .
67(4) . . .
54(4) . . .
60(4) . . .
52(4) . . .
51(4) . . .
56(4) . . .
50(4) . . .
59(4) . . .
54(4) . . .
54(4) . . .
56(4) . . .
55(4) . . .
61(4) . . .
58(4) . . .
49(4) . . .
57(4) . . .
56(4) . . .
65(4) . . .
55(4) . . .
56(4) . . .
46.4(35) . . .
56(4) . . .
58(4) . . .
61(4) . . .
60(4) . . .
46(4) . . .
54(4) . . .
48(4) . . .
50(4) . . .
44(4) . . .
54(4) . . .
62(4) . . .
61(4) . . .
54(4) . . .
58(4) . . .
60(4) . . .
58(4) . . .
57(4) . . .
59(4) . . .
43(4) . . .
55(4) . . .
56(4) . . .
51(4) . . .
52(4) . . .
58(4) . . .
65(5) . . .
56(4) . . .
61(4) . . .
55(4) . . .
58(4) . . .
51(4) . . .
54(4) . . .
61(4) . . .
64(4) . . .
39.9(33) . . .
50(4) . . .
58(4) . . .
59(4) . . .
58(4) . . .
61(4) . . .
55(4) . . .
49(4) . . .
54(4) . . .
56(4) . . .
62(4) . . .
51(4) . . .
56(4) . . .
61(4) . . .
46(4) . . .
62(4) . . .
55(4) . . .
55(4) . . .
50(4) . . .
58(4) . . .
56(4) . . .
67(5) . . .
55(4) . . .
61(4) . . .
55(4) . . .
53(4) . . .
54(4) . . .
56(4) . . .
53(4) . . .
62(4) . . .
61(4) . . .
57(4) . . .
57(4) . . .
59(4) . . .
54(4) . . .
61(4) . . .
63(4) . . .
53(4) . . .
50(4) . . .
61(4) . . .
57(4) . . .
65(5) . . .
58(4) . . .
63(4) . . .
54(4) . . .
46(4) . . .
57(4) . . .
62(4) . . .
57(4) . . .
53(4) . . .
59(4) . . .
54(4) . . .
56(4) . . .
53(4) . . .
58(4) . . .
52(4) . . .
62(4) . . .
57(4) . . .
55(4) . . .
52(4) . . .
58(4) . . .
58(4) . . .
58(4) . . .
50(4) . . .
59(4) . . .
56(4) . . .
45(4) . . .
46.0(35) . . .
58(4) . . .
56(4) . . .
53(4) . . .
50(4) . . .
56(4) . . .
54(4) . . .
60(4) . . .
53(4) . . .
56(4) . . .
57(4) . . .
54(4) . . .
55(4) . . .
58(4) . . .
65(4) . . .
48(4) . . .
58(4) . . .
51(4) . . .
53(4) . . .
59(4) . . .
61(4) . . .
48(4) . . .
63(4) . . .
57(4) . . .
47(4) . . .
56(4) . . .
44(4) . . .
52(4) . . .
52(4) . . .
63(4) . . .
53(4) . . .
51(4) . . .
65(5) . . .
54(4) . . .
59(4) . . .
55(4) . . .
55(4) . . .
58(4) . . .
59(4) . . .
66(4) . . .
60(4) . . .
46.0(35) . . .
62(5) . . .
63(4) . . .
56(4) . . .
53(4) . . .
59(4) . . .
57(4) . . .
57(4) . . .
53(4) . . .
59(4) . . .
57(4) . . .
58(4) . . .
54(4) . . .
52(4) . . .
59(4) . . .
69(5) . . .
69(5) . . .
52(4) . . .
65(4) . . .
49(4) . . .
60(4) . . .
56(4) . . .
52(4) . . .
50(4) . . .
60(4) . . .
62(4) . . .
53(4) . . .
56(4) . . .
61(4) . . .
50(4) . . .
51(4) . . .
48(4) . . .
57(4) . . .
53(4) . . .
59(4) . . .
47(4) . . .
57(4) . . .
55(4) . . .
61(4) . . .
62(4) . . .
64(5) . . .
64(4) . . .
57(4) . . .
51(4) . . .
57(4) . . .
61(5) . . .
53(4) . . .
56(4) . . .
61(4) . . .
57(4) . . .
61(4) . . .
58(4) . . .
57(4) . . .
53(4) . . .
59(4) . . .
54(4) . . .
52(4) . . .
50(4) . . .
64(4) . . .
61(4) . . .
59(4) . . .
62(4) . . .
61(4) . . .
52(4) . . .
55(4) . . .
52(4) . . .
44(4) . . .
50(4) . . .
59(4) . . .
62(4) . . .
64(4) . . .
54(4) . . .
68(4) . . .
60(4) . . .
67(4) . . .
59(4) . . .
55(4) . . .
52(4) . . .
54(4) . . .
59(4) . . .
52(4) . . .
56(4) . . .
68(4) . . .
53(4) . . .
58(4) . . .
57(4) . . .
62(4) . . .
67(4) . . .
53(4) . . .
52(4) . . .
59(4) . . .
52(4) . . .
58(4) . . .
57(4) . . .
63(5) . . .
57(4) . . .
66(4) . . .
46(4) . . .
53(4) . . .
60(4) . . .
60(4) . . .
56(4) . . .
58(4) . . .
64(4) . . .
52(4) . . .
53(4) . . .
56(4) . . .
56(4) . . .
66(5) . . .
64(4) . . .
61(4) . . .
57(4) . . .
63(4) . . .
70(5) . . .
57(4) . . .
51(4) . . .
47(4) . . .
60(4) . . .
61(4) . . .
65(4) . . .
64(4) . . .
56(4) . . .
53(4) . . .
56(4) . . .
66(4) . . .
47(4) . . .
63(4) . . .
59(4) . . .
55(4) . . .
57(4) . . .
57(4) . . .
55(4) . . .
55(4) . . .
48(4) . . .
51(4) . . .
56(4) . . .
52(4) . . .
55(4) . . .
64(4) . . .
67(4) . . .
51(4) . . .
55(4) . . .
59(4) . . .
55(4) . . .
57(4) . . .
54(4) . . .
57(4) . . .
55(4) . . .
57(4) . . .
63(4) . . .
59(4) . . .
60(4) . . .
68(4) . . .
63(5) . . .
52(4) . . .
52(4) . . .
65(4) . . .
53(4) . . .
58(4) . . .
55(4) . . .
65(4) . . .
59(4) . . .
62(4) . . .
50(4) . . .
48(4) . . .
65(4) . . .
66(4) . . .
64(4) . . .
52(4) . . .
63(4) . . .
56(4) . . .
55(4) . . .
56(4) . . .
54(4) . . .
50(4) . . .
70(4) . . .
49(4) . . .
53(4) . . .
57(4) . . .
56(4) . . .
61(4) . . .
62(4) . . .
55(4) . . .
49(4) . . .
54(4) . . .
63(4) . . .
62(4) . . .
60(4) . . .
59(4) . . .
69(4) . . .
62(4) . . .
57(4) . . .
53(4) . . .
61(4) . . .
58(4) . . .
51(4) . . .
57(4) . . .
54(4) . . .
55(4) . . .
59(4) . . .
48(4) . . .
53(4) . . .
57(4) . . .
50(4) . . .
51(4) . . .
58(4) . . .
55(4) . . .
59(4) . . .
64(4) . . .
52(4) . . .
59(4) . . .
53(4) . . .
47(4) . . .
49(4) . . .
62(4) . . .
58(4) . . .
55(4) . . .
52(4) . . .
70(4) . . .
50(4) . . .
54(4) . . .
49(4) . . .
52(4) . . .
54(4) . . .
51(4) . . .
56(4) . . .
61(4) . . .
63(4) . . .
56(4) . . .
54(4) . . .
52(4) . . .
46(4) . . .
46(4) . . .
60(4) . . .
54(4) . . .
60(4) . . .
64(4) . . .
62(4) . . .
51(4) . . .
56(4) . . .
52(4) . . .
69(5) . . .
68(4) . . .
58(4) . . .
61(4) . . .
64(4) . . .
51(4) . . .
54(4) . . .
62(4) . . .
49(4) . . .
53(4) . . .
55(4) . . .
42.7(34) . . .
56(4) . . .
50(4) . . .
54(4) . . .
62(4) . . .
51(4) . . .
51(4) . . .
54(4) . . .
57(4) . . .
63(4) . . .
53(4) . . .
61(4) . . .
53(4) . . .
59(4) . . .
62(4) . . .
70(5) . . .
56(4) . . .
53(4) . . .
57(4) . . .
56(4) . . .
48(4) . . .
41.9(34) . . .
52(4) . . .
49(4) . . .
60(4) . . .
54(4) . . .
58(4) . . .
62(4) . . .
60(4) . . .
57(4) . . .
56(4) . . .
55(4) . . .
66(5) . . .
57(4) . . .
54(4) . . .
60(4) . . .
51(4) . . .
51(4) . . .
55(4) . . .
48(4) . . .
46(4) . . .
56(4) . . .
50(4) . . .
51(4) . . .
61(4) . . .
62(4) . . .
56(4) . . .
69(5) . . .
56(4) . . .
61(4) . . .
50(4) . . .
51(4) . . .
67(4) . . .
70(5) . . .
57(4) . . .
65(4) . . .
63(4) . . .
65(4) . . .
47(4) . . .
60(4) . . .
52(4) . . .
59(4) . . .
47(4) . . .
50(4) . . .
62(4) . . .
59(4) . . .
46(4) . . .
50(4) . . .
54(4) . . .
54(4) . . .
58(4) . . .
52(4) . . .
56(4) . . .
53(4) . . .
62(4) . . .
62(4) . . .
56(4) . . .
58(4) . . .
57(4) . . .
53(4) . . .
41.3(34) . . .
48(4) . . .
50(4) . . .
53(4) . . .
64(4) . . .
48(4) . . .
56(4) . . .
55(4) . . .
66(5) . . .
56(4) . . .
58(4) . . .
48(4) . . .
52(4) . . .
62(4) . . .
65(4) . . .
51(4) . . .
56(4) . . .
57(4) . . .
57(4) . . .
49(4) . . .
65(4) . . .
56(4) . . .
54(4) . . .
51(4) . . .
54(4) . . .
48(4) . . .
53(4) . . .
64(4) . . .
51(4) . . .
69(4) . . .
57(4) . . .
60(4) . . .
71(5) . . .
57(4) . . .
63(4) . . .
59(4) . . .
51(4) . . .
54(4) . . .
62(4) . . .
53(4) . . .
55(4) . . .
60(4) . . .
52(4) . . .
53(4) . . .
54(4) . . .
57(4) . . .
56(4) . . .
62(4) . . .
55(4) . . .
56(4) . . .
54(4) . . .
62(4) . . .
63(4) . . .
53(4) . . .
62(4) . . .
56(4) . . .
48(4) . . .
63(4) . . .
58(4) . . .
51(4) . . .
61(4) . . .
42(4) . . .
47(4) . . .
52(4) . . .
59(4) . . .
54(4) . . .
63(5) . . .
52(4) . . .
64(4) . . .
56(4) . . .
58(4) . . .
54(4) . . .
45(4) . . .
44.5(34) . . .
49(4) . . .
53(4) . . .
55(4) . . .
48(4) . . .
63(4) . . .
61(4) . . .
53(4) . . .
53(4) . . .
63(5) . . .
60(4) . . .
53(4) . . .
57(4) . . .
53(4) . . .
55(4) . . .
55(4) . . .
55(4) . . .
56(4) . . .
64(4) . . .
58(4) . . .
52(4) . . .
47(4) . . .
52(4) . . .
55(4) . . .
62(4) . . .
67(4) . . .
46(4) . . .
61(4) . . .
67(5) . . .
57(4) . . .
52(4) . . .
46(4) . . .
64(5) . . .
57(4) . . .
57(4) . . .
55(4) . . .
57(4) . . .
62(4) . . .
43.7(33) . . .
49(4) . . .
60(4) . . .
55(4) . . .
53(4) . . .
50(4) . . .
51(4) . . .
54(4) . . .
52(4) . . .
50(4) . . .
61(4) . . .
61(4) . . .
53(4) . . .
66(4) . . .
54(4) . . .
58(4) . . .
63(4) . . .
55(4) . . .
54(4) . . .
69(5) . . .
56(4) . . .
63(4) . . .
65(4) . . .
56(4) . . .
52(4) . . .
59(4) . . .
48(4) . . .
43.5(35) . . .
49(4) . . .
57(4) . . .
54(4) . . .
55(4) . . .
57(4) . . .
60(4) . . .
59(4) . . .
64(5) . . .
50(4) . . .
56(4) . . .
61(4) . . .
65(4) . . .
53(4) . . .
62(4) . . .
49(4) . . .
52(4) . . .
56(4) . . .
57(4) . . .
52(4) . . .
56(4) . . .
60(4) . . .
45.8(35) . . .
48(4) . . .
61(4) . . .
48(4) . . .
53(4) . . .
63(4) . . .
49(4) . . .
50(4) . . .
58(4) . . .
47(4) . . .
55(4) . . .
53(4) . . .
61(4) . . .
63(4) . . .
59(4) . . .
49(4) . . .
46(4) . . .
46(4) . . .
59(4) . . .
52(4) . . .
61(4) . . .
46(4) . . .
63(4) . . .
57(4) . . .
53(4) . . .
55(4) . . .
62(4) . . .
52(4) . . .
58(4) . . .
68(4) . . .
60(4) . . .
56(4) . . .
48(4) . . .
53(4) . . .
55(4) . . .
58(4) . . .
57(4) . . .
55(4) . . .
49(4) . . .
56(4) . . .
57(4) . . .
64(4) . . .
47(4) . . .
51(4) . . .
56(4) . . .
59(4) . . .
67(4) . . .
53(4) . . .
59(4) . . .
59(4) . . .
60(4) . . .
65(4) . . .
49(4) . . .
65(5) . . .
44.3(35) . . .
45.4(35) . . .
57(4) . . .
47(4) . . .
44(4) . . .
49(4) . . .
54(4) . . .
54(4) . . .
53(4) . . .
48(4) . . .
66(4) . . .
53(4) . . .
50(4) . . .
55(4) . . .
65(4) . . .
55(4) . . .
58(4) . . .
60(4) . . .
67(4) . . .
61(4) . . .
57(4) . . .
53(4) . . .
63(4) . . .
68(4) . . .
58(4) . . .
61(4) . . .
63(4) . . .
63(4) . . .
57(4) . . .
57(4) . . .
58(4) . . .
58(4) . . .
64(4) . . .
59(4) . . .
64(4) . . .
62(4) . . .
52(4) . . .
53(4) . . .
51(4) . . .
62(4) . . .
58(4) . . .
59(4) . . .
53(4) . . .
53(4) . . .
64(4) . . .
67(4) . . .
52(4) . . .
56(4) . . .
58(4) . . .
56(4) . . .
59(4) . . .
63(4) . . .
60(4) . . .
58(4) . . .
53(4) . . .
49(4) . . .
50(4) . . .
45(4) . . .
46(4) . . .
57(4) . . .
72(4) . . .
53(4) . . .
54(4) . . .
54(4) . . .
55(4) . . .
71(4) . . .
56(4) . . .
42.3(35) . . .
55(4) . . .
59(4) . . .
56(4) . . .
50(4) . . .
56(4) . . .
49(4) . . .
62(4) . . .
65(4) . . .
62(4) . . .
51(4) . . .
55(4) . . .
54(4) . . .
56(4) . . .
57(4) . . .
53(4) . . .
52(4) . . .
56(4) . . .
52(4) . . .
54(4) . . .
60(4) . . .
59(4) . . .
54(4) . . .
53(4) . . .
62(4) . . .
58(4) . . .
59(4) . . .
57(4) . . .
53(4) . . .
57(4) . . .
64(5) . . .
57(4) . . .
58(4) . . .
63(4) . . .
64(4) . . .
60(4) . . .
46(4) . . .
52(4) . . .
52(4) . . .
50(4) . . .
49(4) . . .
47(4) . . .
57(4) . . .
58(4) . . .
64(5) . . .
51(4) . . .
64(5) . . .
61(4) . . .
59(4) . . .
57(4) . . .
53(4) . . .
57(4) . . .
47(4) . . .
54(4) . . .
50(4) . . .
52(4) . . .
55(4) . . .
59(4) . . .
61(4) . . .
54(4) . . .
64(4) . . .
50(4) . . .
43.3(34) . . .
55(4) . . .
57(4) . . .
56(4) . . .
59(4) . . .
52(4) . . .
51(4) . . .
54(4) . . .
47(4) . . .
60(4) . . .
55(4) . . .
63(4) . . .
52(4) . . .
68(5) . . .
49(4) . . .
61(4) . . .
53(4) . . .
50(4) . . .
59(4) . . .
58(4) . . .
50(4) . . .
54(4) . . .
63(4) . . .
46(4) . . .
59(4) . . .
57(4) . . .
61(4) . . .
50(4) . . .
58(4) . . .
55(4) . . .
52(4) . . .
60(4) . . .
62(4) . . .
57(4) . . .
55(4) . . .
53(4) . . .
57(4) . . .
52(4) . . .
55(4) . . .
56(4) . . .
58(4) . . .
59(4) . . .
53(4) . . .
55(4) . . .
54(4) . . .
52(4) . . .
47(4) . . .
56(4) . . .
47(4) . . .
51(4) . . .
62(4) . . .
60(4) . . .
55(4) . . .
52(4) . . .
47(4) . . .
61(4) . . .
49(4) . . .
41(4) . . .
48(4) . . .
44.4(35) . . .
64(5) . . .
51(4) . . .
58(4) . . .
49(4) . . .
51(4) . . .
50(4) . . .
53(4) . . .
56(4) . . .
57(4) . . .
50(4) . . .
60(4) . . .
57(4) . . .
62(4) . . .
54(4) . . .
59(4) . . .
62(4) . . .
53(4) . . .
49(4) . . .
53(4) . . .
65(4) . . .
72(5) . . .
53(4) . . .
57(4) . . .
54(4) . . .
63(4) . . .
54(4) . . .
54(4) . . .
54(4) . . .
56(4) . . .
56(4) . . .
52(4) . . .
52(4) . . .
49(4) . . .
59(4) . . .
55(4) . . .
57(4) . . .
66(4) . . .
53(4) . . .
67(4) . . .
49(4) . . .
54(4) . . .
58(4) . . .
55(4) . . .
58(4) . . .
49(4) . . .
57(4) . . .
52(4) . . .
45(4) . . .
59(4) . . .
56(4) . . .
65(4) . . .
70(5) . . .
46(4) . . .
50(4) . . .
61(4) . . .
62(5) . . .
60(4) . . .
67(4) . . .
57(4) . . .
63(4) . . .
63(4) . . .
63(4) . . .
55(4) . . .
60(4) . . .
57(4) . . .
47(4) . . .
56(4) . . .
52(4) . . .
58(4) . . .
61(4) . . .
49(4) . . .
56(4) . . .
63(4) . . .
65(4) . . .
59(4) . . .
52(4) . . .
66(5) . . .
59(4) . . .
53(4) . . .
64(4) . . .
68(5) . . .
63(4) . . .
45.4(35) . . .
57(4) . . .
61(4) . . .
68(5) . . .
52(4) . . .
52(4) . . .
68(4) . . .
49(4) . . .
57(4) . . .
54(4) . . .
51(4) . . .
47(4) . . .
57(4) . . .
68(4) . . .
58(4) . . .
53(4) . . .
48(4) . . .
59(4) . . .
60(4) . . .
49(4) . . .
52(4) . . .
45(4) . . .
57(4) . . .
59(4) . . .
54(4) . . .
59(4) . . .
46(4) . . .
50(4) . . .
51(4) . . .
56(4) . . .
55(4) . . .
65(4) . . .
53(4) . . .
52(4) . . .
44.8(34) . . .
54(4) . . .
60(4) . . .
57(4) . . .
53(4) . . .
58(4) . . .
63(4) . . .
57(4) . . .
52(4) . . .
54(4) . . .
59(4) . . .
61(4) . . .
54(4) . . .
62(4) . . .
55(4) . . .
58(4) . . .
59(4) . . .
54(4) . . .
65(5) . . .
39.7(33) . . .
44.4(34) . . .
57(4) . . .
53(4) . . .
50(4) . . .
50(4) . . .
59(4) . . .
59(4) . . .
54(4) . . .
56(4) . . .
61(4) . . .
56(4) . . .
63(4) . . .
61(4) . . .
55(4) . . .
63(4) . . .
66(4) . . .
63(4) . . .
60(4) . . .
60(4) . . .
59(4) . . .
59(4) . . .
60(4) . . .
57(4) . . .
51(4) . . .
60(4) . . .
57(4) . . .
54(4) . . .
54(4) . . .
64(4) . . .
60(4) . . .
69(4) . . .
71(4) . . .
59(4) . . .
54(4) . . .
50(4) . . .
51(4) . . .
54(4) . . .
52(4) . . .
55(4) . . .
51(4) . . .
57(4) . . .
62(4) . . .
61(4) . . .
52(4) . . .
54(4) . . .
64(4) . . .
59(4) . . .
51(4) . . .
61(4) . . .
42.6(34) . . .
50(4) . . .
55(4) . . .
56(4) . . .
55(4) . . .
63(4) . . .
33.4(31) . . .
48(4) . . .
49(4) . . .
57(4) . . .
49(4) . . .
50(4) . . .
54(4) . . .
61(4) . . .
59(4) . . .
51(4) . . .
59(4) . . .
66(5) . . .
62(4) . . .
56(4) . . .
59(4) . . .
54(4) . . .
64(5) . . .
53(4) . . .
54(4) . . .
55(4) . . .
65(4) . . .
63(4) . . .
49(4) . . .
59(4) . . .
57(4) . . .
49(4) . . .
55(4) . . .
57(4) . . .
43.3(35) . . .
48(4) . . .
49(4) . . .
46(4) . . .
60(4) . . .
60(4) . . .
56(4) . . .
56(4) . . .
51(4) . . .
47(4) . . .
54(4) . . .
56(4) . . .
50(4) . . .
63(4) . . .
65(4) . . .
61(4) . . .
54(4) . . .
59(4) . . .
56(4) . . .
53(4) . . .
61(4) . . .
54(4) . . .
50(4) . . .
64(4) . . .
55(4) . . .
47(4) . . .
54(4) . . .
62(4) . . .
67(5) . . .
62(4) . . .
62(4) . . .
57(4) . . .
52(4) . . .
54(4) . . .
60(4) . . .
61(4) . . .
57(4) . . .
58(4) . . .
55(4) . . .
56(4) . . .
57(4) . . .
60(4) . . .
50(4) . . .
57(4) . . .
55(4) . . .
54(4) . . .
50(4) . . .
64(4) . . .
54(4) . . .
57(4) . . .
53(4) . . .
47(4) . . .
56(4) . . .
53(4) . . .
55(4) . . .
61(4) . . .
59(4) . . .
56(4) . . .
62(4) . . .
67(4) . . .
55(4) . . .
62(4) . . .
54(4) . . .
54(4) . . .
58(4) . . .
57(4) . . .
57(4) . . .
64(4) . . .
52(4) . . .
54(4) . . .
62(4) . . .
44.0(35) . . .
54(4) . . .
51(4) . . .
55(4) . . .
45.8(35) . . .
53(4) . . .
52(4) . . .
62(4) . . .
59(4) . . .
56(4) . . .
57(4) . . .
51(4) . . .
59(4) . . .
54(4) . . .
69(5) . . .
68(5) . . .
47(4) . . .
54(4) . . .
56(4) . . .
45.6(35) . . .
51(4) . . .
46(4) . . .
45(4) . . .
49(4) . . .
58(4) . . .
58(4) . . .
59(4) . . .
58(4) . . .
42.8(34) . . .
51(4) . . .
59(4) . . .
56(4) . . .
61(4) . . .
67(4) . . .
52(4) . . .
61(4) . . .
49(4) . . .
58(4) . . .
56(4) . . .
57(4) . . .
56(4) . . .
56(4) . . .
57(4) . . .
69(4) . . .
65(4) . . .
63(4) . . .
65(4) . . .
55(4) . . .
51(4) . . .
58(4) . . .
60(4) . . .
67(4) . . .
57(4) . . .
59(4) . . .
46(4) . . .
49(4) . . .
71(5) . . .
51(4) . . .
59(4) . . .
64(4) . . .
64(4) . . .
59(4) . . .
47(4) . . .
57(4) . . .
49(4) . . .
62(4) . . .
48(4) . . .
54(4) . . .
46(4) . . .
49(4) . . .
57(4) . . .
69(4) . . .
64(4) . . .
57(4) . . .
54(4) . . .
50(4) . . .
45.2(35) . . .
62(4) . . .
55(4) . . .
53(4) . . .
55(4) . . .
53(4) . . .
50(4) . . .
52(4) . . .
49(4) . . .
50(4) . . .
57(4) . . .
45.1(34) . . .
45(4) . . .
48(4) . . .
45(4) . . .
52(4) . . .
61(4) . . .
55(4) . . .
53(4) . . .
48(4) . . .
63(4) . . .
65(4) . . .
56(4) . . .
55(4) . . .
53(4) . . .
41.3(34) . . .
52(4) . . .
58(4) . . .
49(4) . . .
63(4) . . .
47(4) . . .
58(4) . . .
53(4) . . .
53(4) . . .
53(4) . . .
54(4) . . .
57(4) . . .
62(4) . . .
57(4) . . .
50(4) . . .
54(4) . . .
59(4) . . .
62(4) . . .
56(4) . . .
63(4) . . .
54(4) . . .
61(4) . . .
50(4) . . .
65(4) . . .
61(4) . . .
64(4) . . .
62(4) . . .
51(4) . . .
60(4) . . .
52(4) . . .
55(4) . . .
57(4) . . .
56(4) . . .
58(4) . . .
58(4) . . .
58(4) . . .
56(4) . . .
62(4) . . .
61(4) . . .
50(4) . . .
49(4) . . .
53(4) . . .
60(4) . . .
50(4) . . .
47(4) . . .
52(4) . . .
53(4) . . .
53(4) . . .
61(4) . . .
57(4) . . .
53(4) . . .
60(4) . . .
48(4) . . .
53(4) . . .
50(4) . . .
57(4) . . .
62(4) . . .
64(4) . . .
49(4) . . .
47(4) . . .
61(4) . . .
53(4) . . .
54(4) . . .
53(4) . . .
60(4) . . .
45(4) . . .
50(4) . . .
60(4) . . .
62(4) . . .
67(4) . . .
62(4) . . .
60(4) . . .
44.8(35) . . .
55(4) . . .
54(4) . . .
58(4) . . .
72(5) . . .
69(4) . . .
60(4) . . .
57(4) . . .
54(4) . . .
64(4) . . .
52(4) . . .
61(4) . . .
57(4) . . .
54(4) . . .
47(4) . . .
58(4) . . .
49(4) . . .
53(4) . . .
47(4) . . .
62(4) . . .
47(4) . . .
53(4) . . .
54(4) . . .
58(4) . . .
47(4) . . .
45(4) . . .
52(4) . . .
61(4) . . .
62(4) . . .
53(4) . . .
54(4) . . .
61(4) . . .
62(4) . . .
51(4) . . .
53(4) . . .
66(4) . . .
52(4) . . .
54(4) . . .
61(4) . . .
60(4) . . .
56(4) . . .
62(4) . . .
56(4) . . .
60(4) . . .
50(4) . . .
51(4) . . .
59(4) . . .
48(4) . . .
63(4) . . .
52(4) . . .
54(4) . . .
60(4) . . .
53(4) . . .
53(4) . . .
60(4) . . .
63(4) . . .
63(4) . . .
59(4) . . .
52(4) . . .
50(4) . . .
54(4) . . .
59(4) . . .
56(4) . . .
43(4) . . .
50(4) . . .
50(4) . . .
51(4) . . .
62(4) . . .
57(4) . . .
62(4) . . .
57(4) . . .
44.3(34) . . .
51(4) . . .
61(4) . . .
71(4) . . .
65(4) . . .
58(4) . . .
52(4) . . .
60(4) . . .
52(4) . . .
46(4) . . .
56(4) . . .
47(4) . . .
58(4) . . .
57(4) . . .
57(4) . . .
55(4) . . .
69(5) . . .
72(4) . . .
61(4) . . .
62(4) . . .
53(4) . . .
51(4) . . .
56(4) . . .
49(4) . . .
44.7(35) . . .
54(4) . . .
54(4) . . .
61(4) . . .
54(4) . . .
53(4) . . .
58(4) . . .
52(4) . . .
56(4) . . .
49(4) . . .
50(4) . . .
48(4) . . .
55(4) . . .
59(4) . . .
51(4) . . .
59(4) . . .
59(4) . . .
57(4) . . .
64(4) . . .
50(4) . . .
54(4) . . .
59(4) . . .
60(4) . . .
63(4) . . .
43.5(34) . . .
56(4) . . .
48(4) . . .
53(4) . . .
52(4) . . .
42.5(34) . . .
52(4) . . .
54(4) . . .
66(4) . . .
54(4) . . .
51(4) . . .
60(4) . . .
41.0(33) . . .
64(4) . . .
66(4) . . .
61(4) . . .
59(4) . . .
57(4) . . .
54(4) . . .
53(4) . . .
54(4) . . .
62(4) . . .
66(5) . . .
58(4) . . .
46.5(35) . . .
61(4) . . .
59(4) . . .
54(4) . . .
58(4) . . .
57(4) . . .
61(4) . . .
52(4) . . .
47(4) . . .
59(4) . . .
51(4) . . .
57(4) . . .
59(4) . . .
62(4) . . .
67(5) . . .
59(4) . . .
57(4) . . .
57(4) . . .
48(4) . . .
48(4) . . .
53(4) . . .
58(4) . . .
53(4) . . .
58(4) . . .
63(4) . . .
51(4) . . .
57(4) . . .
47(4) . . .
57(4) . . .
58(4) . . .
62(4) . . .
60(4) . . .
56(4) . . .
55(4) . . .
58(4) . . .
54(4) . . .
56(4) . . .
50(4) . . .
47(4) . . .
58(4) . . .
50(4) . . .
55(4) . . .
52(4) . . .
49(4) . . .
59(4) . . .
58(4) . . .
56(4) . . .
57(4) . . .
67(5) . . .
51(4) . . .
56(4) . . .
58(4) . . .
66(4) . . .
53(4) . . .
55(4) . . .
53(4) . . .
61(4) . . .
52(4) . . .
59(4) . . .
56(4) . . .
58(4) . . .
65(4) . . .
60(4) . . .
53(4) . . .
61(4) . . .
51(4) . . .
59(4) . . .
60(4) . . .
55(4) . . .
57(4) . . .
59(4) . . .
51(4) . . .
62(4) . . .
49(4) . . .
54(4) . . .
58(4) . . .
60(4) . . .
57(4) . . .
57(4) . . .
55(4) . . .
54(4) . . .
48(4) . . .
48(4) . . .
51(4) . . .
55(4) . . .
53(4) . . .
68(5) . . .
49(4) . . .
48(4) . . .
60(4) . . .
56(4) . . .
56(4) . . .
56(4) . . .
54(4) . . .
51(4) . . .
59(4) . . .
52(4) . . .
57(4) . . .
50(4) . . .
59(4) . . .
55(4) . . .
55(4) . . .
55(4) . . .
52(4) . . .
58(4) . . .
79(5) . . .
54(4) . . .
61(4) . . .
59(4) . . .
53(4) . . .
56(4) . . .
54(4) . . .
61(4) . . .
59(4) . . .
52(4) . . .
54(4) . . .
59(5) . . .
52(4) . . .
47(4) . . .
56(4) . . .
53(4) . . .
59(4) . . .
58(4) . . .
66(4) . . .
56(4) . . .
59(4) . . .
62(4) . . .
54(4) . . .
56(4) . . .
63(4) . . .
66(4) . . .
60(4) . . .
50(4) . . .
43.0(35) . . .
58(4) . . .
54(4) . . .
59(4) . . .
64(4) . . .
60(4) . . .
50(4) . . .
51(4) . . .
65(4) . . .
52(4) . . .
63(4) . . .
52(4) . . .
64(4) . . .
55(4) . . .
52(4) . . .
51(4) . . .
51(4) . . .
47(4) . . .
55(4) . . .
51(4) . . .
65(4) . . .
55(4) . . .
50(4) . . .
46(4) . . .
53(4) . . .
52(4) . . .
68(4) . . .
62(4) . . .
56(4) . . .
53(4) . . .
50(4) . . .
54(4) . . .
44(4) . . .
56(4) . . .
52(4) . . .
51(4) . . .
55(4) . . .
49(4) . . .
48(4) . . .
48(4) . . .
65(4) . . .
61(4) . . .
58(4) . . .
59(4) . . .
53(4) . . .
61(4) . . .
51(4) . . .
59(4) . . .
57(4) . . .
54(4) . . .
56(4) . . .
51(4) . . .
55(4) . . .
62(4) . . .
61(4) . . .
54(4) . . .
54(4) . . .
58(4) . . .
54(4) . . .
61(4) . . .
62(4) . . .
47(4) . . .
56(4) . . .
49(4) . . .
54(4) . . .
41.8(33) . . .
58(4) . . .
49(4) . . .
51(4) . . .
46(4) . . .
65(5) . . .
49(4) . . .
58(4) . . .
57(4) . . .
65(4) . . .
59(4) . . .
57(4) . . .
56(4) . . .
59(4) . . .
50(4) . . .
53(4) . . .
49(4) . . .
50(4) . . .
55(4) . . .
52(4) . . .
54(4) . . .
63(5) . . .
59(4) . . .
51(4) . . .
54(4) . . .
50(4) . . .
59(4) . . .
52(4) . . .
50(4) . . .
48(4) . . .
56(4) . . .
69(5) . . .
50(4) . . .
48(4) . . .
57(4) . . .
67(5) . . .
50(4) . . .
61(4) . . .
55(4) . . .
51(4) . . .
59(4) . . .
52(4) . . .
57(4) . . .
55(4) . . .
59(4) . . .
62(4) . . .
54(4) . . .
55(4) . . .
49(4) . . .
46(4) . . .
62(5) . . .
52(4) . . .
60(4) . . .
68(4) . . .
59(4) . . .
53(4) . . .
51(4) . . .
55(4) . . .
45(4) . . .
59(4) . . .
51(4) . . .
54(4) . . .
55(4) . . .
54(4) . . .
56(4) . . .
51(4) . . .
58(4) . . .
55(4) . . .
46(4) . . .
53(4) . . .
49(4) . . .
55(4) . . .
49(4) . . .
56(4) . . .
55(4) . . .
61(4) . . .
51(4) . . .
53(4) . . .
63(4) . . .
57(4) . . .
52(4) . . .
53(4) . . .
61(4) . . .
53(4) . . .
49(4) . . .
52(4) . . .
58(4) . . .
62(4) . . .
66(4) . . .
54(4) . . .
61(4) . . .
56(4) . . .
54(4) . . .
53(4) . . .
62(4) . . .
65(4) . . .
55(4) . . .
54(4) . . .
56(4) . . .
53(4) . . .
48(4) . . .
50(4) . . .
56(4) . . .
63(4) . . .
48(4) . . .
62(4) . . .
63(4) . . .
48(4) . . .
52(4) . . .
52(4) . . .
49(4) . . .
53(4) . . .
56(4) . . .
49(4) . . .
57(4) . . .
56(4) . . .
58(4) . . .
56(4) . . .
62(4) . . .
49(4) . . .
51(4) . . .
51(4) . . .
53(4) . . .
60(4) . . .
63(4) . . .
61(4) . . .
52(4) . . .
58(4) . . .
55(4) . . .
60(4) . . .
50(4) . . .
58(4) . . .
51(4) . . .
54(4) . . .
50(4) . . .
71(5) . . .
55(4) . . .
55(4) . . .
48(4) . . .
58(4) . . .
60(4) . . .
62(4) . . .
52(4) . . .
62(4) . . .
62(4) . . .
56(4) . . .
54(4) . . .
63(4) . . .
61(4) . . .
70(5) . . .
59(4) . . .
48(4) . . .
44(4) . . .
50(4) . . .
50(4) . . .
47(4) . . .
57(4) . . .
55(4) . . .
58(4) . . .
58(4) . . .
50(4) . . .
59(4) . . .
64(4) . . .
56(4) . . .
52(4) . . .
42.2(35) . . .
51(4) . . .
55(4) . . .
61(5) . . .
49(4) . . .
60(4) . . .
53(4) . . .
50(4) . . .
57(4) . . .
58(4) . . .
51(4) . . .
53(4) . . .
58(4) . . .
55(4) . . .
51(4) . . .
57(4) . . .
58(4) . . .
64(4) . . .
57(4) . . .
57(4) . . .
53(4) . . .
50(4) . . .
62(4) . . .
56(4) . . .
59(4) . . .
52(4) . . .
55(4) . . .
48(4) . . .
55(4) . . .
56(4) . . .
49(4) . . .
54(4) . . .
62(4) . . .
60(4) . . .
65(4) . . .
47(4) . . .
61(4) . . .
60(4) . . .
53(4) . . .
46(4) . . .
49(4) . . .
56(4) . . .
56(4) . . .
51(4) . . .
56(4) . . .
55(4) . . .
53(4) . . .
56(4) . . .
53(4) . . .
56(4) . . .
60(4) . . .
60(4) . . .
57(4) . . .
51(4) . . .
50(4) . . .
52(4) . . .
53(4) . . .
59(4) . . .
63(4) . . .
61(4) . . .
51(4) . . .
57(4) . . .
61(4) . . .
45(4) . . .
50(4) . . .
59(4) . . .
56(4) . . .
54(4) . . .
47(4) . . .
41.1(33) . . .
57(4) . . .
62(4) . . .
60(4) . . .
45(4) . . .
60(4) . . .
58(4) . . .
55(4) . . .
56(4) . . .
56(4) . . .
44.2(35) . . .
50(4) . . .
58(4) . . .
60(4) . . .
58(4) . . .
55(4) . . .
50(4) . . .
55(4) . . .
49(4) . . .
49(4) . . .
58(4) . . .
62(4) . . .
69(5) . . .
59(4) . . .
54(4) . . .
59(4) . . .
48(4) . . .
61(5) . . .
68(5) . . .
60(4) . . .
53(4) . . .
62(4) . . .
67(5) . . .
60(4) . . .
52(4) . . .
55(4) . . .
55(4) . . .
47(4) . . .
56(4) . . .
52(4) . . .
50(4) . . .
49(4) . . .
66(5) . . .
58(4) . . .
58(4) . . .
57(4) . . .
54(4) . . .
53(4) . . .
60(4) . . .
53(4) . . .
51(4) . . .
57(4) . . .
60(4) . . .
63(4) . . .
56(4) . . .
62(4) . . .
51(4) . . .
48(4) . . .
50(4) . . .
55(4) . . .
59(4) . . .
55(4) . . .
56(4) . . .
52(4) . . .
64(4) . . .
51(4) . . .
56(4) . . .
60(4) . . .
55(4) . . .
55(4) . . .
56(4) . . .
57(4) . . .
47(4) . . .
58(4) . . .
78(5) . . .
49(4) . . .
46(4) . . .
49(4) . . .
63(4) . . .
57(4) . . .
53(4) . . .
62(4) . . .
57(4) . . .
51(4) . . .
50(4) . . .
60(4) . . .
63(4) . . .
60(4) . . .
51(4) . . .
54(4) . . .
71(5) . . .
51(4) . . .
48(4) . . .
51(4) . . .
58(4) . . .
52(4) . . .
56(4) . . .
48(4) . . .
53(4) . . .
56(4) . . .
46(4) . . .
47(4) . . .
50(4) . . .
55(4) . . .
52(4) . . .
53(4) . . .
58(4) . . .
52(4) . . .
58(4) . . .
52(4) . . .
59(4) . . .
67(4) . . .
55(4) . . .
49(4) . . .
57(4) . . .
47(4) . . .
57(4) . . .
48(4) . . .
55(4) . . .
62(4) . . .
51(4) . . .
54(4) . . .
49(4) . . .
49(4) . . .
49(4) . . .
46(4) . . .
57(4) . . .
47(4) . . .
58(4) . . .
56(4) . . .
49(4) . . .
42.7(35) . . .
52(4) . . .
58(4) . . .
56(4) . . .
55(4) . . .
51(4) . . .
57(4) . . .
63(4) . . .
60(4) . . .
50(4) . . .
51(4) . . .
62(4) . . .
45(4) . . .
53(4) . . .
64(5) . . .
48(4) . . .
55(4) . . .
52(4) . . .
47(4) . . .
51(4) . . .
49(4) . . .
53(4) . . .
46(4) . . .
58(4) . . .
53(4) . . .
54(4) . . .
50(4) . . .
60(4) . . .
53(4) . . .
60(4) . . .
56(4) . . .
53(4) . . .
60(4) . . .
52(4) . . .
54(4) . . .
50(4) . . .
46(4) . . .
49(4) . . .
61(4) . . .
54(4) . . .
51(4) . . .
55(4) . . .
52(4) . . .
54(4) . . .
56(4) . . .
44(4) . . .
49(4) . . .
60(4) . . .
52(4) . . .
52(4) . . .
53(4) . . .
59(4) . . .
54(4) . . .
49(4) . . .
51(4) . . .
59(4) . . .
51(4) . . .
50(4) . . .
59(4) . . .
52(4) . . .
48(4) . . .
53(4) . . .
59(4) . . .
58(4) . . .
53(4) . . .
54(4) . . .
39.8(32) . . .
53(4) . . .
53(4) . . .
61(4) . . .
59(4) . . .
59(4) . . .
68(4) . . .
56(4) . . .
58(4) . . .
61(4) . . .
53(4) . . .
57(4) . . .
62(4) . . .
48(4) . . .
44.0(35) . . .
53(4) . . .
49(4) . . .
49(4) . . .
48(4) . . .
54(4) . . .
57(4) . . .
57(4) . . .
55(4) . . .
48(4) . . .
42.7(35) . . .
53(4) . . .
50(4) . . .
55(4) . . .
55(4) . . .
49(4) . . .
48(4) . . .
52(4) . . .
56(4) . . .
55(4) . . .
47(4) . . .
48(4) . . .
52(4) . . .
50(4) . . .
50(4) . . .
50(4) . . .
57(4) . . .
50(4) . . .
60(4) . . .
72(5) . . .
54(4) . . .
51(4) . . .
55(4) . . .
58(4) . . .
63(4) . . .
59(4) . . .
59(4) . . .
54(4) . . .
57(4) . . .
62(4) . . .
55(4) . . .
63(4) . . .
50(4) . . .
50(4) . . .
57(4) . . .
54(4) . . .
57(4) . . .
54(4) . . .
50(4) . . .
44(4) . . .
43.2(34) . . .
48(4) . . .
36.6(33) . . .
43.7(35) . . .
52(4) . . .
64(4) . . .
62(4) . . .
53(4) . . .
59(4) . . .
52(4) . . .
55(4) . . .
53(4) . . .
45(4) . . .
61(4) . . .
58(4) . . .
41.8(34) . . .
63(5) . . .
65(4) . . .
71(4) . . .
50(4) . . .
49(4) . . .
52(4) . . .
55(4) . . .
55(4) . . .
49(4) . . .
51(4) . . .
60(4) . . .
62(4) . . .
64(4) . . .
50(4) . . .
62(4) . . .
62(4) . . .
59(4) . . .
53(4) . . .
54(4) . . .
47(4) . . .
47(4) . . .
44.9(35) . . .
52(4) . . .
56(4) . . .
45(4) . . .
49(4) . . .
46(4) . . .
51(4) . . .
60(4) . . .
68(4) . . .
55(4) . . .
53(4) . . .
52(4) . . .
42.3(34) . . .
57(4) . . .
56(4) . . .
55(4) . . .
64(4) . . .
50(4) . . .
50(4) . . .
47(4) . . .
56(4) . . .
49(4) . . .
52(4) . . .
50(4) . . .
58(4) . . .
60(4) . . .
51(4) . . .
57(4) . . .
55(4) . . .
57(4) . . .
49(4) . . .
51(4) . . .
50(4) . . .
55(4) . . .
55(4) . . .
63(4) . . .
59(4) . . .
67(4) . . .
59(4) . . .
60(4) . . .
60(4) . . .
53(4) . . .
52(4) . . .
59(4) . . .
57(4) . . .
61(4) . . .
65(4) . . .
55(4) . . .
58(4) . . .
62(4) . . .
60(4) . . .
50(4) . . .
59(4) . . .
57(4) . . .
68(4) . . .
57(4) . . .
49(4) . . .
61(4) . . .
48(4) . . .
47(4) . . .
54(4) . . .
49(4) . . .
50(4) . . .
53(4) . . .
58(4) . . .
64(4) . . .
51(4) . . .
49(4) . . .
55(4) . . .
57(4) . . .
58(4) . . .
70(5) . . .
60(4) . . .
64(4) . . .
63(4) . . .
58(4) . . .
52(4) . . .
56(4) . . .
63(4) . . .
66(4) . . .
54(4) . . .
58(4) . . .
55(4) . . .
61(4) . . .
54(4) . . .
48(4) . . .
56(4) . . .
53(4) . . .
58(4) . . .
68(4) . . .
52(4) . . .
50(4) . . .
58(4) . . .
51(4) . . .
52(4) . . .
50(4) . . .
46(4) . . .
53(4) . . .
64(4) . . .
58(4) . . .
64(4) . . .
62(4) . . .
48(4) . . .
53(4) . . .
47(4) . . .
54(4) . . .
55(4) . . .
51(4) . . .
58(4) . . .
56(4) . . .
63(4) . . .
57(4) . . .
55(4) . . .
51(4) . . .
52(4) . . .
54(4) . . .
56(4) . . .
58(4) . . .
53(4) . . .
55(4) . . .
59(4) . . .
62(4) . . .
52(4) . . .
51(4) . . .
53(4) . . .
49(4) . . .
49(4) . . .
53(4) . . .
66(4) . . .
55(4) . . .
61(4) . . .
61(4) . . .
64(4) . . .
58(4) . . .
47.3(35) . . .
48(4) . . .
59(4) . . .
65(5) . . .
52(4) . . .
52(4) . . .
49(4) . . .
39.8(33) . . .
56(4) . . .
57(4) . . .
61(4) . . .
52(4) . . .
56(4) . . .
63(4) . . .
59(4) . . .
54(4) . . .
52(4) . . .
49(4) . . .
60(4) . . .
51(4) . . .
62(4) . . .
56(4) . . .
58(4) . . .
54(4) . . .
57(4) . . .
50(4) . . .
48(4) . . .
53(4) . . .
60(4) . . .
39.7(33) . . .
52(4) . . .
52(4) . . .
48(4) . . .
64(4) . . .
57(4) . . .
44(4) . . .
53(4) . . .
63(4) . . .
61(4) . . .
54(4) . . .
62(4) . . .
54(4) . . .
49(4) . . .
58(4) . . .
61(4) . . .
53(4) . . .
51(4) . . .
53(4) . . .
53(4) . . .
57(4) . . .
52(4) . . .
62(5) . . .
56(4) . . .
60(4) . . .
57(4) . . .
54(4) . . .
54(4) . . .
57(4) . . .
49(4) . . .
54(4) . . .
55(4) . . .
54(4) . . .
55(4) . . .
61(4) . . .
47(4) . . .
49(4) . . .
51(4) . . .
51(4) . . .
64(4) . . .
60(4) . . .
54(4) . . .
55(4) . . .
58(4) . . .
61(4) . . .
55(4) . . .
58(4) . . .
59(4) . . .
62(4) . . .
58(4) . . .
49(4) . . .
51(4) . . .
57(4) . . .
68(4) . . .
58(4) . . .
52(4) . . .
54(4) . . .
49(4) . . .
51(4) . . .
55(4) . . .
53(4) . . .
65(4) . . .
59(4) . . .
56(4) . . .
61(4) . . .
54(4) . . .
57(4) . . .
55(4) . . .
55(4) . . .
63(4) . . .
57(4) . . .
52(4) . . .
46(4) . . .
46(4) . . .
49(4) . . .
59(4) . . .
62(4) . . .
56(4) . . .
52(4) . . .
58(4) . . .
64(4) . . .
50(4) . . .
50(4) . . .
56(4) . . .
59(4) . . .
50(4) . . .
48(4) . . .
38.7(32) . . .
56(4) . . .
61(4) . . .
60(4) . . .
59(4) . . .
58(4) . . .
47(4) . . .
55(4) . . .
53(4) . . .
49(4) . . .
63(4) . . .
61(4) . . .
58(4) . . .
55(4) . . .
59(4) . . .
70(5) . . .
51(4) . . .
57(4) . . .
52(4) . . .
49(4) . . .
60(4) . . .
61(4) . . .
57(4) . . .
48(4) . . .
57(4) . . .
58(4) . . .
48(4) . . .
55(4) . . .
58(4) . . .
50(4) . . .
58(4) . . .
58(4) . . .
57(4) . . .
52(4) . . .
46(4) . . .
50(4) . . .
57(4) . . .
48(4) . . .
58(4) . . .
67(4) . . .
67(4) . . .
59(4) . . .
50(4) . . .
59(4) . . .
52(4) . . .
61(4) . . .
56(4) . . .
54(4) . . .
55(4) . . .
48(4) . . .
53(4) . . .
54(4) . . .
50(4) . . .
48(4) . . .
54(4) . . .
58(4) . . .
47(4) . . .
57(4) . . .
48(4) . . .
51(4) . . .
52(4) . . .
53(4) . . .
57(4) . . .
69(5) . . .
61(4) . . .
62(4) . . .
56(4) . . .
56(4) . . .
46(4) . . .
57(4) . . .
50(4) . . .
55(4) . . .
55(4) . . .
55(4) . . .
57(4) . . .
59(4) . . .
60(4) . . .
61(4) . . .
55(4) . . .
57(4) . . .
49(4) . . .
66(4) . . .
55(4) . . .
53(4) . . .
51(4) . . .
52(4) . . .
58(4) . . .
52(4) . . .
54(4) . . .
58(4) . . .
53(4) . . .
57(4) . . .
60(4) . . .
56(4) . . .
52(4) . . .
58(4) . . .
55(4) . . .
54(4) . . .
63(4) . . .
57(4) . . .
56(4) . . .
54(4) . . .
53(4) . . .
53(4) . . .
54(4) . . .
52(4) . . .
56(4) . . .
63(4) . . .
53(4) . . .
58(4) . . .
48(4) . . .
58(4) . . .
61(4) . . .
55(4) . . .
54(4) . . .
57(4) . . .
61(4) . . .
57(4) . . .
54(4) . . .
58(4) . . .
55(4) . . .
57(4) . . .
54(4) . . .
50(4) . . .
53(4) . . .
46(4) . . .
58(4) . . .
56(4) . . .
61(4) . . .
53(4) . . .
52(4) . . .
53(4) . . .
50(4) . . .
36.5(33) . . .
44.2(35) . . .
54(4) . . .
53(4) . . .
49(4) . . .
59(4) . . .
64(4) . . .
57(4) . . .
63(5) . . .
54(4) . . .
55(4) . . .
49(4) . . .
53(4) . . .
47(4) . . .
52(4) . . .
47(4) . . .
58(4) . . .
54(4) . . .
52(4) . . .
63(4) . . .
60(4) . . .
58(4) . . .
55(4) . . .
40.0(33) . . .
53(4) . . .
50(4) . . .
60(4) . . .
55(4) . . .
64(4) . . .
61(4) . . .
55(4) . . .
50(4) . . .
60(4) . . .
51(4) . . .
52(4) . . .
59(4) . . .
56(4) . . .
52(4) . . .
43.2(35) . . .
58(4) . . .
65(4) . . .
50(4) . . .
60(4) . . .
50(4) . . .
53(4) . . .
59(4) . . .
50(4) . . .
54(4) . . .
49(4) . . .
47(4) . . .
52(4) . . .
53(4) . . .
59(4) . . .
61(4) . . .
49(4) . . .
61(4) . . .
58(4) . . .
54(4) . . .
52(4) . . .
55(4) . . .
48(4) . . .
53(4) . . .
54(4) . . .
50(4) . . .
51(4) . . .
44.6(35) . . .
57(4) . . .
53(4) . . .
60(4) . . .
55(4) . . .
52(4) . . .
60(4) . . .
63(4) . . .
58(4) . . .
57(4) . . .
54(4) . . .
52(4) . . .
53(4) . . .
54(4) . . .
60(4) . . .
55(4) . . .
60(5) . . .
62(4) . . .
62(4) . . .
55(4) . . .
45(4) . . .
58(4) . . .
48(4) . . .
54(4) . . .
58(4) . . .
45(4) . . .
47(4) . . .
54(4) . . .
55(4) . . .
57(4) . . .
54(4) . . .
55(4) . . .
46(4) . . .
38.2(32) . . .
57(4) . . .
61(4) . . .
57(4) . . .
52(4) . . .
58(4) . . .
58(4) . . .
54(4) . . .
50(4) . . .
54(4) . . .
59(4) . . .
61(4) . . .
50(4) . . .
56(4) . . .
55(4) . . .
56(4) . . .
56(4) . . .
54(4) . . .
71(5) . . .
54(4) . . .
59(4) . . .
51(4) . . .
60(4) . . .
47(4) . . .
39.5(33) . . .
60(4) . . .
45(4) . . .
62(4) . . .
53(4) . . .
49(4) . . .
51(4) . . .
72(4) . . .
47(4) . . .
55(4) . . .
61(4) . . .
53(4) . . .
49(4) . . .
53(4) . . .
59(4) . . .
54(4) . . .
50(4) . . .
52(4) . . .
59(4) . . .
50(4) . . .
46.9(35) . . .
59(4) . . .
64(4) . . .
53(4) . . .
58(4) . . .
54(4) . . .
53(4) . . .
57(4) . . .
61(4) . . .
52(4) . . .
48(4) . . .
49(4) . . .
63(4) . . .
56(4) . . .
61(4) . . .
65(4) . . .
42.8(34) . . .
50(4) . . .
63(5) . . .
59(5) . . .
50(4) . . .
55(4) . . .
51(4) . . .
60(4) . . .
59(4) . . .
54(4) . . .
56(4) . . .
53(4) . . .
60(4) . . .
58(4) . . .
54(4) . . .
53(4) . . .
57(4) . . .
56(4) . . .
62(4) . . .
50(4) . . .
55(4) . . .
57(4) . . .
51(4) . . .
62(4) . . .
49(4) . . .
65(4) . . .
65(4) . . .
63(4) . . .
58(4) . . .
49(4) . . .
54(4) . . .
58(4) . . .
64(5) . . .
52(4) . . .
57(4) . . .
60(4) . . .
52(4) . . .
52(4) . . .
52(4) . . .
51(4) . . .
53(4) . . .
60(4) . . .
58(4) . . .
68(4) . . .
50(4) . . .
52(4) . . .
48(4) . . .
44(4) . . .
55(4) . . .
63(4) . . .
43.0(34) . . .
63(5) . . .
57(4) . . .
50(4) . . .
60(4) . . .
68(4) . . .
51(4) . . .
53(4) . . .
52(4) . . .
59(4) . . .
50(4) . . .
62(4) . . .
61(4) . . .
54(4) . . .
68(4) . . .
53(4) . . .
50(4) . . .
53(4) . . .
63(4) . . .
49(4) . . .
51(4) . . .
63(5) . . .
54(4) . . .
62(4) . . .
49(4) . . .
54(4) . . .
54(4) . . .
62(4) . . .
50(4) . . .
58(4) . . .
54(4) . . .
60(4) . . .
67(4) . . .
52(4) . . .
61(4) . . .
64(4) . . .
56(4) . . .
49(4) . . .
45.2(35) . . .
54(4) . . .
47(4) . . .
50(4) . . .
53(4) . . .
60(4) . . .
57(4) . . .
63(4) . . .
51(4) . . .
53(4) . . .
53(4) . . .
52(4) . . .
53(4) . . .
50(4) . . .
55(4) . . .
53(4) . . .
62(4) . . .
59(4) . . .
56(4) . . .
53(4) . . .
51(4) . . .
54(4) . . .
52(4) . . .
43.6(35) . . .
48(4) . . .
58(4) . . .
45(4) . . .
52(4) . . .
60(4) . . .
53(4) . . .
56(4) . . .
56(4) . . .
56(4) . . .
56(4) . . .
58(4) . . .
53(4) . . .
61(4) . . .
57(4) . . .
58(4) . . .
55(4) . . .
51(4) . . .
66(4) . . .
57(4) . . .
56(4) . . .
54(4) . . .
49(4) . . .
53(4) . . .
67(5) . . .
55(4) . . .
47(4) . . .
58(4) . . .
54(4) . . .
57(4) . . .
62(4) . . .
56(4) . . .
52(4) . . .
58(4) . . .
45(4) . . .
50(4) . . .
48(4) . . .
57(4) . . .
44.3(35) . . .
55(4) . . .
64(4) . . .
59(4) . . .
50(4) . . .
59(4) . . .
49(4) . . .
63(4) . . .
49(4) . . .
53(4) . . .
60(4) . . .
50(4) . . .
51(4) . . .
64(4) . . .
59(4) . . .
46(4) . . .
57(4) . . .
53(4) . . .
43.0(34) . . .
56(4) . . .
62(4) . . .
53(4) . . .
49(4) . . .
52(4) . . .
55(4) . . .
49(4) . . .
59(4) . . .
65(4) . . .
54(4) . . .
49(4) . . .
48(4) . . .
51(4) . . .
50(4) . . .
57(4) . . .
56(4) . . .
56(4) . . .
48(4) . . .
59(4) . . .
54(4) . . .
59(4) . . .
49(4) . . .
48(4) . . .
52(4) . . .
50(4) . . .
56(4) . . .
66(4) . . .
55(4) . . .
48(4) . . .
55(4) . . .
62(5) . . .
53(4) . . .
60(4) . . .
51(4) . . .
63(4) . . .
55(4) . . .
40.0(33) . . .
50(4) . . .
55(4) . . .
58(4) . . .
60(4) . . .
50(4) . . .
57(4) . . .
51(4) . . .
42(4) . . .
50(4) . . .
54(4) . . .
57(4) . . .
53(4) . . .
55(4) . . .
45.2(35) . . .
56(4) . . .
45(4) . . .
58(4) . . .
52(4) . . .
46(4) . . .
56(4) . . .
55(4) . . .
55(4) . . .
49(4) . . .
58(4) . . .
59(4) . . .
61(4) . . .
54(4) . . .
64(4) . . .
47(4) . . .
47(4) . . .
51(4) . . .
50(4) . . .
51(4) . . .
51(4) . . .
50(4) . . .
51(4) . . .
58(4) . . .
56(4) . . .
63(4) . . .
58(4) . . .
53(4) . . .
55(4) . . .
62(5) . . .
52(4) . . .
50(4) . . .
56(4) . . .
47(4) . . .
45.7(34) . . .
54(4) . . .
52(4) . . .
52(4) . . .
51(4) . . .
50(4) . . .
48(4) . . .
58(4) . . .
50(4) . . .
55(4) . . .
54(4) . . .
58(4) . . .
63(4) . . .
63(4) . . .
56(4) . . .
65(4) . . .
47(4) . . .
64(4) . . .
66(4) . . .
57(4) . . .
63(4) . . .
59(4) . . .
63(4) . . .
49(4) . . .
58(4) . . .
55(4) . . .
54(4) . . .
51(4) . . .
65(4) . . .
55(4) . . .
52(4) . . .
59(4) . . .
55(4) . . .
44.3(35) . . .
49(4) . . .
55(4) . . .
53(4) . . .
42.6(34) . . .
53(4) . . .
50(4) . . .
48(4) . . .
57(4) . . .
57(4) . . .
55(4) . . .
67(5) . . .
64(4) . . .
51(4) . . .
48(4) . . .
51(4) . . .
60(4) . . .
54(4) . . .
61(4) . . .
59(4) . . .
53(4) . . .
57(4) . . .
59(4) . . .
50(4) . . .
51(4) . . .
55(4) . . .
49(4) . . .
62(4) . . .
51(4) . . .
58(4) . . .
58(4) . . .
59(4) . . .
58(4) . . .
46(4) . . .
58(4) . . .
49(4) . . .
56(4) . . .
47(4) . . .
61(4) . . .
60(4) . . .
54(4) . . .
58(4) . . .
55(4) . . .
57(4) . . .
59(4) . . .
64(4) . . .
56(4) . . .
47(4) . . .
58(4) . . .
46(4) . . .
51(4) . . .
51(4) . . .
50(4) . . .
67(4) . . .
50(4) . . .
61(4) . . .
55(4) . . .
51(4) . . .
51(4) . . .
56(4) . . .
53(4) . . .
44(4) . . .
44.3(35) . . .
54(4) . . .
56(4) . . .
53(4) . . .
53(4) . . .
52(4) . . .
54(4) . . .
50(4) . . .
46(4) . . .
53(4) . . .
54(4) . . .
56(4) . . .
47(4) . . .
51(4) . . .
52(4) . . .
52(4) . . .
48(4) . . .
57(4) . . .
54(4) . . .
57(4) . . .
59(4) . . .
52(4) . . .
46(4) . . .
58(4) . . .
58(4) . . .
66(4) . . .
56(4) . . .
46(4) . . .
54(4) . . .
49(4) . . .
55(4) . . .
63(4) . . .
50(4) . . .
54(4) . . .
59(4) . . .
49(4) . . .
58(4) . . .
49(4) . . .
55(4) . . .
56(4) . . .
67(4) . . .
59(4) . . .
55(4) . . .
48(4) . . .
43.6(35) . . .
54(4) . . .
63(4) . . .
56(4) . . .
58(4) . . .
66(4) . . .
57(4) . . .
43(4) . . .
52(4) . . .
47(4) . . .
46(4) . . .
58(4) . . .
52(4) . . .
48(4) . . .
56(4) . . .
51(4) . . .
54(4) . . .
57(4) . . .
50(4) . . .
47(4) . . .
62(4) . . .
52(4) . . .
55(4) . . .
48(4) . . .
61(4) . . .
55(4) . . .
56(4) . . .
68(5) . . .
66(4) . . .
57(4) . . .
57(4) . . .
68(4) . . .
55(4) . . .
52(4) . . .
49(4) . . .
49(4) . . .
50(4) . . .
64(4) . . .
61(4) . . .
56(4) . . .
59(4) . . .
44.0(34) . . .
47(4) . . .
46(4) . . .
55(4) . . .
58(4) . . .
60(4) . . .
49(4) . . .
49(4) . . .
59(4) . . .
58(4) . . .
56(4) . . .
40.3(33) . . .
53(4) . . .
54(4) . . .
58(4) . . .
61(4) . . .
56(4) . . .
68(5) . . .
62(4) . . .
50(4) . . .
53(4) . . .
52(4) . . .
49(4) . . .
49(4) . . .
46(4) . . .
54(4) . . .
45(4) . . .
52(4) . . .
58(4) . . .
58(4) . . .
61(4) . . .
65(4) . . .
54(4) . . .
50(4) . . .
57(4) . . .
53(4) . . .
62(4) . . .
50(4) . . .
55(4) . . .
56(4) . . .
61(4) . . .
50(4) . . .
55(4) . . .
57(4) . . .
63(4) . . .
58(4) . . .
57(4) . . .
58(4) . . .
52(4) . . .
49(4) . . .
40.2(34) . . .
50(4) . . .
66(4) . . .
54(4) . . .
58(4) . . .
64(5) . . .
60(4) . . .
50(4) . . .
58(4) . . .
55(4) . . .
54(4) . . .
46(4) . . .
60(4) . . .
57(4) . . .
48(4) . . .
62(4) . . .
52(4) . . .
55(4) . . .
56(4) . . .
55(4) . . .
55(4) . . .
66(4) . . .
55(4) . . .
49(4) . . .
54(4) . . .
59(4) . . .
58(4) . . .
53(4) . . .
57(4) . . .
53(4) . . .
41.0(34) . . .
49(4) . . .
55(4) . . .
54(4) . . .
49(4) . . .
43(4) . . .
51(4) . . .
57(4) . . .
48(4) . . .
42.6(34) . . .
51(4) . . .
54(4) . . .
45(4) . . .
48(4) . . .
57(4) . . .
57(4) . . .
58(4) . . .
50(4) . . .
58(4) . . .
59(4) . . .
50(4) . . .
39.7(32) . . .
42.8(35) . . .
58(4) . . .
53(4) . . .
56(4) . . .
56(4) . . .
63(4) . . .
47(4) . . .
55(4) . . .
53(4) . . .
56(4) . . .
59(4) . . .
63(4) . . .
58(4) . . .
55(4) . . .
50(4) . . .
51(4) . . .
53(4) . . .
51(4) . . .
46(4) . . .
62(4) . . .
46(4) . . .
58(4) . . .
58(4) . . .
52(4) . . .
56(4) . . .
53(4) . . .
59(4) . . .
53(4) . . .
52(4) . . .
59(4) . . .
54(4) . . .
45(4) . . .
43.9(35) . . .
54(4) . . .
60(4) . . .
61(4) . . .
57(4) . . .
60(4) . . .
59(4) . . .
47(4) . . .
52(4) . . .
49(4) . . .
44(4) . . .
58(4) . . .
46(4) . . .
56(4) . . .
58(4) . . .
55(4) . . .
59(4) . . .
47(4) . . .
55(4) . . .
50(4) . . .
63(4) . . .
62(4) . . .
40.8(34) . . .
53(4) . . .
49(4) . . .
60(4) . . .
56(4) . . .
46.7(35) . . .
45.4(35) . . .
54(4) . . .
58(4) . . .
50(4) . . .
48(4) . . .
46(4) . . .
51(4) . . .
45.9(35) . . .
51(4) . . .
56(4) . . .
58(4) . . .
57(4) . . .
54(4) . . .
52(4) . . .
52(4) . . .
59(4) . . .
62(4) . . .
57(4) . . .
54(4) . . .
66(5) . . .
59(4) . . .
59(4) . . .
51(4) . . .
55(4) . . .
56(4) . . .
53(4) . . .
67(4) . . .
46(4) . . .
47(4) . . .
54(4) . . .
56(4) . . .
61(4) . . .
52(4) . . .
50(4) . . .
64(4) . . .
50(4) . . .
46(4) . . .
55(4) . . .
54(4) . . .
53(4) . . .
56(4) . . .
57(4) . . .
47(4) . . .
60(4) . . .
59(4) . . .
55(4) . . .
49(4) . . .
57(4) . . .
52(4) . . .
58(4) . . .
46(4) . . .
42.5(34) . . .
43.5(34) . . .
51(4) . . .
57(4) . . .
58(4) . . .
58(4) . . .
51(4) . . .
57(4) . . .
56(4) . . .
53(4) . . .
47(4) . . .
48(4) . . .
52(4) . . .
52(4) . . .
55(4) . . .
61(4) . . .
63(4) . . .
50(4) . . .
49(4) . . .
54(4) . . .
55(4) . . .
54(4) . . .
47(4) . . .
57(4) . . .
52(4) . . .
62(5) . . .
60(4) . . .
53(4) . . .
50(4) . . .
56(4) . . .
54(4) . . .
54(4) . . .
52(4) . . .
49(4) . . .
54(4) . . .
47(4) . . .
53(4) . . .
53(4) . . .
58(4) . . .
67(4) . . .
56(4) . . .
64(4) . . .
52(4) . . .
47(4) . . .
55(4) . . .
52(4) . . .
58(4) . . .
47(4) . . .
43(4) . . .
48(4) . . .
63(4) . . .
48(4) . . .
58(4) . . .
49(4) . . .
56(4) . . .
60(4) . . .
54(4) . . .
55(4) . . .
61(4) . . .
56(4) . . .
55(4) . . .
54(4) . . .
67(4) . . .
47(4) . . .
45(4) . . .
54(4) . . .
42.9(34) . . .
60(4) . . .
56(4) . . .
65(4) . . .
52(4) . . .
52(4) . . .
64(4) . . .
56(4) . . .
47(4) . . .
40.1(33) . . .
43(4) . . .
49(4) . . .
57(4) . . .
52(4) . . .
46(4) . . .
56(4) . . .
40.1(32) . . .
52(4) . . .
61(4) . . .
54(4) . . .
64(4) . . .
54(4) . . .
48(4) . . .
55(4) . . .
56(4) . . .
50(4) . . .
48(4) . . .
53(4) . . .
52(4) . . .
53(4) . . .
45(4) . . .
44(4) . . .
53(4) . . .
50(4) . . .
42.2(34) . . .
54(4) . . .
62(4) . . .
55(4) . . .
46(4) . . .
46(4) . . .
59(4) . . .
59(4) . . .
46(4) . . .
42.5(34) . . .
49(4) . . .
52(4) . . .
49(4) . . .
55(4) . . .
57(4) . . .
53(4) . . .
52(4) . . .
63(4) . . .
47(4) . . .
59(4) . . .
62(4) . . .
47(4) . . .
56(4) . . .
51(4) . . .
51(4) . . .
52(4) . . .
52(4) . . .
60(4) . . .
60(4) . . .
51(4) . . .
49(4) . . .
46(4) . . .
53(4) . . .
57(4) . . .
49(4) . . .
52(4) . . .
50(4) . . .
41(4) . . .
41.5(35) . . .
58(4) . . .
41.3(34) . . .
55(4) . . .
54(4) . . .
53(4) . . .
59(4) . . .
60(4) . . .
54(4) . . .
46(4) . . .
53(4) . . .
72(4) . . .
56(4) . . .
47(4) . . .
44.4(35) . . .
44(4) . . .
48(4) . . .
53(4) . . .
60(4) . . .
49(4) . . .
54(4) . . .
53(4) . . .
61(5) . . .
55(4) . . .
60(4) . . .
50(4) . . .
50(4) . . .
58(4) . . .
60(4) . . .
63(4) . . .
46(4) . . .
50(4) . . .
39.3(33) . . .
51(4) . . .
44.2(35) . . .
50(4) . . .
42.4(34) . . .
49(4) . . .
52(4) . . .
66(4) . . .
62(4) . . .
53(4) . . .
63(4) . . .
64(4) . . .
55(4) . . .
53(4) . . .
57(4) . . .
61(4) . . .
43.9(34) . . .
48(4) . . .
59(4) . . .
48(4) . . .
54(4) . . .
48(4) . . .
44.4(34) . . .
56(4) . . .
49(4) . . .
64(5) . . .
55(4) . . .
53(4) . . .
57(4) . . .
51(4) . . .
50(4) . . .
52(4) . . .
61(4) . . .
50(4) . . .
52(4) . . .
54(4) . . .
60(4) . . .
51(4) . . .
49(4) . . .
48(4) . . .
49(4) . . .
44.9(35) . . .
50(4) . . .
59(4) . . .
49(4) . . .
54(4) . . .
53(4) . . .
55(4) . . .
48(4) . . .
53(4) . . .
56(4) . . .
61(4) . . .
51(4) . . .
64(4) . . .
52(4) . . .
52(4) . . .
45(4) . . .
55(4) . . .
57(4) . . .
50(4) . . .
47(4) . . .
53(4) . . .
55(4) . . .
51(4) . . .
49(4) . . .
48(4) . . .
54(4) . . .
44.5(35) . . .
51(4) . . .
49(4) . . .
50(4) . . .
52(4) . . .
53(4) . . .
63(4) . . .
62(4) . . .
51(4) . . .
60(4) . . .
53(4) . . .
61(4) . . .
57(4) . . .
61(4) . . .
61(4) . . .
58(4) . . .
54(4) . . .
61(5) . . .
59(4) . . .
62(4) . . .
61(4) . . .
46(4) . . .
54(4) . . .
58(4) . . .
58(4) . . .
58(4) . . .
63(4) . . .
56(4) . . .
54(4) . . .
55(4) . . .
47(4) . . .
51(4) . . .
44(4) . . .
53(4) . . .
46(4) . . .
51(4) . . .
45.0(35) . . .
55(4) . . .
62(4) . . .
48(4) . . .
56(4) . . .
48(4) . . .
58(4) . . .
59(4) . . .
54(4) . . .
50(4) . . .
48(4) . . .
53(4) . . .
54(4) . . .
43.1(34) . . .
48(4) . . .
52(4) . . .
49(4) . . .
54(4) . . .
62(4) . . .
60(4) . . .
54(4) . . .
56(4) . . .
65(4) . . .
50(4) . . .
47(4) . . .
52(4) . . .
57(4) . . .
45(4) . . .
56(4) . . .
50(4) . . .
49(4) . . .
52(4) . . .
48(4) . . .
56(4) . . .
48(4) . . .
58(4) . . .
58(4) . . .
63(4) . . .
50(4) . . .
43(4) . . .
60(4) . . .
59(4) . . .
49(4) . . .
53(4) . . .
60(4) . . .
59(4) . . .
58(4) . . .
62(4) . . .
52(4) . . .
48(4) . . .
54(4) . . .
51(4) . . .
42.4(34) . . .
48(4) . . .
54(4) . . .
43(4) . . .
46(4) . . .
48(4) . . .
43.1(34) . . .
45(4) . . .
56(4) . . .
56(4) . . .
53(4) . . .
50(4) . . .
50(4) . . .
58(4) . . .
68(4) . . .
51(4) . . .
59(4) . . .
55(4) . . .
55(4) . . .
54(4) . . .
55(4) . . .
50(4) . . .
63(5) . . .
58(4) . . .
50(4) . . .
53(4) . . .
57(4) . . .
52(4) . . .
55(4) . . .
56(4) . . .
50(4) . . .
49(4) . . .
49(4) . . .
44(4) . . .
54(4) . . .
58(4) . . .
57(4) . . .
50(4) . . .
44.0(34) . . .
50(4) . . .
53(4) . . .
59(4) . . .
45(4) . . .
46(4) . . .
52(4) . . .
50(4) . . .
53(4) . . .
57(4) . . .
50(4) . . .
52(4) . . .
48(4) . . .
45.4(35) . . .
47(4) . . .
48(4) . . .
49(4) . . .
53(4) . . .
49(4) . . .
48(4) . . .
57(4) . . .
56(4) . . .
59(4) . . .
62(4) . . .
51(4) . . .
56(4) . . .
57(4) . . .
54(4) . . .
53(4) . . .
47(4) . . .
57(4) . . .
56(4) . . .
54(4) . . .
53(4) . . .
45(4) . . .
41.8(34) . . .
48(4) . . .
48(4) . . .
50(4) . . .
46(4) . . .
53(4) . . .
45.5(35) . . .
51(4) . . .
51(4) . . .
48(4) . . .
53(4) . . .
50(4) . . .
47(4) . . .
55(4) . . .
43.8(34) . . .
57(4) . . .
57(4) . . .
48(4) . . .
52(4) . . .
43.7(34) . . .
67(4) . . .
61(4) . . .
49(4) . . .
49(4) . . .
48(4) . . .
59(4) . . .
54(4) . . .
54(4) . . .
48(4) . . .
51(4) . . .
54(4) . . .
60(4) . . .
48(4) . . .
55(4) . . .
69(5) . . .
50(4) . . .
56(4) . . .
61(4) . . .
51(4) . . .
56(4) . . .
49(4) . . .
56(4) . . .
46(4) . . .
41.1(33) . . .
48(4) . . .
56(4) . . .
52(4) . . .
48(4) . . .
53(4) . . .
57(4) . . .
51(4) . . .
47(4) . . .
51(4) . . .
58(4) . . .
46(4) . . .
53(4) . . .
64(4) . . .
60(5) . . .
59(4) . . .
56(4) . . .
57(4) . . .
44.3(34) . . .
55(4) . . .
51(4) . . .
55(4) . . .
46(4) . . .
46.0(35) . . .
38.5(33) . . .
45(4) . . .
50(4) . . .
54(4) . . .
54(4) . . .
63(4) . . .
66(4) . . .
55(4) . . .
53(4) . . .
63(4) . . .
48(4) . . .
54(4) . . .
55(4) . . .
50(4) . . .
52(4) . . .
51(4) . . .
39.8(34) . . .
57(4) . . .
48(4) . . .
50(4) . . .
50(4) . . .
47(4) . . .
50(4) . . .
48(4) . . .
56(4) . . .
45(4) . . .
43.7(35) . . .
42.9(34) . . .
43.0(35) . . .
49(4) . . .
50(4) . . .
52(4) . . .
51(4) . . .
58(4) . . .
59(4) . . .
51(4) . . .
63(4) . . .
48(4) . . .
51(4) . . .
50(4) . . .
48(4) . . .
51(4) . . .
55(4) . . .
69(4) . . .
50(4) . . .
43(4) . . .
57(4) . . .
49(4) . . .
63(4) . . .
59(4) . . .
52(4) . . .
46(4) . . .
60(4) . . .
54(4) . . .
62(5) . . .
48(4) . . .
52(4) . . .
51(4) . . .
51(4) . . .
61(4) . . .
46(4) . . .
42.3(33) . . .
59(4) . . .
57(4) . . .
50(4) . . .
58(4) . . .
52(4) . . .
54(4) . . .
62(4) . . .
48(4) . . .
51(4) . . .
56(4) . . .
55(4) . . .
41.3(34) . . .
41.8(34) . . .
48(4) . . .
52(4) . . .
47(4) . . .
44(4) . . .
59(4) . . .
51(4) . . .
61(4) . . .
57(4) . . .
50(4) . . .
49(4) . . .
53(4) . . .
47(4) . . .
49(4) . . .
56(4) . . .
50(4) . . .
39.7(34) . . .
48(4) . . .
36.4(32) . . .
46(4) . . .
47(4) . . .
54(4) . . .
52(4) . . .
45(4) . . .
54(4) . . .
45(4) . . .
48(4) . . .
47(4) . . .
55(4) . . .
54(4) . . .
52(4) . . .
49(4) . . .
50(4) . . .
57(4) . . .
56(4) . . .
58(4) . . .
44.4(35) . . .
57(4) . . .
50(4) . . .
54(4) . . .
48(4) . . .
55(4) . . .
57(4) . . .
49(4) . . .
50(4) . . .
50(4) . . .
56(4) . . .
42.6(34) . . .
46(4) . . .
47(4) . . .
52(4) . . .
55(4) . . .
55(4) . . .
47(4) . . .
58(4) . . .
43.8(34) . . .
47(4) . . .
55(4) . . .
58(4) . . .
46.0(34) . . .
47(4) . . .
52(4) . . .
64(4) . . .
47(4) . . .
50(4) . . .
50(4) . . .
56(4) . . .
48(4) . . .
52(4) . . .
57(4) . . .
50(4) . . .
53(4) . . .
52(4) . . .
55(4) . . .
45(4) . . .
47(4) . . .
37.9(33) . . .
60(4) . . .
59(4) . . .
57(4) . . .
52(4) . . .
63(4) . . .
54(4) . . .
48(4) . . .
43(4) . . .
55(4) . . .
45.1(34) . . .
39.8(33) . . .
44(4) . . .
55(4) . . .
64(4) . . .
51(4) . . .
60(4) . . .
57(4) . . .
54(4) . . .
52(4) . . .
59(4) . . .
59(4) . . .
56(4) . . .
45(4) . . .
43(4) . . .
62(4) . . .
59(4) . . .
54(4) . . .
56(4) . . .
50(4) . . .
53(4) . . .
53(4) . . .
52(4) . . .
50(4) . . .
42.2(34) . . .
51(4) . . .
51(4) . . .
48(4) . . .
46(4) . . .
51(4) . . .
64(4) . . .
55(4) . . .
59(4) . . .
49(4) . . .
48(4) . . .
51(4) . . .
43(4) . . .
40.8(33) . . .
49(4) . . .
57(4) . . .
51(4) . . .
49(4) . . .
47(4) . . .
45(4) . . .
49(4) . . .
45.0(34) . . .
51(4) . . .
58(4) . . .
59(4) . . .
48(4) . . .
40.3(32) . . .
51(4) . . .
49(4) . . .
45.2(34) . . .
59(4) . . .
57(4) . . .
57(4) . . .
58(4) . . .
45(4) . . .
53(4) . . .
44.0(34) . . .
58(4) . . .
51(4) . . .
50(4) . . .
51(4) . . .
44(4) . . .
46(4) . . .
50(4) . . .
57(4) . . .
50(4) . . .
51(4) . . .
47(4) . . .
51(4) . . .
53(4) . . .
51(4) . . .
46(4) . . .
48(4) . . .
44(4) . . .
42.7(34) . . .
54(4) . . .
50(4) . . .
56(4) . . .
51(4) . . .
50(4) . . .
55(4) . . .
55(4) . . .
52(4) . . .
50(4) . . .
61(4) . . .
50(4) . . .
58(4) . . .
45(4) . . .
49(4) . . .
55(4) . . .
51(4) . . .
50(4) . . .
53(4) . . .
49(4) . . .
58(4) . . .
47(4) . . .
48(4) . . .
43.5(35) . . .
51(4) . . .
58(4) . . .
48(4) . . .
55(4) . . .
52(4) . . .
46(4) . . .
44(4) . . .
52(4) . . .
49(4) . . .
48(4) . . .
45(4) . . .
49(4) . . .
54(4) . . .
56(4) . . .
47(4) . . .
51(4) . . .
39.6(34) . . .
45(4) . . .
42.8(34) . . .
49(4) . . .
44.2(35) . . .
49(4) . . .
51(4) . . .
52(4) . . .
48(4) . . .
49(4) . . .
51(4) . . .
52(4) . . .
52(4) . . .
45(4) . . .
55(4) . . .
47(4) . . .
58(4) . . .
55(4) . . .
53(4) . . .
49(4) . . .
52(4) . . .
52(4) . . .
52(4) . . .
41.4(34) . . .
53(4) . . .
55(4) . . .
52(4) . . .
48(4) . . .
56(4) . . .
58(4) . . .
47(4) . . .
44(4) . . .
42.4(34) . . .
55(4) . . .
53(4) . . .
53(4) . . .
49(4) . . .
49(4) . . .
52(4) . . .
44(4) . . .
51(4) . . .
50(4) . . .
40.4(34) . . .
48(4) . . .
43(4) . . .
50(4) . . .
49(4) . . .
56(4) . . .
50(4) . . .
49(4) . . .
54(4) . . .
61(5) . . .
49(4) . . .
39.0(33) . . .
49(4) . . .
57(4) . . .
51(4) . . .
45(4) . . .
47(4) . . .
47(4) . . .
49(4) . . .
53(4) . . .
52(4) . . .
50(4) . . .
52(4) . . .
59(4) . . .
52(4) . . .
57(4) . . .
47(4) . . .
46(4) . . .
39.0(33) . . .
52(4) . . .
55(4) . . .
42.7(34) . . .
44(4) . . .
42(4) . . .
59(4) . . .
52(4) . . .
53(4) . . .
54(4) . . .
54(4) . . .
57(4) . . .
60(4) . . .
44(4) . . .
49(4) . . .
56(4) . . .
41.1(35) . . .
52(4) . . .
57(4) . . .
51(4) . . .
56(4) . . .
47(4) . . .
47(4) . . .
46(4) . . .
49(4) . . .
51(4) . . .
54(4) . . .
49(4) . . .
48(4) . . .
52(4) . . .
51(4) . . .
51(4) . . .
43.4(34) . . .
59(4) . . .
62(5) . . .
46(4) . . .
52(4) . . .
39.3(32) . . .
42.6(35) . . .
57(4) . . .
60(4) . . .
55(4) . . .
47(4) . . .
45(4) . . .
41(4) . . .
55(4) . . .
50(4) . . .
49(4) . . .
59(5) . . .
54(4) . . .
48(4) . . .
54(4) . . .
52(4) . . .
48(4) . . .
62(5) . . .
48(4) . . .
60(4) . . .
58(4) . . .
55(4) . . .
65(5) . . .
51(4) . . .
47(4) . . .
57(4) . . .
53(4) . . .
48(4) . . .
50(4) . . .
51(4) . . .
56(4) . . .
41.1(33) . . .
55(4) . . .
53(4) . . .
50(4) . . .
59(4) . . .
49(4) . . .
46(4) . . .
57(4) . . .
50(4) . . .
52(4) . . .
46(4) . . .
48(4) . . .
56(4) . . .
50(4) . . .
41(4) . . .
48(4) . . .
50(4) . . .
52(4) . . .
51(4) . . .
52(4) . . .
57(4) . . .
52(4) . . .
39.3(33) . . .
41.7(34) . . .
49(4) . . .
56(4) . . .
55(4) . . .
45.5(35) . . .
53(4) . . .
48(4) . . .
50(4) . . .
41.7(34) . . .
55(4) . . .
63(4) . . .
46(4) . . .
45(4) . . .
48(4) . . .
50(4) . . .
60(4) . . .
51(4) . . .
52(4) . . .
47(4) . . .
52(4) . . .
48(4) . . .
47(4) . . .
51(4) . . .
59(4) . . .
51(4) . . .
46(4) . . .
49(4) . . .
44(4) . . .
50(4) . . .
57(4) . . .
45.6(35) . . .
55(4) . . .
53(4) . . .
59(4) . . .
52(4) . . .
53(4) . . .
53(4) . . .
44(4) . . .
48(4) . . .
40.4(34) . . .
46(4) . . .
58(4) . . .
47(4) . . .
52(4) . . .
43.9(35) . . .
53(4) . . .
49(4) . . .
53(4) . . .
58(4) . . .
53(4) . . .
46(4) . . .
50(4) . . .
45(4) . . .
51(4) . . .
54(4) . . .
49(4) . . .
41(4) . . .
52(4) . . .
45.3(35) . . .
48(4) . . .
47(4) . . .
43(4) . . .
50(4) . . .
57(4) . . .
49(4) . . .
59(4) . . .
44(4) . . .
47(4) . . .
47(4) . . .
45.2(35) . . .
51(4) . . .
54(4) . . .
53(4) . . .
43.2(34) . . .
58(4) . . .
58(4) . . .
54(4) . . .
44(4) . . .
63(4) . . .
39.5(33) . . .
52(4) . . .
50(4) . . .
43(4) . . .
44.7(35) . . .
51(4) . . .
51(4) . . .
49(4) . . .
64(4) . . .
51(4) . . .
66(4) . . .
54(4) . . .
50(4) . . .
38.7(32) . . .
45(4) . . .
53(4) . . .
48(4) . . .
52(4) . . .
49(4) . . .
56(4) . . .
54(4) . . .
51(4) . . .
53(4) . . .
43.6(35) . . .
56(4) . . .
45(4) . . .
45(4) . . .
58(4) . . .
57(4) . . .
58(4) . . .
56(4) . . .
52(4) . . .
45(4) . . .
46(4) . . .
43.3(34) . . .
53(4) . . .
52(4) . . .
56(4) . . .
61(4) . . .
50(4) . . .
41(4) . . .
42(4) . . .
50(4) . . .
57(4) . . .
55(4) . . .
47(4) . . .
50(4) . . .
41.1(34) . . .
54(4) . . .
59(4) . . .
41.2(34) . . .
54(4) . . .
55(4) . . .
53(4) . . .
51(4) . . .
44(4) . . .
49(4) . . .
43.1(35) . . .
45.4(35) . . .
49(4) . . .
54(4) . . .
55(4) . . .
47(4) . . .
47(4) . . .
49(4) . . .
49(4) . . .
58(4) . . .
50(4) . . .
51(4) . . .
52(4) . . .
45(4) . . .
42.2(34) . . .
46(4) . . .
48(4) . . .
41.5(34) . . .
45(4) . . .
56(4) . . .
55(4) . . .
57(4) . . .
46(4) . . .
43(4) . . .
48(4) . . .
48(4) . . .
61(4) . . .
52(4) . . .
51(4) . . .
57(4) . . .
51(4) . . .
41.9(35) . . .
44(4) . . .
50(4) . . .
48(4) . . .
47(4) . . .
49(4) . . .
45(4) . . .
48(4) . . .
56(4) . . .
52(4) . . .
51(4) . . .
54(4) . . .
48(4) . . .
55(4) . . .
46(4) . . .
49(4) . . .
51(4) . . .
52(4) . . .
46(4) . . .
47(4) . . .
44(4) . . .
47(4) . . .
53(4) . . .
52(4) . . .
41.0(33) . . .
38.6(33) . . .
50(4) . . .
47(4) . . .
53(4) . . .
48(4) . . .
53(4) . . .
54(4) . . .
41.2(34) . . .
51(4) . . .
56(4) . . .
50(4) . . .
50(4) . . .
47(4) . . .
51(4) . . .
39.1(32) . . .
50(4) . . .
54(4) . . .
44(4) . . .
49(4) . . .
48(4) . . .
54(4) . . .
54(4) . . .
51(4) . . .
50(4) . . .
44.7(35) . . .
40.3(35) . . .
38.8(35) . . .
49(4) . . .
46(4) . . .
51(4) . . .
49(4) . . .
52(4) . . .
43.7(35) . . .
52(4) . . .
44(4) . . .
48(4) . . .
53(4) . . .
56(4) . . .
66(4) . . .
45(4) . . .
50(4) . . .
54(4) . . .
39.6(33) . . .
48(4) . . .
49(4) . . .
52(4) . . .
52(4) . . .
47(4) . . .
53(4) . . .
50(4) . . .
43(4) . . .
46(4) . . .
54(4) . . .
57(4) . . .
49(4) . . .
42.3(35) . . .
46(4) . . .
49(4) . . .
61(4) . . .
45(4) . . .
45(4) . . .
50(4) . . .
55(4) . . .
45.3(35) . . .
51(4) . . .
43(4) . . .
48(4) . . .
54(4) . . .
46.5(35) . . .
45(4) . . .
55(4) . . .
51(4) . . .
53(4) . . .
44.5(35) . . .
49(4) . . .
47(4) . . .
51(4) . . .
49(4) . . .
48(4) . . .
54(4) . . .
47(4) . . .
44(4) . . .
60(4) . . .
55(4) . . .
57(4) . . .
55(4) . . .
53(4) . . .
50(4) . . .
44.7(34) . . .
48(4) . . .
41.6(33) . . .
57(4) . . .
50(4) . . .
56(4) . . .
48(4) . . .
48(4) . . .
44(4) . . .
61(4) . . .
50(4) . . .
37.1(34) . . .
46(4) . . .
57(4) . . .
63(4) . . .
48(4) . . .
42.4(35) . . .
51(4) . . .
50(4) . . .
50(4) . . .
44.8(35) . . .
41.7(34) . . .
47(4) . . .
48(4) . . .
51(4) . . .
45(4) . . .
46(4) . . .
45(4) . . .
52(4) . . .
46(4) . . .
53(4) . . .
55(4) . . .
64(4) . . .
53(4) . . .
52(4) . . .
54(4) . . .
49(4) . . .
56(4) . . .
35.3(30) . . .
30.7(30) . . .
61(4) . . .
49(4) . . .
46(4) . . .
52(4) . . .
44(4) . . .
42.4(34) . . .
55(4) . . .
52(4) . . .
53(4) . . .
48(4) . . .
49(4) . . .
45(4) . . .
54(4) . . .
57(4) . . .
55(4) . . .
56(4) . . .
54(4) . . .
47(4) . . .
52(4) . . .
45(4) . . .
50(4) . . .
47(4) . . .
42.6(34) . . .
46(4) . . .
56(4) . . .
53(4) . . .
49(4) . . .
55(4) . . .
50(4) . . .
50(4) . . .
59(4) . . .
49(4) . . .
52(4) . . .
47(4) . . .
48(4) . . .
45(4) . . .
50(4) . . .
46(4) . . .
41.1(33) . . .
51(4) . . .
46(4) . . .
50(4) . . .
45(4) . . .
43.2(34) . . .
46(4) . . .
54(4) . . .
50(4) . . .
54(4) . . .
50(4) . . .
42.6(35) . . .
56(4) . . .
49(4) . . .
53(4) . . .
59(4) . . .
36.3(32) . . .
44(4) . . .
54(4) . . .
48(4) . . .
60(4) . . .
53(4) . . .
49(4) . . .
50(4) . . .
45.2(35) . . .
49(4) . . .
50(4) . . .
38.7(33) . . .
49(4) . . .
53(4) . . .
56(4) . . .
52(4) . . .
56(4) . . .
56(4) . . .
49(4) . . .
36.6(32) . . .
39.2(32) . . .
52(4) . . .
48(4) . . .
47(4) . . .
39.9(33) . . .
52(4) . . .
43.6(35) . . .
50(4) . . .
49(4) . . .
44(4) . . .
44(4) . . .
43(4) . . .
48(4) . . .
44.5(35) . . .
57(4) . . .
43(4) . . .
47(4) . . .
60(4) . . .
52(4) . . .
49(4) . . .
48(4) . . .
47(4) . . .
54(4) . . .
52(4) . . .
50(4) . . .
45(4) . . .
43.1(35) . . .
48(4) . . .
44.2(35) . . .
48(4) . . .
46(4) . . .
44(4) . . .
50(4) . . .
37.6(32) . . .
46(4) . . .
48(4) . . .
49(4) . . .
44.0(35) . . .
55(4) . . .
48(4) . . .
39.7(35) . . .
46(4) . . .
47(4) . . .
35.6(32) . . .
44(4) . . .
46(4) . . .
50(4) . . .
56(4) . . .
45.4(35) . . .
55(4) . . .
57(4) . . .
46(4) . . .
43.6(34) . . .
47(4) . . .
50(4) . . .
47(4) . . .
45.3(34) . . .
56(4) . . .
57(4) . . .
44(4) . . .
52(4) . . .
56(4) . . .
49(4) . . .
47(4) . . .
52(4) . . .
53(4) . . .
43.2(35) . . .
42.6(34) . . .
49(4) . . .
46(4) . . .
52(4) . . .
47(4) . . .
60(4) . . .
58(4) . . .
58(4) . . .
46(4) . . .
49(4) . . .
43.1(34) . . .
44(4) . . .
56(4) . . .
51(4) . . .
48(4) . . .
42.1(34) . . .
50(4) . . .
53(4) . . .
58(4) . . .
53(4) . . .
52(4) . . .
55(4) . . .
47(4) . . .
47(4) . . .
45.3(35) . . .
46(4) . . .
45(4) . . .
48(4) . . .
41.0(34) . . .
59(4) . . .
52(4) . . .
52(4) . . .
48(4) . . .
46(4) . . .
55(4) . . .
54(4) . . .
58(4) . . .
47(4) . . .
47(4) . . .
40.5(33) . . .
44(4) . . .
61(5) . . .
36.0(32) . . .
36.8(32) . . .
47(4) . . .
57(4) . . .
53(4) . . .
44.9(35) . . .
57(4) . . .
55(4) . . .
56(4) . . .
51(4) . . .
51(4) . . .
50(4) . . .
44.5(35) . . .
46(4) . . .
45(4) . . .
46(4) . . .
52(4) . . .
41.5(33) . . .
47(4) . . .
42(4) . . .
45(4) . . .
53(4) . . .
54(4) . . .
45(4) . . .
49(4) . . .
46(4) . . .
46.6(35) . . .
59(4) . . .
43.9(34) . . .
53(4) . . .
49(4) . . .
49(4) . . .
63(4) . . .
62(4) . . .
48(4) . . .
49(4) . . .
45(4) . . .
49(4) . . .
57(4) . . .
49(4) . . .
61(4) . . .
49(4) . . .
53(4) . . .
55(4) . . .
56(4) . . .
44.4(34) . . .
51(4) . . .
54(4) . . .
47(4) . . .
48(4) . . .
48(4) . . .
49(4) . . .
48(4) . . .
50(4) . . .
36.7(31) . . .
48(4) . . .
44.0(34) . . .
42(4) . . .
47(4) . . .
59(4) . . .
36.2(31) . . .
39.2(32) . . .
48(4) . . .
47.2(35) . . .
49(4) . . .
54(4) . . .
68(4) . . .
48(4) . . .
61(4) . . .
49(4) . . .
52(4) . . .
43.4(34) . . .
50(4) . . .
52(4) . . .
50(4) . . .
56(4) . . .
50(4) . . .
38.0(31) . . .
53(4) . . .
51(4) . . .
44.1(34) . . .
42(4) . . .
48(4) . . .
52(4) . . .
49(4) . . .
42.8(34) . . .
50(4) . . .
51(4) . . .
42.8(35) . . .
45(4) . . .
37.9(32) . . .
43.9(34) . . .
42.6(34) . . .
43(4) . . .
49(4) . . .
47(4) . . .
57(4) . . .
48(4) . . .
56(4) . . .
42.4(34) . . .
54(4) . . .
57(4) . . .
42(4) . . .
46(4) . . .
55(4) . . .
48(4) . . .
50(4) . . .
48(4) . . .
46(4) . . .
48(4) . . .
51(4) . . .
54(4) . . .
50(4) . . .
47(4) . . .
50(4) . . .
46(4) . . .
63(4) . . .
47(4) . . .
42.0(34) . . .
44.7(35) . . .
57(4) . . .
47(4) . . .
53(4) . . .
51(4) . . .
51(4) . . .
53(4) . . .
55(4) . . .
55(4) . . .
40.5(35) . . .
49(4) . . .
51(4) . . .
41.4(34) . . .
44(4) . . .
45(4) . . .
42.0(34) . . .
55(4) . . .
44(4) . . .
36.7(33) . . .
44(4) . . .
42.9(34) . . .
47(4) . . .
54(4) . . .
39.8(34) . . .
43(4) . . .
40.3(33) . . .
42.8(35) . . .
47(4) . . .
46(4) . . .
52(4) . . .
47(4) . . .
53(4) . . .
49(4) . . .
49(4) . . .
51(4) . . .
37.8(32) . . .
52(4) . . .
46(4) . . .
47(4) . . .
46(4) . . .
47(4) . . .
56(4) . . .
55(4) . . .
53(4) . . .
44.1(35) . . .
40.1(33) . . .
58(4) . . .
50(4) . . .
43(4) . . .
55(4) . . .
54(4) . . .
49(4) . . .
43(4) . . .
47(4) . . .
51(4) . . .
52(4) . . .
49(4) . . .
44(4) . . .
44(4) . . .
55(4) . . .
52(4) . . .
47(4) . . .
48(4) . . .
42.0(34) . . .
42.5(34) . . .
45(4) . . .
48(4) . . .
58(4) . . .
62(4) . . .
52(4) . . .
51(4) . . .
38.2(32) . . .
47(4) . . .
52(4) . . .
45.8(35) . . .
44.2(35) . . .
50(4) . . .
53(4) . . .
51(4) . . .
51(4) . . .
57(4) . . .
54(4) . . .
45(4) . . .
52(4) . . .
47(4) . . .
44(4) . . .
55(4) . . .
55(4) . . .
50(4) . . .
41.7(34) . . .
53(4) . . .
42(4) . . .
52(4) . . .
47(4) . . .
50(4) . . .
48(4) . . .
41(4) . . .
51(4) . . .
55(4) . . .
50(4) . . .
42.4(34) . . .
51(4) . . .
46(4) . . .
44.8(35) . . .
47(4) . . .
53(4) . . .
47(4) . . .
39.6(34) . . .
41.8(34) . . .
43.2(35) . . .
57(4) . . .
61(5) . . .
54(4) . . .
56(4) . . .
56(4) . . .
54(4) . . .
59(4) . . .
56(4) . . .
44.4(35) . . .
47(4) . . .
44(4) . . .
45(4) . . .
39.8(33) . . .
52(4) . . .
54(4) . . .
49(4) . . .
46(4) . . .
51(4) . . .
47(4) . . .
49(4) . . .
44(4) . . .
47(4) . . .
50(4) . . .
54(4) . . .
49(4) . . .
51(4) . . .
51(4) . . .
48(4) . . .
43.8(35) . . .
55(4) . . .
49(4) . . .
49(4) . . .
51(4) . . .
48(4) . . .
37.7(33) . . .
34.4(32) . . .
36.4(33) . . .
51(4) . . .
46(4) . . .
44(4) . . .
49(4) . . .
44(4) . . .
48(4) . . .
46(4) . . .
54(4) . . .
49(4) . . .
44(4) . . .
51(4) . . .
41.2(35) . . .
46(4) . . .
52(4) . . .
48(4) . . .
47(4) . . .
46(4) . . .
46(4) . . .
56(4) . . .
53(4) . . .
47(4) . . .
44(4) . . .
53(4) . . .
56(4) . . .
55(4) . . .
50(4) . . .
44.0(35) . . .
48(4) . . .
44(4) . . .
43(4) . . .
45.0(35) . . .
48(4) . . .
50(4) . . .
46(4) . . .
46(4) . . .
45(4) . . .
52(4) . . .
44(4) . . .
43.3(34) . . .
52(4) . . .
38.7(32) . . .
44(4) . . .
49(4) . . .
40.9(34) . . .
56(4) . . .
41.3(34) . . .
51(4) . . .
42(4) . . .
54(4) . . .
54(4) . . .
48(4) . . .
50(4) . . .
46(4) . . .
44(4) . . .
50(4) . . .
46(4) . . .
42(4) . . .
38.2(35) . . .
37.5(32) . . .
41.8(34) . . .
43.4(34) . . .
46(4) . . .
51(4) . . .
41.8(33) . . .
44.7(35) . . .
38.5(33) . . .
50(4) . . .
42(4) . . .
43(4) . . .
55(4) . . .
54(4) . . .
51(4) . . .
48(4) . . .
50(4) . . .
54(4) . . .
51(4) . . .
51(4) . . .
44.0(35) . . .
55(4) . . .
52(4) . . .
46(4) . . .
37.3(31) . . .
45(4) . . .
48(4) . . .
40.9(34) . . .
45(4) . . .
49(4) . . .
43(4) . . .
51(4) . . .
50(4) . . .
46(4) . . .
50(4) . . .
49(4) . . .
44.6(34) . . .
51(4) . . .
46(4) . . .
54(4) . . .
46(4) . . .
44.4(35) . . .
55(4) . . .
50(4) . . .
50(4) . . .
46(4) . . .
42.3(34) . . .
42.5(34) . . .
47(4) . . .
54(4) . . .
49(4) . . .
48(4) . . .
40.0(35) . . .
46(4) . . .
56(4) . . .
50(4) . . .
47(4) . . .
47(4) . . .
50(4) . . .
43(4) . . .
50(4) . . .
62(4) . . .
39.3(33) . . .
45.3(35) . . .
54(4) . . .
54(4) . . .
52(4) . . .
44.0(35) . . .
35.6(31) . . .
40.0(35) . . .
45(4) . . .
50(4) . . .
49(4) . . .
50(4) . . .
56(4) . . .
53(4) . . .
48(4) . . .
59(4) . . .
48.3(35) . . .
42.6(33) . . .
45(4) . . .
42.5(34) . . .
40.1(34) . . .
45(4) . . .
38.3(32) . . .
43.4(34) . . .
44.0(35) . . .
45(4) . . .
39(4) . . .
48(4) . . .
46(4) . . .
52(4) . . .
44(4) . . .
46(4) . . .
52(4) . . .
56(4) . . .
48(4) . . .
44(4) . . .
41(4) . . .
38.6(33) . . .
43.2(35) . . .
53(4) . . .
53(4) . . .
46(4) . . .
48(4) . . .
51(4) . . .
48(4) . . .
57(4) . . .
48(4) . . .
49(4) . . .
52(4) . . .
53(4) . . .
47(4) . . .
51(4) . . .
49(4) . . .
60(4) . . .
53(4) . . .
42(4) . . .
49(4) . . .
44.0(35) . . .
56(4) . . .
46(4) . . .
53(4) . . .
51(4) . . .
44.4(34) . . .
42.5(34) . . .
43(4) . . .
41.0(35) . . .
40.0(34) . . .
49(4) . . .
49(4) . . .
50(4) . . .
51(4) . . .
49(4) . . .
56(4) . . .
47(4) . . .
53(4) . . .
45(4) . . .
47(4) . . .
41.1(33) . . .
41.6(35) . . .
52(4) . . .
46(4) . . .
55(4) . . .
56(4) . . .
44.4(35) . . .
48(4) . . .
46(4) . . .
44(4) . . .
51(4) . . .
52(4) . . .
50(4) . . .
54(4) . . .
50(4) . . .
48(4) . . .
42.0(34) . . .
49(4) . . .
43(4) . . .
48(4) . . .
45.4(35) . . .
49(4) . . .
48(4) . . .
45(4) . . .
48(4) . . .
46(4) . . .
58(4) . . .
49(4) . . .
40.7(34) . . .
52(4) . . .
44(4) . . .
43(4) . . .
37.7(32) . . .
52(4) . . .
38.0(32) . . .
55(4) . . .
57(4) . . .
53(4) . . .
54(4) . . .
52(4) . . .
48(4) . . .
47(4) . . .
53(4) . . .
51(4) . . .
49(4) . . .
55(4) . . .
50(4) . . .
43(4) . . .
48(4) . . .
39.1(34) . . .
37.3(31) . . .
53(4) . . .
46(4) . . .
46(4) . . .
47(4) . . .
53(4) . . .
44.6(35) . . .
39.8(33) . . .
51(4) . . .
51(4) . . .
54(4) . . .
44.0(35) . . .
52(4) . . .
38.9(34) . . .
46(4) . . .
54(4) . . .
43(4) . . .
37.9(32) . . .
50(4) . . .
48(4) . . .
45(4) . . .
45(4) . . .
44(4) . . .
54(4) . . .
50(4) . . .
50(4) . . .
50(4) . . .
47(4) . . .
40.3(33) . . .
35.9(31) . . .
42.7(34) . . .
61(4) . . .
50(4) . . .
42.3(35) . . .
43.5(34) . . .
39.9(34) . . .
43(4) . . .
42.3(34) . . .
52(4) . . .
46(4) . . .
48(4) . . .
35.3(32) . . .
39.5(35) . . .
45(4) . . .
55(4) . . .
52(4) . . .
47(4) . . .
54(4) . . .
41.8(35) . . .
61(4) . . .
46(4) . . .
47(4) . . .
51(4) . . .
56(4) . . .
48(4) . . .
47(4) . . .
35.2(33) . . .
44(4) . . .
55(4) . . .
41.9(35) . . .
52(4) . . .
46(4) . . .
41.1(33) . . .
50(4) . . .
46.2(35) . . .
48(4) . . .
40(4) . . .
46(4) . . .
46(4) . . .
54(4) . . .
48(4) . . .
49(4) . . .
49(4) . . .
44.4(35) . . .
43(4) . . .
45(4) . . .
45(4) . . .
38.1(33) . . .
44.2(35) . . .
58(4) . . .
40(4) . . .
45(4) . . .
51(4) . . .
50(4) . . .
43.6(35) . . .
47(4) . . .
51(4) . . .
47(4) . . .
55(4) . . .
48(4) . . .
59(4) . . .
48(4) . . .
46(4) . . .
52(4) . . .
54(4) . . .
53(4) . . .
49(4) . . .
59(4) . . .
46(4) . . .
46(4) . . .
49(4) . . .
45(4) . . .
38.8(32) . . .
51(4) . . .
47(4) . . .
48(4) . . .
51(4) . . .
48(4) . . .
42.1(34) . . .
43.5(35) . . .
54(4) . . .
52(4) . . .
37.2(32) . . .
35.6(31) . . .
37.0(33) . . .
41.3(35) . . .
39.6(34) . . .
43.7(34) . . .
57(4) . . .
42.0(33) . . .
47(4) . . .
56(4) . . .
39.0(32) . . .
51(4) . . .
52(4) . . .
45.2(34) . . .
52(4) . . .
39.9(33) . . .
44(4) . . .
42(4) . . .
62(5) . . .
40.7(35) . . .
48(4) . . .
44(4) . . .
39.8(35) . . .
55(4) . . .
46(4) . . .
50(4) . . .
48(4) . . .
50(4) . . .
53(4) . . .
44.6(35) . . .
44.0(35) . . .
47(4) . . .
53(4) . . .
43.6(35) . . .
41.7(34) . . .
49(4) . . .
51(4) . . .
49(4) . . .
44(4) . . .
48(4) . . .
62(4) . . .
46(4) . . .
50(4) . . .
41.4(35) . . .
51(4) . . .
53(4) . . .
39.6(33) . . .
43(4) . . .
48(4) . . .
48(4) . . .
53(4) . . .
45.8(34) . . .
53(4) . . .
49(4) . . .
42.6(34) . . .
47(4) . . .
53(4) . . .
41.7(35) . . .
41.7(34) . . .
52(4) . . .
46(4) . . .
54(4) . . .
46(4) . . .
47(4) . . .
43.1(34) . . .
52(4) . . .
37.7(33) . . .
45(4) . . .
46(4) . . .
44.8(34) . . .
42.2(35) . . .
51(4) . . .
39.0(32) . . .
43.3(35) . . .
36.0(31) . . .
47(4) . . .
50(4) . . .
53(4) . . .
49(4) . . .
43.7(35) . . .
42(4) . . .
47(4) . . .
51(4) . . .
45(4) . . .
50(4) . . .
43.9(34) . . .
40.9(34) . . .
53(4) . . .
46(4) . . .
57(4) . . .
61(4) . . .
50(4) . . .
40.5(35) . . .
62(4) . . .
56(4) . . .
57(4) . . .
44(4) . . .
41.8(35) . . .
54(4) . . .
44.4(34) . . .
50(4) . . .
47(4) . . .
43(4) . . .
39.9(34) . . .
53(4) . . .
44(4) . . .
43(4) . . .
44(4) . . .
43.2(34) . . .
60(4) . . .
49(4) . . .
39.8(34) . . .
41(4) . . .
44.7(34) . . .
44.3(35) . . .
49(4) . . .
48(4) . . .
43(4) . . .
50(4) . . .
51(4) . . .
42.5(35) . . .
47(4) . . .
53(4) . . .
54(4) . . .
45(4) . . .
40.2(34) . . .
49(4) . . .
50(4) . . .
46(4) . . .
40.2(34) . . .
46(4) . . .
50(4) . . .
50(4) . . .
50(4) . . .
40.5(34) . . .
46(4) . . .
52(4) . . .
48(4) . . .
50(4) . . .
42(4) . . .
45(4) . . .
43(4) . . .
42.1(34) . . .
51(4) . . .
51(4) . . .
46(4) . . .
42.9(35) . . .
40.5(33) . . .
45.3(35) . . .
39.8(33) . . .
51(4) . . .
50(4) . . .
41.7(33) . . .
44.3(35) . . .
49(4) . . .
40.7(35) . . .
42(4) . . .
48(4) . . .
43(4) . . .
38.8(34) . . .
47(4) . . .
50(4) . . .
52(4) . . .
45.8(35) . . .
52(4) . . .
44(4) . . .
45(4) . . .
57(4) . . .
46(4) . . .
47(4) . . .
52(4) . . .
48(4) . . .
45(4) . . .
53(4) . . .
43(4) . . .
37.7(33) . . .
48(4) . . .
53(4) . . .
55(4) . . .
56(4) . . .
51(4) . . .
46(4) . . .
43.0(34) . . .
52(4) . . .
46(4) . . .
41.4(35) . . .
42.9(34) . . .
47(4) . . .
46(4) . . .
48(4) . . .
61(4) . . .
54(4) . . .
42.3(33) . . .
45(4) . . .
45(4) . . .
49(4) . . .
47(4) . . .
51(4) . . .
52(4) . . .
54(4) . . .
54(4) . . .
51(4) . . .
37.9(32) . . .
54(4) . . .
49(4) . . .
38.0(33) . . .
50(4) . . .
48(4) . . .
41.2(34) . . .
43(4) . . .
51(4) . . .
41.7(34) . . .
52(4) . . .
49(4) . . .
43(4) . . .
39.7(33) . . .
52(4) . . .
44.8(35) . . .
49(4) . . .
41.2(34) . . .
47(4) . . .
51(4) . . .
39.1(33) . . .
37.6(34) . . .
53(4) . . .
43(4) . . .
41.9(34) . . .
44(4) . . .
43(4) . . .
44(4) . . .
47(4) . . .
49(4) . . .
49(4) . . .
44(4) . . .
52(4) . . .
56(4) . . .
36.7(32) . . .
53(4) . . .
52(4) . . .
45(4) . . .
49(4) . . .
46(4) . . .
43(4) . . .
55(4) . . .
47(4) . . .
55(4) . . .
43.1(34) . . .
48(4) . . .
47(4) . . .
49(4) . . .
53(4) . . .
52(4) . . .
46(4) . . .
46(4) . . .
50(4) . . .
54(4) . . .
54(4) . . .
48(4) . . .
40(4) . . .
38.0(32) . . .
50(4) . . .
45(4) . . .
41(4) . . .
45(4) . . .
55(4) . . .
55(4) . . .
51(4) . . .
55(4) . . .
46(4) . . .
45(4) . . .
46(4) . . .
47(4) . . .
56(4) . . .
44(4) . . .
47(4) . . .
44.1(35) . . .
44(4) . . .
53(4) . . .
42.8(33) . . .
52(4) . . .
42.9(35) . . .
42(4) . . .
48(4) . . .
57(4) . . .
46(4) . . .
49(4) . . .
36.3(32) . . .
42(4) . . .
45(4) . . .
41.0(33) . . .
49(4) . . .
64(4) . . .
57(4) . . .
49(4) . . .
49(4) . . .
46(4) . . .
43.2(34) . . .
54(4) . . .
47(4) . . .
49(4) . . .
50(4) . . .
49(4) . . .
46(4) . . .
45(4) . . .
48(4) . . .
53(4) . . .
46(4) . . .
42(4) . . .
47(4) . . .
42.1(34) . . .
49(4) . . .
46(4) . . .
44(4) . . .
46(4) . . .
45.1(35) . . .
47(4) . . .
47(4) . . .
49(4) . . .
52(4) . . .
51(4) . . .
50(4) . . .
54(4) . . .
55(4) . . .
49(4) . . .
42.5(35) . . .
49(4) . . .
51(4) . . .
49(4) . . .
46(4) . . .
44.8(35) . . .
46(4) . . .
51(4) . . .
50(4) . . .
49(4) . . .
48(4) . . .
52(4) . . .
41.0(34) . . .
60(4) . . .
37.5(32) . . .
42.2(34) . . .
48(4) . . .
29.3(28) . . .
49(4) . . .
39.0(32) . . .
37.8(32) . . .
39.8(33) . . .
47(4) . . .
40.7(33) . . .
46.8(35) . . .
44.8(35) . . .
54(4) . . .
50(4) . . .
50(4) . . .
49(4) . . .
50(4) . . .
45(4) . . .
49(4) . . .
46(4) . . .
53(4) . . .
55(4) . . .
53(4) . . .
40.2(35) . . .
40.7(34) . . .
44.2(35) . . .
48(4) . . .
45(4) . . .
49(4) . . .
45.5(35) . . .
42.7(34) . . .
43(4) . . .
43(4) . . .
48(4) . . .
40.8(35) . . .
50(4) . . .
46(4) . . .
41.5(35) . . .
44(4) . . .
47(4) . . .
45(4) . . .
56(4) . . .
52(4) . . .
49(4) . . .
54(4) . . .
52(4) . . .
44.1(35) . . .
40.9(35) . . .
56(4) . . .
45.3(34) . . .
56(4) . . .
45(4) . . .
52(4) . . .
42.5(35) . . .
45(4) . . .
44.2(34) . . .
48(4) . . .
46(4) . . .
53(4) . . .
43.0(34) . . .
49(4) . . .
56(4) . . .
46(4) . . .
41(4) . . .
53(4) . . .
44.5(35) . . .
49(4) . . .
48(4) . . .
57(4) . . .
40.3(33) . . .
46(4) . . .
39.5(32) . . .
45(4) . . .
48(4) . . .
50(4) . . .
53(4) . . .
53(4) . . .
39.6(34) . . .
39.4(33) . . .
38.5(33) . . .
52(4) . . .
50(4) . . .
45(4) . . .
50(4) . . .
46(4) . . .
38.5(33) . . .
48(4) . . .
41.9(35) . . .
57(4) . . .
40.9(34) . . .
50(4) . . .
38.4(32) . . .
36.8(32) . . .
42.1(34) . . .
50(4) . . .
59(4) . . .
42(4) . . .
48(4) . . .
49(4) . . .
45(4) . . .
47(4) . . .
47(4) . . .
50(4) . . .
40.8(33) . . .
41.6(34) . . .
45(4) . . .
43(4) . . .
48(4) . . .
43.1(34) . . .
48(4) . . .
50(4) . . .
40(4) . . .
46(4) . . .
53(4) . . .
44.9(35) . . .
43(4) . . .
44(4) . . .
36.0(31) . . .
42.0(34) . . .
56(4) . . .
48(4) . . .
43(4) . . .
37.2(33) . . .
37.9(32) . . .
42(4) . . .
55(4) . . .
45.4(35) . . .
54(4) . . .
51(4) . . .
48(4) . . .
44(4) . . .
47(4) . . .
47(4) . . .
46.1(35) . . .
44(4) . . .
52(4) . . .
47(4) . . .
45(4) . . .
48(4) . . .
47(4) . . .
47(4) . . .
41.1(34) . . .
43.0(34) . . .
49(4) . . .
48(4) . . .
48(4) . . .
42.2(35) . . .
37.7(32) . . .
49(4) . . .
48(4) . . .
49(4) . . .
37.8(31) . . .
50(4) . . .
50(4) . . .
44.7(35) . . .
45(4) . . .
47(4) . . .
44.5(35) . . .
48(4) . . .
46(4) . . .
45(4) . . .
42.4(34) . . .
47(4) . . .
49(4) . . .
59(4) . . .
61(4) . . .
53(4) . . .
46(4) . . .
49(4) . . .
50(4) . . .
52(4) . . .
47(4) . . .
37.8(32) . . .
47(4) . . .
49(4) . . .
50(4) . . .
49(4) . . .
60(4) . . .
54(4) . . .
46(4) . . .
44(4) . . .
40.1(34) . . .
51(4) . . .
48(4) . . .
45(4) . . .
40.9(33) . . .
49(4) . . .
43.5(35) . . .
51(4) . . .
47(4) . . .
47(4) . . .
38.3(32) . . .
49(4) . . .
39.9(33) . . .
42(4) . . .
39.6(33) . . .
47(4) . . .
49(4) . . .
51(4) . . .
50(4) . . .
48(4) . . .
49(4) . . .
36.9(32) . . .
41.9(35) . . .
40.8(34) . . .
43(4) . . .
41.8(34) . . .
45.2(35) . . .
43.2(34) . . .
47(4) . . .
51(4) . . .
47(4) . . .
44.6(34) . . .
58(4) . . .
51(4) . . .
48(4) . . .
63(4) . . .
40.1(33) . . .
45(4) . . .
47(4) . . .
48(4) . . .
38.2(32) . . .
48(4) . . .
48(4) . . .
54(4) . . .
47(4) . . .
45.2(35) . . .
44(4) . . .
45(4) . . .
37.3(32) . . .
48(4) . . .
35.8(32) . . .
50(4) . . .
46(4) . . .
54(4) . . .
42(4) . . .
44.2(35) . . .
45(4) . . .
45(4) . . .
38.9(33) . . .
41(4) . . .
43.4(34) . . .
40.0(33) . . .
54(4) . . .
58(4) . . .
52(4) . . .
44.5(35) . . .
44(4) . . .
42(4) . . .
42.0(34) . . .
51(4) . . .
55(4) . . .
42(4) . . .
47(4) . . .
44(4) . . .
53(4) . . .
51(4) . . .
38.7(34) . . .
41(4) . . .
48(4) . . .
38.9(33) . . .
44.5(35) . . .
35.0(30) . . .
38.2(33) . . .
43(4) . . .
49(4) . . .
47(4) . . .
49(4) . . .
47(4) . . .
55(4) . . .
46(4) . . .
43.3(34) . . .
40.1(34) . . .
38.1(32) . . .
42.4(35) . . .
48(4) . . .
56(4) . . .
44(4) . . .
43(4) . . .
45(4) . . .
46(4) . . .
28.6(28) . . .
43(4) . . .
53(4) . . .
56(4) . . .
44(4) . . .
39(4) . . .
43(4) . . .
37.2(34) . . .
37.1(32) . . .
43.6(35) . . .
50(4) . . .
43(4) . . .
48(4) . . .
46(4) . . .
46(4) . . .
46(4) . . .
42(4) . . .
40.5(33) . . .
44.9(35) . . .
36.8(32) . . .
42.0(33) . . .
42.3(35) . . .
49(4) . . .
47(4) . . .
38.4(33) . . .
38.8(32) . . .
44(4) . . .
35.5(33) . . .
48(4) . . .
43.3(34) . . .
44.2(34) . . .
53(4) . . .
47(4) . . .
34.1(30) . . .
42.3(35) . . .
47(4) . . .
41.1(34) . . .
44(4) . . .
38.8(32) . . .
40.6(35) . . .
42(4) . . .
38.2(33) . . .
48(4) . . .
44.3(35) . . .
38.7(33) . . .
39.6(34) . . .
45(4) . . .
44(4) . . .
35.3(31) . . .
44.0(35) . . .
54(4) . . .
42(4) . . .
49(4) . . .
48(4) . . .
45(4) . . .
38.1(34) . . .
50(4) . . .
42.0(35) . . .
48(4) . . .
50(4) . . .
48(4) . . .
46(4) . . .
44(4) . . .
42.5(34) . . .
42.7(35) . . .
48(4) . . .
49(4) . . .
45(4) . . .
35.0(31) . . .
37.0(31) . . .
39.6(34) . . .
41.2(33) . . .
43.6(35) . . .
51(4) . . .
52(4) . . .
49(4) . . .
51(4) . . .
55(4) . . .
46(4) . . .
48(4) . . .
45(4) . . .
38.1(32) . . .
37.2(32) . . .
43(4) . . .
43.1(35) . . .
51(4) . . .
49(4) . . .
44.9(35) . . .
45.8(35) . . .
53(4) . . .
32.4(29) . . .
46(4) . . .
46(4) . . .
39.1(32) . . .
48(4) . . .
48(4) . . .
44.3(35) . . .
50(4) . . .
40.5(33) . . .
49(4) . . .
43.8(35) . . .
42.0(35) . . .
39.2(32) . . .
49(4) . . .
47(4) . . .
47(4) . . .
48(4) . . .
43.0(34) . . .
50(4) . . .
35.1(31) . . .
42(4) . . .
38.2(33) . . .
39.0(33) . . .
39.6(34) . . .
50(4) . . .
47(4) . . .
52(4) . . .
43.7(34) . . .
49(4) . . .
43(4) . . .
41(4) . . .
36.1(31) . . .
53(4) . . .
47(4) . . .
44(4) . . .
40.4(34) . . .
38.2(32) . . .
37.7(32) . . .
41.8(34) . . .
48(4) . . .
43(4) . . .
33.3(30) . . .
50(4) . . .
51(4) . . .
36.5(32) . . .
42.1(34) . . .
39.7(32) . . .
53(4) . . .
55(4) . . .
37.6(33) . . .
40.5(34) . . .
48(4) . . .
35.5(32) . . .
42(4) . . .
42(4) . . .
47(4) . . .
48(4) . . .
47(4) . . .
35.8(31) . . .
43(4) . . .
35.8(31) . . .
43.0(34) . . .
36.8(32) . . .
50(4) . . .
55(4) . . .
40.8(33) . . .
47(4) . . .
48(4) . . .
45(4) . . .
45(4) . . .
37.2(32) . . .
37.5(32) . . .
46(4) . . .
39.7(34) . . .
44(4) . . .
45(4) . . .
48(4) . . .
47(4) . . .
46(4) . . .
43.2(33) . . .
47(4) . . .
44.2(34) . . .
46(4) . . .
38.0(33) . . .
46(4) . . .
41.6(33) . . .
37.6(33) . . .
41.3(34) . . .
33.7(33) . . .
41.4(34) . . .
39.0(33) . . .
50(4) . . .
41.7(34) . . .
51(4) . . .
53(4) . . .
46(4) . . .
39.8(32) . . .
45(4) . . .
44(4) . . .
45(4) . . .
37.2(32) . . .
39.0(33) . . .
46(4) . . .
42.0(35) . . .
42.6(35) . . .
52(4) . . .
49(4) . . .
54(4) . . .
39.7(35) . . .
51(4) . . .
48(4) . . .
42.0(35) . . .
34.1(31) . . .
47(4) . . .
48(4) . . .
52(4) . . .
39.8(35) . . .
43(4) . . .
48(4) . . .
41.8(35) . . .
48(4) . . .
45(4) . . .
40.7(35) . . .
46(4) . . .
44(4) . . .
40.1(33) . . .
35.7(32) . . .
50(4) . . .
46(4) . . .
45.2(34) . . .
48(4) . . .
31.7(30) . . .
48(4) . . .
42.2(35) . . .
55(4) . . .
50(4) . . .
45(4) . . .
44(4) . . .
41(4) . . .
48(4) . . .
41.9(33) . . .
47(4) . . .
38.9(34) . . .
46(4) . . .
47(4) . . .
41.3(33) . . .
49(4) . . .
44(4) . . .
45(4) . . .
50(4) . . .
36.8(31) . . .
51(4) . . .
42(4) . . .
48(4) . . .
47(4) . . .
36.6(33) . . .
51(4) . . .
38.9(33) . . .
47(4) . . .
39.7(33) . . .
41.3(34) . . .
44(4) . . .
48(4) . . .
37.3(33) . . .
34.3(31) . . .
37.8(31) . . .
44(4) . . .
36.0(32) . . .
49(4) . . .
40.6(34) . . .
33.5(30) . . .
33.6(30) . . .
41.5(35) . . .
38.2(33) . . .
41.7(34) . . .
43.0(35) . . .
50(4) . . .
58(4) . . .
40.8(33) . . .
47(4) . . .
39.8(34) . . .
39.9(34) . . .
45(4) . . .
47(4) . . .
41.5(33) . . .
43(4) . . .
45(4) . . .
48(4) . . .
42.3(33) . . .
43(4) . . .
41.9(33) . . .
35.5(31) . . .
47(4) . . .
42.6(34) . . .
47(4) . . .
42(4) . . .
40(4) . . .
51(4) . . .
51(4) . . .
33.1(30) . . .
40.4(35) . . .
39(4) . . .
41.9(35) . . .
44.5(35) . . .
47(4) . . .
49(4) . . .
38.3(34) . . .
44(4) . . .
52(4) . . .
46(4) . . .
49(4) . . .
47(4) . . .
42.8(34) . . .
41.6(33) . . .
44(4) . . .
51(4) . . .
48(4) . . .
46(4) . . .
42.3(34) . . .
49(4) . . .
50(4) . . .
40.8(34) . . .
40.3(33) . . .
38.0(33) . . .
36.4(32) . . .
41(4) . . .
51(4) . . .
53(4) . . .
44.3(35) . . .
41.2(35) . . .
44(4) . . .
42.5(35) . . .
42.6(34) . . .
48(4) . . .
46(4) . . .
52(4) . . .
43.5(35) . . .
42.0(35) . . .
44.7(35) . . .
41.6(34) . . .
45(4) . . .
42.8(34) . . .
49(4) . . .
45.3(35) . . .
44(4) . . .
41(4) . . .
45(4) . . .
43.0(34) . . .
43(4) . . .
47(4) . . .
43(4) . . .
42(4) . . .
53(4) . . .
43.9(34) . . .
40.2(34) . . .
41(4) . . .
47(4) . . .
50(4) . . .
36.5(32) . . .
51(4) . . .
53(4) . . .
43.7(35) . . .
51(4) . . .
43.2(34) . . .
39.3(33) . . .
44.1(34) . . .
54(4) . . .
35.4(31) . . .
43.5(35) . . .
37.8(32) . . .
42.3(35) . . .
47(4) . . .
45(4) . . .
34.1(32) . . .
37.5(34) . . .
41.6(35) . . .
37.6(33) . . .
41.3(34) . . .
36.6(31) . . .
41(4) . . .
49(4) . . .
39.2(32) . . .
42.5(34) . . .
49(4) . . .
38.6(34) . . .
40.0(34) . . .
45(4) . . .
38.3(32) . . .
52(4) . . .
35.6(31) . . .
53(4) . . .
44.0(35) . . .
36.4(32) . . .
46(4) . . .
47(4) . . .
41.8(33) . . .
49(4) . . .
49(4) . . .
40.9(33) . . .
42.3(35) . . .
45(4) . . .
41.7(34) . . .
46(4) . . .
38.0(32) . . .
49(4) . . .
41(4) . . .
35.8(31) . . .
37.6(32) . . .
47(4) . . .
53(4) . . .
42.2(34) . . .
47(4) . . .
44(4) . . .
48(4) . . .
46(4) . . .
42.6(34) . . .
45.3(35) . . .
39.5(34) . . .
40.5(34) . . .
40.7(34) . . .
35.1(32) . . .
45.5(35) . . .
48(4) . . .
46(4) . . .
46(4) . . .
47(4) . . .
45(4) . . .
42(4) . . .
39.8(35) . . .
52(4) . . .
47(4) . . .
55(4) . . .
47(4) . . .
42.8(34) . . .
40.0(33) . . .
40.9(33) . . .
50(4) . . .
41.4(34) . . .
45(4) . . .
34.1(31) . . .
43.7(34) . . .
37.2(33) . . .
28.9(28) . . .
39.8(35) . . .
40.8(33) . . .
54(4) . . .
47.3(35) . . .
43(4) . . .
47(4) . . .
54(4) . . .
49(4) . . .
42.9(34) . . .
45(4) . . .
50(4) . . .
43(4) . . .
39.9(33) . . .
44(4) . . .
37.4(32) . . .
43(4) . . .
50(4) . . .
52(4) . . .
44.3(35) . . .
47(4) . . .
47(4) . . .
43.7(35) . . .
37.9(32) . . .
45(4) . . .
44(4) . . .
41(4) . . .
38.8(33) . . .
41.5(34) . . .
46(4) . . .
49(4) . . .
48(4) . . .
41.6(34) . . .
47(4) . . .
53(4) . . .
53(4) . . .
43.0(34) . . .
39.0(34) . . .
42.0(34) . . .
41.6(34) . . .
44(4) . . .
35.5(31) . . .
33.5(30) . . .
40.3(33) . . .
33.0(30) . . .
41(4) . . .
40.2(35) . . .
40.5(34) . . .
53(4) . . .
44(4) . . .
34.5(31) . . .
45(4) . . .
41.9(33) . . .
46(4) . . .
41(4) . . .
50(4) . . .
38.8(33) . . .
35.6(31) . . .
46(4) . . .
37.1(33) . . .
46(4) . . .
39.0(33) . . .
43.6(34) . . .
43.2(34) . . .
46(4) . . .
42(4) . . .
41.4(34) . . .
39.3(33) . . .
33.4(30) . . .
46(4) . . .
54(4) . . .
50(4) . . .
29.1(28) . . .
45(4) . . .
38.2(33) . . .
32.6(29) . . .
36.6(31) . . .
50(4) . . .
44(4) . . .
42.1(34) . . .
42.5(35) . . .
45(4) . . .
39.5(33) . . .
47(4) . . .
46(4) . . .
49(4) . . .
36.2(31) . . .
43.5(35) . . .
46(4) . . .
43(4) . . .
44(4) . . .
44(4) . . .
39.8(33) . . .
40.2(33) . . .
42.5(34) . . .
42(4) . . .
46(4) . . .
45.0(35) . . .
43(4) . . .
44(4) . . .
40.2(35) . . .
38.9(33) . . .
42.2(34) . . .
41.1(34) . . .
48(4) . . .
48(4) . . .
49(4) . . .
35.7(31) . . .
41(4) . . .
46(4) . . .
41(4) . . .
42.8(35) . . .
41.0(33) . . .
45(4) . . .
38.0(34) . . .
40(4) . . .
45.7(35) . . .
52(4) . . .
45(4) . . .
42(4) . . .
34.1(31) . . .
40.9(33) . . .
38.1(35) . . .
41.6(35) . . .
41.7(33) . . .
49(4) . . .
36.2(32) . . .
46(4) . . .
36.6(31) . . .
36.5(31) . . .
38.8(32) . . .
37.6(32) . . .
37.9(35) . . .
39(4) . . .
40(4) . . .
43.0(34) . . .
50(4) . . .
43.6(34) . . .
43(4) . . .
47(4) . . .
44.9(35) . . .
35.6(31) . . .
43.4(35) . . .
37.2(33) . . .
51(4) . . .
48(4) . . .
41.5(34) . . .
39.0(33) . . .
47(4) . . .
50(4) . . .
46(4) . . .
43.1(35) . . .
53(4) . . .
41.7(34) . . .
38(4) . . .
41.3(34) . . .
47(4) . . .
51(4) . . .
48(4) . . .
56(4) . . .
44.5(35) . . .
39.5(33) . . .
49(4) . . .
37.8(33) . . .
41.4(34) . . .
36.5(32) . . .
39.3(32) . . .
36.6(32) . . .
40(4) . . .
30.2(29) . . .
33.1(29) . . .
40.8(35) . . .
47(4) . . .
42.8(34) . . .
41.6(35) . . .
44.2(35) . . .
44(4) . . .
37(4) . . .
42.1(34) . . .
46(4) . . .
50(4) . . .
46(4) . . .
39.3(33) . . .
47(4) . . .
41.8(35) . . .
48(4) . . .
38.1(33) . . .
39.7(34) . . .
45(4) . . .
39.1(33) . . .
38.2(32) . . .
44(4) . . .
44(4) . . .
33.2(31) . . .
35.8(33) . . .
37.3(31) . . .
41(4) . . .
49(4) . . .
52(4) . . .
41.0(33) . . .
45(4) . . .
41.1(34) . . .
48(4) . . .
44(4) . . .
43.0(34) . . .
38.3(32) . . .
34.3(32) . . .
47(4) . . .
42.7(34) . . .
38.6(33) . . .
47(4) . . .
49(4) . . .
44(4) . . .
41(4) . . .
46(4) . . .
44(4) . . .
40.4(34) . . .
39.3(35) . . .
45(4) . . .
51(4) . . .
44.0(35) . . .
47(4) . . .
46(4) . . .
46(4) . . .
44.8(34) . . .
39.0(34) . . .
43(4) . . .
48(4) . . .
38.7(33) . . .
40.9(33) . . .
39.3(34) . . .
38(4) . . .
46(4) . . .
44.5(35) . . .
41.7(34) . . .
40.8(33) . . .
35.0(32) . . .
41.5(35) . . .
38.4(32) . . .
38.2(32) . . .
46(4) . . .
43.0(35) . . .
44(4) . . .
34.2(30) . . .
40.4(33) . . .
41.5(35) . . .
42(4) . . .
46(4) . . .
43.8(35) . . .
51(4) . . .
45(4) . . .
44(4) . . .
49(4) . . .
41.0(33) . . .
42.3(33) . . .
42.2(34) . . .
34.1(33) . . .
39.3(34) . . .
42.7(34) . . .
41.2(34) . . .
41.3(33) . . .
47(4) . . .
43(4) . . .
48(4) . . .
38.4(33) . . .
30.7(29) . . .
45(4) . . .
40.0(32) . . .
51(4) . . .
44(4) . . .
37.5(33) . . .
43(4) . . .
42(4) . . .
45.4(35) . . .
40.1(35) . . .
40.5(35) . . .
51(4) . . .
44(4) . . .
49(4) . . .
39.4(34) . . .
43(4) . . .
54(4) . . .
39.9(33) . . .
42.7(34) . . .
38.3(34) . . .
44(4) . . .
46(4) . . .
46(4) . . .
41.2(33) . . .
35.5(33) . . .
41(4) . . .
44(4) . . .
47(4) . . .
41.8(34) . . .
47(4) . . .
43(4) . . .
49(4) . . .
42.5(35) . . .
54(4) . . .
42.6(35) . . .
45(4) . . .
47(4) . . .
49(4) . . .
37.3(33) . . .
46(4) . . .
57(4) . . .
39.8(32) . . .
46(4) . . .
40.8(33) . . .
50(4) . . .
37.9(32) . . .
40.3(33) . . .
45.4(35) . . .
40.6(33) . . .
37.1(34) . . .
37.1(34) . . .
46(4) . . .
46(4) . . .
49(4) . . .
41(4) . . .
47(4) . . .
38.0(33) . . .
40.5(34) . . .
49(4) . . .
36.5(34) . . .
39.2(34) . . .
44.9(34) . . .
44(4) . . .
34.6(32) . . .
38.8(34) . . .
38.0(33) . . .
50(4) . . .
39.5(33) . . .
34.5(33) . . .
47(4) . . .
38.7(34) . . .
38.4(32) . . .
38.1(32) . . .
44(4) . . .
45(4) . . .
41.3(33) . . .
37.8(33) . . .
43.9(34) . . .
44.5(35) . . .
38.1(34) . . .
43(4) . . .
35.5(31) . . .
37.1(32) . . .
40.8(34) . . .
38(4) . . .
40.9(34) . . .
40.5(34) . . .
43.9(35) . . .
34.8(30) . . .
43(4) . . .
43(4) . . .
42.4(34) . . .
43.9(35) . . .
42.4(34) . . .
56(4) . . .
41.5(34) . . .
42.2(34) . . .
38.1(33) . . .
37.7(34) . . .
46(4) . . .
41.5(34) . . .
47(4) . . .
48(4) . . .
45(4) . . .
45(4) . . .
41.5(35) . . .
34.5(30) . . .
39.5(33) . . .
52(4) . . .
46(4) . . .
56(4) . . .
31.0(29) . . .
37.8(33) . . .
40(4) . . .
39.9(34) . . .
51(4) . . .
42.2(34) . . .
40.2(34) . . .
35.2(32) . . .
40.8(34) . . .
47(4) . . .
37.2(32) . . .
44.5(35) . . .
45(4) . . .
39.9(34) . . .
38.0(33) . . .
37.7(32) . . .
32.4(30) . . .
35.7(33) . . .
43(4) . . .
51(4) . . .
40.1(33) . . .
48(4) . . .
48(4) . . .
48(4) . . .
40.3(34) . . .
46(4) . . .
41.3(33) . . .
46(4) . . .
46(4) . . .
36.0(33) . . .
43.5(34) . . .
42.2(34) . . .
47(4) . . .
34.1(30) . . .
41.5(33) . . .
33.6(31) . . .
42(4) . . .
42(4) . . .
35.7(31) . . .
39.6(33) . . .
51(4) . . .
53(4) . . .
45(4) . . .
33.8(30) . . .
39.2(33) . . .
30.0(29) . . .
34.4(32) . . .
43(4) . . .
39.6(33) . . .
46(4) . . .
41.7(33) . . .
44.8(35) . . .
44(4) . . .
32.3(31) . . .
32.3(29) . . .
42.7(35) . . .
38.1(34) . . .
36.6(33) . . .
35.2(31) . . .
37.3(32) . . .
42(4) . . .
40.6(34) . . .
46(4) . . .
33.8(30) . . .
44.3(35) . . .
39.4(34) . . .
47(4) . . .
45(4) . . .
48(4) . . .
40.5(33) . . .
40.4(35) . . .
38.3(33) . . .
38.8(33) . . .
51(4) . . .
41.6(34) . . .
39.5(33) . . .
40.8(34) . . .
38.3(32) . . .
44.0(35) . . .
43.3(34) . . .
47(4) . . .
39.3(35) . . .
39.5(34) . . .
33.1(30) . . .
41.1(33) . . .
35.6(32) . . .
38.4(34) . . .
34.1(31) . . .
38.9(32) . . .
45(4) . . .
42.5(35) . . .
41.5(34) . . .
43(4) . . .
39.3(33) . . .
40.2(35) . . .
40.5(34) . . .
46(4) . . .
40.0(33) . . .
42.1(34) . . .
46(4) . . .
39.6(34) . . .
43(4) . . .
40.2(34) . . .
47(4) . . .
41.4(35) . . .
40.7(33) . . .
51(4) . . .
51(4) . . .
48(4) . . .
45(4) . . .
32.3(31) . . .
36.6(34) . . .
36.1(32) . . .
40.3(33) . . .
38.6(33) . . .
47(4) . . .
42.6(34) . . .
37.6(32) . . .
44.0(34) . . .
43(4) . . .
42(4) . . .
38.6(32) . . .
44(4) . . .
47(4) . . .
41(4) . . .
38(4) . . .
32.5(31) . . .
36.6(32) . . .
37.7(31) . . .
36.3(32) . . .
33.3(33) . . .
34.5(32) . . .
46.1(35) . . .
31.9(29) . . .
45(4) . . .
44(4) . . .
48(4) . . .
38.3(32) . . .
39.7(33) . . .
48(4) . . .
44(4) . . .
43(4) . . .
41.3(33) . . .
47(4) . . .
42.7(35) . . .
37.9(33) . . .
41.0(33) . . .
44.7(35) . . .
44(4) . . .
42.4(35) . . .
42(4) . . .
40.3(35) . . .
33.5(30) . . .
49(4) . . .
45(4) . . .
39.8(32) . . .
37.5(31) . . .
43.0(35) . . .
43(4) . . .
37.3(32) . . .
44(4) . . .
46(4) . . .
41.3(33) . . .
49(4) . . .
43(4) . . .
44(4) . . .
47(4) . . .
43.0(34) . . .
41.2(33) . . .
46(4) . . .
45(4) . . .
38.7(32) . . .
44.5(35) . . .
36.7(32) . . .
40(4) . . .
41.5(35) . . .
37.5(32) . . .
45(4) . . .
43.6(35) . . .
37.1(32) . . .
44.7(35) . . .
44.6(35) . . .
46(4) . . .
40.4(34) . . .
42(4) . . .
38.6(35) . . .
43.0(35) . . .
50(4) . . .
39.8(34) . . .
40.4(34) . . .
45(4) . . .
46(4) . . .
37.2(33) . . .
38.8(34) . . .
39.5(34) . . .
39.2(34) . . .
44.9(35) . . .
37.3(34) . . .
49(4) . . .
37.7(33) . . .
48(4) . . .
48(4) . . .
47(4) . . .
42(4) . . .
38.0(34) . . .
48(4) . . .
46(4) . . .
48(4) . . .
49(4) . . .
45(4) . . .
41.8(33) . . .
39.0(33) . . .
49(4) . . .
47(4) . . .
39.0(33) . . .
43.4(34) . . .
41.2(34) . . .
42(4) . . .
37.7(33) . . .
45(4) . . .
38.5(33) . . .
33.0(30) . . .
46(4) . . .
41(4) . . .
37.7(33) . . .
41.1(34) . . .
46(4) . . .
48(4) . . .
42(4) . . .
48(4) . . .
36.2(33) . . .
45.1(35) . . .
35.8(30) . . .
44(4) . . .
37.3(34) . . .
39.5(33) . . .
40.4(33) . . .
47(4) . . .
40(4) . . .
35.0(32) . . .
44(4) . . .
51(4) . . .
40.6(34) . . .
44(4) . . .
35.0(33) . . .
43.1(34) . . .
47(4) . . .
39.9(33) . . .
40.3(33) . . .
48(4) . . .
34.5(31) . . .
41(4) . . .
44(4) . . .
44(4) . . .
46(4) . . .
34.1(31) . . .
52(4) . . .
38.3(32) . . .
41.5(34) . . .
40.1(33) . . .
40.2(33) . . .
41.4(35) . . .
42(4) . . .
38.2(35) . . .
37.0(32) . . .
51(4) . . .
38.6(33) . . .
44(4) . . .
37.9(32) . . .
40.0(33) . . .
42.7(34) . . .
52(4) . . .
43(4) . . .
40.8(34) . . .
39.3(33) . . .
52(4) . . .
43.5(35) . . .
43(4) . . .
51(4) . . .
40.6(33) . . .
47(4) . . .
37.1(32) . . .
46(4) . . .
38.8(33) . . .
31.5(29) . . .
48(4) . . .
36.3(32) . . .
45(4) . . .
44(4) . . .
43.0(34) . . .
34.8(31) . . .
55(4) . . .
40.9(34) . . .
46(4) . . .
40.1(33) . . .
41.8(34) . . .
52(4) . . .
43.2(35) . . .
44(4) . . .
40.5(33) . . .
44(4) . . .
38.0(33) . . .
50(4) . . .
41.9(34) . . .
37.2(32) . . .
48(4) . . .
37.4(32) . . .
41(4) . . .
45(4) . . .
35.8(32) . . .
43.9(34) . . .
42.8(35) . . .
48(4) . . .
43(4) . . .
39.9(32) . . .
40.1(33) . . .
36.1(32) . . .
37.0(32) . . .
44.3(35) . . .
40.1(33) . . .
38.5(33) . . .
39.8(35) . . .
49(4) . . .
35.5(32) . . .
39.0(32) . . .
39.3(33) . . .
40(4) . . .
44(4) . . .
39.0(33) . . .
39.6(33) . . .
33.2(31) . . .
48(4) . . .
33.3(31) . . .
30.4(29) . . .
43.3(34) . . .
45.6(35) . . .
49(4) . . .
38.0(33) . . .
36.5(32) . . .
39.8(33) . . .
45(4) . . .
33.5(30) . . .
43(4) . . .
43.8(34) . . .
43(4) . . .
47(4) . . .
35.7(32) . . .
40(4) . . .
38.9(33) . . .
31.9(29) . . .
42(4) . . .
39.8(33) . . .
34.7(32) . . .
40.6(33) . . .
37.9(32) . . .
41(4) . . .
45(4) . . .
43(4) . . .
45(4) . . .
41.4(34) . . .
48(4) . . .
46(4) . . .
48(4) . . .
39.8(33) . . .
39.2(33) . . .
41(4) . . .
39.5(34) . . .
33.8(31) . . .
35.6(31) . . .
36.7(31) . . .
45(4) . . .
39.5(33) . . .
40.5(33) . . .
41.4(33) . . .
38.8(32) . . .
34.8(32) . . .
41.1(35) . . .
37.8(32) . . .
44.8(35) . . .
41.3(34) . . .
39.3(35) . . .
38.0(31) . . .
34.8(31) . . .
39.1(33) . . .
41(4) . . .
37.8(35) . . .
41(4) . . .
41.5(33) . . .
33.8(30) . . .
29.9(28) . . .
43(4) . . .
41.5(35) . . .
44.0(35) . . .
35.4(30) . . .
34.6(30) . . .
46(4) . . .
47(4) . . .
40.3(33) . . .
39.3(32) . . .
43(4) . . .
40(4) . . .
36.3(31) . . .
45(4) . . .
39.0(33) . . .
36.7(34) . . .
30.2(28) . . .
34.5(31) . . .
37.2(32) . . .
39.2(35) . . .
40(4) . . .
52(4) . . .
40.7(33) . . .
49(4) . . .
48(4) . . .
46(4) . . .
34.2(31) . . .
36.7(33) . . .
38.6(32) . . .
41.6(35) . . .
38.0(35) . . .
36.9(32) . . .
40.3(33) . . .
42.7(35) . . .
33.6(31) . . .
45(4) . . .
52(4) . . .
43.2(34) . . .
40.0(34) . . .
38.0(33) . . .
32.2(31) . . .
30.0(31) . . .
36.1(32) . . .
35.8(31) . . .
37.8(31) . . .
47(4) . . .
46(4) . . .
34.3(31) . . .
35.2(30) . . .
40.1(34) . . .
42(4) . . .
46(4) . . .
46(4) . . .
47(4) . . .
36.3(31) . . .
44(4) . . .
35.2(31) . . .
39.6(33) . . .
35.1(31) . . .
45(4) . . .
43(4) . . .
37.3(32) . . .
48(4) . . .
46(4) . . .
45(4) . . .
45(4) . . .
38.6(34) . . .
44.3(34) . . .
40.6(34) . . .
52(4) . . .
42.5(35) . . .
39.1(33) . . .
41.3(34) . . .
41.5(35) . . .
48(4) . . .
46(4) . . .
42.3(35) . . .
37.9(32) . . .
38.2(33) . . .
42(4) . . .
35.5(31) . . .
39.5(32) . . .
39.0(32) . . .
38.4(32) . . .
43(4) . . .
46(4) . . .
45.8(35) . . .
34.6(31) . . .
38.7(34) . . .
49(4) . . .
52(4) . . .
33.8(30) . . .
49(4) . . .
39(4) . . .
39.2(35) . . .
40(4) . . .
41.2(34) . . .
41.6(33) . . .
39.1(33) . . .
27.5(29) . . .
35.8(33) . . .
38.8(32) . . .
39.6(33) . . .
39.1(33) . . .
31.6(29) . . .
35.8(32) . . .
36.4(32) . . .
37.7(33) . . .
47(4) . . .
50(4) . . .
46(4) . . .
44.7(35) . . .
49(4) . . .
47(4) . . .
54(4) . . .
44.2(35) . . .
50(4) . . .
45(4) . . .
38.2(33) . . .
41(4) . . .
29.8(30) . . .
45.3(35) . . .
36.7(33) . . .
44(4) . . .
48(4) . . .
40.2(33) . . .
49(4) . . .
43.4(34) . . .
39.6(33) . . .
35.9(33) . . .
40.0(33) . . .
43.8(34) . . .
42(4) . . .
33.7(32) . . .
36.3(34) . . .
40.6(35) . . .
33.5(31) . . .
37.3(33) . . .
36.8(34) . . .
45(4) . . .
45.7(35) . . .
56(4) . . .
42.4(35) . . .
42(4) . . .
39.7(35) . . .
38.5(33) . . .
39.9(34) . . .
39.7(34) . . .
46(4) . . .
44(4) . . .
43.4(34) . . .
43(4) . . .
36.4(32) . . .
41(4) . . .
38.1(34) . . .
38.0(32) . . .
34.0(30) . . .
44(4) . . .
45(4) . . .
44.0(35) . . .
43(4) . . .
32.6(29) . . .
41.0(35) . . .
39.3(35) . . .
40.0(33) . . .
35.8(32) . . .
37.7(32) . . .
31.6(30) . . .
32.4(31) . . .
47(4) . . .
48(4) . . .
43.6(35) . . .
36.8(34) . . .
37.0(32) . . .
44.8(35) . . .
36.9(31) . . .
36.1(32) . . .
48(4) . . .
45(4) . . .
32.9(30) . . .
40.1(34) . . .
46(4) . . .
45(4) . . .
42(4) . . .
43.5(34) . . .
48(4) . . .
35.3(32) . . .
43(4) . . .
46(4) . . .
35.1(31) . . .
35.1(30) . . .
33.4(31) . . .
34.3(33) . . .
45(4) . . .
39.5(33) . . .
37.3(32) . . .
40.7(34) . . .
44(4) . . .
39.3(34) . . .
33.2(30) . . .
38.2(35) . . .
39.9(34) . . .
43(4) . . .
40.3(35) . . .
38.5(32) . . .
40.9(34) . . .
45.5(35) . . .
50(4) . . .
41.9(34) . . .
40.2(33) . . .
38.5(33) . . .
37.8(32) . . .
44(4) . . .
39.6(33) . . .
43.2(34) . . .
41.8(35) . . .
35.5(31) . . .
41.1(34) . . .
39(4) . . .
42.2(34) . . .
50(4) . . .
44.2(35) . . .
40.3(34) . . .
45(4) . . .
52(4) . . .
50(4) . . .
39.2(35) . . .
42(4) . . .
38.0(33) . . .
40.9(33) . . .
45(4) . . .
42.0(35) . . .
44(4) . . .
40.6(33) . . .
45.7(35) . . .
41(4) . . .
44(4) . . .
49(4) . . .
47(4) . . .
44(4) . . .
50(4) . . .
38.2(34) . . .
28.8(29) . . .
45(4) . . .
45(4) . . .
49(4) . . .
43(4) . . .
41(4) . . .
42.3(34) . . .
40.4(33) . . .
42(4) . . .
39.1(33) . . .
46(4) . . .
44(4) . . .
41.7(34) . . .
45(4) . . .
49(4) . . .
44(4) . . .
44.3(34) . . .
36.3(33) . . .
34.5(33) . . .
43(4) . . .
44(4) . . .
34.8(30) . . .
48(4) . . .
47(4) . . .
47(4) . . .
46(4) . . .
44.9(35) . . .
37.6(33) . . .
40.6(35) . . .
38.0(33) . . .
50(4) . . .
43.8(35) . . .
36.2(32) . . .
43(4) . . .
32.4(29) . . .
41.7(34) . . .
38.3(32) . . .
39.7(34) . . .
44(4) . . .
53(4) . . .
39.8(33) . . .
38.9(33) . . .
38.4(33) . . .
41(4) . . .
46(4) . . .
43.4(34) . . .
40.9(33) . . .
46(4) . . .
37.3(34) . . .
41(4) . . .
46(4) . . .
48(4) . . .
38.2(32) . . .
42(4) . . .
34.8(31) . . .
40.6(33) . . .
34.5(31) . . .
35.9(32) . . .
37.4(34) . . .
38.3(32) . . .
44.7(35) . . .
37.4(32) . . .
36.0(32) . . .
38.6(35) . . .
38.9(34) . . .
36.7(32) . . .
40.1(34) . . .
43(4) . . .
46(4) . . .
44(4) . . .
41.1(34) . . .
36.0(31) . . .
52(4) . . .
40(4) . . .
33.4(31) . . .
43.6(34) . . .
40.9(33) . . .
42(4) . . .
38.0(33) . . .
42.4(35) . . .
36.6(31) . . .
30.5(30) . . .
43(4) . . .
50(4) . . .
36.3(32) . . .
32.1(29) . . .
33.1(30) . . .
42(4) . . .
34.9(31) . . .
44.9(34) . . .
37.8(32) . . .
36.0(33) . . .
38.7(35) . . .
49(4) . . .
51(4) . . .
41.5(34) . . .
39.3(33) . . .
42(4) . . .
41.2(34) . . .
35.7(32) . . .
39.0(32) . . .
36.6(32) . . .
37.0(34) . . .
45(4) . . .
45.8(35) . . .
36.6(33) . . .
34.9(32) . . .
33.7(33) . . .
35.5(33) . . .
44.4(35) . . .
48(4) . . .
43.0(34) . . .
40.5(34) . . .
48(4) . . .
47(4) . . .
46(4) . . .
46(4) . . .
56(4) . . .
45(4) . . .
30.3(29) . . .
36.5(33) . . .
38.7(34) . . .
42(4) . . .
44(4) . . .
32.3(30) . . .
40.9(33) . . .
39.4(34) . . .
35.8(33) . . .
33.6(32) . . .
28.4(28) . . .
37.9(34) . . .
41(4) . . .
46(4) . . .
37.6(33) . . .
35.6(31) . . .
39.7(34) . . .
38(4) . . .
38.2(34) . . .
38.7(32) . . .
41.1(33) . . .
39.9(35) . . .
40(4) . . .
39.1(32) . . .
50(4) . . .
43.1(34) . . .
36.6(32) . . .
31.2(30) . . .
42.3(35) . . .
47(4) . . .
35.9(31) . . .
38.6(33) . . .
52(4) . . .
36.7(34) . . .
40.3(33) . . .
35.7(31) . . .
31.7(29) . . .
40(4) . . .
42(4) . . .
31.6(29) . . .
44.3(34) . . .
40.4(33) . . .
42(4) . . .
38.9(33) . . .
38.1(32) . . .
44(4) . . .
39.0(33) . . .
43.3(34) . . .
49(4) . . .
35.3(31) . . .
41.1(34) . . .
41.7(33) . . .
34.6(31) . . .
49(4) . . .
35.3(31) . . .
38.0(34) . . .
47(4) . . .
52(4) . . .
41.5(33) . . .
46(4) . . .
43(4) . . .
41(4) . . .
38.1(32) . . .
45(4) . . .
44.5(35) . . .
45(4) . . .
41.0(33) . . .
41.3(34) . . .
42.1(34) . . .
40.8(33) . . .
36.2(32) . . .
43(4) . . .
31.9(31) . . .
32.5(29) . . .
41.1(33) . . .
38.2(34) . . .
48(4) . . .
47(4) . . .
39.2(32) . . .
35.0(32) . . .
29.6(29) . . .
39.8(35) . . .
40.3(33) . . .
47(4) . . .
39.4(33) . . .
34.0(33) . . .
32.3(34) . . .
38(4) . . .
43.0(34) . . .
31.5(29) . . .
39.1(33) . . .
41.5(35) . . .
41.2(35) . . .
52(4) . . .
39.1(33) . . .
35.0(31) . . .
41(4) . . .
38.1(33) . . .
32.8(30) . . .
39.2(33) . . .
38.5(33) . . .
37.4(33) . . .
38.9(33) . . .
33.0(30) . . .
36.8(32) . . .
32.0(31) . . .
38.5(33) . . .
40.3(34) . . .
41.1(33) . . .
47(4) . . .
42.5(33) . . .
41.0(34) . . .
40(4) . . .
43.3(34) . . .
40.2(35) . . .
38.7(34) . . .
47(4) . . .
41.5(34) . . .
41.4(34) . . .
42(4) . . .
44(4) . . .
47(4) . . .
41.8(34) . . .
35.4(30) . . .
36.8(32) . . .
43(4) . . .
49(4) . . .
41.1(33) . . .
42.3(34) . . .
45.4(35) . . .
45(4) . . .
39.2(33) . . .
41.7(34) . . .
38.0(32) . . .
43(4) . . .
38.9(34) . . .
42.8(35) . . .
38.7(32) . . .
48(4) . . .
35.8(34) . . .
41(4) . . .
35.7(32) . . .
37.0(32) . . .
30.3(29) . . .
33.6(32) . . .
40(4) . . .
41.5(35) . . .
35.6(31) . . .
42.7(35) . . .
47(4) . . .
37.2(34) . . .
38(4) . . .
31.6(30) . . .
51(4) . . .
46(4) . . .
51(4) . . .
42.0(34) . . .
39.6(32) . . .
39.4(33) . . .
36.8(34) . . .
45(4) . . .
38.8(32) . . .
37.3(32) . . .
41.1(35) . . .
49(4) . . .
47(4) . . .
41.4(34) . . .
47(4) . . .
43(4) . . .
31.4(31) . . .
45(4) . . .
42.3(35) . . .
32.8(29) . . .
45(4) . . .
49(4) . . .
42(4) . . .
38.4(33) . . .
41.9(35) . . .
37.7(32) . . .
33.9(32) . . .
32.2(30) . . .
46(4) . . .
53(4) . . .
36.3(34) . . .
38(4) . . .
43(4) . . .
46(4) . . .
38.3(33) . . .
42.9(35) . . .
43(4) . . .
43.0(35) . . .
36.8(32) . . .
34.7(30) . . .
46(4) . . .
47(4) . . .
33.1(31) . . .
34.3(30) . . .
40.2(35) . . .
33.2(30) . . .
34.9(33) . . .
36.5(32) . . .
37.7(32) . . .
50(4) . . .
37.9(32) . . .
45(4) . . .
34.9(31) . . .
37.4(32) . . .
46(4) . . .
46(4) . . .
42(4) . . .
45(4) . . .
39.0(33) . . .
36.0(33) . . .
39(4) . . .
38.5(33) . . .
39.3(33) . . .
46(4) . . .
41(4) . . .
40(4) . . .
31.4(30) . . .
33.2(30) . . .
42.0(35) . . .
33.8(30) . . .
37.4(32) . . .
43(4) . . .
40.7(34) . . .
45(4) . . .
43.7(35) . . .
46(4) . . .
34.2(30) . . .
35.4(31) . . .
40.3(33) . . .
49(4) . . .
37.7(34) . . .
43(4) . . .
51(4) . . .
52(4) . . .
47(4) . . .
49(4) . . .
34.6(30) . . .
52(4) . . .
50(4) . . .
39.1(32) . . .
35.0(33) . . .
44(4) . . .
38.9(33) . . .
36.2(32) . . .
44(4) . . .
42(4) . . .
35(4) . . .
20.7(23) . . .
28.4(28) . . .
38(4) . . .
44(4) . . .
36.3(32) . . .
40.5(34) . . .
42.1(33) . . .
39.8(35) . . .
36.1(33) . . .
40(4) . . .
34.0(30) . . .
37.8(34) . . .
39(4) . . .
38.0(34) . . .
30.4(29) . . .
33.1(30) . . .
46(4) . . .
42(4) . . .
48(4) . . .
46(4) . . .
36.0(32) . . .
44(4) . . .
35.5(31) . . .
44.2(34) . . .
39.6(33) . . .
46.5(35) . . .
41.3(35) . . .
48(4) . . .
36.6(33) . . .
43.9(35) . . .
38.5(32) . . .
38.3(33) . . .
39(4) . . .
40.3(33) . . .
46(4) . . .
31.0(29) . . .
43(4) . . .
42(4) . . .
42(4) . . .
54(4) . . .
33.6(30) . . .
38.2(32) . . .
35.5(32) . . .
39.6(34) . . .
36.5(31) . . .
41.5(34) . . .
48(4) . . .
49(4) . . .
47(4) . . .
32.4(30) . . .
35.9(31) . . .
45(4) . . .
37.6(34) . . .
31.9(29) . . .
39.6(33) . . .
41.3(35) . . .
41(4) . . .
44(4) . . .
41.1(33) . . .
41.6(34) . . .
45(4) . . .
32.5(31) . . .
39.6(34) . . .
44(4) . . .
32.9(30) . . .
38.8(34) . . .
48(4) . . .
49(4) . . .
44.1(35) . . .
52(4) . . .
34.0(31) . . .
37(4) . . .
38.1(33) . . .
45(4) . . .
38.7(32) . . .
46(4) . . .
45(4) . . .
43(4) . . .
35.5(31) . . .
36.2(32) . . .
34.5(32) . . .
43(4) . . .
42.9(35) . . .
48(4) . . .
32.9(31) . . .
38.5(33) . . .
42.3(35) . . .
44(4) . . .
39.5(33) . . .
33.4(30) . . .
47(4) . . .
37.5(34) . . .
44(4) . . .
39.7(32) . . .
33.7(31) . . .
41.1(35) . . .
39(4) . . .
45(4) . . .
46.4(35) . . .
34.0(32) . . .
34.3(34) . . .
38.4(33) . . .
44(4) . . .
45.2(35) . . .
34.9(31) . . .
40.5(32) . . .
46(4) . . .
41(4) . . .
44.2(34) . . .
47(4) . . .
44(4) . . .
38.8(32) . . .
40.0(33) . . .
41.2(34) . . .
43(4) . . .
37.6(32) . . .
53(4) . . .
40(4) . . .
36.3(32) . . .
26.2(28) . . .
35.7(33) . . .
34.2(34) . . .
35.3(32) . . .
44(4) . . .
43(4) . . .
41(4) . . .
45(4) . . .
32.5(30) . . .
36.5(31) . . .
41.3(34) . . .
38.9(32) . . .
39.2(33) . . .
35.5(31) . . .
42.3(35) . . .
38.1(33) . . .
43(4) . . .
35.4(31) . . .
36.5(32) . . .
38.2(33) . . .
40(4) . . .
43(4) . . .
42(4) . . .
35.2(31) . . .
33.5(30) . . .
37.6(32) . . .
32.1(32) . . .
35.3(32) . . .
44.1(35) . . .
41.8(34) . . .
50(4) . . .
51(4) . . .
39.2(35) . . .
41.0(34) . . .
43.8(34) . . .
46(4) . . .
42(4) . . .
43.3(34) . . .
34.1(30) . . .
40.7(33) . . .
38(4) . . .
33.2(33) . . .
43.1(34) . . .
46(4) . . .
39.4(34) . . .
42.2(35) . . .
43(4) . . .
42(4) . . .
35.9(31) . . .
47(4) . . .
35.8(32) . . .
45(4) . . .
41.6(33) . . .
28.5(28) . . .
39.1(33) . . .
37.0(33) . . .
41.3(34) . . .
47(4) . . .
43.2(34) . . .
39(4) . . .
46(4) . . .
34.3(30) . . .
44.5(35) . . .
39.9(34) . . .
31.1(30) . . .
31.9(31) . . .
36.1(34) . . .
40.8(33) . . .
39.4(33) . . .
29.9(30) . . .
37.9(35) . . .
41.7(34) . . .
40.2(33) . . .
41.6(33) . . .
38.8(33) . . .
39.2(35) . . .
41(4) . . .
38.5(32) . . .
40.0(33) . . .
37.3(34) . . .
40.4(34) . . .
40(4) . . .
37.5(32) . . .
35.0(32) . . .
43(4) . . .
40.4(34) . . .
41.3(35) . . .
42.2(34) . . .
37.5(33) . . .
38.5(34) . . .
32.2(30) . . .
37.6(32) . . .
35.6(31) . . .
30.2(28) . . .
38(4) . . .
45(4) . . .
44.5(35) . . .
48(4) . . .
48(4) . . .
49(4) . . .
54(4) . . .
36.2(31) . . .
47(4) . . .
44(4) . . .
41(4) . . .
36.0(32) . . .
32.8(31) . . .
46(4) . . .
49(4) . . .
36.1(33) . . .
42.0(35) . . .
35.9(32) . . .
38.8(32) . . .
34.5(31) . . .
38(4) . . .
44(4) . . .
52(4) . . .
44.8(34) . . .
31.9(29) . . .
40(4) . . .
40.8(35) . . .
33.9(30) . . .
33.9(31) . . .
35.9(33) . . .
41.3(35) . . .
33.1(30) . . .
26.3(27) . . .
42.3(34) . . .
38.8(33) . . .
39.6(33) . . .
53(4) . . .
40.0(33) . . .
47(4) . . .
42.7(34) . . .
34.1(31) . . .
42(4) . . .
39.0(33) . . .
40(4) . . .
40.2(34) . . .
31.0(28) . . .
52(4) . . .
36.1(31) . . .
42.8(34) . . .
46(4) . . .
36.8(34) . . .
36.6(32) . . .
40.0(33) . . .
36.5(32) . . .
42(4) . . .
41(4) . . .
39.1(33) . . .
43.3(34) . . .
47(4) . . .
50(4) . . .
47(4) . . .
45(4) . . .
32.6(30) . . .
33.0(31) . . .
37.7(34) . . .
41.4(34) . . .
48(4) . . .
41.5(35) . . .
41.0(34) . . .
45(4) . . .
40.5(35) . . .
37.9(32) . . .
44.0(35) . . .
41.5(33) . . .
47(4) . . .
47(4) . . .
40.7(34) . . .
35.1(31) . . .
34.2(33) . . .
45(4) . . .
38.5(33) . . .
40.5(33) . . .
37.2(33) . . .
31.1(29) . . .
29.0(29) . . .
41(4) . . .
52(4) . . .
41.2(35) . . .
39.3(33) . . .
40.5(35) . . .
50(4) . . .
40.1(33) . . .
35.7(31) . . .
36.8(33) . . .
30.5(34) . . .
30.1(31) . . .
28.9(28) . . .
40(4) . . .
47(4) . . .
50(4) . . .
40.4(34) . . .
33.3(30) . . .
45(4) . . .
41(4) . . .
34.3(33) . . .
36.5(32) . . .
37.2(32) . . .
38.1(33) . . .
38.0(33) . . .
41(4) . . .
40.1(33) . . .
35.7(31) . . .
41(4) . . .
37.6(34) . . .
37.8(33) . . .
36.9(32) . . .
45.3(35) . . .
51(4) . . .
39.4(35) . . .
38.6(33) . . .
34.0(31) . . .
42.7(34) . . .
41.9(34) . . .
50(4) . . .
35.8(32) . . .
31.7(29) . . .
36.5(33) . . .
43(4) . . .
34.9(33) . . .
38.6(33) . . .
44.8(35) . . .
49(4) . . .
49(4) . . .
38.6(34) . . .
25.5(27) . . .
32.3(30) . . .
34.0(31) . . .
37.6(33) . . .
43(4) . . .
32.2(30) . . .
36.2(31) . . .
38.4(32) . . .
41.5(35) . . .
41(4) . . .
41.0(34) . . .
34.0(30) . . .
39.6(33) . . .
34.8(32) . . .
43(4) . . .
34.0(31) . . .
48(4) . . .
37.8(32) . . .
39(4) . . .
37.0(33) . . .
43(4) . . .
38.7(32) . . .
51(4) . . .
36.5(32) . . .
44(4) . . .
40.2(34) . . .
38.6(32) . . .
42.1(34) . . .
31.4(31) . . .
31.6(30) . . .
48(4) . . .
42.3(35) . . .
34.3(31) . . .
34.2(32) . . .
37.2(32) . . .
44(4) . . .
35.0(31) . . .
36.8(32) . . .
43(4) . . .
39.9(35) . . .
36.9(32) . . .
37.8(32) . . .
39.0(34) . . .
42(4) . . .
40.8(34) . . .
38.6(32) . . .
39.0(33) . . .
33.2(32) . . .
31.1(29) . . .
36.0(33) . . .
37.8(33) . . .
46(4) . . .
38.0(34) . . .
37.9(33) . . .
43.9(34) . . .
42.7(34) . . .
44(4) . . .
42(4) . . .
41(4) . . .
35.3(31) . . .
33.3(30) . . .
42.8(34) . . .
43(4) . . .
42(4) . . .
45(4) . . .
33.4(30) . . .
39.7(34) . . .
37.0(34) . . .
40.4(34) . . .
37.4(33) . . .
39.1(32) . . .
48(4) . . .
42(4) . . .
39.0(33) . . .
42.8(35) . . .
35.3(31) . . .
33.0(30) . . .
36.0(35) . . .
26.3(27) . . .
37.0(32) . . .
29.3(28) . . .
35.2(33) . . .
38.4(34) . . .
39.0(34) . . .
33.2(30) . . .
45(4) . . .
34.2(32) . . .
30.6(32) . . .
35.8(33) . . .
36.3(31) . . .
50(4) . . .
46(4) . . .
43(4) . . .
40.8(34) . . .
33.9(31) . . .
49(4) . . .
39.8(35) . . .
39.5(34) . . .
36.2(31) . . .
50(4) . . .
46(4) . . .
39.4(33) . . .
38.4(34) . . .
35.5(31) . . .
38.5(33) . . .
42.3(34) . . .
41.6(34) . . .
38.9(33) . . .
47(4) . . .
36.6(32) . . .
36.7(32) . . .
32.0(30) . . .
35.4(34) . . .
48(4) . . .
36.6(31) . . .
28.1(28) . . .
48(4) . . .
46(4) . . .
42.6(34) . . .
43.0(34) . . .
42(4) . . .
33(4) . . .
42(4) . . .
45(4) . . .
46.1(35) . . .
38.1(33) . . .
42.3(35) . . .
38.1(32) . . .
42.9(34) . . .
36.4(32) . . .
48(4) . . .
35.8(32) . . .
41(4) . . .
41.1(35) . . .
36.9(32) . . .
37.8(34) . . .
35.0(32) . . .
34.8(31) . . .
43(4) . . .
44.5(35) . . .
34.9(32) . . .
42(4) . . .
45(4) . . .
45.1(34) . . .
35.7(32) . . .
38.6(33) . . .
37.0(32) . . .
40.6(34) . . .
38.5(32) . . .
39.4(33) . . .
33.3(30) . . .
28.9(28) . . .
50(4) . . .
37.1(32) . . .
38.2(33) . . .
37.4(32) . . .
48(4) . . .
42.4(34) . . .
42.8(34) . . .
40.9(33) . . .
40.9(33) . . .
40(4) . . .
43(4) . . .
41.4(33) . . .
41(4) . . .
51(4) . . .
33.4(31) . . .
37.3(33) . . .
41.3(34) . . .
45(4) . . .
32.6(29) . . .
40.0(34) . . .
45(4) . . .
42.5(34) . . .
37.8(33) . . .
41(4) . . .
31.6(31) . . .
36.5(32) . . .
48(4) . . .
38.6(33) . . .
42(4) . . .
33.9(33) . . .
37.2(32) . . .
49(4) . . .
38.6(32) . . .
39(4) . . .
41.3(35) . . .
41.2(33) . . .
36.9(31) . . .
41(4) . . .
44(4) . . .
38.9(34) . . .
42.5(35) . . .
43.2(34) . . .
49(4) . . .
43(4) . . .
43(4) . . .
44.4(35) . . .
46(4) . . .
33.4(30) . . .
39.0(34) . . .
43(4) . . .
39.1(33) . . .
39.7(34) . . .
44(4) . . .
45(4) . . .
39.4(33) . . .
45(4) . . .
47(4) . . .
41(4) . . .
36.8(34) . . .
32.2(30) . . .
42.0(34) . . .
44(4) . . .
46(4) . . .
34.0(30) . . .
43(4) . . .
38.2(33) . . .
46(4) . . .
48(4) . . .
42.2(34) . . .
37.1(31) . . .
47(4) . . .
43.6(34) . . .
41(4) . . .
38(4) . . .
37.6(34) . . .
37.6(32) . . .
34.4(31) . . .
50(4) . . .
40.0(33) . . .
37.6(32) . . .
30.7(29) . . .
41.0(34) . . .
41.3(35) . . .
38.3(34) . . .
47(4) . . .
44.7(35) . . .
42.7(35) . . .
42.8(34) . . .
42(4) . . .
41.8(34) . . .
42(4) . . .
38.2(33) . . .
44(4) . . .
44.3(34) . . .
50(4) . . .
36.6(31) . . .
40(4) . . .
36.8(34) . . .
46(4) . . .
46(4) . . .
40.2(32) . . .
51(4) . . .
40.7(34) . . .
34.7(31) . . .
41.7(34) . . .
37.0(31) . . .
47(4) . . .
38.2(32) . . .
39.2(33) . . .
43.8(35) . . .
41.0(34) . . .
27.1(28) . . .
38.0(32) . . .
38.7(32) . . .
44.2(35) . . .
44(4) . . .
39.6(33) . . .
37.7(32) . . .
38.3(33) . . .
52(4) . . .
49(4) . . .
59(4) . . .
49(4) . . .
38.0(35) . . .
38.7(32) . . .
29.3(28) . . .
34.0(33) . . .
34.7(33) . . .
43.0(35) . . .
41.9(34) . . .
34.7(31) . . .
45(4) . . .
44(4) . . .
48(4) . . .
32.4(31) . . .
42.1(34) . . .
33.6(32) . . .
35.0(32) . . .
44(4) . . .
33.6(30) . . .
35.1(32) . . .
37(4) . . .
43(4) . . .
39.0(33) . . .
35.2(31) . . .
32.6(31) . . .
36.6(34) . . .
37(4) . . .
39.8(33) . . .
36.3(32) . . .
37.7(33) . . .
46(4) . . .
42(4) . . .
43.1(35) . . .
31.2(30) . . .
40.9(35) . . .
34.8(32) . . .
41.3(35) . . .
42.4(34) . . .
44.9(35) . . .
46(4) . . .
45(4) . . .
37.2(33) . . .
32.1(30) . . .
44.6(35) . . .
43(4) . . .
39(4) . . .
38.4(34) . . .
43.0(35) . . .
37.2(32) . . .
36.8(34) . . .
36(4) . . .
29.2(29) . . .
37.1(32) . . .
44(4) . . .
32.5(31) . . .
34.2(32) . . .
35.8(32) . . .
38.8(32) . . .
50(4) . . .
37.7(32) . . .
36.0(33) . . .
35.8(32) . . .
49(4) . . .
43.3(35) . . .
41(4) . . .
35.8(32) . . .
44(4) . . .
42.1(33) . . .
40(4) . . .
39(4) . . .
36.0(34) . . .
39.9(33) . . .
41.0(33) . . .
44(4) . . .
40(4) . . .
40.4(34) . . .
40.0(33) . . .
49(4) . . .
37.0(32) . . .
36.7(35) . . .
35.9(32) . . .
42.4(34) . . .
37.9(32) . . .
42(4) . . .
39.3(34) . . .
41.7(34) . . .
41.0(34) . . .
38.6(34) . . .
37.2(34) . . .
39.1(34) . . .
51(4) . . .
41.4(34) . . .
32.2(29) . . .
47(4) . . .
43(4) . . .
39.2(32) . . .
36.9(32) . . .
36.3(32) . . .
39.2(34) . . .
34.3(32) . . .
42(4) . . .
36.5(32) . . .
43(4) . . .
36.8(34) . . .
38.5(33) . . .
50(4) . . .
41.9(34) . . .
43(4) . . .
35.4(34) . . .
38(4) . . .
36.1(33) . . .
35.3(32) . . .
41(4) . . .
33.7(32) . . .
34.9(31) . . .
44(4) . . .
37.0(32) . . .
40.4(34) . . .
41(4) . . .
36.5(33) . . .
35.2(32) . . .
32.9(30) . . .
40(4) . . .
49(4) . . .
37.6(33) . . .
40.2(33) . . .
36.6(31) . . .
40.2(34) . . .
44(4) . . .
40.1(35) . . .
36.7(33) . . .
35.3(31) . . .
35.5(34) . . .
41(4) . . .
47(4) . . .
46(4) . . .
39.3(34) . . .
39(4) . . .
37.7(33) . . .
37.7(33) . . .
38.1(33) . . .
37.5(33) . . .
35.7(33) . . .
35.7(33) . . .
36.5(31) . . .
35.2(31) . . .
34.7(31) . . .
38.0(33) . . .
49(4) . . .
38.3(33) . . .
34.8(31) . . .
46(4) . . .
37.5(34) . . .
29.6(30) . . .
40.3(35) . . .
43.0(35) . . .
39.4(33) . . .
33.4(32) . . .
41.8(34) . . .
46(4) . . .
30.9(28) . . .
39.0(33) . . .
42.3(34) . . .
38.0(32) . . .
49(4) . . .
40.0(33) . . .
44.0(35) . . .
38.1(34) . . .
33.2(31) . . .
32.5(29) . . .
35.9(31) . . .
40.5(34) . . .
35.4(31) . . .
37.0(32) . . .
35.4(31) . . .
26.7(27) . . .
44(4) . . .
53(4) . . .
38.1(32) . . .
38.2(32) . . .
39.4(33) . . .
37.4(33) . . .
40(4) . . .
41(4) . . .
43.1(34) . . .
34.9(31) . . .
37.7(33) . . .
41(4) . . .
44(4) . . .
35.4(32) . . .
32.8(30) . . .
39.2(35) . . .
46(4) . . .
39.4(34) . . .
33.0(30) . . .
42.5(34) . . .
49(4) . . .
43(4) . . .
43.0(35) . . .
49(4) . . .
33.3(31) . . .
43(4) . . .
38.3(32) . . .
42.1(34) . . .
44.6(34) . . .
46(4) . . .
45(4) . . .
37.3(33) . . .
37.5(32) . . .
45.0(35) . . .
42(4) . . .
41(4) . . .
40.6(34) . . .
33.3(30) . . .
47(4) . . .
38.9(34) . . .
50(4) . . .
38.1(33) . . .
44(4) . . .
37.8(32) . . .
41.6(35) . . .
45(4) . . .
37.6(33) . . .
36.4(32) . . .
41.1(33) . . .
39.7(34) . . .
36.3(35) . . .
42(4) . . .
45(4) . . .
35.0(31) . . .
35.5(34) . . .
43(4) . . .
35.3(33) . . .
49(4) . . .
41.7(35) . . .
37.8(33) . . .
35.6(32) . . .
36.1(32) . . .
36.9(32) . . .
36.3(33) . . .
43(4) . . .
49(4) . . .
39.3(33) . . .
31.7(29) . . .
36.3(33) . . .
45(4) . . .
37.4(32) . . .
42.0(35) . . .
31.0(29) . . .
35.5(33) . . .
42(4) . . .
38.0(33) . . .
39.3(33) . . .
41.4(34) . . .
38.9(33) . . .
36.6(33) . . .
30.6(30) . . .
40.7(34) . . .
32.8(30) . . .
35.0(31) . . .
37.4(34) . . .
39(4) . . .
35.0(33) . . .
38.1(32) . . .
31.1(29) . . .
39.5(34) . . .
45(4) . . .
40.5(33) . . .
48(4) . . .
38.7(33) . . .
42(4) . . .
32.8(31) . . .
44(4) . . .
45(4) . . .
43.1(34) . . .
39.0(34) . . .
45(4) . . .
29.9(29) . . .
38.1(32) . . .
46(4) . . .
38.6(33) . . .
35.6(32) . . .
30.4(29) . . .
43.4(34) . . .
34.4(32) . . .
37.8(35) . . .
36.9(33) . . .
33.3(30) . . .
34.4(31) . . .
26.4(29) . . .
34.8(32) . . .
39.9(34) . . .
41.4(33) . . .
36.2(32) . . .
37.6(34) . . .
33.6(32) . . .
38.6(35) . . .
33.4(31) . . .
39.5(33) . . .
39.1(34) . . .
46(4) . . .
31.2(29) . . .
38.4(32) . . .
39.6(33) . . .
39.3(33) . . .
38.1(33) . . .
37.8(33) . . .
34.3(30) . . .
44(4) . . .
38(4) . . .
45(4) . . .
38.1(32) . . .
35.9(31) . . .
40(4) . . .
39(4) . . .
43(4) . . .
33.8(30) . . .
37.5(32) . . .
33.4(30) . . .
37.4(35) . . .
37.1(33) . . .
42.9(34) . . .
42.8(34) . . .
37.4(31) . . .
45(4) . . .
35.3(31) . . .
38.3(32) . . .
39.8(34) . . .
34.0(30) . . .
41(4) . . .
34.7(32) . . .
38.2(32) . . .
39.4(33) . . .
48(4) . . .
38.5(33) . . .
37(4) . . .
41.1(33) . . .
39.3(35) . . .
44(4) . . .
40(4) . . .
43(4) . . .
44.9(34) . . .
36.3(31) . . .
40.2(34) . . .
42.6(35) . . .
45(4) . . .
39.3(33) . . .
46(4) . . .
32.3(31) . . .
33.0(32) . . .
36.0(33) . . .
47(4) . . .
37.9(34) . . .
38.8(32) . . .
50(4) . . .
45.1(35) . . .
29.5(28) . . .
33.5(30) . . .
36.1(32) . . .
48(4) . . .
49(4) . . .
34.9(31) . . .
38.0(34) . . .
37.3(34) . . .
36.3(33) . . .
47(4) . . .
43.7(35) . . .
33.8(31) . . .
25.8(27) . . .
40(4) . . .
35.0(30) . . .
39.9(33) . . .
35.9(32) . . .
42(4) . . .
37.7(33) . . .
39.2(33) . . .
39.2(33) . . .
45(4) . . .
44(4) . . .
49(4) . . .
52(4) . . .
38.5(33) . . .
41.1(34) . . .
38.8(34) . . .
42(4) . . .
33.9(31) . . .
39.8(34) . . .
43.1(35) . . .
39.0(33) . . .
48(4) . . .
40.9(33) . . .
38.5(34) . . .
42(4) . . .
43(4) . . .
36.1(31) . . .
38.1(33) . . .
43(4) . . .
36.4(34) . . .
30.8(31) . . .
35.9(34) . . .
49(4) . . .
42(4) . . .
44(4) . . .
51(4) . . .
43(4) . . .
36.2(32) . . .
39.6(34) . . .
41.0(35) . . .
47(4) . . .
54(4) . . .
47(4) . . .
44(4) . . .
39.9(35) . . .
41.4(33) . . .
41.6(35) . . .
34.6(31) . . .
30.8(31) . . .
37(4) . . .
33.0(29) . . .
36.6(32) . . .
36.4(31) . . .
43(4) . . .
42(4) . . .
34.6(33) . . .
39.7(33) . . .
49(4) . . .
44(4) . . .
36.8(34) . . .
34.0(32) . . .
31.0(29) . . .
43(4) . . .
50(4) . . .
36.7(32) . . .
38.9(34) . . .
39.2(33) . . .
38.0(32) . . .
40(4) . . .
45(4) . . .
31.5(30) . . .
29.0(28) . . .
37.8(33) . . .
38.6(33) . . .
35.5(33) . . .
44(4) . . .
46(4) . . .
53(4) . . .
35.2(31) . . .
34.4(31) . . .
41.3(35) . . .
32.8(30) . . .
36.6(32) . . .
47(4) . . .
43(4) . . .
46(4) . . .
44(4) . . .
46(4) . . .
41(4) . . .
41.4(35) . . .
38.5(32) . . .
41.5(33) . . .
36.3(32) . . .
43(4) . . .
44(4) . . .
42(4) . . .
36.4(31) . . .
37.5(33) . . .
37.7(35) . . .
37.3(33) . . .
36.1(31) . . .
40.5(34) . . .
41(4) . . .
35.7(32) . . .
35.2(32) . . .
40.2(34) . . .
46(4) . . .
38.3(33) . . .
35.5(33) . . .
35.0(31) . . .
30.8(29) . . .
44(4) . . .
39.3(33) . . .
46(4) . . .
32.1(32) . . .
38.7(33) . . .
40.3(33) . . .
48(4) . . .
44(4) . . .
41.0(34) . . .
55(4) . . .
37.8(31) . . .
37.6(34) . . .
32.8(31) . . .
42.7(35) . . .
47(4) . . .
34.2(31) . . .
38.8(35) . . .
35.6(32) . . .
35.3(31) . . .
43.0(35) . . .
37.6(32) . . .
30.4(30) . . .
29.5(28) . . .
41.3(34) . . .
44.2(35) . . .
29.7(28) . . .
44(4) . . .
39.1(32) . . .
45(4) . . .
41.2(33) . . .
47(4) . . .
33.3(30) . . .
37.9(32) . . .
42.6(35) . . .
39.3(33) . . .
37.7(33) . . .
35.5(33) . . .
40.9(34) . . .
40.1(33) . . .
35.9(31) . . .
34.5(32) . . .
45(4) . . .
42(4) . . .
35.2(31) . . .
36.1(31) . . .
43(4) . . .
43(4) . . .
45(4) . . .
43.5(35) . . .
42.6(35) . . .
46(4) . . .
45(4) . . .
39(4) . . .
45.3(35) . . .
40.8(34) . . .
38.5(34) . . .
47(4) . . .
44(4) . . .
37.6(32) . . .
36(4) . . .
34.3(32) . . .
36.0(33) . . .
41(4) . . .
34.1(30) . . .
40.3(34) . . .
37.0(34) . . .
31.1(31) . . .
34.8(31) . . .
34.1(31) . . .
27.9(28) . . .
42(4) . . .
41.9(34) . . .
46(4) . . .
43.4(34) . . .
47(4) . . .
42.6(35) . . .
35.5(34) . . .
48(4) . . .
35.7(31) . . .
31.9(30) . . .
41(4) . . .
49(4) . . .
42.0(34) . . .
37.2(32) . . .
42.0(35) . . .
36.0(31) . . .
39.4(33) . . .
38.7(33) . . .
44.9(35) . . .
37.7(33) . . .
41(4) . . .
36.5(33) . . .
26.0(27) . . .
37.6(32) . . .
38.5(32) . . .
39.3(34) . . .
33.5(30) . . .
33.9(30) . . .
40.2(33) . . .
45(4) . . .
39.4(35) . . .
44(4) . . .
48(4) . . .
44.0(35) . . .
47(4) . . .
40.5(35) . . .
39.3(34) . . .
35.2(31) . . .
35.4(32) . . .
38.2(34) . . .
30.5(28) . . .
49(4) . . .
38.0(32) . . .
35.7(31) . . .
33.6(30) . . .
37.4(32) . . .
29.7(28) . . .
31.6(30) . . .
37.6(33) . . .
44(4) . . .
45(4) . . .
42.5(35) . . .
37.0(32) . . .
47(4) . . .
48(4) . . .
38.0(32) . . .
37.1(32) . . .
43.4(35) . . .
43.0(35) . . .
39.9(34) . . .
37.2(32) . . .
34.7(30) . . .
39.9(33) . . .
35.5(32) . . .
38.2(34) . . .
43(4) . . .
42.0(34) . . .
38.0(33) . . .
38.7(34) . . .
45(4) . . .
43(4) . . .
43.9(34) . . .
44.8(34) . . .
33.5(30) . . .
33.2(33) . . .
35.1(33) . . .
44.7(35) . . .
43(4) . . .
38(4) . . .
45(4) . . .
38.2(32) . . .
34.7(31) . . .
42.3(34) . . .
56(4) . . .
43(4) . . .
41.8(34) . . .
32.3(30) . . .
43(4) . . .
38.6(33) . . .
31.8(30) . . .
36.8(32) . . .
44.1(35) . . .
40.7(35) . . .
35.1(32) . . .
37.7(35) . . .
45(4) . . .
40.3(34) . . .
42(4) . . .
32.9(32) . . .
35.0(31) . . .
43(4) . . .
34.2(31) . . .
34.8(32) . . .
35.0(32) . . .
42.7(34) . . .
41.6(35) . . .
36.1(32) . . .
37.0(34) . . .
25.9(28) . . .
34.5(34) . . .
41.3(34) . . .
32.3(30) . . .
42.2(33) . . .
52(4) . . .
34.7(30) . . .
35.9(32) . . .
33.5(31) . . .
37.8(33) . . .
39.6(34) . . .
42.9(35) . . .
46(4) . . .
33.3(31) . . .
36.6(31) . . .
40(4) . . .
38.0(34) . . .
43.5(34) . . .
38.1(34) . . .
35.1(31) . . .
44(4) . . .
41.6(34) . . .
34.0(30) . . .
37.0(32) . . .
43(4) . . .
40.3(35) . . .
34.3(31) . . .
38.2(32) . . .
41(4) . . .
39.2(34) . . .
33.7(30) . . .
45(4) . . .
41.8(34) . . .
36.0(32) . . .
34.6(32) . . .
39(4) . . .
43(4) . . .
30.3(29) . . .
33.5(31) . . .
36.2(35) . . .
35.5(33) . . .
36.2(32) . . .
35.5(31) . . .
37.0(33) . . .
35.7(34) . . .
39.8(34) . . .
39.6(32) . . .
47(4) . . .
40.9(34) . . .
41(4) . . .
36.8(34) . . .
31.4(30) . . .
38.1(32) . . .
45(4) . . .
38.0(34) . . .
26.6(28) . . .
40.7(34) . . .
38.9(32) . . .
45(4) . . .
39.2(35) . . .
37.2(32) . . .
36.4(31) . . .
34.2(30) . . .
44(4) . . .
42(4) . . .
40.7(34) . . .
39.3(32) . . .
41.8(34) . . .
40.5(35) . . .
40.3(34) . . .
39.8(33) . . .
38.8(33) . . .
40.8(33) . . .
44(4) . . .
45(4) . . .
39(4) . . .
35.0(31) . . .
38.3(33) . . .
42.6(35) . . .
52(4) . . .
30.1(29) . . .
38.3(32) . . .
36.1(33) . . .
36.2(33) . . .
43(4) . . .
34.7(32) . . .
38.6(33) . . .
47(4) . . .
37.2(33) . . .
37.0(33) . . .
48(4) . . .
32.4(29) . . .
41(4) . . .
42(4) . . .
37.9(32) . . .
38.2(32) . . .
32.3(29) . . .
35.5(31) . . .
48(4) . . .
48(4) . . .
32.6(29) . . .
34.3(31) . . .
33.1(31) . . .
35.6(33) . . .
35.3(31) . . .
30.1(29) . . .
35.7(31) . . .
40.1(34) . . .
46(4) . . .
41.1(34) . . .
51(4) . . .
39.0(33) . . .
44(4) . . .
47(4) . . .
37.3(32) . . .
31.8(29) . . .
41.0(35) . . .
31.3(29) . . .
36.6(34) . . .
50(4) . . .
40.1(33) . . .
41.0(34) . . .
33.5(30) . . .
41(4) . . .
48(4) . . .
37.7(33) . . .
40.1(33) . . .
43(4) . . .
43(4) . . .
36.0(35) . . .
36.0(32) . . .
38.4(32) . . .
33.0(31) . . .
31.4(31) . . .
42(4) . . .
30.3(29) . . .
30.1(29) . . .
38.2(33) . . .
41(4) . . .
46(4) . . .
42.8(34) . . .
34.9(32) . . .
42(4) . . .
31.2(30) . . .
38.2(33) . . .
38.1(32) . . .
32.5(31) . . .
46(4) . . .
36.3(33) . . .
40.1(34) . . .
45(4) . . .
54(4) . . .
38.3(33) . . .
29.7(28) . . .
37.7(32) . . .
40.3(33) . . .
41(4) . . .
42(4) . . .
36.4(32) . . .
38.3(33) . . .
38.7(33) . . .
40.0(33) . . .
43.3(35) . . .
44(4) . . .
34.3(30) . . .
36.3(31) . . .
39.5(32) . . .
37.0(33) . . .
38.6(33) . . .
41.3(34) . . .
41.5(34) . . .
36.5(34) . . .
35.8(33) . . .
40.5(33) . . .
42.8(34) . . .
32.3(31) . . .
28.5(31) . . .
47(4) . . .
39.6(33) . . .
49(4) . . .
42.1(33) . . .
37.3(32) . . .
35.0(34) . . .
30.8(32) . . .
45.4(35) . . .
49(4) . . .
51(4) . . .
42.5(33) . . .
45(4) . . .
38.0(32) . . .
35.1(31) . . .
52(4) . . .
49(4) . . .
40.2(34) . . .
28.9(28) . . .
42(4) . . .
46(4) . . .
41(4) . . .
50(4) . . .
46(4) . . .
39.1(34) . . .
36.8(32) . . .
32.0(29) . . .
47(4) . . .
36.9(32) . . .
35.3(31) . . .
47(4) . . .
50(4) . . .
35.0(31) . . .
37.5(32) . . .
41(4) . . .
36(4) . . .
42(4) . . .
47(4) . . .
40.3(33) . . .
41(4) . . .
40(4) . . .
30.4(29) . . .
36.4(31) . . .
40.2(33) . . .
40.3(34) . . .
38.4(33) . . .
35.8(31) . . .
43.1(34) . . .
45(4) . . .
36.8(32) . . .
36.5(33) . . .
38.9(33) . . .
45(4) . . .
46.0(35) . . .
34.1(30) . . .
40(4) . . .
37.9(33) . . .
38.1(33) . . .
32.6(30) . . .
34.4(30) . . .
34.2(30) . . .
37.5(33) . . .
37.6(32) . . .
34.6(30) . . .
36.5(33) . . .
32.9(31) . . .
36.0(31) . . .
41.2(33) . . .
35.8(32) . . .
37(4) . . .
34.7(32) . . .
33.6(30) . . .
38.3(32) . . .
26.5(27) . . .
34.5(33) . . .
46(4) . . .
42.9(34) . . .
37.9(31) . . .
26.6(27) . . .
33.8(33) . . .
31.3(30) . . .
36.7(31) . . .
28.0(28) . . .
31.9(31) . . .
44(4) . . .
41.8(34) . . .
32.9(29) . . .
36.0(31) . . .
47(4) . . .
37.6(34) . . .
35.9(31) . . .
35.6(31) . . .
36.8(31) . . .
40.4(33) . . .
33.0(31) . . .
31.5(31) . . .
39.5(33) . . .
36.8(32) . . .
38.0(33) . . .
31.8(30) . . .
35.1(32) . . .
39.9(33) . . .
44.1(34) . . .
42.4(34) . . .
43.4(35) . . .
41(4) . . .
37.7(32) . . .
42.1(34) . . .
34.1(31) . . .
43(4) . . .
37.5(32) . . .
48(4) . . .
40.1(35) . . .
39.0(34) . . .
41.9(35) . . .
46(4) . . .
38.6(32) . . .
40.5(33) . . .
36.4(31) . . .
36.4(31) . . .
36.1(32) . . .
37.7(32) . . .
34.4(32) . . .
29.0(30) . . .
36.7(34) . . .
36.5(31) . . .
38.5(33) . . .
42(4) . . .
39(4) . . .
32.1(29) . . .
41.6(33) . . .
38.8(32) . . .
37.3(32) . . .
41.0(35) . . .
42(4) . . .
38.7(32) . . .
40.5(33) . . .
28.8(28) . . .
30.5(32) . . .
40.0(35) . . .
35.4(32) . . .
36.9(32) . . .
32.1(30) . . .
32.5(31) . . .
44(4) . . .
33.1(30) . . .
31.1(29) . . .
34.7(32) . . .
33.6(32) . . .
36.4(33) . . .
28.5(28) . . .
41.1(34) . . .
41(4) . . .
32.5(32) . . .
42(4) . . .
32.6(30) . . .
37.7(33) . . .
40.2(33) . . .
43.0(34) . . .
42(4) . . .
40.7(33) . . .
36.0(32) . . .
41(4) . . .
36.7(35) . . .
37.7(32) . . .
38.6(32) . . .
38.4(34) . . .
53(4) . . .
34.0(31) . . .
44(4) . . .
51(4) . . .
42(4) . . .
39(4) . . .
35.3(33) . . .
32.3(31) . . .
36.5(32) . . .
35.1(32) . . .
31.0(29) . . .
31.8(29) . . .
29.1(28) . . .
43(4) . . .
32.9(30) . . .
38.7(34) . . .
38.3(33) . . .
37.2(32) . . .
42.6(35) . . .
37.2(32) . . .
36(4) . . .
35.6(32) . . .
42.5(34) . . .
39.2(32) . . .
37.6(33) . . .
34.5(32) . . .
40.4(34) . . .
33.8(30) . . .
41.2(34) . . .
38.3(34) . . .
38.0(35) . . .
48(4) . . .
36.0(32) . . .
37.7(31) . . .
38.2(32) . . .
34.8(33) . . .
41.2(35) . . .
40.0(33) . . .
42.7(35) . . .
39(4) . . .
36.1(34) . . .
38.7(34) . . .
28.2(28) . . .
33.1(30) . . .
26.1(27) . . .
33.1(32) . . .
44(4) . . .
40.2(33) . . .
40.9(35) . . .
36.0(31) . . .
33.8(31) . . .
29.4(28) . . .
35.3(30) . . .
38.2(35) . . .
38(4) . . .
37.8(32) . . .
43.5(35) . . .
31.0(29) . . .
43(4) . . .
42(4) . . .
44(4) . . .
40.3(34) . . .
40.9(33) . . .
36.7(32) . . .
40(4) . . .
44(4) . . .
31.5(29) . . .
40.2(32) . . .
38.0(32) . . .
43(4) . . .
39.3(34) . . .
36.3(31) . . .
38.3(32) . . .
39(4) . . .
36(4) . . .
40(4) . . .
32.3(29) . . .
38.8(33) . . .
46(4) . . .
48(4) . . .
38.9(33) . . .
46(4) . . .
34.9(32) . . .
36.5(33) . . .
41(4) . . .
34.2(33) . . .
45.3(35) . . .
41.6(34) . . .
40.3(33) . . .
34.8(30) . . .
38.5(35) . . .
38.4(33) . . .
45.4(35) . . .
37.7(32) . . .
38.4(34) . . .
47(4) . . .
39.2(33) . . .
40.2(33) . . .
40.4(35) . . .
41(4) . . .
30.9(29) . . .
36.2(31) . . .
42(4) . . .
50(4) . . .
37.2(33) . . .
43.0(35) . . .
36.8(32) . . .
34.3(32) . . .
35.0(32) . . .
41.9(35) . . .
37.9(32) . . .
36.2(31) . . .
32.9(31) . . .
49(4) . . .
42.1(35) . . .
35.4(31) . . .
33.9(30) . . .
40(4) . . .
36.1(35) . . .
36.1(35) . . .
39.7(33) . . .
44.4(35) . . .
34.2(32) . . .
40(4) . . .
32.7(30) . . .
29.3(29) . . .
34.0(30) . . .
38.1(33) . . .
36.3(34) . . .
47(4) . . .
43.3(33) . . .
40(4) . . .
37.8(33) . . .
44(4) . . .
30.8(30) . . .
45(4) . . .
45.4(35) . . .
37.1(32) . . .
42(4) . . .
33.8(34) . . .
39.5(33) . . .
38.6(34) . . .
37.8(34) . . .
39.5(33) . . .
35.9(32) . . .
35.1(31) . . .
45(4) . . .
43(4) . . .
36.4(33) . . .
34.9(31) . . .
39.9(33) . . .
41(4) . . .
46(4) . . .
50(4) . . .
38.5(32) . . .
36.0(32) . . .
38.2(35) . . .
32.1(31) . . .
42.6(35) . . .
40.9(34) . . .
41.8(34) . . .
38.5(33) . . .
34.6(31) . . .
40.3(34) . . .
36.9(32) . . .
38.7(33) . . .
33.2(31) . . .
34.4(35) . . .
40.4(35) . . .
38.4(32) . . .
40.6(33) . . .
33.7(30) . . .
30.4(29) . . .
41(4) . . .
34.9(30) . . .
42.0(35) . . .
40.4(33) . . .
40.9(35) . . .
30.6(29) . . .
36.7(32) . . .
39.2(33) . . .
31.4(31) . . .
30.5(31) . . .
34.4(32) . . .
38.4(32) . . .
39.4(33) . . .
38(4) . . .
33.3(31) . . .
38.5(33) . . .
40.8(33) . . .
36.5(33) . . .
39.0(33) . . .
30.2(29) . . .
29.8(28) . . .
32.7(30) . . .
36.3(31) . . .
34.7(32) . . .
37.9(33) . . .
36.7(33) . . .
33.1(30) . . .
39.4(33) . . .
30.4(27) . . .
35.1(32) . . .
30.1(30) . . .
37.8(32) . . .
37.0(32) . . .
42.2(34) . . .
38.4(33) . . .
30.9(28) . . .
34.7(31) . . .
42.7(35) . . .
41.8(35) . . .
47(4) . . .
41.9(34) . . .
31.4(29) . . .
34.5(33) . . .
36.7(33) . . .
32.8(30) . . .
35.4(32) . . .
31.8(30) . . .
40.3(34) . . .
41(4) . . .
34.4(31) . . .
36.9(32) . . .
36.6(31) . . .
38.7(32) . . .
44(4) . . .
35.6(31) . . .
31.7(30) . . .
41.8(34) . . .
33.2(31) . . .
35.5(33) . . .
34.4(32) . . .
41.9(34) . . .
38.2(32) . . .
33.9(32) . . .
35.2(32) . . .
35.3(31) . . .
36.6(32) . . .
37.8(32) . . .
40(4) . . .
33.3(34) . . .
35.0(33) . . .
36.7(32) . . .
36.6(33) . . .
32.9(31) . . .
33.4(30) . . .
37.0(33) . . .
40.3(33) . . .
40.9(34) . . .
37.5(33) . . .
38(4) . . .
37.9(34) . . .
38.1(32) . . .
44(4) . . .
34.0(31) . . .
36.5(32) . . .
40.1(33) . . .
38.9(32) . . .
32.2(31) . . .
40.0(34) . . .
41.0(35) . . .
34.5(31) . . .
39.5(33) . . .
33.9(33) . . .
34.7(33) . . .
46(4) . . .
42.7(34) . . .
31.0(29) . . .
48(4) . . .
38.5(34) . . .
42(4) . . .
31.8(29) . . .
41.3(34) . . .
43(4) . . .
40(4) . . .
40.6(35) . . .
38.9(32) . . .
40.0(34) . . .
44(4) . . .
45(4) . . .
40.0(34) . . .
33.3(30) . . .
32.6(30) . . .
30.8(31) . . .
35.6(34) . . .
29.5(28) . . .
38.9(33) . . .
54(4) . . .
37.4(33) . . .
40.1(34) . . .
32.0(33) . . .
41.4(34) . . .
54(4) . . .
40.2(33) . . .
39(4) . . .
41.0(35) . . .
36.7(32) . . .
44(4) . . .
33.3(29) . . .
34.3(30) . . .
35.4(32) . . .
38.2(32) . . .
37.6(33) . . .
38.4(35) . . .
38.8(33) . . .
37.0(31) . . .
41.2(34) . . .
48(4) . . .
45(4) . . .
43(4) . . .
41.5(33) . . .
38.3(33) . . .
36.1(32) . . .
34.8(32) . . .
36.3(32) . . .
37.0(31) . . .
42.3(34) . . .
39.2(35) . . .
37.8(32) . . .
45(4) . . .
37.0(32) . . .
38.8(32) . . .
34.8(31) . . .
39.5(35) . . .
35.5(31) . . .
38.2(32) . . .
37.8(32) . . .
34.0(30) . . .
34.3(32) . . .
44(4) . . .
43.6(35) . . .
33.1(31) . . .
35.2(33) . . .
55(4) . . .
37(4) . . .
29.9(29) . . .
36.3(32) . . .
26.1(27) . . .
35.5(35) . . .
36.0(33) . . .
40.0(33) . . .
42.7(35) . . .
39(4) . . .
26.6(29) . . .
39.0(34) . . .
40.3(33) . . .
43.3(35) . . .
46(4) . . .
39.7(34) . . .
43.5(35) . . .
35.9(31) . . .
36.3(32) . . .
34.0(31) . . .
43(4) . . .
49(4) . . .
46(4) . . .
34.0(34) . . .
35.2(34) . . .
33.7(31) . . .
43.1(34) . . .
45(4) . . .
34.5(31) . . .
38.4(35) . . .
32.8(31) . . .
36.2(32) . . .
37.5(32) . . .
48(4) . . .
41(4) . . .
29.4(30) . . .
31.6(30) . . .
33.8(31) . . .
45(4) . . .
46(4) . . .
34.6(32) . . .
36.8(32) . . .
33.8(31) . . .
40.9(34) . . .
33.8(34) . . .
41.6(34) . . .
51(4) . . .
35.1(31) . . .
41.3(34) . . .
37.5(34) . . .
31.8(33) . . .
37.4(32) . . .
41.8(34) . . .
34.2(33) . . .
39(4) . . .
34.3(33) . . .
39.7(33) . . .
41.8(34) . . .
37.3(32) . . .
41(4) . . .
26.4(27) . . .
27.5(28) . . .
38.7(34) . . .
33.7(30) . . .
37.5(34) . . .
39.8(34) . . .
44.0(35) . . .
36.2(31) . . .
33.4(32) . . .
40(4) . . .
34.2(31) . . .
35.3(31) . . .
35.8(32) . . .
29.0(28) . . .
39.5(33) . . .
49(4) . . .
33.8(31) . . .
39.3(33) . . .
45(4) . . .
37.2(32) . . .
28.0(29) . . .
31.3(30) . . .
34.6(31) . . .
39.4(33) . . .
41.7(34) . . .
39.5(32) . . .
36.3(32) . . .
33.1(30) . . .
42(4) . . .
38.3(32) . . .
32.1(30) . . .
37.2(32) . . .
34.7(30) . . .
44(4) . . .
42.7(34) . . .
33.5(31) . . .
43.9(34) . . .
50(4) . . .
35.4(34) . . .
39.3(34) . . .
30.7(29) . . .
30.1(28) . . .
39.0(33) . . .
45(4) . . .
46(4) . . .
47(4) . . .
32.0(30) . . .
39.3(34) . . .
37.2(32) . . .
40.2(34) . . .
28.0(27) . . .
33.8(30) . . .
46(4) . . .
40.1(34) . . .
32.8(32) . . .
33.8(31) . . .
45(4) . . .
37.3(33) . . .
40.0(33) . . .
49(4) . . .
34.6(31) . . .
39.5(33) . . .
40.3(35) . . .
40(4) . . .
34.6(32) . . .
38.4(32) . . .
33.1(31) . . .
35.3(33) . . .
38.7(34) . . .
36.6(32) . . .
36.2(31) . . .
39.6(35) . . .
40.1(33) . . .
38.7(32) . . .
42.8(34) . . .
38.1(33) . . .
28.4(32) . . .
29.1(28) . . .
34.8(30) . . .
44.4(35) . . .
38.4(32) . . .
36.5(32) . . .
36.6(34) . . .
37.2(33) . . .
40.2(33) . . .
35.6(32) . . .
41.4(34) . . .
48(4) . . .
34.3(31) . . .
35.1(31) . . .
39.9(33) . . .
39.5(33) . . .
38(4) . . .
42(4) . . .
40.2(33) . . .
47(4) . . .
40.2(34) . . .
35.1(33) . . .
45(4) . . .
41.5(34) . . .
30.7(30) . . .
30.8(30) . . .
32.7(29) . . .
37.4(35) . . .
43.4(35) . . .
41(4) . . .
50(4) . . .
33.4(30) . . .
34.4(34) . . .
34.6(30) . . .
37.9(32) . . .
48(4) . . .
44(4) . . .
37.9(32) . . .
31.4(29) . . .
34.9(32) . . .
33.8(31) . . .
42.1(35) . . .
38.0(33) . . .
44.5(35) . . .
40.3(32) . . .
42.8(35) . . .
39.8(35) . . .
41.4(33) . . .
32.4(30) . . .
40.5(33) . . .
33.8(33) . . .
40.0(35) . . .
42.1(34) . . .
40.4(32) . . .
35.4(31) . . .
31.5(31) . . .
28.1(29) . . .
38.1(32) . . .
46(4) . . .
34.4(31) . . .
34.8(32) . . .
35.2(31) . . .
31.1(29) . . .
37.6(32) . . .
28.3(27) . . .
36.2(32) . . .
39.3(33) . . .
33.7(30) . . .
33.2(31) . . .
32.4(30) . . .
37.6(34) . . .
41(4) . . .
37.8(33) . . .
41(4) . . .
31.5(31) . . .
34.9(32) . . .
35.2(31) . . .
33.3(30) . . .
41.4(34) . . .
38.8(35) . . .
34.7(32) . . .
40.3(35) . . .
43.0(34) . . .
44.6(35) . . .
39.9(32) . . .
40.4(33) . . .
49(4) . . .
50(4) . . .
45(4) . . .
34.0(29) . . .
37.2(33) . . .
30.5(29) . . .
42.4(34) . . .
50(4) . . .
40.9(35) . . .
36.9(33) . . .
40.0(33) . . .
42.6(34) . . .
32.0(31) . . .
43(4) . . .
43.0(34) . . .
34.9(30) . . .
30.2(29) . . .
25.6(26) . . .
38.8(35) . . .
44(4) . . .
36.8(31) . . .
43.4(35) . . .
35.3(32) . . .
42(4) . . .
42(4) . . .
38.4(32) . . .
40.4(34) . . .
39.0(33) . . .
28.0(29) . . .
34.6(31) . . .
40.3(33) . . .
31.0(29) . . .
46(4) . . .
33.1(31) . . .
32.5(33) . . .
34.3(30) . . .
32.7(30) . . .
41(4) . . .
38.3(34) . . .
40.8(34) . . .
38.4(33) . . .
43(4) . . .
30.6(30) . . .
36.2(33) . . .
42.7(35) . . .
43.7(34) . . .
30.5(30) . . .
34.0(30) . . .
49(4) . . .
38.0(32) . . .
39.5(33) . . .
38.4(32) . . .
34.2(32) . . .
42(4) . . .
36.3(32) . . .
29.1(29) . . .
36.7(35) . . .
41(4) . . .
37.0(34) . . .
34.3(31) . . .
39.8(32) . . .
44.9(35) . . .
46(4) . . .
41.2(34) . . .
43(4) . . .
34.7(30) . . .
32.7(31) . . .
31.6(30) . . .
42.4(35) . . .
36.9(31) . . .
37.4(31) . . .
27.3(27) . . .
32.0(32) . . .
38.5(34) . . .
38.0(31) . . .
38.3(32) . . .
32.0(31) . . .
33.7(35) . . .
38.7(34) . . .
35.8(31) . . .
39.5(33) . . .
36.1(33) . . .
28.3(28) . . .
32.0(30) . . .
45(4) . . .
40.9(33) . . .
43(4) . . .
44(4) . . .
38.2(33) . . .
36.2(31) . . .
31.4(30) . . .
31.4(33) . . .
34.9(33) . . .
41.4(34) . . .
34.3(31) . . .
40.0(34) . . .
34.2(30) . . .
41.2(35) . . .
44.1(34) . . .
37.6(32) . . .
46(4) . . .
39(4) . . .
35.1(32) . . .
31.9(29) . . .
35.2(31) . . .
37.9(32) . . .
40.3(34) . . .
36.8(34) . . .
39.8(34) . . .
38.0(32) . . .
40.1(35) . . .
25.7(28) . . .
42(4) . . .
48(4) . . .
42.6(35) . . .
33.8(32) . . .
32.1(32) . . .
38.2(32) . . .
39.1(32) . . .
34.0(32) . . .
30.1(31) . . .
33.6(34) . . .
32.5(31) . . .
38.7(32) . . .
37.0(32) . . .
38.5(33) . . .
33.2(30) . . .
33.5(30) . . .
48(4) . . .
36.8(31) . . .
35.8(33) . . .
48(4) . . .
38.5(32) . . .
45.6(35) . . .
51(4) . . .
33.4(31) . . .
42(4) . . .
29.3(29) . . .
37.0(31) . . .
34.8(30) . . .
37.7(31) . . .
38.0(31) . . .
40.6(35) . . .
38.0(32) . . .
41.5(34) . . .
40(4) . . .
42(4) . . .
38.0(32) . . .
38.8(33) . . .
48(4) . . .
33.9(32) . . .
40(4) . . .
32.3(30) . . .
35.9(33) . . .
41.2(34) . . .
39(4) . . .
32.9(31) . . .
39.7(33) . . .
34.3(31) . . .
39(4) . . .
48(4) . . .
46(4) . . .
47(4) . . .
43.6(34) . . .
45(4) . . .
43(4) . . .
37.9(32) . . .
30.8(29) . . .
36.1(31) . . .
46(4) . . .
33.5(33) . . .
28.1(29) . . .
33.3(30) . . .
39.7(33) . . .
35.1(30) . . .
38.4(35) . . .
28.9(28) . . .
37.7(32) . . .
40.0(33) . . .
32.1(29) . . .
44(4) . . .
35.1(31) . . .
37.5(32) . . .
43.4(34) . . .
43(4) . . .
41(4) . . .
40(4) . . .
25.0(26) . . .
44(4) . . .
30.0(29) . . .
42(4) . . .
33.3(30) . . .
40.6(33) . . .
40.2(33) . . .
37.2(34) . . .
39.7(35) . . .
37.8(33) . . .
31.4(29) . . .
32.5(32) . . .
36.0(33) . . .
34.8(32) . . .
39.8(34) . . .
42.8(34) . . .
46(4) . . .
41(4) . . .
41.2(34) . . .
37.7(32) . . .
42.0(34) . . .
38.8(32) . . .
38.1(34) . . .
38.8(35) . . .
39.3(34) . . .
42.8(34) . . .
37.4(33) . . .
43(4) . . .
36.9(33) . . .
38.6(33) . . .
39.6(33) . . .
47(4) . . .
34.7(32) . . .
35.6(31) . . .
39.0(32) . . .
45(4) . . .
38.2(33) . . .
44(4) . . .
40.7(33) . . .
47(4) . . .
42.6(33) . . .
36.6(32) . . .
34.8(33) . . .
37.3(34) . . .
40.5(34) . . .
38.3(32) . . .
39.3(34) . . .
33.0(31) . . .
37.3(34) . . .
49(4) . . .
31.0(29) . . .
37.3(33) . . .
37.5(32) . . .
36.2(34) . . .
37.3(32) . . .
37.8(32) . . .
39.6(34) . . .
34.9(31) . . .
35.6(32) . . .
33.7(30) . . .
34.9(32) . . .
39.1(33) . . .
46(4) . . .
45(4) . . .
35.0(31) . . .
42.3(34) . . .
32.2(31) . . .
37.7(33) . . .
32.0(30) . . .
41.3(34) . . .
41.4(34) . . .
36.2(32) . . .
39.0(33) . . .
35.7(30) . . .
41.9(34) . . .
34.6(31) . . .
46(4) . . .
39.5(33) . . .
32.4(30) . . .
41.0(33) . . .
39.4(34) . . .
40(4) . . .
33.5(31) . . .
35.3(31) . . .
33.1(30) . . .
34.1(35) . . .
40(4) . . .
25.7(26) . . .
40.5(33) . . .
41.1(34) . . .
37.8(34) . . .
30.6(30) . . .
43.2(35) . . .
39.1(33) . . .
36.8(31) . . .
30.6(29) . . .
35.8(33) . . .
38.2(32) . . .
38.6(32) . . .
37.2(33) . . .
36(4) . . .
36.2(32) . . .
44(4) . . .
40.2(33) . . .
35.4(31) . . .
43(4) . . .
35.6(32) . . .
36.1(31) . . .
41.1(33) . . .
34.0(32) . . .
35.7(33) . . .
34.2(30) . . .
40.3(34) . . .
38.5(33) . . .
38.0(34) . . .
35.1(34) . . .
34.1(31) . . .
41.4(34) . . .
33.5(31) . . .
40.2(33) . . .
40.2(34) . . .
29.7(28) . . .
41.0(34) . . .
39.9(33) . . .
32.0(30) . . .
32.3(31) . . .
33.6(32) . . .
37.1(33) . . .
38.4(32) . . .
35.7(34) . . .
40(4) . . .
40.0(35) . . .
32.7(30) . . .
43.5(34) . . .
35.4(32) . . .
40(4) . . .
37.4(34) . . .
30.2(28) . . .
32.2(29) . . .
43.0(35) . . .
30.1(28) . . .
34.3(33) . . .
31.2(29) . . .
36.0(31) . . .
42.4(34) . . .
31.8(30) . . .
37.0(34) . . .
38.3(32) . . .
39.8(35) . . .
40.7(35) . . .
43(4) . . .
43(4) . . .
34.5(31) . . .
34.8(30) . . .
41.1(35) . . .
28.8(29) . . .
32.5(30) . . .
39.8(33) . . .
34.2(31) . . .
31.7(32) . . .
46(4) . . .
48(4) . . .
38.4(32) . . .
49(4) . . .
45(4) . . .
33.6(30) . . .
45(4) . . .
39.0(32) . . .
36.3(33) . . .
42(4) . . .
36.6(33) . . .
39.5(33) . . .
32.9(30) . . .
33.9(31) . . .
32.0(30) . . .
36.8(34) . . .
37.6(32) . . .
35.2(31) . . .
40.4(33) . . .
47(4) . . .
40.0(34) . . .
27.0(27) . . .
27.3(27) . . .
35.1(32) . . .
32.2(32) . . .
35.5(31) . . .
33.5(29) . . .
33.5(32) . . .
35.8(34) . . .
42(4) . . .
35.2(32) . . .
37.2(31) . . .
47(4) . . .
43(4) . . .
41.0(35) . . .
33.1(29) . . .
41.5(34) . . .
30.2(29) . . .
37.4(33) . . .
35.3(32) . . .
39(4) . . .
41.5(33) . . .
46(4) . . .
40.4(33) . . .
39.0(35) . . .
30.8(30) . . .
33.6(30) . . .
32.0(31) . . .
36.7(32) . . .
40(4) . . .
40.2(35) . . .
39.8(33) . . .
39.5(34) . . .
35.8(32) . . .
43(4) . . .
35.8(32) . . .
34.0(31) . . .
38(4) . . .
36.7(34) . . .
28.9(29) . . .
33.5(31) . . .
47(4) . . .
42(4) . . .
40.5(32) . . .
40.5(33) . . .
37.9(34) . . .
33.9(30) . . .
32.1(29) . . .
42(4) . . .
37.3(33) . . .
41.9(34) . . .
37.2(32) . . .
39(4) . . .
39(4) . . .
46(4) . . .
53(4) . . .
36.1(32) . . .
32.2(30) . . .
32.7(31) . . .
34.3(31) . . .
37.9(32) . . .
27.0(27) . . .
37.0(33) . . .
34.0(32) . . .
44(4) . . .
42.1(35) . . .
34.0(30) . . .
38(4) . . .
36(4) . . .
38.7(34) . . .
45(4) . . .
28.3(27) . . .
30.4(30) . . .
33.0(31) . . .
29.8(29) . . .
40.7(33) . . .
34.2(31) . . .
34.0(31) . . .
44(4) . . .
34.4(31) . . .
31.3(29) . . .
39.4(35) . . .
43.2(35) . . .
45(4) . . .
41.8(34) . . .
30.7(29) . . .
32.3(31) . . .
37.5(35) . . .
40.4(33) . . .
43(4) . . .
39.5(32) . . .
50(4) . . .
38.0(33) . . .
38.8(33) . . .
41.9(34) . . .
25.1(26) . . .
34.8(33) . . .
34.6(34) . . .
37.0(35) . . .
37.7(32) . . .
41.2(33) . . .
42.7(34) . . .
42(4) . . .
35.0(31) . . .
40.1(33) . . .
40.8(34) . . .
39.5(32) . . .
41(4) . . .
34.6(31) . . .
40.6(33) . . .
36.3(31) . . .
37.8(33) . . .
50(4) . . .
47(4) . . .
43.3(34) . . .
39.6(32) . . .
43(4) . . .
37.4(35) . . .
37.3(33) . . .
39.0(32) . . .
38.8(33) . . .
38.1(34) . . .
33.8(33) . . .
30.2(29) . . .
34.4(31) . . .
38.4(33) . . .
36.4(33) . . .
37.2(33) . . .
39.2(34) . . .
33.4(30) . . .
35.7(34) . . .
42(4) . . .
36.9(33) . . .
32.8(30) . . .
46(4) . . .
42(4) . . .
38.8(34) . . .
33.5(33) . . .
38.4(33) . . .
38.5(33) . . .
39(4) . . .
38.7(34) . . .
41(4) . . .
39.3(32) . . .
40.2(34) . . .
38.5(33) . . .
38.0(34) . . .
38.2(32) . . .
40.4(33) . . .
41.2(34) . . .
36.7(33) . . .
38.4(34) . . .
31.5(29) . . .
31.8(29) . . .
34.1(32) . . .
37.5(33) . . .
36.5(35) . . .
35.5(34) . . .
39.7(33) . . .
33.6(30) . . .
35.0(30) . . .
33.2(30) . . .
41.8(34) . . .
45(4) . . .
30.9(28) . . .
34.4(32) . . .
40.0(35) . . .
33.5(30) . . .
31.9(29) . . .
41.2(35) . . .
39.7(33) . . .
45(4) . . .
34.5(31) . . .
32.3(30) . . .
38.0(32) . . .
50(4) . . .
46(4) . . .
35.9(32) . . .
33.1(30) . . .
36.4(32) . . .
39.3(33) . . .
34.0(32) . . .
29.5(30) . . .
36.3(32) . . .
33.0(33) . . .
34.9(33) . . .
31.6(29) . . .
32.4(30) . . .
34.3(31) . . .
34.0(31) . . .
35.8(32) . . .
34.7(32) . . .
40.6(33) . . .
45.1(35) . . .
35.3(33) . . .
39.3(34) . . .
40.4(34) . . .
38.0(32) . . .
33.6(30) . . .
40.1(33) . . .
36.9(33) . . .
31.3(30) . . .
39.3(33) . . .
36.5(32) . . .
27.5(28) . . .
32.8(33) . . .
36.3(33) . . .
43.2(34) . . .
42.5(35) . . .
39.3(33) . . .
36.8(35) . . .
35.5(31) . . .
37.5(31) . . .
37.7(32) . . .
36.2(33) . . .
43(4) . . .
33.5(34) . . .
40.5(33) . . .
38.6(33) . . .
49(4) . . .
32.2(30) . . .
39(4) . . .
49(4) . . .
44.4(34) . . .
39.4(34) . . .
38.3(33) . . .
35.6(31) . . .
37.0(32) . . .
38.5(33) . . .
29.3(28) . . .
34.4(32) . . .
43(4) . . .
31.2(29) . . .
36.8(34) . . .
38.5(33) . . .
37.7(33) . . .
34.4(32) . . .
33.4(30) . . .
33.4(32) . . .
33.8(31) . . .
39.5(35) . . .
28.6(28) . . .
35.2(31) . . .
42(4) . . .
32.2(29) . . .
32.9(30) . . .
32.4(30) . . .
39.3(33) . . .
36(4) . . .
28.4(30) . . .
32.5(30) . . .
36.9(32) . . .
26.3(27) . . .
30.2(31) . . .
44(4) . . .
35.1(32) . . .
37.2(31) . . .
42.4(35) . . .
34.0(31) . . .
30.6(31) . . .
29.2(28) . . .
34.5(30) . . .
28.3(27) . . .
38.6(35) . . .
31.8(30) . . .
38.3(33) . . .
39.4(33) . . .
40.7(33) . . .
48(4) . . .
38.5(33) . . .
35.8(32) . . .
30.6(28) . . .
36.5(32) . . .
34.0(31) . . .
37.0(32) . . .
43.0(35) . . .
38.5(32) . . .
39.0(33) . . .
40(4) . . .
39.8(35) . . .
46(4) . . .
29.2(28) . . .
31.9(29) . . .
33.3(31) . . .
38(4) . . .
32.2(31) . . .
35.0(31) . . .
34.3(31) . . .
37.1(34) . . .
35.8(32) . . .
35.0(32) . . .
37.1(32) . . .
38(4) . . .
35.0(33) . . .
32.1(29) . . .
32.5(29) . . .
39.0(33) . . .
37.0(32) . . .
34.0(32) . . .
44(4) . . .
39.3(33) . . .
32.6(30) . . .
45(4) . . .
36.3(32) . . .
49(4) . . .
39.2(34) . . .
37.3(32) . . .
36.4(31) . . .
38.3(35) . . .
31.0(30) . . .
42.2(34) . . .
29.8(28) . . .
29.6(29) . . .
35.6(33) . . .
36.4(33) . . .
27.4(28) . . .
28.4(29) . . .
26.4(27) . . .
47(4) . . .
45(4) . . .
38.2(33) . . .
43.3(34) . . .
41.5(33) . . .
40.2(34) . . .
31.5(29) . . .
29.2(29) . . .
36.2(32) . . .
41(4) . . .
38.4(33) . . .
39.1(32) . . .
42.9(34) . . .
36.6(33) . . .
28.2(29) . . .
29.8(29) . . .
37.7(32) . . .
36.2(32) . . .
35.3(32) . . .
39.6(32) . . .
42(4) . . .
36.0(32) . . .
43.2(34) . . .
31.9(31) . . .
39.3(34) . . .
29.0(27) . . .
33.2(30) . . .
42.6(34) . . .
36.9(33) . . .
36.0(34) . . .
42.9(35) . . .
43.8(34) . . .
37.8(32) . . .
40.8(34) . . .
34.7(33) . . .
36.8(34) . . .
38.5(32) . . .
43.7(34) . . .
35.5(33) . . .
44(4) . . .
34.6(32) . . .
32.6(29) . . .
34.0(32) . . .
36.9(32) . . .
38.3(33) . . .
32.8(30) . . .
38.9(32) . . .
46(4) . . .
38.5(33) . . .
32.9(31) . . .
35.2(32) . . .
40.7(33) . . .
40.3(33) . . .
36.6(33) . . .
34.1(33) . . .
34.2(32) . . .
42.0(34) . . .
34.2(30) . . .
32.4(30) . . .
29.4(29) . . .
37.2(32) . . .
39.1(33) . . .
39.1(33) . . .
32.6(32) . . .
26.7(27) . . .
27.7(28) . . .
41.3(34) . . .
42.8(35) . . .
33.8(32) . . .
36.3(34) . . .
32.6(30) . . .
39.0(33) . . .
39.8(33) . . .
44(4) . . .
43(4) . . .
39.1(33) . . .
31.9(30) . . .
40.8(34) . . .
31.6(31) . . .
34.6(30) . . .
40.3(33) . . .
39.1(32) . . .
39.5(33) . . .
42(4) . . .
34.7(31) . . .
50(4) . . .
47(4) . . .
37.6(34) . . .
29.8(30) . . .
35.0(32) . . .
35.0(30) . . .
43.4(34) . . .
37.0(33) . . .
35.0(33) . . .
36.2(33) . . .
34.2(30) . . .
38.0(32) . . .
48(4) . . .
32.2(32) . . .
37.0(33) . . .
37.9(32) . . .
34.6(31) . . .
28.9(31) . . .
38.7(35) . . .
39.1(34) . . .
33.2(30) . . .
34.4(31) . . .
29.1(28) . . .
46(4) . . .
36.1(33) . . .
26.6(27) . . .
30.8(29) . . .
37.7(33) . . .
39.3(34) . . .
37.7(33) . . .
34.1(31) . . .
35.6(32) . . .
42(4) . . .
38.7(33) . . .
43(4) . . .
34.6(31) . . .
31.7(31) . . .
42(4) . . .
32.8(29) . . .
40.5(33) . . .
36.9(31) . . .
38.5(33) . . .
32.4(31) . . .
39.0(35) . . .
25.1(27) . . .
33.8(30) . . .
41.0(35) . . .
29.7(30) . . .
34.9(31) . . .
39.2(32) . . .
36.6(32) . . .
39.5(35) . . .
40(4) . . .
38(4) . . .
34.7(30) . . .
41.2(34) . . .
36.9(32) . . .
36.7(34) . . .
33.3(30) . . .
38.5(32) . . .
37.6(31) . . .
35.7(32) . . .
37(4) . . .
25.7(26) . . .
35.4(31) . . .
27.2(27) . . .
37.6(33) . . .
42(4) . . .
38.4(33) . . .
38.3(32) . . .
35.3(32) . . .
38.2(33) . . .
46(4) . . .
34.8(33) . . .
34.3(31) . . .
42(4) . . .
38.1(33) . . .
34.3(32) . . .
37.4(35) . . .
31.7(29) . . .
30.3(29) . . .
40(4) . . .
34.5(31) . . .
38.0(33) . . .
40.5(33) . . .
34.7(32) . . .
30.8(31) . . .
27.6(28) . . .
43.3(35) . . .
44.1(34) . . .
31.9(30) . . .
33.2(31) . . .
39.9(34) . . .
40.3(33) . . .
34.2(31) . . .
46(4) . . .
39.4(33) . . .
41.4(34) . . .
38.6(32) . . .
36.4(32) . . .
37.6(33) . . .
36(4) . . .
24.0(25) . . .
34.1(31) . . .
36.0(31) . . .
43.7(34) . . .
32.7(30) . . .
35.2(31) . . .
34.5(30) . . .
37.6(33) . . .
30.3(29) . . .
34.4(35) . . .
32.9(33) . . .
34.5(30) . . .
41.2(34) . . .
32.1(30) . . .
36.3(34) . . .
35.6(32) . . .
33.4(30) . . .
43.4(35) . . .
39.5(34) . . .
33.0(30) . . .
35.8(33) . . .
42.9(35) . . .
40.7(33) . . .
38.5(32) . . .
33.3(30) . . .
36(4) . . .
41.8(33) . . .
34.1(31) . . .
35.5(31) . . .
46(4) . . .
38.2(33) . . .
36.8(31) . . .
33.9(31) . . .
37.5(35) . . .
37.0(33) . . .
37.9(32) . . .
32.7(30) . . .
34.6(31) . . .
38(4) . . .
40(4) . . .
36.9(32) . . .
32.7(30) . . .
40.0(34) . . .
33.0(32) . . .
35.8(31) . . .
36.3(31) . . .
27.5(28) . . .
39.2(34) . . .
42(4) . . .
29.4(28) . . .
34.3(30) . . .
32.2(30) . . .
31.2(30) . . .
40(4) . . .
42.5(35) . . .
31.8(30) . . .
35.5(31) . . .
26.9(28) . . .
40(4) . . .
38(4) . . .
35.0(31) . . .
39.3(32) . . .
38.5(33) . . .
37.3(33) . . .
42(4) . . .
38.1(32) . . .
35.5(31) . . .
35.3(35) . . .
39(4) . . .
39.0(34) . . .
39.2(32) . . .
41(4) . . .
37.1(32) . . .
34.7(31) . . .
37.2(34) . . .
38.4(32) . . .
36.8(32) . . .
36.4(33) . . .
37.5(34) . . .
33.9(31) . . .
39.8(33) . . .
27.8(28) . . .
29.0(29) . . .
41(4) . . .
37.2(33) . . .
39.2(33) . . .
36.2(32) . . .
41(4) . . .
33.6(31) . . .
51(4) . . .
38.3(32) . . .
37.5(34) . . .
30.8(31) . . .
42(4) . . .
46(4) . . .
30.4(29) . . .
32.1(32) . . .
32.8(30) . . .
43(4) . . .
34.0(30) . . .
39.1(35) . . .
30.3(29) . . .
27.5(27) . . .
31.5(30) . . .
26.5(27) . . .
34.5(31) . . .
37.0(32) . . .
34.7(32) . . .
38.3(33) . . .
36.0(32) . . .
32.7(30) . . .
32.1(32) . . .
31.6(32) . . .
44(4) . . .
27.0(27) . . .
35.4(32) . . .
36.3(33) . . .
37.9(35) . . .
46(4) . . .
43.4(34) . . .
38.6(33) . . .
39.5(33) . . .
37.0(34) . . .
31.6(32) . . .
38.7(32) . . .
33.4(33) . . .
40(4) . . .
44(4) . . .
32.5(31) . . .
30.0(29) . . .
23.9(25) . . .
29.4(29) . . .
33.0(32) . . .
34.9(32) . . .
39.7(32) . . .
39.3(34) . . .
49(4) . . .
41.2(33) . . .
35.1(33) . . .
36.0(32) . . .
36.7(32) . . .
42.1(34) . . .
38.2(32) . . .
36.4(32) . . .
39.0(32) . . .
37.1(31) . . .
36.2(32) . . .
40.2(34) . . .
39.6(35) . . .
35.2(31) . . .
37.8(32) . . .
39.7(35) . . .
25.5(26) . . .
41.5(34) . . .
35.1(30) . . .
38.7(32) . . .
35.8(34) . . .
31.0(31) . . .
33.7(30) . . .
40.5(34) . . .
36.7(34) . . .
38.3(34) . . .
38.2(33) . . .
27.1(28) . . .
43.4(35) . . .
35.3(31) . . .
35.0(32) . . .
39.0(34) . . .
34.4(30) . . .
37.6(33) . . .
35.6(31) . . .
33.7(32) . . .
32.3(31) . . .
43.9(34) . . .
41.7(35) . . .
33.2(31) . . .
31.1(28) . . .
38.2(34) . . .
31.8(29) . . .
36.3(32) . . .
40.8(34) . . .
32.7(31) . . .
38.6(34) . . .
34.5(31) . . .
31.4(30) . . .
35.7(33) . . .
31.0(31) . . .
30.9(30) . . .
34.7(31) . . .
37.0(33) . . .
53(4) . . .
37.1(32) . . .
32.7(30) . . .
38.7(32) . . .
30.6(29) . . .
41(4) . . .
32.7(30) . . .
34.5(31) . . .
39.3(34) . . .
30.6(30) . . .
35.1(32) . . .
34.6(31) . . .
44.4(34) . . .
38.8(33) . . .
35.4(32) . . .
38(4) . . .
39.2(34) . . .
36.7(32) . . .
35.8(31) . . .
36.7(33) . . .
33.7(32) . . .
37.2(32) . . .
38.3(32) . . .
45(4) . . .
41.5(34) . . .
33.5(32) . . .
30.2(30) . . .
36.6(33) . . .
29.5(28) . . .
34.8(32) . . .
34.2(33) . . .
35.5(35) . . .
39.5(34) . . .
32.9(31) . . .
36.6(35) . . .
33.3(31) . . .
42(4) . . .
26.9(27) . . .
32.8(32) . . .
41(4) . . .
29.4(29) . . .
38.9(34) . . .
32.4(29) . . .
31.6(31) . . .
31.6(32) . . .
42(4) . . .
38.0(34) . . .
30.1(29) . . .
33.2(31) . . .
38(4) . . .
31.2(31) . . .
39.4(34) . . .
31.0(29) . . .
39.3(34) . . .
36.2(32) . . .
44(4) . . .
41.2(34) . . .
32.5(30) . . .
32.8(33) . . .
32.7(34) . . .
37.5(33) . . .
44.2(35) . . .
35.8(31) . . .
40.1(34) . . .
39.3(35) . . .
32.5(29) . . .
33.7(30) . . .
38.1(33) . . .
36.4(32) . . .
38.4(35) . . .
36.5(32) . . .
37.4(32) . . .
36.3(31) . . .
33.8(32) . . .
28.8(31) . . .
36.1(34) . . .
36.8(31) . . .
36.4(31) . . .
32.8(32) . . .
23.0(27) . . .
41(4) . . .
34.0(31) . . .
43.3(34) . . .
47(4) . . .
36.9(33) . . .
34.2(31) . . .
33.4(30) . . .
36.8(32) . . .
34.2(31) . . .
32.5(30) . . .
36.0(31) . . .
38.9(33) . . .
37.3(32) . . .
41.4(34) . . .
49(4) . . .
41.8(35) . . .
46(4) . . .
43(4) . . .
46(4) . . .
32.8(32) . . .
32.5(30) . . .
39.0(33) . . .
29.2(28) . . .
35.5(32) . . .
40.7(34) . . .
31.9(31) . . .
39.5(33) . . .
44.4(35) . . .
45(4) . . .
38.5(32) . . .
39.4(32) . . .
40.6(33) . . .
40.0(35) . . .
41(4) . . .
45(4) . . .
34.4(30) . . .
35.1(32) . . .
35.5(32) . . .
33.0(33) . . .
31.0(32) . . .
31.9(29) . . .
29.8(29) . . .
39.6(35) . . .
31.3(30) . . .
37.0(32) . . .
29.1(28) . . .
33.6(31) . . .
38.7(33) . . .
33.3(31) . . .
33.8(31) . . .
30.5(28) . . .
34.1(30) . . .
33.8(31) . . .
40.9(35) . . .
39.5(35) . . .
31.5(29) . . .
30.9(30) . . .
35.4(32) . . .
39.3(35) . . .
33.2(34) . . .
32.9(31) . . .
32.3(31) . . .
28.4(30) . . .
39(4) . . .
38.4(33) . . .
39.4(33) . . .
29.7(29) . . .
37.3(35) . . .
35.8(34) . . .
37.8(33) . . .
43.5(35) . . .
38.5(33) . . .
30.2(30) . . .
31.0(29) . . .
38.7(34) . . .
32.9(30) . . .
44(4) . . .
43(4) . . .
41.4(35) . . .
31.0(28) . . .
32.7(30) . . .
34.8(32) . . .
38.1(35) . . .
32.7(31) . . .
30.7(30) . . .
33.3(30) . . .
38(4) . . .
38(4) . . .
37.7(35) . . .
35.4(31) . . .
37.7(33) . . .
35.5(31) . . .
34.7(30) . . .
39.5(34) . . .
36.9(32) . . .
35.0(31) . . .
30.3(29) . . .
33.2(32) . . .
26.6(29) . . .
42.4(34) . . .
35.0(32) . . .
37.0(33) . . .
31.1(29) . . .
39.5(34) . . .
31.4(29) . . .
35.7(31) . . .
44(4) . . .
37.9(35) . . .
32.0(29) . . .
46.0(35) . . .
48(4) . . .
31.5(30) . . .
33.7(32) . . .
30.3(29) . . .
37.8(32) . . .
39.7(33) . . .
40.3(34) . . .
49(4) . . .
40.9(34) . . .
36.3(32) . . .
33.7(30) . . .
35.1(34) . . .
29.1(28) . . .
37.9(34) . . .
36.2(31) . . .
31.1(30) . . .
40.6(35) . . .
34.4(33) . . .
38.9(34) . . .
33.5(30) . . .
33.5(31) . . .
35.7(32) . . .
40.4(34) . . .
36.1(31) . . .
40.7(33) . . .
32.9(30) . . .
40(4) . . .
34.3(31) . . .
33.2(30) . . .
38.1(32) . . .
39.0(33) . . .
37.0(34) . . .
35.6(32) . . .
44.8(34) . . .
34.0(31) . . .
37.5(34) . . .
35.3(34) . . .
38.4(35) . . .
30.3(29) . . .
30.2(30) . . .
35.7(32) . . .
40.0(35) . . .
35.1(31) . . .
38.0(31) . . .
33.6(30) . . .
37.2(33) . . .
47(4) . . .
37.5(33) . . .
41.5(33) . . .
45(4) . . .
39.1(34) . . .
31.3(31) . . .
34.2(32) . . .
28.7(28) . . .
35.2(33) . . .
41(4) . . .
44(4) . . .
33.7(31) . . .
28.0(28) . . .
45(4) . . .
33.5(32) . . .
45(4) . . .
44.3(35) . . .
39.3(32) . . .
35.3(32) . . .
31.3(33) . . .
43(4) . . .
38.3(32) . . .
36.7(31) . . .
47(4) . . .
32.4(29) . . .
35.8(32) . . .
48(4) . . .
32.4(30) . . .
45(4) . . .
41(4) . . .
42(4) . . .
43.4(34) . . .
34.3(31) . . .
32.3(31) . . .
38(4) . . .
35.8(34) . . .
32.4(30) . . .
37.7(32) . . .
29.6(30) . . .
36.1(33) . . .
34.2(33) . . .
33.9(31) . . .
36.7(33) . . .
37.4(34) . . .
25.6(28) . . .
33.0(31) . . .
39.3(32) . . .
35.4(32) . . .
44(4) . . .
41(4) . . .
43.4(34) . . .
32.3(30) . . .
41.5(34) . . .
32.8(31) . . .
38.2(35) . . .
29.6(29) . . .
33.0(30) . . .
40.9(35) . . .
43(4) . . .
33.5(31) . . .
43(4) . . .
34.2(31) . . .
33.3(31) . . .
42(4) . . .
34.7(31) . . .
33.8(30) . . .
42.4(34) . . .
40.0(33) . . .
40(4) . . .
42(4) . . .
29.4(28) . . .
41.6(34) . . .
28.0(27) . . .
38.5(34) . . .
34.6(32) . . .
40(4) . . .
39.8(33) . . .
31.2(29) . . .
36.3(33) . . .
33.1(31) . . .
26.7(27) . . .
37.0(32) . . .
44(4) . . .
39.5(35) . . .
30.6(30) . . .
31.4(29) . . .
40.4(33) . . .
37.5(32) . . .
33.8(32) . . .
35.9(33) . . .
36.5(31) . . .
40.9(34) . . .
33.5(31) . . .
32.8(33) . . .
32.0(32) . . .
37.4(32) . . .
33.7(30) . . .
33.0(29) . . .
39.4(34) . . .
31.0(29) . . .
36.4(31) . . .
46(4) . . .
44(4) . . .
45(4) . . .
39.3(32) . . .
34.1(30) . . .
33.2(31) . . .
31.6(31) . . .
37.1(34) . . .
36.0(31) . . .
32.4(30) . . .
31.5(30) . . .
33.6(32) . . .
38.5(33) . . .
36.6(33) . . .
29.4(28) . . .
34.1(32) . . .
34.1(32) . . .
47(4) . . .
50(4) . . .
38.9(33) . . .
35.7(32) . . .
35.1(31) . . .
34.0(32) . . .
38.8(33) . . .
39.7(33) . . .
38.5(32) . . .
38.6(34) . . .
47(4) . . .
31.9(29) . . .
40.5(33) . . .
41(4) . . .
31.6(32) . . .
35.1(31) . . .
30.9(29) . . .
40.0(33) . . .
30.3(29) . . .
29.6(32) . . .
28.6(29) . . .
38.5(32) . . .
27.4(29) . . .
35.2(33) . . .
37.2(35) . . .
41(4) . . .
30.1(28) . . .
34.0(31) . . .
36.0(35) . . .
27.5(28) . . .
36.0(31) . . .
41.2(34) . . .
43(4) . . .
33.4(31) . . .
37.7(35) . . .
34.3(35) . . .
24.7(26) . . .
36.8(31) . . .
39.1(34) . . .
39.7(34) . . .
39.5(32) . . .
43.8(35) . . .
38.2(35) . . .
36.8(34) . . .
45(4) . . .
36.5(31) . . .
43.2(34) . . .
38.8(33) . . .
40(4) . . .
36.0(31) . . .
36.2(33) . . .
36.9(32) . . .
37.1(33) . . .
44(4) . . .
39.5(33) . . .
30.5(29) . . .
33.2(30) . . .
31.8(29) . . .
37.9(34) . . .
37.7(32) . . .
33.0(30) . . .
45.2(35) . . .
44(4) . . .
32.8(30) . . .
36.0(32) . . .
41.4(34) . . .
36.0(31) . . .
36.7(32) . . .
33.1(30) . . .
37.6(33) . . .
31.6(29) . . .
49(4) . . .
34.8(31) . . .
41(4) . . .
33.8(30) . . .
39.0(32) . . .
40.7(33) . . .
30.5(31) . . .
24.0(28) . . .
35.3(32) . . .
39.3(33) . . .
47(4) . . .
34.0(31) . . .
47(4) . . .
36.1(32) . . .
31.9(29) . . .
35.0(31) . . .
35.2(32) . . .
30.3(30) . . .
43(4) . . .
35.8(31) . . .
32.9(31) . . .
33.2(31) . . .
36.1(32) . . .
36.5(31) . . .
34.0(31) . . .
32.6(30) . . .
39.2(33) . . .
43.4(35) . . .
35.6(31) . . .
33.9(31) . . .
39.3(33) . . .
35.8(33) . . .
35.4(33) . . .
35.5(32) . . .
39.1(33) . . .
37.1(32) . . .
33.0(32) . . .
35.6(34) . . .
40.7(33) . . .
42.0(35) . . .
36.9(32) . . .
36.7(34) . . .
35.7(31) . . .
38.2(32) . . .
41.5(34) . . .
34.8(31) . . .
39(4) . . .
32.8(30) . . .
36.2(32) . . .
41.3(33) . . .
34.8(33) . . .
30.8(31) . . .
30.9(30) . . .
34.3(30) . . .
42.4(34) . . .
34.1(31) . . .
31.1(30) . . .
43(4) . . .
37.0(32) . . .
35.8(31) . . .
36.2(32) . . .
43(4) . . .
43(4) . . .
37.1(31) . . .
41.4(34) . . .
33.2(30) . . .
29.1(29) . . .
33.7(32) . . .
38.4(32) . . .
28.7(28) . . .
36.2(32) . . .
37.8(33) . . .
37.8(34) . . .
27.8(27) . . .
34.0(32) . . .
33.4(31) . . .
36.2(33) . . .
31.5(29) . . .
39.1(33) . . .
38.2(34) . . .
34.7(32) . . .
33.4(30) . . .
46(4) . . .
42.5(34) . . .
35.0(31) . . .
30.6(32) . . .
43(4) . . .
41.6(34) . . .
36.0(31) . . .
37.7(34) . . .
35.7(33) . . .
31.1(30) . . .
34.5(31) . . .
31.0(30) . . .
29.3(30) . . .
37.6(35) . . .
46(4) . . .
38.4(32) . . .
37.0(32) . . .
30.0(28) . . .
41.2(35) . . .
38.3(32) . . .
32.3(30) . . .
31.9(29) . . .
36.3(32) . . .
32.6(32) . . .
33.4(30) . . .
38.6(32) . . .
36.4(31) . . .
38.6(33) . . .
35.6(33) . . .
36.8(34) . . .
48(4) . . .
48(4) . . .
38.5(33) . . .
36.3(32) . . .
36.1(31) . . .
39.0(33) . . .
35.5(32) . . .
33.0(30) . . .
41.4(34) . . .
40.0(33) . . .
43.5(34) . . .
32.8(32) . . .
28.1(29) . . .
36.5(33) . . .
33.6(30) . . .
36.8(31) . . .
31.1(30) . . .
39.8(34) . . .
32.3(29) . . .
32.3(31) . . .
27.2(27) . . .
36.3(34) . . .
39(4) . . .
37.5(32) . . .
34.1(31) . . .
44.5(35) . . .
31.5(29) . . .
39.9(35) . . .
50(4) . . .
39.8(33) . . .
32.9(30) . . .
33.0(30) . . .
38(4) . . .
38.2(33) . . .
35.8(31) . . .
43.7(34) . . .
42.0(35) . . .
33.3(32) . . .
30.6(29) . . .
32.7(30) . . .
35.0(30) . . .
37.5(33) . . .
40(4) . . .
34.9(32) . . .
41.9(34) . . .
30.8(28) . . .
45(4) . . .
40.6(34) . . .
39.1(33) . . .
37.8(32) . . .
34.7(34) . . .
39.3(33) . . .
39.9(33) . . .
36.2(31) . . .
37.5(32) . . .
32.4(30) . . .
39.0(34) . . .
35.2(32) . . .
34.9(31) . . .
37.6(32) . . .
33.6(32) . . .
33.9(33) . . .
33.3(32) . . .
45(4) . . .
45(4) . . .
29.5(30) . . .
32.7(33) . . .
34.9(32) . . .
35.3(32) . . .
40.5(33) . . .
36.8(32) . . .
30.9(29) . . .
37.0(32) . . .
33.5(30) . . .
39.9(33) . . .
41(4) . . .
30.4(29) . . .
44(4) . . .
38.4(32) . . .
35.4(31) . . .
37.2(33) . . .
35.7(34) . . .
28.5(29) . . .
36.3(31) . . .
37.3(32) . . .
31.5(31) . . .
31.6(33) . . .
37.4(32) . . .
35.5(31) . . .
39.0(32) . . .
36.3(32) . . .
33.8(33) . . .
26.6(28) . . .
35.5(31) . . .
52(4) . . .
44.2(35) . . .
40(4) . . .
31.8(31) . . .
35.3(31) . . .
35.6(32) . . .
36.8(34) . . .
33.3(33) . . .
26.0(28) . . .
39.5(32) . . .
39.3(32) . . .
43(4) . . .
25.2(26) . . .
31.5(31) . . .
31.2(29) . . .
33.8(33) . . .
36.9(33) . . .
39.6(33) . . .
33.4(30) . . .
42.6(34) . . .
37.6(32) . . .
47(4) . . .
40.8(33) . . .
33.5(30) . . .
28.0(28) . . .
39(4) . . .
29.9(31) . . .
32.2(33) . . .
34.8(31) . . .
39.4(33) . . .
42(4) . . .
41(4) . . .
37.0(32) . . .
37.3(31) . . .
32.7(30) . . .
33.5(30) . . .
35.5(33) . . .
35.0(32) . . .
32.2(29) . . .
37.8(33) . . .
29.2(29) . . .
27.9(28) . . .
30.8(30) . . .
34.4(32) . . .
32.5(29) . . .
38.5(34) . . .
33.5(32) . . .
34.8(34) . . .
38.3(34) . . .
34.3(30) . . .
28.3(28) . . .
38(4) . . .
36.6(34) . . .
36.6(32) . . .
32.3(30) . . .
27.5(27) . . .
29.9(30) . . .
24.8(26) . . .
33.4(31) . . .
39.5(33) . . .
41(4) . . .
38.1(32) . . .
28.9(28) . . .
29.6(29) . . .
38.1(32) . . .
32.5(31) . . .
30.3(30) . . .
33.2(31) . . .
28.9(28) . . .
27.2(27) . . .
28.2(29) . . .
35.8(33) . . .
30.0(29) . . .
33.2(30) . . .
36.5(33) . . .
37(4) . . .
31.6(30) . . .
36.6(32) . . .
36.4(32) . . .
33.3(30) . . .
31.3(31) . . .
43(4) . . .
41.2(34) . . .
40.9(34) . . .
34.0(30) . . .
32.3(31) . . .
32.4(32) . . .
35.3(32) . . .
38.8(32) . . .
33.6(31) . . .
33.1(31) . . .
34.4(30) . . .
35.8(31) . . .
37.7(32) . . .
37.4(34) . . .
30.3(31) . . .
38.2(34) . . .
31.2(29) . . .
39.6(33) . . .
35.6(31) . . .
39.5(34) . . .
40(4) . . .
35.4(31) . . .
38.3(32) . . .
36.8(32) . . .
39(4) . . .
34.8(32) . . .
36.1(32) . . .
32.0(31) . . .
29.5(30) . . .
40(4) . . .
36.4(33) . . .
27.4(28) . . .
30.7(29) . . .
35.4(32) . . .
46(4) . . .
40(4) . . .
34.2(30) . . .
33.7(30) . . .
37.3(34) . . .
33.4(31) . . .
45(4) . . .
42.7(35) . . .
45(4) . . .
35.9(32) . . .
36.7(33) . . .
33.0(31) . . .
39.5(33) . . .
36.5(33) . . .
43(4) . . .
35.7(32) . . .
35.9(30) . . .
35.3(31) . . .
47(4) . . .
35.4(33) . . .
32.8(31) . . .
31.4(29) . . .
34.1(31) . . .
34.7(31) . . .
32.9(34) . . .
34.0(33) . . .
37.6(33) . . .
38.7(33) . . .
29.8(29) . . .
32.7(32) . . .
28.7(28) . . .
38.0(32) . . .
32.7(30) . . .
38.3(33) . . .
44(4) . . .
32.0(31) . . .
34.9(31) . . .
23.8(26) . . .
37.9(34) . . .
40.1(34) . . .
34.2(30) . . .
37.7(32) . . .
35.1(31) . . .
36.7(33) . . .
38.6(33) . . .
31.0(29) . . .
37.1(32) . . .
33.9(30) . . .
27.0(27) . . .
27.6(28) . . .
35.9(32) . . .
34.7(31) . . .
40(4) . . .
33.7(31) . . .
35.8(31) . . .
40.2(33) . . .
35.6(32) . . .
41(4) . . .
34.9(32) . . .
31.6(30) . . .
30.0(28) . . .
39.2(32) . . .
31.1(30) . . .
43(4) . . .
30.3(29) . . .
36.5(32) . . .
38.3(33) . . .
42(4) . . .
41.6(34) . . .
39.5(33) . . .
33.7(30) . . .
36.6(32) . . .
36.6(32) . . .
36.3(33) . . .
34.3(32) . . .
41.0(33) . . .
30.2(28) . . .
39.1(33) . . .
33.5(31) . . .
35.7(32) . . .
29.9(28) . . .
39.1(33) . . .
35(4) . . .
33.2(32) . . .
39.6(33) . . .
30.1(28) . . .
31.9(30) . . .
35.7(33) . . .
36.4(33) . . .
30.5(29) . . .
39.9(33) . . .
38.5(33) . . .
42(4) . . .
44(4) . . .
32.0(30) . . .
35.2(31) . . .
38.9(34) . . .
32.7(30) . . .
40(4) . . .
37.7(34) . . .
35.7(31) . . .
43.1(35) . . .
34.0(30) . . .
36.1(34) . . .
32.1(30) . . .
31.8(30) . . .
33.4(30) . . .
31.0(29) . . .
34.1(30) . . .
41.5(34) . . .
36.5(32) . . .
30.8(31) . . .
40(4) . . .
34.6(32) . . .
34.3(30) . . .
25.8(26) . . .
33.6(30) . . .
43(4) . . .
42(4) . . .
32.4(31) . . .
33.9(30) . . .
37.6(31) . . .
35.2(31) . . .
30.8(30) . . .
29.7(29) . . .
32.7(31) . . .
32.5(29) . . .
35.6(33) . . .
25.5(27) . . .
38.5(33) . . .
33.8(30) . . .
37.7(33) . . .
44(4) . . .
28.0(28) . . .
36.2(31) . . .
29.3(28) . . .
33.2(32) . . .
27.0(27) . . .
34.2(31) . . .
34.8(31) . . .
44.0(34) . . .
35.2(30) . . .
41.9(35) . . .
34.0(30) . . .
37.1(32) . . .
35.1(32) . . .
32.2(31) . . .
39(4) . . .
38.0(33) . . .
36.0(31) . . .
35.0(31) . . .
33.8(31) . . .
43(4) . . .
35.4(33) . . .
38.7(32) . . .
42(4) . . .
39(4) . . .
33.7(30) . . .
27.8(27) . . .
37.2(32) . . .
35.2(32) . . .
41.8(34) . . .
35.4(31) . . .
32.3(30) . . .
39.3(33) . . .
33.6(31) . . .
42(4) . . .
33.6(30) . . .
44(4) . . .
35.0(30) . . .
34.3(30) . . .
37.2(33) . . .
33.7(31) . . .
39.6(34) . . .
37.1(33) . . .
38.2(32) . . .
38(4) . . .
37.6(33) . . .
32.8(30) . . .
28.6(28) . . .
32.9(30) . . .
44(4) . . .
42.5(35) . . .
32.0(30) . . .
27.9(27) . . .
32.5(30) . . .
34.0(32) . . .
37.2(32) . . .
30.3(29) . . .
28.9(28) . . .
37.5(35) . . .
34.5(31) . . .
31.9(33) . . .
34.5(31) . . .
34.7(31) . . .
38.7(35) . . .
26.9(29) . . .
35.3(32) . . .
40.8(33) . . .
36.1(34) . . .
42(4) . . .
28.7(29) . . .
33.4(32) . . .
39.6(33) . . .
32.1(31) . . .
29.6(29) . . .
32.5(30) . . .
32.9(30) . . .
38.5(32) . . .
38.9(33) . . .
47(4) . . .
41.2(34) . . .
39.0(33) . . .
30.9(29) . . .
36.6(32) . . .
31.8(29) . . .
43.2(35) . . .
38.5(33) . . .
38.9(33) . . .
27.9(27) . . .
34.2(34) . . .
32.2(30) . . .
35.5(31) . . .
42.6(34) . . .
31.2(30) . . .
39(4) . . .
35.5(32) . . .
30.9(29) . . .
35.8(32) . . .
36.3(32) . . .
36.9(34) . . .
33.2(31) . . .
34.1(31) . . .
39.6(33) . . .
32.4(32) . . .
30.9(29) . . .
41(4) . . .
37.2(32) . . .
35.0(31) . . .
40.3(34) . . .
33.1(33) . . .
35.0(32) . . .
42.4(34) . . .
42(4) . . .
23.8(26) . . .
37.4(34) . . .
33.9(30) . . .
37.5(32) . . .
42(4) . . .
43(4) . . .
32.6(31) . . .
29.7(29) . . .
35.9(31) . . .
36.9(32) . . .
30.3(28) . . .
35.7(34) . . .
40.9(34) . . .
41.5(33) . . .
35.5(32) . . .
34.7(32) . . .
39.2(35) . . .
34.3(33) . . .
33.3(30) . . .
36.2(33) . . .
42(4) . . .
35.8(32) . . .
32.5(29) . . .
41.3(35) . . .
38.5(34) . . .
37.6(34) . . .
44.0(35) . . .
42.3(34) . . .
42.3(34) . . .
32.4(29) . . .
29.1(28) . . .
33.5(32) . . .
31.8(29) . . .
32.7(30) . . .
46(4) . . .
34.5(30) . . .
40.0(35) . . .
35.8(31) . . .
33.2(30) . . .
38.8(34) . . .
42(4) . . .
30.5(29) . . .
28.1(27) . . .
36.5(31) . . .
44(4) . . .
30.0(29) . . .
31.2(31) . . .
31.8(30) . . .
38.1(33) . . .
33.9(31) . . .
40.4(34) . . .
35.8(33) . . .
37.2(32) . . .
32.2(30) . . .
34.8(33) . . .
33.4(33) . . .
29.6(30) . . .
36.0(31) . . .
33.2(31) . . .
29.0(28) . . .
35.1(31) . . .
38.3(34) . . .
34.6(31) . . .
35.8(33) . . .
35.3(33) . . .
36.8(32) . . .
35.8(33) . . .
32.8(29) . . .
40.4(34) . . .
42(4) . . .
33.2(31) . . .
34.9(31) . . .
36.1(32) . . .
34.6(32) . . .
44(4) . . .
29.0(27) . . .
32.9(30) . . .
43.5(34) . . .
38.0(32) . . .
28.6(29) . . .
30.9(29) . . .
39.5(32) . . .
36.4(32) . . .
30.2(29) . . .
39(4) . . .
35.8(33) . . .
41.3(34) . . .
39.6(33) . . .
41(4) . . .
32.3(30) . . .
36.0(32) . . .
38.6(33) . . .
32.2(30) . . .
38.4(33) . . .
35.8(34) . . .
32.1(30) . . .
43.5(35) . . .
37.3(33) . . .
36.8(32) . . .
33.9(31) . . .
35.7(33) . . .
37.2(32) . . .
34.5(32) . . .
31.3(31) . . .
35.7(33) . . .
33.6(31) . . .
42.6(34) . . .
46(4) . . .
39.7(33) . . .
42(4) . . .
28.1(28) . . .
29.8(28) . . .
33.6(33) . . .
30.9(31) . . .
32.1(31) . . .
40.4(35) . . .
31.4(29) . . .
32.5(31) . . .
33.6(32) . . .
34.1(32) . . .
40.1(34) . . .
46(4) . . .
39.4(34) . . .
32.9(32) . . .
27.2(27) . . .
36.4(31) . . .
39.0(33) . . .
51(4) . . .
30.5(30) . . .
42(4) . . .
32.2(29) . . .
37.8(32) . . .
47(4) . . .
35.8(32) . . .
36.7(31) . . .
37.1(32) . . .
39.9(33) . . .
36.7(33) . . .
34.7(34) . . .
36.0(32) . . .
37.3(32) . . .
39.1(32) . . .
28.0(27) . . .
38(4) . . .
34.3(33) . . .
35.2(31) . . .
31.2(30) . . .
31.9(31) . . .
41(4) . . .
25.1(26) . . .
34.8(30) . . .
31.8(29) . . .
46(4) . . .
38.1(34) . . .
35.8(32) . . .
39.6(33) . . .
34.3(31) . . .
29.9(29) . . .
34.7(30) . . .
38.3(33) . . .
34.7(31) . . .
35.5(33) . . .
43(4) . . .
33.6(30) . . .
32.0(31) . . .
34.2(30) . . .
28.2(28) . . .
33.5(33) . . .
35.9(34) . . .
37.1(32) . . .
46(4) . . .
35.5(32) . . .
33.5(32) . . .
31.4(29) . . .
40.6(33) . . .
37.4(32) . . .
31.7(29) . . .
40.2(34) . . .
38.3(34) . . .
35.0(30) . . .
40.0(33) . . .
38.8(35) . . .
30.4(31) . . .
34.6(33) . . .
40.2(34) . . .
37.8(32) . . .
38.2(32) . . .
45(4) . . .
45(4) . . .
38.4(33) . . .
35.4(31) . . .
41(4) . . .
30.0(30) . . .
35.7(34) . . .
37.2(31) . . .
33.2(30) . . .
35.1(31) . . .
44(4) . . .
34.8(32) . . .
32.3(30) . . .
35.2(31) . . .
40.6(35) . . .
39.0(35) . . .
37.3(32) . . .
38.2(32) . . .
36.0(31) . . .
38.6(32) . . .
43(4) . . .
31.7(30) . . .
29.3(28) . . .
39.9(34) . . .
40.9(34) . . .
44(4) . . .
34.7(31) . . .
38.9(33) . . .
27.0(27) . . .
37.9(34) . . .
40(4) . . .
44(4) . . .
38.3(32) . . .
36.8(34) . . .
36.4(34) . . .
35.6(33) . . .
32.2(30) . . .
36.3(31) . . .
35.3(31) . . .
37.9(33) . . .
36.1(31) . . .
36.4(32) . . .
32.0(29) . . .
31.8(29) . . .
37.0(33) . . .
36.7(32) . . .
26.0(26) . . .
38.0(32) . . .
37.1(32) . . .
32.3(32) . . .
34.8(31) . . .
38.1(32) . . .
35.0(31) . . .
39.5(35) . . .
27.8(30) . . .
37.7(33) . . .
42.0(34) . . .
32.8(30) . . .
33.4(30) . . .
37.3(33) . . .
41.2(35) . . .
32.4(29) . . .
45(4) . . .
50(4) . . .
39.8(35) . . .
32.9(31) . . .
33.0(30) . . .
42.1(35) . . .
40.4(34) . . .
38.1(32) . . .
37.3(33) . . .
39.8(32) . . .
29.5(29) . . .
30.1(30) . . .
37.3(34) . . .
35.6(33) . . .
41.8(33) . . .
34.7(31) . . .
45(4) . . .
33.0(32) . . .
34.1(30) . . .
37.8(32) . . .
52(4) . . .
42.7(35) . . .
43.3(34) . . .
42(4) . . .
32.6(29) . . .
42(4) . . .
45(4) . . .
30.1(29) . . .
31.3(29) . . .
31.9(29) . . .
38.8(34) . . .
32.6(29) . . .
40.4(34) . . .
40.0(33) . . .
37.6(33) . . .
32.4(31) . . .
31.9(32) . . .
36.5(32) . . .
36.8(31) . . .
37.3(32) . . .
34.1(33) . . .
38(4) . . .
39.1(34) . . .
33.4(30) . . .
38.2(33) . . .
37.0(33) . . .
36.3(34) . . .
41.3(35) . . .
34.5(31) . . .
34.1(31) . . .
36.1(33) . . .
34.4(33) . . .
36.9(32) . . .
40.1(33) . . .
34.3(31) . . .
39(4) . . .
37.7(32) . . .
39.7(34) . . .
33.7(30) . . .
33.9(30) . . .
36.7(33) . . .
38.2(33) . . .
39.0(33) . . .
39.4(32) . . .
42(4) . . .
38.3(35) . . .
43(4) . . .
41.7(34) . . .
38.5(32) . . .
39.4(33) . . .
33.8(32) . . .
38.2(34) . . .
36.6(32) . . .
37.5(32) . . .
41.6(34) . . .
37.6(34) . . .
36.0(32) . . .
39.5(34) . . .
36.2(32) . . .
37.7(32) . . .
29.7(30) . . .
30.9(31) . . .
30.6(29) . . .
33.6(31) . . .
31.8(31) . . .
37.2(34) . . .
34.0(31) . . .
33.2(30) . . .
33.5(30) . . .
36.8(31) . . .
34.6(33) . . .
30.2(30) . . .
33.1(30) . . .
32.0(29) . . .
30.7(29) . . .
39.5(35) . . .
37.8(32) . . .
37.3(32) . . .
39.9(34) . . .
33.7(30) . . .
34.6(33) . . .
27.8(29) . . .
32.8(30) . . .
38.7(32) . . .
40.7(35) . . .
30.1(31) . . .
46(4) . . .
32.9(30) . . .
36.6(31) . . .
42(4) . . .
34.3(32) . . .
37.0(33) . . .
26.4(27) . . .
25.8(29) . . .
42(4) . . .
34.6(32) . . .
42.8(34) . . .
39.7(35) . . .
31.7(32) . . .
41(4) . . .
42(4) . . .
35.3(31) . . .
39.6(33) . . .
39.3(33) . . .
34.4(32) . . .
37.1(33) . . .
35.5(33) . . .
32.9(30) . . .
40(4) . . .
44(4) . . .
40.2(34) . . .
36.5(33) . . .
35.0(31) . . .
34.7(31) . . .
37.2(33) . . .
48(4) . . .
37.9(32) . . .
34.9(31) . . .
31.5(31) . . .
35.7(34) . . .
25.8(27) . . .
33.2(30) . . .
36.8(31) . . .
37.0(32) . . .
36.5(31) . . .
37.2(32) . . .
31.2(30) . . .
37.6(33) . . .
39.7(34) . . .
32.6(34) . . .
35.2(32) . . .
37.8(32) . . .
37.7(33) . . .
32.9(31) . . .
25.9(27) . . .
25.3(27) . . .
33.7(30) . . .
27.7(27) . . .
38.6(33) . . .
33.0(30) . . .
35.0(33) . . .
31.0(29) . . .
43(4) . . .
42(4) . . .
42(4) . . .
36.1(31) . . .
34.5(31) . . .
36.6(32) . . .
39.3(34) . . .
34.7(30) . . .
43.0(35) . . .
38.1(32) . . .
48(4) . . .
43(4) . . .
42(4) . . .
32.2(29) . . .
39.2(32) . . .
42.2(34) . . .
37.1(33) . . .
39.9(34) . . .
35.0(30) . . .
31.8(31) . . .
27.0(28) . . .
27.5(29) . . .
34.3(31) . . .
40.9(34) . . .
36.2(31) . . .
33.3(33) . . .
33.3(33) . . .
30.4(28) . . .
40.4(33) . . .
38.0(32) . . .
36.0(32) . . .
40(4) . . .
40.0(35) . . .
35.2(31) . . .
36.1(31) . . .
35.9(32) . . .
36.2(32) . . .
40.6(35) . . .
39.8(32) . . .
41(4) . . .
32.8(31) . . .
40(4) . . .
47(4) . . .
36.3(32) . . .
42(4) . . .
28.5(29) . . .
36.3(34) . . .
34.1(31) . . .
26.2(27) . . .
28.7(28) . . .
34.6(34) . . .
29.9(30) . . .
32.6(30) . . .
40.5(33) . . .
33.4(31) . . .
35.8(33) . . .
32.4(30) . . .
36.0(33) . . .
39.9(33) . . .
45(4) . . .
37.8(35) . . .
33.5(31) . . .
34.3(31) . . .
31.9(29) . . .
30.9(28) . . .
35.6(32) . . .
42.0(34) . . .
38.3(32) . . .
34.3(31) . . .
31.5(30) . . .
35(4) . . .
34.7(31) . . .
44.1(35) . . .
38.7(33) . . .
42(4) . . .
36.1(35) . . .
33.8(30) . . .
28.2(28) . . .
30.2(30) . . .
43(4) . . .
36(4) . . .
37.3(34) . . .
36.5(31) . . .
32.2(30) . . .
39.9(34) . . .
47(4) . . .
41.8(35) . . .
33.9(31) . . .
37.4(32) . . .
36.2(31) . . .
35.3(33) . . .
35.4(31) . . .
38.6(32) . . .
36.2(33) . . .
31.9(31) . . .
36.5(34) . . .
34.4(34) . . .
34.4(31) . . .
36.5(33) . . .
44(4) . . .
32.7(31) . . .
38.7(35) . . .
51(4) . . .
47(4) . . .
41(4) . . .
29.0(29) . . .
31.5(30) . . .
40.8(34) . . .
36.7(32) . . .
28.6(28) . . .
36.8(35) . . .
34.6(33) . . .
46.0(35) . . .
34.1(32) . . .
41(4) . . .
31.5(31) . . .
31.7(30) . . .
35.0(31) . . .
36.7(34) . . .
32.1(32) . . .
40(4) . . .
32.6(29) . . .
31.9(29) . . .
48(4) . . .
35.5(32) . . .
40.6(34) . . .
35.1(31) . . .
33.5(31) . . .
31.2(29) . . .
31.5(30) . . .
38.1(33) . . .
36.0(31) . . .
47(4) . . .
34.1(31) . . .
35.0(33) . . .
34.3(32) . . .
31.7(30) . . .
48(4) . . .
36.2(32) . . .
37.9(34) . . .
30.3(30) . . .
26.4(27) . . .
37.9(32) . . .
37.3(31) . . .
38.5(33) . . .
35.0(32) . . .
35.3(31) . . .
38.0(35) . . .
31.1(29) . . .
42.6(35) . . .
36.8(33) . . .
31.9(30) . . .
34.7(31) . . .
32.5(32) . . .
30.3(30) . . .
32.0(30) . . .
34.2(31) . . .
38.9(33) . . .
37.5(34) . . .
45(4) . . .
32.4(30) . . .
40.6(34) . . .
35.5(32) . . .
32.9(33) . . .
35.9(32) . . .
30.5(29) . . .
35.7(32) . . .
39.3(34) . . .
36.9(33) . . .
36.3(32) . . .
33.0(31) . . .
38.4(33) . . .
32.0(31) . . .
34.0(33) . . .
34.5(32) . . .
41(4) . . .
40.8(33) . . .
41.3(34) . . .
28.2(27) . . .
38.0(33) . . .
38.1(32) . . .
35.8(31) . . .
30.3(29) . . .
33.7(32) . . .
37.1(33) . . .
31.7(30) . . .
27.8(28) . . .
26.6(28) . . .
33.7(31) . . .
32.5(31) . . .
33.9(31) . . .
38.3(32) . . .
39.3(35) . . .
45(4) . . .
34.4(31) . . .
41.9(33) . . .
39(4) . . .
37.3(33) . . .
31.8(30) . . .
32.7(31) . . .
31.8(30) . . .
34.7(32) . . .
31.4(30) . . .
35.7(34) . . .
32.9(30) . . .
32.5(30) . . .
33.7(30) . . .
41.3(35) . . .
35.2(33) . . .
39.3(33) . . .
40.3(33) . . .
35.1(32) . . .
46(4) . . .
35.4(30) . . .
34.4(30) . . .
33.8(30) . . .
33.0(31) . . .
43(4) . . .
43.2(34) . . .
47(4) . . .
36.0(31) . . .
31.0(29) . . .
35.4(34) . . .
44(4) . . .
34.3(31) . . .
30.2(28) . . .
41.7(34) . . .
32.9(31) . . .
38.8(34) . . .
34.4(31) . . .
33.7(31) . . .
31.2(30) . . .
37(4) . . .
33.3(31) . . .
38.6(33) . . .
31.6(30) . . .
36.4(35) . . .
35.8(33) . . .
40.2(34) . . .
38.0(32) . . .
35.4(32) . . .
34.6(31) . . .
35.2(33) . . .
33.0(32) . . .
38.7(32) . . .
34.2(30) . . .
32.9(32) . . .
42(4) . . .
38.9(33) . . .
39.8(33) . . .
36.9(32) . . .
29.4(29) . . .
30.2(30) . . .
37.4(34) . . .
37.6(32) . . .
39.9(34) . . .
43.7(35) . . .
43.3(35) . . .
40.5(33) . . .
41.5(34) . . .
37.4(33) . . .
49(4) . . .
31.5(29) . . .
33.4(31) . . .
36.0(32) . . .
38.2(34) . . .
35.9(32) . . .
46(4) . . .
28.8(30) . . .
33.6(30) . . .
36.1(34) . . .
30.5(31) . . .
39.7(34) . . .
34.4(32) . . .
40.7(34) . . .
37.9(33) . . .
37.0(35) . . .
35.3(32) . . .
34.2(30) . . .
25.9(27) . . .
34.9(31) . . .
38(4) . . .
33.7(32) . . .
33.7(30) . . .
34.1(31) . . .
29.4(28) . . .
34.9(31) . . .
41.9(34) . . .
35.4(31) . . .
38.5(33) . . .
39.7(34) . . .
39(4) . . .
35.3(34) . . .
35.4(30) . . .
37.2(31) . . .
39.4(33) . . .
33.3(31) . . .
31.6(30) . . .
28.0(29) . . .
27.2(28) . . .
46(4) . . .
36.6(33) . . .
29.1(29) . . .
32.7(30) . . .
42.1(34) . . .
31.8(30) . . .
48(4) . . .
30.2(29) . . .
35.5(31) . . .
32.8(31) . . .
32.7(32) . . .
43(4) . . .
33.6(30) . . .
28.0(28) . . .
34.0(31) . . .
31.5(32) . . .
31.2(32) . . .
32.0(30) . . .
37.0(31) . . .
32.9(30) . . .
37.1(33) . . .
32.3(29) . . .
36.3(32) . . .
31.9(29) . . .
31.9(30) . . .
34.9(34) . . .
34.3(30) . . .
39.6(33) . . .
40.0(34) . . .
33.9(30) . . .
37.2(34) . . .
37.1(34) . . .
28.7(28) . . .
37.0(32) . . .
27.6(28) . . .
31.4(33) . . .
29.1(29) . . .
34.0(30) . . .
37.5(31) . . .
35.7(33) . . .
36.4(33) . . .
35.8(32) . . .
36.4(31) . . .
36.0(33) . . .
34.7(34) . . .
27.0(28) . . .
34.7(31) . . .
39.8(33) . . .
33.3(30) . . .
36.5(33) . . .
34.4(31) . . .
38(4) . . .
29.4(28) . . .
39.0(33) . . .
35.5(33) . . .
27.8(29) . . .
34.5(32) . . .
37.3(31) . . .
29.9(30) . . .
33.7(34) . . .
34.7(32) . . .
38.6(32) . . .
34.1(30) . . .
34.1(32) . . .
39.0(33) . . .
41.8(35) . . .
35.9(31) . . .
37.8(32) . . .
33.6(30) . . .
38.0(34) . . .
40(4) . . .
36.7(32) . . .
27.4(28) . . .
33.3(31) . . .
38(4) . . .
34.8(32) . . .
33.9(30) . . .
42.9(35) . . .
27.3(27) . . .
38(4) . . .
35.5(31) . . .
32.8(30) . . .
33.8(30) . . .
34.9(32) . . .
39(4) . . .
30.8(31) . . .
32.8(31) . . .
37.4(31) . . .
33.0(31) . . .
42(4) . . .
34.5(32) . . .
29.6(29) . . .
34.8(34) . . .
33.1(31) . . .
38.1(33) . . .
33.4(31) . . .
27.2(27) . . .
34.5(31) . . .
35.2(33) . . .
33.0(30) . . .
38.4(35) . . .
39.8(33) . . .
32.0(30) . . .
35.7(32) . . .
39.1(33) . . .
35.8(32) . . .
37.5(33) . . .
33.0(32) . . .
41(4) . . .
36.8(33) . . .
41.6(34) . . .
33.9(30) . . .
32.0(30) . . .
35.8(34) . . .
33.7(33) . . .
38.0(32) . . .
33.8(30) . . .
34.1(31) . . .
41(4) . . .
37.6(31) . . .
46.4(35) . . .
31.4(29) . . .
40(4) . . .
40.6(34) . . .
36.0(32) . . .
25.8(29) . . .
44.9(35) . . .
33.5(29) . . .
38(4) . . .
31.9(30) . . .
32.3(30) . . .
45.1(35) . . .
29.2(28) . . .
37(4) . . .
30.5(32) . . .
32.7(30) . . .
32.1(29) . . .
35.8(34) . . .
34.9(33) . . .
33.8(31) . . .
42.3(33) . . .
38.8(33) . . .
39.5(34) . . .
32.8(31) . . .
38.2(34) . . .
35.8(31) . . .
40.7(34) . . .
36.7(33) . . .
41.7(35) . . .
34.7(32) . . .
29.5(29) . . .
31.3(29) . . .
33.2(31) . . .
39.8(34) . . .
34.7(31) . . .
32.4(30) . . .
30.9(29) . . .
29.6(28) . . .
40.2(35) . . .
35.5(32) . . .
34.5(31) . . .
45(4) . . .
36.2(35) . . .
36.3(34) . . .
28.3(28) . . .
38.5(33) . . .
31.3(29) . . .
31.4(30) . . .
31.7(30) . . .
41.7(34) . . .
35.4(32) . . .
30.0(30) . . .
36(4) . . .
38.5(33) . . .
38.2(32) . . .
32.5(30) . . .
32.6(32) . . .
46(4) . . .
34.1(31) . . .
38.7(32) . . .
38.0(32) . . .
37.0(32) . . .
38.4(34) . . .
30.9(30) . . .
31.1(30) . . .
35.8(33) . . .
28.6(29) . . .
37.8(34) . . .
30.5(29) . . .
41.1(33) . . .
37.1(32) . . .
41.4(35) . . .
42(4) . . .
38.3(34) . . .
32.4(30) . . .
35.4(31) . . .
33.8(31) . . .
36.9(34) . . .
33.1(32) . . .
32.3(30) . . .
36.9(34) . . .
28.6(28) . . .
32.5(31) . . .
35.5(33) . . .
40.1(33) . . .
35.2(32) . . .
35.6(34) . . .
34.4(33) . . .
35.7(33) . . .
34.4(31) . . .
39.1(34) . . .
33.6(31) . . .
36.6(33) . . .
33.4(31) . . .
33.4(31) . . .
43(4) . . .
38.4(35) . . .
28.0(27) . . .
42.3(34) . . .
41.4(33) . . .
36.0(32) . . .
34.0(33) . . .
36.9(32) . . .
43.2(34) . . .
41.4(33) . . .
33.7(31) . . .
40(4) . . .
36.8(34) . . .
30.9(29) . . .
32.3(29) . . .
28.0(29) . . .
32.0(30) . . .
39.2(33) . . .
31.8(29) . . .
39.2(33) . . .
33.6(31) . . .
31.9(32) . . .
42(4) . . .
30.8(29) . . .
29.4(28) . . .
36.6(32) . . .
34.9(32) . . .
31.9(31) . . .
41.0(33) . . .
32.4(31) . . .
37(4) . . .
31.4(31) . . .
28.7(29) . . .
34.3(31) . . .
30.0(28) . . .
35.9(33) . . .
32.0(31) . . .
36.1(32) . . .
38.5(32) . . .
41.2(34) . . .
44(4) . . .
38.4(32) . . .
37.8(32) . . .
39.7(33) . . .
36.2(32) . . .
38.5(35) . . .
36.5(34) . . .
33.1(30) . . .
27.9(28) . . .
28.3(29) . . .
32.7(31) . . .
43.3(35) . . .
36.5(34) . . .
26.5(26) . . .
34.0(32) . . .
34.0(34) . . .
36.2(33) . . .
31.8(30) . . .
45(4) . . .
30.9(30) . . .
31.4(32) . . .
38(4) . . .
36.8(32) . . .
33.2(31) . . .
36.9(32) . . .
31.1(31) . . .
35.9(32) . . .
36.3(31) . . .
42.9(34) . . .
41.7(35) . . .
31.6(32) . . .
28.1(29) . . .
36.3(31) . . .
36.6(31) . . .
36.8(32) . . .
50(4) . . .
40.1(33) . . .
34.8(31) . . .
34.8(31) . . .
36.7(33) . . .
44(4) . . .
38.0(33) . . .
37.0(32) . . .
30.3(30) . . .
27.1(29) . . .
26.8(26) . . .
41.4(35) . . .
40.6(33) . . .
34.7(33) . . .
38.7(33) . . .
37.9(33) . . .
36.9(33) . . .
30.5(28) . . .
33.0(31) . . .
35.8(33) . . .
33.6(31) . . .
40.0(33) . . .
40.1(33) . . .
34.5(31) . . .
31.5(30) . . .
30.1(28) . . .
36.9(32) . . .
35.4(31) . . .
40.1(35) . . .
38.3(34) . . .
46(4) . . .
41.8(33) . . .
29.4(28) . . .
33.1(30) . . .
31.6(30) . . .
34.6(32) . . .
41.4(33) . . .
38.2(34) . . .
34.6(32) . . .
31.5(33) . . .
31.2(32) . . .
34.5(30) . . .
29.9(28) . . .
30.3(30) . . .
39(4) . . .
40.3(34) . . .
32.8(30) . . .
36.5(32) . . .
34.5(32) . . .
28.9(31) . . .
30.8(31) . . .
35.2(30) . . .
41.0(33) . . .
33.9(30) . . .
37.1(34) . . .
55(4) . . .
35.8(31) . . .
39.8(34) . . .
29.2(29) . . .
28.4(28) . . .
37.2(32) . . .
43.2(35) . . .
36.1(33) . . .
35.0(33) . . .
30.0(29) . . .
29.4(30) . . .
34.8(31) . . .
42.2(34) . . .
31.5(29) . . .
29.5(29) . . .
37.3(33) . . .
39.7(33) . . .
32.2(30) . . .
43(4) . . .
33.7(32) . . .
44.7(35) . . .
38.7(32) . . .
41.6(34) . . .
39.7(35) . . .
37.0(31) . . .
35.7(31) . . .
26.8(27) . . .
34.8(31) . . .
42(4) . . .
32.0(30) . . .
34.0(30) . . .
35.2(31) . . .
34.4(32) . . .
27.2(27) . . .
26.9(27) . . .
26.7(27) . . .
29.7(29) . . .
38.9(33) . . .
36.7(34) . . .
33.3(30) . . .
37.8(32) . . .
31.6(30) . . .
38.1(34) . . .
33.2(31) . . .
42(4) . . .
28.7(27) . . .
34.4(32) . . .
39.4(34) . . .
36.9(33) . . .
32.9(31) . . .
35.0(31) . . .
35.4(31) . . .
27.3(27) . . .
38.9(34) . . .
37.8(34) . . .
34.7(31) . . .
39.5(34) . . .
32.2(31) . . .
31.4(31) . . .
27.5(27) . . .
30.9(29) . . .
36.6(32) . . .
27.7(28) . . .
41.3(35) . . .
37.7(32) . . .
36.5(32) . . .
37.5(33) . . .
35.3(34) . . .
35.9(33) . . .
33.0(30) . . .
36.9(32) . . .
33.6(32) . . .
32.8(30) . . .
45(4) . . .
39.2(32) . . .
37.7(33) . . .
34.2(31) . . .
42(4) . . .
42.9(35) . . .
40.1(33) . . .
35.0(30) . . .
36.6(32) . . .
31.5(30) . . .
40(4) . . .
37.9(32) . . .
34.2(31) . . .
36.4(34) . . .
30.2(33) . . .
35.0(32) . . .
31.6(29) . . .
32.1(29) . . .
43(4) . . .
31.4(31) . . .
34.2(31) . . .
31.2(30) . . .
35.7(31) . . .
32.1(30) . . .
33.1(32) . . .
35.0(31) . . .
35.3(31) . . .
40.0(33) . . .
32.5(29) . . .
29.6(29) . . .
35.1(33) . . .
32.9(30) . . .
30.5(29) . . .
27.4(28) . . .
42(4) . . .
43(4) . . .
39.2(32) . . .
31.5(30) . . .
34.5(33) . . .
32.8(31) . . .
30.3(29) . . .
38.7(32) . . .
35.3(33) . . .
28.1(29) . . .
34.7(32) . . .
40.0(35) . . .
35.1(31) . . .
38.6(33) . . .
38.4(35) . . .
29.6(29) . . .
36.1(33) . . .
29.7(28) . . .
36.2(32) . . .
41.4(35) . . .
37.1(32) . . .
34.5(31) . . .
37.7(34) . . .
34.0(32) . . .
42(4) . . .
39.8(34) . . .
38.9(32) . . .
33.6(30) . . .
36.5(33) . . .
36(4) . . .
36.5(33) . . .
36.9(32) . . .
35.1(31) . . .
32.6(29) . . .
43(4) . . .
40(4) . . .
37.6(32) . . .
30.7(29) . . .
41.7(35) . . .
34.5(30) . . .
36.2(32) . . .
32.2(30) . . .
35.3(31) . . .
38.1(35) . . .
32.1(30) . . .
28.9(28) . . .
24.5(26) . . .
36.0(33) . . .
36.3(33) . . .
34.5(34) . . .
29.1(29) . . .
39.4(33) . . .
36.7(31) . . .
35.2(32) . . .
37.4(32) . . .
46(4) . . .
37.6(33) . . .
28.8(28) . . .
40.6(34) . . .
37.8(34) . . .
39.2(34) . . .
41.0(33) . . .
33.1(31) . . .
32.4(31) . . .
41(4) . . .
41.7(34) . . .
27.9(28) . . .
36.0(31) . . .
42(4) . . .
41.5(34) . . .
36.9(31) . . .
42.4(34) . . .
39(4) . . .
34.3(32) . . .
43(4) . . .
33.4(31) . . .
33.5(30) . . .
28.5(29) . . .
41(4) . . .
35.2(33) . . .
25.6(27) . . .
34.5(31) . . .
38.2(34) . . .
37.5(35) . . .
39.1(33) . . .
39.7(33) . . .
34.5(32) . . .
34.1(31) . . .
36.6(35) . . .
35.2(35) . . .
38.8(32) . . .
33.4(31) . . .
32.2(30) . . .
38(4) . . .
35.1(32) . . .
51(4) . . .
44.7(35) . . .
32.5(30) . . .
35.8(33) . . .
35.8(32) . . .
35.2(31) . . .
37.5(33) . . .
33.8(30) . . .
37.8(33) . . .
38.1(33) . . .
36.8(32) . . .
30.9(31) . . .
32.8(33) . . .
33.6(31) . . .
38.7(33) . . .
37.1(33) . . .
30.1(29) . . .
35.3(31) . . .
38.7(33) . . .
34.3(31) . . .
43.3(35) . . .
36.0(33) . . .
39.4(34) . . .
36.6(32) . . .
27.5(27) . . .
35.6(31) . . .
32.8(31) . . .
32.6(31) . . .
32.7(31) . . .
29.4(28) . . .
32.4(30) . . .
36.8(34) . . .
32.4(31) . . .
43(4) . . .
34.9(31) . . .
34.9(31) . . .
36.1(35) . . .
33.0(34) . . .
34.5(31) . . .
32.3(30) . . .
36.2(32) . . .
34.6(31) . . .
41(4) . . .
33.6(32) . . .
37.3(32) . . .
40.0(34) . . .
38.2(33) . . .
38.4(34) . . .
39.6(33) . . .
43.5(35) . . .
35.5(31) . . .
32.2(31) . . .
31.3(31) . . .
36.9(32) . . .
36.4(32) . . .
48(4) . . .
36.2(32) . . .
32.1(29) . . .
38.0(33) . . .
41.3(33) . . .
31.8(31) . . .
43(4) . . .
40.5(35) . . .
32.5(30) . . .
32.3(29) . . .
29.6(28) . . .
34.3(31) . . .
34.9(33) . . .
44.8(34) . . .
36.1(31) . . .
46(4) . . .
41(4) . . .
36.5(33) . . .
37.4(32) . . .
34.2(31) . . .
36.2(32) . . .
34.1(31) . . .
32.5(31) . . .
35.6(33) . . .
30.8(29) . . .
34.2(32) . . .
30.1(28) . . .
40.5(33) . . .
38.4(32) . . .
32.9(31) . . .
37.5(33) . . .
40(4) . . .
38.1(32) . . .
42.1(34) . . .
30.5(28) . . .
41(4) . . .
32.4(32) . . .
33.0(31) . . .
30.5(28) . . .
28.3(29) . . .
27.0(29) . . .
35.3(35) . . .
36.7(33) . . .
32.6(29) . . .
33.7(31) . . .
32.3(31) . . .
37.9(35) . . .
26.9(26) . . .
41.2(34) . . .
36.6(34) . . .
43(4) . . .
31.7(31) . . .
39.1(33) . . .
39.2(33) . . .
38.9(33) . . .
45(4) . . .
43(4) . . .
49(4) . . .
39.0(33) . . .
34.4(32) . . .
34.6(30) . . .
37.4(32) . . .
37.4(32) . . .
48(4) . . .
33.5(31) . . .
38.0(35) . . .
37.3(34) . . .
35.2(31) . . .
37.3(32) . . .
40.6(33) . . .
36.7(34) . . .
34.9(32) . . .
38.2(33) . . .
39.6(33) . . .
34.8(32) . . .
32.3(31) . . .
44(4) . . .
31.2(29) . . .
31.9(30) . . .
33.1(32) . . .
38.4(35) . . .
27.6(28) . . .
26.5(27) . . .
40.2(33) . . .
35.2(32) . . .
37.8(35) . . .
40.0(34) . . .
45(4) . . .
38.7(33) . . .
27.5(28) . . .
30.2(31) . . .
25.8(28) . . .
34.4(31) . . .
35.3(31) . . .
38.6(35) . . .
36.2(35) . . .
41(4) . . .
35.4(31) . . .
38.6(33) . . .
36.9(32) . . .
34.0(32) . . .
31.4(30) . . .
34.2(31) . . .
27.5(27) . . .
33.5(32) . . .
33.3(30) . . .
38(4) . . .
39.5(32) . . .
34.7(31) . . .
35.6(33) . . .
33.6(33) . . .
35.8(33) . . .
32.3(30) . . .
33.1(32) . . .
33.4(32) . . .
26.1(27) . . .
39(4) . . .
45.4(35) . . .
34.8(31) . . .
32.2(31) . . .
32.3(30) . . .
33.8(32) . . .
35.5(33) . . .
32.8(30) . . .
34.6(33) . . .
34.6(30) . . .
37.8(32) . . .
33.7(30) . . .
35.4(31) . . .
33.9(32) . . .
33.9(32) . . .
34.5(31) . . .
37.9(32) . . .
32.1(31) . . .
34.7(34) . . .
37.3(33) . . .
38.9(33) . . .
34.2(31) . . .
30.6(31) . . .
36.1(34) . . .
35.2(32) . . .
36.1(31) . . .
36.4(32) . . .
41(4) . . .
28.1(29) . . .
29.1(30) . . .
32.0(30) . . .
34.1(31) . . .
32.8(32) . . .
37.5(34) . . .
30.4(30) . . .
39.8(32) . . .
36.1(33) . . .
44(4) . . .
31.3(28) . . .
39.2(33) . . .
21.5(25) . . .
33.6(32) . . .
34.0(33) . . .
41.7(35) . . .
44(4) . . .
33.7(30) . . .
37.9(34) . . .
34.5(32) . . .
31.8(30) . . .
36.4(32) . . .
32.0(31) . . .
37.8(33) . . .
36.6(34) . . .
33.9(32) . . .
36.9(32) . . .
32.9(30) . . .
33.0(31) . . .
32.1(32) . . .
31.5(31) . . .
40.4(33) . . .
42.0(33) . . .
29.7(28) . . .
32.4(32) . . .
36.6(33) . . .
33.7(30) . . .
43.7(35) . . .
43.4(35) . . .
36.2(32) . . .
35.6(32) . . .
25.1(26) . . .
31.3(30) . . .
37.0(33) . . .
42(4) . . .
39.0(34) . . .
39.4(33) . . .
33.0(30) . . .
26.1(26) . . .
31.7(32) . . .
26.6(28) . . .
39.4(33) . . .
36.2(32) . . .
29.8(29) . . .
33.3(31) . . .
35.8(34) . . .
38.6(32) . . .
31.9(29) . . .
41(4) . . .
45(4) . . .
49(4) . . .
46(4) . . .
39.8(33) . . .
38.6(34) . . .
31.8(29) . . .
32.5(31) . . .
30.9(29) . . .
38(4) . . .
34.2(32) . . .
35.9(31) . . .
32.9(31) . . .
32.5(30) . . .
39.8(34) . . .
35.4(32) . . .
30.5(30) . . .
34.6(31) . . .
27.4(27) . . .
31.9(29) . . .
38.9(34) . . .
28.5(27) . . .
36.8(32) . . .
29.5(29) . . .
32.8(35) . . .
33.2(34) . . .
27.4(28) . . .
39.2(32) . . .
33.8(30) . . .
35.4(33) . . .
47(4) . . .
39.4(34) . . .
37.8(32) . . .
34.2(31) . . .
31.6(29) . . .
30.4(31) . . .
40.5(35) . . .
33.9(30) . . .
36.6(32) . . .
31.2(32) . . .
35.6(32) . . .
35.0(31) . . .
38.2(33) . . .
32.6(30) . . .
37.1(34) . . .
44(4) . . .
35.2(31) . . .
34.0(31) . . .
41(4) . . .
36.1(33) . . .
29.4(29) . . .
35.4(33) . . .
35.1(31) . . .
33.0(30) . . .
40.4(35) . . .
36.0(33) . . .
39.0(33) . . .
32.8(30) . . .
44.0(35) . . .
37.1(32) . . .
38.2(34) . . .
33.9(31) . . .
31.6(29) . . .
41(4) . . .
41(4) . . .
31.7(33) . . .
31.1(29) . . .
26.1(27) . . .
34.9(32) . . .
31.7(31) . . .
32.8(31) . . .
32.7(30) . . .
36.0(31) . . .
37.7(35) . . .
33.5(33) . . .
32.3(31) . . .
34.9(31) . . .
37.3(32) . . .
35.2(33) . . .
37(4) . . .
34.4(32) . . .
33.4(30) . . .
37.2(32) . . .
37.8(35) . . .
31.2(34) . . .
31.8(30) . . .
35.6(31) . . .
24.5(26) . . .
30.3(31) . . .
29.9(30) . . .
26.4(27) . . .
32.5(29) . . .
36.2(32) . . .
35.5(32) . . .
45(4) . . .
36.4(33) . . .
36.0(30) . . .
34.2(31) . . .
36.6(32) . . .
41(4) . . .
31.2(30) . . .
32.5(30) . . .
28.2(28) . . .
34.4(32) . . .
40.8(35) . . .
36.2(32) . . .
35.4(31) . . .
39.4(34) . . .
34.9(34) . . .
32.9(30) . . .
34.6(31) . . .
32.5(30) . . .
34.4(31) . . .
33.9(32) . . .
38.7(33) . . .
38.5(33) . . .
39.3(32) . . .
35.9(32) . . .
37.6(35) . . .
30.5(30) . . .
29.2(30) . . .
42.3(34) . . .
34.2(33) . . .
34.7(33) . . .
40.8(33) . . .
40.8(33) . . .
32.5(32) . . .
34.1(31) . . .
37.9(35) . . .
35.5(33) . . .
26.3(28) . . .
37.2(31) . . .
44.0(35) . . .
38.0(32) . . .
34.6(33) . . .
25.8(27) . . .
27.5(27) . . .
37.9(33) . . .
30.9(30) . . .
28.7(28) . . .
34.3(30) . . .
34.1(31) . . .
37.3(32) . . .
30.8(29) . . .
39(4) . . .
31.3(29) . . .
36.2(32) . . .
32.4(30) . . .
40(4) . . .
42(4) . . .
38.5(33) . . .
33.2(30) . . .
35.1(33) . . .
28.6(29) . . .
51(4) . . .
42.6(34) . . .
39.6(34) . . .
37.1(34) . . .
39.0(33) . . .
37.1(32) . . .
30.0(29) . . .
34.9(33) . . .
31.1(29) . . .
41.0(34) . . .
35.3(31) . . .
39.3(33) . . .
29.9(29) . . .
32.1(33) . . .
31.4(30) . . .
30.4(29) . . .
32.8(30) . . .
44(4) . . .
40.2(35) . . .
37.1(33) . . .
34.4(31) . . .
36.3(32) . . .
33.1(31) . . .
30.9(32) . . .
33.7(32) . . .
33.0(30) . . .
31.4(30) . . .
40.9(34) . . .
43(4) . . .
34.4(34) . . .
36.0(31) . . .
34.0(31) . . .
34.7(33) . . .
33.6(35) . . .
28.6(29) . . .
47(4) . . .
39.5(34) . . .
36.0(32) . . .
33.1(31) . . .
33.8(32) . . .
31.1(30) . . .
38.0(32) . . .
42(4) . . .
28.9(31) . . .
30.6(30) . . .
33.1(30) . . .
31.9(29) . . .
38.5(34) . . .
33.0(31) . . .
36.4(31) . . .
36.7(31) . . .
35.0(32) . . .
41(4) . . .
35.8(32) . . .
36.5(32) . . .
42.8(34) . . .
27.4(27) . . .
31.9(32) . . .
31.6(31) . . .
33.9(32) . . .
38.0(32) . . .
31.5(31) . . .
33.5(33) . . .
33.8(34) . . .
33.1(30) . . .
29.7(28) . . .
29.4(30) . . .
28.6(30) . . .
38.1(34) . . .
40.1(35) . . .
43.7(35) . . .
30.9(29) . . .
32.7(32) . . .
30.9(28) . . .
38.5(33) . . .
34.6(31) . . .
31.9(30) . . .
34.7(34) . . .
37.1(33) . . .
39.0(32) . . .
39.9(33) . . .
42(4) . . .
30.8(31) . . .
34.4(34) . . .
30.7(29) . . .
36.5(32) . . .
30.4(30) . . .
29.6(28) . . .
39.2(33) . . .
29.9(29) . . .
34.7(31) . . .
25.7(27) . . .
34.6(33) . . .
33.4(31) . . .
28.6(28) . . .
28.0(28) . . .
33.8(33) . . .
34.4(33) . . .
34.8(33) . . .
33.1(31) . . .
42.8(34) . . .
46(4) . . .
32.1(29) . . .
31.0(30) . . .
34.8(31) . . .
37.2(32) . . .
33.3(33) . . .
27.1(29) . . .
32.2(31) . . .
25.8(27) . . .
33.7(32) . . .
31.3(32) . . .
35.6(33) . . .
34.0(30) . . .
44.4(34) . . .
45(4) . . .
29.3(28) . . .
32.8(30) . . .
32.3(30) . . .
30.5(29) . . .
40.3(34) . . .
34.9(32) . . .
34.6(31) . . .
36.3(32) . . .
35.2(31) . . .
28.4(28) . . .
30.5(29) . . .
33.4(31) . . .
36.6(31) . . .
28.8(28) . . .
40.6(34) . . .
52(4) . . .
29.1(28) . . .
36.1(32) . . .
32.4(29) . . .
37.3(35) . . .
35.8(35) . . .
28.7(30) . . .
39.5(33) . . .
35.4(31) . . .
32.9(31) . . .
37(4) . . .
30.7(30) . . .
45(4) . . .
37.4(31) . . .
39.5(33) . . .
38.6(32) . . .
39.1(33) . . .
31.0(29) . . .
28.4(28) . . .
41(4) . . .
32.7(29) . . .
47(4) . . .
34.9(30) . . .
38.5(33) . . .
27.5(28) . . .
36(4) . . .
32.8(30) . . .
34.8(31) . . .
33.2(30) . . .
33.8(31) . . .
28.1(28) . . .
33.4(30) . . .
38.9(33) . . .
36.0(32) . . .
34.9(31) . . .
35.8(31) . . .
34.9(30) . . .
40.8(33) . . .
35.9(30) . . .
30.5(31) . . .
31.1(30) . . .
28.2(27) . . .
29.6(28) . . .
35.0(32) . . .
33.5(32) . . .
42.3(34) . . .
45.1(35) . . .
40.8(34) . . .
33.9(31) . . .
41(4) . . .
35.0(32) . . .
36.2(31) . . .
29.3(29) . . .
35.1(31) . . .
37.1(33) . . .
41(4) . . .
32.1(30) . . .
35.7(32) . . .
40.8(34) . . .
38.6(34) . . .
35.4(31) . . .
34.9(31) . . .
36.2(32) . . .
36.9(33) . . .
38.9(34) . . .
36.0(33) . . .
34.8(31) . . .
33.5(30) . . .
36.3(33) . . .
43(4) . . .
36.8(33) . . .
30.1(29) . . .
36.3(32) . . .
38.1(34) . . .
35.6(33) . . .
32.8(31) . . .
32.0(30) . . .
31.8(29) . . .
33.8(32) . . .
26.6(28) . . .
33.3(31) . . .
34.8(31) . . .
33.7(30) . . .
39(4) . . .
33.0(31) . . .
37.5(33) . . .
33.4(31) . . .
40.0(34) . . .
42(4) . . .
28.8(28) . . .
32.0(29) . . .
28.3(28) . . .
31.7(30) . . .
36.1(33) . . .
39.2(34) . . .
39.5(33) . . .
38.4(32) . . .
34.7(30) . . .
38.4(34) . . .
35.5(31) . . .
45.5(35) . . .
37.5(32) . . .
24.3(26) . . .
36.0(34) . . .
34.3(33) . . .
36.9(33) . . .
43.0(34) . . .
35.4(32) . . .
32.8(31) . . .
43(4) . . .
29.1(29) . . .
34.1(31) . . .
37.3(34) . . .
44(4) . . .
35.3(32) . . .
28.3(28) . . .
31.4(30) . . .
35.9(33) . . .
31.4(30) . . .
35.5(33) . . .
31.3(29) . . .
42(4) . . .
36.6(32) . . .
27.8(27) . . .
36.1(31) . . .
29.9(29) . . .
35.6(32) . . .
35.6(32) . . .
30.1(29) . . .
30.6(29) . . .
33.2(30) . . .
35.6(34) . . .
36.8(34) . . .
39(4) . . .
29.4(28) . . .
35.6(31) . . .
31.5(32) . . .
28.9(30) . . .
45(4) . . .
39.4(34) . . .
45(4) . . .
33.9(32) . . .
34.5(33) . . .
36.3(32) . . .
43.9(35) . . .
40.1(33) . . .
40.5(34) . . .
41(4) . . .
37.4(33) . . .
34.3(31) . . .
35.7(31) . . .
34.3(31) . . .
33.5(33) . . .
39.4(33) . . .
47(4) . . .
27.6(27) . . .
30.2(31) . . .
30.3(29) . . .
32.6(30) . . .
34.0(30) . . .
42.7(34) . . .
35.3(31) . . .
40(4) . . .
38.4(33) . . .
34.9(31) . . .
34.1(32) . . .
25.6(28) . . .
34.7(33) . . .
41.0(35) . . .
27.8(28) . . .
36.7(33) . . .
32.0(30) . . .
29.5(29) . . .
30.9(29) . . .
30.8(29) . . .
31.8(30) . . .
23.4(26) . . .
43(4) . . .
29.3(29) . . .
34.4(31) . . .
36.0(33) . . .
34.0(33) . . .
26.9(29) . . .
40(4) . . .
42.4(34) . . .
31.4(31) . . .
35.4(33) . . .
35.6(32) . . .
35.8(31) . . .
37.7(32) . . .
35.8(32) . . .
33.4(35) . . .
32.1(31) . . .
35.4(32) . . .
33.1(29) . . .
38.5(33) . . .
38(4) . . .
34.7(32) . . .
38.0(32) . . .
37.9(32) . . .
37.0(34) . . .
35.1(32) . . .
32.4(32) . . .
29.9(28) . . .
34.5(32) . . .
35.7(32) . . .
34.3(31) . . .
31.9(29) . . .
40.1(34) . . .
33.1(30) . . .
33.9(30) . . .
32.7(31) . . .
38.5(33) . . .
40.5(33) . . .
38.4(33) . . .
41.2(34) . . .
44(4) . . .
36.8(32) . . .
32.3(30) . . .
32.9(32) . . .
31.2(32) . . .
30.6(31) . . .
32.4(30) . . .
33.1(30) . . .
43(4) . . .
36.0(31) . . .
34.7(31) . . .
34.2(31) . . .
45(4) . . .
39(4) . . .
32.6(30) . . .
32.1(31) . . .
25.4(27) . . .
37.4(32) . . .
45(4) . . .
35.9(33) . . .
39.3(33) . . .
36.1(31) . . .
35.3(31) . . .
32.6(30) . . .
37(4) . . .
35.2(35) . . .
35.3(31) . . .
32.8(30) . . .
36.5(33) . . .
33.6(31) . . .
42(4) . . .
37.7(32) . . .
35.7(31) . . .
35.1(32) . . .
31.6(31) . . .
37.6(34) . . .
30.5(29) . . .
27.3(27) . . .
34.4(33) . . .
34.0(33) . . .
44(4) . . .
36.6(32) . . .
30.3(29) . . .
42(4) . . .
29.7(29) . . .
25.8(26) . . .
31.0(29) . . .
31.2(29) . . .
36.4(33) . . .
36.6(34) . . .
39.9(35) . . .
32.8(30) . . .
34.8(31) . . .
30.6(30) . . .
25.5(30) . . .
25.4(27) . . .
29.4(28) . . .
30.4(30) . . .
34.6(32) . . .
35.8(32) . . .
27.6(28) . . .
29.2(29) . . .
30.1(29) . . .
28.0(29) . . .
37.2(33) . . .
35.3(32) . . .
23.7(25) . . .
35.2(31) . . .
36.4(34) . . .
35.3(32) . . .
30.4(29) . . .
36.4(31) . . .
33.7(30) . . .
40.2(35) . . .
38.4(33) . . .
32.4(29) . . .
33.0(30) . . .
39.0(33) . . .
30.5(29) . . .
36.6(32) . . .
36.0(32) . . .
39.9(33) . . .
35.2(31) . . .
36(4) . . .
33.4(31) . . .
35.8(31) . . .
37.0(31) . . .
50(4) . . .
41(4) . . .
40.4(34) . . .
37.0(31) . . .
33.3(31) . . .
39(4) . . .
36.7(33) . . .
34.0(32) . . .
37.6(32) . . .
37.2(34) . . .
38.5(33) . . .
36.3(32) . . .
29.1(29) . . .
35.8(31) . . .
32.0(30) . . .
39(4) . . .
38(4) . . .
34.5(32) . . .
34.5(31) . . .
37(4) . . .
29.7(29) . . .
28.2(28) . . .
37.8(34) . . .
34.3(30) . . .
34.1(31) . . .
29.8(28) . . .
41(4) . . .
34.4(30) . . .
32.8(30) . . .
24.9(27) . . .
31.0(32) . . .
36.7(33) . . .
36.7(31) . . .
40.8(33) . . .
36.8(32) . . .
36.2(32) . . .
37.2(33) . . .
41.3(33) . . .
42.6(33) . . .
31.9(29) . . .
36.4(34) . . .
32.6(31) . . .
36.8(32) . . .
36.1(33) . . .
29.6(29) . . .
43(4) . . .
36.2(33) . . .
33.9(30) . . .
35.3(32) . . .
32.0(31) . . .
36(4) . . .
24.6(27) . . .
34.5(30) . . .
35.4(31) . . .
32.9(29) . . .
28.9(30) . . .
24.5(26) . . .
31.5(29) . . .
35.7(32) . . .
33.4(31) . . .
37.0(35) . . .
28.6(32) . . .
34.3(30) . . .
29.8(29) . . .
31.9(31) . . .
31.5(32) . . .
32.7(33) . . .
40.6(33) . . .
32.9(30) . . .
32.7(32) . . .
34.7(33) . . .
32.6(30) . . .
36.2(31) . . .
33.3(30) . . .
30.6(29) . . .
33.1(31) . . .
41.2(34) . . .
32.3(30) . . .
39.1(35) . . .
32.9(31) . . .
26.2(27) . . .
33.4(30) . . .
36.8(32) . . .
36.1(35) . . .
30.7(31) . . .
28.8(29) . . .
31.0(29) . . .
28.5(28) . . .
33.6(32) . . .
39(4) . . .
39.9(33) . . .
37.6(32) . . .
38.3(33) . . .
29.5(28) . . .
36.6(34) . . .
31.9(30) . . .
35.8(31) . . .
30.9(29) . . .
38.2(33) . . .
33.4(33) . . .
36.2(33) . . .
25.3(27) . . .
29.7(29) . . .
30.4(29) . . .
30.0(32) . . .
34.3(32) . . .
37.7(32) . . .
42.2(34) . . .
37.4(32) . . .
35.1(32) . . .
33.7(32) . . .
34.0(30) . . .
29.5(28) . . .
32.9(31) . . .
27.4(27) . . .
28.3(29) . . .
37.3(33) . . .
30.5(29) . . .
41(4) . . .
35.3(33) . . .
32.1(31) . . .
31.7(29) . . .
31.4(30) . . .
33.8(32) . . .
43(4) . . .
37.8(34) . . .
36.5(32) . . .
38.8(34) . . .
33.1(30) . . .
30.7(29) . . .
41(4) . . .
36.5(32) . . .
38.8(34) . . .
32.0(30) . . .
37.5(34) . . .
34.6(31) . . .
32.8(30) . . .
29.5(30) . . .
26.5(28) . . .
26.6(28) . . .
33.1(30) . . .
39.2(33) . . .
31.6(30) . . .
34.0(32) . . .
30.6(32) . . .
35.8(31) . . .
39.7(33) . . .
28.0(28) . . .
34.5(34) . . .
36.3(33) . . .
34.5(31) . . .
34.5(32) . . .
35.8(32) . . .
37.5(31) . . .
39.0(34) . . .
30.8(29) . . .
37.8(32) . . .
41.5(35) . . .
31.0(29) . . .
37.1(33) . . .
41.5(33) . . .
39.4(33) . . .
31.6(29) . . .
33.3(31) . . .
26.8(28) . . .
28.7(28) . . .
29.1(30) . . .
37.6(34) . . .
30.1(30) . . .
34.5(33) . . .
28.0(28) . . .
31.0(30) . . .
38.3(34) . . .
32.6(30) . . .
41.0(34) . . .
34.6(31) . . .
36.0(35) . . .
28.4(30) . . .
34.0(32) . . .
35.3(31) . . .
35.9(32) . . .
32.6(30) . . .
32.9(33) . . .
33.3(31) . . .
45(4) . . .
40.6(33) . . .
42.1(35) . . .
38.0(35) . . .
41.9(35) . . .
40.5(33) . . .
40.3(34) . . .
40.2(33) . . .
40(4) . . .
38.4(34) . . .
37.5(32) . . .
30.9(30) . . .
31.0(31) . . .
39(4) . . .
30.2(30) . . .
29.1(29) . . .
32.1(30) . . .
41.1(34) . . .
36.6(32) . . .
34.6(32) . . .
39.0(33) . . .
38.7(33) . . .
34.0(33) . . .
42(4) . . .
31.3(29) . . .
30.2(29) . . .
31.9(29) . . .
35.7(34) . . .
32.6(32) . . .
37.1(35) . . .
32.8(30) . . .
33.7(30) . . .
35.5(34) . . .
25.0(27) . . .
36.9(34) . . .
30.5(29) . . .
34.1(30) . . .
33.8(32) . . .
23.7(26) . . .
35.3(32) . . .
35.8(32) . . .
27.6(29) . . .
30.6(31) . . .
38.7(34) . . .
38.8(32) . . .
29.9(28) . . .
38.9(32) . . .
36.4(33) . . .
32.9(31) . . .
33.1(30) . . .
35.5(31) . . .
39.7(35) . . .
35.3(33) . . .
40.8(34) . . .
35.6(31) . . .
31.9(29) . . .
33.6(31) . . .
34.5(33) . . .
39.8(34) . . .
36.4(31) . . .
31.4(29) . . .
40(4) . . .
34.1(32) . . .
34.8(34) . . .
39.9(33) . . .
35.6(31) . . .
35.8(31) . . .
27.8(28) . . .
25.1(28) . . .
34.5(30) . . .
39.5(33) . . .
40.1(35) . . .
35.0(31) . . .
43.1(35) . . .
34.3(31) . . .
41.0(34) . . .
39.3(34) . . .
30.3(29) . . .
37.8(34) . . .
28.6(28) . . .
29.5(29) . . .
29.0(29) . . .
34.2(32) . . .
37.8(33) . . .
35.7(31) . . .
31.7(30) . . .
29.7(29) . . .
30.9(29) . . .
32.5(30) . . .
33.6(30) . . .
38.1(34) . . .
47(4) . . .
34.7(31) . . .
26.8(27) . . .
31.9(29) . . .
34.0(33) . . .
30.4(29) . . .
36.4(32) . . .
36.2(33) . . .
33.5(30) . . .
33.5(32) . . .
36.8(34) . . .
40.0(34) . . .
37.5(33) . . .
33.2(30) . . .
22.7(24) . . .
31.9(32) . . .
40(4) . . .
35.3(32) . . .
36.9(32) . . .
38.4(33) . . .
31.0(31) . . .
31.0(29) . . .
43.0(35) . . .
47(4) . . .
32.3(32) . . .
39(4) . . .
32.0(30) . . .
38.0(33) . . .
33.5(30) . . .
30.4(29) . . .
29.6(31) . . .
29.3(30) . . .
32.8(29) . . .
28.4(29) . . .
33.3(30) . . .
42(4) . . .
34.5(34) . . .
32.3(29) . . .
42.3(35) . . .
45(4) . . .
30.7(29) . . .
34.6(34) . . .
33.0(30) . . .
29.9(28) . . .
37.1(32) . . .
31.8(29) . . .
34.7(32) . . .
31.9(29) . . .
33.4(31) . . .
38.8(33) . . .
25.0(27) . . .
31.1(30) . . .
29.6(29) . . .
37(4) . . .
42(4) . . .
26.7(28) . . .
32.7(30) . . .
28.9(28) . . .
33.1(31) . . .
41(4) . . .
36.9(33) . . .
39.2(32) . . .
32.4(29) . . .
34.1(31) . . .
32.7(32) . . .
31.8(34) . . .
36.7(33) . . .
30.6(29) . . .
35.3(32) . . .
34.1(35) . . .
29.3(31) . . .
36.6(32) . . .
39.1(32) . . .
45(4) . . .
44(4) . . .
31.1(29) . . .
35.8(31) . . .
31.0(29) . . .
36.1(32) . . .
32.5(32) . . .
33.8(34) . . .
25.1(26) . . .
34.5(31) . . .
42(4) . . .
37.7(34) . . .
38.2(35) . . .
35.8(32) . . .
32.8(30) . . .
32.2(32) . . .
27.8(29) . . .
40.0(34) . . .
36.8(31) . . .
30.0(28) . . .
37.6(33) . . .
33.0(30) . . .
24.9(25) . . .
43.8(35) . . .
31.3(29) . . .
30.3(30) . . .
29.4(29) . . .
36.0(33) . . .
36.1(31) . . .
36.9(34) . . .
44(4) . . .
46(4) . . .
41.5(34) . . .
24.5(26) . . .
28.4(29) . . .
35.1(34) . . .
32.7(30) . . .
38.7(33) . . .
39.4(33) . . .
32.0(31) . . .
27.8(30) . . .
33.5(32) . . .
39.7(33) . . .
32.1(30) . . .
37.1(32) . . .
31.2(31) . . .
28.6(28) . . .
29.4(29) . . .
28.5(28) . . .
35.4(32) . . .
37(4) . . .
35.6(32) . . .
33.9(30) . . .
33.6(30) . . .
42(4) . . .
38.7(35) . . .
36.9(34) . . .
34.1(31) . . .
28.4(28) . . .
29.6(28) . . .
31.6(31) . . .
34.8(32) . . .
26.1(27) . . .
38.3(32) . . .
46(4) . . .
33.8(33) . . .
36.2(32) . . .
32.7(30) . . .
33.6(30) . . .
46(4) . . .
34.8(32) . . .
25.7(26) . . .
34.7(32) . . .
36.1(32) . . .
31.5(29) . . .
38.0(35) . . .
29.7(29) . . .
29.1(28) . . .
35.2(32) . . .
34.0(33) . . .
40.3(34) . . .
35.3(30) . . .
40.5(34) . . .
31.7(31) . . .
37.3(35) . . .
36.0(31) . . .
42(4) . . .
37.7(32) . . .
30.0(29) . . .
32.9(30) . . .
33.0(30) . . .
43.6(35) . . .
33.7(31) . . .
29.5(29) . . .
31.3(32) . . .
27.3(27) . . .
30.1(29) . . .
35.3(31) . . .
39.8(33) . . .
33.4(33) . . .
29.6(31) . . .
25.3(27) . . .
31.8(29) . . .
29.9(29) . . .
31.6(32) . . .
34.8(34) . . .
38.9(32) . . .
36.5(32) . . .
45(4) . . .
34.0(33) . . .
28.6(28) . . .
32.5(29) . . .
36.1(32) . . .
37.0(34) . . .
42(4) . . .
29.9(29) . . .
28.4(28) . . .
37.2(33) . . .
30.8(30) . . .
33.7(32) . . .
34.5(34) . . .
36.3(32) . . .
35.1(32) . . .
38.1(33) . . .
40.0(34) . . .
30.7(30) . . .
39.7(33) . . .
28.2(27) . . .
27.6(28) . . .
40(4) . . .
31.8(30) . . .
24.8(26) . . .
35.4(33) . . .
30.3(30) . . .
32.0(31) . . .
32.6(30) . . .
30.4(29) . . .
29.6(28) . . .
34.3(32) . . .
34.3(31) . . .
28.1(27) . . .
30.0(29) . . .
36.5(33) . . .
34.8(32) . . .
31.2(29) . . .
40.5(33) . . .
35.9(31) . . .
24.2(26) . . .
27.0(30) . . .
35.2(33) . . .
30.1(29) . . .
30.9(29) . . .
36.5(34) . . .
37(4) . . .
29.6(29) . . .
27.1(27) . . .
33.7(31) . . .
34.2(31) . . .
36.2(32) . . .
31.9(29) . . .
42.5(34) . . .
40.0(34) . . .
38.5(34) . . .
27.9(29) . . .
40(4) . . .
29.9(28) . . .
35.7(32) . . .
29.0(29) . . .
31.8(32) . . .
29.9(31) . . .
31.3(29) . . .
33.8(30) . . .
39.7(35) . . .
32.4(30) . . .
38.6(33) . . .
30.4(30) . . .
29.6(30) . . .
34.8(32) . . .
32.5(29) . . .
38.0(33) . . .
38.4(32) . . .
38.1(33) . . .
39(4) . . .
32.9(31) . . .
35.6(31) . . .
39.5(34) . . .
31.7(30) . . .
35.3(33) . . .
30.7(29) . . .
38.7(33) . . .
38.6(32) . . .
33.7(33) . . .
34.3(34) . . .
30.9(30) . . .
34.3(30) . . .
40.7(34) . . .
31.7(32) . . .
30.1(31) . . .
38.2(33) . . .
34.7(30) . . .
32.5(30) . . .
39.4(33) . . .
33.3(30) . . .
35.1(31) . . .
38.3(34) . . .
27.9(27) . . .
37.6(34) . . .
33.7(32) . . .
28.5(28) . . .
42.0(33) . . .
37.6(33) . . .
29.1(29) . . .
34.4(32) . . .
28.8(28) . . .
32.8(30) . . .
34.7(32) . . .
36.2(31) . . .
37.3(33) . . .
35.4(33) . . .
37.0(32) . . .
35.1(32) . . .
49(4) . . .
29.8(29) . . .
41.1(34) . . .
39.5(33) . . .
43.7(35) . . .
38.0(33) . . .
31.3(31) . . .
23.8(26) . . .
31.7(29) . . .
33.5(31) . . .
30.0(29) . . .
30.7(31) . . .
33.8(31) . . .
38.9(33) . . .
34.0(32) . . .
35.6(33) . . .
29.9(30) . . .
23.8(25) . . .
28.0(28) . . .
33.0(31) . . .
32.6(31) . . .
30.6(30) . . .
33.3(30) . . .
28.8(28) . . .
36.2(34) . . .
34.6(33) . . .
36.0(32) . . .
46(4) . . .
41.0(34) . . .
35.7(34) . . .
30.3(30) . . .
35.2(33) . . .
29.4(28) . . .
28.8(28) . . .
36.0(34) . . .
31.2(31) . . .
36.8(34) . . .
36.0(31) . . .
31.8(29) . . .
32.9(30) . . .
32.8(31) . . .
29.8(29) . . .
30.2(29) . . .
39.8(34) . . .
39.0(33) . . .
38.3(33) . . .
37.3(33) . . .
39.7(33) . . .
40.6(34) . . .
34.5(31) . . .
41(4) . . .
33.7(30) . . .
29.2(28) . . .
30.2(30) . . .
39(4) . . .
29.0(29) . . .
30.8(30) . . .
42.8(34) . . .
31.4(31) . . .
29.5(30) . . .
36.5(34) . . .
33.8(31) . . .
34.8(30) . . .
26.9(30) . . .
28.8(30) . . .
29.4(29) . . .
41.2(35) . . .
31.5(29) . . .
29.4(30) . . .
33.8(34) . . .
29.0(28) . . .
34.6(31) . . .
33.8(30) . . .
36.3(32) . . .
29.6(30) . . .
44(4) . . .
43.4(34) . . .
39.9(33) . . .
38.3(34) . . .
26.5(29) . . .
32.4(31) . . .
40.0(33) . . .
28.9(28) . . .
33.3(31) . . .
38(4) . . .
32.1(31) . . .
39.0(33) . . .
37.4(32) . . .
35.8(31) . . .
34.1(31) . . .
34.7(33) . . .
29.6(29) . . .
34.9(31) . . .
27.3(27) . . .
34.3(33) . . .
33.5(31) . . .
38.7(33) . . .
39.4(32) . . .
37.0(32) . . .
34.2(31) . . .
37.6(33) . . .
32.7(30) . . .
26.4(28) . . .
27.9(30) . . .
30.1(31) . . .
36.9(34) . . .
33.5(30) . . .
29.6(29) . . .
41(4) . . .
28.7(30) . . .
30.9(29) . . .
39.7(33) . . .
42.0(35) . . .
27.8(30) . . .
23.2(26) . . .
26.4(28) . . .
26.4(27) . . .
39.6(35) . . .
35.5(33) . . .
32.8(31) . . .
42.1(34) . . .
33.1(30) . . .
41(4) . . .
35.0(31) . . .
37.6(32) . . .
35.2(31) . . .
27.8(27) . . .
28.5(27) . . .
37.8(32) . . .
44.2(35) . . .
31.6(29) . . .
36.6(31) . . .
34.5(31) . . .
33.4(32) . . .
33.4(30) . . .
31.8(30) . . .
28.4(28) . . .
42.5(34) . . .
31.4(30) . . .
34.3(35) . . .
35.6(31) . . .
36.4(32) . . .
27.4(26) . . .
31.5(29) . . .
25.9(26) . . .
31.6(29) . . .
28.5(28) . . .
30.9(30) . . .
36.0(34) . . .
30.0(29) . . .
30.9(29) . . .
33.5(32) . . .
45(4) . . .
33.5(32) . . .
34.4(31) . . .
32.8(30) . . .
30.6(30) . . .
29.2(30) . . .
32.5(31) . . .
32.4(32) . . .
32.7(30) . . .
39.7(35) . . .
30.9(29) . . .
40.0(34) . . .
35.9(32) . . .
31.3(29) . . .
34.3(31) . . .
34.1(32) . . .
32.3(30) . . .
35.0(31) . . .
32.2(29) . . .
31.0(32) . . .
29.6(30) . . .
30.4(29) . . .
38.5(32) . . .
32.8(30) . . .
32.2(29) . . .
44(4) . . .
33.8(31) . . .
21.2(24) . . .
38.2(32) . . .
39.3(34) . . .
25.0(27) . . .
37(4) . . .
42.1(34) . . .
31.0(29) . . .
31.0(30) . . .
32.7(31) . . .
32.3(29) . . .
37.5(32) . . .
36.9(32) . . .
35.3(31) . . .
35.6(33) . . .
37.2(35) . . .
40.9(33) . . .
39.4(33) . . .
31.8(31) . . .
35.1(32) . . .
34.3(32) . . .
32.8(30) . . .
31.8(29) . . .
47(4) . . .
31.8(29) . . .
36.9(33) . . .
35.7(31) . . .
30.9(30) . . .
36.6(34) . . .
37.6(33) . . .
34.7(31) . . .
34.8(31) . . .
33.3(32) . . .
34.3(33) . . .
29.4(29) . . .
35.9(32) . . .
41.4(34) . . .
28.6(28) . . .
35.4(33) . . .
35.5(31) . . .
34.7(31) . . .
38.6(32) . . .
28.0(29) . . .
29.4(29) . . .
30.2(28) . . .
37.8(31) . . .
41.1(34) . . .
38.8(34) . . .
33.3(33) . . .
32.4(29) . . .
38.1(33) . . .
26.0(26) . . .
28.6(30) . . .
24.6(28) . . .
38.0(35) . . .
30.9(29) . . .
33.1(30) . . .
32.1(30) . . .
36.1(33) . . .
31.1(30) . . .
35.9(31) . . .
41.2(33) . . .
43(4) . . .
38.2(34) . . .
36.6(32) . . .
35.0(31) . . .
31.6(30) . . .
30.5(30) . . .
33.3(32) . . .
29.1(28) . . .
40.7(33) . . .
30.4(29) . . .
32.7(30) . . .
39.8(34) . . .
39.7(33) . . .
40.5(34) . . .
28.0(28) . . .
28.9(30) . . .
30.1(29) . . .
30.5(28) . . .
35.0(31) . . .
29.4(30) . . .
29.2(31) . . .
34.0(32) . . .
28.5(29) . . .
40.1(33) . . .
38.7(34) . . .
41.2(35) . . .
40(4) . . .
34.4(30) . . .
31.5(29) . . .
31.9(32) . . .
38.0(35) . . .
36.5(33) . . .
27.7(27) . . .
43.2(34) . . .
36.9(32) . . .
50(4) . . .
34.3(31) . . .
34.4(30) . . .
33.0(30) . . .
33.6(30) . . .
32.9(32) . . .
30.2(29) . . .
32.9(29) . . .
26.7(27) . . .
38.3(34) . . .
35.6(34) . . .
36.3(33) . . .
42.0(34) . . .
34.4(30) . . .
33.1(32) . . .
32.1(31) . . .
39.3(35) . . .
39.3(33) . . .
44.6(35) . . .
30.0(29) . . .
31.3(31) . . .
33.3(30) . . .
28.8(28) . . .
31.1(29) . . .
38(4) . . .
37.4(32) . . .
28.6(28) . . .
29.1(29) . . .
31.1(31) . . .
34.8(33) . . .
30.8(28) . . .
36.7(32) . . .
37.7(32) . . .
26.9(29) . . .
36.9(34) . . .
40.2(32) . . .
39.2(32) . . .
31.6(29) . . .
29.6(30) . . .
34.2(32) . . .
31.3(30) . . .
25.8(26) . . .
44.1(35) . . .
29.0(30) . . .
34.4(33) . . .
37.2(34) . . .
35.6(31) . . .
36.8(32) . . .
31.8(31) . . .
35.0(33) . . .
38.6(32) . . .
34.4(30) . . .
24.1(25) . . .
31.1(30) . . .
35.5(31) . . .
34.5(31) . . .
34.0(31) . . .
38.6(32) . . .
33.3(30) . . .
36.5(33) . . .
26.4(26) . . .
32.6(30) . . .
33.4(32) . . .
24.6(27) . . .
34.2(34) . . .
31.5(29) . . .
36.6(32) . . .
42.2(34) . . .
32.1(29) . . .
35.7(33) . . .
32.1(29) . . .
35.1(31) . . .
31.5(32) . . .
28.0(29) . . .
34.2(33) . . .
30.3(30) . . .
32.6(30) . . .
34.2(31) . . .
33.4(32) . . .
35.9(33) . . .
30.6(29) . . .
37.4(32) . . .
28.3(29) . . .
33.7(32) . . .
31.3(29) . . .
29.6(29) . . .
33.0(30) . . .
35.3(32) . . .
41(4) . . .
26.8(28) . . .
33.1(30) . . .
29.2(28) . . .
35.5(33) . . .
40(4) . . .
35.4(32) . . .
34.7(33) . . .
42.8(34) . . .
33.4(32) . . .
34.9(32) . . .
38.8(34) . . .
34.3(31) . . .
34.9(31) . . .
36.8(33) . . .
41(4) . . .
27.3(27) . . .
25.9(29) . . .
30.9(29) . . .
37.3(33) . . .
35.2(31) . . .
38.5(33) . . .
40.2(33) . . .
36.9(32) . . .
42.0(34) . . .
42(4) . . .
36.8(34) . . .
26.8(27) . . .
29.1(28) . . .
32.8(33) . . .
36(4) . . .
37.8(33) . . .
39.3(33) . . .
26.0(26) . . .
31.1(31) . . .
29.6(29) . . .
36.8(32) . . .
33.1(30) . . .
30.6(29) . . .
31.8(31) . . .
32.5(32) . . .
39.3(34) . . .
26.2(27) . . .
41.3(34) . . .
36.6(33) . . .
32.5(31) . . .
39.0(33) . . .
38.5(33) . . .
34.9(32) . . .
28.8(28) . . .
39.3(35) . . .
40.3(35) . . .
33.7(31) . . .
32.4(31) . . .
33.3(32) . . .
34.0(31) . . .
31.8(29) . . .
30.5(29) . . .
34.3(32) . . .
32.8(30) . . .
36.9(32) . . .
26.7(26) . . .
32.4(31) . . .
26.6(27) . . .
28.6(29) . . .
31.7(32) . . .
28.7(28) . . .
31.0(30) . . .
30.6(29) . . .
42(4) . . .
35.5(32) . . .
36.0(32) . . .
34.3(30) . . .
33.3(31) . . .
29.0(29) . . .
30.5(30) . . .
39.3(33) . . .
33.7(30) . . .
36.9(33) . . .
29.1(28) . . .
34.9(31) . . .
48(4) . . .
33.6(31) . . .
33.3(32) . . .
40(4) . . .
36.8(32) . . .
30.8(29) . . .
32.4(32) . . .
28.4(28) . . .
33.9(32) . . .
30.5(30) . . .
40.0(33) . . .
41.5(35) . . .
39.2(33) . . .
32.7(29) . . .
35.8(31) . . .
33.9(30) . . .
26.1(27) . . .
26.5(28) . . .
35.6(35) . . .
31.6(30) . . .
32.8(30) . . .
32.1(31) . . .
33.8(31) . . .
31.3(29) . . .
30.9(30) . . .
33.2(30) . . .
35.1(31) . . .
31.0(31) . . .
52(4) . . .
25.4(27) . . .
33.3(30) . . .
30.9(30) . . .
36.4(34) . . .
33.4(31) . . .
33.2(31) . . .
31.7(30) . . .
45(4) . . .
33.4(31) . . .
29.1(28) . . .
36.9(32) . . .
38.0(33) . . .
33.6(31) . . .
33.2(33) . . .
38.4(34) . . .
35.6(31) . . .
28.0(28) . . .
34.5(30) . . .
50(4) . . .
45(4) . . .
31.5(29) . . .
31.5(30) . . .
40.5(34) . . .
35.0(31) . . .
37.5(34) . . .
36.0(31) . . .
33.2(30) . . .
36.4(31) . . .
39.3(34) . . .
30.5(30) . . .
38.1(32) . . .
34.8(33) . . .
33.4(31) . . .
45(4) . . .
35.5(33) . . .
34.9(31) . . .
40.0(33) . . .
30.6(30) . . .
33.4(32) . . .
31.9(29) . . .
44(4) . . .
34.7(31) . . .
28.1(29) . . .
38.6(35) . . .
38.4(32) . . .
31.6(30) . . .
28.5(28) . . .
31.9(33) . . .
22.8(27) . . .
33.9(30) . . .
30.3(28) . . .
36.4(35) . . .
35.4(34) . . .
32.6(31) . . .
25.3(26) . . .
36.8(33) . . .
31.3(31) . . .
33.6(32) . . .
32.8(31) . . .
37.7(32) . . .
29.9(29) . . .
42(4) . . .
35.1(34) . . .
35.1(32) . . .
45.5(34) . . .
32.2(30) . . .
25.7(26) . . .
45(4) . . .
34.3(31) . . .
43.1(34) . . .
36.2(32) . . .
32.9(29) . . .
37.2(33) . . .
43(4) . . .
34.0(30) . . .
30.1(28) . . .
36.3(33) . . .
34.8(35) . . .
40.1(35) . . .
31.7(29) . . .
34.9(34) . . .
26.9(27) . . .
28.1(28) . . .
34.0(31) . . .
35.4(31) . . .
29.9(29) . . .
35.8(33) . . .
31.6(32) . . .
35.4(31) . . .
33.6(30) . . .
35.6(31) . . .
38.2(33) . . .
41(4) . . .
41.3(34) . . .
37.0(32) . . .
34.5(31) . . .
27.6(28) . . .
34.4(32) . . .
36.9(34) . . .
36.4(32) . . .
33.9(32) . . .
41(4) . . .
34.4(30) . . .
38.6(33) . . .
34.1(30) . . .
27.2(29) . . .
28.8(31) . . .
42.1(35) . . .
31.7(30) . . .
38.2(32) . . .
28.3(28) . . .
39(4) . . .
34.2(32) . . .
32.8(30) . . .
39.6(33) . . .
36.5(32) . . .
36.4(33) . . .
28.5(27) . . .
36.9(31) . . .
37.3(33) . . .
38.8(35) . . .
40(4) . . .
38.8(34) . . .
26.4(27) . . .
28.9(28) . . .
32.8(32) . . .
33.7(33) . . .
33.4(32) . . .
43.5(35) . . .
44.2(35) . . .
37.4(33) . . .
37(4) . . .
32.5(33) . . .
31.4(29) . . .
35.8(32) . . .
33.1(33) . . .
29.5(30) . . .
35.0(31) . . .
30.6(29) . . .
36(4) . . .
36.0(34) . . .
37(4) . . .
36.7(32) . . .
40.6(33) . . .
36.7(32) . . .
33.8(33) . . .
30.2(29) . . .
35.5(31) . . .
36.8(32) . . .
28.8(29) . . .
32.3(31) . . .
39.7(33) . . .
30.3(29) . . .
37.6(32) . . .
30.5(32) . . .
25.8(29) . . .
35.0(32) . . .
30.4(30) . . .
32.7(30) . . .
30.8(29) . . .
32.7(30) . . .
33.8(30) . . .
37.4(32) . . .
27.1(27) . . .
38.1(33) . . .
40(4) . . .
39.5(35) . . .
35.9(32) . . .
32.7(31) . . .
31.2(29) . . .
34.7(32) . . .
45(4) . . .
32.5(30) . . .
23.6(25) . . .
35.5(35) . . .
28.0(28) . . .
38.0(33) . . .
32.4(30) . . .
35.2(31) . . .
35.8(33) . . .
31.8(31) . . .
35.0(32) . . .
36.8(32) . . .
32.5(30) . . .
28.2(30) . . .
31.9(30) . . .
31.8(29) . . .
26.7(27) . . .
33.2(32) . . .
35.6(33) . . .
36.0(32) . . .
37.7(32) . . .
29.7(29) . . .
32.1(31) . . .
30.4(30) . . .
39(4) . . .
37.0(32) . . .
35.0(31) . . .
45(4) . . .
45(4) . . .
37.6(32) . . .
32.1(30) . . .
24.3(25) . . .
26.9(29) . . .
37(4) . . .
35.4(32) . . .
30.5(29) . . .
32.3(29) . . .
32.3(32) . . .
27.4(28) . . .
30.6(30) . . .
24.7(26) . . .
37.0(32) . . .
25.1(26) . . .
27.9(31) . . .
32.9(34) . . .
30.7(29) . . .
41.7(34) . . .
29.6(30) . . .
34.6(35) . . .
29.5(29) . . .
41.4(34) . . .
34.8(30) . . .
29.1(30) . . .
32.5(30) . . .
38(4) . . .
26.3(27) . . .
29.5(30) . . .
31.2(29) . . .
35.6(33) . . .
31.5(30) . . .
25.3(25) . . .
34.0(31) . . .
38.7(34) . . .
38.2(33) . . .
36.5(31) . . .
32.2(30) . . .
26.4(28) . . .
33.7(32) . . .
33.1(30) . . .
38.0(33) . . .
36.5(31) . . .
33.4(31) . . .
38(4) . . .
31.5(29) . . .
40.4(34) . . .
36.0(31) . . .
37.8(34) . . .
28.2(29) . . .
36.9(34) . . .
33.1(31) . . .
25.5(27) . . .
41.9(34) . . .
26.9(27) . . .
34.2(31) . . .
39.6(33) . . .
30.6(28) . . .
32.5(31) . . .
29.3(30) . . .
40(4) . . .
30.6(30) . . .
37.0(32) . . .
31.3(28) . . .
31.5(29) . . .
41.8(35) . . .
37.0(31) . . .
38.5(33) . . .
30.3(29) . . .
36.1(34) . . .
31.6(30) . . .
35.9(32) . . .
34.7(31) . . .
32.5(30) . . .
35.3(31) . . .
39.4(34) . . .
28.2(28) . . .
28.4(28) . . .
27.8(29) . . .
33.5(34) . . .
42(4) . . .
33.0(30) . . .
28.8(28) . . .
33.7(31) . . .
32.1(32) . . .
38.0(35) . . .
28.1(27) . . .
26.0(28) . . .
31.4(31) . . .
37.3(34) . . .
39.2(34) . . .
35.2(31) . . .
33.3(32) . . .
32.5(30) . . .
35.6(30) . . .
37.5(32) . . .
29.2(28) . . .
28.2(29) . . .
32.8(30) . . .
38.6(34) . . .
36.8(32) . . .
44.1(35) . . .
35.8(32) . . .
30.3(31) . . .
35.8(32) . . .
38.0(32) . . .
35.9(31) . . .
36.7(32) . . .
30.5(31) . . .
35.3(33) . . .
40.2(35) . . .
30.8(29) . . .
36.1(33) . . .
36(4) . . .
33.4(32) . . .
37.0(32) . . .
32.1(31) . . .
30.4(30) . . .
35.5(34) . . .
33.4(31) . . .
31.0(28) . . .
35.2(31) . . .
31.0(29) . . .
39(4) . . .
35.5(32) . . .
33.3(30) . . .
35.8(31) . . .
32.8(30) . . .
40.5(34) . . .
41.0(33) . . .
32.8(30) . . .
41.2(33) . . .
34.7(32) . . .
26.1(27) . . .
40.2(34) . . .
36.4(32) . . .
32.9(31) . . .
29.6(30) . . .
33.6(32) . . .
30.4(29) . . .
32.5(30) . . .
36.9(34) . . .
35.0(33) . . .
27.1(28) . . .
37.0(33) . . .
36.3(32) . . .
37.5(34) . . .
34.3(34) . . .
32.5(30) . . .
31.6(29) . . .
41.3(34) . . .
33.4(31) . . .
36.5(33) . . .
33.6(31) . . .
26.7(27) . . .
31.0(29) . . .
28.6(29) . . .
32.7(31) . . .
36.1(32) . . .
29.6(29) . . .
35.1(30) . . .
36.0(32) . . .
36.3(35) . . .
42(4) . . .
32.0(29) . . .
33.1(31) . . .
29.8(30) . . .
43(4) . . .
36.1(33) . . .
28.8(28) . . .
29.9(29) . . .
35.3(33) . . .
26.3(26) . . .
34.4(31) . . .
38.2(32) . . .
36.2(32) . . .
36.1(33) . . .
29.0(28) . . .
37.8(33) . . .
34.3(31) . . .
39.9(34) . . .
41(4) . . .
28.5(30) . . .
30.3(31) . . .
32.2(30) . . .
34.2(31) . . .
34.6(33) . . .
32.5(30) . . .
34.8(31) . . .
39.2(33) . . .
29.7(29) . . .
28.8(29) . . .
28.5(28) . . .
32.4(31) . . .
36.0(31) . . .
34.9(32) . . .
30.3(29) . . .
32.1(30) . . .
42.7(34) . . .
36.9(32) . . .
41.3(34) . . .
33.2(31) . . .
38.6(35) . . .
34.5(32) . . .
30.5(29) . . .
35.7(34) . . .
34.4(32) . . .
37.3(32) . . .
32.4(30) . . .
32.7(30) . . .
35.8(35) . . .
32.3(33) . . .
37.5(32) . . .
33.9(30) . . .
37.2(32) . . .
31.7(31) . . .
39(4) . . .
30.0(32) . . .
31.9(29) . . .
33.3(30) . . .
36.3(32) . . .
36.7(33) . . .
29.7(30) . . .
32.8(30) . . .
40.0(33) . . .
32.2(29) . . .
33.5(30) . . .
37.7(33) . . .
30.2(29) . . .
36.6(33) . . .
35.0(32) . . .
38.3(34) . . .
40.0(34) . . .
45(4) . . .
38.2(34) . . .
33.6(32) . . .
30.4(30) . . .
30.5(30) . . .
30.5(29) . . .
33.1(31) . . .
32.3(31) . . .
30.6(30) . . .
31.8(30) . . .
39.5(33) . . .
32.3(30) . . .
36.9(33) . . .
36.9(32) . . .
39.6(33) . . .
40.8(34) . . .
34.6(32) . . .
21.6(25) . . .
27.0(28) . . .
38.4(32) . . .
42.6(35) . . .
24.0(26) . . .
33.1(32) . . .
34.1(33) . . .
32.5(30) . . .
30.8(29) . . .
30.8(32) . . .
44(4) . . .
38.1(33) . . .
39.3(33) . . .
33.7(30) . . .
39(4) . . .
30.7(30) . . .
41(4) . . .
41.1(34) . . .
36.1(31) . . .
41.0(34) . . .
37.2(35) . . .
37.2(33) . . .
40.6(33) . . .
30.2(28) . . .
42(4) . . .
35.5(32) . . .
30.5(29) . . .
43(4) . . .
35.0(31) . . .
36.3(33) . . .
33.4(31) . . .
39.2(33) . . .
37.2(32) . . .
30.8(29) . . .
34.8(34) . . .
45(4) . . .
41.7(34) . . .
31.5(29) . . .
29.2(28) . . .
35.4(32) . . .
43(4) . . .
36.8(32) . . .
40.3(33) . . .
38.1(33) . . .
35.8(33) . . .
25.3(26) . . .
32.3(30) . . .
41.4(33) . . .
40.6(34) . . .
29.8(31) . . .
31.1(31) . . .
29.8(28) . . .
38.1(32) . . .
35.4(31) . . .
35.3(33) . . .
35.5(33) . . .
33.4(31) . . .
31.6(29) . . .
33.4(32) . . .
37(4) . . .
36.1(33) . . .
38.9(34) . . .
24.6(27) . . .
36.3(33) . . .
38(4) . . .
30.5(29) . . .
32.5(30) . . .
36.0(31) . . .
40.3(35) . . .
33.3(31) . . .
32.4(31) . . .
37.0(32) . . .
25.5(26) . . .
35.6(34) . . .
35.2(33) . . .
34.2(32) . . .
32.1(29) . . .
30.4(30) . . .
39.7(35) . . .
40.6(35) . . .
29.0(29) . . .
35.6(32) . . .
30.5(30) . . .
32.6(30) . . .
32.7(29) . . .
35.4(32) . . .
38.0(32) . . .
40.2(34) . . .
43(4) . . .
35.3(30) . . .
44(4) . . .
32.9(30) . . .
28.0(28) . . .
34(4) . . .
31.6(31) . . .
32.2(29) . . .
34.2(30) . . .
31.5(29) . . .
37.3(34) . . .
34.7(31) . . .
31.5(29) . . .
40.2(33) . . .
38.2(33) . . .
33.4(29) . . .
41.3(33) . . .
34.3(31) . . .
30.1(28) . . .
30.7(30) . . .
35.0(33) . . .
39.6(33) . . .
30.4(29) . . .
36.2(31) . . .
35.1(31) . . .
39.2(35) . . .
30.2(29) . . .
28.9(28) . . .
30.1(29) . . .
35.6(32) . . .
30.5(32) . . .
29.4(29) . . .
29.0(28) . . .
23.2(25) . . .
35.1(33) . . .
29.8(28) . . .
36.9(32) . . .
41.6(34) . . .
31.7(31) . . .
25.6(28) . . .
30.9(30) . . .
31.6(30) . . .
29.3(29) . . .
37.3(33) . . .
32.1(29) . . .
29.4(29) . . .
33.0(30) . . .
37.3(32) . . .
36.5(32) . . .
24.6(27) . . .
29.0(29) . . .
39.8(35) . . .
33.6(30) . . .
27.5(27) . . .
38.7(34) . . .
39(4) . . .
36.8(31) . . .
34.3(31) . . .
37.5(34) . . .
37(4) . . .
28.0(28) . . .
30.4(28) . . .
33.9(31) . . .
33.5(30) . . .
31.7(31) . . .
26.5(28) . . .
33.2(30) . . .
34.0(30) . . .
28.7(28) . . .
31.1(33) . . .
31.5(32) . . .
40.6(33) . . .
25.8(26) . . .
32.7(32) . . .
37.1(35) . . .
38.7(33) . . .
33.6(31) . . .
31.8(30) . . .
37.1(34) . . .
31.4(30) . . .
32.6(30) . . .
30.0(29) . . .
42.8(35) . . .
27.3(27) . . .
34.8(32) . . .
38.5(33) . . .
38.3(32) . . .
34.2(32) . . .
30.3(29) . . .
27.4(27) . . .
29.8(29) . . .
28.9(28) . . .
28.3(28) . . .
30.9(29) . . .
28.4(28) . . .
26.7(27) . . .
29.8(29) . . .
34.9(32) . . .
34.5(32) . . .
29.2(30) . . .
43(4) . . .
35.6(31) . . .
29.7(29) . . .
41(4) . . .
38.6(34) . . .
32.7(31) . . .
29.9(28) . . .
27.1(29) . . .
30.9(29) . . .
30.1(28) . . .
32.0(30) . . .
23.3(26) . . .
28.0(32) . . .
27.7(30) . . .
33.1(32) . . .
28.7(29) . . .
40.2(34) . . .
38.9(32) . . .
30.5(28) . . .
31.6(30) . . .
30.0(28) . . .
42.0(35) . . .
26.7(27) . . .
29.4(31) . . .
36.5(33) . . .
30.6(29) . . .
40.4(35) . . .
34.8(31) . . .
32.6(33) . . .
32.7(30) . . .
33.8(30) . . .
31.6(30) . . .
38.8(33) . . .
40(4) . . .
37.6(33) . . .
35.8(31) . . .
31.0(29) . . .
37.3(33) . . .
37(4) . . .
34.4(35) . . .
35.1(31) . . .
36.9(33) . . .
39.0(34) . . .
36.1(32) . . .
39(4) . . .
29.8(29) . . .
27.6(27) . . .
44(4) . . .
34.4(31) . . .
30.3(28) . . .
32.2(30) . . .
39.8(33) . . .
40(4) . . .
28.5(28) . . .
33.4(31) . . .
34.4(30) . . .
34.3(32) . . .
36.5(32) . . .
40.6(33) . . .
44.9(35) . . .
28.2(28) . . .
36.0(33) . . .
36.2(33) . . .
33.1(30) . . .
33.4(32) . . .
25.9(26) . . .
36.8(33) . . .
27.2(27) . . .
35.7(33) . . .
36.1(31) . . .
27.5(28) . . .
41.7(34) . . .
34.9(32) . . .
40.3(34) . . .
36.2(32) . . .
45.7(34) . . .
34.1(32) . . .
34.2(33) . . .
30.5(33) . . .
32.8(30) . . .
27.9(27) . . .
34.5(31) . . .
34.7(33) . . .
32.2(31) . . .
34.0(32) . . .
23.5(25) . . .
33.8(31) . . .
36.9(34) . . .
28.5(28) . . .
38.0(32) . . .
35.2(31) . . .
26.1(29) . . .
33.3(31) . . .
40.2(34) . . .
37.9(32) . . .
40.1(33) . . .
40.7(35) . . .
31.0(30) . . .
33.7(32) . . .
39.2(33) . . .
40.4(33) . . .
31.1(29) . . .
43(4) . . .
38.4(34) . . .
37.0(32) . . .
38.1(34) . . .
32.7(31) . . .
38.8(33) . . .
34.1(31) . . .
39.8(33) . . .
37.1(34) . . .
33.8(33) . . .
31.6(29) . . .
32.8(30) . . .
34.6(31) . . .
46(4) . . .
36.2(33) . . .
34.0(32) . . .
29.1(29) . . .
33.6(30) . . .
39.0(34) . . .
37(4) . . .
29.5(30) . . .
35.9(31) . . .
34.3(30) . . .
37.3(33) . . .
loop_
_refln_index_h
_refln_index_k
_refln_index_l
_refln_observed_status
_refln_F_squared_meas
_refln_F_squared_calc
_refln_phase_calc
_refln_d_spacing
_gsas_i100_meas
0 2 0 o 1242.091 1364.903 180.00 8.39866 5.43
0 0 2 o 0.000 23.566 180.00 6.37344 0.00
1 0 1 o 13271.495 13903.084 0.00 5.88213 56.96
0 2 2 o 31259.938 31213.264 0.00 5.07707 100.00
0 3 1 o 1176.093 1281.793 180.00 5.12635 3.84
1 2 1 o 1751.195 1756.340 0.00 4.81800 10.09
1 1 2 o 3895.116 4117.403 0.00 4.43199 19.00
0 1 3 o 327.155 16.181 0.00 4.11921 0.69
0 4 0 o 3036.475 823.982 0.00 4.19933 3.33
1 0 3 o 271.780 201.476 180.00 3.57741 0.43
1 3 2 o 3449.559 3691.710 0.00 3.55192 10.83
0 3 3 o 11127.079 11483.088 0.00 3.38471 15.86
0 0 4 o 49.530 106.632 180.00 3.18672 0.03
0 4 2 o 8.696 7.406 0.00 3.50660 0.01
1 4 1 o 820.955 921.234 180.00 3.41774 2.39
1 2 3 o 739.751 1180.780 0.00 3.29127 1.99
0 5 1 o 0.000 94.001 180.00 3.24854 0.00
2 0 0 o 2100.209 2381.271 180.00 3.31514 1.44
0 2 4 o 1355.618 1990.676 0.00 2.97945 1.50
2 1 1 o 798.768 1072.450 180.00 3.15143 1.98
1 1 4 o 91.001 37.033 0.00 2.83110 0.18
2 2 0 o 19.039 204.796 0.00 3.08361 0.02
2 0 2 o 239.294 412.690 0.00 2.94107 0.26
0 6 0 o 1407.323 1520.803 0.00 2.79955 0.69
2 2 2 o 2466.696 2458.033 180.00 2.77579 4.74
2 3 1 o 881.480 931.367 0.00 2.78377 1.70
0 1 5 o 1451.571 1884.099 180.00 2.52051 1.15
1 4 3 o 5160.980 5238.933 0.00 2.72321 9.55
1 5 2 o 3050.545 2880.239 180.00 2.71192 5.60
1 3 4 o 62.052 88.829 0.00 2.55557 0.10
2 1 3 o 1444.041 1421.077 0.00 2.58263 2.40
0 4 4 o 10094.314 12226.452 0.00 2.53853 8.12
2 4 0 o 1756.112 1810.574 180.00 2.60203 1.48
0 5 3 o 636.880 633.233 180.00 2.63527 0.55
0 6 2 o 92.019 153.570 0.00 2.56318 0.08
1 6 1 o 705.175 720.066 0.00 2.52785 1.13
1 0 5 o 92.060 325.809 180.00 2.37954 0.07
1 2 5 o 279.710 477.656 0.00 2.28942 0.37
0 3 5 o 0.000 159.290 0.00 2.32019 0.00
0 7 1 o 97.899 270.080 0.00 2.35819 0.07
2 0 4 o 1631.045 2483.215 180.00 2.29741 1.08
2 4 2 o 2.310 83.469 180.00 2.40900 0.00
2 3 3 o 60.389 117.862 180.00 2.36837 0.08
0 0 6 o 3023.547 3932.255 0.00 2.12448 0.86
2 5 1 o 0.000 0.002 180.00 2.32025 0.00
2 2 4 o 5.408 16.658 0.00 2.21600 0.01
0 2 6 o 66.683 87.139 180.00 2.05961 0.04
1 5 4 o 5113.680 5544.312 0.00 2.18309 6.11
1 6 3 o 4770.577 4686.340 180.00 2.20471 5.81
0 8 0 o 7.751 6.335 180.00 2.09966 0.00
2 6 0 o 1272.253 1510.425 180.00 2.13891 0.73
1 1 6 o 784.196 773.201 180.00 2.00864 0.79
1 7 2 o 2311.700 2462.885 0.00 2.12702 2.62
3 0 1 o 3044.736 2715.756 180.00 2.17760 1.81
1 4 5 o 8.129 8.642 180.00 2.07027 0.01
0 5 5 o 20157.100 21413.787 0.00 2.03083 10.43
2 1 5 o 318.845 306.005 180.00 2.00644 0.32
0 6 4 o 9290.756 7631.702 180.00 2.10322 5.15
0 7 3 o 6721.382 5817.847 0.00 2.08943 3.68
3 2 1 o 29.374 39.754 0.00 2.10790 0.03
3 1 2 o 2811.216 2881.714 180.00 2.07216 3.03
2 5 3 o 387.200 372.690 0.00 2.06290 0.41
2 4 4 o 1390.989 1479.248 180.00 2.01550 1.42
0 8 2 o 2826.463 2637.166 180.00 1.99423 1.41
1 3 6 o 648.586 609.230 0.00 1.90275 0.59
2 6 2 o 491.499 518.136 180.00 2.02777 0.51
1 8 1 o 641.721 758.907 180.00 1.97746 0.63
0 4 6 o 1531.151 1646.973 180.00 1.89569 0.69
0 1 7 o 545.167 546.048 0.00 1.81037 0.23
2 3 5 o 1121.911 1021.546 0.00 1.90088 1.02
3 0 3 o 2284.464 2565.768 0.00 1.96071 1.10
2 7 1 o 187.728 305.193 180.00 1.92161 0.17
3 3 2 o 1082.100 746.132 0.00 1.95648 1.04
1 0 7 o 1086.586 1113.688 0.00 1.75596 0.42
3 2 3 o 4896.585 4385.047 180.00 1.90937 4.49
3 4 1 o 830.630 516.487 180.00 1.93314 0.78
2 0 6 o 24.727 34.774 180.00 1.78870 0.01
0 9 1 o 3295.318 3400.583 0.00 1.84668 1.41
0 3 7 o 1351.450 1481.864 0.00 1.73170 0.51
1 2 7 o 672.227 650.113 180.00 1.71879 0.50
3 1 4 o 3400.240 3217.423 0.00 1.80556 2.79
2 2 6 o 1700.652 1610.728 180.00 1.74947 1.31
1 6 5 o 386.206 418.447 0.00 1.81309 0.32
1 7 4 o 484.312 449.306 180.00 1.84150 0.41
1 8 3 o 96.339 101.327 0.00 1.81081 0.08
2 8 0 o 39.058 34.095 0.00 1.77382 0.02
1 5 6 o 1214.946 1359.959 0.00 1.73314 0.92
3 4 3 o 399.838 352.450 180.00 1.77660 0.32
2 6 4 o 1511.366 1352.929 0.00 1.77596 1.20
2 5 5 o 2405.204 2657.268 180.00 1.73173 1.82
2 7 3 o 1730.844 1532.979 180.00 1.76764 1.36
1 9 2 o 12.626 14.026 0.00 1.72916 0.01
3 5 2 o 520.362 458.716 0.00 1.77345 0.41
0 7 5 o 1650.557 1490.182 180.00 1.74733 0.64
0 0 8 o 108.313 137.194 0.00 1.59336 0.02
3 3 4 o 185.651 206.998 180.00 1.72748 0.14
0 10 0 o 10994.580 12043.997 180.00 1.67973 1.96
0 6 6 o 5616.444 6778.619 0.00 1.69236 2.03
3 0 5 o 2954.893 2997.550 180.00 1.66994 1.04
0 8 4 o 980.607 885.204 0.00 1.75330 0.38
2 8 2 o 4.550 5.300 0.00 1.70887 0.00
0 9 3 o 143.884 168.007 180.00 1.70878 0.05
3 6 1 o 1897.890 1604.307 180.00 1.71884 1.42
2 4 6 o 1971.409 1865.588 0.00 1.64564 1.35
0 2 8 o 476.763 495.381 180.00 1.56544 0.15
1 4 7 o 225.079 261.382 180.00 1.62003 0.15
2 1 7 o 298.164 315.962 0.00 1.58889 0.19
0 5 7 o 0.927 1.080 0.00 1.60092 0.00
1 1 8 o 781.809 782.828 0.00 1.54270 0.47
3 2 5 o 38.200 27.600 0.00 1.63787 0.03
1 10 1 o 359.021 610.433 180.00 1.61517 0.24
0 10 2 o 651.046 508.448 0.00 1.62427 0.22
2 9 1 o 32.535 62.244 180.00 1.61327 0.02
4 0 0 o 1983.385 2443.540 0.00 1.65757 0.34
2 3 7 o 2376.693 2130.372 180.00 1.53491 1.42
4 1 1 o 1277.851 992.499 0.00 1.63592 0.87
1 3 8 o 192.653 152.045 0.00 1.49315 0.11
4 2 0 o 512.296 268.133 180.00 1.62620 0.17
0 4 8 o 7.686 6.171 0.00 1.48973 0.00
3 5 4 o 246.747 478.401 180.00 1.59759 0.16
4 0 2 o 228.361 153.354 180.00 1.60420 0.07
3 6 3 o 368.834 651.299 0.00 1.60600 0.24
3 1 6 o 22.354 14.995 180.00 1.52528 0.01
3 7 2 o 1864.868 1932.274 180.00 1.57522 1.17
3 4 5 o 57.976 50.390 180.00 1.55174 0.04
1 7 6 o 315.100 315.328 0.00 1.54676 0.19
1 8 5 o 458.508 468.486 180.00 1.57438 0.29
0 11 1 o 6211.884 5647.593 180.00 1.51619 1.81
4 3 1 o 868.996 797.374 180.00 1.57717 0.55
4 2 2 o 1566.563 1720.704 0.00 1.57572 0.99
1 9 4 o 130.727 193.170 0.00 1.56498 0.08
0 1 9 o 1658.515 2275.233 0.00 1.41131 0.42
1 6 7 o 1009.609 816.407 0.00 1.48756 0.57
2 7 5 o 2032.646 2075.725 0.00 1.54576 1.23
2 10 0 o 423.131 302.815 0.00 1.49837 0.12
1 10 3 o 12.594 10.254 180.00 1.52047 0.01
2 0 8 o 1215.533 1235.966 180.00 1.43610 0.32
2 6 6 o 2962.512 3156.468 180.00 1.50731 1.71
4 1 3 o 556.657 507.958 180.00 1.53774 0.33
2 8 4 o 2176.425 2297.597 180.00 1.54989 1.33
3 8 1 o 97.368 93.727 0.00 1.51149 0.06
2 9 3 o 257.261 236.743 0.00 1.51888 0.15
4 4 0 o 1184.933 1569.418 0.00 1.54180 0.36
3 3 6 o 1.968 1.600 180.00 1.47733 0.00
1 0 9 o 239.008 448.942 180.00 1.38507 0.06
2 2 8 o 390.912 611.335 0.00 1.41555 0.20
0 8 6 o 1643.159 1293.275 180.00 1.49338 0.47
2 5 7 o 2167.148 2171.573 0.00 1.44162 1.15
1 2 9 o 32.560 33.779 180.00 1.36661 0.02
0 7 7 o 3996.683 4745.272 0.00 1.45059 1.07
1 11 2 o 241.661 258.550 180.00 1.44910 0.13
1 5 8 o 86.967 110.719 180.00 1.40686 0.04
2 10 2 o 198.220 275.778 180.00 1.45860 0.11
0 10 4 o 219.904 176.719 180.00 1.48594 0.06
0 3 9 o 24.383 34.374 0.00 1.37307 0.01
4 4 2 o 1909.266 1338.594 180.00 1.49858 1.09
0 9 5 o 552.189 748.057 0.00 1.50594 0.16
4 3 3 o 2561.509 2130.009 0.00 1.48864 1.44
4 0 4 o 562.621 1039.002 0.00 1.47053 0.15
3 0 7 o 1109.987 1405.645 180.00 1.40539 0.28
4 5 1 o 2485.148 2406.152 0.00 1.47647 1.38
0 11 3 o 388.052 402.599 0.00 1.43704 0.10
0 6 8 o 1.095 2.103 180.00 1.38478 0.00
4 2 4 o 700.476 719.709 180.00 1.44850 0.37
0 12 0 o 1810.967 2867.580 0.00 1.39978 0.23
3 2 7 o 4.657 7.722 0.00 1.38612 0.00
3 6 5 o 29.629 29.759 180.00 1.43417 0.02
3 7 4 o 63.398 66.586 0.00 1.44811 0.03
2 4 8 o 2431.599 2128.770 180.00 1.35883 1.15
3 8 3 o 612.671 619.331 180.00 1.43304 0.32
4 6 0 o 4344.639 3750.894 180.00 1.42631 1.13
3 5 6 o 164.295 314.525 180.00 1.39361 0.08
1 4 9 o 51.814 50.854 0.00 1.31537 0.02
2 11 1 o 62.595 510.342 0.00 1.37882 0.03
4 1 5 o 667.220 1225.639 0.00 1.38493 0.33
1 12 1 o 16.203 14.551 180.00 1.36175 0.01
3 9 2 o 10.775 17.759 180.00 1.39154 0.01
0 5 9 o 49.782 43.279 0.00 1.30508 0.01
0 12 2 o 4382.731 4553.398 180.00 1.36719 1.05
0 0 10 o 4900.232 5091.010 180.00 1.27469 0.51
2 1 9 o 1467.436 1381.933 180.00 1.29854 0.63
4 5 3 o 424.137 460.017 180.00 1.40309 0.21
4 4 4 o 657.361 839.915 0.00 1.38790 0.32
0 2 10 o 368.048 418.295 0.00 1.26025 0.08
4 6 2 o 714.391 1160.498 0.00 1.39188 0.35
3 4 7 o 69.001 70.139 0.00 1.33273 0.03
1 8 7 o 91.232 98.469 0.00 1.34699 0.04
1 9 6 o 282.296 251.675 180.00 1.37181 0.14
1 1 10 o 9.258 61.321 0.00 1.24830 0.00
3 1 8 o 1308.451 1381.266 180.00 1.28868 0.56
2 8 6 o 3121.455 2678.464 0.00 1.36161 1.48
4 3 5 o 139.531 141.659 180.00 1.34874 0.06
2 7 7 o 3180.839 3232.533 180.00 1.32894 1.44
2 3 9 o 616.080 695.929 0.00 1.26857 0.25
1 10 5 o 169.747 131.906 0.00 1.37227 0.08
2 9 5 o 3474.525 3241.051 180.00 1.37111 1.67
1 7 8 o 847.758 763.057 0.00 1.30156 0.37
4 7 1 o 2822.264 2391.905 180.00 1.35609 1.33
2 10 4 o 1131.104 966.542 0.00 1.35596 0.53
1 11 4 o 20.493 21.915 180.00 1.34831 0.01
3 10 1 o 177.077 180.955 0.00 1.33002 0.08
2 11 3 o 1330.427 983.941 180.00 1.31850 0.59
4 0 6 o 1602.308 1289.044 180.00 1.30686 0.35
0 13 1 o 2653.483 2765.189 0.00 1.28551 0.56
1 12 3 o 149.556 126.414 180.00 1.30354 0.07
2 12 0 o 563.556 605.788 180.00 1.28954 0.12
2 6 8 o 2191.117 2022.297 0.00 1.27778 0.92
4 2 6 o 418.573 437.355 0.00 1.29132 0.18
3 3 8 o 24.508 27.039 180.00 1.25937 0.01
1 3 10 o 0.395 0.679 180.00 1.22161 0.00
0 4 10 o 0.387 0.596 180.00 1.21973 0.00
0 9 7 o 17.229 14.609 180.00 1.30338 0.00
1 6 9 o 60.393 128.884 180.00 1.24144 0.02
0 8 8 o 796.371 958.307 0.00 1.26927 0.16
4 8 0 o 1899.630 1665.709 0.00 1.30102 0.41
0 10 6 o 44.513 31.230 180.00 1.31763 0.01
3 7 6 o 54.888 58.326 0.00 1.29104 0.02
0 11 5 o 367.185 324.640 0.00 1.31000 0.08
5 0 1 o 2693.391 2261.350 0.00 1.31894 0.60
3 8 5 o 38.907 33.029 180.00 1.30697 0.02
4 5 5 o 440.965 449.407 0.00 1.28413 0.19
4 6 4 o 264.084 216.521 180.00 1.30186 0.11
0 12 4 o 180.289 178.275 180.00 1.28159 0.04
3 9 4 o 102.866 83.957 180.00 1.30158 0.04
2 12 2 o 1358.205 1307.584 0.00 1.26392 0.56
4 7 3 o 586.164 686.358 0.00 1.29857 0.25
3 10 3 o 227.936 239.340 180.00 1.27563 0.10
5 2 1 o 506.002 510.605 0.00 1.30297 0.22
3 6 7 o 464.320 686.538 180.00 1.25601 0.19
2 5 9 o 1388.249 1691.037 180.00 1.21437 0.53
1 13 2 o 4.924 36.665 180.00 1.24386 0.00
5 1 2 o 537.497 515.840 0.00 1.29439 0.23
4 8 2 o 1618.296 1762.979 180.00 1.27473 0.68
0 7 9 o 310.740 474.386 0.00 1.21971 0.06
4 4 6 o 0.000 46.612 180.00 1.24783 0.00
4 1 7 o 347.790 510.182 180.00 1.22254 0.13
0 13 3 o 800.507 893.034 180.00 1.23621 0.16
5 0 3 o 7.716 7.389 0.00 1.26584 0.00
5 3 2 o 552.552 526.526 0.00 1.26470 0.23
3 11 2 o 309.088 603.221 0.00 1.23260 0.12
5 2 3 o 144.323 454.664 0.00 1.25170 0.06
5 4 1 o 4.902 14.246 180.00 1.25833 0.00
4 9 1 o 835.370 1375.780 0.00 1.23354 0.33
5 1 4 o 3.971 6.684 0.00 1.22105 0.00
2 9 7 o 78.132 83.046 0.00 1.21300 0.03
1 10 7 o 126.607 125.067 180.00 1.21380 0.05
2 10 6 o 169.009 202.187 180.00 1.22446 0.07
2 11 5 o 30.512 46.095 180.00 1.21833 0.01
5 4 3 o 1142.087 1220.119 0.00 1.21198 0.43
1 11 6 o 32.722 73.073 0.00 1.21882 0.01
5 5 2 o 379.232 365.303 180.00 1.21097 0.14
