#------------------------------------------------------------------------------
#$Date: 2022-02-23 12:09:43 +0200 (Wed, 23 Feb 2022) $
#$Revision: 273129 $
#$URL: file:///home/coder/svn-repositories/cod/cif/4/00/28/4002857.cif $
#------------------------------------------------------------------------------
#
# This file is available in the Crystallography Open Database (COD),
# http://www.crystallography.net/
#
# All data on this site have been placed in the public domain by the
# contributors.
#
data_4002857
loop_
_publ_author_name
'De Bastiani, Michele'
'Dursun, Ibrahim'
'Zhang, Yuhai'
'Alshankiti, Buthainah A.'
'Miao, Xiao-He'
'Yin, Jun'
'Yengel, Emre'
'Alarousu, Erkki'
'Turedi, Bekir'
'Almutlaq, Jawaher M.'
'Saidaminov, Makhsud I.'
'Mitra, Somak'
'Gereige, Issam'
'AlSaggaf, Ahmed'
'Zhu, Yihan'
'Han, Yu'
'Roqan, Iman S.'
'Bredas, Jean-Luc'
'Mohammed, Omar F.'
'Bakr, Osman M.'
_publ_section_title
;
 Inside Perovskites: Quantum Luminescence from Bulk Cs4PbBr6 Single
 Crystals
;
_journal_issue                   17
_journal_name_full               'Chemistry of Materials'
_journal_page_first              7108
_journal_paper_doi               10.1021/acs.chemmater.7b02415
_journal_volume                  29
_journal_year                    2017
_chemical_formula_moiety         'Br6 Cs4 Pb1'
_chemical_formula_sum            'Br6 Cs4 Pb'
_chemical_formula_weight         1218.24
_space_group_crystal_system      trigonal
_space_group_IT_number           167
_space_group_name_Hall           '-R 3 2"c'
_space_group_name_H-M_alt        'R -3 c :H'
_symmetry_space_group_name_Hall  '-R 3 2"c'
_symmetry_space_group_name_H-M   'R -3 c :H'
_atom_sites_solution_primary     direct
_audit_creation_date             2016-12-05
_audit_creation_method
;
Olex2 1.2
(compiled 2015.01.26 svn.r3150 for OlexSys, GUI svn.r4998)
;
_audit_update_record
;
2016-12-06 # Formatted by publCIF

;
_cell_angle_alpha                90
_cell_angle_beta                 90
_cell_angle_gamma                120
_cell_formula_units_Z            6
_cell_length_a                   13.7222(3)
_cell_length_b                   13.7222(3)
_cell_length_c                   17.2990(4)
_cell_measurement_reflns_used    8849
_cell_measurement_temperature    293(2)
_cell_measurement_theta_max      30.2010
_cell_measurement_theta_min      4.1340
_cell_volume                     2820.97(11)
_computing_cell_refinement       'CrysAlisPro 1.171.38.43f (Rigaku OD, 2015)'
_computing_data_collection       'CrysAlisPro 1.171.38.43f (Rigaku OD, 2015)'
_computing_data_reduction        'CrysAlisPro 1.171.38.43f (Rigaku OD, 2015)'
_computing_molecular_graphics    'Olex2 (Dolomanov et al., 2009)'
_computing_publication_material  'Olex2 (Dolomanov et al., 2009)'
_computing_structure_refinement  'XL (Sheldrick, 2008)'
_computing_structure_solution    'XS (Sheldrick, 2008)'
_diffrn_ambient_temperature      293(2)
_diffrn_detector                 'CCD plate'
_diffrn_detector_area_resol_mean 10.3782
_diffrn_detector_type            Atlas
_diffrn_measured_fraction_theta_full 0.997
_diffrn_measured_fraction_theta_max 0.984
_diffrn_measurement_details
;
List of Runs (angles in degrees, time in seconds):

  # Type    Start    End  Width  t~exp~   \w     \q     \k     \f   Frames
--------------------------------------------------------------------------
  1  \w    -14.00  27.00   1.00   22.50    --  -12.68 -99.00-180.00   41
  2  \w    -84.00 -35.00   1.00   22.50    --  -12.68 148.00 -77.54   49
  3  \w    -10.00  87.00   1.00   22.50    --   12.99  37.00  90.00   97
  4  \w     -5.00  86.00   1.00   22.50    --   12.99  37.00-180.00   91
  5  \w    -61.00  35.00   1.00   22.50    --   12.99 -37.00  30.00   96
  6  \w     -7.00  54.00   1.00   22.50    --   12.99 -99.00 150.00   61
  7  \w    -12.00  54.00   1.00   22.50    --   12.99 -99.00 -90.00   66
  8  \w    -10.00  83.00   1.00   22.50    --   12.99  37.00   0.00   93
  9  \w     54.00  80.00   1.00   22.50    --   12.99  37.00-150.00   26
;
_diffrn_measurement_device       'four-circle diffractometer'
_diffrn_measurement_device_type  'SuperNova, Dual, Cu at zero, Atlas'
_diffrn_measurement_method       '\w scans'
_diffrn_orient_matrix_type
'CrysAlisPro convention (1999,Acta A55,543-557)'
_diffrn_orient_matrix_UB_11      0.0442692000
_diffrn_orient_matrix_UB_12      0.0199570000
_diffrn_orient_matrix_UB_13      -0.0274408000
_diffrn_orient_matrix_UB_21      0.0398966000
_diffrn_orient_matrix_UB_22      0.0181770000
_diffrn_orient_matrix_UB_23      0.0304581000
_diffrn_orient_matrix_UB_31      -0.0032188000
_diffrn_orient_matrix_UB_32      -0.0532146000
_diffrn_orient_matrix_UB_33      0.0001100000
_diffrn_radiation_monochromator  mirror
_diffrn_radiation_probe          x-ray
_diffrn_radiation_type           MoK\a
_diffrn_radiation_wavelength     0.71073
_diffrn_reflns_av_R_equivalents  0.1378
_diffrn_reflns_av_unetI/netI     0.0400
_diffrn_reflns_Laue_measured_fraction_full 0.997
_diffrn_reflns_Laue_measured_fraction_max 0.984
_diffrn_reflns_limit_h_max       19
_diffrn_reflns_limit_h_min       -17
_diffrn_reflns_limit_k_max       19
_diffrn_reflns_limit_k_min       -18
_diffrn_reflns_limit_l_max       24
_diffrn_reflns_limit_l_min       -24
_diffrn_reflns_number            15644
_diffrn_reflns_point_group_measured_fraction_full 0.997
_diffrn_reflns_point_group_measured_fraction_max 0.984
_diffrn_reflns_theta_full        26.000
_diffrn_reflns_theta_max         30.460
_diffrn_reflns_theta_min         4.161
_diffrn_source                   'micro-focus sealed X-ray tube'
_diffrn_source_type              'SuperNova (Mo) X-ray Source'
_exptl_absorpt_coefficient_mu    29.313
_exptl_absorpt_correction_T_max  1.00000
_exptl_absorpt_correction_T_min  0.06764
_exptl_absorpt_correction_type   multi-scan
_exptl_absorpt_process_details
;
CrysAlisPro 1.171.38.43f (Rigaku Oxford Diffraction, 2015)
Empirical absorption correction using spherical harmonics,
 implemented in SCALE3 ABSPACK scaling algorithm.
;
_exptl_crystal_colour            yellow
_exptl_crystal_density_diffrn    4.303
_exptl_crystal_description       block
_exptl_crystal_F_000             2908
_exptl_crystal_size_max          0.099
_exptl_crystal_size_mid          0.053
_exptl_crystal_size_min          0.026
_refine_diff_density_max         3.287
_refine_diff_density_min         -3.367
_refine_diff_density_rms         0.374
_refine_ls_extinction_method     none
_refine_ls_goodness_of_fit_ref   1.071
_refine_ls_hydrogen_treatment    undef
_refine_ls_matrix_type           full
_refine_ls_number_parameters     19
_refine_ls_number_reflns         938
_refine_ls_number_restraints     0
_refine_ls_restrained_S_all      1.071
_refine_ls_R_factor_all          0.0473
_refine_ls_R_factor_gt           0.0430
_refine_ls_shift/su_max          0.000
_refine_ls_shift/su_mean         0.000
_refine_ls_structure_factor_coef Fsqd
_refine_ls_weighting_details
'w=1/[\s^2^(Fo^2^)+(0.1000P)^2^] where P=(Fo^2^+2Fc^2^)/3'
_refine_ls_weighting_scheme      calc
_refine_ls_wR_factor_gt          0.1309
_refine_ls_wR_factor_ref         0.1376
_reflns_Friedel_coverage         0.000
_reflns_number_gt                857
_reflns_number_total             938
_reflns_threshold_expression     'I > 2\s(I)'
_iucr_refine_instructions_details
;

    cs4pbbr6-8.res created by SHELXL-2014/7

TITL Cs4PbBr6-8 in R-3c #167
REM reset to R-3c #167
CELL 0.71073 13.722211 13.722211 17.299014 90 90 120
ZERR 6 0.000277 0.000277 0.000412 0 0 0
LATT 3
SYMM -Y,+X-Y,+Z
SYMM +Y-X,-X,+Z
SYMM -Y+X,-Y,0.5-Z
SYMM -X,-X+Y,0.5-Z
SYMM +Y,+X,0.5-Z
SFAC Br Cs Pb
UNIT 36 24 4
 
L.S. 4000
PLAN  20
BOND
MORE -1
BOND $H
CONF
fmap 2
acta 52
REM <olex2.extras>
REM <HklSrc "%.\\Cs4PbBr6-8.hkl">
REM </olex2.extras>
 
WGHT    0.100000
FVAR       0.07615
PB1   3    0.000000    0.000000    0.000000    10.16667    0.02773    0.02773 =
         0.02031    0.00000    0.00000    0.01387
CS2   2   -0.291598   -0.333333   -0.083333    10.50000    0.03972    0.03564 =
         0.03687   -0.00601   -0.00300    0.01782
CS3   2    0.000000    0.000000    0.250000    10.16667    0.06279    0.06279 =
         0.02061    0.00000    0.00000    0.03140
BR4   1    0.028995   -0.163583   -0.101466    11.00000    0.04515    0.03520 =
         0.03320   -0.00333    0.00063    0.02090
HKLF 4
 
REM  Cs4PbBr6-8 in R-3c #167
REM R1 =  0.0430 for     857 Fo > 4sig(Fo)  and  0.0473 for all     938 data
REM     19 parameters refined using      0 restraints
 
END  
     
WGHT      0.0647     40.2759 

REM Highest difference peak  3.287,  deepest hole -3.367,  1-sigma level  0.374
Q1    1   0.0000  0.0000  0.0483  10.33333  0.05    3.29
Q2    1   0.0403  0.0721  0.0002  11.00000  0.05    2.20
Q3    1   0.0581  0.0582  0.2500  10.50000  0.05    1.81
Q4    1   0.0000  0.0000  0.3032  10.33333  0.05    1.59
Q5    1   0.0257 -0.1648 -0.1546  11.00000  0.05    1.33
Q6    1  -0.2878 -0.3320 -0.1340  11.00000  0.05    1.32
Q7    1   0.0909 -0.1638 -0.1031  11.00000  0.05    1.08
Q8    1   0.0480  0.1313  0.0134  11.00000  0.05    1.07
Q9    1  -0.0265  0.1046  0.0075  11.00000  0.05    1.04
Q10   1   0.0697 -0.0904 -0.0970  11.00000  0.05    0.95
Q11   1  -0.2613 -0.2754  0.0108  11.00000  0.05    0.92
Q12   1  -0.0377 -0.2173  0.0066  11.00000  0.05    0.84
Q13   1  -0.3289 -0.2967 -0.0831  11.00000  0.05    0.84
Q14   1  -0.0795 -0.2196 -0.1556  11.00000  0.05    0.79
Q15   1  -0.0929 -0.2816 -0.0082  11.00000  0.05    0.78
Q16   1   0.0890 -0.1156 -0.1887  11.00000  0.05    0.74
Q17   1   0.0179 -0.1641  0.0117  11.00000  0.05    0.72
Q18   1   0.1007 -0.1532 -0.0084  11.00000  0.05    0.72
Q19   1  -0.2351 -0.4098 -0.1251  11.00000  0.05    0.71
Q20   1  -0.0609 -0.1414 -0.1565  11.00000  0.05    0.68

REM The information below was added by Olex2.
REM
REM R1 = 0.0430 for 857 Fo > 4sig(Fo) and 0.0473 for all 16668 data
REM n/a parameters refined using n/a restraints
REM Highest difference peak 3.29, deepest hole -3.37
REM Mean Shift 0, Max Shift 0.000.

REM +++ Tabular Listing of Refinement Information +++
REM R1_all = 0.0473
REM R1_gt = 0.0430
REM wR_ref = 0.1376
REM GOOF = 1.071
REM Shift_max = 0.000
REM Shift_mean = 0
REM Reflections_all = 16668
REM Reflections_gt = 857
REM Parameters = n/a
REM Hole = -3.37
REM Peak = 3.29
REM Flack = n/a

;
_cod_data_source_file            cm7b02415_si_001.cif
_cod_data_source_block           cs4pbbr6-8
_cod_depositor_comments
;

2022-02-21
Space group name changed to comply with IUCR recomendations
                 miguel
;
_cod_original_cell_volume        2820.98(13)
_cod_original_formula_sum        'Br6 Cs4 Pb1'
_cod_database_code               4002857
_publcif_datablock.id            {a300091f-f3e2-40b2-b4ba-223c6c6c093f}
_chemical_oxdiff_formula         'C18 H18 n18 Cs4 Pb1 Br6'
_shelx_space_group_comment
;
The symmetry employed for this shelxl refinement is uniquely defined
by the following loop, which should always be used as a source of
symmetry information in preference to the above space-group names.
They are only intended as comments.
;
_reflns_odcompleteness_completeness 99.63
_reflns_odcompleteness_iscentric 1
_reflns_odcompleteness_theta     27.42
_olex2_refinement_description
;
;
_shelx_shelxl_version_number     2014/7
_olex2_submission_special_instructions 'No special instructions were received'
_oxdiff_exptl_absorpt_empirical_details
;
Empirical correction (ABSPACK) includes:
- Absorption correction using spherical harmonics
- Frame scaling
;
_oxdiff_exptl_absorpt_empirical_full_max 6.429
_oxdiff_exptl_absorpt_empirical_full_min 0.493
_publcif_info_exptl_table_max_cols 4
_publcif_info_exptl_table_use_headnotes n
loop_
_space_group_symop_operation_xyz
'x, y, z'
'-y, x-y, z'
'-x+y, -x, z'
'x-y, -y, -z+1/2'
'-x, -x+y, -z+1/2'
'y, x, -z+1/2'
'x+2/3, y+1/3, z+1/3'
'-y+2/3, x-y+1/3, z+1/3'
'-x+y+2/3, -x+1/3, z+1/3'
'x-y+2/3, -y+1/3, -z+5/6'
'-x+2/3, -x+y+1/3, -z+5/6'
'y+2/3, x+1/3, -z+5/6'
'x+1/3, y+2/3, z+2/3'
'-y+1/3, x-y+2/3, z+2/3'
'-x+y+1/3, -x+2/3, z+2/3'
'x-y+1/3, -y+2/3, -z+7/6'
'-x+1/3, -x+y+2/3, -z+7/6'
'y+1/3, x+2/3, -z+7/6'
'-x, -y, -z'
'y, -x+y, -z'
'x-y, x, -z'
'-x+y, y, z-1/2'
'x, x-y, z-1/2'
'-y, -x, z-1/2'
'-x+2/3, -y+1/3, -z+1/3'
'y+2/3, -x+y+1/3, -z+1/3'
'x-y+2/3, x+1/3, -z+1/3'
'-x+y+2/3, y+1/3, z-1/6'
'x+2/3, x-y+1/3, z-1/6'
'-y+2/3, -x+1/3, z-1/6'
'-x+1/3, -y+2/3, -z+2/3'
'y+1/3, -x+y+2/3, -z+2/3'
'x-y+1/3, x+2/3, -z+2/3'
'-x+y+1/3, y+2/3, z+1/6'
'x+1/3, x-y+2/3, z+1/6'
'-y+1/3, -x+2/3, z+1/6'
loop_
_atom_site_label
_atom_site_type_symbol
_atom_site_fract_x
_atom_site_fract_y
_atom_site_fract_z
_atom_site_U_iso_or_equiv
_atom_site_adp_type
_atom_site_occupancy
_atom_site_site_symmetry_order
_atom_site_calc_flag
_atom_site_refinement_flags_posn
_atom_site_refinement_flags_adp
_atom_site_refinement_flags_occupancy
Pb1 Pb 0.0000 0.0000 0.0000 0.0253(2) Uani 1 6 d S T P
Cs2 Cs -0.29160(5) -0.3333 -0.0833 0.0379(3) Uani 1 2 d S T P
Cs3 Cs 0.0000 0.0000 0.2500 0.0487(4) Uani 1 6 d S T P
Br4 Br 0.02899(7) -0.16358(6) -0.10147(4) 0.0375(3) Uani 1 1 d . . .
loop_
_atom_site_aniso_label
_atom_site_aniso_U_11
_atom_site_aniso_U_22
_atom_site_aniso_U_33
_atom_site_aniso_U_23
_atom_site_aniso_U_13
_atom_site_aniso_U_12
Pb1 0.0277(3) 0.0277(3) 0.0203(4) 0.000 0.000 0.01387(14)
Cs2 0.0397(3) 0.0356(4) 0.0369(5) -0.0060(2) -0.00300(11) 0.01782(18)
Cs3 0.0628(6) 0.0628(6) 0.0206(7) 0.000 0.000 0.0314(3)
Br4 0.0451(4) 0.0352(4) 0.0332(5) -0.0033(2) 0.0006(3) 0.0209(3)
loop_
_atom_type_symbol
_atom_type_description
_atom_type_scat_dispersion_real
_atom_type_scat_dispersion_imag
_atom_type_scat_source
Br Br -0.2901 2.4595 'International Tables Vol C Tables 4.2.6.8 and 6.1.1.4'
Cs Cs -0.3680 2.1192 'International Tables Vol C Tables 4.2.6.8 and 6.1.1.4'
Pb Pb -3.3944 10.1111 'International Tables Vol C Tables 4.2.6.8 and 6.1.1.4'
loop_
_exptl_crystal_face_index_h
_exptl_crystal_face_index_k
_exptl_crystal_face_index_l
_exptl_crystal_face_perp_dist
-9 19 0 0.0426
14 -3 16 0.0181
-15 6 -15 0.0187
10 -3 21 0.0132
9 -1 21 0.0148
-10 3 -21 0.0116
-4 -4 22 0.0151
-6 -2 22 0.0148
-7 0 23 0.0164
7 0 -23 0.0148
0 -16 -9 0.0436
0 15 9 0.0423
5 -18 5 0.0493
loop_
_geom_angle_atom_site_label_1
_geom_angle_atom_site_label_2
_geom_angle_atom_site_label_3
_geom_angle
_geom_angle_site_symmetry_1
_geom_angle_site_symmetry_3
Cs2 Pb1 Cs2 180.0 2 20
Cs2 Pb1 Cs2 110.456(1) 20 19
Cs2 Pb1 Cs2 180.0 19 .
Cs2 Pb1 Cs2 69.544(1) 20 .
Cs2 Pb1 Cs2 110.456(1) 2 .
Cs2 Pb1 Cs2 69.544(1) 2 19
Cs3 Pb1 Cs2 71.531(1) 19 .
Cs3 Pb1 Cs2 71.532(1) . 19
Cs3 Pb1 Cs2 71.532(1) . 20
Cs3 Pb1 Cs2 108.468(1) . 2
Cs3 Pb1 Cs2 108.469(1) . .
Cs3 Pb1 Cs2 108.468(1) 19 19
Cs3 Pb1 Cs2 108.468(1) 19 20
Cs3 Pb1 Cs2 71.532(1) 19 2
Cs3 Pb1 Cs3 180.0 . 19
Br4 Pb1 Cs2 126.092(15) 20 19
Br4 Pb1 Cs2 125.918(16) 19 2
Br4 Pb1 Cs2 56.408(16) 2 2
Br4 Pb1 Cs2 53.908(15) 3 20
Br4 Pb1 Cs2 123.592(16) 20 2
Br4 Pb1 Cs2 54.082(16) 19 20
Br4 Pb1 Cs2 125.918(16) . 20
Br4 Pb1 Cs2 56.408(16) 20 20
Br4 Pb1 Cs2 53.908(15) 20 .
Br4 Pb1 Cs2 53.908(15) 21 2
Br4 Pb1 Cs2 123.591(16) . 19
Br4 Pb1 Cs2 54.081(16) 21 19
Br4 Pb1 Cs2 125.919(16) 3 19
Br4 Pb1 Cs2 126.092(15) 3 2
Br4 Pb1 Cs2 56.408(16) . .
Br4 Pb1 Cs2 126.092(15) 21 20
Br4 Pb1 Cs2 56.409(16) 19 19
Br4 Pb1 Cs2 123.592(16) 19 .
Br4 Pb1 Cs2 123.592(16) 2 20
Br4 Pb1 Cs2 126.092(15) 2 .
Br4 Pb1 Cs2 54.082(16) . 2
Br4 Pb1 Cs2 53.908(15) 2 19
Br4 Pb1 Cs2 54.082(16) 3 .
Br4 Pb1 Cs2 125.918(16) 21 .
Br4 Pb1 Cs3 125.423(15) 19 19
Br4 Pb1 Cs3 125.423(15) 21 19
Br4 Pb1 Cs3 54.577(15) 20 .
Br4 Pb1 Cs3 54.577(15) . 19
Br4 Pb1 Cs3 125.423(15) 3 .
Br4 Pb1 Cs3 54.577(15) 19 .
Br4 Pb1 Cs3 125.423(15) . .
Br4 Pb1 Cs3 125.423(15) 20 19
Br4 Pb1 Cs3 54.577(15) 21 .
Br4 Pb1 Cs3 54.577(15) 3 19
Br4 Pb1 Cs3 54.577(15) 2 19
Br4 Pb1 Cs3 125.423(15) 2 .
Br4 Pb1 Br4 89.78(2) 3 2
Br4 Pb1 Br4 90.22(2) 3 20
Br4 Pb1 Br4 180.00(2) 20 2
Br4 Pb1 Br4 180.00(3) 21 3
Br4 Pb1 Br4 89.78(2) 21 19
Br4 Pb1 Br4 89.78(2) . 3
Br4 Pb1 Br4 180.00(3) . 19
Br4 Pb1 Br4 90.22(2) . 20
Br4 Pb1 Br4 89.78(2) . 2
Br4 Pb1 Br4 90.22(2) 19 2
Br4 Pb1 Br4 90.22(2) . 21
Br4 Pb1 Br4 89.78(2) 21 20
Br4 Pb1 Br4 90.22(2) 3 19
Br4 Pb1 Br4 90.22(2) 21 2
Br4 Pb1 Br4 89.78(2) 19 20
Pb1 Cs2 Pb1 135.739(14) . 10_444
Pb1 Cs2 Cs2 160.709(9) 10_444 20
Pb1 Cs2 Cs2 55.2 . 20
Pb1 Cs2 Cs3 112.130(7) 10_444 13_444
Pb1 Cs2 Cs3 112.131(7) . 13_444
Cs3 Cs2 Cs2 60.280(5) 13_444 20
Br4 Cs2 Pb1 41.265(11) 10_444 10_444
Br4 Cs2 Pb1 114.149(13) 36_445 10_444
Br4 Cs2 Pb1 41.494(11) 29_445 10_444
Br4 Cs2 Pb1 125.995(16) 29_445 .
Br4 Cs2 Pb1 41.480(11) 3 .
Br4 Cs2 Pb1 97.738(12) 36_445 .
Br4 Cs2 Pb1 153.844(14) 12_444 .
Br4 Cs2 Pb1 96.576(14) 10_444 .
Br4 Cs2 Pb1 41.493(11) 20 .
Br4 Cs2 Pb1 96.577(14) . 10_444
Br4 Cs2 Pb1 125.994(16) 20 10_444
Br4 Cs2 Pb1 97.737(12) 33_444 10_444
Br4 Cs2 Pb1 153.844(14) 3 10_444
Br4 Cs2 Pb1 41.264(11) . .
Br4 Cs2 Pb1 41.480(11) 12_444 10_444
Br4 Cs2 Pb1 114.151(13) 33_444 .
Br4 Cs2 Cs2 47.397(14) 20 20
Br4 Cs2 Cs2 136.533(11) 10_444 20
Br4 Cs2 Cs2 47.356(14) 36_445 20
Br4 Cs2 Cs2 87.814(13) 33_444 20
Br4 Cs2 Cs2 120.487(18) 12_444 20
Br4 Cs2 Cs2 96.471(11) . 20
Br4 Cs2 Cs2 152.774(13) 29_445 20
Br4 Cs2 Cs2 45.359(12) 3 20
Br4 Cs2 Cs3 102.365(15) 20 13_444
Br4 Cs2 Cs3 78.641(15) 3 13_444
Br4 Cs2 Cs3 78.639(15) 12_444 13_444
Br4 Cs2 Cs3 43.804(13) 33_444 13_444
Br4 Cs2 Cs3 43.804(13) 36_445 13_444
Br4 Cs2 Cs3 102.363(15) 29_445 13_444
Br4 Cs2 Cs3 147.742(11) 10_444 13_444
Br4 Cs2 Cs3 147.742(11) . 13_444
Br4 Cs2 Br4 134.963(14) 20 33_444
Br4 Cs2 Br4 70.92(2) 29_445 12_444
Br4 Cs2 Br4 134.961(14) 29_445 36_445
Br4 Cs2 Br4 89.243(19) 29_445 .
Br4 Cs2 Br4 157.28(3) 3 12_444
Br4 Cs2 Br4 66.572(19) 29_445 33_444
Br4 Cs2 Br4 114.278(19) 20 12_444
Br4 Cs2 Br4 120.367(8) 33_444 .
Br4 Cs2 Br4 69.58(2) 20 .
Br4 Cs2 Br4 73.13(2) 3 33_444
Br4 Cs2 Br4 66.574(19) 20 36_445
Br4 Cs2 Br4 69.58(2) 29_445 10_444
Br4 Cs2 Br4 64.52(2) 10_444 .
Br4 Cs2 Br4 90.333(17) 12_444 33_444
Br4 Cs2 Br4 69.17(2) 3 .
Br4 Cs2 Br4 133.524(15) 12_444 .
Br4 Cs2 Br4 135.652(19) 36_445 .
Br4 Cs2 Br4 87.61(3) 36_445 33_444
Br4 Cs2 Br4 70.92(2) 20 3
Br4 Cs2 Br4 155.27(3) 20 29_445
Br4 Cs2 Br4 69.18(2) 12_444 10_444
Br4 Cs2 Br4 89.242(19) 20 10_444
Br4 Cs2 Br4 135.652(19) 33_444 10_444
Br4 Cs2 Br4 73.13(2) 12_444 36_445
Br4 Cs2 Br4 90.334(17) 3 36_445
Br4 Cs2 Br4 114.278(19) 29_445 3
Br4 Cs2 Br4 133.523(15) 3 10_444
Br4 Cs2 Br4 120.366(8) 36_445 10_444
Pb1 Cs3 Pb1 180.0 4 .
Pb1 Cs3 Cs2 90.0 . 8_455
Pb1 Cs3 Cs2 90.0 . 9_445
Pb1 Cs3 Cs2 90.0 4 8_455
Pb1 Cs3 Cs2 90.0 4 9_445
Pb1 Cs3 Cs2 123.742(2) 4 20
Pb1 Cs3 Cs2 90.0 4 7
Pb1 Cs3 Cs2 90.0 . 7
Pb1 Cs3 Cs2 56.258(2) . 20
Cs2 Cs3 Cs2 70.715(6) 8_455 20
Cs2 Cs3 Cs2 120.0 7 9_445
Cs2 Cs3 Cs2 120.0 7 8_455
Cs2 Cs3 Cs2 145.695(3) 7 20
Cs2 Cs3 Cs2 120.0 9_445 8_455
Cs2 Cs3 Cs2 60.279(5) 9_445 20
Br4 Cs3 Pb1 136.156(11) 21 4
Br4 Cs3 Pb1 43.844(11) 21 .
Br4 Cs3 Pb1 136.156(11) 24_556 .
Br4 Cs3 Pb1 43.844(11) 24_556 4
Br4 Cs3 Pb1 43.844(11) 22_556 4
Br4 Cs3 Pb1 136.156(11) 23_556 .
Br4 Cs3 Pb1 43.844(11) 20 .
Br4 Cs3 Pb1 43.844(11) 19 .
Br4 Cs3 Pb1 136.156(11) 19 4
Br4 Cs3 Pb1 136.156(11) 20 4
Br4 Cs3 Pb1 136.156(11) 22_556 .
Br4 Cs3 Pb1 43.844(11) 23_556 4
Br4 Cs3 Cs2 105.024(12) 20 7
Br4 Cs3 Cs2 105.023(12) 24_556 9_445
Br4 Cs3 Cs2 115.259(13) 24_556 8_455
Br4 Cs3 Cs2 46.693(11) 19 8_455
Br4 Cs3 Cs2 115.261(13) 21 9_445
Br4 Cs3 Cs2 115.260(13) 20 8_455
Br4 Cs3 Cs2 115.258(13) 23_556 9_445
Br4 Cs3 Cs2 105.022(12) 23_556 7
Br4 Cs3 Cs2 46.691(11) 22_556 9_445
Br4 Cs3 Cs2 89.770(13) 22_556 20
Br4 Cs3 Cs2 46.692(11) 23_556 8_455
Br4 Cs3 Cs2 46.692(11) 24_556 7
Br4 Cs3 Cs2 105.024(12) 21 8_455
Br4 Cs3 Cs2 105.022(12) 22_556 8_455
Br4 Cs3 Cs2 47.460(14) 20 20
Br4 Cs3 Cs2 115.259(13) 22_556 7
Br4 Cs3 Cs2 163.327(12) 24_556 20
Br4 Cs3 Cs2 104.352(13) 23_556 20
Br4 Cs3 Cs2 100.092(11) 21 20
Br4 Cs3 Cs2 46.693(11) 21 7
Br4 Cs3 Cs2 105.022(12) 19 9_445
Br4 Cs3 Cs2 45.497(13) 19 20
Br4 Cs3 Cs2 115.260(13) 19 7
Br4 Cs3 Cs2 46.693(11) 20 9_445
Br4 Cs3 Br4 73.725(18) 23_556 24_556
Br4 Cs3 Br4 73.725(18) 24_556 22_556
Br4 Cs3 Br4 129.48(3) 20 24_556
Br4 Cs3 Br4 149.95(2) 20 23_556
Br4 Cs3 Br4 129.48(3) 23_556 21
Br4 Cs3 Br4 93.38(2) 24_556 21
Br4 Cs3 Br4 93.38(2) 23_556 19
Br4 Cs3 Br4 73.725(18) 20 19
Br4 Cs3 Br4 149.95(2) 22_556 21
Br4 Cs3 Br4 73.725(18) 20 21
Br4 Cs3 Br4 149.95(2) 24_556 19
Br4 Cs3 Br4 73.725(18) 23_556 22_556
Br4 Cs3 Br4 129.48(3) 22_556 19
Br4 Cs3 Br4 73.725(18) 21 19
Br4 Cs3 Br4 93.38(2) 20 22_556
Pb1 Br4 Cs2 84.600(19) . 21
Pb1 Br4 Cs2 84.438(19) . 2
Pb1 Br4 Cs2 165.82(3) . 32_544
Pb1 Br4 Cs2 82.328(17) . .
Pb1 Br4 Cs3 81.579(16) . 19
Cs2 Br4 Cs2 106.87(2) 2 32_544
Cs2 Br4 Cs2 103.721(16) 21 32_544
Cs2 Br4 Cs2 86.570(15) 32_544 .
Cs2 Br4 Cs2 89.139(18) 21 2
Cs2 Br4 Cs2 87.302(17) 21 .
Cs2 Br4 Cs2 166.56(2) 2 .
Cs3 Br4 Cs2 89.202(18) 19 .
Cs3 Br4 Cs2 91.172(18) 19 2
Cs3 Br4 Cs2 89.504(19) 19 32_544
Cs3 Br4 Cs2 166.08(2) 19 21
loop_
_geom_bond_atom_site_label_1
_geom_bond_atom_site_label_2
_geom_bond_distance
_geom_bond_site_symmetry_2
Pb1 Cs2 4.5506(2) 2
Pb1 Cs2 4.5507(3) 19
Pb1 Cs2 4.5507(2) .
Pb1 Cs2 4.5506(2) 20
Pb1 Cs3 4.32475(11) .
Pb1 Cs3 4.32475(11) 19
Pb1 Br4 3.0284(7) 20
Pb1 Br4 3.0284(7) 19
Pb1 Br4 3.0284(7) 3
Pb1 Br4 3.0284(7) 2
Pb1 Br4 3.0284(7) 21
Pb1 Br4 3.0284(7) .
Cs2 Pb1 4.5506(3) 10_444
Cs2 Cs2 5.1906(2) 20
Cs2 Cs3 5.1467(6) 13_444
Cs2 Br4 3.7028(8) 12_444
Cs2 Br4 3.8249(10) .
Cs2 Br4 3.6937(8) 20
Cs2 Br4 3.7453(8) 36_445
Cs2 Br4 3.6936(8) 29_445
Cs2 Br4 3.8249(10) 10_444
Cs2 Br4 3.7453(8) 33_444
Cs2 Br4 3.7028(8) 3
Cs3 Pb1 4.32475(11) 4
Cs3 Cs2 5.1907(2) 20
Cs3 Cs2 5.1468(6) 9_445
Cs3 Cs2 5.1469(6) 8_455
Cs3 Cs2 5.1467(6) 7
Cs3 Br4 3.5626(8) 19
Cs3 Br4 3.5626(8) 24_556
Cs3 Br4 3.5626(8) 23_556
Cs3 Br4 3.5626(8) 22_556
Cs3 Br4 3.5626(8) 20
Cs3 Br4 3.5626(8) 21
Br4 Cs2 3.7455(8) 32_544
Br4 Cs2 3.6937(8) 21
Br4 Cs2 3.7028(8) 2
Br4 Cs3 3.5626(8) 19
loop_
_refln_index_h
_refln_index_k
_refln_index_l
_refln_F_squared_meas
_refln_F_squared_sigma
0 0 3 0.29 0.92
0 0 -3 2.04 1.41
0 0 -6 7079.32 72.89
0 0 -6 7886.07 106.3
0 0 -9 0.74 0.91
0 0 -9 1.8 1.29
0 0 9 -0.41 0.9
0 0 9 0.19 0.8
0 0 -9 0.45 1.82
0 0 -9 3.39 2.46
0 0 12 6744 149.69
0 0 -12 6321.76 139.7
0 0 -12 9389.97 184.67
0 0 12 8359.88 176.98
0 0 -12 6534.08 158.61
0 0 -15 8.15 5.93
0 0 15 22.66 10.9
0 0 18 29.06 12.54
0 0 -18 36.43 14.56
0 0 -21 15.84 11.74
0 0 21 14.25 10.31
-1 0 23 5.15 3.65
0 -1 -23 4.31 0.7
0 1 23 0.66 3.06
-1 1 -23 3.61 8.35
1 -1 23 5.08 5.15
1 0 -23 8.59 9.44
1 0 -20 1247.84 89.05
-1 0 20 1130.44 82.04
-1 1 -20 1103.68 81.76
0 -1 -20 1292.37 89.25
1 -1 20 933.95 68.27
0 1 20 974.98 73.13
0 -1 -17 3.77 0.75
0 1 17 2.44 2.72
1 0 -17 -3.32 4.96
1 -1 17 9.8 8.09
-1 1 -17 1.29 3.44
-1 0 17 0.12 4.08
0 -1 -14 82.09 13.04
0 -1 -14 165.69 26.02
-1 0 14 122.7 22.72
-1 1 -14 114.92 20.72
-1 1 -14 103.99 9.97
0 -1 -14 141.1 22.47
1 -1 14 133.64 21.42
-1 1 -14 143.19 24.78
0 1 14 156.9 26.32
1 0 -14 128.24 22.32
0 1 14 120.51 22.18
-1 0 11 2.67 4.25
1 0 -11 0.79 1.32
1 -1 11 0.75 1.14
-1 1 -11 4.94 2.34
1 -1 11 1.14 1.83
-1 1 -11 0.01 1.05
0 -1 -11 0.81 4
0 -1 -11 -0.03 1.28
-1 0 11 6.58 5.05
1 0 -11 7.18 4.87
0 -1 -11 1.28 1.84
0 1 11 0.41 1.06
1 0 -11 1.26 3.18
-1 1 -11 6.67 5.45
1 -1 11 0.8 0.42
-1 1 -11 3.47 3.78
0 1 11 1.07 7.02
-1 1 -8 2960.03 82.45
-1 1 -8 3028.01 55.21
0 1 8 3035.5 80.85
0 1 8 3125.06 89.77
1 0 -8 2797.28 75.29
-1 0 8 2354.71 70.55
-1 0 8 3550.57 52.86
0 -1 -8 2777.11 77.09
0 -1 -8 2380.58 60.71
0 -1 -8 3677.52 81.91
-1 1 -8 1741.95 61.37
1 -1 8 3151.2 79.3
1 0 -8 3108.69 84.69
0 -1 -5 1.87 1.7
-1 0 5 1.07 2.46
0 1 5 1.69 1.36
-1 1 -5 14.76 5.44
-1 1 -5 11.2 4.43
0 1 5 -0.74 1.13
0 1 5 8.79 3.45
-1 0 5 1.63 1.46
1 -1 5 10.08 5.04
0 -1 -5 3.18 1.78
0 -1 -5 0.68 1.76
1 0 -5 4.5 2.43
-1 1 4 25.26 4.83
0 -1 4 21.37 5
1 -1 -4 19.55 4.26
1 0 4 16.42 4.48
1 -1 -4 23.53 4.47
-1 1 4 22.42 5.21
-1 0 -4 25.24 5.62
1 0 4 20.83 5.08
1 0 7 8.79 4.24
0 -1 7 1.61 1.27
0 1 -7 -0.99 1.48
1 -1 -7 1.15 1.49
-1 0 -7 3.18 3.2
-1 0 -7 1.46 2.19
-1 0 -7 3.7 3.4
-1 0 -7 1.69 1.9
-1 1 7 2.88 1.7
-1 1 7 0.01 2.04
0 1 -7 15.88 5.35
1 0 7 7.36 5.13
1 -1 -7 19.71 5.61
-1 1 7 -0.52 0.72
0 -1 10 2952.55 95.5
1 0 10 2577.6 87.35
-1 1 10 2436.73 79.15
1 -1 -10 2558.71 78.94
0 -1 10 1922.14 68.6
-1 1 10 2851.97 64.21
-1 1 10 2094.55 79.87
1 -1 -10 1514.45 48.02
1 -1 -10 2753.5 94.92
0 1 -10 2564.15 87.49
-1 0 -10 2225.34 74.25
0 1 -10 2336.57 77.37
1 0 10 2379.76 82.22
-1 0 -10 1765.07 55.25
-1 0 -10 2314.97 83.21
-1 0 -13 -5.91 6.46
-1 1 13 9.18 5.63
-1 0 -13 8.14 3.88
0 -1 13 8.37 6.28
0 1 -13 0.22 2.35
-1 1 13 6.34 3.75
0 1 -13 1.89 7.3
1 0 13 2.79 3.58
-1 0 -13 2.67 3.73
-1 0 -13 1.44 4.06
1 -1 -13 -3.27 3.87
1 0 13 -0.95 2.94
1 -1 -13 0.31 0.4
0 1 -13 3.18 3.34
1 -1 -16 132.91 25.6
0 1 -16 103.86 22.69
0 -1 16 91.75 19.34
1 0 16 82.1 18.55
-1 1 16 77.6 19.23
-1 0 -16 122.49 22.68
-1 0 -16 66.81 10.44
0 -1 19 2 1.01
0 1 -19 4.03 7.46
-1 1 19 0.77 1.46
1 0 19 1.66 4.45
1 -1 -19 9.96 8.18
-1 0 -19 18.15 10.42
1 0 22 53.76 16.62
-1 0 -22 90.57 25.49
0 -1 22 68 20.31
0 1 -22 76.41 22.26
-1 1 22 61.64 19.84
1 -1 -22 79.26 22.95
-1 2 -3 647.04 17.88
-2 1 3 684.24 28.23
-1 2 3 649.36 17.03
1 1 3 740.2 19.76
-1 2 -3 796.63 28.37
2 -1 -3 682.2 21.71
1 -2 -3 777.63 29.73
-1 -1 3 756.9 24.6
1 -2 3 779.9 30.51
1 -2 -3 618.68 16.71
-1 -1 3 786.68 30.15
-1 -1 -3 727.41 29.63
2 -1 3 678.42 22.65
-1 2 -3 604.02 26.21
-1 2 -3 708.86 18.39
1 1 -3 624.17 24.19
-2 1 -3 807.47 27.73
-1 2 3 731.23 30.69
1 -2 3 676.32 19.18
-1 -1 -6 1449.36 46.44
1 1 -6 928.9 37.68
1 1 6 1012.3 39.55
-2 1 6 1154.64 35.52
-1 -1 -6 1095.89 45.15
-1 2 -6 1145.48 40.44
1 1 6 1106.91 46.81
2 -1 6 1182.2 43.93
2 -1 -6 941.87 36.62
1 -2 -6 1095.14 36.04
-1 -1 6 993.92 41.64
-1 2 6 1078.8 41.86
-1 -1 -6 1132.21 42.44
-1 2 6 1050.68 47.79
-1 2 -6 935.57 40.8
1 1 -6 940.88 39.63
1 -2 -6 867.09 36.31
-2 1 6 888.25 40.27
-1 2 6 1189.57 38.76
2 -1 6 902.78 40.15
-2 1 -6 1144.46 46.93
1 -2 6 1019.26 34.71
1 -2 6 1573.98 59.91
-2 1 -9 671.79 31.25
-1 2 9 748.88 41.28
-2 1 9 580.53 34.22
-1 -1 -9 773.49 41.13
-2 1 9 649.68 28.65
2 -1 9 491.12 36.3
-1 -1 -9 624.62 38.26
-1 2 9 721.94 36.26
-1 2 9 651.85 44.4
-1 2 -9 725.6 42.39
-1 2 -9 699.7 41.3
2 -1 -9 601.69 37.26
2 -1 9 706.1 40.81
-1 -1 9 520.16 35.33
-2 1 -9 630.02 39.26
-1 -1 -9 698.16 43.95
1 -2 -9 853.15 43.78
1 -2 9 236.98 28.54
-2 1 -9 652.17 39.02
-1 -1 -9 793.44 42.2
1 -2 -9 545.09 31.77
1 -2 9 566.04 32.88
1 -2 -9 690.64 37.37
1 1 -9 654.67 39.86
1 1 -9 585.33 38.26
1 1 9 651.56 43.11
-2 1 9 551.56 38.28
1 -2 -12 393.2 40.26
2 -1 12 459.83 46.81
-1 2 12 413.6 37.7
-1 -1 -12 364.88 36.07
1 1 12 369.56 35.78
-2 1 -12 350.41 33.19
-2 1 -12 484.24 40.75
-2 1 12 301.77 33.63
1 -2 12 463.21 46.03
-1 2 -12 514.56 44.8
2 -1 -12 316.78 35.53
-1 -1 -12 354.48 32.07
1 1 -12 334.9 34.16
1 -2 -12 391.01 34.39
1 1 -12 392.51 37.64
-1 2 -12 376.14 35.15
-1 -1 -12 438.7 36.86
1 -2 12 338.25 30.12
1 1 12 429.77 44.58
1 1 -12 429.1 39.39
-2 1 -12 312.81 30.9
1 -2 -12 459.71 39.04
1 -2 12 469.81 43.5
-1 -1 12 235.44 28.29
-2 1 12 335.87 21.75
-2 1 -12 276.58 22.24
-2 1 12 413.16 35.59
2 -1 12 341.25 31.26
-1 -1 12 268.93 29.25
-1 -1 -12 274.88 25.94
2 -1 -12 338.87 33.21
1 -2 -12 294.06 25.72
-1 2 -12 411.03 38.3
-1 2 12 331.54 35.84
1 1 15 491.18 44.02
-2 1 -15 475.11 43.25
2 -1 -15 516.67 47.21
-2 1 15 422.4 45.83
1 1 -15 550.75 50.9
-1 -1 -15 320.48 27.79
-1 -1 -15 669.83 50.49
1 -2 15 482.15 40.88
-1 2 -15 499.4 45.62
-2 1 -15 436.77 25.89
-1 2 15 525.82 49.74
2 -1 15 566.12 44.62
-1 -1 15 468.45 44.11
1 -2 -15 597.05 50.1
2 -1 -18 296.36 39.79
2 -1 18 236.92 31.25
1 1 18 241.56 33.39
-1 -1 -18 245.02 22.77
-1 -1 18 271.98 37.01
-1 2 18 263.6 38.1
-2 1 -18 238.95 34
1 1 -18 321.04 43.44
1 -2 18 275.69 34.06
-1 2 -18 267.18 37.56
1 -2 -18 404.21 45.74
-1 -1 -18 292.02 37.8
-2 1 18 276.05 40.87
-1 -1 -21 283.47 41.64
2 -1 -21 353.06 47.52
1 1 -21 191.93 36.54
-1 2 21 229.69 38.21
-2 1 -21 283.42 41.25
1 -2 -21 233.31 37.86
-2 1 21 236.34 40.17
1 1 21 209.89 33.28
-1 2 -21 250.25 40.49
1 -2 21 180 29.98
-1 -1 21 216.33 34.8
2 -1 21 194.54 30.3
1 -2 -24 120.45 28.2
1 -2 24 86.65 21.79
2 -1 24 53.06 17.1
-1 -1 -24 90.44 24.17
-2 2 -22 13.11 5.19
-2 0 22 14.56 8.26
0 2 22 15.71 10.97
2 -2 22 9.06 6.5
2 0 -22 22.22 11.75
0 -2 -22 11.89 11.04
0 2 19 -2.92 3.72
0 -2 -19 5.81 5.15
2 -2 19 2.99 5.14
-2 2 -19 -4.06 6.64
2 0 -19 2.83 3.87
-2 0 19 4.36 6.75
-2 0 16 1508.54 86.05
2 0 -16 1973.6 97.15
2 -2 16 1757.91 78.15
0 2 16 1674.69 87.69
-2 2 -16 1527.61 81.35
0 -2 -16 1397.07 60.77
-2 2 -13 6.9 5.45
2 0 -13 -1.09 1.34
2 0 -13 1.09 1.39
0 2 13 0.54 0.96
0 -2 -13 0.5 2.72
0 -2 -13 4.09 2.97
0 2 13 4.57 2.76
-2 2 -13 0.79 1.15
-2 0 13 -1.56 2.26
-2 2 -13 2.11 3.23
0 -2 -13 -2.05 0.85
2 -2 13 3.77 2.8
-2 2 -10 119.54 17.6
2 -2 10 163.41 24.93
2 -2 10 119.68 16.11
0 2 10 120.55 19.64
0 -2 -10 91.24 14.67
0 -2 -10 159.41 18.97
2 0 -10 108.06 16.91
-2 0 10 111.09 16.03
-2 0 10 114.5 10.03
2 0 -10 128.99 19.29
-2 0 10 101.02 17.26
0 2 10 135.9 19.11
-2 2 -10 108.16 17.15
0 -2 -10 142.4 18.85
-2 2 -10 112.3 11.26
0 -2 -7 0.6 1.34
2 -2 7 5.93 5.13
-2 2 -7 1.12 1.42
0 2 7 1.84 1.71
0 2 7 -1.63 3.85
-2 2 -7 2.37 2.62
0 -2 -7 1.72 1.43
-2 0 7 0.52 1.92
2 -2 7 3.5 3.38
2 0 -7 0.55 1.22
0 2 7 0.63 0.76
0 -2 -7 0.09 0.12
2 -2 7 -0.31 1.93
-2 0 7 1.12 1.07
0 -2 -4 4732.35 58.16
0 -2 -4 5525.63 64.55
0 -2 -4 4774.53 91.54
2 -2 4 3856 75.75
2 -2 4 3824.77 59.32
0 2 4 4341.13 84.04
-2 2 -4 5009.54 85.78
0 2 4 4583.06 59.41
-2 2 -4 4475.87 77.29
2 0 -4 4089.69 66.81
-2 0 4 4037.26 72.95
2 -2 1 2.01 1.3
2 -2 1 1.26 0.99
2 0 -1 1.12 0.72
2 -2 1 2.08 0.77
0 2 1 2.08 0.61
0 2 1 2.29 1.13
-2 0 1 0.62 0.65
0 -2 -1 6.12 2.77
-2 2 -1 -0.06 0.11
-2 2 -1 0.26 0.16
0 -2 2 21.8 3.59
0 2 -2 25.93 4.46
-2 2 2 25.16 4.51
2 0 2 19.39 2.92
2 -2 -2 14.63 1.78
0 -2 2 22.24 3.88
-2 0 -2 24.19 4
0 -2 2 20.13 3.86
2 -2 -5 5.42 2.6
-2 2 5 15.07 7.11
-2 2 5 9.72 3.1
0 2 -5 2.11 1.69
-2 2 5 0.57 3.94
2 0 5 5.02 3.86
0 -2 5 -0.11 0.46
0 2 -5 0.26 0.78
2 -2 -8 2032.69 60.72
0 -2 8 1759.56 58.56
-2 2 8 1747.65 66.65
0 2 -8 1082.59 47.03
-2 0 -8 2161.93 70.11
-2 2 8 1912.25 56.79
-2 0 -8 1718.69 54.99
0 2 -8 1935.77 64.57
2 0 8 2083.65 68.63
-2 2 8 2490.07 64.72
-2 0 -8 2946.82 78.82
2 0 8 1836.62 63.73
0 2 -11 5.09 4.35
0 2 -11 -1 2.25
2 0 11 3.57 1.69
-2 0 -11 1.81 2.7
-2 0 -11 -0.35 2.93
-2 2 11 0.3 1.02
2 -2 -11 0.2 3.33
0 -2 11 3.6 1.9
0 2 -11 8.02 4.75
2 -2 -11 0.29 1.17
-2 2 11 -0.37 4.22
-2 2 11 1.09 1.14
-2 0 -11 0.45 0.64
2 -2 -14 53.31 15.32
0 -2 14 71.47 15.4
0 2 -14 33.4 11.74
0 2 -14 24.77 9.19
-2 2 14 44.72 15.08
2 -2 -14 31.5 10.68
-2 0 -14 25.42 7.84
-2 2 14 35.81 12.53
-2 0 -14 38.24 11.4
2 0 14 29.64 9.81
-2 0 -17 1.45 1.76
0 2 -17 -2.46 6.31
2 0 17 2.19 4.23
2 -2 -17 1.04 1.69
0 -2 17 4.69 4.63
-2 0 -17 1.73 3.38
-2 2 17 2.35 6.73
0 -2 20 442.88 46.71
-2 2 20 585.65 62.92
-2 0 -20 650.74 60.05
2 0 20 456.55 45.89
2 -2 -20 643.23 61.1
0 2 -20 588.1 62.64
2 0 23 10.5 7.21
0 -2 23 3.02 5.45
-2 2 23 4.32 7.69
-2 0 -23 -6.57 6.18
2 -2 -23 -2.24 5.64
-3 2 -23 120.45 28.5
3 -2 23 80.86 19.63
1 2 23 88.03 22.55
3 -1 -23 103.53 26.71
-1 -2 -23 135.55 29.8
1 -3 -23 124.22 27.5
-2 -1 23 98.58 23.93
-3 1 23 101.9 26.22
2 -3 23 93.02 21.39
-1 -2 -20 166.88 30.78
-3 1 20 137.03 30.38
2 1 -20 117.91 26.64
-2 -1 20 116.76 24.94
1 -3 -20 149.05 27.82
1 2 20 101.11 22.37
-2 3 -20 90.91 22.8
-1 3 20 115.42 26.25
3 -1 -20 160.21 31.26
-3 2 -20 159.84 29.65
2 -3 20 128.23 23.36
3 -2 20 97.62 19.89
-1 3 17 473.28 50.03
3 -1 -17 502.29 49.87
-2 3 -17 442.64 46.02
2 -3 17 453.23 39.81
2 1 -17 456.65 49.16
1 2 17 464.22 45.48
-1 -2 -17 607.66 51.41
-2 -1 17 454.22 46.07
-1 -2 -17 461.91 36.6
-3 2 -17 454.06 22.17
1 -3 -17 668.48 55.88
3 -2 17 449.72 40.01
-3 1 17 507.55 54.5
-3 2 -17 477.83 46
1 -3 -14 198.03 24.1
-2 -1 14 234.93 30.03
1 -3 -14 200.97 27.1
-1 3 14 288.46 36.39
-2 3 -14 290.53 33.47
-3 2 -14 264.73 21.93
3 -2 14 320.26 30.74
-2 3 -14 196.92 27.47
-3 1 14 360.99 21.79
-1 -2 -14 223.68 26.14
2 1 -14 266.58 33.74
-3 1 14 250.25 33.88
1 2 14 242.58 30.93
3 -1 -14 296.13 33.72
1 -3 -14 388.29 37.96
-1 -2 -14 378.37 35.09
-1 -2 -14 273.28 30.73
-3 2 -14 294.35 32.56
2 -3 14 335.56 30.8
-1 3 14 369.91 37.83
2 -3 11 1542.6 78.8
-2 -1 11 790 50.04
-3 2 -11 1196.43 62.36
3 -2 11 1350.13 74.06
-1 3 11 1034.9 50.11
3 -1 -11 1019.31 54.46
-2 3 -11 1232.75 68.61
-3 1 11 800.89 44.37
-1 3 11 808.32 55.24
1 -3 -11 1038.33 51.06
-3 2 -11 921.99 52.63
-2 -1 11 1056.1 54.34
3 -2 11 825.32 52.29
3 -2 11 1195.76 54.65
1 -3 -11 691.07 42.52
-1 -2 -11 939.86 53.92
-3 1 11 770.88 32.75
-1 3 11 1272.87 60.41
2 -3 11 1173.04 67.08
-1 -2 -11 1067.46 52.04
-3 1 11 830.56 53.48
1 -3 -11 963.33 60.66
2 1 -11 954.52 54.3
-2 3 -11 901.21 51.13
1 2 11 908.71 55
2 -3 11 879.4 42.98
-2 3 -11 769.02 49.19
2 1 -11 841.75 52.03
3 -1 -11 1019.01 59.07
1 -3 -8 1392.45 56.63
2 1 -8 1655.9 62.01
1 2 8 2044.71 73.48
-1 -2 -8 1906.22 58.29
-1 3 8 2104.26 69.12
-1 3 8 1553.26 68.01
-1 -2 -8 1521.86 65.48
1 2 8 1320.32 51.43
-3 2 -8 1820.98 67.3
-3 1 8 1505.32 62.54
-2 3 -8 1365.37 51.11
2 -3 8 1255.67 43
-3 1 8 1626.51 52.97
3 -2 8 1558.31 62.1
2 -3 8 2619.07 84.57
-2 3 -8 1700.21 65.02
3 -2 8 1981.4 61.16
-1 -2 -8 2377.18 66.48
-3 1 8 2235.31 55.09
-1 3 8 1953.65 59.56
3 -1 -8 1512.27 55.4
1 -3 -8 2163.92 61.82
-2 -1 8 1614.02 30.55
1 -3 -8 2149.76 58.57
2 1 -8 1654.11 58.97
-2 -1 8 1476.47 58.87
-1 3 5 523.67 21.03
-1 -2 -5 576.39 25.85
3 -2 5 439.84 20.51
-2 -1 5 408.05 24.83
-3 1 5 409.05 27.17
2 -3 5 442.31 30.08
1 -3 -5 616.68 23.08
1 2 5 416.93 21.21
-2 3 -5 265.56 21.4
-2 3 -5 348.82 26.62
3 -1 -5 474.82 24.31
3 -2 5 467.31 25.9
2 1 -5 436.93 25.66
-1 -2 -5 479.52 32.57
-1 -2 -5 518.24 19.29
1 2 5 495.88 28.38
-2 3 -5 550.46 23.27
1 -3 -5 432.16 28.67
-1 3 5 449.69 31.66
-3 2 -5 439.6 26.72
-2 -1 5 308.63 26.89
2 -3 5 396.8 17.39
-1 3 5 565.44 33.81
1 -3 -5 481.44 19.33
2 -3 5 561.42 27.67
-2 -1 2 130.5 7.46
-1 -2 -2 139.64 6.47
-1 3 2 111.8 11.56
-2 3 -2 123.79 11.76
1 -3 -2 129.78 13.99
2 1 -2 137.08 7.53
3 -2 2 253.49 10.37
-1 -2 -2 144 12.93
-2 3 -2 124.65 7.1
-3 1 2 139.59 9.23
1 2 2 137.83 6.81
-3 2 -2 151.46 8.65
1 2 2 140.5 6.32
2 -3 2 122.05 7.73
2 1 -2 144.52 10.29
-3 2 -2 224.76 11.62
-1 3 2 131.23 8.56
-2 -1 2 147.04 7.76
2 -3 2 132.52 10.56
3 -2 2 122.42 8.8
-1 -2 -2 138.51 15.1
-2 -1 2 168.15 15.14
3 -1 -2 132.4 8.3
3 -2 2 266.23 10.69
-2 3 -2 143.39 10.91
-1 -2 -2 147.39 8.02
2 -3 2 134.6 6.97
-3 1 2 114.42 9.66
2 -3 2 107.66 11.3
1 -3 1 40.57 6.76
-3 1 -1 21.75 3.18
1 2 -1 24.44 3.78
-1 3 -1 30.07 4.88
-2 3 1 31.73 2.75
-1 3 -1 31.89 5.04
-1 -2 1 28.05 6.13
1 -3 1 32.54 5.21
1 -3 1 26.38 3.49
-3 2 1 36.12 4.43
2 1 1 32.79 3.69
2 -3 -1 30.06 5.04
1 2 -1 30.73 2.25
-2 3 1 25.49 4.27
1 -3 1 30.13 4.28
-1 -2 1 23.57 3.2
-2 -1 -1 27.1 3.63
2 -3 -1 34.01 2.91
-2 3 1 43.17 4.98
-1 -2 1 25.76 1.96
3 -2 -1 27.42 3.52
-1 -2 1 28.3 3.85
2 -3 -1 35.17 6.86
3 -1 1 30.78 4.1
-3 2 1 27.42 4.13
-1 3 -1 27.27 4.36
2 -3 -4 6780.27 106.83
-2 -1 -4 5808.13 104.29
3 -2 -4 5242.12 67.31
1 2 -4 5913.83 72.79
-2 3 4 5256.36 59.73
1 -3 4 6836.45 72.29
-1 3 -4 5988.98 65.61
-2 -1 -4 6108.84 61.89
-1 3 -4 7056.49 74.49
1 -3 4 7311.44 118.15
2 -3 -4 6181.32 59.03
-3 1 -4 6402.26 91.07
-1 -2 4 6176.04 72.94
1 -3 4 7359.91 87.78
-1 -2 4 6358.31 79.92
-1 3 -4 5822.1 90.69
-2 3 4 5490.16 93.15
1 -3 4 7638.1 145.08
-3 2 4 4897.21 89.36
-3 1 -4 6479.35 49.93
1 2 -4 5813.1 90.31
-1 -2 4 5588.41 79.95
3 -1 4 5541.02 70.05
2 1 4 6683.82 67.23
3 -1 7 311.12 24.68
1 2 -7 363.93 27.94
-2 3 7 328.8 21.29
1 2 -7 304.72 22.93
2 -3 -7 269.9 18.98
-2 -1 -7 361.24 22.84
-3 2 7 270.22 25.08
-2 3 7 405.36 29.43
-2 3 7 237.71 24.36
3 -1 7 270.59 21.32
3 -2 -7 306.71 22.17
-1 3 -7 242.14 19.63
-3 2 7 451.74 27.12
-2 -1 -7 355.08 25.7
-1 -2 7 298.82 24.75
2 -3 -7 275.74 23.4
2 1 7 325.84 23.8
1 -3 7 298.05 21.98
1 -3 7 415.47 32.01
2 1 7 301.57 24.34
-3 2 7 293.68 20.58
-3 1 -7 374.61 27.79
-1 3 -7 261.02 23.21
-3 1 -7 301.99 28.51
-2 -1 -7 277.92 23.73
2 1 10 115.85 18.05
-1 -2 10 96.59 15.98
-2 -1 -10 76.26 14.08
-3 2 10 122.85 15.12
2 -3 -10 110.28 15.72
3 -1 10 122.51 17.81
-1 3 -10 118.42 17.83
1 2 -10 97.19 17.2
-2 3 10 133.74 17.69
-3 2 10 87.23 13.37
-2 3 10 87.52 17.53
-3 1 -10 153.4 20.62
-2 3 10 116.05 16.54
2 -3 -10 87.48 14.46
-2 -1 -10 79.86 14.84
-3 1 -10 131.55 19.51
3 -1 10 94.09 16.25
2 -3 -10 138.21 18.74
1 2 -10 104.09 16.34
1 -3 10 83.08 13.53
-3 2 10 106.82 19.23
3 -2 -10 100.91 15.66
2 1 10 104.66 16.44
-1 3 -10 68.48 13.81
-3 1 -13 104.64 15.92
-2 3 13 115.56 22.8
-2 -1 -13 199.48 24.91
2 -3 -13 141.68 22.74
3 -2 -13 164.55 23.57
-3 2 13 129.22 15.4
-1 -2 13 105.37 18.69
-1 3 -13 120.23 21.67
1 2 -13 146.87 23.91
-3 2 13 106.91 21.92
-3 1 -13 108.53 19.31
-2 -1 -13 125.88 19.84
2 -3 -13 186.55 24.45
1 -3 13 121.06 18.53
1 2 -13 102.75 19.75
3 -1 13 120.12 19.17
1 -3 13 194.5 30.82
-2 -1 -13 148.95 21.62
-2 3 13 220.62 28.09
-1 3 -13 131.54 21.74
-2 3 13 145.48 18.68
2 1 13 123.19 20.37
-3 2 13 132.66 20.72
2 1 16 909.32 59.36
-3 2 16 954.74 74.13
-3 1 -16 750.01 40.07
2 -3 -16 1084.91 66.99
-3 1 -16 1072.54 66.09
-2 3 16 977.56 72.85
1 -3 16 986.32 58.9
1 2 -16 925.41 69.44
3 -1 16 893.53 56.37
3 -2 -16 1109.26 69.34
-2 -1 -16 746.83 46.53
-2 -1 -16 1105.47 66.35
-1 -2 16 864.99 58.9
-1 3 -16 999.32 69.03
2 -3 -19 5.34 4.45
-1 3 -19 5.5 6.37
-3 1 -19 0.66 5.03
1 -3 19 2.93 5.85
-1 -2 19 -3.3 5.14
3 -2 -19 2.13 2.21
-3 2 19 7.54 6.67
2 1 19 1.29 1.02
3 -1 19 1.88 3.43
1 2 -19 7.2 7.56
-2 3 19 13.54 10.15
-2 -1 -19 -3.43 5.72
-3 1 -22 54.27 17.32
-2 -1 -22 35.07 14.25
1 2 -22 45.37 18.59
2 -3 -22 57.91 18.45
3 -1 22 23.84 11.55
3 -2 -22 46.13 17.65
2 1 22 22.24 11.09
-1 -2 22 33.83 13.51
-1 3 -22 48.28 18.8
-3 2 22 38.5 15.44
1 -3 22 38.05 13.54
-2 3 22 49.64 18.38
0 -3 -24 656.8 64.33
3 -3 24 519.26 51.9
3 0 -21 4.15 2.67
3 -3 21 0.48 4.68
0 3 21 -0.16 4.43
0 -3 -21 -1.19 2.74
-3 3 -21 -0.3 1.31
-3 0 21 0.86 2.48
3 0 -18 51.01 16.33
-3 0 18 44.03 15.52
0 3 18 32.66 12.89
0 -3 -18 26.28 8.74
0 -3 -18 31.12 11.68
-3 3 -18 30.36 13.38
3 -3 18 44.25 12.67
0 -3 -15 -1.99 3.89
0 -3 -15 4.86 5.43
3 0 -15 3.42 3.65
3 -3 15 1.68 2.7
-3 3 -15 -2.11 2.81
0 3 15 4.92 6.04
-3 0 15 1.78 2.55
0 -3 -15 2.32 2.75
-3 3 -15 3.43 1.63
-3 0 12 1860.59 72.54
0 -3 -12 2089.12 74.88
-3 3 -12 1550.3 72.74
0 -3 -12 1093.29 59
-3 0 12 1332.24 35.38
3 -3 12 1903.14 66.58
3 0 -12 1693.9 77.62
3 -3 12 2177.58 96.06
-3 0 12 1388.55 70.3
-3 3 -12 1538.85 43.26
3 0 -12 1657.02 74.36
0 3 12 1593.95 78.99
3 0 -9 0.87 2.24
-3 0 9 1.47 1.58
0 -3 -9 0.37 1.31
0 -3 -9 0.54 0.94
3 -3 9 -1.32 3.17
0 -3 -9 0.99 1.53
-3 0 9 8.56 4.83
3 0 -9 -1.3 2.91
-3 3 -9 4 2.53
0 3 9 1.44 3.04
0 3 9 1.97 2.18
0 -3 -6 26.59 5.24
0 -3 -6 30.78 5.71
3 -3 6 37.53 9.94
0 3 6 31.62 8.69
3 -3 6 52.12 10.13
-3 3 -6 32.24 9.9
-3 0 6 22.81 6.97
0 3 6 25.8 7.4
0 -3 -6 23.59 7.66
3 0 -6 22.15 6.29
0 3 3 1.47 0.96
0 -3 -3 0.91 0.55
-3 3 -3 70.18 8.21
3 -3 3 56.9 7.06
0 -3 -3 0.32 0.73
-3 0 3 17.36 2.62
3 -3 3 2.45 2.6
3 0 -3 1.38 1.74
0 3 3 3 2.4
-3 0 3 7.25 2.94
0 -3 -3 0.96 0.56
0 3 3 5.56 1.2
-3 3 -3 47.84 8.18
3 -3 0 5340.1 50.06
3 -3 0 4486.29 58.22
0 3 0 5244.27 61.38
0 3 0 3989.21 40.06
-3 3 0 5131.77 49.64
0 -3 0 5438.7 56.07
-3 0 0 5432.62 32.55
3 0 0 5016.04 52.6
-3 3 0 4963.99 45.96
3 -3 0 5450.58 45.77
-3 0 0 4513.57 44.76
-3 3 0 4699.59 45.04
3 0 0 5193.02 45.77
0 -3 0 4771.93 47.02
0 -3 0 4299.51 82.95
-3 0 -3 0.77 1.51
0 3 -3 0.73 0.61
3 0 3 0.11 0.62
-3 3 3 0.5 0.7
3 -3 -3 0.5 0.34
0 3 -3 1.21 2.01
-3 3 3 0.29 0.87
0 -3 3 0.77 1.72
0 3 -3 0.57 1.2
0 -3 3 4.48 2.53
0 -3 3 0.61 0.08
0 3 -6 840.25 39.24
0 -3 6 767.95 20.57
3 0 6 663.71 29.9
-3 0 -6 752.31 43.54
0 3 -6 714.05 30.79
-3 3 6 924.42 42.37
0 -3 6 696.12 47.93
-3 0 -6 822.78 32.16
-3 3 6 475.07 23.7
0 -3 6 843.71 36.52
3 -3 -6 623.15 26.74
-3 3 6 649.5 36.89
-3 3 9 0.12 0.56
-3 0 -9 1.49 2.24
3 0 9 0.59 1.85
-3 3 9 -1.02 1.89
0 -3 9 0.98 0.86
0 3 -9 -0.79 2.37
3 -3 -9 3.32 3.22
0 3 -9 -0.7 1.23
-3 3 9 2.14 1.55
3 0 9 0.18 2.05
0 -3 12 5749.87 155.19
3 0 12 5078.99 123.32
3 -3 -12 4406.77 111.74
0 -3 12 3903.19 106.39
0 3 -12 5433.84 136.31
-3 0 -12 6235.35 134.62
-3 3 12 4078.09 131.71
-3 0 -12 3739.19 101.85
3 0 12 3977.02 114.19
-3 3 12 3861.49 96.84
0 3 -12 4258.65 122.89
-3 0 -12 5035.77 124.89
-3 3 12 5232.63 121.33
0 -3 15 9.48 4.71
3 0 15 -0.73 0.41
-3 3 15 0.91 4.73
-3 3 15 3.37 3.41
-3 0 -15 1.51 4.31
0 3 -15 1.17 3.71
-3 0 -15 6.52 6.58
3 -3 -15 3.52 5.18
0 3 -18 468.82 53.97
-3 0 -18 309.09 27.91
-3 0 -18 454.81 45.64
0 -3 18 387.01 38.48
3 0 18 410.5 40.25
3 -3 -18 535.41 50.42
-3 3 18 429.22 53.73
-3 3 21 7.03 8.28
0 -3 21 -1.1 4.42
0 3 -21 0.6 4.86
3 0 21 -3.07 5.45
3 -3 -21 6.26 3.06
-3 0 -21 2.92 6.91
3 -3 -24 823.67 73.68
0 -3 24 561.29 51.79
2 -4 0 29.94 5.48
-2 4 0 33.06 3.48
2 -4 0 20.54 7.21
4 -2 0 13.67 3.15
4 -2 0 13.72 3.07
2 2 0 12.19 2.06
-2 -2 0 16.37 2.77
-4 2 0 12.61 2.68
2 -4 0 15.96 3.68
-2 4 0 35.67 5.93
-2 4 0 14.72 3.32
2 2 0 12.9 2.82
-2 4 0 11.05 2.35
-2 4 -3 5895.13 98.28
-2 -2 -3 6406.91 101.05
-2 4 -3 7672.64 97.15
2 -4 3 8276.49 60.57
2 2 3 8109.34 63.97
2 -4 3 7847.65 80.74
-2 4 -3 7474.67 71.86
4 -2 -3 7860.29 69.27
-2 -2 3 9689.57 114.41
-2 4 3 6624.34 45.27
2 -4 -3 7529.95 118.92
-2 4 -3 6899.97 104.19
2 -4 -3 6917.23 108.64
2 2 3 6645.95 44.27
2 -4 3 7941.21 96.2
2 2 -3 6784.2 86.95
2 2 -3 7984.26 75.2
2 -4 -3 7493.74 37.11
2 2 3 7204.46 95.48
-4 2 3 6277.25 88.95
-4 2 -3 7630.22 79.76
4 -2 3 6980.82 77.77
-2 -2 -3 8429.23 66.5
-2 4 -3 7392.57 97.57
4 -2 3 8580.64 60.46
-2 4 3 6362.13 102.74
-2 -2 3 7437.11 73.4
2 -4 3 6657.56 104.79
2 2 6 2119.29 49.77
-4 2 6 2037.14 67.78
2 2 -6 1143.35 46.82
2 -4 6 3104.42 131.33
2 -4 6 2430.28 56.44
2 2 6 2129.97 60.99
-2 -2 -6 1989.74 30.13
-2 4 -6 1964.39 46.6
2 -4 -6 1728.06 62.25
4 -2 -6 1884.72 51.57
-2 -2 6 1585.14 53.95
-2 4 6 1848.07 42.68
-4 2 -6 2319.58 65.7
2 2 -6 2136.83 57.81
2 -4 -6 2158.79 44.05
-2 -2 -6 2038.69 69.67
-2 4 6 1889.11 69.12
-2 4 -6 2709.06 53.17
4 -2 6 1457.03 47.01
2 -4 6 2501.77 60.62
-4 2 6 2466.28 56.96
-2 -2 -6 2296.34 44.23
2 -4 6 2409.09 107.8
-2 4 6 3055.43 88.65
-2 4 -6 1593.45 59.26
-2 -2 6 1917.21 58.57
-2 -2 -9 2003.1 78.83
-4 2 9 2222.46 64.7
2 -4 9 1876.08 58.33
-2 -2 9 2037.87 73.26
-2 -2 9 1138.72 74.28
2 2 -9 2063.37 75.66
2 2 9 1816.53 69.55
-2 4 -9 1387.4 54.6
-2 4 9 2643.92 87.78
4 -2 -9 2300.5 71.33
-2 4 9 2554.44 69.7
-2 4 9 1810.47 78.27
-4 2 -9 1481.53 69.24
-4 2 -9 1394.28 60.76
2 -4 -9 2265.39 62.08
2 -4 -9 3154.64 78.32
-4 2 -9 2147.51 72.25
-2 -2 -9 2456.27 64.69
2 -4 9 2589.53 84.01
2 2 9 2027.63 67.15
4 -2 9 1731.73 65.3
4 -2 9 2180.49 64.9
-2 4 -9 1541.77 34.38
-2 4 -9 1983.41 74.73
2 2 -9 2390.04 73.01
-4 2 9 1879.92 76.6
-2 -2 -9 2392.5 74.83
2 -4 -9 1661.5 66.79
-4 2 9 2514.52 67.93
-2 -2 12 275.36 29.34
-4 2 -12 276.97 30.46
4 -2 -12 289.68 29.78
2 -4 12 467.54 43.78
-2 -2 -12 387.54 33.75
-2 4 -12 298.83 32.7
-2 4 12 352.51 32.56
2 2 12 323.82 33.5
2 -4 -12 302.44 27.83
-2 -2 -12 415.05 31.91
-4 2 12 249.62 25.35
-4 2 12 264.01 33.03
2 2 -12 338.88 33
4 -2 12 179.1 24.99
2 2 -12 299.61 33.14
4 -2 12 323.87 28.8
2 -4 -12 234.26 27.02
2 -4 12 300.35 26.37
-4 2 -12 406.33 36.15
-2 4 -12 346.54 33.01
-4 2 12 408.6 28.09
-2 4 12 271.38 33.89
-2 -2 -12 323.85 34.74
4 -2 15 135.84 20.29
-4 2 15 133.31 26.98
-4 2 -15 167.68 20
2 -4 15 160.06 21.2
-2 -2 15 120.27 20.77
2 2 -15 147.47 25.85
-2 4 -15 127.87 22.73
2 -4 -15 219.84 29.2
-2 4 -15 182.4 28.09
-2 -2 -15 218.15 28.28
-2 4 15 161.64 28.79
2 -4 -15 189.28 25.64
2 2 15 153.31 24.67
-2 -2 -15 130.34 22
4 -2 -15 178.26 26.99
2 -4 -15 103.31 18.55
-4 2 15 205.75 19.22
-4 2 -15 177.87 26.08
-2 4 15 203 29.59
-2 4 -18 45.48 15.4
4 -2 18 40.65 11.74
-2 -2 18 49.11 14.81
-2 -2 -18 55.6 15.13
-2 -2 -18 41.21 11.4
-4 2 -18 60.72 16.17
4 -2 -18 58.52 17.75
2 -4 -18 66.34 17.58
-2 4 18 46.71 17.34
2 2 -18 82 21.9
2 2 18 60.83 15.94
-4 2 18 61.16 19.95
2 -4 18 65.04 14.93
-2 -2 -21 -6.83 6.44
-2 4 -21 -2.87 5.74
2 2 -21 0.96 2.64
4 -2 21 12.24 7
-2 -2 21 3.03 4.48
2 -4 21 0.66 0.71
-4 2 -21 3.08 4.75
2 2 21 3.57 5.05
2 -4 -21 -2.34 4.16
-4 2 21 -1.49 2.99
-2 4 21 2.86 6.19
4 -2 -21 1.94 1.31
4 -2 24 205.56 32.06
-2 -2 -24 284.95 43.05
3 -4 22 15.44 7.13
1 -4 -22 37.03 15.22
1 3 22 14.36 8.83
-4 3 -22 26.4 13.84
-3 -1 22 18.34 11.21
4 -1 -22 13.86 6.56
-1 -3 -22 18.17 7.66
-4 1 22 14.55 8.28
3 1 -22 34 16.96
4 -3 22 21.53 9.78
-3 4 -22 27.69 14.17
-1 4 22 29.25 13.81
3 1 -19 115.59 26.24
-1 -3 -19 112.41 23.2
1 3 19 78.09 20.1
-3 -1 19 78.58 19.52
-3 4 -19 89.96 22.05
-4 3 -19 100.72 22.42
-4 1 19 80.71 22.32
3 -4 19 80.9 17.49
1 -4 -19 104.24 21.62
-1 -3 -19 65.48 14.79
-1 4 19 68.8 19.86
4 -1 -19 96.32 23.58
4 -3 19 84.46 17.63
-1 4 16 654.6 57.36
3 1 -16 728.35 59.91
1 -4 -16 1034.61 61.22
1 3 16 699.1 56
3 -4 16 646.77 43.47
-4 3 -16 723.91 55.14
1 -4 -16 554.77 44.85
-1 -3 -16 972.23 60.74
-1 -3 -16 541.17 45.4
1 -4 -16 1064.42 64.85
4 -3 16 576.42 41.82
-4 1 16 658.34 58.79
4 -1 -16 730.28 58.13
-4 1 16 840.58 30.05
-3 -1 16 474.45 44.99
-3 4 -16 624.57 52.52
-4 3 -16 609.55 31.13
-3 4 -13 685.36 50.49
-4 3 -13 760.12 51.52
1 -4 -13 1058.46 56.55
-3 -1 13 647.48 47.89
-1 4 13 728.43 56.56
4 -3 13 901.5 47.77
1 -4 -13 583.53 43.81
-4 1 13 907.5 35.97
-1 -3 -13 934.65 52.11
-1 -3 -13 1012.39 51.51
-4 1 13 624.09 51.34
3 1 -13 793.54 55.14
1 3 13 744.28 53.86
3 -4 13 789.14 42.21
-1 4 13 845.27 51.96
-3 4 -13 860.77 50.24
-1 -3 -13 788.73 55.12
-3 4 -13 694.32 19.72
-3 4 -13 485.26 18.14
3 -4 13 1279.69 75.09
-4 3 -13 645.33 32.9
4 -1 -13 747.51 51.81
1 -4 -10 112.87 15.04
-4 1 10 100.74 12.43
-3 4 -10 64.56 13.59
1 3 10 105.14 21.22
-1 4 10 76.9 13.66
-1 4 10 86.68 17.82
4 -3 10 83.99 13.26
-1 -3 -10 85.13 13.79
-3 4 -10 75.94 12.48
-3 -1 10 82.94 8.41
3 -4 10 72.37 10.88
1 3 10 89.31 17.18
-4 1 10 69.21 14.22
-4 1 10 62.03 11.32
1 -4 -10 98.24 14.14
-3 -1 10 59.22 13.42
3 1 -10 62.84 13.48
3 1 -10 90.74 15.74
-1 -3 -10 96.79 13.53
1 -4 -10 60.79 13.86
-1 -3 -10 80.08 17.24
4 -3 10 89.82 16.91
4 -3 10 62.39 13.86
-4 3 -10 98.82 17.46
4 -1 -10 61.22 12.8
3 1 -7 2844.91 74.29
-1 -3 -7 2631.43 92.81
3 1 -7 2775.63 75.91
1 3 7 3030.45 96.08
4 -3 7 2911.86 63.17
-3 -1 7 2357.49 71.25
-1 4 7 3133.6 91.4
-1 4 7 2491.12 58.1
4 -1 -7 2115.57 62.02
-4 1 7 2413.84 75.42
-1 -3 -7 3151.3 71.12
4 -3 7 3552.24 84.4
1 -4 -7 3024.33 59.46
1 3 7 2191.64 58.71
1 -4 -7 2279.84 79.21
-3 4 -7 2112.18 69.46
3 -4 7 2281.81 47.82
3 -4 7 2594.81 83.46
-3 4 -7 2439.36 81.29
-1 -3 -7 3009.97 54.45
-1 -3 -7 2476.68 42.29
1 3 7 2545.36 79.85
1 -4 -7 3454.76 65.72
-3 -1 7 1964.58 75.13
-4 3 -7 2264.71 70.47
3 -4 7 3205.05 74.79
-3 4 -7 2841.62 58.67
-1 4 7 2170.84 80.02
4 -3 7 2529.16 73.8
-4 3 -7 2649.08 78.27
-1 -3 -4 1091.61 53.16
1 3 4 1165.92 48.55
-4 3 -4 977.02 27.58
-1 -3 -4 1154.3 26.25
-4 1 4 884.25 35.95
-1 -3 -4 1025.36 20.66
-1 4 4 910.89 43.41
3 -4 4 876.11 26.06
1 -4 -4 956.46 16.74
-4 3 -4 1247.6 35.53
-3 4 -4 1018.22 31.45
-3 4 -4 1185.12 39.23
3 -4 4 1554.42 65.86
1 -4 -4 1014.16 28.16
4 -3 4 980.74 34.16
-3 -1 4 917.15 25.75
3 -4 4 1102.47 45.19
1 3 4 1044.67 23.1
3 -4 4 1221.09 37.29
-3 4 -4 1139.81 45.63
3 1 -4 1037.33 36.22
4 -3 4 1111.97 51.07
3 -4 4 1009.08 19.41
1 -4 -4 934.78 45.82
4 -1 -4 1011.84 33.96
4 -1 -1 3736.8 51.72
4 -3 1 3458.59 48.75
-3 4 -1 3222.32 50.68
3 -4 1 3337.82 47.47
3 1 -1 3432.6 48.13
-3 4 -1 3380.71 46.29
4 -1 -1 3426.67 46.78
1 -4 -1 3079.95 75.06
3 1 -1 3445.66 37.15
-3 -1 1 3287.2 38.52
3 1 -1 3610.71 40.93
4 -3 1 4261.19 49.39
-4 3 -1 4023.4 30.52
-1 -3 -1 3718.17 38.51
1 3 1 3509.01 44.55
3 1 -1 2518.42 48.3
3 -4 1 3202.27 49.65
-3 4 -1 3790.58 41.66
1 3 1 3534.52 38.52
-1 4 1 3734.92 52.81
1 3 1 3555.81 48.2
4 -3 1 4117.87 48
3 -4 1 3405.56 38.69
4 -3 1 4427.3 60.3
-1 -3 -1 3600.49 57.66
-1 -3 -1 3276.19 83.1
-4 1 1 3608.14 47.07
-4 3 -1 2630.53 40.12
-4 1 -2 1512.24 33.8
1 3 -2 1416.17 36.9
-4 3 2 1928.46 29.09
-3 4 2 1631.61 42.67
-3 -1 -2 2013.89 36.21
-4 3 2 1854.42 38.04
1 -4 2 1620.94 33.17
3 -4 -2 1651.05 25.41
4 -3 -2 1674.42 31.52
-1 -3 2 1700.4 34.52
-3 -1 -2 1807.45 39.2
-4 3 2 1622.41 22.11
-1 -3 2 1880.71 38.64
4 -1 2 1842.9 37.41
-3 4 2 1560.15 17.58
-1 4 -2 1959.57 55.42
1 -4 2 836.15 33.51
-4 3 2 1483.71 40.56
-1 -3 2 1583.09 16.71
3 -4 -2 1738.76 45.43
-1 4 -2 1935.54 49.52
-1 -3 2 1806.34 55.37
4 -1 2 1886.45 23.17
-3 4 2 1777.97 31.71
-1 -3 2 1574.87 40.58
-1 4 -2 1698.06 40.67
4 -3 -2 2019.47 55.12
1 -4 2 2075.01 54.2
1 -4 2 1858.33 40.14
3 1 2 1998.1 35.14
-4 1 -5 744.66 14.68
-1 -3 5 899.08 35.63
-1 4 -5 788.09 30.6
-3 -1 -5 941.4 28.17
3 -4 -5 971.74 44.97
4 -1 5 964.29 32.45
1 -4 5 1439.12 58.82
-3 4 5 921.08 42.9
1 -4 5 1158.49 34.46
-1 4 -5 876.34 38.62
1 -4 5 1231.85 33.27
-1 4 -5 1083.47 32.16
-4 3 5 1007.25 31.81
1 -4 5 1053.07 45.81
-1 -3 5 1583.15 85.51
1 3 -5 1139.94 35.24
-3 -1 -5 879.03 43.91
3 1 5 899.5 28.38
-3 4 5 1100.08 30.36
-4 3 5 906 43.78
3 -4 -5 931.57 25.34
-1 -3 5 849.1 31.65
4 -3 -5 1230.51 35.71
-4 1 -5 912.17 38.91
-3 4 5 1458.79 57.34
1 -4 5 1059.98 35.04
1 3 -5 956.75 41.93
4 -3 -8 48.1 9.18
-4 1 -8 62.44 11.73
3 1 8 51.73 10.75
1 3 -8 62.53 10.91
3 -4 -8 38.64 9.86
-3 4 8 45.33 8.15
4 -1 8 40.45 8.47
-3 4 8 79.4 14.67
4 -1 8 47.45 9.7
-1 4 -8 46.47 10.49
-4 3 8 54.47 9.59
-3 4 8 60.78 13.2
-1 -3 8 53.49 10.88
1 -4 8 72.16 13.7
3 -4 -8 52.48 8.89
-4 3 8 59.97 11.16
-4 1 -8 51.28 12.09
1 -4 8 62.12 11.45
1 -4 8 38.12 16.4
1 3 -8 55.47 11.91
3 1 8 53.97 10.39
-3 -1 -8 53.92 10.68
-3 -1 -8 54.49 11.47
-3 -1 -8 80.92 11.25
-4 3 8 57.38 12.88
-1 4 -8 56.75 10.04
-1 -3 8 63.39 17.63
-1 4 -8 57.5 6.1
-1 -3 11 22.62 11.46
-3 4 11 49.26 11.01
3 1 11 34.63 9.72
4 -1 11 46.72 13.78
1 -4 11 55.88 14.92
-1 4 -11 49.78 11.54
-3 4 11 30 10.42
3 1 11 35.24 10.1
-3 -1 -11 55.8 12.66
-3 4 11 14.45 6.44
1 3 -11 42.92 12.47
-1 -3 11 38.61 10.08
-4 3 11 32.09 8.53
-3 -1 -11 67.3 12.64
4 -3 -11 39.24 12.07
-4 3 11 45.43 10.35
-1 -3 11 50.69 12.49
-1 4 -11 31.22 9.86
-4 1 -11 41.02 11.45
4 -3 -11 28.93 8.35
1 -4 11 37.17 9.64
1 3 -11 45.04 11.11
3 -4 -11 62.78 15.93
-4 1 -11 61.86 12.97
-4 3 11 40.54 12.57
4 -1 11 42.55 10.07
-1 4 -11 51.32 13.97
-3 -1 -11 34.35 10.62
4 -1 11 37.95 10.51
3 1 11 55.38 15.67
3 -4 -11 32.2 8.43
4 -1 14 659.23 44.74
3 -4 -14 1032.05 62.5
4 -3 -14 760.01 51.57
-3 4 14 610.8 56.3
-4 3 14 706.73 41.21
-1 4 -14 866.41 59.9
-4 1 -14 679.9 49.89
3 -4 -14 898.05 53.58
-1 4 -14 602.33 50.39
-4 1 -14 582.23 40.44
1 -4 14 641.73 43.33
-4 3 14 659.36 58.84
-1 -3 14 584.83 43.92
3 1 14 649.71 47.88
-3 -1 -14 826.36 53.62
1 3 -14 731.6 57.76
-3 -1 -14 583.77 46.63
-3 4 14 937.83 59.25
-3 -1 -17 15.6 7.43
1 3 -17 11.03 7.56
3 1 17 8.68 6.98
-1 -3 17 13.67 7.18
1 -4 17 9.34 5.97
-4 1 -17 8.88 3.92
-1 4 -17 16.7 9.06
-3 4 17 16.42 10.63
3 -4 -17 17.22 7.73
-4 1 -17 10.4 6.55
-4 3 17 25.2 13
4 -3 -17 27.13 11.39
-3 -1 -17 13.99 8.51
4 -1 17 10.21 6.98
-1 -3 20 93.17 19.66
1 -4 20 95.23 18.6
-1 -3 20 63.72 19.12
-1 4 -20 85.07 23.18
-4 3 20 108.3 29.97
-3 -1 -20 77.98 20.32
3 1 20 90.8 20.26
1 3 -20 112.05 26.86
3 -4 -20 141.35 26.68
4 -1 20 84 18.6
-3 4 20 132.6 31.77
4 -3 -20 144.26 27.78
-4 1 -20 109.54 23.87
3 1 23 16.71 10.46
3 -4 -23 7.3 3.73
4 -1 23 2.93 3.93
-3 -1 -23 20.25 12.5
-4 1 -23 1.39 4.67
-1 -3 23 -0.07 3.55
4 -3 -23 7.78 7.75
1 -4 23 1.5 3.96
0 -4 -23 -3.16 3.44
4 -4 23 6.91 6.21
-4 4 -20 257.6 37.6
4 -4 20 231.84 29.18
0 4 20 259.71 38.08
0 -4 -20 297.93 38.32
4 0 -20 339.97 46.38
-4 0 20 228.12 36.09
4 -4 17 -0.23 1.97
-4 0 17 0.58 3.68
-4 4 -17 7.89 7.04
0 4 17 2.76 2.32
0 -4 -17 -0.38 1.65
0 -4 -17 -2.02 1.11
4 0 -17 0.28 1.48
0 4 14 62.39 16.15
-4 4 -14 61.86 15.7
4 0 -14 74.93 17.29
4 -4 14 62.57 12.56
0 -4 -14 75.39 14.33
-4 0 14 74.97 8.32
-4 0 14 40.56 12.5
0 -4 -14 32.61 10.51
0 -4 -14 52.34 14.51
-4 4 -14 65.86 9.25
0 -4 -11 3.05 3.94
-4 0 11 10.08 4.94
4 -4 11 2.93 0.87
0 -4 -11 13.43 5.05
4 0 -11 1.34 2.82
4 0 -11 1.85 2.97
-4 0 11 1.62 2.2
-4 4 -11 0.64 1.05
-4 4 -11 3.78 4.93
4 -4 11 0.22 0.71
0 -4 -11 0.27 0.22
-4 0 11 2.26 2.09
0 4 11 4.67 5.38
0 -4 -8 2043.12 52.9
0 -4 -8 1290.64 35.6
4 0 -8 1342.08 55.03
-4 4 -8 1648.49 66.61
4 -4 8 1652.53 47.33
-4 0 8 1451.36 60.57
0 -4 -8 1817.63 45.77
0 4 8 1532.87 69.43
-4 4 -8 1443.34 62.28
4 -4 8 1520.14 63.94
0 -4 -8 1632.85 75.2
-4 0 5 0.32 0.13
0 -4 -5 0.83 1.14
-4 4 -5 5.03 2.89
4 -4 5 0.75 2.87
0 4 5 -0.08 0.35
4 -4 5 0.63 0.81
-4 0 5 0.16 1.64
-4 4 -5 12.74 3.5
0 4 5 0.25 0.91
0 -4 -5 1.94 1.59
4 -4 5 1.57 3.26
4 -4 5 8.46 4.91
4 0 -5 0.54 0.85
0 -4 -5 5.21 3.76
0 -4 -5 1.78 0.82
-4 4 -2 153.29 10.82
0 4 2 173.34 5.63
4 -4 2 168.38 11.73
-4 0 2 125.48 14.83
0 -4 -2 199.75 13.75
4 -4 2 212.03 10.02
4 -4 2 181.61 10.65
0 4 2 214.89 12.4
0 -4 -2 173.14 21.19
4 0 -2 190.17 12.21
-4 4 -2 110.28 7.41
-4 0 2 200.48 11.68
4 -4 2 166.4 11.87
4 -4 2 204.56 15.01
4 0 -2 209.14 11.75
4 0 -2 154.78 6.79
-4 4 -2 141.51 9.17
-4 0 -1 1.66 0.96
0 -4 1 0.09 1.05
0 -4 1 1.35 1.35
-4 4 1 4.41 1.75
-4 4 1 2.16 2.27
0 4 -1 -0.51 1.15
0 4 -1 1.27 2.28
0 -4 1 -0.79 2.48
4 -4 -1 4.35 1.78
4 0 1 5.09 1.41
-4 4 1 11.26 5.3
-4 4 1 13.39 4.06
4 -4 -1 2.17 1.58
4 0 1 1.49 1.67
4 -4 -4 1067.85 20.73
-4 0 -4 960.55 29.22
0 -4 4 961.09 34.3
0 -4 4 993.3 36.18
0 4 -4 1111.82 41.44
0 4 -4 1159.1 42.54
0 -4 4 1382.32 35.19
0 -4 4 1163.58 43.2
0 -4 4 1105.73 39.97
-4 0 -4 848.31 34.62
0 4 -4 949.2 26.06
4 0 4 902.92 28.47
-4 4 4 735.58 23.31
4 -4 -4 1044.66 44.2
-4 4 4 894.97 40.71
0 -4 7 -1.42 3.69
4 -4 -7 4.01 2.08
-4 4 7 6.75 2.52
0 -4 7 0.72 1.22
4 0 7 1.02 0.45
-4 4 7 1.12 0.68
0 4 -7 0.48 0.61
-4 0 -7 -0.45 1.88
0 -4 7 -2.78 11.07
0 4 -7 0.25 1.95
-4 0 -7 -0.26 0.42
-4 4 7 0.87 1.51
0 -4 7 0.62 1.08
-4 4 10 1018.29 53.8
4 -4 -10 761.97 39.9
-4 0 -10 920.07 45.95
0 4 -10 755.45 42.54
4 0 10 622.41 38.6
0 -4 10 771.55 45.04
4 0 10 751.75 43.23
-4 4 10 690.82 50.16
-4 0 -10 853.78 48.24
-4 4 10 811.46 40.04
0 4 -10 658.18 45.32
0 -4 10 388.73 45.12
0 -4 13 10.21 6.46
-4 4 13 -1.81 3.86
0 4 -13 -2.66 3.22
4 0 13 6.76 4.75
0 -4 13 6.89 9.48
4 -4 -13 0.47 2.06
0 -4 13 -2.74 4.28
-4 4 13 -3.49 4.52
0 4 -13 -2.75 5.55
-4 0 -13 -0.57 0.32
-4 0 -13 1.79 3.27
4 0 13 -0.4 1.59
-4 0 -16 51.14 13.05
4 0 16 45.54 12.93
0 -4 16 87.86 22.22
4 -4 -16 65.82 15.77
-4 0 -16 91.84 19.13
0 4 -16 72.29 18.9
0 -4 16 61.58 14.15
-4 4 16 54.25 18.51
0 -4 19 -1.8 1.19
4 0 19 -3.08 5.36
0 4 -19 2.89 6.52
4 -4 -19 -0.83 2.67
-4 4 19 -1.57 2.9
0 -4 19 9.8 10.02
-4 0 -19 -3.99 3.77
0 -4 22 145.81 24.18
-4 0 -22 190.88 32.31
4 -4 -22 155.23 29.4
4 0 22 170.35 28.15
0 -4 22 107.94 25.55
5 -3 23 0.11 2.12
-3 -2 23 18.39 11.29
5 -2 -23 9.98 9.58
-2 -3 -23 3.06 5
-3 -2 23 2.69 5.33
3 -5 20 379.19 36.3
2 3 20 403.62 44.99
3 2 -20 449.52 54.86
5 -2 -20 478.93 52.92
2 -5 -20 504.36 47.7
-3 -2 20 230.61 34.22
-2 5 20 457.33 54.7
5 -3 20 413.81 39.72
-5 3 -20 427.02 46.54
-2 -3 -20 434.62 45.79
-3 5 -20 419.88 50.14
-3 -2 20 415.08 44.05
-5 2 20 501.21 59.14
-3 -2 17 35.12 12.97
5 -3 17 55.38 13.08
2 -5 -17 88.96 18.05
-5 3 -17 52.01 14.79
-5 2 17 58.7 17.88
2 3 17 63.53 16.95
2 -5 -17 46.51 13.25
-2 -3 -17 84.44 18.25
5 -2 -17 69.03 18.32
-5 3 -17 60.28 11.45
-3 5 -17 63.62 18.16
-2 5 17 60.4 18.58
3 -5 17 66.83 13.5
-3 -2 17 61.46 16.06
-2 -3 -17 56.35 15.19
3 2 -17 63.05 17.76
-2 -3 -14 11.85 5.41
2 -5 -14 4.73 4.33
2 -5 -14 7.36 2.26
2 3 14 10.8 5.91
-5 3 -14 0.7 0.77
-3 5 -14 14.12 5.77
-3 -2 14 6.53 5.22
-5 2 14 9.17 4.93
-2 5 14 10.92 6.31
-2 -3 -14 8.48 4.41
5 -3 14 6.07 4.4
-2 5 14 23.17 9.3
3 2 -14 4.6 3.85
2 -5 -14 10.36 5.22
5 -3 14 7.38 5.22
-3 -2 14 5.3 6.93
3 -5 14 9.9 5.43
-2 -3 -14 21.02 9.74
-3 5 -14 4.26 4.13
5 -2 -14 3.24 2.52
-2 5 14 6.31 5.98
-5 2 14 7.29 2.69
2 3 11 181.88 24.81
3 2 -11 194.93 23.31
-5 3 -11 234.07 26.33
5 -2 -11 150.78 20.16
-3 -2 11 201.09 10.22
-3 -2 11 174.98 23.39
3 -5 11 221.06 25.91
3 -5 11 211.19 20.4
2 -5 -11 173.6 18.89
2 3 11 146.87 19.9
2 3 11 229.39 32.44
-2 5 11 128.69 23.23
-3 5 -11 85.38 17.63
-3 5 -11 210.51 22.34
5 -3 11 280.71 31.05
-3 5 -11 150.59 12.38
2 -5 -11 234.85 22.93
-2 5 11 213.62 26.92
-2 -3 -11 145.49 24.65
-5 2 11 124.42 21.01
3 2 -11 126.7 20.39
-2 5 11 193.95 21.72
5 -3 11 173.07 19.35
-5 2 11 255.68 22.53
-5 2 11 213.08 22.08
5 -3 11 157.74 22.1
2 -5 -11 126.98 21
-3 -2 11 135.11 9.44
-2 -3 -11 215.81 23.36
-3 -2 11 92.77 19.38
-5 3 -11 201.13 25.29
-2 -3 -8 2453.48 91.86
-5 3 -8 2519.82 81.69
-5 2 8 2324.01 80.48
3 -5 8 4543.83 167.56
-5 3 -8 2455.08 75.27
-3 -2 8 1880.89 65.87
-2 -3 -8 2836 45
-3 5 -8 2520.94 61.02
3 2 -8 2335.8 76.53
2 3 8 2714.5 69.88
5 -3 8 3364.37 87.64
3 -5 8 2627.47 69.49
2 -5 -8 3437.33 67.63
-2 5 8 3351.54 71.4
5 -3 8 2254.5 70.97
2 3 8 2613.87 82.56
3 2 -8 2430.04 71.74
2 -5 -8 2715.22 56.93
5 -3 8 2596.68 62.97
-3 -2 8 2127.69 73.32
2 -5 -8 2201.66 81.91
-3 5 -8 1570.8 68.76
-2 -3 -8 2344.42 51.09
-2 -3 -8 3856.32 86.59
3 -5 8 1887.09 110.12
-5 3 -8 1824.95 49.28
-2 5 8 2264.08 86.38
2 3 8 3627.56 112.8
-5 2 8 3342.78 79.15
5 -2 -8 2273.44 66.75
3 -5 8 2729.93 65.78
-3 5 -8 2341.97 55.92
-2 5 5 57.99 12.01
3 -5 5 66.6 10.31
2 -5 -5 66.13 8.55
2 3 5 60.61 6.66
-3 5 -5 67.86 10.32
3 2 -5 46.5 8.65
-3 -2 5 45.12 13.58
-2 5 5 56.5 5.65
3 -5 5 68.76 13.52
-5 2 5 59.83 10.55
-2 -3 -5 61.87 13.39
-3 5 -5 69.54 12.12
-3 -2 5 56.68 7.66
-3 5 -5 56.6 11.67
3 -5 5 105.67 7.26
5 -2 -5 60.69 7.95
-5 3 -5 64.33 7.4
-2 -3 -5 68.17 6.69
5 -3 5 49.51 8.27
3 -5 5 62.3 12.47
2 -5 -5 70.19 6.13
2 3 5 64.82 12.22
3 -5 5 65.23 7.85
-5 3 -5 80.35 11.07
2 -5 -5 53.9 11.69
2 -5 -5 66.21 12.45
-3 5 -5 64.27 9.33
-3 5 -5 61.15 5.55
-2 -3 -5 68.62 6.42
3 2 -5 60.36 8.81
5 -2 -2 366.99 16.71
3 2 -2 324.54 17.87
-5 2 2 395.18 18.9
2 3 2 366.86 13.46
-3 5 -2 254.63 10.68
-2 5 2 344.58 17.7
-3 5 -2 374.26 20.69
-5 3 -2 341.86 16.42
-2 -3 -2 374.48 22.76
-2 -3 -2 337.89 28.74
3 2 -2 404.69 15.85
2 -5 -2 365.42 28.53
3 -5 2 410.32 25.54
5 -3 2 245.19 12.56
2 3 2 433.91 19.43
-2 -3 -2 347.44 14.37
-3 -2 2 371.11 15.7
3 2 -2 364.88 18.58
-3 5 -2 423.04 17.1
5 -3 2 356.87 17.96
-2 5 2 310.84 22.5
-3 -2 2 400.59 13.93
5 -2 -2 362.33 18.11
-3 5 -2 240.77 19.39
3 -5 2 380.09 12.87
3 2 -2 181.99 16.18
3 -5 2 401.88 19.94
2 3 2 370.78 14.66
-3 5 -2 382.2 21.43
-3 -2 2 387.78 17.28
-3 5 -2 415.17 27.13
3 -5 -1 135.75 9.95
2 -5 1 154.15 17.35
2 3 -1 134.65 9.84
2 3 -1 135.2 10.14
-5 3 1 143.77 9.62
3 -5 -1 134.02 8.33
3 2 1 127.78 9.09
3 -5 -1 149.23 12.87
-2 5 -1 129.27 12.17
-2 -3 1 115.17 8.66
-3 5 1 128.59 10.14
-2 -3 1 129.86 16.93
3 2 1 133.45 8.66
5 -3 -1 166.09 14.36
-2 -3 1 127.79 6.91
-2 5 -1 149.72 12.53
-3 5 1 132.57 10.92
-2 5 -1 104.82 10.7
2 -5 1 144.71 11.34
5 -3 -1 150.14 11.01
3 2 1 115.22 8.14
-3 5 1 147.56 7.57
2 3 -1 132 10.22
5 -3 -1 110.65 4.71
-2 5 -1 103.42 5.06
-2 -3 1 138.51 11.33
5 -2 1 139.47 11
3 -5 -1 129.55 16.63
-3 5 1 122.88 11.21
-3 5 1 123.95 8.15
-3 -2 -1 101.22 8.91
-5 2 -1 90.4 8.43
-2 -3 1 124.5 9.95
2 3 -1 107.1 5.77
-5 3 1 130.4 10.23
-5 3 4 5644.73 72.72
-2 -3 4 6602.73 103.41
-3 5 4 4780.51 95.9
-2 -3 4 4823.35 96.99
2 3 -4 5399.02 73.17
-2 5 -4 5540.15 101.61
-3 -2 -4 4568.85 94.97
3 2 4 5502.56 62.94
-2 5 -4 4421.32 69.64
2 3 -4 5302.85 71.69
-2 5 -4 6307.89 103.04
-2 -3 4 5041.4 72.21
3 -5 -4 5374.46 116.8
-2 -3 4 5399.44 92.67
3 2 4 5098.28 37.44
-2 5 -4 5431.61 56.43
5 -3 -4 4357.92 57.24
3 -5 -4 4988.21 40.04
2 -5 4 6253 57.88
3 2 4 5998.01 95.36
-3 -2 -4 5729.75 65.92
3 -5 -4 5258.13 103.91
-5 2 -4 5486.65 79.34
2 -5 4 6509.62 118.56
-3 5 4 5723.11 54.19
2 -5 4 5489.5 91.26
-2 5 -4 5645.04 108.95
5 -2 4 5525.35 77.43
-5 3 4 4704.59 90.29
2 -5 4 5925.57 85.03
2 3 -4 4451.62 82.64
3 -5 -7 505.13 21.88
-2 -3 7 406.16 28.48
-2 -3 7 460.88 25.14
5 -3 -7 399.59 25.53
-3 -2 -7 508.32 23.25
2 -5 7 754.72 54.83
-3 5 7 584.26 42.78
-3 -2 -7 377.1 12.61
2 -5 7 470.6 42.71
-2 5 -7 439.64 32.99
3 -5 -7 417.29 34.51
-5 3 7 474.54 35.42
-3 5 7 448.32 35.73
-2 5 -7 550.82 26.53
-5 2 -7 288.74 14.23
-5 3 7 457.88 26.01
3 2 7 496.92 26.25
2 -5 7 731.63 33.8
5 -2 7 437.46 27.28
-3 5 7 458.6 23.22
2 3 -7 514.57 30.26
2 -5 7 574.81 29.52
-5 2 -7 406.44 30.16
-2 -3 7 358.66 26.77
-2 5 -7 466.68 25.47
-2 -3 7 425.74 72.01
2 3 -7 444.63 32.15
3 2 7 629.46 42.55
-3 -2 -7 399.55 33.28
-2 -3 10 255.42 27.02
5 -2 10 314.84 32.16
-2 5 -10 147.42 21.7
3 -5 -10 273.11 24.48
5 -3 -10 154.38 18.79
2 -5 10 125.11 28.48
-5 2 -10 137.36 21.24
-3 -2 -10 198.07 25.96
3 2 10 278.64 33.38
3 -5 -10 280 33.36
-5 3 10 235.72 23.06
-2 -3 10 200.08 24.29
-5 2 -10 222.05 24.61
-5 2 -10 278.19 27.05
2 3 -10 151.94 21.71
5 -2 10 152.51 17.68
3 -5 -10 157.62 22.41
-5 3 10 171.64 24.53
2 -5 10 253.82 50.79
3 -5 -10 182.68 18.19
2 -5 10 303.08 34.88
-3 5 10 165.39 24.94
-3 5 10 165.4 18.64
5 -2 10 184.54 22.04
-2 -3 10 142.29 23.32
-2 5 -10 150.56 10.13
-5 3 10 218.56 21.47
-2 5 -10 239.07 30.38
-2 5 -10 325.15 27.44
3 2 10 193.64 23.51
-3 -2 -10 254.21 25.41
3 2 10 153.63 19.28
2 3 -10 239.64 24.04
2 -5 10 207.18 21.17
5 -3 -13 313.92 31.85
2 -5 13 351.39 29.48
3 2 13 299.51 32.95
2 -5 13 446.99 43.15
-5 2 -13 375.58 37.06
-2 -3 13 285.9 30.83
-3 5 13 354.94 34.29
-3 5 13 281.98 36.74
-3 -2 -13 232.34 31.15
-2 -3 13 196.18 30.69
3 -5 -13 378.58 31.86
-3 -2 -13 386.96 34.73
2 3 -13 236.31 31.05
-2 5 -13 293.91 34.11
-5 3 13 432.51 32.86
5 -2 13 349.12 30.63
2 -5 13 246.82 37.15
-2 5 -13 399.76 36.55
3 -5 -13 253.96 30.09
-3 -2 -13 471.78 34.51
5 -2 13 275.35 30.92
-3 5 13 387.7 36.66
-5 3 13 267.14 35.7
3 -5 -16 1660.73 76.32
-3 5 16 1127.09 81.05
3 2 16 1087.07 66.55
2 -5 16 641.5 58.12
-2 5 -16 1174 76.13
-2 -3 16 719.19 59.02
-3 5 16 1328.56 66.02
-5 2 -16 1169.16 57.4
-3 -2 -16 1370.55 72.39
-2 -3 16 989.23 60.69
-5 2 -16 1542.8 80.2
-5 3 16 1237.88 53.24
5 -2 16 864.5 52.65
3 -5 -16 1772.24 85.26
-3 -2 -16 985.96 64.65
5 -3 -16 1230.56 71.48
2 3 -16 911.21 70.18
-5 3 16 1050.78 81.08
2 -5 16 1102.35 55.98
3 2 19 63.83 17.13
-2 -3 19 75.38 17.88
2 -5 19 79.07 15.77
5 -2 19 57.13 14.47
3 -5 -19 95.19 20.56
-3 5 19 92.57 25.79
2 -5 19 55.27 17.43
-2 5 -19 78.12 21.7
2 3 -19 71.89 20.68
-5 3 19 63.3 21.74
-2 -3 19 52.02 15.94
-5 2 -19 89.87 20.43
-3 -2 -19 65.13 15.5
5 -3 -19 107.43 23.24
-3 -2 -19 92.76 20.25
3 2 22 5.98 5.41
2 -5 22 7.74 5.27
-2 -3 22 19.57 11.6
-5 2 -22 6.32 6.87
5 -2 22 -0.79 4.37
5 -3 -22 0.19 5.64
-3 -2 -22 5.88 5.16
-2 -3 22 2.83 0.84
3 -5 -22 5.03 6.37
-4 -1 21 62.3 17.99
-4 -1 21 124.67 25.73
-5 4 -21 126.5 26.39
-1 5 21 113.84 26
-1 -4 -21 152.56 27.92
1 -5 -21 173.43 28.1
1 4 21 97.64 23.3
4 1 -21 163.94 33.55
5 -4 21 129.34 22.04
-5 1 21 111.83 27.33
4 -5 21 126.14 21.11
5 -1 -21 165.19 33.44
-4 5 -21 138.25 28.2
-5 1 18 196.96 33.23
-4 -1 18 110.74 23.51
-4 -1 18 175.62 28.83
1 4 18 241.26 34.54
4 1 -18 169.76 31.32
-1 -4 -18 177.65 27.37
4 -5 18 212.23 25.14
1 -5 -18 199.94 29.07
-1 -4 -18 334.95 37.84
1 -5 -18 290.47 33.58
-5 4 -18 226.2 32.63
-4 5 -18 238.16 35.42
5 -1 -18 258.39 37.07
5 -4 18 228.69 26.76
-1 5 18 230.16 35.81
-1 -4 -15 606.18 44.55
-5 1 15 437.58 25.02
1 -5 -15 640.36 42.58
-5 1 15 396.43 42.69
-4 -1 15 331.69 36.58
5 -1 -15 514.9 46.85
4 1 -15 443.13 45.08
-5 4 -15 476.8 43.34
-5 4 -15 424.77 27.13
-1 -4 -15 404.04 42.52
5 -4 15 402.98 32.43
-1 -4 -15 601.82 39.08
-4 5 -15 436.33 43.04
-1 5 15 471.05 48.35
1 -5 -15 606.17 43.9
1 -5 -15 371.53 39.68
4 -5 15 509.83 34.84
1 4 15 450.83 44.69
5 -4 12 360.2 27.56
-5 1 12 462.38 27.66
4 1 -12 279.36 31.48
-4 -1 12 462.76 20.54
1 -5 -12 299.18 34.53
-4 -1 12 176.85 27.64
1 -5 -12 335.38 28.85
4 -5 12 525.33 41.41
-1 5 12 429.31 38.84
-1 -4 -12 358.08 39.94
1 -5 -12 421.62 30.26
-1 5 12 336.61 37.86
-5 1 12 308.09 33.7
4 -5 12 318.85 24.26
-4 5 -12 365.22 36.19
5 -1 -12 324.84 32.63
5 -4 12 310.7 33.33
-1 -4 -12 589.21 38.48
-4 -1 12 311.11 32.45
-5 4 -12 408.78 37.81
1 4 12 371.26 38.42
5 -4 9 654.9 41.94
-1 -4 -9 853.92 31.47
1 -5 -9 1068.78 38.18
-1 5 9 763.17 52.53
-5 4 -9 631.84 43
-5 1 9 1056.09 48.13
-1 -4 -9 696.88 26.31
4 1 -9 682.48 42.73
4 -5 9 598.22 27.28
-1 -4 -9 893.9 40.38
-1 -4 -9 778.67 56.51
4 -5 9 676.45 47.58
-4 -1 9 629.44 42.09
1 4 9 834.02 51.76
5 -4 9 850.77 37.41
-4 5 -9 728.11 47.99
-5 4 -9 724.37 45.42
1 -5 -9 1012.49 39.1
5 -1 -9 670.14 40.23
-4 -1 9 784.92 47.57
4 1 -9 837.28 45.06
1 -5 -9 709.62 51.13
4 -5 9 1021.47 88.48
1 -5 -9 650.77 28.23
-5 1 9 613.4 41.99
5 -4 9 1135.23 52.36
1 4 9 918.6 60.4
4 -5 6 272.27 18.84
-5 1 6 191.81 19.87
1 4 6 274.76 17.6
4 -5 6 309.69 25.51
1 -5 -6 172.66 10.23
1 -5 -6 217.49 26.53
-4 -1 6 191.92 19.14
1 4 6 248.86 23.85
4 -5 6 367.1 47.19
1 -5 -6 250.22 16.08
-1 -4 -6 364.88 21.04
-1 -4 -6 269.75 14.94
-5 4 -6 217.09 19.28
5 -4 6 344.55 36.68
-4 -1 6 204.76 14.95
-4 5 -6 243.62 19.98
1 4 6 307.77 29.95
-1 -4 -6 235 11.19
-4 5 -6 257.07 21.9
-5 1 6 178.55 15.59
5 -4 6 248.47 15.13
5 -4 6 216.91 18.29
5 -4 6 205.4 18.85
4 1 -6 205.49 19.53
-4 5 -6 243.29 24.4
1 -5 -6 261.86 9.83
-1 5 6 236.88 26.27
4 -5 6 295.01 13.66
4 -5 6 151.13 19.91
-5 4 -6 295.03 19.14
5 -1 -6 211.74 18.99
-1 -4 -6 247.31 29.58
-4 -1 3 469.29 16.55
-1 5 3 549.36 22.11
1 4 3 508.78 18.04
-1 -4 -3 525.34 15.95
4 1 -3 500.95 16.86
4 -5 3 456.99 17.84
1 4 3 525.91 13.78
-5 4 -3 444.3 19.66
5 -4 3 653.23 16.77
1 -5 -3 542.97 22.98
5 -4 3 467.22 19.5
-1 5 3 450.5 28.8
4 -5 3 436.33 25.64
-4 5 -3 573.09 26.52
-4 5 -3 521.39 25.29
-5 4 -3 571.73 21.26
1 4 3 529.42 28.56
4 -5 3 379.19 16.01
-4 5 -3 487.75 18.9
-1 -4 -3 533.39 22.08
1 -5 -3 467.24 35.82
-4 -1 3 550 28.85
4 -5 3 590.15 29.51
5 -4 3 496.3 22.97
-5 1 3 436.47 20.83
-1 -4 -3 501.58 39.1
4 1 -3 443.7 23.02
5 -4 3 514.02 20.82
5 -1 -3 521.69 22.21
-4 5 -3 498.53 20.44
4 1 -3 502.26 23.27
-4 -1 3 528.1 19.9
4 -5 0 1854.59 37.59
5 -4 0 2013.88 40.88
1 4 0 2021.54 36.2
1 -5 0 2111.51 43.61
-4 5 0 1956.82 33.37
-1 5 0 1637.12 33.64
1 -5 0 1868.43 63.86
-5 4 0 1478.57 38.2
5 -1 0 1450.93 36.14
-5 1 0 1835.87 37.29
-5 4 0 2082.21 40.87
4 1 0 2234.97 42.58
1 4 0 2044.99 22.89
-1 -4 0 2229 39.52
-1 -4 0 2148.14 42.98
4 -5 0 2006.21 37.08
4 1 0 1899.24 33.71
-4 5 0 2186.2 43.3
4 -5 0 1873.8 35.12
-4 5 0 2082.68 35.74
5 -4 0 2122.27 42.31
-5 1 0 2116.25 19.4
-1 5 0 1782.6 40.99
-4 5 0 1890.95 42.35
-4 -1 0 1875.13 35.15
-1 5 0 2144.44 47.65
-4 5 0 1791.56 38.01
1 4 0 2264.26 35.26
4 1 0 1910.71 39.52
5 -4 0 2249.12 32.48
4 1 0 2265.26 34.57
-1 -4 0 2022.77 72.97
1 -5 0 2208.19 45.34
-5 4 0 1912.4 37.81
5 -4 0 2700.58 59.44
5 -4 -3 74.06 7.42
-4 5 3 76.66 7.39
1 4 -3 53.63 8.74
-1 -4 3 72.68 10.06
1 -5 3 79.6 3.77
-5 4 3 79.81 9
-1 5 -3 67.8 11.11
5 -1 3 57.65 3.89
-5 4 3 89.87 7.06
4 1 3 81.64 8.15
-5 4 3 69.72 10.67
-5 4 3 89.66 6.34
1 -5 3 109.04 14.09
5 -4 -3 89.72 13.57
-1 -4 3 71.41 4.06
-1 5 -3 65.18 11.46
4 -5 -3 84.45 6.68
5 -1 3 138.46 11.77
-5 1 -3 123.14 11.36
-4 5 3 82.69 11.33
-1 5 -3 62.09 9.01
1 -5 3 72.06 8.38
4 1 3 98.23 10.14
-4 -1 -3 73.07 9.79
-1 -4 3 76.68 8.81
1 -5 3 92 12.62
4 -5 -3 93.89 12.36
-1 -4 3 74.82 8.89
-4 -1 -3 149.41 11.39
-4 5 3 75.11 4.56
-1 -4 3 69.12 12.06
1 -5 3 82.25 9.7
1 4 -6 86.26 13.59
-5 1 -6 76.43 12.32
-4 -1 -6 97.47 15.7
4 -5 -6 82.83 14.73
-1 5 -6 123.26 17.99
-4 5 6 66.6 8.34
-1 -4 6 72.82 11.16
1 -5 6 97.6 11.16
-1 -4 6 155.18 22.67
-4 5 6 85.54 14.53
-5 4 6 92.66 15.55
1 -5 6 136.1 19.05
1 -5 6 149.94 19.91
-1 -4 6 77.37 10.25
1 -5 6 89.84 14.23
-5 4 6 125.37 17.2
-1 5 -6 92.06 11.76
1 4 -6 90.42 11
4 -5 -6 94.19 6.4
4 1 6 81.63 9.57
5 -4 -6 110.4 9.5
-5 4 6 111.29 11.5
1 -5 6 102.45 11.39
-1 5 -6 91.46 10.52
5 -1 6 86.96 10.83
-1 5 -6 78.02 12.71
-4 5 6 140.69 19.97
-4 -1 -6 101.76 10.58
-4 5 9 1.29 1.64
-1 -4 9 2.88 2.78
-1 5 -9 33.01 9.95
-1 -4 9 3.32 1.41
-1 -4 9 -0.14 3.31
1 -5 9 -0.41 0.82
-1 5 -9 2.61 2.18
-1 5 -9 5.81 4.47
-4 5 9 0.15 0.98
-5 1 -9 2.5 1.81
5 -4 -9 3.3 2.32
-5 4 9 12.44 5.93
-5 4 9 3.79 2.91
4 1 9 2.99 3.41
1 -5 9 7.59 4.46
1 -5 9 3.09 3.56
4 1 9 -0.9 3.82
4 -5 -9 26.76 10.64
-4 -1 -9 1.85 3.44
1 4 -9 3.11 1.49
1 4 -9 1.88 1.22
1 -5 9 5.48 5.03
-5 4 9 8.96 5.97
-5 1 -9 -0.49 2.7
4 -5 -9 1.17 1.65
1 -5 9 -8.1 10.67
5 -1 9 7.7 4.38
5 -1 9 -0.91 3.94
-1 -4 12 554.7 42.03
1 -5 12 824.43 57.26
-4 5 12 607.73 53.02
-5 1 -12 578.83 43.47
1 4 -12 681.61 45.08
4 -5 -12 726.84 42.13
4 1 12 416.92 36.18
-4 -1 -12 857.19 52.04
1 -5 12 603.11 40.44
-1 5 -12 477.01 42.33
1 -5 12 421.43 48.13
-4 5 12 648.07 41.64
-5 4 12 598.11 38.26
4 1 12 577.62 41.77
5 -1 12 533.2 40.53
-1 5 -12 544.23 41.33
1 4 -12 493.56 44.58
5 -1 12 577.35 39.18
5 -4 -12 589.11 40.12
-4 -1 -12 589.03 38.82
-4 -1 -12 540.57 43.55
-5 4 12 573.63 51.33
-4 5 12 809.45 53.85
-1 -4 12 332.25 39.89
-5 1 -15 0.76 4.52
-4 5 15 1.63 5.27
5 -1 15 0.82 2.46
1 4 -15 1.93 2.74
4 -5 -15 14.92 7.6
-4 -1 -15 4.9 4.19
-4 -1 -15 4.93 3.26
-1 5 -15 1.13 0.64
5 -1 15 11.81 5.5
-5 4 15 8.82 6.74
-1 5 -15 0.43 3.92
5 -4 -15 4.48 3.01
4 1 15 8.91 6.75
-5 1 -15 3.23 4.62
1 -5 15 18.34 12.87
-1 -4 15 14.07 7.1
4 -5 -15 3.19 2.42
-4 5 15 2.13 2.9
1 -5 15 3.4 3.75
-5 1 -18 148.11 22.1
-1 -4 18 106.68 23.79
-1 5 -18 165.37 32.44
1 -5 18 95.55 23.29
5 -1 18 144.76 23.04
-1 -4 18 120.81 20.87
-4 -1 -18 147.5 23.83
-5 1 -18 179.98 27.88
4 1 18 134.66 23.09
1 4 -18 195.03 34.47
5 -4 -18 175.83 27.83
-4 5 18 146.05 32.85
-5 4 18 148.95 34.04
-4 -1 -18 186.1 28.71
4 -5 -18 190.02 27.67
1 -5 18 146.54 21.54
-1 -4 21 18.15 11.64
-5 4 21 13.17 10.8
4 -5 -21 17.09 9.74
1 -5 21 6.24 4.96
5 -1 21 21.04 9.25
1 -5 21 14.58 9.98
-4 5 21 29.5 17.74
5 -4 -21 12.66 8.64
1 4 -21 10.46 5.15
-1 -4 21 13.42 7.96
-4 -1 -21 8.23 4.31
-1 5 -21 21.22 14.44
-5 1 -21 11.35 8.96
4 1 21 12.04 5.92
-5 0 22 5.22 6.47
-5 0 22 15.97 8.59
5 0 -22 24.02 12.86
5 0 -19 2.65 3.23
-5 0 19 -0.4 1.67
5 -5 19 -0.59 2.84
0 -5 -19 -3.34 4.28
-5 5 -19 0.71 3.87
0 -5 -19 -0.38 1.67
0 5 19 10.2 7.48
-5 5 -16 517.05 25.03
0 -5 -16 456.38 46.46
0 -5 -16 732.08 43.57
-5 0 16 492.95 47.36
0 5 16 722.07 59.97
5 0 -16 740.26 59.6
-5 5 -16 604.36 50.46
5 -5 16 612.3 39.07
0 -5 -16 558.87 44.96
-5 0 13 2.15 3.25
0 -5 -13 0.93 4.02
0 -5 -13 2.83 1.1
5 0 -13 2.25 4.77
5 -5 13 1.98 2.2
-5 0 13 2.29 2.3
-5 5 -13 -2.97 4.83
0 5 13 3.48 4.64
0 -5 -13 2.19 2.72
5 -5 10 135.1 14.42
5 -5 10 152.46 19.9
-5 5 -10 85.62 17.39
0 -5 -10 167.88 16.77
5 0 -10 142.82 19.78
5 0 -10 105.22 17.41
-5 5 -10 118.81 19.9
0 5 10 118.25 21.4
5 -5 10 101.07 18.13
-5 0 10 127.18 17.65
-5 5 -10 152.06 21.85
-5 0 10 79.16 16.82
0 5 10 152.16 23.8
-5 0 10 96.79 17.23
0 -5 -10 120.26 12.08
0 -5 -10 89.01 10.63
0 -5 -10 157.96 26
5 -5 7 0.19 1.48
0 5 7 -0.46 1.37
0 -5 -7 0.96 1.15
-5 5 -7 6.59 3.95
5 -5 7 1.25 1.28
0 -5 -7 3.38 2
0 -5 -7 0.32 1.66
-5 5 -7 3.36 3.54
5 0 -7 0.76 1.27
5 -5 7 -0.11 2.06
-5 5 -7 6.67 3.68
0 -5 -7 2.14 0.9
5 -5 4 1664.55 34.73
0 -5 -4 1990.38 82.74
0 -5 -4 2009.38 44.68
0 -5 -4 1842.27 26.85
-5 0 4 1837.08 30.46
0 5 4 1905.2 61.53
-5 5 -4 1334.54 41.12
0 5 4 2067.69 42.47
-5 0 4 1999.77 47.11
5 0 -4 1833.5 47.33
5 -5 4 2189.4 45.34
5 -5 4 1737.05 51.22
0 5 4 1699.77 26.42
-5 5 -4 1489.05 38.56
0 -5 -1 1.04 1.13
-5 5 -1 4.13 2.3
-5 0 1 1.11 1.39
-5 5 -1 6.16 2.16
-5 5 -1 3.03 2.82
-5 5 -1 1.01 0.84
5 0 -1 1.29 1.88
-5 0 1 1.44 0.94
5 -5 1 0.58 1.14
0 5 1 0.59 1.04
5 -5 1 5.76 3.46
5 -5 1 2.02 1.45
5 -5 1 0.61 0.38
5 0 -1 -0.36 0.8
5 0 -1 0.29 0.2
5 -5 1 6.97 2.48
5 0 -1 0.83 0.59
0 5 1 2.02 1.01
-5 5 -1 1.44 0.92
0 5 1 0.52 0.28
0 -5 -1 -1.08 4.17
0 5 1 -0.22 0.28
0 -5 2 337.34 21.07
-5 0 -2 233.27 15.92
0 -5 2 247.78 14.94
0 -5 2 275.59 24.97
-5 5 2 278.21 13.79
5 0 2 332.59 10.59
0 5 -2 244.92 17.67
5 -5 -2 267.55 21.27
-5 5 2 296.63 16.8
5 -5 -2 270.82 14.1
-5 5 2 237.56 18.76
0 5 -2 268.08 25.15
-5 5 2 283.04 11.66
5 0 2 249.82 15.56
0 -5 2 261.2 16.95
5 -5 -5 0.1 0.9
5 -5 -5 1.55 1.12
-5 5 5 1.48 0.32
0 5 -5 1.8 2.48
-5 5 5 -0.29 1.3
0 5 -5 0.22 0.34
0 -5 5 -1.29 3.11
-5 0 -5 3.23 1.75
0 -5 5 2.41 2.6
5 0 5 0.63 0.89
5 -5 -5 0.06 0.75
0 -5 5 3.95 1.75
-5 0 -5 2.76 3.51
-5 5 5 2.88 2.02
0 -5 5 3.68 1.92
0 5 -5 0.6 1.51
0 -5 5 -1.03 3.78
0 5 -8 5164.74 120.12
0 -5 8 7280.97 129.61
5 0 8 4248.75 86.95
0 -5 8 4918.13 120.74
0 -5 8 3978.86 110.39
0 -5 8 5873.21 76.08
-5 0 -8 4835.09 122.07
5 -5 -8 6477.9 150.92
-5 5 8 3530.35 75.96
-5 5 8 4911.77 125.22
0 -5 8 7269.96 196.86
5 -5 -8 4446.03 80.68
0 5 -8 5820.19 101.27
-5 5 11 1.43 3.88
-5 0 -11 1.17 2.38
-5 5 11 -3.04 5.51
0 5 -11 2.97 2.82
0 5 -11 -1.89 3.14
-5 5 11 1.29 1.61
-5 0 -11 -1.54 1
5 -5 -11 8.25 3.81
5 0 11 -0.52 1.8
0 -5 11 1.29 2.93
5 0 11 -1.36 2
0 -5 11 0.71 1.57
-5 5 14 1068.47 61.63
0 5 -14 922.78 58.62
5 0 14 731.55 51.91
-5 5 14 809.36 68.27
-5 0 -14 1086.37 62.95
0 -5 14 759.05 48.56
5 0 14 811.72 51.83
0 5 -14 783.88 61.39
0 -5 14 469.48 47.12
0 -5 14 1482.26 87.58
5 -5 -14 844.44 51.2
-5 0 -14 758.04 51.72
-5 5 14 944.57 55.02
0 5 -17 0.97 4.42
0 -5 17 1.93 1.96
-5 5 17 1.29 4.29
-5 0 -17 2.28 4.87
-5 0 -17 -0.13 3.89
0 -5 17 9.67 9.82
5 -5 -17 2.19 2.32
5 0 17 -3.14 3.43
-5 0 -20 1371.61 81.24
0 -5 20 1209.75 64.86
5 0 20 1311.18 75.01
5 -5 -20 1728.3 90.07
-5 5 20 1550.14 116.32
0 5 -20 939.81 81.99
0 -5 20 784.68 61.51
-5 0 -23 -0.95 5.2
0 -5 23 -0.14 0.6
5 -5 -23 1.42 3.29
5 0 23 0.16 1.4
3 -6 0 3302.15 90.42
3 3 0 3573.08 51.72
-3 6 0 2107.85 48.06
-3 6 0 2783.76 58.78
-3 -3 0 3304.27 52.53
-3 6 0 3446.25 64.1
3 3 0 3216.87 39.28
6 -3 0 3612.17 65.5
-3 6 0 2361.94 32.36
6 -3 0 3751.42 45.87
3 -6 0 2904.6 59.64
3 3 0 3470.33 52.75
-3 -3 0 3257.33 49.06
-3 6 0 3440.93 46.05
6 -3 0 3031.04 56.01
3 -6 0 3124.6 54.33
3 3 0 3170.18 51.74
3 3 -3 75.64 11.64
-3 -3 3 396.99 19.67
6 -3 3 256.12 6.84
3 -6 -3 399.62 33.35
3 3 3 414.12 16.73
3 -6 3 474.28 14.87
3 -6 3 441.84 20.63
3 3 -3 378.25 18.05
3 -6 3 409.81 23.22
-3 -3 3 422.54 24.77
-3 -3 3 436.55 14.9
-6 3 3 403.82 23.92
-3 -3 -3 354.1 31.76
3 3 3 405.65 14.38
6 -3 -3 503.05 31.33
-3 -3 -3 456.5 19.17
-3 6 -3 469.56 28.76
-6 3 3 414.95 22.1
-3 6 3 382.34 10.56
-3 6 -3 341.97 26.69
-6 3 3 422.35 18.73
-3 -3 3 438.27 21.87
-6 3 -3 285.01 17.44
-3 6 -3 451.15 31.22
3 3 -3 395.98 22.79
-3 6 -3 410.14 16.11
-3 6 -3 344.71 23.45
3 -6 3 422.03 29.66
-3 6 3 336.36 25.39
3 3 3 446.41 22.75
6 -3 3 385.83 21.07
-3 -3 -3 374.59 25.98
3 -6 -3 371.8 11.37
-3 6 3 385.77 19.43
-3 6 3 434.88 22.24
6 -3 -3 397.66 20.52
-3 6 -3 394.89 19.43
6 -3 3 566.47 18.99
3 -6 -3 479.84 28.63
-3 6 -6 24.67 8.19
-3 6 6 27.33 4.65
3 -6 6 24.36 7.03
-3 -3 6 50.24 15.98
3 -6 -6 25.18 5.71
3 3 -6 28.69 6.23
3 3 6 25.31 5.14
-6 3 -6 21.55 3.96
-3 6 -6 29.97 7.74
-3 6 6 20.83 7.63
-3 6 -6 28.03 4.67
-3 -3 -6 25.61 4.77
-6 3 6 26.55 6.22
-6 3 6 22.91 7.39
3 3 -6 26.4 7.48
3 -6 6 27.78 5.42
-3 -3 -6 16.89 6.76
6 -3 6 29.21 6.95
3 3 6 48.73 10.58
3 -6 6 19.84 3.31
-3 -3 6 21.5 5.17
-6 3 -6 22.48 6.49
-3 6 -6 33.22 9.59
-3 6 -6 27.46 6.6
6 -3 -6 22.56 5.19
3 -6 -6 28.39 9.61
-6 3 -9 122.99 18.96
6 -3 9 165.83 21.26
-6 3 -9 74.16 9.23
-3 6 9 169.26 26.31
6 -3 9 87.14 13.71
3 3 9 130.18 16.22
-3 -3 9 81.2 14.29
-6 3 -9 155.29 19.61
-3 6 9 137.25 14.64
6 -3 -9 94.49 14.29
3 -6 -9 153.71 15.45
3 -6 9 156.48 16.73
-3 -3 -9 110.36 20.22
-3 6 -9 79.12 16.04
3 -6 -9 110.45 19.79
-3 6 -9 130.15 14.59
-3 6 -9 148.58 23.57
-6 3 9 167.89 19.43
-6 3 9 106.17 18.38
-3 -3 9 100.18 12.17
3 3 -9 109.57 17.93
-3 -3 9 85.83 15.18
6 -3 9 112.62 13.57
3 3 -9 150.83 18.65
3 -6 -9 132.32 12.63
3 3 9 163.93 24.85
3 -6 9 160.91 17.16
3 -6 -9 108.68 12.61
3 3 9 125.33 18.61
-3 -3 9 43.49 8.65
-3 -3 -9 103.69 8.61
3 -6 9 54.68 16.28
-3 6 -9 133.36 14.91
-3 6 9 101.23 19.14
-6 3 9 155.06 17.78
6 -3 -9 161.31 22.99
-3 -3 -9 173.74 19.37
3 -6 -9 125.28 21.33
-3 -3 9 137.85 18.95
-3 -3 -9 133.69 13.34
3 -6 9 179.39 29.16
-3 6 12 1720.26 85.07
3 -6 -12 1942.12 64.99
3 3 12 1432.06 65.03
-3 -3 -12 2372.56 82.56
6 -3 -12 1253.47 61.05
6 -3 12 1611.57 62.04
-3 6 -12 1237.56 70.15
-3 6 -12 1734.56 67.25
3 -6 -12 1210.13 70.27
-3 6 12 1214.41 74.4
-3 -3 -12 1424.82 80.26
3 -6 -12 2050.61 69.24
-3 6 12 1796 68.92
3 3 -12 1423 73.96
6 -3 12 1224.27 63.31
-3 -3 12 1354.06 69.28
-3 -3 -12 1237.97 34.75
3 -6 12 1012.87 76.15
3 -6 12 2035.1 78.36
-6 3 12 1311.1 73.08
3 -6 12 1481.47 57.3
-3 -3 -12 1964.27 62.45
3 3 12 1537.83 74
-3 -3 12 832.82 55.64
-6 3 -12 1147.12 62.59
-6 3 -15 10.64 4.85
3 -6 -15 12.36 5.97
-6 3 15 9.79 6.91
-3 -3 -15 7.41 2.9
-3 6 15 2.17 3.85
3 -6 15 13.45 5.73
-3 -3 15 22.05 11.87
-3 -3 15 6.13 3.67
-3 -3 -15 6.36 3.01
3 3 15 5.49 3.93
6 -3 -15 10.3 7.67
3 -6 -15 3.97 4
-3 6 -15 9.2 4.92
-6 3 -15 16.08 9.03
-3 6 15 17.62 8.51
6 -3 15 14 7.85
3 3 -15 5.74 5.61
3 -6 -15 6.59 4.26
-3 -3 -15 8.52 6.61
-3 6 15 11.42 7.68
6 -3 15 12.58 5.98
-3 6 -15 3.74 4.91
-6 3 18 8.32 3.46
3 -6 18 14.47 6.16
-3 6 18 16.14 9.58
6 -3 18 8 5.46
-3 -3 -18 12.22 6.78
-6 3 -18 19.26 10.02
3 -6 -18 20.12 9.15
6 -3 -18 20.19 9.98
-3 -3 18 26.64 11.79
-3 -3 -18 13.64 7.23
-3 6 -18 12.77 9.1
3 3 -18 20.66 11.13
-3 -3 18 12.41 7.91
3 -6 18 33.01 14.69
3 3 18 24.2 11.07
-3 -3 21 -0.02 3.25
-6 3 -21 0.17 2.31
-3 6 21 4.75 7.85
-3 6 -21 0.88 4.65
3 3 21 -5.58 6.16
-3 -3 21 4.67 6.07
6 -3 -21 -0.46 6.81
6 -3 21 9.91 6.36
-3 -3 -21 -3.5 3.8
3 3 -21 2.73 7.26
3 -6 21 8.39 8.49
-6 3 21 1.21 3.07
3 -6 -21 -2.6 5.57
-4 -2 22 58.15 17.93
6 -2 -22 110.11 26.76
-4 -2 22 94.4 22.45
6 -4 22 102.24 20.34
6 -4 19 338.06 33.73
2 -6 -19 614.73 48.34
6 -2 -19 485.65 52.1
-4 6 -19 367.13 45.26
4 -6 19 389.07 33.3
4 2 -19 459.59 53.18
-4 -2 19 243.63 33.43
-2 -4 -19 471.48 45.2
-6 4 -19 339.77 40.14
-4 -2 19 319.55 38.47
-2 6 19 334.03 46.42
2 4 19 371.51 43.37
-6 2 19 287.7 43.18
4 -6 19 229.86 36.58
-2 -4 -19 356.27 41.12
-2 6 16 102.4 23.61
6 -2 -16 147.84 25.36
-4 -2 16 62.52 16.52
-4 6 -16 127.73 24.64
-6 4 -16 117.29 21.87
2 4 16 92.2 20.66
-2 -4 -16 109.3 23.14
2 -6 -16 91.21 20.06
2 -6 -16 163.26 22.42
-2 -4 -16 122.17 20.61
4 -6 16 116.63 16.95
-6 4 -16 105.41 14.88
-2 -4 -16 94.17 12.76
4 -6 16 87 23.02
2 -6 -16 144.03 20.28
4 2 -16 104.09 22.37
6 -4 16 98.69 16.4
-6 2 16 108.8 24.02
-4 -2 16 75.17 17.38
-6 2 13 755.96 56.14
-2 -4 -13 811.73 63.14
4 2 -13 547.41 47.66
-4 -2 13 508.37 43.83
2 4 13 880.58 61.2
4 -6 13 1066.64 46.61
-2 6 13 804.86 61.98
-4 6 -13 1049.47 34
-4 6 -13 887.71 59.83
-6 4 -13 781.46 54
-4 -2 13 731.3 52.27
6 -4 13 1106.94 51.79
4 -6 13 666.24 62.15
-2 -4 -13 715.07 30.21
2 -6 -13 653.88 53.18
6 -4 13 714.97 51.24
-2 6 13 1177.42 68.66
2 -6 -13 1038.84 47.95
6 -2 -13 835.06 53.75
2 -6 -13 1259.06 53.96
4 -6 13 1286.56 65.08
-2 -4 -13 1074.74 45.98
-6 2 13 1150.31 49.3
-2 -4 -13 1199.7 57.72
2 -6 -10 647.6 48.99
4 2 -10 656.49 41.3
6 -2 -10 503.81 36.06
-4 -2 10 349.1 29.93
-2 -4 -10 594.8 27.65
-2 6 10 462.62 43.42
-4 6 -10 563.43 30.22
2 -6 -10 799.46 34.23
4 -6 10 383.51 49.59
2 4 10 600.5 45.64
4 -6 10 980.8 73.7
-2 6 10 550.79 31.34
2 -6 -10 471.44 42.93
2 4 10 533.78 35.01
-6 4 -10 420.28 37.31
6 -4 10 508.9 38.01
4 2 -10 474.99 38.94
-6 4 -10 559.27 31.63
-6 2 10 642.92 38.92
-2 -4 -10 488.43 46.96
6 -4 10 745.52 45.98
4 -6 10 689.78 38.74
2 -6 -10 649.22 31.32
-6 4 -10 543.82 40.07
-4 6 -10 463.58 40.16
-4 -2 10 523.69 40.73
6 -4 10 601.5 33.29
-2 -4 -10 941.03 45.82
4 -6 10 638.41 32.37
-2 6 10 770.65 56.47
2 -6 -10 484.99 27.05
2 4 10 728.43 54.96
-6 2 10 495.57 40.48
-2 -4 -10 525.3 22.94
6 -4 7 870.08 30.83
2 4 7 868.78 46.12
-4 6 -7 966.69 45.37
4 2 -7 688.88 39.76
-2 -4 -7 1439.88 46.79
-2 -4 -7 842.52 57.02
6 -2 -7 1041.63 39.85
-4 6 -7 1020.54 43.78
-2 -4 -7 1039.31 30.58
-6 2 7 846.71 45.54
-2 6 7 1406.92 74.5
2 4 7 1105.18 57.34
-6 2 7 974.14 40.73
-4 -2 7 564.97 85.51
4 -6 7 851.07 51.54
2 -6 -7 1153.34 26.44
-6 4 -7 742.93 29.42
-2 6 7 811.07 51.87
-4 6 -7 861.7 44.08
6 -4 7 485.28 46.84
4 -6 7 1466.24 39.3
-4 6 -7 1301.57 60.51
-4 6 -7 898.3 52.76
4 -6 7 1141.52 51.98
4 -6 7 1039.83 37.61
2 4 7 909.73 34.63
2 -6 -7 859.44 55.25
-4 -2 7 744.66 32.63
4 2 -7 993.85 43.37
6 -4 7 1013.26 42.87
-2 -4 -7 969.43 27.79
-6 4 -7 1011.33 45.11
4 -6 7 1002 69.27
2 -6 -7 922.15 34.41
6 -2 -7 899.75 41.72
2 -6 -7 828.67 20.93
6 -4 7 762.34 38.44
-4 6 -4 593.97 32.85
4 2 -4 512.02 28.06
-4 6 -4 562.37 30.59
-4 -2 4 581.71 23.15
-2 -4 -4 552.11 19.78
4 -6 4 482.4 19.23
-4 6 -4 574.75 36.41
4 -6 4 566.62 23.71
6 -4 4 606.03 22.78
-6 2 4 453.55 26.65
-4 6 -4 359.84 22.79
2 4 4 528.85 30.36
4 -6 4 570.16 32.96
-2 6 4 462.79 33.93
-4 -2 4 632.05 32.26
6 -4 4 532.91 26.25
-2 6 4 566.23 25.31
2 4 4 548.28 17.75
-4 6 -4 572.19 34.41
-4 -2 4 669.39 23.67
2 -6 -4 576.94 26.09
6 -4 4 790.27 19.89
4 2 -4 547.7 21.8
4 -6 4 530.17 35.05
-2 -4 -4 501.07 40.21
2 4 4 568.32 18.64
2 -6 -4 498.34 38.59
-4 6 -4 627.37 24.04
-6 2 4 463.33 24.59
-6 4 -4 508.43 24.61
-6 4 -4 290.27 15.85
6 -2 -4 546.13 24.47
2 4 1 369.29 15.96
-2 -4 -1 358.85 15.92
-4 6 -1 369.42 20.63
-4 6 -1 394.85 14.68
4 2 -1 377.87 19.19
-4 6 -1 382.3 16.69
-6 4 -1 348.5 17.57
2 4 1 347.98 18.06
-2 6 1 317.49 22.14
-2 -4 -1 351.99 31.76
4 -6 1 386.99 15.48
4 2 -1 372.62 18.49
6 -2 -1 306.52 17.82
4 -6 1 365.82 18.67
2 4 1 405.67 18.57
4 2 -1 387.6 15.99
-6 2 1 374.1 18.84
-4 -2 1 323.13 14.65
-4 6 -1 325.38 13.88
-2 6 1 310.67 12.73
6 -4 1 390.45 18.21
-2 -4 -1 379.29 21.19
-2 6 1 338.39 11.62
4 -6 1 317.89 19.8
-6 4 -1 238.49 8.23
-4 6 -1 375.52 17.54
6 -4 1 422.18 19.43
-2 6 1 360.39 19.85
6 -4 1 340.32 18.79
2 4 1 323.67 14.1
-4 -2 1 388.9 19.57
2 -6 -1 349.31 29.93
4 2 -1 259.77 12.58
6 -4 1 490.01 23.79
2 4 1 321.8 13.22
-4 6 -1 361.45 20.5
-4 -2 1 339.2 14.74
6 -2 -1 383.6 21.69
4 2 2 421.79 19.37
-2 -4 2 377.08 18.37
2 4 -2 391.98 20.61
-6 2 -2 341.59 18.13
-2 6 -2 422.95 25.31
2 -6 2 470.31 31.73
4 -6 -2 360.06 13.59
2 4 -2 470.21 21.2
-4 6 2 395.63 18.02
-4 -2 -2 399.37 21.6
-4 6 2 382.42 23.13
-2 -4 2 438.99 12.82
-2 6 -2 410.21 23.33
-6 4 2 429.83 21.39
2 4 -2 415.43 20.33
6 -4 -2 413.23 19.56
-2 -4 2 388.45 19.96
-2 -4 2 429.6 34.41
2 -6 2 419.63 22.14
-2 6 -2 291.45 9.94
-6 4 2 374.29 21.21
6 -2 2 453.15 22.27
-2 -4 2 544.23 27.97
-4 6 2 429.62 13.8
4 -6 -2 461.23 27.03
-2 6 -2 470.79 28.52
-4 -2 -2 442.47 20.32
-2 6 -2 521.53 35.89
-4 6 2 422.14 19.88
-4 6 2 427.58 22.35
6 -2 2 233.76 11.46
-6 4 2 344.77 12.95
-6 4 2 437.7 17.98
6 -4 -2 548 34.71
4 2 2 424.59 18.89
-2 -4 5 22.71 6.98
-2 -4 5 7.27 4.1
2 -6 5 15.44 5.65
6 -4 -5 22.53 4.46
-6 4 5 27.34 5.56
-4 6 5 26.37 4.42
-2 6 -5 23.48 7.87
-4 -2 -5 20.92 6.9
2 4 -5 19.31 4.94
2 4 -5 23.58 5.28
-2 6 -5 19.63 6.37
2 -6 5 27.91 6.68
2 4 -5 19.08 6.17
-2 -4 5 19.06 4.84
4 -6 -5 18.02 6.45
-4 6 5 22.49 7.48
-2 6 -5 24.15 6.96
4 -6 -5 28.01 3.69
-2 6 -5 27.2 4.66
2 -6 5 24.24 3.84
2 -6 5 33.1 9.23
-2 -4 5 26.07 7.62
4 2 5 20.62 4.41
-6 2 -5 15.62 4.4
-4 -2 -5 21.65 4.59
-6 4 5 18.49 6.52
4 -6 -5 19.92 7.86
4 2 5 18.76 5.84
6 -2 5 20.78 5.7
-6 2 -8 524.51 16.86
-6 2 -8 1025.28 46.12
-6 4 8 801.4 49.82
-2 6 -8 763.28 35.99
6 -4 -8 1031.47 59.13
2 4 -8 954.16 43.7
-2 6 -8 832.28 48.92
4 -6 -8 750.98 49.35
2 -6 8 1248.71 67.8
4 -6 -8 990.55 58.23
-4 6 8 1364 71.64
6 -4 -8 684.06 30.05
2 4 -8 780.73 46.88
-2 -4 8 1063.89 87.01
-2 6 -8 1048.24 39.55
-2 -4 8 642.89 31.38
4 2 8 758.37 34.97
-4 6 8 930.76 36
4 -6 -8 816.97 28.77
-4 6 8 808.87 50.96
-4 -2 -8 496.73 13.97
-2 6 -8 1107.36 61.64
-2 -4 8 607.27 37.48
2 -6 8 712.66 53.6
-2 -4 8 657.45 41.09
4 2 8 1294.98 62.13
6 -2 8 749.4 38.22
-6 4 8 920.87 39.32
-6 2 -8 697.5 42.38
2 -6 8 1060.49 62.85
2 -6 8 1282.43 44.78
6 -4 -8 712.5 36.33
-4 -2 -8 747.93 49.99
-4 6 11 2.8 4.89
-6 4 11 5.95 3.67
6 -4 -11 4.58 3.18
-4 6 11 1.15 1.04
4 -6 -11 2.89 1.77
-2 -4 11 4.07 3.32
6 -2 11 7.21 4.7
6 -2 11 2.64 1.99
-6 2 -11 19.82 7.52
-4 -2 -11 1.9 3.59
-4 -2 -11 7.55 3.54
2 4 -11 -0.13 4.42
-4 6 11 0.27 0.98
-2 6 -11 1.81 1.2
4 2 11 -0.52 1.91
-2 -4 11 -0.44 2.99
4 2 11 3.17 2.18
-4 -2 -11 13.49 2.8
-6 2 -11 7.67 2.47
-6 2 -11 7.44 4.7
2 4 -11 7.06 4.77
2 -6 11 6.12 5.92
2 -6 11 1.72 0.9
-2 6 -11 1.15 1.57
-4 -2 -11 3.26 3.21
-6 4 11 4.96 4.18
4 2 14 89.76 18.51
2 -6 14 95.03 15.77
6 -4 -14 75.2 15.78
4 -6 -14 103.3 16.85
2 -6 14 77.14 21.8
-6 2 -14 76.11 17.5
-4 -2 -14 100.51 18.24
-2 -4 14 42.54 14.15
-2 -4 14 74.1 16.35
-2 6 -14 73.09 17.88
-6 4 14 78.82 20.64
4 2 14 89.94 17.87
-4 6 14 78.98 19.94
4 -6 -14 130.86 20.5
-4 -2 -14 65.08 17.01
2 4 -14 78.52 18.95
-4 6 14 118.93 20.13
2 -6 14 149.24 25.24
6 -2 14 70.25 16.38
6 -2 14 80.27 15.09
-4 6 14 103.18 20.43
-2 6 -14 96.57 18.3
2 4 -17 16.43 7.21
-4 6 17 25.17 13.54
4 -6 -17 12.43 5.29
2 -6 17 16.34 6.58
-6 2 -17 11.27 6.3
6 -2 17 16.49 7.03
-2 -4 17 14.4 6.46
-2 -4 17 13.43 8.71
6 -4 -17 12.74 7
-6 4 17 7.67 6.04
-4 -2 -17 9.29 7.58
-2 6 -17 16.36 8.75
-6 2 -17 17.4 8.59
-4 -2 -17 15.25 7.29
4 2 17 17.28 8.26
2 -6 17 13.51 9.81
-4 -2 -20 201.1 30.4
2 -6 20 131.81 25.89
-6 4 20 225 42.66
2 -6 20 188.69 23.78
4 2 20 172.76 28.79
6 -4 -20 232.94 34.28
4 -6 -20 236.94 31.03
-2 -4 20 151.52 24.96
-4 6 20 215.99 40.91
-2 -4 20 105.7 22.59
-6 2 -20 191.06 30.43
6 -2 20 188.68 27.14
2 4 -20 180.75 34.94
-2 6 -20 210.55 38.34
-4 -2 -23 31.52 12.21
6 -2 23 20.94 10.42
-2 -4 23 15.63 8.92
6 -4 -23 45.69 16.53
-5 -1 23 25.93 12.52
1 5 20 605.19 58.21
-6 5 -20 514.08 51.73
-5 -1 20 498.63 51.42
-1 6 20 572.16 60.3
6 -1 -20 810.89 69.94
5 -6 20 604.45 42.96
-1 -5 -20 838.32 61.45
-5 -1 20 381.41 42.92
1 -6 -20 866.29 58.48
6 -5 20 579.88 43.65
-6 1 20 535.48 57.54
5 -6 20 372.17 48
-5 6 -20 542.3 54.53
5 1 -20 431.48 52.88
1 -6 -20 467.99 40.73
5 1 -17 14.5 8.39
-1 -5 -17 11.98 8.43
-6 1 17 9.53 4.19
-1 -5 -17 7.41 3.99
1 5 17 12.2 7.74
1 -6 -17 7.28 5.01
1 -6 -17 9.81 4.4
1 -6 -17 6.02 3.92
-5 6 -17 13.26 8.38
5 -6 17 14.29 5.75
-1 -5 -17 13.21 7.34
6 -1 -17 19.86 10.23
-5 -1 17 13.74 9.04
-5 -1 17 6.1 5.33
-1 6 17 9.5 7.1
-6 5 -17 19.17 9.95
6 -5 17 9.48 4.74
5 -6 14 26.23 6.85
-5 6 -14 25.26 5.55
-5 -1 14 19.31 8.36
5 1 -14 22.46 8.8
1 5 14 24.6 10.52
-1 6 14 17.42 10.28
-6 1 14 31.93 7.64
-5 -1 14 29.84 5.2
-1 -5 -14 32.01 9.26
6 -5 14 38.6 9.22
1 -6 -14 29.35 8.3
1 -6 -14 12.92 7.4
-5 6 -14 24.81 9.89
-1 -5 -14 32.51 13.23
-1 -5 -14 16.46 5.13
-5 -1 14 27.37 12.94
6 -1 -14 24.95 9.61
6 -5 14 23.39 8.74
-6 1 14 24.35 10.22
-6 5 -14 21.25 8.8
-1 -5 -14 26.4 6.5
1 -6 -14 20.14 5.91
-1 6 11 271.61 34.97
6 -5 11 281.13 22.39
-5 -1 11 223.27 27.76
-1 -5 -11 260.34 35.82
-5 6 -11 278.71 31.35
-1 -5 -11 364.49 27.05
1 5 11 267.73 32.78
-1 6 11 402.92 40.14
5 1 -11 265.59 29.84
1 -6 -11 255.49 34.59
1 -6 -11 426.28 27.28
5 -6 11 391.92 31.54
6 -1 -11 244.27 27.09
-1 -5 -11 304.61 19.47
5 -6 11 233.51 30.11
-6 5 -11 283.4 30.87
-1 -5 -11 265.83 18.17
-6 5 -11 286.38 25.88
6 -5 11 241.16 28.52
5 -6 11 282.53 45.93
-5 -1 11 185.56 22.44
5 -6 11 479.33 54.56
-6 5 -11 228.23 28.1
1 -6 -11 319.47 20.07
-6 1 11 226.63 27.96
1 -6 -11 253.83 19.56
5 -6 11 351.92 22.46
-6 1 8 1017.56 52.98
-5 6 -8 1161.28 59.47
5 1 -8 1343.38 56.47
-1 6 8 1785.68 84.18
6 -5 8 1239.56 39.65
5 -6 8 1218.39 32.24
6 -5 8 1260.74 49.18
5 -6 8 1255.2 92.75
6 -5 8 480.48 35.08
-6 5 -8 1154.94 44.13
1 -6 -8 1141.11 69.28
-1 -5 -8 1248.8 37.56
5 1 -8 1163.03 53.02
-1 6 8 1178.71 66.32
-1 -5 -8 1798.98 50.97
5 -6 8 1339.02 58.95
-5 -1 8 903.81 48.25
1 -6 -8 1060.25 30.69
-5 -1 8 872.39 35.99
-6 5 -8 1135.26 50.69
-6 5 -8 1165.29 54.28
6 -5 8 1505.93 72.64
6 -1 -8 962.48 46.86
-6 1 8 843.13 35.14
1 5 8 1199.33 62.13
1 5 8 1181.62 43.15
5 -6 8 754.52 48.25
-5 6 -8 1068.81 51
-6 1 8 1296.62 51.28
1 -6 -8 1136.54 38.28
1 5 8 1488.16 73.83
-5 6 -8 1458.3 63.94
1 -6 -8 1183.53 23.73
-1 -5 -8 1162.42 28.15
-5 6 -8 742.38 41.79
-1 -5 -8 1130.42 71.18
-5 6 -5 950.37 34.47
6 -5 5 1152.47 31.29
-5 -1 5 1215.77 32.14
5 -6 5 1273.53 37.07
-1 -5 -5 1256.37 37.15
-6 1 5 1319.09 24.15
6 -5 5 1134.01 43.36
-6 5 -5 1153.11 39.05
5 -6 5 1234.1 36.5
6 -1 -5 808.79 33.21
-6 1 5 590.11 29.62
-5 -1 5 991.07 76.5
-5 6 -5 1149.86 43.78
1 5 5 1257.13 28.28
-1 -5 -5 1183.92 68.93
-5 6 -5 1099.17 49.13
-1 6 5 1091.58 55.92
5 -6 5 1598.64 71.46
-5 6 -5 1393.4 50.88
5 1 -5 1050.17 39.84
-5 -1 5 1419.24 41.45
5 -6 5 1151.17 50.54
1 5 5 1333.19 57.45
-1 -5 -5 1194.68 26.7
1 5 5 1260.02 32.74
1 -6 -5 1144.41 64.82
5 1 -5 1125.51 44.32
1 -6 -5 1267.75 39.76
-6 5 -5 1024.95 35.04
-5 6 -2 809.6 24.55
-5 6 -2 972.18 32.37
6 -5 2 1291.17 39.21
-1 6 2 894.84 30.69
6 -1 -2 791.22 30.95
5 -6 2 873.46 32.78
-1 -5 -2 834.06 54.36
6 -1 -2 949.94 29.5
-6 1 2 506.71 26.64
-6 5 -2 1003.3 22.89
5 -6 2 899.66 26.14
1 5 2 887.85 29.65
5 1 -2 883.59 21.79
6 -5 2 1017.8 36.17
-1 6 2 886.51 17.22
5 -6 2 929.57 32.5
-5 -1 2 689.99 22.84
-5 -1 2 802.03 25.56
6 -1 -2 604.75 11.63
5 1 -2 538.93 20.53
-5 6 -2 973.75 40.28
-6 5 -2 734.24 27.68
-1 -5 -2 862.58 23.34
5 -6 2 738.43 30.85
1 5 2 934.07 23.3
-6 1 2 851.21 29.4
1 5 2 838.2 18.75
1 -6 -2 900.2 34.24
6 -5 2 761.76 29.76
-6 5 -2 781.12 27
1 5 2 923.85 29.48
6 -1 -2 667.23 26.8
6 -5 2 942.51 30.82
6 -5 2 864.2 27.77
5 -6 2 930 19.04
-6 5 -2 1010.16 33.29
-5 6 -2 879.12 33.1
5 1 -2 885.67 31.82
1 -6 -2 797.62 49.56
-5 6 -2 911.3 25.82
5 -6 -1 1708.67 35.6
1 5 -1 1263.59 33.96
5 1 1 1541.06 39.1
-6 5 1 1507.13 38.97
-1 6 -1 1691.48 49.22
-1 6 -1 1549.82 41.42
5 1 1 1698.91 37.21
-6 5 1 1888.39 42.27
6 -1 1 1604.01 42.53
-6 1 -1 1591.99 39.52
1 -6 1 1533.35 62.18
5 -6 -1 1589.4 44.58
5 -6 -1 1645.27 35.01
-6 5 1 1861.49 41.06
6 -5 -1 1528.55 41.96
-1 -5 1 1538.64 68.91
-5 -1 -1 1567.35 38.84
-5 6 1 1502.36 44.48
-5 6 1 1543.41 42.8
1 -6 1 1688.79 44.1
-1 -5 1 1603.56 43.15
-5 6 1 1552.8 32.95
5 1 1 1426.42 27.69
-5 6 1 1829.42 41.8
-6 5 1 1592.52 35.81
-5 6 1 1656.96 36.65
-1 -5 1 1647.47 45.19
-1 6 -1 1784.24 50.52
6 -5 -1 2438.55 75.32
1 -6 1 2604.57 61.68
6 -5 -1 1694.68 40.51
6 -5 -1 1572.34 27.54
-1 6 -1 1836.56 72.3
1 -6 4 60.64 3.7
-5 -1 -4 54.33 7.69
6 -5 -4 49.28 6.64
5 -6 -4 59.52 11.21
-1 -5 4 44.04 10.06
-1 -5 4 34.33 7.79
6 -1 4 49.32 3.35
1 5 -4 47.02 9.37
-1 6 -4 40.91 8.65
5 -6 -4 44.41 5.31
-1 -5 4 49.79 8.35
-1 -5 4 52.42 8.37
-6 5 4 51.48 5.46
1 -6 4 78.17 13.62
-5 6 4 50.32 10.24
-6 5 4 57.84 7.52
-6 1 -4 58.58 8.98
-6 5 4 48.55 7.89
-6 5 4 42.07 9.33
-1 6 -4 49.27 10.39
-1 -5 4 59.03 4.02
-5 6 4 51.81 6.14
1 -6 4 61.93 10.93
-5 6 4 51.32 6.7
-5 -1 -4 41.5 8.07
6 -1 4 39.39 6.9
-1 6 -4 47.39 5.68
1 -6 4 43.81 7.79
5 1 4 59.87 8
1 5 -4 39.32 5.79
1 -6 4 48.67 8.14
5 1 4 62.91 9.26
6 -5 -4 56.08 12.2
-1 6 -4 61.15 12.15
-5 6 7 653.72 28.55
-1 -5 7 672.82 40.96
-1 6 -7 664.87 30.76
1 -6 7 741.36 33.05
-5 6 7 522.86 39.42
1 5 -7 604.53 40.43
-6 1 -7 680.64 33.87
1 -6 7 956.23 55.47
6 -5 -7 772.11 52.22
-1 -5 7 558.71 29.11
-1 6 -7 581.33 33.17
-1 -5 7 472.35 31.55
5 -6 -7 619.95 17.51
-1 6 -7 734.4 47.88
5 -6 -7 725.3 49.42
-1 6 -7 596.16 39.05
-5 -1 -7 546.16 39.97
1 -6 7 543.66 38.24
6 -1 7 408.74 25.82
-6 1 -7 486.09 33.81
1 -6 7 768.45 48.03
-6 5 7 516.92 40.13
5 1 7 671.01 30.72
1 -6 7 665.66 29.04
-1 -5 7 766.43 51.64
1 5 -7 607.2 31.39
-6 5 7 634.31 29.79
6 -5 -7 572.02 22.68
5 1 7 677.15 40.45
1 5 -10 981.08 59.81
-6 5 10 867.96 60.25
5 1 10 846.96 46.4
1 -6 10 1054.35 51.9
6 -5 -10 804.64 41.32
-1 6 -10 943.41 44.92
-5 6 10 1009.62 43.83
-6 5 10 971.46 44.45
-1 -5 10 1178.5 27.36
6 -1 10 845.22 45.1
5 -6 -10 634.09 33.17
-1 -5 10 568.61 45.61
1 -6 10 862.43 46.37
1 -6 10 465.86 45.88
-5 6 10 1203.58 67.77
-5 6 10 883.78 59.57
-1 6 -10 824.76 53.14
-6 1 -10 489.1 14.48
5 1 10 834.72 43.96
1 5 -10 1098.75 50.33
6 -1 10 824.61 42.32
-6 1 -10 1133.11 52.58
-5 -1 -10 1254.49 50.17
-6 1 -10 736.75 51.3
-6 5 10 1266.37 63.25
1 -6 13 90.2 18.71
-1 -5 13 21.9 9.38
1 5 -13 73.38 15.01
-5 6 13 61.62 18.12
-5 -1 -13 72.48 15.7
1 5 -13 57.39 15.98
-6 5 13 60.83 18.54
6 -1 13 51.98 13.23
-5 6 13 83.84 17.96
1 -6 13 59.46 13.17
6 -1 13 61.29 13.26
-1 6 -13 62.46 13.59
-1 -5 13 43.39 11.36
5 -6 -13 62.85 12.81
-6 1 -13 53.94 13.05
-1 6 -13 40.81 13.58
-5 -1 -13 41.85 13.09
-6 5 13 74.46 15.89
5 1 13 56.91 13.39
-5 -1 -13 43.78 5.39
5 1 13 58.57 14.01
-1 -5 13 71.98 17.66
-5 6 13 55.26 12.55
6 -5 -13 61.35 13.61
1 -6 13 34.84 13.73
5 1 16 178.31 26.22
1 -6 16 126.03 24.73
-5 6 16 176.52 35.2
6 -1 16 191.33 25.64
-1 -5 16 98.47 21.17
6 -1 16 190.31 28.58
6 -5 -16 188.57 26.17
1 -6 16 200.05 24.12
-5 -1 -16 220.03 28.59
-6 1 -16 201.98 28.48
1 5 -16 191.49 32.05
5 -6 -16 244.18 28.44
-1 -5 16 181.13 25.12
-5 -1 -16 150.98 25.79
-6 5 16 185.38 36.27
-1 6 -16 156.57 29.39
-6 1 -16 131.22 21.35
5 1 19 -0.42 3.44
-1 -5 19 -3.48 3.88
6 -1 19 -1.24 4.08
-1 6 -19 2.83 2.1
5 -6 -19 1.34 3.81
6 -5 -19 -3.07 3.66
1 5 -19 0.21 3.96
-5 -1 -19 3.8 5.57
-6 1 -19 -2.05 3.67
-5 -1 -19 0.44 4.2
-1 -5 19 7.38 7.34
1 -6 19 10.64 9.45
-5 6 19 11.97 11
1 -6 19 6.23 4.99
-6 5 19 0.15 1.49
6 -1 22 16.14 8.14
-1 -5 22 7.11 5.68
-1 -5 22 2.81 2.4
-5 -1 -22 9.96 6.37
6 -5 -22 14.92 9.66
5 1 22 9.06 7
-6 1 -22 8.62 6.14
5 -6 -22 5.13 4.85
6 0 -21 4.09 7.03
-6 0 21 0.75 3.55
-6 6 -18 36.26 12.58
6 -6 18 35.69 8.97
-6 0 18 36.63 13.85
0 6 18 32.9 14.01
0 -6 -18 36.76 13.99
-6 0 18 25.97 10.8
6 0 -18 47.29 16.27
0 -6 -18 63.15 14.58
0 -6 -18 27.04 7.81
0 6 15 0.2 7.22
0 -6 -15 -0.55 4.16
-6 6 -15 1.09 2.02
-6 0 15 2.58 5.47
6 -6 15 7.48 3.9
-6 0 15 1.95 1.97
0 -6 -15 4.84 4.62
0 -6 -15 2.88 2.18
6 0 -15 0.53 4.86
0 -6 -15 -2.8 2.72
0 -6 -12 2131.95 64.84
-6 6 -12 1643.89 77.88
6 0 -12 1449.11 71.4
-6 0 12 1267.54 69.28
6 -6 12 1682.22 50.35
6 -6 12 1206.67 67.58
6 -6 12 2270.54 127.18
0 -6 -12 1752.79 46.1
0 6 12 1653.64 87.81
-6 0 12 1001.96 53.48
0 -6 -12 1497.98 89.03
-6 6 -12 1099.96 56.72
0 -6 -12 1269.16 44.11
0 -6 -9 1.26 1.45
-6 6 -9 -0.28 0.93
0 6 9 -0.01 1.47
0 -6 -9 0.93 0.24
0 6 9 6.87 6.53
-6 6 -9 0.17 2.5
-6 0 9 -0.91 2.15
6 -6 9 2.43 1.78
6 -6 9 4.6 4.28
6 -6 9 0.85 1.04
6 -6 9 12.53 13.54
6 0 -9 5.97 3.6
6 -6 9 7.4 5.68
0 6 9 1.87 3.13
0 -6 -9 1.88 4.69
6 0 -9 -0.35 2.78
0 -6 -9 0.55 0.71
-6 0 9 1.83 1.65
-6 6 -9 0.88 3.29
-6 6 -9 3.67 3.04
-6 6 -6 1041.3 46.44
6 -6 6 815.19 23.44
0 6 6 785.71 48.58
-6 0 6 608.41 22.13
6 -6 6 814.97 31.84
0 -6 -6 774.3 18.92
-6 0 6 853.21 36.76
0 6 6 968.11 53.05
6 -6 6 602.45 36.35
6 0 -6 667.52 36.21
6 -6 6 1213.96 82.07
0 -6 -6 848.33 61.17
0 -6 -6 854.15 33.56
6 0 -6 723.04 34.65
-6 6 -6 705.69 33.07
0 -6 -6 1033.53 20.56
-6 6 -6 725.92 35.27
6 -6 3 5.1 2.28
-6 6 -3 1.75 1.77
6 -6 3 2.31 2.16
-6 0 3 5.22 2.54
-6 6 -3 2.02 2.04
0 -6 -3 0.85 0.38
-6 0 3 1.73 2.06
0 6 3 0.58 0.8
-6 6 -3 8.04 3.09
0 6 3 1.12 0.55
6 -6 3 1.76 2.61
0 6 3 1.04 1.02
6 0 -3 3.24 1.46
0 -6 -3 0.48 1.14
6 0 -3 5 2.4
-6 6 -3 -1.27 1.87
6 -6 3 1.49 0.96
0 6 0 8293.9 159.3
6 0 0 6946.21 77.46
6 -6 0 8026.13 110.79
0 -6 0 6265.89 142.72
0 6 0 8153.36 74.71
-6 6 0 7274.58 73.5
0 6 0 7406.36 99.01
0 -6 0 9999 100.93
6 -6 0 7505.8 74.74
-6 6 0 8113.02 96.49
6 -6 0 9270.31 93.55
-6 6 0 7200.71 80.29
-6 6 0 8761.14 91.05
6 -6 0 7820.86 87.92
-6 0 0 7340.97 85.57
0 6 0 7382.25 42.79
-6 6 3 6.85 2.86
6 0 3 1.12 1.07
6 0 3 1.11 1.93
6 -6 -3 -0.61 2.42
0 -6 3 2.67 2.6
0 -6 3 1.29 1.9
-6 6 3 5.39 2.21
0 -6 3 1.3 2.08
0 6 -3 2.1 1.18
0 -6 3 3.27 2.56
0 6 -3 2.93 3.54
6 -6 -3 0.29 0.67
-6 6 3 2.1 2.58
-6 0 -3 1.03 1.37
-6 6 3 0.18 0.37
0 6 -6 661.97 28.45
0 6 -6 737.53 43.99
0 -6 6 760.59 42.59
0 -6 6 746.07 37.13
-6 0 -6 455.6 32.04
0 -6 6 626.96 24.24
0 -6 6 529.6 32.67
6 -6 -6 593.18 23.68
0 6 -6 666.58 37
-6 6 6 875.37 53.75
-6 6 6 755.18 29.51
-6 6 6 626.54 42.86
6 0 6 662.51 30.57
6 0 6 577.26 34.07
0 6 -9 1.93 1.86
0 -6 9 1.21 0.48
-6 0 -9 -0.84 1.26
0 -6 9 1.56 2.09
6 -6 -9 -0.03 1.09
-6 6 9 -0.44 2.28
0 6 -9 13.74 7.07
6 0 9 5.86 4.28
0 -6 9 3.34 5.28
-6 6 9 2.53 0.49
6 -6 -9 2.55 3.49
6 0 9 1.16 2.38
0 6 -9 2.07 2.8
-6 6 9 -0.74 4.12
-6 0 -9 0.01 2.86
0 -6 9 2.85 0.2
0 6 -12 1137.43 71.47
0 6 -12 1428.58 62.52
6 -6 -12 822.42 44.86
-6 6 12 1261.51 54.41
0 -6 12 584.86 52.62
6 0 12 1082.95 57.3
-6 6 12 1260.98 79.88
-6 0 -12 1353.91 65.28
0 -6 12 1085.91 57.72
-6 6 12 1840.82 85.19
6 0 12 1223.26 59.83
0 6 -15 -3.81 6.86
6 -6 -15 -1.13 2.28
0 -6 15 2.8 5.95
-6 0 -15 -1.05 4.13
-6 6 15 2.2 5.67
-6 6 15 -0.72 5.32
6 0 15 -1.96 4.33
6 0 15 1.99 4.01
-6 0 -15 -1.09 0.7
0 -6 15 -1.55 3.35
0 -6 18 58.38 13.53
0 6 -18 56.43 18.68
-6 0 -18 55.35 15.36
-6 0 -18 48.24 13.96
0 -6 18 42.99 14.8
6 -6 -18 56.76 14.42
6 0 18 58.66 15.44
-6 6 18 58.28 21.78
6 -6 -21 1.48 5.27
0 -6 21 -0.34 1.7
-6 0 -21 3.58 4.49
6 0 21 5.52 5.01
0 -6 21 0.78 3.36
-4 -3 23 72.43 19.23
3 -7 -20 67.88 16.09
7 -3 -20 100.74 23.62
-4 -3 20 68 17.43
3 4 20 78.43 20.33
7 -4 20 81.66 17.42
-4 7 -20 81.11 22.25
4 -7 20 67.88 19.5
-3 -4 -20 121.89 22.8
-3 7 20 102.78 27.22
-4 -3 20 44.05 14.1
-7 4 -20 107.74 23.01
4 3 -20 92.39 24.56
-7 3 20 89.23 25.73
-3 -4 -17 426.75 39.11
-7 4 -17 386.07 40.8
-3 7 17 339.62 46.39
7 -4 17 340.12 32.01
-4 -3 17 168.11 26.48
-4 -3 17 273.48 33.79
3 4 17 405.74 44.28
-3 -4 -17 280.15 20.91
7 -3 -17 390.3 42.56
-3 -4 -17 313.85 41.41
4 -7 17 256.36 37.28
3 -7 -17 543.46 40.66
-7 4 -17 341.01 29.15
3 -7 -17 289.42 29.12
4 3 -17 431.79 48.91
4 -7 17 392.35 30.03
-4 7 -17 321.6 40.96
-7 3 17 287.18 41.38
-7 4 -14 469.73 43.15
-4 -3 14 247.43 30.19
-3 -4 -14 381.55 44.88
7 -3 -14 386.43 37.78
3 -7 -14 604.85 37.69
-4 7 -14 369.17 40.56
4 3 -14 474.03 46.29
-3 7 14 400.57 45.97
-7 4 -14 210.93 21.19
7 -4 14 458.24 34.31
3 -7 -14 354.73 28.05
4 -7 14 316.75 41.29
-4 -3 14 363.57 37.85
7 -4 14 409.99 39.63
3 -7 -14 332.79 40.2
3 4 14 486.16 46.48
-7 3 14 392.92 43.12
4 -7 14 534.85 33.27
-3 -4 -14 657.49 44.75
-3 -4 -14 411.8 22.96
-3 -4 -14 548 34.12
3 -7 -11 355.86 22.95
-3 7 11 404.23 27.87
4 3 -11 365.7 36.47
-7 4 -11 282.4 20.35
7 -4 11 433.88 29.67
-4 -3 11 257.8 26.78
3 4 11 340.6 29.79
4 -7 11 209.02 34.3
7 -3 -11 401.11 33.62
-4 7 -11 464.05 29.48
-4 -3 11 403.45 24.72
-3 7 11 355.87 39.64
-4 7 -11 335.74 36.27
-7 4 -11 300.71 32.57
-7 4 -11 462.15 38.21
-7 3 11 389.91 37.75
3 4 11 385.19 37.9
3 -7 -11 360.66 25.38
-3 -4 -11 370.03 42.32
-3 -4 -11 382.29 20.35
-4 -3 11 346.16 34.4
7 -4 11 344.49 32.45
3 -7 -11 524.74 29.19
3 -7 -11 337.19 38.9
4 -7 11 547.27 31.89
4 -7 11 537.97 34.61
-3 7 11 622.62 54.99
-3 -4 -11 594.21 39.88
-7 4 -8 66.63 8.23
7 -3 -8 113.81 18.82
3 -7 -8 93.05 17.53
-3 -4 -8 81.47 8.79
3 -7 -8 100.64 9.23
4 -7 8 100.62 12.25
4 -7 8 95.21 15.97
-4 -3 8 118.72 17.4
3 -7 -8 66.09 15.86
-4 7 -8 107.04 15.77
-3 -4 -8 74.44 17.24
3 4 8 120.26 19.91
-3 7 8 71.6 15.72
-3 7 8 71.69 8.64
-4 7 -8 151.29 22.79
7 -4 8 69.44 12.31
-4 7 -8 92.75 15.75
7 -4 8 86.66 13.92
-4 -3 8 50.91 9.17
4 -7 8 63.64 16.44
-3 7 8 121.79 23.69
-4 -3 8 78.4 23.76
-3 -4 -8 77.68 9.13
3 4 8 98.85 16.5
3 4 8 89.27 11.33
7 -3 -8 67.59 10.46
-7 3 8 76.41 14.75
4 3 -8 94.84 14.27
-7 4 -8 70.54 12.94
-7 4 -8 118.87 16.66
4 3 -8 81.41 14.82
-4 7 -8 55.01 12.99
-7 3 8 88.75 12.85
3 -7 -8 81.14 10.95
-4 7 -5 100.12 15.4
-3 -4 -5 84.89 8.53
-4 -3 5 70.76 9.47
-4 7 -5 87.43 13.53
4 -7 5 99.13 9.2
7 -3 -5 100.05 16.62
-4 7 -5 18.05 3.97
3 -7 -5 67.68 15.23
-3 -4 -5 85.48 9.03
-4 7 -5 79.49 15.1
-3 -4 -5 72.95 16.31
4 3 -5 71.86 9.21
-3 7 5 69.35 13.71
-4 -3 5 92.48 9.14
4 3 -5 75.14 10.41
7 -4 5 82.02 11.58
7 -4 5 81.34 6.78
3 -7 -5 73.86 10.25
-7 3 5 95.67 11.64
-7 3 5 66.58 11.69
-7 4 -5 65.58 7.75
-4 7 -5 80.33 13.93
-4 7 -5 75.35 9.89
4 -7 5 86 10.86
3 4 5 86.79 8.34
3 4 5 103.07 13.97
4 -7 5 83.49 15.5
3 4 5 104.54 7.93
-7 4 -5 63.2 9.66
7 -3 -5 81.44 10
4 -7 5 92.87 14.84
-4 -3 5 97.92 14.36
-7 3 5 81.66 11.58
4 3 -5 71.09 11.52
3 4 2 986.8 28.49
-4 7 -2 893.58 22.59
4 3 -2 1013.55 35.13
-4 -3 2 1206.15 40.03
-3 -4 -2 1145.78 29.73
-3 -4 -2 1061.2 30.87
-4 -3 2 1025.5 26.52
-4 -3 2 1007.63 30.12
-3 7 2 1007.68 26.57
-4 7 -2 1170.32 44.12
4 3 -2 895.17 38.15
-4 7 -2 1212.16 42.37
3 -7 -2 991.31 55.17
-3 -4 -2 894.95 54.84
-7 3 2 1218.76 35.11
-7 3 2 1117.47 36.52
-7 4 -2 1034.41 34.05
-3 7 2 1172.24 37.39
-4 7 -2 1128.24 33.47
4 -7 2 1050.27 36.2
-3 7 2 923.19 43.05
4 3 -2 1201.04 32.58
7 -3 -2 1376.3 49.71
-4 7 -2 1027.08 20.58
7 -3 -2 998.61 34.98
4 -7 2 1096.64 47.81
4 3 -2 890.7 23.41
-3 7 2 1061.11 16.58
-3 -4 -2 1024.45 41.6
7 -4 2 1040.39 29.3
-3 7 2 1147.59 38.17
4 -7 2 1147.71 27.19
7 -4 2 882.47 33.99
-4 7 -2 1138.25 37.58
-4 7 -2 953.33 44.27
3 4 2 1083.12 30.29
-4 7 -2 1095.67 53.69
3 4 2 930.51 26.17
4 3 1 70.15 7.44
-3 7 -1 66.51 5.06
-3 7 -1 78.71 11.3
-4 7 1 89.68 10.23
-3 7 -1 50.74 7.46
-7 3 -1 68.31 8.61
-4 -3 -1 66 8.62
-4 -3 -1 61.8 7.63
-3 7 -1 87.87 15.94
3 4 -1 114.74 7.38
4 3 1 75.03 7.35
-3 -4 1 71.94 15.45
-3 7 -1 81.49 9.64
4 -7 -1 73.09 8.97
7 -4 -1 57.76 3.82
-3 7 -1 51.49 8.8
-3 -4 1 71.2 9.34
-4 7 1 75.36 7.3
-7 4 1 80.5 8.68
3 -7 1 78.54 9.76
7 -4 -1 99.43 13.6
3 4 -1 72.47 8.12
4 3 1 64.05 7.63
-4 7 1 67.57 9.49
4 -7 -1 66.72 8.39
-7 4 1 67.46 8.75
7 -4 -1 62.74 8.61
7 -3 1 58.42 7
4 -7 -1 69.36 14.31
3 4 -1 76.51 8.81
-3 -4 1 83.46 7.95
4 3 1 79.58 8.73
-4 -3 -1 72.36 8.43
3 -7 1 83.59 15.27
7 -3 1 62.47 8.63
-4 7 1 77.9 6.4
-4 7 1 80.88 10.45
3 4 -1 60.13 7.99
3 4 -4 519.63 24.25
4 3 4 688.05 17.44
3 -7 4 557.79 27.37
-3 7 -4 524.58 33.89
-4 -3 -4 549.98 35.43
3 -7 4 599.59 17.44
-3 -4 4 601.52 28.06
-3 7 -4 676.21 42.14
-3 -4 4 623.93 18.42
-3 -4 4 508.87 27.48
4 3 4 559.41 22.35
-3 7 -4 577.94 34.58
7 -3 4 374.21 9.2
-4 7 4 500.14 33.06
4 -7 -4 547.05 14.31
-7 4 4 577.51 29.34
7 -4 -4 491.52 24.54
4 3 4 704.59 32.5
-4 7 4 574.13 25.63
3 4 -4 548.98 30.62
-7 4 4 668.62 28.72
-3 7 -4 638.03 38.98
-3 7 -4 522.68 26.11
3 4 -4 601.91 26.16
7 -3 4 533.64 27.8
-7 4 4 480.22 29.83
-3 7 -4 530.41 21.98
4 -7 -4 654.2 37.93
7 -3 4 671.1 20.07
-4 -3 -4 694.29 26.28
-7 3 -4 483.48 25.78
4 -7 -4 532.02 41.56
-3 -4 4 627.98 44.66
-4 7 4 603.07 17.19
3 -7 4 575.28 31.44
-4 -3 -4 618.87 25.36
-3 7 -4 554.38 15.57
-4 -3 -7 92.71 18.66
-3 7 -7 147.82 19.05
-3 7 -7 112.42 18.02
-4 7 7 115.85 18.77
4 3 7 163.56 20.5
-7 4 7 133.44 14.81
3 4 -7 124.83 18.07
4 -7 -7 107.49 20.05
7 -3 7 116.1 14.54
-7 3 -7 112.31 8.72
3 -7 7 116.89 11.37
-3 -4 7 110.48 13.86
-3 -4 7 120.74 17.62
4 -7 -7 136.99 20.91
3 -7 7 159.88 20.01
7 -4 -7 117.79 12.47
-3 -4 7 186.57 21.26
3 -7 7 133.37 21.36
-3 7 -7 165.07 23.52
4 -7 -7 107.34 7.01
4 3 7 118.54 12.32
-4 -3 -7 123.54 11.76
-4 7 7 127.3 11.35
3 4 -7 121.92 14.44
-7 3 -7 122.47 15.81
7 -4 -7 182.04 24.66
-7 4 7 114.33 17.57
-3 7 -7 161.47 12.36
4 -7 -7 125.26 13.7
-3 -4 7 165.32 24.73
-4 7 7 199.57 28.85
-4 7 10 97.36 19.81
7 -4 -10 86.32 14.59
-3 7 -10 143.91 16.16
-3 -4 10 146.79 14.97
3 4 -10 123.51 20.41
4 -7 -10 103.33 20.14
-7 4 10 118.65 16.55
-3 7 -10 99.85 19.29
-7 4 10 177.31 22.17
-4 7 10 172.99 28.47
-3 7 -10 117.28 14.52
-7 3 -10 63.23 7.63
4 3 10 117.31 18.84
7 -3 10 111.21 14.66
-4 -3 -10 87.97 7.79
3 -7 10 138.25 16.02
-4 -3 -10 91.18 19.77
-7 4 10 116.81 21.06
-3 -4 10 78.11 14.84
-4 -3 -10 179.25 21.2
3 -7 10 50.78 14.28
4 -7 -10 152.89 16.27
3 4 -10 134.33 18.39
4 3 10 110.01 15.89
7 -3 10 106.43 16.3
4 -7 -10 123.38 12.34
-4 7 10 130.85 15.01
-7 3 -10 97.62 17.88
4 -7 -10 98.05 13.17
7 -4 -10 104.37 13.48
-3 -4 13 4.21 3.44
-4 -3 -13 9.9 4.42
7 -4 -13 4.04 3.66
-7 3 -13 10.45 5.79
-4 7 13 6.71 5.4
3 -7 13 16.21 10.57
-7 4 13 9.85 5.64
3 4 -13 23.27 10.59
-4 -3 -13 6.54 2.35
3 -7 13 3.76 0.88
4 -7 -13 1.08 1.64
3 -7 13 9.22 4.9
4 -7 -13 7.75 4.28
-3 7 -13 5.29 5.66
7 -3 13 10.49 5.79
-4 -3 -13 10.95 5.8
-3 -4 13 1.6 0.38
4 3 13 4.43 2.75
7 -3 13 3.85 3.73
-4 -3 -13 7.19 6.55
-4 7 13 12.06 6.23
4 3 13 8.04 3.83
-3 7 -13 9.12 4.76
-7 3 -13 6.47 2.93
-7 4 13 9.7 8.35
-4 -3 -16 283.97 18.41
4 3 16 408.37 42.93
7 -4 -16 376.5 39.49
4 -7 -16 503.98 38.46
-4 7 16 323.41 44.88
-7 3 -16 334.89 37.81
-7 3 -16 359.51 32.44
3 -7 16 465.17 33.6
-4 -3 -16 446.37 40.83
-3 -4 16 176.48 27.52
-4 -3 -16 338.03 42.19
3 -7 16 255.38 35.71
7 -3 16 281.16 29.74
7 -3 16 282.17 35.18
3 4 -16 386.28 45.34
-3 7 -16 384.28 45.54
-7 4 16 368.36 47.36
-3 -4 16 315.33 34.97
4 -7 -19 27.84 10.31
-3 -4 19 16.23 7.57
-4 -3 -19 22.54 9.73
7 -4 -19 21.72 9.08
-4 7 19 15.2 11.21
-3 7 -19 9.41 0.53
-7 3 -19 11.88 7.11
4 3 19 10.75 6.29
-3 -4 19 13.23 8.14
3 -7 19 33.37 14.18
7 -3 19 13.04 6.28
3 4 -19 17.74 9.54
-7 4 19 14.97 9.89
-4 -3 -19 25.55 10.01
3 -7 19 20.83 7.37
-3 -4 22 19.89 8.14
7 -3 22 27.2 11.15
7 -4 -22 27.47 12.22
-4 -3 -22 24.51 10.92
-3 -4 22 9.9 7.18
-5 -2 21 8.46 6.65
-5 -2 21 9.78 6.38
7 -2 -21 20.37 11.98
2 -7 -21 4.99 4.32
7 -5 18 5.25 4.52
5 -7 18 2.53 2.04
-5 7 -18 2.63 6.02
-2 -5 -18 6.92 4.74
2 -7 -18 -1.33 4.5
-2 -5 -18 2.61 1.45
-5 -2 18 -5.08 7
7 -2 -18 2.67 5.45
2 -7 -18 4.71 4.2
2 5 18 3.92 1.21
2 -7 -18 -1.79 3.17
-2 7 18 0.73 5.95
5 2 -18 -0.19 4.18
-7 5 -18 9.33 8.14
-7 2 18 2.6 5.58
-5 -2 18 1.01 3.61
5 -7 15 9.77 4.81
2 -7 -15 11.19 4.54
-2 7 15 12.22 7.8
2 -7 -15 21.69 7.11
5 2 -15 9.51 7.79
-2 -5 -15 11.6 8.13
-2 -5 -15 10.58 4.31
-2 -5 -15 20.65 7.38
-7 5 -15 11.21 6.17
7 -5 15 4.53 4.15
7 -2 -15 4.16 3.62
-2 -5 -15 14.03 4.96
7 -5 15 9.79 4.88
-7 2 15 15.63 8.41
2 -7 -15 8.97 6.5
2 5 15 15.52 8.55
-5 7 -15 7.08 4.55
-5 -2 15 1.32 1.88
-5 -2 15 2.35 2.05
-7 5 -15 6.56 3.8
7 -2 -12 1185.4 62.43
5 -7 12 1193.45 56.3
-5 7 -12 1698.96 55.31
2 -7 -12 931.62 67.44
-5 -2 12 784.88 46.55
5 -7 12 1599.98 51.98
-7 2 12 1047.53 63.56
-2 -5 -12 1589.86 61.71
-5 7 -12 1262.89 70.57
-7 5 -12 1056.71 63.77
5 2 -12 1389.76 72.51
-7 5 -12 718.24 51.26
2 -7 -12 1562.26 52.14
-7 5 -12 1180.93 50.64
5 -7 12 938.04 76.25
-2 -5 -12 1192.51 39.6
7 -5 12 1017.68 58.53
-2 7 12 1264.6 77.56
-2 -5 -12 1156.69 77.74
2 -7 -12 1341.61 42.1
2 -7 -12 1129.65 45.33
-5 -2 12 1067.95 62.95
2 5 12 1368.23 76.2
7 -5 12 1269.82 50.75
-5 7 -9 141.57 20.06
-2 -5 -9 139.77 25.92
7 -5 9 203.53 29.3
-2 7 9 225 32.1
-7 2 9 112.83 18.87
5 2 -9 154.65 20.15
-5 7 -9 137.3 16.7
-5 7 -9 142.71 22.31
7 -5 9 144.23 14.68
7 -2 -9 132.46 18.11
2 -7 -9 140.11 25.55
-2 7 9 124.04 22.3
-7 2 9 175.17 19.69
5 -7 9 197.08 15.66
-2 -5 -9 193.34 19.72
7 -2 -9 134.43 16.2
-5 -2 9 119.88 14.78
-7 2 9 110.81 14.03
7 -5 9 180.08 20.32
5 -7 9 91.52 22.39
5 -7 9 146.3 23.37
2 5 9 147 16.78
-5 7 -9 146.6 19.49
7 -5 9 138.19 19.35
5 -7 9 179.53 22.78
-5 7 -9 169.08 24
-2 -5 -9 185.03 15.4
-7 5 -9 123.55 18.17
-7 5 -9 73.6 10.98
2 -7 -9 163.2 9.11
-5 -2 9 -18.61 29.05
2 5 9 173.27 25.43
2 -7 -9 171.57 11.13
2 5 9 159.05 23.52
5 2 -9 139.29 20.15
-2 -5 -9 140.96 11.46
2 -7 -9 138.99 14.51
2 5 6 25.72 8.45
-5 -2 6 9.43 3.13
-5 -2 6 26.05 5.77
-7 5 -6 18.95 5.68
5 2 -6 26.44 6.6
-7 2 6 18.51 5.14
5 -7 6 28.35 10.96
-5 7 -6 42.59 11.12
-2 -5 -6 18.76 3.93
5 -7 6 26.13 5.65
-5 7 -6 20.68 6.99
5 -7 6 23.01 7.52
7 -5 6 25.71 5.15
2 -7 -6 20.5 9.32
-7 2 6 11.27 4.92
-7 2 6 14.13 2.46
-2 -5 -6 20.05 3.65
-7 5 -6 11.88 3.56
2 -7 -6 17.57 4.92
7 -2 -6 12.82 4.17
5 2 -6 17.59 6.17
-5 -2 6 22.17 5.04
-5 7 -6 43.11 10.38
7 -5 6 24.61 6.62
5 -7 6 17.66 8.03
-5 7 -6 28.45 8.52
-2 -5 -6 13.97 6.78
-2 7 6 25.45 10.53
-2 -5 -6 21.12 5.04
7 -5 6 11.84 5.01
2 5 6 18.74 4.09
-2 7 6 19.01 7.59
7 -2 -3 128.52 13.35
2 5 3 140.81 11.27
7 -2 -3 178.59 14.78
-5 -2 3 152.45 11.45
2 -7 -3 149.38 14.51
-7 2 3 153.54 13.81
5 -7 3 177.54 11.96
-7 5 -3 134.94 12.65
-5 7 -3 153.13 15
-5 7 -3 155.44 20.63
2 -7 -3 132.63 21.54
-7 5 -3 119.74 11.83
7 -5 3 202.41 14.66
5 -7 3 163.9 15.81
5 2 -3 127.75 9.96
-5 7 -3 130.13 14.94
2 5 3 165.95 14.25
-5 7 -3 159.38 18.1
2 5 3 129.73 8.71
5 -7 3 120.3 15.66
-5 7 -3 145.95 12.31
7 -5 3 134.89 14.03
-2 -5 -3 128.77 9.06
-2 7 3 156.67 14.05
-5 -2 3 143.64 12.46
5 2 -3 138.99 13.64
-2 -5 -3 122.22 21.41
-5 7 -3 141.21 11.18
-2 7 3 125.89 17.67
2 5 0 1919.38 26.56
-7 2 0 1690.19 43.46
7 -5 0 1680.62 44.54
-2 7 0 1924.24 53.76
-5 -2 0 1450.46 40.55
-2 -5 0 1686.58 41.89
2 -7 0 1720.73 70.24
5 2 0 2045.3 40.34
5 2 0 1122.32 29.39
-5 7 0 1979.4 49.21
-2 -5 0 1729.97 45.44
-2 7 0 1486.76 36.34
-2 -5 0 1659.34 76.62
-2 7 0 1659.56 22.78
5 -7 0 1405.95 36.95
7 -2 0 1571.55 44.65
7 -5 0 1961.02 32.42
-7 5 0 1964.91 47.25
-5 -2 0 1653.18 39.23
-2 7 0 1911.59 45.22
5 -7 0 1729.93 41.55
5 -7 0 1284.21 37.62
-7 5 0 1765 43.52
5 2 0 1207.5 32.11
-2 7 0 2010.83 81.71
2 -7 0 1772.22 47.37
5 2 0 1778.83 44.43
2 5 0 1603.93 38.03
-5 7 0 1628.09 34.29
-5 7 0 2037.54 40.05
-5 7 0 1628.12 47.33
7 -5 0 2838.57 77.97
7 -5 0 1989.1 46.64
-5 7 0 1678.11 42.77
5 2 0 1652.67 42.73
7 -2 3 19.05 4.99
-5 -2 -3 22.55 5.52
5 -7 -3 23.18 6.8
-2 -5 3 24.63 3.07
7 -2 3 18.07 3.23
-2 -5 3 24.28 6.78
-2 -5 3 21.64 8.42
-2 7 -3 26.53 8.73
5 2 3 28.94 5.5
7 -5 -3 32.81 9.53
-2 -5 3 29.95 6.09
-2 -5 3 23.7 5.79
-2 7 -3 23.35 6.33
2 -7 3 25.14 6.32
-5 7 3 20.24 2.41
7 -5 -3 24.98 5.41
2 -7 3 38.24 9.57
-7 5 3 24.75 6.12
5 2 3 22.46 5.17
-5 7 3 24.08 6.69
-2 7 -3 28.69 7.95
5 -7 -3 22.92 3.63
-5 7 3 21.48 4.48
-7 5 3 25.53 6.52
-7 2 -3 26.64 6.12
-5 7 3 24.58 5.27
-2 7 -3 24.48 7.01
2 5 -3 24.94 6.14
2 -7 3 31.29 8.84
-7 5 3 19.46 4.05
-7 5 3 21.72 3.62
-7 5 6 273.32 27.14
2 -7 6 330.01 26.58
2 -7 6 363.94 16.04
-2 -5 6 321.54 14.96
7 -5 -6 261.33 18.65
-5 7 6 440.14 41.08
7 -5 -6 442.51 39.8
-2 7 -6 299.87 27.41
7 -2 6 300.3 21.98
-2 7 -6 337.54 29.53
2 5 -6 280.61 19.61
-2 -5 6 365.57 29.85
2 -7 6 294.08 26.32
-5 7 6 294.69 28.57
-2 -5 6 235.38 20.03
-7 2 -6 357.16 24.63
-5 7 6 243.02 15.52
2 5 -6 283.05 26.47
-2 7 -6 347.36 32.94
-2 7 -6 268.77 16.91
-5 -2 -6 299.08 30.45
-7 2 -6 283.72 23.02
5 2 6 273.8 18.37
-2 -5 6 236.16 24.61
-2 -5 6 360.62 29.41
5 2 6 389.77 29.1
7 -5 -6 286.37 16.75
5 -7 -6 288.44 13.2
-7 5 6 292.82 19.92
2 5 -9 390.26 29.34
-7 5 9 299.23 32.85
2 -7 9 487.22 45.57
7 -5 -9 469.76 44.68
-2 7 -9 399.31 27.01
-2 -5 9 371.1 33.59
2 -7 9 261.42 33.9
-7 2 -9 315.22 30.67
-7 5 9 332.07 25.11
5 -7 -9 462.27 43.15
-2 -5 9 302.81 21.1
-2 7 -9 268.17 30.14
-5 -2 -9 385.1 24.77
5 -7 -9 330.99 24.64
7 -5 -9 354.11 22.37
5 -7 -9 302.79 12.56
-5 -2 -9 301.48 35.71
-5 7 9 554.06 49.47
-2 7 -9 338.11 23.73
-2 7 -9 448.53 42.58
-7 5 9 486.71 39.32
5 2 9 273.46 22.96
7 -2 9 291.61 25.47
-7 2 -9 393.98 30.75
-5 7 9 321.57 22.48
2 5 -9 358.22 34.13
2 -7 9 439.88 26.13
5 2 9 530.35 41.2
-5 7 9 333.17 35.43
-2 -5 9 211.93 23.63
-7 2 -12 109.2 9.02
7 -5 -12 155.9 20.75
-5 7 12 143.46 26.34
5 -7 -12 127.93 16.09
2 -7 12 66.11 18.29
-2 7 -12 193.62 22.48
-5 7 12 246.13 34.17
2 5 -12 146.69 24
-2 7 -12 164.06 26.2
-5 -2 -12 136.93 24.68
7 -2 12 161.9 20.19
-5 7 12 193.27 21.82
-7 2 -12 213.87 27.23
-2 -5 12 99.08 18.82
-5 -2 -12 209.83 25.12
5 2 12 186.64 24.95
2 -7 12 291.42 28.55
-5 -2 -12 127.68 7.18
-7 2 -12 121.88 21.99
5 2 12 224.46 25.45
7 -2 12 177.86 23.77
-7 5 12 170.97 28.23
-5 -2 -12 225.08 22.44
2 -7 12 174.98 20.75
-7 5 12 264.62 29.62
2 5 -12 203.64 24.38
-7 2 -15 479.72 44.43
-5 7 15 328.15 45.37
2 5 -15 329.39 40.83
7 -5 -15 307.61 33.2
-2 7 -15 414.77 38.89
5 -7 -15 622.61 46.99
-5 -2 -15 207.77 12.88
-7 2 -15 271.44 30.68
-5 -2 -15 482.48 41.43
2 -7 15 231.98 33.96
-2 7 -15 368.7 45.17
-5 -2 -15 274.13 36.5
-2 -5 15 299.58 32.74
7 -2 15 306.45 31.66
-2 -5 15 149.53 25.56
5 -7 -15 429.1 35.08
7 -2 15 337.25 36.65
2 -7 15 370.73 31.75
-7 5 15 491.47 41.63
5 2 15 340.27 37.29
5 2 15 271.56 32.32
-5 7 15 476.86 41.56
-7 5 15 352 46.48
-7 2 -18 133.37 21.17
7 -2 18 155.65 23.72
-2 -5 18 154.22 23.81
-7 5 18 154.65 34.63
5 -7 -18 214.23 27.54
2 -7 18 90.53 21.03
-5 -2 -18 158.71 27.67
-5 -2 -18 223.21 29.56
2 5 -18 181.07 33.66
-5 7 18 179.86 37.16
-2 -5 18 96.88 20.66
-7 2 -18 172.88 28.03
2 -7 18 182.9 22.39
7 -5 -18 177.5 28.39
-2 7 -18 168.84 32.98
5 2 18 169.28 27.89
-2 -5 21 87.8 18.34
-5 -2 -21 170.54 28.38
7 -2 21 113.17 21.85
5 2 21 124.66 25.14
-7 2 -21 87.38 20.62
-2 -5 21 61.55 16.97
7 -5 -21 135.65 26.44
-6 -1 19 4.4 2.37
7 -6 19 18.06 7.09
-1 7 19 18.14 12.45
1 -7 -19 13.56 5.61
-1 -6 -19 20.8 10.12
-7 1 19 12.49 7.94
6 1 -19 23.46 12.14
1 -7 -19 27.73 12.16
6 -7 19 42.55 18.95
-6 7 -19 27.76 11.51
-7 6 -19 29.33 12.28
-6 -1 19 14.83 8.36
-7 1 19 21.63 11.65
7 -1 -19 27.18 12.71
1 6 19 18.75 10.32
-6 -1 16 18.03 8.59
1 -7 -16 19.55 6.27
-1 7 16 38.53 15.37
7 -1 -16 45.69 13.97
1 -7 -16 39.19 14.68
-1 -6 -16 27.29 13.1
7 -6 16 38.23 9.44
-1 -6 -16 26.87 7.43
1 6 16 34.63 14.11
-6 -1 16 19.21 8.12
-7 1 16 16.74 7.96
6 -7 16 53.98 20.14
-7 6 -16 32.56 12.31
-7 1 16 29.11 12.52
-6 7 -16 22.58 10.65
-1 -6 -16 49.76 12.31
6 -7 16 37.02 8.75
6 1 -16 30.36 11.69
1 -7 -16 51.15 11.65
-1 -6 -13 121.29 26.62
1 6 13 122.51 24.54
-7 1 13 84.04 18.36
7 -1 -13 115.76 20.8
-1 -6 -13 32.22 6.72
6 1 -13 113.33 21.04
-7 1 13 142.79 16.8
-1 -6 -13 114.46 13.49
-1 -6 -13 197.82 20.51
-6 -1 13 97.28 19.36
-7 6 -13 103.69 17.16
-6 7 -13 139.82 23.5
1 -7 -13 197.5 19.35
6 -7 13 171.72 35.98
-6 -1 13 68.38 13.27
6 -7 13 138.26 14.5
-6 7 -13 129.94 14.93
-7 1 13 93.46 17.2
7 -6 13 98.5 19.64
7 -6 13 123.96 14.64
1 -7 -13 124.41 11.97
-7 6 -13 93.54 18.68
-1 7 13 126.93 25.17
1 -7 -13 97.36 13.3
1 -7 -13 121 25.83
-1 -6 -10 1126.94 41.08
6 -7 10 919.94 78.04
7 -6 10 1335.25 43.76
-1 7 10 1117.73 71.11
1 6 10 1061.96 66.78
1 -7 -10 1017.01 73.95
-6 -1 10 810.04 51.49
7 -6 10 1306.82 62.8
1 -7 -10 1280.21 37.6
-1 -6 -10 1073.58 29.35
-7 1 10 871.71 54.35
-1 -6 -10 1385.32 45.9
-6 7 -10 844.87 49.43
7 -1 -10 960.19 52.71
-6 7 -10 1011.89 60.81
6 1 -10 891.19 52.12
-6 -1 10 789.29 37.82
-7 6 -10 1073.99 59.25
1 -7 -10 1086.19 24.03
-7 1 10 660.25 32.89
-7 6 -10 698.4 38.59
6 -7 10 936.64 58.27
7 -6 10 720.05 47.13
-6 7 -10 829.37 49.89
-7 6 -10 895.97 53.02
1 6 10 1600.43 85.76
6 -7 10 1156.75 58.06
-1 -6 -10 976.65 72.14
1 -7 -10 1032.11 40.24
6 -7 10 1170.44 35.16
6 -7 10 1245.39 50.91
-7 6 -7 224.81 19.83
1 6 7 686.1 46.53
-1 -6 -7 607.87 17.78
-1 -6 -7 706.64 31.47
-1 -6 -7 1181.91 34.69
1 -7 -7 648.11 55.03
7 -6 7 523.21 34.69
-6 7 -7 646.79 37.55
7 -6 7 523.66 22.18
-7 1 7 802.25 39.69
6 -7 7 739.25 35
-6 -1 7 690.43 38.83
-1 -6 -7 637.74 55.11
-6 -1 7 575.41 25.66
-7 1 7 616.02 21.63
6 1 -7 696.61 38.67
-1 -6 -7 649.59 21.17
-6 -1 7 365.67 63.5
1 6 7 641.36 27.23
-6 -1 7 729.87 34.99
-6 7 -7 646.31 42.94
7 -6 7 429.05 23.73
-7 1 7 709.72 37.16
-7 6 -7 533.09 31.92
-1 7 7 659.44 49.91
1 -7 -7 620.05 14.85
6 -7 7 553.13 39.3
1 -7 -7 678.17 32.81
-6 7 -7 437.49 29.36
1 6 7 760.84 50.27
7 -6 7 728.18 35.79
6 -7 7 791.53 63.47
-6 7 -7 855.26 46.42
6 1 -7 604.32 37.41
-7 6 -7 756.02 41.78
7 -6 7 1131.24 97.18
-1 7 7 1020.41 67.85
7 -1 -7 585.69 32.64
7 -1 -4 34.7 7.09
7 -6 4 42.07 7.34
-6 7 -4 27.51 6.58
-1 7 4 19.67 8.08
6 1 -4 17.92 5
-7 6 -4 26.03 5.86
6 -7 4 30.49 5.93
-6 -1 4 34.79 6.32
1 -7 -4 26.06 6.31
-7 1 4 32.42 6.65
-1 -6 -4 16.55 7.5
-6 7 -4 9.54 3.48
1 -7 -4 28.63 10.59
7 -6 4 24.2 5.37
6 1 -4 22.22 4.2
7 -6 4 34.23 9.95
-6 7 -4 24.16 6.12
-6 7 -4 21.97 5.3
1 6 4 22.22 3.02
6 -7 4 15.98 5.04
6 -7 4 34.1 8.94
1 6 4 24.84 4.96
-6 -1 4 33.79 7.45
-1 7 4 29.77 5.98
-7 6 -4 28.39 7.07
7 -6 4 24.08 6.57
-7 6 -4 29.98 6.16
1 6 4 26.26 7.56
-1 -6 -4 30.33 3.89
6 1 -1 2048.84 50.45
-6 -1 1 1918.42 43.92
-1 7 1 1828.82 28.83
7 -6 1 1966.21 41.48
6 -7 1 2053.78 40.19
-7 6 -1 1808.54 43.48
-6 7 -1 1749.31 38.59
-7 1 1 1786.63 45.04
6 1 -1 1807.71 48.74
6 1 -1 1655.78 39.03
6 -7 1 2061.37 46.04
-1 7 1 2150.23 55.03
-7 1 1 1811.1 26.49
-1 -6 -1 1928.5 45.18
1 -7 -1 1665.33 75.08
6 -7 1 1932.32 43.38
-1 -6 -1 1801.02 84.08
-6 -1 1 2070.16 36.48
7 -1 -1 1902.18 50.78
7 -1 -1 2050.58 26.07
7 -1 -1 2122.42 47.53
6 1 -1 1927.95 34.99
-6 7 -1 2188.35 57.53
1 6 1 1937.26 38.38
-1 7 1 2012.13 45.64
6 -7 1 1569.53 43.35
7 -6 1 1886.03 48.6
-7 6 -1 2046.37 49.35
1 6 1 1804.16 47.05
-6 7 -1 2131.71 55.31
-6 7 -1 1966.8 45.77
1 6 1 2084.68 33.01
-6 7 -1 2020.68 39.34
-7 6 -1 1676.75 30
-6 -1 -2 965.79 35.73
6 1 2 1138.32 35.37
-1 7 -2 1120.99 47.5
1 -7 2 859.8 49.17
6 1 2 1192.67 26.67
-1 7 -2 703.87 33.91
-1 -6 2 822.91 52.97
-6 7 2 850.15 39.6
1 6 -2 967.06 36.08
-1 7 -2 1024.2 56.95
-7 6 2 958.5 27.12
-1 7 -2 886.33 41.22
-7 6 2 850.72 35.39
-1 -6 2 966.7 36.94
-7 6 2 900.21 33
1 -7 2 914.86 36.53
-6 7 2 990.39 32.62
-6 7 2 862.07 30.94
-7 6 2 1002.68 29.75
1 -7 2 1400.02 52.31
-1 -6 2 960.01 39.17
6 1 2 1002.4 34.61
6 -7 -2 885 27.75
-7 1 -2 908.29 33.67
7 -6 -2 981.47 32.33
6 -7 -2 860.95 38.72
7 -1 2 956.62 35.04
-6 7 2 933.58 27.21
7 -6 -2 1387.52 64.43
-7 6 5 2938.74 107.01
-6 7 5 1986.68 72.98
-1 -6 5 2073.96 61.88
1 6 -5 1930.7 66.6
6 1 5 2386.46 63.23
1 -7 5 2169.63 23.43
1 6 -5 1871.89 46.4
1 -7 5 1987.73 59.47
-1 7 -5 2119.65 70.43
-1 -6 5 1787.07 68.19
-7 6 5 1942.73 71.19
-1 7 -5 2195.62 77.9
-1 -6 5 2279.11 25.88
1 -7 5 1805.17 62.94
6 -7 -5 1728.52 37.99
-6 7 5 1933.61 45.64
-6 7 5 2721.91 98.75
-7 6 5 2121.22 58.68
-7 6 5 1929.15 38.5
-1 -6 5 1811.9 55.99
1 -7 5 1862.76 59.7
7 -6 -5 1852.12 45.02
1 6 -5 2428.68 63.24
-7 6 5 2242.56 51.15
-1 7 -5 1973.66 41.94
-1 7 -5 2559.85 85.24
-1 -6 5 2000.37 39.09
-6 -1 -5 1274.91 53.28
-6 7 5 2333.58 46.21
-7 1 -5 1778.16 56.09
7 -1 5 2071.14 54.94
6 1 5 1997.07 50.22
-7 1 -5 2397.03 60.02
-6 7 8 317.11 22.16
-1 -6 8 365.49 30.71
1 -7 8 493.28 28.28
6 -7 -8 392.13 20.03
-7 6 8 439.6 39.79
-7 6 8 653.51 47.86
-6 7 8 681.69 51.76
-1 7 -8 382.36 34.27
7 -1 8 501.18 31.26
7 -6 -8 454.98 21.19
1 6 -8 428.31 36.57
1 -7 8 694.99 51.38
1 -7 8 400.8 35.56
7 -1 8 574.67 38.8
1 -7 8 556.24 43.37
-1 7 -8 585.28 35.35
-1 -6 8 590.47 31.7
-1 7 -8 632.95 48.68
-7 6 8 428.07 26.35
-6 -1 -8 398.48 36.78
-7 1 -8 416.12 33.83
6 1 8 427.94 27.17
1 6 -8 450.95 29.4
-1 -6 8 288.96 30.49
1 -7 8 568.25 26.65
-1 7 -8 540.99 29.6
6 -7 -8 619.03 50.9
-7 1 -8 595.33 34.22
6 1 8 610.45 41.38
-6 -1 -8 582.52 31.84
7 -6 -8 684.64 55.66
-6 7 8 473.38 40.95
6 1 11 866.6 49.96
1 -7 11 501.11 49.03
-6 7 11 923.67 65.66
7 -1 11 874.55 46.9
-7 6 11 789.47 42.64
-1 7 -11 1150.49 69.58
-6 7 11 1384.2 78.6
-1 7 -11 1050.81 49.39
1 6 -11 1155.98 68.19
6 -7 -11 965.81 32.12
-7 6 11 886.52 64.23
1 6 -11 1065.71 51.4
-7 1 -11 537.26 45.53
6 1 11 898.84 48.21
7 -1 11 886.84 48.96
1 -7 11 269.84 26.54
7 -6 -11 948.25 38.34
-6 7 11 1036.16 46.86
-6 -1 -11 1169.37 52.12
-1 -6 11 559.01 47.02
-7 6 11 1278.56 69.08
-6 7 14 75.76 21.91
-7 1 -14 82.81 17.69
-7 1 -14 39.75 3.79
-7 6 14 61.9 19.37
6 -7 -14 86.13 15.05
7 -1 14 84.27 16.48
6 1 14 75.05 16.79
-1 -6 14 20.72 8.5
1 -7 14 34.95 12.44
-1 7 -14 76.88 15.22
-6 7 14 87.01 15.84
-7 6 14 125.53 22.43
7 -6 -14 74.47 15.06
1 6 -14 73.77 18.58
-6 -1 -14 70.13 18.1
6 1 14 70.24 15.9
-1 -6 14 128.34 25.14
1 -7 14 108.49 21.01
7 -1 14 62.51 14.8
-1 7 -14 66.84 19.52
-6 -1 -14 100.55 19.24
1 6 -17 194.45 34.9
1 -7 17 222.84 25.49
-6 7 17 212.49 39.86
6 -7 -17 236.3 28.73
-7 1 -17 194.07 27.62
7 -1 17 226.07 29.1
-1 7 -17 237.66 39.3
-6 -1 -17 166.03 28.37
-7 1 -17 299.77 35.55
7 -6 -17 242.03 30.63
-7 6 17 211.4 40.19
-1 -6 17 181.78 24.95
-1 -6 17 93.82 21
-6 -1 -17 269.59 33
6 1 17 191.42 28.9
7 -1 17 204.18 30.29
6 1 17 196.09 28.71
1 -7 17 101.79 22.05
-1 -6 20 140.29 21.42
6 1 20 166.65 27.89
7 -6 -20 184.57 28.74
6 -7 -20 203.89 28.6
1 6 -20 182.9 36.5
1 -7 20 145.22 20.85
-7 1 -20 170.82 27.87
-7 6 20 197.27 42.02
7 -1 20 161.79 26.26
-1 -6 20 85.11 20.22
1 -7 20 94.21 21.18
-1 7 -20 223.89 41.02
-6 -1 -20 166.95 27.1
-6 7 20 160.77 38.28
-7 0 20 157.93 29.72
-7 0 20 121.76 22.53
0 -7 -20 177.49 32.21
-7 7 -20 172.42 29.73
7 0 -20 194.56 35.08
7 -7 20 150.78 32.94
0 7 20 230.07 37.73
0 7 17 7.71 8.51
0 -7 -17 1.99 2.37
0 -7 -17 2.5 5.99
-7 0 17 4.36 4.18
0 -7 -17 1.1 2.19
-7 0 17 -2.99 4.1
-7 7 -17 -1.27 0.46
7 -7 17 -3.58 3.24
7 0 -17 -0.35 3.58
-7 0 14 9.07 6.31
7 -7 14 14.41 4.54
0 -7 -14 5.84 2.7
0 -7 -14 15.75 10.68
-7 7 -14 9.02 5.78
0 -7 -14 6.72 3.6
7 0 -14 7.73 6.03
0 7 14 11.28 9.42
-7 0 14 16.44 6.21
7 -7 14 6.02 4.38
-7 0 14 15.26 5.21
0 -7 -11 1.69 1.38
7 -7 11 4.69 5.65
0 7 11 2.41 5.46
7 0 -11 2.75 3.19
0 -7 -11 5.39 5.23
7 -7 11 12.98 9.31
0 -7 -11 0.84 1.37
-7 0 11 0.89 0.32
0 -7 -11 0.95 1.88
-7 7 -11 1.87 2.53
-7 0 11 -1.7 4.51
-7 7 -11 1.01 2.25
7 -7 11 1.09 2.14
-7 7 -11 -1.55 3.67
0 -7 -8 1673.48 53.1
0 -7 -8 1380.91 28.39
7 0 -8 1152.52 54.37
0 7 8 1541.57 79.14
0 -7 -8 1713.26 31.57
7 -7 8 1517.76 50.65
-7 0 8 999.29 33.59
-7 0 8 1438.34 54.68
-7 7 -8 1318.33 61.72
7 -7 8 1762.71 107.63
7 -7 8 1112.34 56.59
7 -7 8 1556.68 53.76
-7 7 -8 1304.12 54.66
7 0 -8 973.35 46.01
-7 7 -8 741.61 40.72
7 -7 8 1716.22 35
0 7 8 2086.63 98.05
0 -7 -8 1499.77 89.51
0 7 8 2077.88 90.87
0 7 5 4.66 4.52
-7 7 -5 1.49 1.77
-7 7 -5 1.04 2.12
0 7 5 2.46 1.7
7 -7 5 0.52 0.66
0 -7 -5 -0.89 2.52
7 -7 5 1.63 2.07
-7 7 -5 -0.92 2.2
-7 0 5 1.15 2.07
7 0 -5 -0.03 0.83
7 -7 5 0.93 0.93
7 -7 5 -1.98 3.37
7 -7 5 -0.1 3.1
0 7 5 0.57 1.28
0 -7 -5 2.16 1.43
-7 7 -2 12.7 4.55
0 7 2 10.91 2.02
7 0 -2 12.45 2.37
-7 7 -2 11.26 2.95
7 -7 2 14.36 4.24
7 0 -2 8.31 2.99
0 7 2 10.8 2.68
0 -7 -2 22.01 3.82
-7 7 -2 15.12 4.2
-7 0 2 13.44 4.18
7 -7 2 11.61 3.73
0 7 2 14.48 4.49
0 -7 -2 9.33 6.02
7 0 -2 12.21 3.78
-7 0 2 9.22 2.65
7 0 -2 13.32 4.75
-7 7 -2 16.88 4.76
7 -7 2 9.9 4.27
0 7 2 12.26 4.09
-7 7 1 2.27 2.47
0 -7 1 -1.07 4.49
-7 7 1 0.56 1.32
7 0 1 1.14 1.05
-7 7 1 0.63 1.36
7 0 1 1.72 1.61
0 7 -1 3.28 2.47
0 -7 1 1.15 1.86
0 -7 1 -0.17 0.55
7 -7 -1 0.18 1.06
7 -7 -1 0.33 0.85
-7 7 1 0.49 0.44
7 -7 -1 4.06 2.11
0 7 -1 0.31 2.69
0 7 -1 0.68 1.49
-7 0 -4 1024.23 38.98
-7 0 -4 823.73 37.69
7 0 4 610.79 30.81
-7 7 4 935.54 24.43
-7 7 4 940.72 31.18
-7 7 4 879.86 46.57
0 7 -4 746.39 40.24
0 -7 4 856.32 48.74
-7 7 4 877.25 29
-7 7 4 748.92 33.51
0 -7 4 1152.15 51.8
0 -7 4 966.01 39.87
0 -7 4 879.75 39.11
0 7 -4 907.93 52.84
0 7 -4 1014.58 40.75
7 0 4 831.68 13.53
7 0 4 756.3 32.53
7 -7 -4 802.88 28.54
-7 0 -7 0.24 1.51
0 7 -7 0.63 1.54
7 0 7 -1.86 2.04
0 7 -7 4.4 1.09
-7 0 -7 0.47 2.48
-7 7 7 2.18 3.63
-7 7 7 0.52 1.24
7 -7 -7 1.79 1.98
0 -7 7 0.75 2.87
0 -7 7 2.67 3.35
-7 7 7 -0.65 1.94
0 -7 7 1.23 0.95
0 -7 7 0.57 0.67
0 7 -7 -6.76 6.43
-7 7 7 0.21 0.82
7 0 7 5.3 4.24
7 -7 -7 0.65 0.66
7 -7 -10 297.72 17.58
-7 0 -10 221.48 29.11
-7 7 10 253.29 34.02
-7 7 10 407.53 40.88
-7 7 10 237.15 22.5
0 7 -10 259.57 31.91
0 -7 10 159.6 24.7
7 0 10 206.81 22.4
0 -7 10 362.37 28.52
0 7 -10 306.19 25.72
-7 7 13 3.42 2.39
-7 0 -13 2.25 3.64
7 0 13 6.24 4.93
-7 7 13 2.91 2.11
7 -7 -13 0.91 0.29
0 7 -13 -7.57 8.12
0 -7 13 -4.03 7.14
7 0 13 -0.52 2.09
0 7 -13 -0.54 1.71
0 -7 13 7.43 7.2
7 0 16 99.47 19.59
-7 0 -16 98.02 20.79
7 -7 -16 92.2 17.34
7 -7 -16 117.32 16.4
-7 7 16 86.33 24.73
-7 0 -16 96.47 20.71
0 7 -16 97.68 24.67
0 -7 16 34.95 11.61
7 0 16 79.65 18.27
-7 7 19 -2.19 7.11
-7 0 -19 2.23 4.84
0 7 -19 -1.54 2.57
7 -7 -19 -3.2 5.23
7 0 19 -5.65 6.34
0 -7 19 -6.41 8.08
-7 0 -22 77.19 19.14
8 -4 0 3.08 2.08
-4 8 0 1.56 1.47
4 -8 0 10.13 6.42
4 4 0 1.53 0.47
-4 8 0 8.45 3.16
-4 -4 0 4.54 2.24
4 4 0 4.77 2.23
8 -4 0 7.36 2.59
-4 -4 0 5.76 2.88
8 -4 0 5.89 3.56
-8 4 0 4.76 2.39
4 -8 0 5.62 3.03
-4 8 0 5.7 3.2
4 4 0 3.57 1.89
-4 8 0 3.52 2.02
8 -4 0 5.5 1.64
4 4 0 5.58 1.91
-4 8 0 5.98 2.07
-4 8 0 3.33 1.45
-8 4 0 4.04 2.16
-4 8 0 6.69 3.71
4 4 0 1.17 1.17
-4 -4 3 340.26 15.83
-4 8 3 356.01 27.89
8 -4 3 177.04 12.7
-4 8 -3 388.13 21.71
-4 -4 -3 328.99 36.57
-4 -4 3 340.05 20.03
4 -8 -3 345.64 35.21
-8 4 -3 296.6 19.77
-4 -4 3 358.62 21.59
4 4 3 325.31 15.35
4 4 -3 407.04 21.17
-4 8 3 407.07 23.7
-8 4 3 344.35 22.43
4 4 -3 401.01 24.77
4 -8 3 422.46 16.62
-4 8 -3 265.52 25.6
-8 4 3 397.18 21.15
-4 8 -3 415.41 27.86
8 -4 -3 386.38 23.17
-4 8 -3 299.26 14.44
4 4 3 352 17.94
-4 8 -3 391.09 34.81
4 -8 3 365.74 24.49
4 -8 -3 456.16 18.07
-4 -4 -3 341.8 27.77
-4 8 -3 389.86 28.39
-4 8 -3 405.11 27.28
4 4 -3 334.01 22.8
-4 8 3 382.95 24.72
8 -4 3 395.23 24.57
4 4 3 400.4 20.93
-4 8 6 1743.52 89.49
8 -4 -6 1109.26 39.19
4 -8 -6 1238.97 44.87
-4 -4 6 1247.36 54.68
-4 8 6 1021.27 56.12
8 -4 -6 1766.65 77.66
-8 4 6 1149.3 47.64
4 4 -6 1072.35 49.94
-4 -4 6 1351.48 70.03
-8 4 6 1291.9 45.61
4 -8 6 1475.5 37.63
-4 8 -6 1299.99 61.34
-4 8 6 1139.77 26
-4 -4 -6 981.92 64.23
-4 -4 6 1116.34 32.85
-4 8 -6 741.58 48.05
4 -8 6 1297.44 61.49
4 -8 6 1296.65 48.58
8 -4 6 1021.8 43.56
8 -4 6 1282.14 48.6
4 -8 -6 1023.31 64.84
8 -4 6 923.61 24.52
-4 8 -6 1195.28 44.21
-4 8 -6 1459.9 66.73
-4 -4 6 981.85 39.68
-4 -4 6 1429.55 59.77
4 4 6 1092.42 34.14
-8 4 -6 1032.82 43.2
-4 -4 -6 1299.13 38.13
4 -8 -6 1352.04 60.62
4 4 6 1450.4 55.97
4 4 -6 1186.44 43.62
-4 8 -6 1192.5 55.85
-4 8 6 1127.81 41.04
-8 4 6 934.29 48.9
4 -8 -9 52.09 4.98
4 -8 9 36.39 13.25
4 4 -9 46 10.15
-4 8 9 56.76 14.71
4 -8 -9 62.7 10.58
4 4 9 62.46 13.55
8 -4 9 47.69 10.78
8 -4 -9 48.58 9.21
-4 8 -9 63.76 12.97
4 -8 -9 53.14 15.25
-8 4 -9 42.43 10.76
-4 -4 9 46.58 11
4 4 -9 51.99 13.2
4 -8 9 78.76 10.97
-8 4 -9 103.17 10.26
-4 8 -9 33.69 10.83
-4 -4 -9 47.9 14.47
-4 -4 9 35.57 8.36
4 -8 -9 69.15 8.28
4 4 9 54.23 9.8
-4 8 9 61.67 8.78
-8 4 9 50.42 13.09
4 4 9 69.94 15.1
-4 8 -9 43.36 6.36
4 4 12 159.4 25.03
4 4 -12 137.83 23.95
8 -4 12 137.2 17.47
-4 8 -12 122.52 14.71
8 -4 -12 136.71 20.67
-4 -4 -12 165.02 13.09
-4 8 -12 170.48 17.66
-4 -4 12 216.97 16.99
-4 8 -12 118.93 22.96
-8 4 -12 145.57 13.46
-8 4 12 128.69 23.56
-4 -4 -12 254.35 27.17
-8 4 12 249.34 27.05
4 4 12 153.9 20.77
-4 8 12 136.78 17.08
-4 -4 12 88.11 16.46
8 -4 -12 147.46 18.81
4 -8 12 76.13 20.06
8 -4 12 131.81 21.13
4 -8 -12 232.62 20.14
-8 4 -12 120.23 21.5
-4 -4 -12 127.45 25.82
-8 4 -12 176.78 25.55
4 -8 -12 141.26 17.1
4 -8 -12 116.72 23.86
4 -8 12 189.36 20.92
-4 -4 -12 189.3 17.99
-4 8 12 130.8 25.52
-4 -4 -15 11.63 3.59
-4 -4 15 -1.08 3.87
8 -4 -15 20.63 7.99
4 4 15 11.8 7.97
8 -4 15 6.33 4.71
-4 -4 -15 -0.57 3.64
-4 8 15 6.31 2.53
4 -8 15 5.15 3.05
4 4 -15 4.86 6.48
-4 8 -15 2.74 3.05
-4 -4 -15 2.28 2.09
-8 4 -15 2.7 3.85
4 -8 15 4.62 6.2
-8 4 15 10.36 8.2
8 -4 15 3.91 1.43
4 -8 -15 7.43 4.07
4 -8 -15 3.12 0.22
-8 4 18 49.59 18.98
-4 -4 18 26.54 9.19
8 -4 18 57.27 13.74
4 -8 -18 36.16 10.54
4 4 18 51.21 15.87
-4 -4 -18 45.92 15.99
-4 -4 -18 70.85 16.21
8 -4 -18 51.09 15.46
-8 4 -18 56.57 15.79
-4 -4 18 11.33 2.08
4 -8 18 41.94 15.57
-4 8 18 55.07 19.4
-4 8 -18 66.49 19.62
4 4 -18 65.41 19.8
8 -4 21 15.33 6.81
4 -8 -21 13.97 5.54
-4 -4 21 4.31 0.97
8 -4 -21 18.13 8.26
-4 -4 21 -0.84 4.76
-5 -3 22 -0.79 5.27
-5 -3 19 3.42 4.84
5 3 -19 9.05 7.13
-3 8 19 13.13 9.19
8 -5 19 5.65 3.88
3 5 19 1.26 1.51
8 -3 -19 2.84 2.19
3 -8 -19 2.09 1.57
-3 -5 -19 5.85 5.71
-5 8 -19 9.66 8.95
-3 -5 -19 10.67 6.9
-8 5 -19 7.27 5.79
-5 -3 19 -1.43 5.36
5 -8 19 10.54 10.12
-8 3 19 12.88 10.17
8 -5 16 796.36 46.78
-3 -5 -16 1199.85 61.62
8 -3 -16 707.74 55.67
5 -8 16 474.51 50.12
3 -8 -16 1284.63 56.88
5 -8 16 965.86 43.21
3 -8 -16 677.06 61.89
-3 8 16 782.5 69.28
-5 8 -16 863.17 65.67
-3 -5 -16 670 63.49
-8 5 -16 809.77 60.15
-8 3 16 708.49 61.49
8 -5 16 499.79 47.23
-5 -3 16 386.83 37.92
5 3 -16 805.82 64.95
3 -8 -16 663.29 41.94
3 5 16 764.89 63.06
-3 -5 -16 774.96 35.46
-5 -3 16 520.73 47.42
8 -3 -13 60.13 14.37
-5 -3 13 83.72 10.47
5 3 -13 87.69 19.59
-3 -5 -13 63.29 9.81
3 -8 -13 62.63 10.11
8 -5 13 65.55 12.33
3 5 13 76.63 18.37
-8 5 -13 86.12 18.25
-8 3 13 99.7 16.39
-5 8 -13 53.74 10
3 -8 -13 54.95 17.58
-5 8 -13 91.2 19.9
-5 -3 13 40.34 10.99
-3 -5 -13 90.59 15.6
-3 -5 -13 47.06 16.2
5 -8 13 46.02 15.97
-8 5 -13 57.94 10.35
3 -8 -13 89.86 10.93
-8 3 13 56.75 15.33
5 -8 13 84.93 11.96
8 -5 13 54.69 14.18
-8 5 -13 30.42 9.87
3 -8 -13 56.29 10.84
-3 -5 -13 69.98 10.56
-3 8 13 64.35 18.44
5 3 -10 455.55 38.91
-5 8 -10 445.55 41.97
-8 5 -10 282.41 19.96
8 -5 10 469.22 28.82
-5 -3 10 290.09 25.1
3 -8 -10 388.14 43.75
-5 8 -10 463.73 34.43
-8 3 10 376.86 36.67
-3 -5 -10 385.62 44.55
-3 -5 -10 334.4 21.39
8 -5 10 450.11 41.88
5 -8 10 281.84 40
-3 -5 -10 499.34 24.54
8 -3 -10 367.11 28.15
5 -8 10 587.78 32.71
3 5 10 344.36 27.27
8 -5 10 345.98 31.56
-8 5 -10 434.31 36.82
-3 -5 -10 655.76 38.22
3 -8 -10 485.2 16.12
-3 8 10 418.63 43.34
3 5 10 424.8 39.31
3 -8 -10 409.56 27.09
-3 -5 -7 94.21 9.41
5 3 -7 101.2 16.04
3 -8 -7 99.84 12.59
8 -3 -7 127.6 19.86
-3 8 7 89.98 17.99
8 -5 7 111.39 15.04
5 -8 7 119.51 12.58
-8 3 7 72.65 14.01
-8 3 7 120.46 15.11
-5 -3 7 124.16 17.94
3 -8 -7 86.84 19.82
-5 8 -7 139.82 20.51
-3 8 7 164.1 28.78
-5 8 -7 101.33 16.33
-5 -3 7 87.47 11.56
3 5 7 118.81 17.92
-8 3 7 89.02 5.9
-5 8 -7 88 17.58
8 -3 -7 110.75 13.93
-8 3 7 111.42 15.28
5 -8 7 122.83 22
-5 -3 7 104.58 19.43
5 -8 7 97.5 18.55
5 3 -7 107.96 14.41
-3 -5 -7 84.34 19.22
8 -5 7 132.69 11.37
-5 8 -7 83.52 12.86
8 -5 7 91.96 13.83
3 5 7 92.67 10.4
-5 8 -7 105.48 16.63
-5 -3 7 90.46 10.97
-8 5 -7 78.27 12.18
-3 -5 -7 60.6 8.13
-8 5 -7 120.87 16.89
-8 5 -7 77.95 9.75
5 -8 7 109.96 14.58
-5 8 -4 6763.6 95.14
8 -3 -4 6138.45 100.38
3 5 4 7088.24 73.44
-3 8 4 7020.53 100.2
-5 8 -4 6954.83 140.28
5 3 -4 6431.76 107
-3 8 4 5639.49 128.71
3 -8 -4 7274.33 110.39
-5 -3 4 6318.87 107.32
-5 8 -4 4245.73 108.33
-5 -3 4 6792.78 78.79
3 -8 -4 5770.23 148.81
5 3 -4 5503.81 96.85
8 -5 4 6809.32 83.27
-3 -5 -4 5496.58 151.17
5 -8 4 8142.38 84.17
-5 -3 4 5721.41 89.86
8 -3 -4 8850.26 148.52
-5 -3 4 6930.51 90.11
-5 8 -4 6999.51 123.4
5 -8 4 7270.76 121.28
5 3 -4 7368.32 87.2
-5 8 -4 6989.54 134.57
5 3 -4 6820.61 98.4
-8 3 4 6407.89 100.07
5 -8 4 6237.57 132.52
-5 8 -4 6875.82 113.24
8 -5 4 6001.55 101.04
-3 8 4 7245.08 105.39
-5 8 -4 5561.24 75.13
8 -5 4 7029.08 100.89
3 5 4 6469.9 70.12
3 5 4 7277.67 103.15
-8 5 -4 4995.85 86.51
-3 -5 -4 7108.81 82.28
8 -5 1 15.41 4.7
3 5 1 14.68 4.02
-8 3 1 13.78 4.19
5 3 -1 10.6 3.18
-5 8 -1 10.49 4.16
-8 5 -1 14.76 4.35
-5 8 -1 11.17 2.77
8 -5 1 17.14 5.8
-3 -5 -1 15.17 4.22
-3 8 1 10.18 4.48
-3 8 1 10.24 2.12
-5 8 -1 10.71 3.85
-5 8 -1 11.16 3.46
3 -8 -1 13.48 6.46
-3 -5 -1 12.68 7.24
-5 8 -1 11.6 3.13
-8 5 -1 12.8 3.99
-5 8 -1 14.96 6.96
3 5 1 12.38 2.93
8 -5 1 19.72 4.78
-5 -3 1 16.18 4.04
5 -8 1 10.23 3.87
-3 8 1 8.51 2.78
-3 8 1 13.63 4.49
-3 8 1 11.48 2.91
-5 8 -1 9.6 3.26
8 -5 1 15.3 3.73
3 5 1 13.04 3.21
-8 5 -1 15.12 2.2
-3 8 1 10.02 2.17
-8 3 1 8.34 3.38
-8 3 1 0.15 2.27
5 3 -1 10.75 2.76
5 -8 1 11.94 4.82
5 3 -1 9.67 2.77
-3 -5 -1 6.52 3.26
3 5 1 9.14 2.92
8 -3 -1 9.77 3.78
5 3 -1 11.71 3.57
-3 -5 2 2162.69 61.62
-8 3 -2 1876.59 49.07
3 5 -2 2062.37 52.42
-3 8 -2 2156.46 64.86
-3 8 -2 2128.89 49.7
3 -8 2 2213.87 81.58
-3 8 -2 2486.15 92.31
5 3 2 1665.21 38.7
-8 5 2 2064.87 52.73
3 5 -2 2172.86 55.04
-3 -5 2 2124.9 92.56
-3 8 -2 1547.52 49.5
5 -8 -2 2237.16 57.47
5 3 2 2034.34 45.33
-3 8 -2 2181.66 52.46
3 -8 2 1972.92 55.06
-5 8 2 2013.15 43.81
-3 8 -2 2145.11 30.49
-5 8 2 2210.46 53.58
5 3 2 1890.49 45.1
-5 8 2 1781.53 55
-3 8 -2 2315.11 64.45
5 -8 -2 2118.21 44.1
-5 -3 -2 2129.69 60.28
-5 8 2 2007.2 56.83
-5 8 2 2000.29 33.27
-3 -5 2 2427.84 44.75
8 -3 2 2290.19 43.03
8 -3 2 1971.65 53.38
-8 5 2 2461.36 50.83
8 -5 -2 1117.24 59.78
8 -5 -2 1453.39 44.28
-3 8 -5 41.35 5.28
-5 -3 -5 33.55 9.68
8 -5 -5 30.44 6.49
3 -8 5 49.86 9.43
-8 5 5 49.53 8.41
8 -3 5 53.48 5.45
-8 3 -5 38.08 7.84
-5 8 5 39.9 5.47
-3 -5 5 46.08 5.21
5 -8 -5 44.69 8.64
-3 -5 5 46.21 10.4
3 -8 5 57.79 5.6
-3 -5 5 55.5 13.93
-3 -5 5 40.12 8.47
-3 8 -5 50.24 12.46
-5 8 5 49.85 8.22
-3 -5 5 45.27 8.91
3 -8 5 47.07 10.15
-8 5 5 40.97 4.14
-3 8 -5 37.57 10.06
8 -5 -5 72.17 16.24
8 -3 5 46.78 3.78
-8 5 5 36.93 8.14
-8 5 5 33.03 8.65
8 -3 5 36.47 7.48
3 5 -5 44.5 8.11
-3 8 -5 48 11.82
5 -8 -5 36.83 4.28
-5 8 5 40.05 10.05
5 3 5 44.57 7.15
5 3 5 39.91 3.9
3 5 -5 48.94 9.98
-3 8 -5 34.22 9.03
5 3 5 60.61 10.37
3 5 -8 4007.07 88.89
-5 -3 -8 3221.88 122.1
3 -8 8 3780.09 121.44
-8 5 8 4376.75 90.17
3 5 -8 3745.62 107.36
-5 8 8 3275.19 64.01
-3 8 -8 3902.77 105.69
3 -8 8 4121.31 70
-3 -5 8 5581.74 126.6
-3 8 -8 3552.13 109.79
-3 -5 8 3104.41 82.3
5 -8 -8 4263.72 123.97
-5 8 8 3419.46 109.8
-3 -5 8 3223.72 92.3
-3 8 -8 5279.26 146.03
8 -3 8 2927.42 80.03
5 3 8 4097.72 80.07
-8 3 -8 3029.82 87.76
-3 8 -8 3548.1 63.8
5 -8 -8 4067.49 86.46
8 -5 -8 3951.44 76.28
5 -8 -8 3567.87 45.97
-8 5 8 3868.58 112.64
5 3 8 5567.29 125.84
8 -5 -8 6257.38 161.27
-5 8 8 6031.61 169.06
-8 5 11 65.43 16.76
-3 8 -11 65.02 10.75
3 5 -11 92.91 19.23
8 -3 11 65.41 12.15
-8 5 11 102.71 18.24
-5 8 11 59.32 16.41
-3 -5 11 97.88 11.26
-3 8 -11 67.78 16.55
-5 -3 -11 77.1 14.16
-3 -5 11 36.89 10.13
3 -8 11 36.65 12.79
-3 8 -11 76.62 12.2
5 -8 -11 102.03 13.96
5 3 11 78.39 13.9
8 -3 11 64.88 13.73
8 -5 -11 43.9 9.23
5 -8 -11 61.81 11.16
-8 3 -11 74.31 7.34
-8 3 -11 62.23 14.71
5 -8 -11 65.5 5.78
-5 -3 -11 100.56 13.73
-5 8 11 89.37 13.3
5 3 11 66.94 14.93
-5 -3 -11 64.23 17.67
-8 3 -14 87.65 18.71
-8 5 14 73.02 20.19
5 -8 -14 69.6 12.11
-3 8 -14 56.68 16.78
8 -3 14 91.22 16.5
-5 8 14 49.89 16.69
5 3 14 69.14 16.62
5 3 14 71.16 15.57
3 5 -14 56.92 16.93
8 -5 -14 62.95 12.85
-3 8 -14 66.72 13.66
-5 -3 -14 50.86 16.17
-5 -3 -14 92.08 17.99
8 -5 -14 44.48 11.68
-8 5 14 104.29 19.14
-3 -5 14 28.23 9.8
3 -8 14 49.98 15.4
8 -3 14 70.06 15.95
5 -8 -14 61.34 12.6
3 -8 14 106.92 17.91
-5 8 14 95.32 17.26
8 -5 -17 21.41 9.08
-8 3 -17 19.95 8.56
3 -8 17 20.59 6.95
-8 3 -17 18.08 9.85
-8 5 17 26.27 13.56
-5 8 17 26.78 15.42
5 3 17 22.69 10.31
8 -3 17 29.21 10.1
3 5 -17 22.75 10.74
5 -8 -17 27 8.47
-5 -3 -17 15.12 8.89
-3 8 -17 26.9 11.76
-5 -3 -17 33.52 11.1
3 -8 17 16.76 8.96
-3 -5 17 3.12 4.95
8 -3 17 19.03 8.28
5 -8 -17 10.03 5
-3 8 -20 326.57 47.77
-8 5 20 285.82 48.35
-5 -3 -20 345.8 38.35
3 5 -20 249.38 42.04
-8 3 -20 293.72 38.3
-3 -5 20 133.14 24.91
3 -8 20 163.54 28.87
5 3 20 303.09 39.76
5 -8 -20 260.63 34.87
-5 8 20 309.19 50.78
8 -3 20 270.31 32.48
8 -5 -20 251.41 35.64
-2 -6 -20 217.33 35.84
-8 6 -20 247.17 35.02
2 6 20 275.63 41.02
6 2 -20 240.22 39.87
8 -2 -20 253.07 38.77
-8 2 20 201.19 36.15
2 -8 -20 214.68 34.41
-6 -2 20 105.45 20.46
-6 -2 20 173.93 28.93
2 -8 -20 216.91 27.61
-2 8 17 -0.24 4.31
8 -6 17 1.32 2.03
2 6 17 2.89 1.89
8 -2 -17 -0.62 2.42
2 -8 -17 3.97 5.37
2 -8 -17 2.3 3.11
6 2 -17 10.18 8.27
-2 -6 -17 4.57 3.48
-2 -6 -17 0.98 1.72
-6 8 -17 -0.94 2.18
-8 6 -17 5.52 5.58
-6 -2 17 -5.11 5.9
6 -8 17 13.54 11.61
-8 2 17 -7.69 6.58
-6 -2 17 -0.57 4.42
-8 2 17 8.11 8.06
-6 -2 14 45.34 12.88
2 -8 -14 89.1 12.61
2 6 14 69.29 19.7
6 2 -14 49.97 14.9
-2 -6 -14 103.75 15.78
2 -8 -14 58.79 19.33
-2 -6 -14 50.9 18.38
8 -6 14 73.36 12.7
-8 6 -14 81.85 18.31
6 -8 14 84.09 11.43
-6 8 -14 68.43 17.32
6 -8 14 40.35 16.57
8 -2 -14 51.84 14.36
-8 2 14 45.35 11.48
8 -6 14 48.3 13.41
-8 2 14 46.45 14.47
-2 -6 -14 69.78 11.25
-8 6 -14 36.92 9.17
-2 8 14 70.82 19.91
2 -8 -14 56.87 10.85
-6 -2 14 37.68 10.35
8 -2 -11 16.22 6.53
8 -2 -11 10.24 5.81
-2 8 11 21.55 10.49
8 -6 11 33.57 7.66
2 -8 -11 24.56 12.34
2 -8 -11 18.04 5.41
6 2 -11 14.12 7.47
-6 8 -11 23.37 7.06
6 -8 11 24.33 7.64
-2 -6 -11 20.04 10.84
2 -8 -11 28.72 4.84
-8 2 11 14.88 7.09
-2 -6 -11 39.15 8.49
2 6 11 23.39 9.35
-6 -2 11 15.29 5.31
-6 8 -11 22.7 9.34
-8 2 11 17.05 5.62
6 -8 11 23.73 13.38
-8 6 -11 25.41 9.94
-8 6 -11 17.35 5.63
-2 -6 -11 34.72 7.67
8 -6 11 35.38 11.11
8 -6 11 21.78 8.65
2 -8 -11 21.58 3.1
-2 -6 -11 26.22 5.22
-8 6 -11 11.69 5.52
6 -8 11 31.85 6.3
-2 8 8 508.85 46.35
-8 6 -8 413.79 25.2
-2 -6 -8 547.51 22.64
2 -8 -8 574.71 32.05
8 -6 8 565.76 34.57
6 2 -8 476.2 35.98
2 -8 -8 479.8 49.45
-6 8 -8 483.18 40.55
8 -6 8 603.83 26.57
-6 8 -8 627.69 40.42
-8 2 8 385.71 33.38
-6 -2 8 451.81 57
-2 -6 -8 470.28 49.69
6 -8 8 513.69 32.22
-6 -2 8 484.99 29.36
-2 -6 -8 734.49 33.32
-2 -6 -8 623.58 31.84
-8 2 8 428.2 17.47
-6 8 -8 577.81 39.63
6 -8 8 582.1 55.3
8 -6 8 489.95 25.65
6 -8 8 468.35 40.68
2 6 8 503.21 27.75
8 -6 8 400.83 31.62
-6 8 -8 398.9 30.41
2 6 8 556.84 43.91
-8 6 -8 465.61 32.88
8 -2 -8 525.95 32.39
-2 -6 -8 539.71 20.32
-8 2 8 528.95 34.89
-6 -2 8 387.29 24.19
2 6 8 518.01 41.67
-2 8 5 62.04 14.76
6 -8 5 93.6 10.95
8 -6 5 90.36 12
8 -2 -5 92.48 15.04
2 -8 -5 69.02 17.33
-6 8 -5 86.26 14.03
-8 2 5 102.6 13.32
2 -8 -5 79.72 11.4
-6 8 -5 9.68 8.03
-6 8 -5 72.72 14.55
2 6 5 66.86 11.32
6 -8 5 105.92 11.37
-8 2 5 73.4 11.57
-2 8 5 74.65 10.71
6 2 -5 72.04 11.28
-2 -6 -5 62.25 16.58
-6 -2 5 83.81 12.85
2 6 5 78.52 8.57
-6 -2 5 66.87 8.34
-8 6 -5 96.19 13.73
-2 -6 -5 73.69 6.56
-6 -2 5 76.97 9.62
6 2 -5 73.25 9.35
8 -6 5 137.86 27.7
6 -8 5 60.73 12.51
-6 -2 5 61.96 10.82
6 -8 5 90.05 15.68
-6 8 -5 62.99 13.24
8 -6 5 77.36 12.31
-2 8 5 80.69 10.95
2 6 5 65.31 6.58
-6 8 -5 86.95 13.48
-6 8 -5 87.94 10.55
8 -2 -5 86.09 11.83
6 2 -5 85.34 12.15
-8 6 -5 68.52 9.78
-8 6 -5 74.83 10.75
-2 -6 -5 74.62 7.96
8 -2 -2 128.14 14.13
6 -8 2 80.2 11.99
-8 6 -2 123.22 8.75
-2 8 2 113.24 16.65
8 -2 -2 159.83 17.25
-8 6 -2 112.55 11.88
-2 -6 -2 123.24 23.12
6 2 -2 151.9 11.16
-6 -2 2 106.55 10.42
-6 -2 2 102.57 9.53
-6 -2 2 137.22 14.39
-8 6 -2 142.04 14.35
-2 -6 -2 133.67 11.78
2 6 2 125.99 12.07
-8 2 2 125.05 13.29
-6 8 -2 163.82 23.62
2 -8 -2 125.45 21.95
-6 8 -2 121.19 10.5
-6 8 -2 132.78 11.78
6 -8 2 145.53 16.41
2 6 2 132.88 13.69
2 -8 -2 129.73 14.8
6 -8 2 151.32 12.44
8 -6 2 149.68 13.97
6 2 -2 114 10.28
-6 8 -2 149.08 15.79
-6 8 -2 146.09 16.72
8 -2 -2 155.43 13.95
6 -8 2 125.8 13.18
8 -6 2 125.35 12.53
8 -6 2 88.87 11.49
-2 8 2 125.9 5.23
-2 8 2 127.76 13.76
-6 8 -2 135.57 13.23
-2 8 2 121.69 7.07
-8 2 2 143.3 13.89
2 6 2 135.42 10.31
6 2 -2 122.77 13.06
-8 2 2 127.41 9.74
2 6 2 125.74 9.13
-6 8 1 41.75 8.19
6 2 1 69.6 8.34
-6 -2 -1 60.5 8.93
-8 6 1 61.28 8.93
-2 8 -1 46.19 3.05
6 -8 -1 51.88 8.68
-8 2 -1 57.74 8.73
6 2 1 64.96 8.12
-2 8 -1 63.54 10.77
2 6 -1 58.01 8.35
-2 8 -1 44.44 7.94
-6 8 1 58.32 7.34
-6 8 1 63.27 9.28
2 6 -1 55.78 7.95
-8 6 1 54.33 8.39
-2 -6 1 68.61 10.88
2 -8 1 61.91 13.93
2 -8 1 57.68 9.43
-2 8 -1 88.31 18.56
-8 6 1 75.39 8.79
8 -6 -1 103.51 19.6
6 2 1 55.9 8.26
2 6 -1 69.18 9.42
-2 -6 1 49.78 14.23
8 -6 -1 68.8 6.02
2 6 -1 66.22 9.31
6 2 1 69.12 7.79
-2 8 -1 70.69 11.4
6 -8 -1 52.96 7.47
6 -8 -1 61.97 8.16
2 6 -1 54.56 3.96
8 -6 -1 87.25 10.7
-6 8 1 60.24 10.06
8 -6 -1 55.14 8.45
-6 -2 -1 61.52 9.3
8 -2 1 59.27 9.55
-6 8 1 62.77 7.26
-2 8 -4 1493.51 30.91
6 2 4 1756.83 51.59
-8 6 4 1245.96 52.02
2 -8 4 1664.94 51.61
-2 -6 4 1614.55 51.66
2 6 -4 1827.42 52.1
2 6 -4 1519.64 54.98
8 -2 4 1922.98 30.48
6 -8 -4 1704.85 63.31
-6 8 4 1498.13 60.6
-6 8 4 1011.39 37.86
6 2 4 1062.69 19.17
2 -8 4 1481.04 63.54
-6 8 4 1830.39 37.87
-2 8 -4 1520.27 61.39
-2 -6 4 1396.05 72.33
-2 8 -4 1666.25 76.2
-8 6 4 1505.15 44.42
-6 -2 -4 1784.02 49.74
-2 8 -4 1450.39 54.01
-8 6 4 1521.74 49.72
-2 -6 4 1572 50.25
-6 8 4 1654.03 46.26
2 -8 4 1521.47 53.39
-2 -6 4 1926.54 27.96
-8 6 4 1612.7 33.38
2 -8 4 2303.09 81.96
-2 8 -4 1927.93 74.05
-6 -2 -4 1569.61 58.83
2 6 -4 1098.4 50.15
8 -2 4 1711.66 52.25
6 -8 -4 1403.12 32.4
-8 2 -4 1290.71 45.55
6 2 4 1516.88 43.22
8 -6 -4 1361.56 41.17
-8 6 4 1820.07 41.08
-2 8 -7 5.73 4.15
-8 2 -7 14.63 6.28
-6 8 7 7.59 4.67
-2 8 -7 1.65 1.58
8 -6 -7 -3.28 6.1
6 -8 -7 -1.93 3.29
6 2 7 1.66 2.32
-8 6 7 -0.06 1.86
2 6 -7 9.03 4.98
-6 8 7 0.22 1.25
-2 -6 7 -0.23 1.64
-6 8 7 3.15 4.42
-2 8 -7 0.59 1.86
-8 2 -7 5.23 3.26
2 6 -7 0.09 1.17
-6 8 7 -0.83 1.93
-8 6 7 0.65 0.79
-8 6 7 0.74 2.38
-2 -6 7 -1.49 2.98
8 -6 -7 0.45 1.55
-2 -6 7 -0.26 1.97
6 -8 -7 1.45 1.44
2 -8 7 -2.2 5.32
2 6 -7 -5.63 5.16
2 -8 7 5.88 5.01
-2 -6 7 4.19 1.4
-8 6 7 -1.22 3.61
-2 8 -7 3.41 3.73
6 -8 -7 3.38 2.85
-8 6 7 2.73 2.32
2 -8 7 1.05 0.58
-6 -2 -7 -1.47 3.71
8 -2 7 5.52 3.74
6 2 7 2.32 2.67
-6 -2 -7 0.78 0.47
-8 6 10 51.2 10.29
2 6 -10 46.59 10.51
6 -8 -10 40.95 9.53
-8 6 10 71.57 15.83
8 -6 -10 43.56 8.18
-2 -6 10 67.17 9.98
-6 8 10 52.49 9.83
-2 8 -10 47.44 9.49
-2 8 -10 46.49 9.22
-6 -2 -10 51.95 16.65
-2 8 -10 39.72 12.27
-2 -6 10 21.73 6.55
2 6 -10 38.63 11.97
6 2 10 50.25 10.46
-6 8 10 33.58 12.06
2 -8 10 75.66 11.11
8 -2 10 40.81 9.98
2 -8 10 25.53 10.6
-6 -2 -10 58.75 10.94
-8 2 -10 38.72 11.15
-8 6 10 51.22 14.33
6 -8 -13 17.43 4.14
6 2 13 23.1 8.73
8 -2 13 12.66 5.06
2 -8 13 21.31 7.35
-6 8 13 9.54 7
2 6 -13 20.31 10.72
2 -8 13 -4.12 10.16
8 -6 -13 17.66 6.27
-6 -2 -13 10.48 8.11
-2 8 -13 28.91 12.69
-8 6 13 16.45 9.84
-6 8 13 15.5 5.73
-6 -2 -13 13.59 6.44
-8 2 -13 21.07 8.62
-2 8 -13 14 6
6 2 13 23.51 8.76
8 -2 13 26.79 10.36
-2 -6 13 2.33 1.16
-8 2 -13 5.42 2.61
-6 8 16 823.79 76.33
6 -8 -16 968.36 53.76
8 -2 16 821.9 54.38
2 6 -16 790.85 67.1
-2 8 -16 839.47 72.45
-6 -2 -16 750.47 63.35
-8 2 -16 778.64 55.27
-6 -2 -16 1226.82 67.77
-8 6 16 821.87 73.62
-2 -6 16 356.43 40.77
-8 2 -16 1134.37 70.73
2 -8 16 424.85 47.19
6 2 16 767.67 55.16
8 -2 16 802.22 58.63
6 2 16 771.83 58.71
8 -6 -16 799.36 55.75
8 -6 -16 809.83 46.97
-2 -6 19 -0.33 4.02
-8 6 19 17.09 12.66
-6 8 19 16.24 11.08
2 6 -19 23.05 13.61
6 2 19 13.56 7.45
-6 -2 -19 18.23 9.02
8 -6 -19 15.76 6.47
-6 -2 -19 18.59 8.58
-8 2 -19 14.12 7.12
-2 8 -19 17.79 11.6
8 -6 -19 31.6 10.87
8 -2 19 21.84 8.33
8 -2 22 -2.37 4.72
8 -6 -22 1.2 2.91
-7 -1 18 101.02 21.88
-1 8 18 139.45 29.34
1 7 18 160.76 31.38
7 1 -18 130.27 27.5
-8 7 -18 119.05 23.91
-1 -7 -18 119.3 27.88
1 -8 -18 104.04 26.41
-8 1 18 75.35 15.88
7 -8 18 122.62 29.65
8 -7 18 171.56 37.37
-7 8 -18 99.77 21.8
1 -8 -18 122.28 18.53
-7 -1 18 66.74 15.31
-8 1 18 97.03 22.92
8 -1 -18 127.56 26.3
1 -8 -15 24.4 6.87
7 -8 15 17.1 5.17
8 -7 15 24.78 6.22
-1 8 15 15.85 9.62
8 -1 -15 9.03 6.42
7 1 -15 7.2 4.39
1 -8 -15 13.42 9.89
-1 -7 -15 11.14 9.39
-1 -7 -15 14.67 6.18
1 -8 -15 10.34 5.22
-7 -1 15 11.35 6.75
-8 7 -15 20.18 9.42
-7 -1 15 4.42 3.74
1 7 15 21.11 11.22
-8 1 15 7.9 4.96
-1 -7 -15 12.97 5.38
7 -8 15 30.03 16.49
8 -7 15 15.37 8.39
-7 8 -15 13.43 7.46
-8 1 15 13.56 8.38
1 -8 -12 61.2 10.75
-1 -7 -12 70.36 12.01
1 7 12 68.7 18.67
-7 8 -12 56.02 10.87
7 1 -12 65 15.61
-7 8 -12 49.38 13.54
-1 -7 -12 91.26 12.04
8 -7 12 69.27 9.83
1 -8 -12 49.85 17.58
-1 -7 -12 61.99 19.82
7 -8 12 79.01 9.67
8 -1 -12 42.11 11.95
-7 -1 12 45.64 9.72
-8 1 12 32.27 7.49
-8 7 -12 55.81 14.19
7 -8 12 69.75 22.26
1 -8 -12 73.69 9.28
7 -8 12 50.06 14.27
-8 7 -12 40.31 10.17
8 -7 12 51.11 14.27
8 -1 -12 54.51 12.61
-1 8 12 59.72 17.63
-8 7 -12 35.05 10.83
-8 1 12 47.16 13.36
1 -8 -12 53.51 5.44
8 -7 12 77.19 15.04
-1 -7 -12 65.25 7.59
8 -1 -9 -0.22 2.92
-7 -1 9 -3.8 4.82
8 -7 9 3.59 2.34
-1 -7 -9 3.17 1.78
8 -7 9 2.18 2.36
1 7 9 3.19 4.37
7 -8 9 6.77 2.24
1 -8 -9 2.94 0.93
-8 7 -9 2.75 3.62
1 -8 -9 2.86 4.21
-1 8 9 2.14 4.16
-1 -7 -9 1.18 0.87
7 -8 9 1.38 1.6
-7 8 -9 4.68 4.4
-1 -7 -9 2.95 1.13
-7 -1 9 -1.03 1.38
-8 1 9 2.75 1.56
7 1 -9 2.63 0.94
7 -8 9 5.77 5.85
-7 8 -9 1.79 4.17
8 -7 9 10.76 14.01
-8 7 -9 1.32 2.42
1 -8 -9 7 4.14
-8 1 9 0.34 3.05
7 -8 9 6.13 3.5
1 7 9 13.11 7.51
-7 8 -9 1.5 4.8
8 -7 9 4.16 3.84
-1 -7 -9 2.37 2.25
-1 -7 -9 4.88 2.22
7 1 -9 0.61 3.93
7 -8 9 2.19 2.4
-8 7 -9 3.46 3.84
8 -7 6 788.49 36.22
7 -8 6 1067.76 64.19
8 -7 6 881.45 29.43
-7 -1 6 969.16 45.52
7 1 -6 837.95 41.6
-7 -1 6 568.55 42.11
-1 -7 -6 819.49 18.28
-1 8 6 745.35 53.85
-7 8 -6 772.06 41.43
1 7 6 796.78 49.79
1 -8 -6 792.43 63.65
-1 -7 -6 766.02 63.29
-1 8 6 1246.15 78.42
7 1 -6 401.34 28.62
-7 -1 6 832.51 35.87
-8 1 6 804.85 38.6
7 -8 6 880.62 34.32
-7 -1 6 869.28 28.36
-1 -7 -6 1289.09 29.82
8 -7 6 710.57 40.06
-8 7 -6 678.54 33.69
-1 -7 -6 895.42 40.63
8 -1 -6 829.19 39.52
8 -7 6 1214.75 77.3
-7 8 -6 737.86 44.43
7 -8 6 782.47 46.12
1 7 6 814.62 25.56
1 7 6 802.67 47.53
1 7 6 964.26 33.94
-7 8 -6 750.49 34.93
-7 8 -6 1069.77 49.95
-8 7 -6 466.43 28.66
1 -8 -6 866.15 39.43
-8 7 -6 972.37 46.67
-1 -7 -3 22.16 10.39
-8 7 -3 5.39 2.82
7 -8 3 17.57 5.09
-8 1 3 22.29 6.11
-8 7 -3 24.53 6.6
8 -1 -3 17.86 5.76
8 -1 -3 21.13 5.77
-7 -1 3 17.33 4.77
1 -8 -3 18.54 5.38
1 7 3 20.51 4.94
-7 -1 3 27.04 6.85
-8 7 -3 19.75 5.57
-7 8 -3 20.1 4.85
-8 7 -3 16.31 4.27
8 -7 3 56.98 8.75
1 -8 -3 20.86 9.61
-8 1 3 21.55 4.8
8 -1 -3 22.56 6.38
7 1 -3 15.38 5.44
-7 8 -3 24.33 6.5
-7 8 -3 22.33 8.7
-1 8 3 20.05 5.17
-7 8 -3 22.85 4.98
7 1 -3 19.01 3.55
8 -7 3 33.25 8.04
-1 -7 -3 20.5 4.06
7 -8 3 15.91 5.13
-7 -1 3 18.04 4.19
1 7 3 35.58 6.49
-1 8 3 16.94 5.65
7 -8 3 21.06 6.2
8 -7 3 47.05 10.53
-1 8 3 19.47 7.51
8 -7 3 19.72 5.84
1 7 3 22.34 3.22
-7 8 -3 24.22 6.14
7 -8 0 291.43 18.56
-7 8 0 228.63 14.18
8 -7 0 401.06 25.15
-7 8 0 250.1 15.02
8 -7 0 410.06 35.91
-8 1 0 295.67 20.21
-8 7 0 231.7 12.67
-7 -1 0 318.91 22.27
7 -8 0 311.28 23.21
-1 8 0 252.24 20.97
-1 8 0 305.95 35.1
-1 8 0 261.89 15.2
-8 7 0 244.46 17.65
-7 -1 0 226.55 16.77
1 7 0 217.95 7.13
8 -1 0 254.71 19.65
1 -8 0 202.16 27.77
1 7 0 281.35 19.23
-1 -7 0 211.36 30.09
-1 -7 0 252.81 18.57
-7 8 0 302.11 18.23
1 7 0 242.7 20.1
8 -1 0 202.52 15.91
7 1 0 312.91 15.79
8 -7 0 312.89 16.04
-8 7 0 320.09 20.43
1 7 0 276.04 20.16
1 -8 0 384.23 23.98
-7 8 0 220.28 15.12
-7 8 0 270.07 20.98
8 -7 0 297.11 19.6
-1 8 0 283.8 21.27
7 -8 0 218.67 16.46
-7 8 0 330.62 38.2
7 1 0 244.21 16.34
-7 8 0 276.92 21.51
8 -7 0 262.16 18.83
7 1 0 182.15 16.31
1 7 0 257.08 16.22
7 -8 0 237.73 15.65
-8 1 -3 83.73 11.71
-1 -7 3 98.69 14.54
7 -8 -3 72.24 8.5
8 -1 3 48.81 5.23
-1 -7 3 76.81 11.61
7 -8 -3 83.56 13.68
1 7 -3 70.96 11.49
8 -7 -3 18.99 9.18
8 -1 3 94.05 11.66
-1 -7 3 75.01 16.11
7 1 3 79.04 10.3
7 1 3 99.52 8.25
-1 8 -3 89.92 17.77
1 -8 3 72.86 15.69
-8 7 3 89.87 11.64
1 -8 3 118.06 17.13
-7 8 3 71.73 9.85
-1 8 -3 72.23 13.03
1 -8 3 68.53 11.21
-7 8 3 77.88 9.85
-8 7 3 87.94 9.43
-1 8 -3 83.15 14.6
-1 8 -3 71.24 11.83
-7 -1 -3 74.57 11.27
-8 7 3 74.82 12.01
1 7 -3 85.46 11.59
8 -7 -3 94.95 12.54
8 -1 3 77.47 10.92
1 7 -3 92.98 12.36
-8 1 -3 69.83 10.71
7 1 3 68.78 9.71
8 -7 -3 81.61 9.9
-7 -1 -3 84.7 11.32
-7 8 3 74.54 13.12
-7 8 3 90.58 7.25
-8 7 3 86.32 8.44
-8 7 6 205.89 25.02
8 -7 -6 182.84 15.14
1 7 -6 194.52 16.13
-8 7 6 299.48 37.28
-1 8 -6 189.05 14.86
-8 1 -6 239.11 20.73
-7 8 6 197.79 25.71
-7 -1 -6 168.23 21.28
8 -1 6 207 20.73
8 -7 -6 337.48 39.3
-1 -7 6 282.89 28.79
7 -8 -6 245.44 29.77
-8 7 6 184.09 15.93
7 1 6 209.7 20.71
7 -8 -6 177.02 13.18
1 7 -6 207.69 23.95
1 -8 6 192.69 21.55
-1 8 -6 207.38 24.06
-7 8 6 290.77 35.08
-1 -7 6 229.26 8.01
-7 8 6 232.27 16.42
-1 8 -6 232.92 26.57
-1 -7 6 178.97 19.74
-1 -7 6 174.02 21.97
-7 8 6 210.42 16.36
-8 7 6 230.25 14.84
1 -8 6 174.23 20.11
1 -8 6 346.2 34.79
-7 -1 -6 234.78 19.67
-8 7 6 141.95 16.46
1 7 -6 226.77 21.25
-1 8 -6 2.37 10.8
-1 8 -6 242.51 23.72
-1 8 -6 229.55 27.92
-1 -7 6 205.72 11
-8 1 -6 170.01 19.34
8 -1 6 216.49 19.46
7 1 6 207.96 17.86
7 -8 -6 212.03 20.3
7 -8 -9 35.77 6.38
8 -7 -9 58.66 8.17
1 7 -9 58.94 11.53
-7 8 9 56.89 10
-8 7 9 53.2 14.71
-7 8 9 45.57 13.82
1 7 -9 48.37 12.63
-7 -1 -9 69.66 12.05
-8 7 9 46.7 9.05
-1 8 -9 67.21 10.83
8 -7 -9 43.34 8.3
-8 1 -9 47.69 12.32
-1 8 -9 53.33 14.44
7 -8 -9 42.72 9.6
-1 -7 9 41.49 10.67
1 -8 9 33.68 9.89
-1 -7 9 66.92 11.88
8 -1 9 49.72 10.46
7 1 9 55.04 10.37
-1 -7 9 43.92 8.97
1 -8 9 61.08 8.59
-7 -1 -9 39.15 11.86
-1 -7 12 328.46 37.88
-1 8 -12 559.03 52.36
-7 -1 -12 504.44 54.07
1 7 -12 721.19 44.15
7 1 12 595.67 43.59
-8 7 12 528.15 52.51
-7 8 12 568.89 36.34
1 -8 12 295.7 38.79
8 -1 12 607.19 41.99
-1 8 -12 588.11 38.05
-7 -1 -12 632.88 43.98
-8 1 -12 478.4 45.1
7 1 12 440.89 35.76
1 7 -12 557.34 49.95
-7 8 12 583.86 56.56
8 -7 -12 580.9 30.78
7 -8 -12 641.5 25.95
8 -1 12 519.38 40.12
-8 1 -15 14.51 8.68
-7 8 15 11.06 8.52
-1 8 -15 5.69 5.86
8 -1 15 15.67 7.52
1 7 -15 6.66 4.84
8 -7 -15 9.81 3.89
-7 -1 -15 10.45 8.99
-1 -7 15 -2.82 6.44
1 -8 15 -1.21 6.21
-7 -1 -15 11.37 6.44
-8 1 -15 5.05 3.05
-8 7 15 2.09 2.5
7 1 15 14.89 7.6
8 -1 15 11.87 6.77
7 -8 -15 6.39 3.03
7 1 15 12.5 6.57
-8 7 18 -1.81 5.84
-7 8 18 16.73 11.99
-1 8 -18 -0.21 3.32
-8 1 -18 5.7 3.66
-7 -1 -18 7.15 5.96
1 7 -18 4.49 3.78
-7 -1 -18 2.53 2.77
8 -1 18 3.23 4.48
-8 1 -18 9.05 6.66
-1 -7 18 -5.93 8.06
1 -8 18 -5.3 8.51
7 1 18 3.67 4.77
7 1 18 4.71 4.64
8 -1 18 -0.88 1.39
8 -1 21 1.75 2.33
7 1 21 -7.64 7.25
-7 -1 -21 4.46 6.23
-8 1 -21 -3.04 4.49
0 8 19 3.81 3.46
0 -8 -19 1.81 0.7
8 0 -19 -2.15 6.45
-8 8 -19 4.72 3.31
-8 0 19 -3.21 5.98
8 0 -16 1892.79 97.72
0 -8 -16 1896.02 67.91
-8 0 16 1420.93 82.29
0 8 16 2386.13 121.73
0 -8 -16 2019.76 119.32
-8 8 -16 1403.04 78.84
-8 0 16 1416.93 62.82
8 -8 16 1631.9 105.63
8 -8 13 1.84 1.77
8 0 -13 -0.51 1.53
0 -8 -13 0.8 0.41
0 -8 -13 2.5 5.16
-8 0 13 1.9 2.52
-8 8 -13 2.56 1.56
8 -8 13 13.01 12.61
0 -8 -13 2.25 3.3
8 -8 13 9.17 6.53
0 8 13 0.98 3.62
8 -8 10 1029.23 27.56
0 -8 -10 859.96 24.16
0 -8 -10 888.5 42.84
8 0 -10 656.57 46.04
-8 8 -10 809.01 47.28
0 8 10 882.94 66.96
0 -8 -10 781.16 69.16
8 -8 10 881.79 74.54
8 -8 10 694.87 38.15
8 0 -10 763.81 45.53
-8 8 -10 769.66 52.26
-8 0 10 931.11 49.51
-8 0 10 774.94 33.23
8 -8 10 653.16 47.51
-8 8 -10 638.35 44.46
0 -8 -10 1141.77 25.1
0 -8 -7 0.64 4.46
-8 8 -7 2.9 2.07
-8 8 -7 -0.59 2.15
8 -8 7 0.51 0.42
8 -8 7 -0.1 0.35
-8 0 7 -9.02 10.32
8 -8 7 3.52 2.51
0 8 7 1.22 0.98
-8 0 7 0.44 0.37
8 -8 7 2.63 2.49
8 -8 7 0.13 5.47
-8 0 7 0.04 1.1
8 -8 7 0.35 2.02
0 -8 -7 -1.86 3.17
8 0 -7 1.14 0.73
0 8 7 4.05 3.32
0 -8 -4 3022.23 125.22
8 0 -4 3216.12 76.01
-8 0 4 3830.88 85.52
8 -8 4 3604.7 72.41
-8 0 4 3154.63 69.34
0 8 4 4282.87 140.92
0 8 4 3454.22 77.25
8 -8 4 4167 98.73
8 -8 4 4140.66 54.55
8 -8 4 3600.98 78.62
-8 0 4 2519.19 57
0 8 4 2996.56 80.71
8 -8 4 2686.73 73.92
-8 8 -4 4069.99 88.27
-8 8 -4 3158.12 75.99
0 8 4 3379.62 67.47
-8 8 -4 3077.82 67.06
8 0 -4 3528.99 83.73
8 0 -1 3.09 2.57
0 8 1 1.11 0.94
0 8 1 -0.13 3.33
8 -8 1 3.27 3.28
8 -8 1 1.53 1.69
-8 0 1 0.96 1.37
0 -8 -1 1.76 3.69
-8 0 1 0.09 0.86
-8 8 -1 2 2.39
8 0 -1 0.66 0.94
8 -8 1 0.2 1.51
-8 8 -1 -0.25 1.35
0 -8 -1 0.79 1.22
0 8 1 1.39 1.73
-8 8 -1 2.34 1.77
0 8 1 3.53 2.76
8 -8 1 -1.46 1.79
0 8 1 0.91 0.92
0 8 1 1.16 1.48
8 -8 1 2.69 2.92
0 8 -2 13.69 4.36
8 -8 -2 18.02 7.8
-8 0 -2 14.32 5.38
8 0 2 3.51 4.64
0 8 -2 13.7 7
0 8 -2 14.6 4.9
-8 0 -2 18.02 5.55
0 -8 2 15.82 5.51
0 -8 2 18.43 8.54
8 -8 -2 19.35 6.16
0 8 -2 18.35 5.46
0 -8 2 20.56 6.75
8 0 2 17.65 5.03
-8 8 2 18.23 5.22
-8 8 2 16.28 4.96
8 -8 -2 19.44 5.11
-8 8 2 10.11 4.43
8 0 2 17.64 5.2
0 8 -2 11.54 4.85
-8 8 2 14.64 3.48
8 -8 -5 2.19 3.14
-8 8 5 1.09 2.04
-8 0 -5 0.01 2.33
-8 8 5 3.32 4.61
0 -8 5 1.13 2.22
0 8 -5 -0.44 2.03
-8 8 5 4.11 4.31
8 -8 -5 17.41 5.45
0 8 -5 -1.25 2.25
-8 8 5 -0.47 1.62
8 -8 -5 1.9 2.15
8 0 5 3.18 3.22
-8 0 -5 -1.04 1.8
0 -8 5 2.61 3.57
-8 8 5 0.5 0.94
8 0 5 0.37 1.48
0 8 -5 2.34 1.81
0 8 -5 -11.77 9.1
0 8 -8 601.5 33.13
-8 8 8 495.05 44.67
-8 8 8 566.13 30.6
0 8 -8 607.24 45.86
-8 8 8 522.6 26.65
8 -8 -8 486.42 25.06
0 -8 8 375.6 33.33
-8 0 -8 430.09 37.01
8 0 8 525.99 32.31
8 -8 -8 563.35 35.59
0 -8 8 526.54 33.32
0 -8 8 641.85 22.77
0 -8 11 1.95 1.74
-8 8 11 -0.96 1.59
0 8 -11 5.03 3.3
8 -8 -11 -0.26 2.3
0 8 -11 -3.45 4.82
-8 8 11 5.51 3.99
0 -8 11 -4.66 7.14
8 -8 -11 1.74 2.01
8 0 11 -1.31 2.69
-8 0 -11 -0.19 0.95
8 -8 -14 43.56 8.35
-8 8 14 48.71 17.29
0 8 -14 32.51 12.39
-8 0 -14 47.7 16.31
0 -8 14 8.51 3.73
-8 0 -14 49.38 13.35
8 0 14 30.27 10.84
8 0 14 38.08 11.85
-8 8 17 0.23 6.86
-8 0 -17 -0.07 3.6
8 0 17 3.3 4.91
0 -8 17 -9.73 10.12
-8 0 -17 0.57 1.87
8 0 17 0.64 0.81
0 8 -17 0.62 0.68
-8 0 -20 307.06 37.67
8 0 20 273.29 36.14
9 -4 -20 62.34 16.6
9 -4 -20 38.13 14.11
4 -9 -20 41.76 12.62
-4 -5 -20 55.45 17.97
-5 -4 20 13.61 5.21
-4 -5 -17 30.67 14.46
9 -4 -17 30.66 10.57
-4 9 17 37.59 14.8
9 -5 17 49.91 12.31
9 -4 -17 24.8 9.58
-5 -4 17 16.82 6.35
5 4 -17 52.68 17.91
4 -9 -17 27.19 8.82
-5 9 -17 28.66 13.12
-4 -5 -17 40.57 10.99
-9 5 -17 32.51 12.02
5 -9 17 16.88 9.53
-9 4 17 39.1 15.53
9 -5 17 27.07 11.66
4 5 17 42.81 14.86
-9 4 14 364.81 42.24
9 -4 -14 394.25 33.97
-4 9 14 384.63 47.43
-4 -5 -14 394.27 49.46
4 5 14 484.9 48.15
5 4 -14 474.38 47.68
-5 -4 14 281.64 30.62
9 -5 14 480.67 35.74
4 -9 -14 313.68 42.65
-5 9 -14 451.53 47.52
-4 -5 -14 487.63 25.66
-4 -5 -14 549.81 39.85
-9 5 -14 558.37 48.4
5 -9 14 214.84 35.28
4 5 14 401.76 36.26
-9 5 -14 298.53 36.39
9 -5 14 386.6 39.03
4 -9 -14 396.94 31.14
4 -9 -11 42.69 4.16
5 -9 11 123.65 15.36
-5 -4 11 61.2 11.94
-5 9 -11 46.66 14.05
9 -5 11 52.57 10.62
-4 9 11 45.99 14.64
5 4 -11 52.97 14.51
-5 9 -11 73.16 14.07
4 -9 -11 54.74 16.98
-4 -5 -11 33.34 14.29
-9 4 11 51.3 14.38
-4 -5 -11 67.02 13.25
-5 -4 11 41.16 9.88
9 -5 11 60.57 13.92
5 -9 11 25.22 9.57
4 5 11 91.01 14.75
9 -4 -11 32.51 8.71
4 -9 -11 61.97 5.88
9 -5 11 36.77 10.88
4 -9 -11 48.66 9.62
4 5 11 55.82 14.82
-9 5 -11 31.64 6.58
-9 5 -11 38.94 11.87
-9 4 8 20.21 7.59
-9 5 -8 3.04 1.58
4 5 8 18.95 7.96
-4 9 8 6.31 3.32
4 -9 -8 12.22 8.15
5 4 -8 19.66 7.62
9 -5 8 12.43 4.2
-5 9 -8 11.03 6.32
-4 -5 -8 4.96 3.19
5 -9 8 16.11 5.05
9 -4 -8 10.78 4.98
-9 5 -8 13.38 4.25
-4 -5 -8 6.53 2.45
-4 -5 -8 9.51 3.66
-5 -4 8 9.4 4.39
-5 9 -8 6.85 4.34
4 -9 -8 8.89 4.05
5 -9 8 21.36 10.46
-9 4 8 7.35 1.65
-5 -4 8 13.39 4.43
-9 4 8 4.11 0.95
-5 9 -8 4.05 1.26
9 -5 8 7.07 4.32
4 5 8 17.06 4.89
9 -4 -5 88.06 12.65
-4 9 5 112.46 18.31
4 -9 -5 91.79 13.19
5 4 -5 75.55 12.91
-9 4 5 113.37 14.22
-5 9 -5 80.28 14.33
5 -9 5 110.77 10.34
9 -5 5 105.07 13.9
4 -9 -5 71.45 17.68
-5 -4 5 93.55 14.43
-5 -4 5 98.77 9.84
-5 9 -5 63.09 10.39
-5 9 -5 94.89 17.71
9 -4 -5 113.5 20.1
5 4 -5 88.94 12.07
-4 9 5 114.23 23.45
5 4 -5 70.02 11.76
-4 -5 -5 79.2 19.68
-5 -4 5 77.83 11.59
-9 4 5 84.98 12.78
-5 9 -5 84.48 16.21
9 -5 5 62.22 7.99
5 -9 5 105.42 16.13
-5 -4 5 84.91 11.22
-9 5 -5 97.91 14.28
-5 9 -5 70.47 13.98
-5 9 -5 146.2 19.17
-5 9 -5 65.8 9.11
-4 9 5 81.06 11.62
9 -5 5 108.74 14.75
4 5 5 86.3 9.16
-9 5 -5 76.24 11.7
4 5 5 91.93 12.84
4 5 5 98.72 8.42
9 -5 2 1484.08 54.5
9 -4 -2 1470.37 62.21
-5 9 -2 967.98 26.73
-9 5 -2 870.03 36.24
-5 9 -2 1013.35 45.65
-5 9 -2 834.14 21.86
4 5 2 956.63 30.95
5 4 -2 997.2 39.32
4 5 2 846.81 27.78
-4 9 2 840.64 43.22
-4 -5 -2 1040.62 33.42
-9 5 -2 1209.07 44.61
-9 4 2 1179.89 43.49
4 -9 -2 936.98 61.29
-4 9 2 1108.4 41.72
-4 9 2 1300.21 74.97
9 -5 2 710.86 27.67
-5 9 -2 1020.23 60.87
4 -9 -2 1018.72 43.27
9 -5 2 1193.5 40.84
-4 9 2 723.67 24.2
-5 9 -2 1034.12 36.68
4 5 2 1117.93 40.22
5 -9 2 996.58 39.83
-4 9 2 980.71 28.28
-5 9 -2 1203.89 47.71
9 -5 2 1571.45 53.88
5 4 -2 991.34 27.96
-4 9 2 1086.09 19.68
9 -4 -2 969.19 39.14
5 -9 2 1081.48 51.1
-4 -5 -2 1023.19 47.88
-5 9 -2 802.17 44.64
-5 9 -2 990.34 37.2
9 -5 2 987.59 40.49
-9 4 2 1208.51 40.12
-4 9 2 1046.77 43.12
-4 -5 -2 863.14 63.83
-5 -4 2 1099.86 34.13
4 5 2 1002.67 33.34
-4 9 -1 118.18 15.27
-9 4 -1 181.25 16.64
-4 9 -1 103.04 7.45
-5 9 1 111.55 13.16
-9 5 1 121.23 13.41
4 -9 1 134.99 21.65
4 -9 1 120.88 13.8
-5 9 1 170.48 25.62
-4 9 -1 150.35 24.44
-5 9 1 137.36 10.43
-4 -5 1 126.45 24.95
-9 5 1 143.33 13.43
-9 4 -1 144.18 14.42
9 -5 -1 148.77 6.2
4 5 -1 153.57 9.73
-5 9 1 139.31 14.89
-4 9 -1 112.54 12.18
-5 9 1 98 12.47
9 -4 1 233.8 20.15
5 4 1 142.09 11.32
5 -9 -1 124.81 13.83
-4 9 -1 143.78 15.66
-4 9 -1 135.38 13.23
-4 9 -1 144.76 13
-5 -4 -1 146 16.29
-4 -5 1 152.73 14.4
9 -4 1 181.79 14.08
9 -4 1 87.62 11.83
-5 9 1 136.57 15.53
5 4 1 115.28 11.69
9 -5 -1 127.1 13.86
-5 9 1 150.99 10.14
-4 9 -1 106.14 13.37
4 5 -1 138.62 13.92
-4 -5 4 444.72 32.12
-9 5 4 391.88 25.09
9 -4 4 406.4 26.21
5 4 4 376.44 23.09
-5 9 4 315.53 27.68
-4 -5 4 465.37 19.29
4 5 -4 329.4 25.28
-5 9 4 371.28 13.85
-4 -5 4 346.24 23.13
-4 9 -4 356.95 29.53
-9 5 4 379.07 25.64
5 4 4 419.56 16.77
5 -9 -4 318.34 35.43
9 -4 4 333.32 16.79
-5 9 4 509.49 46.95
-4 9 -4 464.4 41.62
-5 -4 -4 308.65 39.48
-4 -5 4 401.26 43.2
-4 9 -4 309.92 28.39
5 -9 -4 416.15 28.49
-4 -5 4 332.7 23.01
4 -9 4 345.53 26.53
4 -9 4 454.55 17.18
-4 9 -4 420.49 30.6
-9 4 -4 449.56 28.48
5 -9 -4 366.5 16.68
4 5 -4 353.4 22.03
-5 -4 -4 319.63 30.69
-4 9 -4 443.56 33.52
4 5 -4 342.7 25.55
-4 9 -4 273.08 16.08
9 -5 -4 336.28 23.26
-5 9 4 419.66 25.58
9 -4 4 378.03 26.37
5 4 4 301.05 18.18
-9 4 -4 326.59 23.58
-4 9 -4 390.39 24.56
-5 -4 -4 384.8 22.51
9 -5 -4 638.08 50.65
5 -9 -7 142.03 16.07
-5 -4 -7 137.67 14.14
4 5 -7 134.12 15.68
4 5 -7 117.36 18.07
-9 5 7 131.72 15.49
-4 -5 7 103.14 14.18
4 -9 7 166.72 13.24
5 -9 -7 146.76 21.32
4 -9 7 135.28 21.5
-4 -5 7 121.1 21.39
-4 -5 7 140.67 19.89
-9 5 7 88.88 5.12
-5 -4 -7 97.31 22.27
-4 9 -7 109.44 19.04
-4 -5 7 146.17 12.2
-5 9 7 108.17 9.45
-5 9 7 127.38 14.96
9 -5 -7 99.12 13.78
-9 5 7 123 17.08
-9 5 7 97.83 16.83
5 -9 -7 96.09 20.47
4 5 -7 109.14 14.8
-4 9 -7 182.44 25.62
9 -4 7 144.6 17.91
5 4 7 131.99 13.21
9 -4 7 134.98 9.61
-9 4 -7 94.37 14.29
5 -9 -7 107.08 5.92
-4 9 -7 162.22 24
5 4 7 153.7 19.54
-5 9 7 119.1 20.05
9 -5 -7 156.49 15.75
-9 5 10 61.63 15.04
-5 9 10 57.7 15.67
-4 9 -10 68.64 8.55
5 4 10 99.97 17.68
5 -9 -10 58.52 5.69
-4 9 -10 53.7 11.88
-9 5 10 99.18 18.67
5 -9 -10 50.05 15.56
-4 -5 10 75.86 13.84
-4 9 -10 49.32 14.41
4 5 -10 73.68 16.51
4 -9 10 71.79 19.87
-5 -4 -10 47.75 15.94
-5 9 10 71.05 9.89
-4 -5 10 43.12 10.18
5 -9 -10 87.05 10.09
5 4 10 79.64 12.46
-4 -5 10 92.09 12.32
-5 -4 -10 68.69 10.24
9 -4 10 55.64 12.3
5 -9 -10 71.5 11.98
-9 4 -10 54.03 13.12
9 -5 -10 61.59 11.02
-9 5 13 75.11 18.6
9 -4 13 81.27 14.61
-5 9 13 62.8 18.5
4 5 -13 87.9 20.68
5 4 13 76.65 17.6
-4 -5 13 78.18 8.48
-5 -4 -13 73.72 21.05
5 -9 -13 76.35 4.91
-5 -4 -13 101.35 17.61
-5 9 13 99.03 15.41
-4 9 -13 80.38 19.74
-9 4 -13 84.29 18.34
-4 -5 13 55.23 13.65
4 -9 13 35.03 13.23
5 4 13 82.89 15.47
9 -4 13 70.75 16.03
-9 4 -13 49.76 13.44
5 -9 -13 64.02 12.27
4 -9 13 122.68 17.3
-5 -4 -13 107.83 14.94
9 -5 -13 86.94 14.69
-5 9 16 290.98 44.23
9 -4 16 427.93 37.43
4 5 -16 387.02 46.33
-9 5 16 347.69 45.84
-5 -4 -16 303.44 43.73
-4 9 -16 344.59 44.9
5 4 16 371.49 43.46
-5 -4 -16 536.87 43.34
-9 4 -16 346.79 39.32
-4 -5 16 169.84 26.51
4 -9 16 178.24 30.99
9 -4 16 327.34 38.65
5 -9 -16 292.17 29.74
9 -5 -16 296.46 30.79
5 4 19 26.57 11.72
9 -4 19 34.68 11.03
9 -5 -19 37 12.3
5 -9 -19 31.85 10.89
4 5 -19 44.91 17.65
-5 -4 -19 39.51 14.51
-9 5 19 44.52 18.76
-5 -4 -19 42.78 13.03
-9 4 -19 40.87 13.98
-4 -5 19 8.52 4.73
4 -9 19 17.1 7.69
-4 9 -19 46.6 16.33
-5 9 19 47.22 19.81
9 -3 -21 12.91 9.63
-3 9 18 16.72 11.48
-9 3 18 20.82 11.83
3 -9 -18 13.83 6.48
3 6 18 16.65 8.09
6 3 -18 20.82 10.95
3 -9 -18 8.31 7.14
-3 -6 -18 13.16 7.06
9 -3 -18 12.59 7.68
-6 9 -18 19.65 10.93
-9 6 -18 20 10.29
-6 -3 18 1.6 3.18
6 -9 18 9.69 7.5
9 -3 -18 9.21 4.75
-9 3 15 2.29 3.72
9 -6 15 -2.5 2.95
9 -3 -15 -0.02 3.46
3 6 15 4.64 4.77
6 3 -15 0.04 1.2
3 -9 -15 -0.4 5.19
-3 -6 -15 -2.81 2.14
-3 -6 -15 -2.8 4.2
3 -9 -15 0.31 1.28
-3 9 15 -0.69 3.34
-6 9 -15 -0.69 1.77
-9 6 -15 3.48 3.29
6 -9 15 3.17 5.62
-9 3 15 0.94 3.26
9 -6 15 2.36 1.96
-3 -6 -15 0.11 1.99
-6 -3 15 -0.53 4.38
9 -3 -15 3.86 2.82
-3 -6 -12 1347.54 55.25
6 -9 12 1551.43 59.85
-3 9 12 1001.01 73.43
9 -6 12 1364.42 53.65
6 3 -12 1063.55 65.54
3 6 12 1134.6 73.1
3 -9 -12 984.99 77.36
-6 9 -12 1249.95 57.6
-9 3 12 871.12 60.67
-3 -6 -12 818.13 70.22
9 -3 -12 1045.87 53.38
-6 9 -12 934.65 63.42
-3 -6 -12 1027.97 42.38
-6 -3 12 754.82 43.66
-9 6 -12 843.57 38.97
-9 6 -12 1061.07 62.95
6 -9 12 589.46 59.82
-9 3 12 781.5 35.2
3 6 12 1149.96 54.68
9 -6 12 1232.8 59.56
9 -6 12 853.34 55.43
-9 6 -12 1006.03 62.7
3 -9 -12 953.83 17.47
3 -9 -12 992.92 45.91
-9 6 -9 14.49 6.67
-9 3 9 8.22 4.66
3 6 9 9.94 6.55
-6 9 -9 0.84 1.79
9 -6 9 5.07 1.09
9 -6 9 5.86 3.47
3 6 9 9.32 6.19
3 -9 -9 8.91 7.22
-6 9 -9 14.15 6.5
9 -3 -9 7.01 3.15
-3 -6 -9 9.55 6.9
6 -9 9 6.28 2.96
-3 9 9 10.2 6.1
-6 -3 9 5.05 2.65
-9 3 9 5.98 1.97
6 -9 9 12.74 8.05
3 -9 -9 3.19 2.19
-3 -6 -9 12.43 4.41
-3 -6 -9 8.89 2.86
-9 6 -9 3.16 2.01
-6 -3 9 14.4 4.96
-9 3 9 9.15 4.76
3 6 9 9.93 4.4
9 -6 9 1.43 0.57
-6 9 -9 2.97 2.97
6 3 -9 4.31 3.11
6 3 -6 4.08 0.51
-6 9 -6 9.86 3.98
-6 9 -6 8.91 5.37
-3 -6 -6 10.29 6.38
3 6 6 8.61 4.66
-9 6 -6 10.52 4.23
3 6 6 13.52 3.29
-6 -3 6 13.75 5.66
-6 -3 6 15.18 4.28
3 -9 -6 6.21 5.6
-6 -3 6 9.76 3.54
-3 9 6 9.74 3.94
6 3 -6 25.89 7.66
9 -6 6 17.75 6.18
6 -9 6 17.6 5
6 -9 6 6.58 3.41
-6 9 -6 9.33 5.69
-9 6 -6 12.79 4.47
6 3 -6 0.8 0.88
9 -6 6 19.92 11.86
-9 3 6 12.73 5.27
6 -9 6 11.82 4.61
3 -9 -6 16.38 6
-6 9 -6 14.79 6.76
6 -9 6 9.06 5.18
-3 9 6 12.69 7.47
9 -3 -6 13.45 5.15
9 -6 6 11.44 5.13
3 6 6 13.37 3.66
-6 9 -6 16.72 6.79
9 -3 -6 6.29 1.29
9 -6 3 5.4 4
-9 6 -3 3.3 1.92
9 -3 -3 3.94 2.6
-3 9 3 5.33 4.32
9 -3 -3 4.29 3.53
-6 9 -3 5.87 3.27
-3 -6 -3 6.37 2.75
3 6 3 6.42 3.16
-9 6 -3 5.03 3.51
-6 -3 3 6.27 3.69
-6 9 -3 6.53 5.26
-3 9 3 6.7 5.48
-3 -6 -3 4.79 5.21
-9 3 3 5.03 3.06
3 6 3 4.61 2.25
-6 -3 3 3.62 2.45
-6 -3 3 14.16 4.18
3 6 3 4.24 2.96
-3 9 3 10.22 4.16
6 -9 3 1.28 2.18
6 3 -3 2.61 2.01
-6 9 -3 7.89 3.47
9 -6 3 3.13 2.22
-6 9 -3 6.64 4.07
9 -6 3 6.36 3.09
-6 9 -3 3.96 4.26
-9 3 3 7.69 3.14
3 6 3 3.49 2.56
6 -9 3 2.97 1.7
-9 3 3 7.04 3.77
-6 9 -3 2.99 2.62
6 -9 3 4.6 3.77
3 -9 -3 6.64 3.61
6 3 -3 5.82 3.45
-3 9 3 9.26 3.99
9 -6 3 2.01 0.66
-6 9 -3 0.78 1.12
9 -3 0 538.9 31.95
6 3 0 400.24 23.5
-9 6 0 473.7 27.14
-6 -3 0 492.81 26.66
-6 9 0 433.55 22.74
-9 6 0 418.91 13.18
-9 3 0 414.19 25.25
-9 6 0 415.4 24.54
-3 9 0 378.45 28.61
-3 9 0 442.79 13.43
-3 -6 0 458.15 26.59
-6 9 0 596.17 47.91
6 3 0 500.5 21.82
-3 9 0 328.26 19.11
3 6 0 460.67 15.22
-3 -6 0 447.94 46.87
-9 3 0 529.27 27.83
-3 9 0 510.55 29.27
3 6 0 517.25 27.11
3 -9 0 420.34 26.3
-3 9 0 505.35 21.6
9 -3 0 388.44 23.33
6 -9 0 380.78 22.08
3 6 0 508.15 27.41
9 -6 0 481.54 16.58
9 -6 0 448.57 25.58
-6 9 0 475.34 28.16
3 6 0 415.69 27.03
-6 9 0 394.46 22.58
-3 9 0 551.95 48.79
-3 9 0 559.69 28.5
-6 9 0 433.47 19.57
-3 -6 0 455.68 25.54
6 -9 0 417.09 26.13
3 6 0 446.52 23.41
9 -6 0 420.41 25.48
-6 9 0 476.87 30.09
-3 9 0 430.17 28.31
6 3 0 463.72 22.6
-6 -3 0 490.87 27.04
-6 9 0 548.57 23.21
6 3 0 512.79 25.1
9 -3 0 402.11 25.51
3 -9 0 452.43 41.2
3 6 -3 17.78 4.6
-6 -3 -3 24.96 6.05
9 -3 3 26.58 6.87
-9 6 3 21.95 5.05
6 3 3 20.79 5.2
-6 -3 -3 24.66 6.99
3 6 -3 28.05 6.96
-9 3 -3 28.23 6.92
6 3 3 30.75 6.42
-6 9 3 25.82 7.29
9 -6 -3 20.31 5.79
6 3 3 30.8 5.74
6 -9 -3 19.78 6.44
9 -3 3 29.56 7.01
-9 3 -3 26.54 6.77
-3 9 -3 27.69 6.34
3 -9 3 28.35 9.84
-6 9 3 31.88 11.75
-3 9 -3 25.15 10.31
-6 9 3 24.32 2.84
-3 -6 3 21.33 9.45
-3 -6 3 21.29 6.26
-3 9 -3 16.33 5.58
3 -9 3 28.33 7.32
6 3 3 24.8 4.13
-6 9 3 28.71 6.38
3 6 -3 27.48 6.19
-3 9 -3 31.97 8.18
-9 6 3 24.01 6.41
6 -9 -3 38.32 8.79
-3 9 -3 23.39 3.73
-6 9 3 28.7 5.92
6 -9 -3 23.57 4.56
9 -6 -3 22.05 5.87
3 6 -3 22.51 5.66
-3 9 -3 30.61 8.74
-3 -6 3 34.46 5.31
-3 9 -3 25.6 7.94
9 -3 3 36.39 5.23
9 -6 -6 663.38 33.17
-9 6 6 643.58 43.38
-6 -3 -6 803.44 34.92
9 -6 -6 1398.74 80.84
-3 9 -6 273.8 27.16
3 6 -6 643.51 41.22
-6 9 6 766.95 27.57
-3 -6 6 788.64 22.76
6 -9 -6 824.46 49.73
-3 9 -6 804.08 55.49
-3 -6 6 1099.57 55.35
-6 9 6 662.43 44.64
-3 -6 6 643.79 50.74
-3 9 -6 710.5 44.48
3 -9 6 936.1 23.14
-6 9 6 786.69 35.42
6 -9 -6 769.38 38.12
-3 9 -6 713.78 24.9
-6 -3 -6 855.82 36.58
-3 -6 6 661.3 36.37
-9 6 6 676.28 38.06
3 -9 6 730.28 44.55
-9 6 6 686.65 19.42
3 6 -6 864.76 39.41
6 3 6 841.43 40.86
-3 9 -6 900.45 57.75
-6 -3 -6 766.53 52.15
3 6 -6 761.57 35.06
9 -3 6 754.96 38.69
-9 3 -6 615.12 35.35
6 3 6 673.89 30.32
6 -9 -6 670.01 20.37
9 -3 6 818.18 16.93
-9 6 6 1057.71 41.81
3 -9 9 157.58 14.22
-6 -3 -9 112 13.89
9 -6 -9 106.55 13.04
-6 9 9 95.02 19.63
-3 9 -9 101.86 11.53
3 6 -9 119.35 20.64
-6 -3 -9 89.64 23.32
-3 -6 9 107.2 16.67
-3 9 -9 113.56 20.92
3 6 -9 97.11 14.9
-3 -6 9 76.24 13.79
-9 6 9 94.76 18.85
-3 -6 9 93.37 10.47
-3 9 -9 107.83 17.72
6 -9 -9 95.12 8.24
3 -9 9 88.96 18.89
9 -3 9 120.04 17.7
6 3 9 78.98 12.1
-9 3 -9 83.34 15.6
-9 6 9 82.49 14.86
6 -9 -9 101.54 14.48
-6 9 9 108.47 12.51
6 -9 -12 46.57 7.39
-9 6 12 47.19 14.93
-3 9 -12 56 11.03
-6 9 12 29.01 11.79
9 -6 -12 37.27 8.89
9 -3 12 42.18 10.6
6 3 12 41.14 12.12
-3 -6 12 56.49 8.17
6 -9 -12 44.54 10.35
-6 9 12 58.95 11.2
-6 -3 -12 39.81 14.95
-3 9 -12 51.01 15.69
-6 -3 -12 61.8 13.47
-3 -6 12 31.58 10.4
3 -9 12 7.58 2.8
6 -9 -12 74.92 12.64
3 6 -12 55.69 16.05
6 3 12 49.09 11.95
9 -3 12 36.14 9.72
-9 3 -12 35.56 11.72
-6 -3 -15 90.47 22.98
-9 6 15 115.01 26.03
-6 9 15 100.77 25.69
9 -3 15 137.08 21.39
-3 9 -15 140.81 28.73
-6 -3 -15 143.63 22.96
3 6 -15 98.13 23.72
-9 3 -15 135.49 23.92
-3 -6 15 45.19 13.44
3 -9 15 43.66 14.23
6 3 15 119.01 20.87
9 -3 15 100.78 20.37
9 -6 -15 96.84 15.99
6 -9 -15 105.07 17.83
6 3 15 122.37 23.49
9 -3 18 131.92 22.58
6 3 18 126.6 25.77
-6 9 18 121.86 31.56
-9 6 18 122.76 30.04
3 6 -18 129.99 29.39
-6 -3 -18 103.22 24.05
9 -6 -18 136.93 20.86
-9 3 -18 126.15 24.33
-3 9 -18 117.35 29.17
-6 -3 -18 150.98 24.17
-3 -6 18 32.9 11.18
3 -9 18 42.52 14.31
9 -3 18 97.18 21.61
6 -9 -18 109.77 20.71
6 -9 -21 31.36 11.6
9 -3 21 45.97 13.55
-3 -6 21 7.04 3.54
-2 -7 -19 11.28 7.49
-9 2 19 10.82 7.74
2 -9 -19 8.15 5.47
9 -2 -19 20.85 9.72
-2 9 19 25.48 12.74
7 2 -19 23.72 11.95
2 7 19 16.83 11.16
2 -9 -19 14.98 6.75
-7 9 -19 14.08 9.26
-9 7 -19 15.89 9.85
-7 -2 19 -0.78 3.72
7 -9 19 21.39 12.37
9 -2 -19 26.82 10.87
9 -7 16 175.34 19.19
-2 -7 -16 116.03 27.87
2 7 16 170 31.33
7 2 -16 152.37 28.5
-9 2 16 117.24 24.78
-2 9 16 139.95 30.46
2 -9 -16 131.7 18.46
2 -9 -16 108.23 26.81
-7 9 -16 134.51 25.53
-9 7 -16 124.31 24.03
-7 -2 16 99.96 17.66
-9 2 16 84.01 14.67
7 -9 16 85.8 22.06
9 -7 16 147.39 26.17
9 -2 -16 126.08 24.49
9 -2 -16 152.4 23.87
9 -2 -13 32.24 9.93
2 7 13 39.8 14.44
2 -9 -13 27.25 13.86
-9 2 13 25.14 10.79
-2 9 13 33.28 14.05
9 -7 13 38.34 8.13
7 2 -13 22.84 10.2
9 -7 13 41.22 10.52
-2 -7 -13 21.21 11.82
-2 -7 -13 42.4 8.82
-7 9 -13 29.18 11.36
-7 -2 13 21.37 6.74
2 -9 -13 30.88 8.25
-9 2 13 20.73 6.04
-9 7 -13 30.21 11.79
-9 7 -13 28.43 8.28
9 -7 13 32.22 11.25
-2 -7 -13 35 8.5
7 -9 13 15.56 9.2
-9 7 -13 14.61 6.28
7 -9 13 43.13 6.91
-9 2 10 123.68 10.81
7 -9 10 180.44 19.49
7 2 -10 113.49 19.56
-2 9 10 108.05 23.26
9 -7 10 125.83 13.79
-7 9 -10 119.46 21.26
2 7 10 132.45 24.4
-2 -7 -10 127.04 10.08
-7 9 -10 152.46 20.21
2 -9 -10 119 27.04
-2 -7 -10 109.49 25.61
-7 -2 10 100.15 15.2
-2 -7 -10 230.53 18.22
-2 -7 -10 159.05 18.21
9 -2 -10 119.2 17.19
-7 -2 10 88.51 12.61
-9 2 10 126.2 19.26
9 -7 10 102.32 13.28
-9 7 -10 124.85 20.64
9 -7 10 184.37 40.44
7 -9 10 97.06 23.77
2 7 10 118.03 14.44
7 -9 10 107.03 21.04
-7 9 -10 96.91 16.91
9 -7 10 77.71 15.72
-9 7 -10 143.55 20.77
-9 7 -10 75.67 12.01
2 -9 -10 142.21 17.41
-7 9 -7 107.36 17.38
9 -7 7 104.32 10.11
7 -9 7 119.1 14.42
-2 9 7 112.98 22.14
2 -9 -7 132.62 16.41
7 -9 7 149.16 16.1
2 7 7 128.05 20.41
-7 9 -7 139.38 20.46
2 -9 -7 109.72 24.91
-2 -7 -7 112.37 24.69
-7 -2 7 109.49 12.05
-7 -2 7 117.59 13.87
-2 -7 -7 121.85 10.79
-9 2 7 118.75 16.56
-7 9 -7 118.19 19.57
7 -9 7 136.65 24.12
-2 -7 -7 170.42 14.19
9 -7 7 208.35 39.85
-2 -7 -7 117.83 8.31
7 -9 7 108.26 18.95
2 7 7 110.09 10.77
9 -7 7 109.85 16.67
-7 9 -7 107.27 15.06
2 7 7 128.6 19.24
-9 7 -7 113.5 15.35
9 -2 -7 150.52 17.76
-7 -2 7 116.17 18.81
-9 7 -7 84.77 12.28
7 2 -7 101.69 15.44
2 7 4 532.45 24.35
-7 9 -4 553.24 34.39
9 -2 -4 598.98 37.83
9 -2 -4 405.15 28.58
-7 -2 4 599.97 34.66
-7 9 -4 584.89 30.18
-2 9 4 478.71 42
-2 -7 -4 492.92 21.45
-7 9 -4 566.93 45.39
-9 2 4 513.65 30.15
9 -7 4 1042.13 49.53
9 -7 4 342.71 23.53
-2 -7 -4 448.61 48.49
-7 -2 4 462.98 24.39
2 -9 -4 545.5 33.42
-9 2 4 273.44 27.43
2 7 4 548.12 31.5
-2 9 4 545.9 31.17
7 -9 4 604.26 36.87
9 -7 4 760.94 45.62
7 2 -4 590.42 23.87
2 -9 -4 434.8 46.82
-7 9 -4 361.6 30.47
7 -9 4 496.53 35.54
9 -7 4 311.71 24.96
-7 -2 4 510.07 25.42
2 7 4 522.31 27.52
-7 9 -4 715.66 37.32
2 7 4 505.02 17.49
-2 9 4 576.13 31.22
-7 9 -4 560.11 27.03
-9 7 -4 668.52 36.64
-9 7 -4 466.4 27.77
7 2 -4 558.33 32.8
7 2 -1 474.99 27.62
-7 -2 1 471.93 24.95
-2 9 1 485.23 29.11
9 -7 1 697.05 32.88
-2 9 1 573.57 30.12
-2 9 1 454.11 16.42
2 7 1 468.93 20.17
-9 7 -1 372.93 22.85
2 7 1 459.92 15.23
-7 -2 1 574.74 31.1
-9 2 1 469.89 27.17
-7 9 -1 395.62 20.07
7 -9 1 472.64 17.89
-2 9 1 431.33 32.62
2 7 1 548.5 27.86
-2 -7 -1 378.54 24.83
-7 9 -1 614.52 51.5
2 -9 -1 413.99 41.52
-7 9 -1 517.71 23.47
2 7 1 446.97 25.95
-2 -7 -1 412.87 46.05
-2 9 1 600.73 52.62
7 -9 1 414.92 28.32
-9 7 -1 580.03 18.86
9 -2 -1 400.32 10.15
2 7 1 530.27 29.13
7 2 -1 559.89 22.94
-2 9 1 535.38 30.03
9 -7 1 515.97 21.51
9 -7 1 576.83 29.56
9 -2 -1 576.68 28.51
-2 9 1 436.39 13.64
-7 9 -1 543.8 32.56
-9 7 -1 329.83 23.08
9 -2 -1 565.29 33.03
7 -9 1 468.75 28.34
-2 9 1 474.09 19.38
7 2 -1 544.71 24.9
7 -9 1 486.09 25.35
9 -7 1 440.78 26.69
2 7 1 490.38 22.68
-7 9 -1 477.43 31.1
9 -2 -1 419.32 26.81
-7 9 -1 516.46 25.56
-9 2 1 554.39 29.19
-7 9 2 355.38 26.81
7 2 2 294.87 16.95
7 2 2 386.17 23.97
7 -9 -2 550.5 33.13
2 -9 2 368.28 35.57
-7 -2 -2 523.43 28.83
7 -9 -2 446.52 27.75
-2 9 -2 420.95 30.5
7 2 2 447.23 24.19
-2 9 -2 416.31 28.03
-2 -7 2 426.49 29.89
9 -2 2 405.89 24.44
-2 -7 2 358 41.27
-2 9 -2 462 44.77
-7 9 2 363.64 20.85
2 7 -2 390.52 23.73
2 -9 2 341.69 24.76
2 7 -2 437 26.31
-7 9 2 421.3 25.29
-2 9 -2 440.22 26.33
-2 9 -2 452.98 28.39
-7 9 2 412.19 19.28
-9 2 -2 486.21 29.54
-9 7 2 310.87 21.79
-2 9 -2 463.3 33.4
2 7 -2 465.54 27.67
7 -9 -2 341.69 19.3
-9 2 -2 464.02 27.27
-7 -2 -2 375.27 26.05
-9 2 -2 311.86 22.19
9 -7 -2 358.25 22.81
9 -2 2 397.25 25.64
9 -7 -2 420.87 26.47
-7 9 2 558.54 50.19
-9 7 2 437.88 21.77
2 7 -2 384.47 24.48
-9 7 5 773.82 45.32
-7 9 5 810.13 49.72
-7 -2 -5 1120.75 43.18
-9 7 5 962.22 37.83
2 7 -5 958.91 48.85
2 -9 5 773.24 47.72
-2 9 -5 924.64 48.5
-2 -7 5 859.51 58.07
-2 9 -5 1025.71 62.55
-2 -7 5 1182.83 57.1
9 -2 5 712.34 16.78
-7 -2 -5 954.6 39.55
7 2 5 1053.81 44.01
-9 7 5 468.15 30.74
9 -7 -5 1577.92 89.57
-2 -7 5 782.39 39.73
-7 9 5 986.3 38.6
2 -9 5 789.73 43.28
-9 7 5 878.83 27.1
2 7 -5 1007.94 42.86
-7 9 5 845.98 37.46
9 -7 -5 783.68 33.6
2 7 -5 860.09 34.39
-2 9 -5 830.26 43.74
-2 9 -5 1173.38 64.42
-7 -2 -5 813.81 48.56
-2 9 -5 859.31 27.07
9 -7 -5 875.68 41.39
9 -2 5 800.89 38.13
-9 2 -5 746.23 38.76
7 -9 -5 846.12 27.27
7 2 5 762.01 33.34
7 -9 -5 954.11 43.23
2 7 -5 248.43 27.03
-7 9 5 1042.9 31.94
-9 7 8 100.99 19.47
-7 9 8 88.53 18.8
-2 9 -8 123.74 13.25
2 -9 8 133.79 10.36
2 -9 8 102.42 18.7
2 7 -8 87.24 17.36
-2 9 -8 49.66 13.07
-7 9 8 124.58 13.74
7 -9 -8 132.38 24.11
-2 -7 8 113.72 17.75
-2 9 -8 91.92 16.66
-2 -7 8 129.92 9.85
-7 9 8 98.29 12.91
-9 7 8 112.21 10.32
-2 -7 8 75.92 13.97
2 -9 8 176.2 28.41
-9 7 8 94.88 14.94
-9 7 8 126.69 15.32
-7 -2 -8 90.72 18.52
9 -2 8 80.55 13.27
-9 2 -8 90.19 16.1
7 2 8 101.61 13.33
-7 -2 -8 136.55 15.75
2 7 -8 93.71 13.37
7 -9 -8 111.79 15.54
7 -9 -8 113.63 10.42
9 -7 -8 85.54 12.18
7 -9 -11 667.59 28.86
-9 7 11 669.2 56.06
-7 -2 -11 634.51 64.3
2 7 -11 785.71 45.61
-7 9 11 682.06 58.22
-2 -7 11 777.6 33.58
-2 9 -11 866.16 63
-7 9 11 717.02 38.25
2 -9 11 435.64 47.6
2 7 -11 732.9 55.79
7 2 11 586.31 38.17
-9 2 -11 427.69 40.7
9 -2 11 648.14 43.67
7 -9 -11 696.49 42.16
-2 -7 11 480.45 41.66
2 -9 11 968.3 40.36
-2 9 -11 742.6 38.26
9 -7 -11 601.96 31.73
-9 7 14 353.49 45.38
-7 9 14 324.1 45.64
9 -2 14 353.17 34.55
7 2 14 386.61 40
-2 9 -14 380.89 47.21
-7 -2 -14 355.65 46.27
-2 -7 14 203.79 30.68
-7 -2 -14 436.88 39.37
2 -9 14 123.48 25.8
-9 2 -14 419.44 40.85
2 7 -14 410.5 46.62
7 2 14 323.9 33.16
9 -2 14 279.72 32.79
7 -9 -14 364.21 33.44
9 -7 -14 348.07 27.84
7 -9 -14 373.74 19
-9 7 17 287.65 45.9
-2 9 -17 293.03 46.36
9 -2 17 298.67 34.5
7 2 17 287.27 37.37
2 7 -17 305.82 43.97
-7 -2 -17 255.79 38.53
-9 2 -17 364.6 41.18
-7 -2 -17 415.74 40.34
7 2 17 243.96 31.67
-2 -7 17 135.99 25.4
2 -9 17 136.13 26.87
-9 2 -17 256.64 33.03
9 -2 17 309.39 37.91
7 -9 -17 298.64 34.6
9 -7 -17 337.26 30.31
-7 9 17 264.57 45.72
7 -9 -20 21.27 11.09
7 2 20 19.31 10.32
-9 2 -20 20.85 10.08
-2 -7 20 3.53 5.11
-7 -2 -20 15.2 7.83
9 -2 20 15.78 7.8
1 -9 -20 13.91 9.78
-1 -8 -20 9.94 8.87
9 -1 -17 23.13 10.42
-9 1 17 8.87 6.99
1 8 17 17.45 11.02
8 1 -17 9.3 6.3
1 -9 -17 24.28 12.27
-1 -8 -17 12.2 9.59
-8 9 -17 24.37 11.47
-9 8 -17 10.26 5.44
-8 -1 17 10.43 5.47
1 -9 -17 18.15 7.47
8 -9 17 18.94 12.59
-1 9 17 14.34 9.37
9 -1 -17 8.45 5.46
9 -1 -14 108.22 21.13
-1 9 14 156.01 31.37
1 8 14 169.51 31.56
-1 -8 -14 143.63 18.43
1 -9 -14 137.84 31.61
-1 -8 -14 116.95 28.81
-8 9 -14 136.15 24.14
-9 8 -14 109.56 21.83
-8 -1 14 108.86 16
-9 1 14 111.54 14.76
9 -8 14 123.08 32.3
8 -9 14 91.39 24.33
9 -8 14 119.9 23.02
-8 -1 14 143.87 22.25
-9 1 14 153.46 24.72
9 -8 14 149.34 14.51
8 1 -14 135 24.6
1 -9 -14 137.95 18.65
9 -1 -14 94.17 18.45
-1 -8 -11 21.99 4.53
8 -9 11 21.34 10.65
9 -8 11 19.39 4.46
-1 9 11 28.22 11.72
8 1 -11 22.31 8.91
1 8 11 29.62 12.17
-1 -8 -11 31.49 5.83
-8 9 -11 18.54 6.99
1 -9 -11 23.68 11.96
-1 -8 -11 16.88 10.68
8 1 -11 31.88 10.08
-8 -1 11 20.4 5.89
-9 1 11 18.4 4.88
-8 9 -11 29.93 10.68
9 -8 11 48.13 20.55
-9 8 -11 29.06 10.8
-9 8 -11 22.43 7.56
1 -9 -11 23.26 7.37
-8 -1 11 20.98 7.61
-9 1 11 30.08 9.6
8 -9 11 22.02 9.21
9 -8 11 17.96 7.68
9 -1 -11 26.05 8.71
-1 -8 -11 29.44 7.94
-8 9 -11 15.87 6.59
-9 8 -11 24.48 9.25
9 -8 11 19.32 6.16
8 1 -8 702.97 42.18
9 -8 8 729.44 25.26
-1 -8 -8 757.04 67.36
-1 9 8 849.85 64.45
1 8 8 844.94 59.99
-1 -8 -8 934.89 46.02
8 -9 8 945.41 43.5
-8 9 -8 793.52 47.74
1 -9 -8 848 73.06
8 -9 8 1004.91 73.94
-8 -1 8 750.42 39.28
-9 1 8 904.98 46.77
-9 1 8 514.56 17.11
-8 -1 8 730.77 29.27
-8 9 -8 823.06 52.87
9 -8 8 1126.93 81.35
8 -9 8 743 49.03
-1 9 8 1018.56 65.09
9 -8 8 629.57 43.61
1 8 8 932.12 58.71
-8 9 -8 679.54 40.1
9 -8 8 726.62 31.3
-9 8 -8 672.79 40.45
8 -9 8 830.58 37.82
-8 -1 8 707.23 59.57
9 -1 -8 679.11 40.62
1 -9 -8 922.71 45.14
-9 8 -8 531.17 34.33
-8 9 -5 1.03 0.77
-9 1 5 1.48 1.05
9 -8 5 4.03 3.69
9 -1 -5 0.01 3.34
-1 9 5 0.59 3.72
9 -1 -5 17.42 6.38
-9 8 -5 2.04 2.45
-1 9 5 3.27 2.5
-8 9 -5 2.19 0.52
-9 8 -5 4.89 3.51
1 8 5 2.36 1.87
1 -9 -5 3.49 5.24
1 -9 -5 0.24 2.41
-8 9 -5 1.83 2.05
1 8 5 3.39 1.58
-8 9 -5 -0.5 0.18
8 -9 5 -1.12 5.93
-8 -1 5 0.63 0.98
9 -8 5 3.65 2.98
-9 1 5 4.7 3.32
9 -8 5 1.21 1.93
8 -9 5 2.48 2.39
-8 -1 5 5.19 3.17
8 -9 5 -2.21 3.77
-1 -8 -5 1.57 1.96
9 -8 5 3.39 2.32
-1 9 5 3.47 2.54
1 8 5 3.59 1.54
8 1 -5 1.27 2.05
8 -9 2 70.45 7.06
-1 9 2 99.28 12.58
1 8 2 105.66 8.02
9 -1 -2 99.03 14.06
-8 -1 2 106.42 9.56
-1 9 2 81.23 5.17
9 -8 2 160.43 21.05
1 8 2 108.7 13.5
-1 9 2 93.2 7.73
-9 8 -2 86.66 11.17
1 8 2 113.78 13.34
-8 -1 2 96.51 11.71
-8 -1 2 117.54 14.99
-9 1 2 95.01 12.12
8 1 -2 84.52 12.34
-8 9 -2 116.73 23.01
-1 -8 -2 81.01 20.32
-1 -8 -2 139.64 12.38
-1 9 2 121.93 24.32
1 -9 -2 64.18 18
8 -9 2 123.87 15.44
9 -8 2 111.17 13.22
1 8 2 117.03 14.26
8 -9 2 112.28 12.94
9 -8 2 100.91 11.61
-9 1 2 56.6 5.98
9 -1 -2 86.03 5.58
1 8 2 98.19 9.43
8 1 -2 99.64 8.6
-8 9 -2 86.11 9.81
8 -9 2 114.49 12.8
8 1 -2 105.6 11.6
9 -1 -2 159.16 14.98
-1 9 2 125.43 14.47
-1 9 2 89.68 8.31
-9 8 -2 92.46 9.22
8 -9 2 81.93 12.26
-1 9 2 99.18 11.41
9 -8 2 70.31 11.12
9 -1 -2 91.3 13.1
-8 9 -2 119.5 15.99
1 8 2 102.58 8.61
-8 9 -2 105.66 13.06
-9 8 -2 106.24 13.54
9 -8 2 100.94 13.42
-8 9 -2 90.16 10.69
9 -8 -1 28.67 6.46
1 8 -1 28.94 6.27
-8 9 1 42.83 7.14
9 -8 -1 54.45 9.61
8 1 1 40.06 7.4
-9 8 1 39.64 7.69
-1 9 -1 32.34 6.68
-8 9 1 28.9 6.09
-8 -1 -1 24.11 6.48
-8 9 1 35.48 6.74
-1 9 -1 42.59 9.2
1 8 -1 40.89 8.17
-8 9 1 44.74 15.11
8 1 1 30.59 6.95
-1 -8 1 45.76 9.18
1 -9 1 19.35 9.12
-1 -8 1 36.73 13.15
-1 9 -1 43.1 8.42
-1 9 -1 40.68 13.5
1 8 -1 40.63 7.08
8 1 1 -1.05 9.36
8 1 1 39.11 6.36
8 -9 -1 37.91 6.46
9 -8 -1 39.62 5.7
1 8 -1 43.12 8.87
-1 9 -1 39.21 8.38
1 -9 1 33.49 8.08
1 -9 1 53.47 10.67
-8 9 1 38.23 8.3
-9 8 1 9.41 1.95
-1 9 -1 43.7 9.61
8 -9 -1 47.52 9.66
8 -9 -1 38.36 7.9
8 -9 -1 35.77 7.05
-9 8 1 41.08 7.68
-8 -1 -1 38.4 8.19
9 -8 -1 50.66 13.14
1 8 -1 32.48 8.14
9 -1 1 39.17 8.26
9 -1 1 41.73 7.67
-9 1 -1 28.54 6.92
-9 8 4 1795.99 65.78
1 8 -4 2093.41 67.06
1 8 -4 1937.34 66.39
8 1 4 2166.47 60.96
9 -1 4 1852.26 30.59
-1 9 -4 1347.75 57.12
1 -9 4 1732.11 76.25
8 1 4 2720.9 45.79
-1 -8 4 1791.83 84.39
-1 9 -4 2094.85 90.56
-9 8 4 2143.7 44.53
-9 8 4 2024.68 59.64
-1 9 -4 2303.76 66.56
-8 9 4 1926.58 72.46
-8 9 4 1875.71 56.22
-1 -8 4 1929.74 62.83
1 -9 4 1839.04 62.73
-8 9 4 1999.15 53.67
-8 9 4 1851.19 34.38
-9 8 4 2007.05 48.28
9 -8 -4 3199.47 118.89
-1 9 -4 2636.02 90.89
-8 -1 -4 1865.19 64.66
8 -9 -4 2045.69 64.22
-9 1 -4 1660.7 57.3
8 -9 -4 1908.42 46.55
9 -1 4 1915.98 58.06
8 1 4 1862.96 54.35
9 -8 -4 2262.58 66.06
9 -8 -4 1938.38 51.06
9 -1 4 1637.1 25.82
-1 9 -7 58.83 9.16
1 8 -7 60.45 9.71
9 -8 -7 116.36 25.68
-9 8 7 59.7 14.77
-8 9 7 64.09 15.85
8 -9 -7 87.61 19.67
-9 8 7 90.03 12.17
-8 9 7 71.1 10.13
1 8 -7 64.03 14.31
1 -9 7 77.19 14.19
-1 -8 7 61.25 13.39
-1 -8 7 76.34 16.44
-1 9 -7 59.58 13.82
-8 9 7 69.54 10.33
-9 8 7 73.59 9.24
-1 -8 7 57.75 12.37
1 -9 7 57.73 12.6
1 -9 7 98.28 20.2
-9 8 7 54.76 11.02
-1 9 -7 86.33 19.32
-8 -1 -7 59.69 13.69
-9 1 -7 61.48 12.93
-8 9 7 59.89 11.15
9 -1 7 67.59 11.86
8 1 7 59.47 10.74
9 -8 -7 66.56 11.88
8 -9 -7 77.11 12.73
8 -9 -7 60.52 8.41
9 -8 -7 54.62 8.69
-9 8 10 5.94 6.35
-1 9 -10 4.71 3.57
-1 9 -10 4.04 3.3
8 -9 -10 4.65 2.67
9 -8 -10 2.65 2.19
-8 9 10 0.98 2.9
1 -9 10 2.7 1.03
1 -9 10 5.76 2.99
8 -9 -10 5.14 2.72
-1 -8 10 7.27 4.11
1 8 -10 5.27 4.67
-9 8 10 4.99 3
-8 9 10 4.33 2.18
-8 9 10 0.89 1.74
-9 8 10 3.32 1.9
-1 -8 10 0.31 2.44
1 8 -10 4.08 3.24
9 -1 10 9.04 5.87
8 1 10 7.24 3.87
-8 -1 -10 2.58 0.44
-1 -8 10 6.37 4.08
-9 1 -10 2.73 3.69
-8 9 13 28.08 12.65
8 -9 -13 27.24 7.04
-9 8 13 29.58 13.64
8 -9 -13 26.07 8.54
9 -1 13 33.9 10.79
8 1 13 30.3 10.02
1 8 -13 36.78 13.43
-1 9 -13 19.36 9.67
-8 -1 -13 37.98 16.88
1 -9 13 4.53 3.38
-1 -8 13 11.93 5.65
9 -8 -13 28.99 7.16
-8 -1 -13 49.35 13.06
-9 1 -13 29.11 10.45
8 1 13 22.98 7.81
9 -1 13 11.52 5.33
-9 1 -13 17.47 7.8
9 -1 16 152.24 24.91
-9 8 16 145.46 32
-8 9 16 182.68 37.55
1 8 -16 183.17 34.13
-1 9 -16 184.93 34.82
-8 -1 -16 130.32 27.49
-9 1 -16 136.69 26.31
-8 -1 -16 163.61 25.51
-9 1 -16 160.66 25.99
9 -8 -16 156.12 18.97
-1 -8 16 67.07 19.14
1 -9 16 41.86 12.91
8 1 16 144.7 23.99
9 -1 16 128.76 23.18
8 -9 -16 157.79 24.94
8 1 16 179.12 28.66
8 1 19 1.43 1.46
8 -9 -19 -6.68 8.18
1 -9 19 -15.06 12.58
9 -1 19 -3.05 4.53
-8 -1 -19 -1.1 4.01
-8 -1 -19 4.11 2.3
-1 -8 19 -8.59 8.26
-9 1 -19 -2.01 3.62
9 -1 19 1.41 3.13
9 0 -18 90.77 22.83
0 -9 -18 87.55 25.91
-9 9 -18 117.78 24.2
9 -9 18 75.07 23.75
0 9 18 136.38 30.83
9 0 -18 125.1 24.57
9 0 -15 4.93 4.82
0 9 15 9.31 7.89
9 0 -15 13.28 8.52
0 -9 -15 6.22 8.34
-9 0 15 1.65 2.21
-9 9 -15 6.62 6.24
9 -9 15 7.19 9.02
9 -9 15 2.71 5.23
0 -9 -15 3.74 4.26
-9 0 15 0.39 2.54
0 -9 -12 -6.14 8.2
9 -9 12 2.13 1.66
0 9 12 6.64 7.82
-9 0 12 3.17 2.15
-9 9 -12 2.97 3.69
9 -9 12 5.83 7.31
9 0 -12 -1.05 3.16
-9 0 12 3.77 4.09
9 -9 12 0.48 1.97
0 -9 -12 0.41 2.32
-9 9 -12 -0.91 3.39
9 0 -9 -3.31 3.52
-9 9 -9 4.94 4.42
0 9 9 0.62 4.46
0 -9 -9 -0.39 6.78
9 -9 9 1.09 0.97
0 9 9 1.26 4.15
-9 0 9 0.68 0.81
9 -9 9 -0.47 3.57
-9 9 -9 2.78 4.11
-9 0 9 1.9 1.42
9 -9 9 4.26 4.82
0 -9 -9 1.23 1.05
0 9 6 1201.31 70.39
0 -9 -6 1172.6 83.39
-9 0 6 1439.71 52.25
9 -9 6 1788.11 83.6
-9 9 -6 1091.9 49.81
0 -9 -6 1378.92 58.1
9 -9 6 1117.82 55.1
9 -9 6 1839.32 59.17
0 9 6 1364.3 65.48
0 9 6 1330.73 45.83
-9 9 -6 1188.75 47.51
-9 0 6 930.21 44.85
9 0 -6 1336.41 55.21
0 9 3 0.75 0.54
0 9 3 14.1 3.73
9 0 -3 -0.83 0.6
9 -9 3 0.37 0.29
-9 9 -3 1.01 2.4
-9 9 -3 0.01 1.1
0 -9 -3 1.62 2.16
-9 0 3 0.38 0.82
0 9 3 -1.03 1.76
-9 0 3 -0.1 0.37
-9 9 -3 3.68 3.69
9 0 -3 -0.02 0.8
9 -9 3 1.44 2.06
-9 9 -3 -0.39 1.76
0 9 3 3.62 1.93
9 -9 3 1.26 0.72
9 -9 3 21.58 6.72
9 -9 3 16.39 5.57
-9 9 0 56.42 9.24
9 -9 0 56.8 10.51
0 9 0 49.67 6.7
9 -9 0 57.25 11.22
-9 9 0 65.1 7.92
-9 9 0 40.22 7.62
0 9 0 55.02 10.48
0 9 0 60 10.12
-9 0 0 36.72 7.63
0 -9 0 41.05 14.07
9 0 0 52.66 8.72
0 9 0 35.24 12.94
0 -9 0 73.79 11.42
9 0 0 51.38 6.39
9 -9 0 43.64 6.85
-9 9 0 25.68 7.4
0 9 0 41.33 6.76
9 -9 0 39.83 8.17
9 0 0 48.49 9.57
-9 9 3 0.16 0.51
9 0 3 1.55 2.51
-9 9 3 -0.88 2.3
-9 0 -3 4.51 3.49
0 9 -3 2.17 3.04
0 -9 3 1.37 0.86
9 -9 -3 0.63 0.51
0 9 -3 1.43 2.18
9 -9 -3 1.29 1.49
0 -9 3 0.19 1.34
-9 9 3 1.9 1.96
-9 9 3 2.13 2.22
0 9 -6 77.31 10.11
9 0 6 110.78 8.92
-9 9 6 73.45 15.89
-9 0 -6 58.16 12.18
9 -9 -6 113.31 23.26
-9 9 6 92.01 11.46
0 9 -6 67.32 14.25
0 -9 6 77.96 15.92
-9 9 6 68.62 9.67
0 -9 6 160.77 24.85
0 -9 6 69.57 13.52
-9 9 6 76.84 12.6
0 9 -6 109.26 20.33
0 9 -6 -7.41 15.81
9 0 6 79.46 12.23
9 -9 -6 100.14 14.88
9 -9 -6 63.29 9.05
9 -9 -9 0.36 1.17
-9 9 9 -1.67 3.82
0 9 -9 1.74 1.34
9 -9 -9 0.61 1.69
0 -9 9 0.69 0.86
-9 9 9 0.68 4.55
0 9 -9 -2.35 5.03
-9 9 9 0.93 1.33
0 -9 9 1.85 3.18
0 -9 9 -0.34 1.16
0 -9 9 0.75 0.46
-9 0 -9 5.34 4.26
9 -9 -12 714.44 38.22
-9 9 12 762.87 65.78
0 9 -12 975.72 49.49
0 9 -12 779.2 61.66
0 -9 12 482.24 49.2
-9 0 -12 643.54 55.01
9 0 12 764.44 48.31
9 -9 -12 879.37 53.65
9 0 12 843.13 51.57
-9 9 15 0.67 2.36
9 0 15 0.85 3.97
0 9 -15 -1.67 4.03
0 -9 15 -3.67 5.92
-9 0 -15 -1.58 3.06
9 0 15 -1.95 3.38
-9 9 18 5.97 3.17
9 0 18 19.96 9.45
0 9 -18 8.01 5.91
-9 0 -18 7.73 6.21
0 -9 18 9.59 8.16
-9 0 -18 21.71 10.73
9 0 18 23.07 10.45
10 -5 0 3823.45 104.13
5 5 0 2179.98 55.35
-10 5 0 2272.58 61.94
-5 10 0 2439.77 60.06
-5 10 0 2139.96 38.95
-5 10 0 2949.75 113.85
5 5 0 2193.35 42.4
-5 -5 0 2173.18 112.83
-10 5 0 2627.22 62.85
-5 10 0 1482.99 52.12
5 -10 0 2284.39 61.18
5 5 0 2936.38 65.81
10 -5 0 1910.18 26.95
-5 10 0 2655.06 69.83
5 -10 0 2750.98 77.85
-5 10 0 1739.71 50.84
5 5 0 2745.12 63.17
-5 -5 0 2872.24 76.43
-5 10 0 2391.72 45.59
10 -5 0 2307.34 63.28
5 5 0 2258.52 57.81
10 -5 -3 321.21 35.19
10 -5 3 105.22 11.26
-5 10 3 162.22 19.56
5 5 3 193.7 15.15
-5 -5 3 211.2 20.74
5 -10 3 209.89 20.51
5 -10 -3 219.94 21.4
-10 5 3 200.32 19.21
-5 10 -3 224.52 29.8
-5 -5 -3 150.48 28.72
-5 -5 3 193.85 33.75
-10 5 -3 159.09 16.72
-5 10 -3 155.94 20.2
-10 5 3 194.93 16.96
5 5 3 242.81 20.28
-5 10 3 141.88 11.87
10 -5 -3 171.2 17.42
-5 10 3 217.66 19.52
5 5 -3 234.96 18.18
5 -10 -3 167.44 26.69
-5 10 3 179.22 14.04
10 -5 3 408.17 41.75
5 5 -3 168.41 17.32
-5 10 -3 196.85 17.62
-5 -5 -3 189.6 24.38
-5 10 -3 224.04 20.14
10 -5 3 232.42 21.13
-5 10 -3 197.89 12.74
-5 -5 3 243.08 17.03
5 5 3 202.27 16.53
5 5 3 184.05 13.11
5 5 3 182.41 14.64
10 -5 -6 66.74 11.77
5 -10 -6 87.9 13.9
5 5 -6 68.29 12.98
-5 10 -6 84.77 18.2
5 -10 -6 59.67 17.27
5 5 -6 50.58 10.4
-10 5 6 84.62 13.92
5 -10 6 82.3 15.74
-5 -5 -6 57.08 18.65
-5 -5 6 59.12 10.43
5 5 -6 72.12 11.09
-5 10 -6 58.45 14.19
5 5 6 93.12 13.78
-5 10 -6 48.82 8.86
-5 10 -6 3.3 9.25
-5 -5 6 51.54 15.96
-5 10 -6 118.16 19.2
-5 -5 6 81.11 9.38
-5 10 6 110.31 19.06
10 -5 6 66.78 12.57
5 5 6 95.24 7.97
5 5 6 75.48 9.42
-10 5 -6 80.79 13.07
-5 -5 -6 89.52 11.26
5 -10 6 111.66 11.01
5 -10 -9 56.56 10.97
-5 -5 -9 68.73 9.91
-10 5 -9 46.41 11.92
-10 5 9 52.86 14.07
10 -5 -9 37.88 9.51
5 -10 9 67.3 10.41
5 5 -9 54.04 13.87
-5 10 9 54.64 14.92
-5 10 -9 67.94 16.18
5 -10 -9 45.28 15.09
-5 -5 9 59.66 9.23
-5 -5 -9 63.81 19.63
-5 -5 9 54.59 13.79
-5 -5 9 34.97 9.02
-5 10 -9 48.09 14.48
5 -10 9 35.09 11.2
10 -5 9 88.85 9.36
-5 -5 -9 64.99 10.03
10 -5 9 58.74 13.19
5 5 9 59.88 10.16
-10 5 9 50.65 11.53
10 -5 -9 63.62 11.57
-10 5 12 706.42 56.74
-5 10 12 729.52 62.78
5 5 -12 876.62 62.13
5 -10 12 1318.66 53.22
10 -5 12 801.38 44.4
5 5 12 820.95 58.4
5 -10 -12 624.02 60.66
10 -5 12 1063.86 59
-5 -5 12 1169.17 51.49
-5 10 -12 818.33 64.02
-5 -5 -12 1183.08 57.65
-5 -5 12 531.78 39.69
5 -10 12 358.82 47.14
-5 -5 12 1031.51 46.25
10 -5 -12 727.37 43.83
5 5 12 830.84 46.87
10 -5 12 635.22 48.86
-10 5 -12 597.95 49.08
-10 5 12 783.7 52.96
-5 -5 -12 625.75 62.78
5 -10 -12 767.67 42.47
5 -10 -12 760.04 16.97
-5 -5 -12 1001.92 41.17
-10 5 15 3.29 2.67
-5 10 15 4.96 6.47
10 -5 15 6.53 4.15
5 5 15 2.12 4.18
5 5 -15 3.72 3.01
10 -5 -15 10.74 6.52
-5 -5 -15 3.56 1.8
5 -10 -15 4.93 4.37
-5 10 -15 1.78 3.39
-5 -5 15 2.55 2.09
-5 -5 -15 1.64 2.31
5 -10 15 -3.62 7.77
-10 5 -15 5.36 4.6
5 5 15 6.23 3.83
10 -5 15 9.52 5.61
10 -5 -18 12.24 7.55
-10 5 18 4.31 7.89
-5 10 18 8.12 7.42
10 -5 18 4.47 2.41
-5 -5 -18 3.45 6.98
5 -10 -18 4.13 2.72
5 5 -18 10.17 8.95
-5 10 -18 7.44 8.02
-5 -5 18 -4.7 5.18
5 5 18 -1.87 3.94
-10 5 -18 1.52 5.4
5 -10 18 -1.57 5.72
10 -5 18 13.6 10.19
10 -4 -19 187.43 28.21
-4 -6 -19 143.28 30.9
4 -10 -19 148.98 23.33
-6 -4 19 94.12 19.48
-10 4 16 2.48 3.43
-4 10 16 2.67 3.9
10 -6 16 8.9 2.96
4 6 16 20.65 11.05
6 4 -16 11.75 8.82
-10 6 -16 2.94 3.98
4 -10 -16 4 5.98
-4 -6 -16 5.68 5.26
4 -10 -16 3.89 3.41
-6 10 -16 7.95 6
-4 -6 -16 8.27 5.31
10 -4 -16 12.08 6.86
-6 -4 16 3.95 3.73
6 -10 16 2.96 3.74
10 -6 16 15.45 8.73
-10 4 13 397.62 42.53
-4 10 13 390.11 47.66
6 4 -13 379.78 41.73
4 6 13 486.92 49.18
4 -10 -13 379.67 49.66
-4 -6 -13 379.11 49.98
-6 -4 13 648.98 36.04
4 -10 -13 418.21 31.81
-4 -6 -13 648.27 40.75
6 -10 13 218.98 37.09
-10 6 -13 427.22 42.1
-10 4 13 336.34 22.64
-6 -4 13 503.15 35.48
-6 10 -13 335.1 39.67
4 6 13 431.74 34.62
-6 -4 13 294.03 29.33
10 -6 13 357.77 37.95
-10 6 -13 325.16 37.29
-10 4 13 449.93 41.61
10 -6 13 395.74 31.27
10 -4 -13 376 32.94
-10 4 10 393.14 38.38
-4 10 10 379.08 43.5
4 -10 -10 464.68 32.53
6 4 -10 309.16 33.63
4 6 10 437.46 40.46
4 -10 -10 392.3 49.26
-4 -6 -10 350.73 46.24
-6 -4 10 433.18 37.23
-6 10 -10 367.54 39.5
-4 -6 -10 458.5 25.54
-6 -4 10 478.18 30.37
-6 -4 10 336.18 27.98
-10 4 10 374.73 13.2
-10 4 10 447.76 37.68
6 -10 10 376.01 47.98
6 -10 10 520.32 32.08
-4 -6 -10 648.95 37.88
10 -6 10 380.32 22.22
10 -6 10 467.75 28.99
4 6 10 427.07 29.94
10 -6 10 386.74 34.98
10 -4 -10 436.47 32.8
-10 6 -10 321.69 31.39
-10 6 -10 433.52 26.72
-6 10 -10 611.38 45.63
10 -4 -7 425.23 32.62
4 -10 -7 547.31 35.53
6 4 -7 431.84 35.13
-6 10 -7 281.57 32.75
4 -10 -7 384.75 45.97
-6 10 -7 547.74 44.78
6 -10 7 513.09 27.76
-6 -4 7 528.61 26.38
-4 -6 -7 380.89 46.45
-10 4 7 471.28 34.21
-6 -4 7 456.07 28.97
6 -10 7 608.85 49.69
-4 10 7 442.96 42.42
-6 10 -7 407.77 27.86
10 -6 7 458.21 34.64
4 6 7 474.31 23.58
-10 6 -7 401.23 29.77
4 6 7 550.9 36.54
10 -4 -7 531.71 32.99
-4 -6 -7 485.71 25.13
6 4 -7 434.17 33.74
4 6 4 306.86 20.02
4 6 4 326.15 17.94
-6 -4 4 333.5 19.86
-6 10 -4 289.5 30.52
-4 10 4 294.91 30.94
-4 -6 -4 346.61 19.31
-6 -4 4 307.01 21.49
-10 6 -4 334.96 25.24
-6 -4 4 321.71 26.3
4 -10 -4 294.9 37.82
-6 10 -4 395.65 39.32
-10 4 4 333.08 25.47
4 -10 -4 407.27 29.52
-4 -6 -4 292.13 40.13
10 -4 -4 289.06 24.37
4 6 4 319.45 24.46
6 -10 4 341.49 27.8
10 -4 -4 466.34 39.97
10 -6 4 593.01 47.67
6 -10 4 429.67 22.3
6 -10 4 355.71 33.3
6 4 -4 287.23 24.08
10 -6 4 377.59 28.2
-6 10 -4 380.26 28.15
-6 10 -4 342.01 19.7
4 6 4 301.08 17.1
-6 10 -4 374.39 24.68
6 4 -1 137 14.95
4 6 1 139.7 12.78
10 -4 -1 231.06 24.34
-10 6 -1 187.57 18.31
-6 10 -1 129.95 11.15
-4 10 1 187.03 17.11
-10 6 -1 122.33 14.4
-6 10 -1 137.2 10.88
-4 10 1 137.64 17.78
-10 4 1 154.97 16.53
-6 -4 1 151.56 15.74
-4 -6 -1 155.86 15.03
4 -10 -1 142.35 24.83
-6 10 -1 211.49 29.9
-4 10 1 218.9 32.26
-6 10 -1 162.65 14.58
-4 10 1 124.73 10.92
-4 -6 -1 128.15 27.01
-4 10 1 153.91 9.88
4 6 1 185.83 16.46
-10 4 1 183.83 16.93
6 -10 1 160.72 15.91
4 6 1 200.3 17.95
6 4 -1 144.07 11.85
4 6 1 157.64 15.78
-4 10 1 179.77 18.09
10 -6 1 169.03 11.39
4 6 1 135.76 13.62
-6 10 -1 134.04 17.84
6 -10 1 180.07 19.71
-6 10 -1 181.41 18.92
4 -10 -1 174.66 19.5
4 6 1 166.92 11.21
6 4 -1 172.66 17.09
6 -10 1 162.69 19.43
-4 -6 -1 161.57 18.84
10 -6 1 157.84 16.98
-6 10 -1 168.21 14.18
-4 10 1 149.92 9.11
-6 -4 1 199.78 18.26
10 -4 -1 160.53 17.35
4 6 -2 72.54 11.14
4 6 -2 83.46 12.38
-6 10 2 84.54 7.4
-10 4 -2 71.65 11.15
6 4 2 98.23 12.12
-4 10 -2 66.71 9.79
-10 6 2 86.08 11.04
6 4 2 75.66 9.47
6 -10 -2 97.5 14.19
-10 6 2 80.57 11.95
4 -10 2 75.73 16.79
-4 10 -2 105.55 21.78
-6 10 2 75.18 12.29
-4 10 -2 60.58 10.45
-6 10 2 88.08 9.82
-4 -6 2 72.16 20.58
4 -10 2 70.26 11.42
-4 10 -2 101.05 12.83
4 6 -2 83.36 11.59
-6 10 2 81.73 12.24
-6 -4 -2 80.55 11.08
6 -10 -2 77.24 10.75
-4 10 -2 72.26 11.05
-6 -4 -2 85.03 14.5
-4 -6 2 97.26 11.77
-6 -4 -2 90.75 11.35
10 -6 -2 67.8 10.2
10 -4 2 78.24 11.95
-4 10 -2 63.97 6
10 -6 -2 62.02 10.3
10 -4 2 69.92 8.35
6 4 2 66.38 9.48
-4 -6 5 4.61 5.5
4 6 -5 1.47 1.44
10 -6 -5 3.79 2.48
-4 10 -5 1.26 0.43
10 -6 -5 4.88 4.96
-6 10 5 2.8 3.29
-10 4 -5 3.25 2.53
6 4 5 4.52 2.55
-4 10 -5 1.46 0.92
4 6 -5 2.57 1.65
-6 10 5 2.32 1.43
10 -4 5 -1.58 3.1
6 4 5 -1.08 2.26
-4 10 -5 2.65 1.52
-4 -6 5 2.24 1.47
-6 -4 -5 6.27 6.65
-4 -6 5 7.37 4.77
-6 -4 -5 4.28 2.43
6 4 5 2.86 1.26
-4 10 -5 -2.6 3.53
-4 -6 5 1.2 2.45
-6 10 5 1.76 1.25
-4 10 -5 2.03 0.62
4 -10 5 3.42 2.86
4 6 -5 0.61 0.93
-10 6 5 2.29 3.08
6 -10 -5 2.73 2.32
6 -10 -5 1.7 0.78
10 -4 5 1.34 0.89
-4 10 -5 9.68 5.14
-6 -4 -5 7.37 5.66
-10 6 8 571.25 44.75
10 -6 -8 475.93 33.07
-6 -4 -8 739.88 34.37
-6 10 8 569.31 46.91
4 6 -8 626.4 45.55
4 -10 8 1095.1 35.79
6 -10 -8 701.97 38.9
-4 10 -8 793.48 56.99
-4 -6 8 508.77 43.97
-4 -6 8 644.41 25.58
-4 10 -8 484.59 42.54
-6 -4 -8 548.42 58.57
-4 -6 8 560.74 36.57
-10 6 8 638.22 41.46
-10 6 8 527.07 14.46
4 -10 8 721.47 54.77
-6 10 8 570.38 24.31
10 -4 8 719.17 21.81
10 -4 8 613.53 39.84
6 4 8 618.92 31.31
-10 4 -8 535.63 37.16
6 -10 -8 606.57 15.77
-6 -4 -8 762.11 35.86
10 -6 -11 3.59 3.29
6 -10 -11 5.35 1.85
-10 6 11 5.95 4.1
-6 -4 -11 5.44 2.99
-6 10 11 1.57 2.6
-4 10 -11 4.69 2.08
6 4 11 6.74 5.64
4 6 -11 11.61 7.25
10 -4 11 5.68 4.59
-4 -6 11 1.82 1.37
-4 10 -11 4.38 2.73
-6 -4 -11 1.17 0.53
6 -10 -11 5.8 3.32
-4 10 -11 2.53 3.45
-4 -6 11 7.42 4.79
4 -10 11 -12.36 13.13
-6 10 11 7.89 3.97
-4 -6 11 5.28 2.35
6 -10 -11 6 2.45
-10 6 11 4.61 3.84
6 4 11 -0.51 3.94
10 -4 11 0.93 4.09
-10 4 -11 5.73 5.1
-10 6 14 35.54 13.79
-6 10 14 37.43 14.63
10 -4 14 30.96 9.56
6 4 14 37.78 12.5
4 6 -14 39.47 13.99
10 -6 -14 34.31 9.62
6 -10 -14 37.85 10.2
-6 -4 -14 33.05 14.57
-4 10 -14 38.38 13.99
-4 -6 14 19.99 8.51
4 -10 14 3.45 6.1
-6 -4 -14 30.37 9.08
-10 4 -14 39.5 12.85
6 4 14 27.06 9.01
10 -4 14 27.68 10.25
-10 4 -14 17.37 7.17
-10 6 17 -1.48 2.73
-6 10 17 0.16 1.83
10 -4 17 3.85 3.25
6 4 17 -0.79 2.83
4 6 -17 3.91 3.18
6 -10 -17 -3.46 4.32
-6 -4 -17 -2.24 7.32
10 -6 -17 8.36 5.76
-4 10 -17 1.08 1.19
-6 -4 -17 2.22 0.61
-4 -6 17 0.46 2.64
4 -10 17 -7.43 9.78
-10 4 -17 -0.16 2.97
10 -4 17 -0.44 3.04
-4 -6 20 43.35 14.33
6 -10 -20 100.87 21.89
-3 -7 -20 172.18 34.65
10 -3 -20 179.53 28.85
10 -3 -17 1.14 2.76
3 -10 -17 -1.86 3.92
-10 3 17 -0.67 3.41
-3 10 17 3.78 5.7
3 7 17 5.1 6.98
7 3 -17 -1.91 2.2
-3 -7 -17 -0.79 3.34
-7 10 -17 2.09 2.26
3 -10 -17 5.57 5.63
-7 -3 17 1.22 1.58
-10 7 -17 6.19 7.61
7 -10 17 -7 8.18
10 -7 17 2.09 2.48
-10 3 14 60.95 17.49
-3 10 14 72.24 21.37
3 7 14 83.6 21.82
10 -7 14 82.72 13.43
7 3 -14 61.9 16.87
3 -10 -14 60.07 20.3
-3 -7 -14 130.18 16.82
-3 -7 -14 54.24 20.35
10 -3 -14 58.78 14.03
-7 -3 14 99.03 17.11
-7 10 -14 61.48 17.46
-7 -3 14 43.23 11.03
7 -10 14 34.4 13.48
-10 7 -14 63.07 17.2
-10 3 14 62.81 15.4
10 -7 14 49.42 14.7
-10 7 -14 47.32 14.21
3 -10 -14 61.7 12.67
10 -3 -11 63.82 13.27
7 -10 11 109.74 15.56
7 3 -11 71.95 16.74
-3 -7 -11 81 9.28
10 -7 11 85.79 12.48
-3 10 11 79.65 20.5
-7 10 -11 111.3 18.49
3 -10 -11 84.34 24.25
3 -10 -11 79.08 14.05
-3 -7 -11 53.82 18.45
-3 -7 -11 152.43 16.62
-10 7 -11 34.73 8.13
-3 -7 -11 83.56 10.33
-7 -3 11 63.92 12.61
-7 -3 11 61.64 11.59
-10 3 11 73.22 7.54
-10 3 11 82.83 16.81
10 -7 11 58.23 9.58
-7 10 -11 70.76 17.16
7 -10 11 56.51 18.31
3 7 11 69.19 17.96
3 7 11 79.22 12.89
-10 7 -11 85.03 18.17
10 -7 11 69.75 15.85
-10 7 -11 62.08 14.6
10 -7 8 140.88 11.68
7 3 -8 135.38 20.32
10 -3 -8 185.25 20.77
3 -10 -8 215.64 22.44
3 7 8 179.54 24.97
3 -10 -8 148.44 30.05
-7 10 -8 242.27 27.99
-3 -7 -8 127.85 27.74
-7 -3 8 185.12 17.79
-10 3 8 195.82 22.75
7 -10 8 272.02 22.97
-7 10 -8 147.73 24.11
-7 -3 8 147.17 15.78
7 -10 8 190.84 31.2
-3 -7 -8 263.91 19.98
10 -7 8 350.57 52.58
7 -10 8 176.65 26.78
3 7 8 178.53 15.38
10 -7 8 171.33 22.25
-7 10 -8 177.93 20.38
-10 7 -8 177 21.05
-3 10 8 151.35 26.86
3 7 8 186.34 23.76
-10 7 -8 154.7 17.31
7 3 -8 170.07 21.6
10 -3 -5 611.24 37.38
-3 -7 -5 666.54 24.58
-7 -3 5 591.2 28.16
3 -10 -5 507.18 51.83
-7 10 -5 720.75 50.78
-10 3 5 595.99 34.85
-3 -7 -5 529.76 55.17
-7 -3 5 558.91 29.93
3 -10 -5 679.97 38.98
-7 10 -5 486.67 34.03
-3 10 5 641.65 51.43
7 -10 5 746.32 46.37
-7 10 -5 566.28 42.22
10 -7 5 1166.07 51.15
10 -7 5 972.63 61.37
7 3 -5 581.83 35.48
7 -10 5 605.18 44.04
10 -7 5 618.43 37.69
-7 10 -5 656.23 30.72
-7 10 -5 795.56 42.93
3 7 5 642.71 22.81
3 7 5 697.44 34.58
-10 7 -5 385.96 27.47
3 7 5 702.78 27.56
-3 -7 -2 398.08 24.35
10 -3 -2 635.96 39.84
-7 -3 2 535.81 27.59
-7 10 -2 528.05 23.84
-10 7 -2 547.77 30.19
7 3 -2 453.83 29.32
10 -7 2 1205.69 67.8
3 7 2 504.78 19.63
10 -7 2 583.26 30.51
-7 10 -2 618.72 50.85
-3 10 2 451.03 38.61
-7 -3 2 575.72 32.82
-10 3 2 510.85 30.37
3 7 2 484.23 25.7
3 -10 -2 412.37 43.77
10 -3 -2 455.63 29.88
-3 -7 -2 436.14 49.66
3 7 2 526.87 22.26
-10 7 -2 613.14 33.8
3 7 2 602.76 32.77
7 -10 2 510.69 29.8
-7 10 -2 558.56 27.51
-10 3 2 411.54 13.83
10 -7 2 530.9 25.91
-3 10 2 456.61 17.84
7 -10 2 649.49 38.16
-7 10 -2 597.12 37.78
3 -10 -2 526.15 34.57
7 3 -2 485.27 23.34
3 7 2 554.38 29.1
-7 10 -2 382.64 30.26
7 -10 2 345.83 29.13
10 -7 2 456.88 29.82
-7 10 -2 627.25 30.88
-3 10 2 442.39 9.8
7 3 -2 537.89 31.26
-3 10 2 506.75 15.32
-7 10 1 1335.64 35.91
-7 10 1 1029.39 42.43
-10 3 -1 992.97 41.73
-10 7 1 1154.68 39.07
-7 -3 -1 1301.88 46.8
-3 10 -1 1218.01 52.62
-10 7 1 1113.07 43.33
7 -10 -1 1513.19 56.82
3 -10 1 1093.88 65.97
-3 10 -1 995.81 39.54
-7 10 1 1098.51 34.46
7 3 1 1231.64 38.19
-3 10 -1 1682.31 91.75
-3 -7 1 1044.97 76.43
10 -7 -1 998.04 40.33
-3 10 -1 1467.23 48.65
10 -7 -1 1021.32 24.04
3 -10 1 1156.99 47.17
3 7 -1 1384.72 48.46
-7 10 1 1389.05 50.09
3 7 -1 1245.24 54.91
3 7 -1 1458.47 49.27
7 -10 -1 1062.07 40.46
-3 10 -1 1203.59 43.66
-7 -3 -1 1293.11 50.99
10 -7 -1 1049.07 42.17
10 -3 1 1125.03 44.87
-3 10 -1 1126.86 18.74
3 7 -1 1185.6 41.86
7 3 1 1201.5 43.08
-3 10 -4 256.39 13.15
10 -3 4 322.94 15.26
7 -10 -4 316.97 26.39
-10 7 4 310.15 23.01
-7 10 4 315.29 16.43
3 7 -4 245.51 23.05
7 3 4 284.14 21.33
7 3 4 224.85 10.94
3 -10 4 287.64 31.21
-10 7 4 279.93 18.64
-3 10 -4 214.53 22.26
-3 -7 4 342.3 29.89
-3 10 -4 306.38 37.92
-3 -7 4 242.68 35.45
-10 7 4 222.34 20.71
10 -7 -4 228.09 19.58
3 7 -4 163.35 20.26
-3 -7 4 257.58 23.07
3 -10 4 248.11 23.89
-7 10 4 266.28 20.39
-7 10 4 273.24 21.76
3 7 -4 288.4 22.7
-3 10 -4 313.48 30.55
7 -10 -4 228.57 14.35
-7 -3 -4 293.29 30.25
-3 -7 4 347.94 16.11
10 -7 -4 235.84 21.3
-7 10 4 233.69 25.22
10 -3 4 252.92 22.42
7 3 4 234.25 18.65
-10 3 -4 217.58 21.02
-3 10 -4 279.25 23.2
-7 -3 -4 303.4 22.83
7 -10 -7 651.73 37.81
10 -7 -7 629.6 34.72
-10 7 7 555.57 43.51
3 7 -7 634.27 34.22
-7 -3 -7 647.05 33.74
-3 10 -7 589.17 24.28
-7 10 7 518.41 43.59
3 7 -7 600.89 43.37
7 -10 -7 706.46 49.55
-3 -7 7 715.39 22.45
-7 10 7 623.01 27.43
-3 10 -7 547.84 41.93
-3 -7 7 504.68 44.57
3 -10 7 830.85 21.27
-3 10 -7 837.28 59.42
-7 10 7 648.49 34.87
-3 -7 7 545.46 36.28
-10 7 7 571.43 37.52
-10 7 7 504.39 18.69
3 -10 7 574.91 43.16
-3 10 -7 765.53 57.09
-7 -3 -7 555.86 48.77
10 -3 7 598.75 37.15
10 -3 7 571.07 13.22
-10 3 -7 487.41 34.72
7 3 7 450.32 27.19
7 -10 -7 599.56 20.82
-7 10 10 81.48 19.55
3 -10 10 159.91 14.66
3 7 -10 122.53 22.55
-3 -7 10 103.38 15.99
-7 10 10 81.43 11.42
-3 10 -10 104.32 17.43
-7 -3 -10 106.89 27.39
-10 7 10 89.89 9.24
-3 -7 10 99.08 11.11
-3 -7 10 57.15 12.89
-3 10 -10 76.74 18.04
-10 7 10 85.54 15.73
-3 10 -10 76.77 10.25
3 -10 10 70.53 17.14
10 -3 10 86.52 15.97
7 3 10 60.04 11.27
-10 3 -10 69.89 15.31
-10 7 10 96.53 19.99
7 -10 -10 94.15 14.78
7 -10 -10 87.17 8.66
10 -7 -10 70.46 13.03
-7 10 13 53.43 17.35
-10 7 13 74.73 20.1
10 -3 13 79.63 15.53
7 3 13 70.19 17.19
3 7 -13 85.67 20.57
-7 -3 -13 83.53 24.3
-7 -3 -13 104.01 17.99
-3 -7 13 48.2 13.9
3 -10 13 13.46 5.41
7 3 13 72.53 14.75
7 -10 -13 84.02 10.12
-3 10 -13 78.82 20.52
10 -3 13 64.18 15.35
-10 3 -13 56.04 15.15
7 -10 -13 83.91 15.2
10 -7 -13 82.77 13.78
-7 10 16 247.35 43.18
10 -3 16 286.02 32.86
7 3 16 291.09 37.95
3 7 -16 343.67 45.77
-3 10 -16 247.9 41.78
-7 -3 -16 224.92 38.67
-10 7 16 256.33 40.88
-7 -3 -16 344.77 35.89
-3 -7 16 148.92 26.99
-10 3 -16 281.41 36.72
3 -10 16 107.74 24.47
7 3 16 233.37 29.77
10 -3 16 250.06 33.38
7 -10 -16 259.29 30.34
10 -7 -16 288.86 28.7
10 -3 19 -7.61 6.98
7 3 19 -1.04 4.38
7 -10 -19 -6.78 5.57
-7 -3 -19 1.25 1.38
-7 -3 -19 -4.2 4.97
-3 -7 19 3.81 5.06
-10 3 -19 2.32 4.34
10 -3 19 4.62 6.35
-2 10 18 10.74 8.15
10 -2 -18 7.22 4.17
8 2 -18 6.3 4.46
2 -10 -18 -5.54 10.24
-2 -8 -18 3.09 4.12
-10 2 18 2.7 4.17
-8 10 -18 5.06 5.68
-10 8 -18 14.38 9.7
8 -10 18 5.78 3.06
2 -10 -18 7.81 4.66
-8 -2 18 18.35 8.69
-10 2 18 10.42 8.25
2 8 18 2.94 4.54
10 -2 -15 6.47 6.57
-10 2 15 -1.23 4.74
-2 10 15 3.82 4.76
2 8 15 2.79 5.25
8 2 -15 0.41 4.95
2 -10 -15 -1.95 5.51
-2 -8 -15 5.35 5.27
-8 10 -15 7.75 8.96
-8 -2 15 2.09 1.55
-10 8 -15 -0.15 5.08
8 -10 15 0.87 2.68
10 -8 15 15.01 15.44
2 -10 -15 3.48 1.61
10 -8 15 3.29 3.9
-8 -2 15 2.76 4.51
-10 2 15 2.48 2.52
10 -8 12 521.68 27.56
2 -10 -12 549.47 38.33
8 2 -12 433.67 42.31
-2 10 12 443.84 52.14
2 8 12 572.71 56.02
-2 -8 -12 410.64 52.91
-2 -8 -12 803.6 32.12
-8 10 -12 391.74 40.55
10 -8 12 430.1 29.42
-8 -2 12 537.55 39.38
-8 -2 12 404.41 29.46
-10 2 12 495.31 23.42
-10 2 12 374.53 37.08
-10 8 -12 582.42 49.34
8 -10 12 371.48 48.52
10 -8 12 562.64 66.67
10 -8 12 404.99 39.8
-10 8 -12 397.55 39.75
2 -10 -12 488.82 60.15
-2 -8 -12 557.97 37.75
10 -2 -12 334.41 32.35
8 2 -12 487.79 42.37
10 -8 9 60.22 9.04
10 -8 9 56.36 8.31
8 -10 9 87.5 13.77
2 -10 -9 69.02 12.8
-2 10 9 64.14 17.99
-2 -8 -9 25.18 5.27
-8 10 -9 73.45 14.94
2 8 9 45.93 13.82
2 -10 -9 59.29 19.56
-2 -8 -9 92.63 9.16
-8 -2 9 70.71 12.25
-2 -8 -9 54 18.1
-10 2 9 69.42 14.11
-8 -2 9 48.15 8.62
8 -10 9 58.63 16.18
-8 10 -9 38.94 11.65
10 -8 9 98.89 25.93
2 8 9 52.19 8.19
-8 10 -9 52.92 12.14
8 2 -9 49.56 11.84
8 -10 9 42.55 12.86
-10 8 -9 63.73 14.01
10 -2 -9 51.04 11.49
10 -8 9 39.23 10.83
-10 8 -9 67.19 12.19
-2 -8 -9 74.12 6.55
10 -8 6 31.93 8.65
10 -2 -6 9.01 3.27
-8 10 -6 10.44 4.1
2 8 6 23.67 7.1
-10 8 -6 10.36 4.6
-2 -8 -6 21.15 4.22
-10 2 6 -6.74 11.6
-2 10 6 6.85 5.36
-8 10 -6 16.11 7.64
2 -10 -6 10.69 7.11
-2 -8 -6 4.85 3.19
10 -2 -6 13.51 5.98
8 -10 6 12.33 3.83
-8 -2 6 15.04 4.62
10 -8 6 11.52 2.98
-10 2 6 15.15 5.97
8 -10 6 18.05 5.37
-8 10 -6 16.98 7.36
-10 8 -6 13.83 5.29
8 -10 6 12.23 5.94
-8 -2 6 14.6 5.14
10 -8 6 17.67 6.8
2 8 6 15.56 3.45
2 8 6 16.94 4.86
2 -10 -6 13.23 5.61
8 2 -6 8.9 4.14
-8 10 -3 162.83 14.54
10 -2 -3 215.91 21.76
2 8 3 208.48 18.93
2 8 3 186.45 16.32
8 2 -3 173.66 19.15
-8 -2 3 215.97 18.08
-10 8 -3 144.81 15.49
-2 10 3 159.35 24.53
-10 2 3 139.22 16.09
-2 -8 -3 247.17 18.61
2 -10 -3 135.68 26.83
10 -8 3 275.88 21.83
-2 -8 -3 177.24 31.69
8 -10 3 187.58 19.18
-10 2 3 188.35 11.93
10 -8 3 215.8 19.27
8 2 -3 191.04 13.61
8 -10 3 242.98 19.48
8 -10 3 204.56 21.15
-8 -2 3 163.07 13.78
8 -10 3 103.93 15.98
2 8 3 198.11 13.67
-8 10 -3 184.99 16.18
10 -8 3 169.41 18.84
-8 10 -3 203.51 19.23
2 8 3 173.71 11.16
8 2 -3 189.01 19.58
-8 10 0 992.81 30.26
-10 8 0 1234.1 45.9
10 -8 0 1061.8 43.92
-10 2 0 957.31 41.76
8 2 0 1001.61 42.44
-8 -2 0 1237.72 48.56
-10 8 0 1044.41 41.02
-8 10 0 1062.78 36.23
-2 10 0 982.33 31.4
8 -10 0 1038.69 33.49
-8 10 0 995.36 34.65
-10 8 0 563.87 20
8 -10 0 1171.91 50.37
2 -10 0 905.97 64.28
-2 10 0 1204.17 45.24
-2 -8 0 1221.22 48.5
-2 -8 0 892 70.91
2 8 0 1033.37 45.64
8 2 0 1023.72 36.84
2 8 0 1032.18 17.99
-8 -2 0 1075.6 43.91
10 -2 0 1027.36 21.95
8 -10 0 1041.58 37.36
10 -8 0 953.2 28.07
8 2 0 1229.34 36.86
10 -2 0 984.15 44.34
-8 10 0 1245.12 51.23
-2 10 0 1339.59 44.27
8 -10 0 954.76 40.03
2 8 0 1149.3 44.41
10 -8 0 991.72 41.85
2 8 0 1180.82 39.73
-8 10 0 1209.18 39.17
2 8 -3 145.92 17.37
-2 10 -3 97.39 14.59
-8 10 3 107.17 16.25
8 -10 -3 136.88 17.47
2 8 -3 129.33 15.62
8 -10 -3 8.77 4.77
8 2 3 124.8 13.98
2 -10 3 92.32 18.89
-10 8 3 122.83 14.92
-2 10 -3 143.98 25.98
10 -8 -3 203.33 33.42
-8 10 3 105.25 12.59
-2 -8 3 81.44 20.18
-2 -8 3 105.04 15.51
2 -10 3 98.62 14.67
-8 10 3 120.81 14.25
8 2 3 144.99 12.26
-8 10 3 119.4 8.36
-2 10 -3 144.35 20.8
-10 8 3 106.34 10.95
-2 10 -3 136.13 16.02
8 -10 -3 116.26 11.7
-8 -2 -3 113.55 16.45
10 -2 3 129.92 9.69
10 -2 3 113.92 14.48
10 -8 -3 92.02 12.02
8 2 3 113.14 13.59
-10 2 -3 105 14.53
10 -8 -3 114.57 14.48
8 2 6 6.2 3.26
8 -10 -6 5.2 2.41
10 -8 -6 5.9 3.45
2 8 -6 4.34 3.08
-10 8 6 2.92 3.07
-10 2 -6 3.27 1.9
-8 10 6 14.58 6.89
2 8 -6 8.66 5.94
10 -8 -6 9.48 8.51
10 -8 -6 3.21 2.26
8 -10 -6 5.33 4.44
10 -2 6 5.29 2.86
-10 8 6 14.48 4.94
-8 10 6 6.3 2.96
2 -10 6 10.58 5.89
-2 -8 6 2.34 1.88
-8 -2 -6 8.83 6.15
-2 10 -6 1.62 2.7
-2 10 -6 3.81 3.27
-2 -8 6 11.04 6.03
8 -10 -6 17.99 6.38
-8 10 6 11.22 4.55
-2 -8 6 6.68 4.45
2 -10 6 8.94 5.76
-2 10 -6 17.45 4.44
-10 8 6 4.38 2.39
2 -10 6 7.69 5.9
-10 8 6 3.32 1.75
-8 10 6 3.23 2.02
-2 10 -6 4.27 4.74
-10 2 -9 4.99 4.4
8 -10 -9 8.39 2.99
-10 8 9 4.81 4.41
10 -8 -9 4.66 2.84
2 8 -9 8.41 4.19
-8 10 9 10.46 8.22
-2 10 -9 9.94 4.32
2 8 -9 10.04 6.84
-2 -8 9 7.58 4.83
8 -10 -9 21.74 7.75
-8 10 9 8.15 3.01
-2 10 -9 10.51 6.58
-2 10 -9 15.48 8.26
-8 10 9 3.83 2.66
-10 8 9 6.25 2.46
2 -10 9 9.8 2.66
-2 -8 9 3.8 3.83
2 -10 9 0.42 3.71
-2 -8 9 7.23 2.35
-10 8 9 -0.53 4.99
-8 -2 -9 12.28 7.7
10 -2 9 5.04 3.93
8 2 9 22.61 6.79
-2 -8 9 8.96 3.65
-10 8 12 556.81 53.59
-8 10 12 510.67 54.32
2 8 -12 710.72 58.46
8 2 12 575.45 44.61
10 -2 12 602.63 42.35
-2 -8 12 778.74 33.55
-2 10 -12 596.08 56.86
-8 -2 -12 587.64 68.44
-2 -8 12 373.43 39.15
2 -10 12 305.98 42.22
-10 2 -12 502.69 46.56
8 2 12 541.09 38.86
10 -2 12 585.99 44.66
8 -10 -12 521.65 27.02
10 -8 -12 454.29 35.14
8 -10 -12 648.06 43.43
-10 8 15 9.71 7.98
-8 10 15 2.01 2.75
10 -2 15 8.42 4.17
8 2 15 10.92 6.98
8 -10 -15 10.91 5.02
2 8 -15 7.78 7.82
-8 -2 -15 4.02 2.98
-2 10 -15 9.34 4.26
10 -8 -15 6.28 3.87
-2 -8 15 3.48 1.16
2 -10 15 4.55 4.57
-8 -2 -15 16.89 6.97
-10 2 -15 5.9 3.71
8 2 15 8.15 5.31
10 -2 15 11.02 7.94
-10 8 18 6.86 8.53
-8 10 18 -6.84 10.09
10 -2 18 -0.21 4.26
8 2 18 7.65 8.08
8 -10 -18 -5.59 5.12
2 8 -18 0.91 2.83
-8 -2 -18 -4.28 6.73
-2 10 -18 2.37 2.23
-10 2 -18 4.64 5.48
-2 -8 18 0.14 2.36
2 -10 18 -7.56 6.3
-8 -2 -18 0.51 2.57
-10 2 -18 3.54 4.9
8 2 18 3.13 3.98
10 -2 18 -4.25 1.99
10 -1 -19 36.4 14.23
1 -10 -19 20.3 11.11
-1 -9 -19 9.89 7.63
-9 -1 19 23.46 11.09
-10 1 19 26.55 11.97
-1 10 16 172.44 34.84
9 1 -16 151.29 28.41
1 -10 -16 156.12 22.18
1 9 16 178.62 34.77
1 -10 -16 123.9 31.24
-1 -9 -16 111.78 29.49
-9 10 -16 153.27 26.72
-10 9 -16 183.22 29.41
-9 -1 16 153.1 24.4
-10 1 16 149.68 25.58
10 -9 16 137.6 33.01
9 -10 16 86.4 23.2
10 -9 16 109.85 23.27
10 -1 -16 145.71 24.72
9 1 -16 163.73 27.3
1 9 13 194.4 35.24
-1 10 13 159.36 32.41
1 -10 -13 158.52 21.14
1 -10 -13 148.34 34.57
-1 -9 -13 132.11 30.54
9 1 -13 144.62 25.51
-10 9 -13 152.67 26.26
-9 10 -13 102.73 21.21
-9 -1 13 122.07 15.76
-9 -1 13 174.62 24.11
-10 1 13 191.01 26.71
-1 -9 -13 193.54 23.35
9 -10 13 119.93 27.45
10 -9 13 155.7 33.47
9 -10 13 136.85 25.32
10 -9 13 147.75 25.65
-10 9 -13 145.38 24.98
10 -1 -13 137.57 21.77
9 1 -13 177.95 25.95
10 -9 10 187.78 11.16
-1 10 10 172.42 32.28
10 -9 10 168.68 16.95
1 9 10 193.48 32.32
1 -10 -10 165.4 34.89
-1 -9 -10 135.84 30.92
1 -10 -10 178.96 21.86
-9 -1 10 160.21 20.25
-10 1 10 181.24 23.22
-10 1 10 105.53 8.6
-9 -1 10 150.31 14.45
-9 10 -10 154.28 24.33
-1 -9 -10 161.38 21.07
9 -10 10 165.51 31.81
-10 9 -10 150.19 24.27
10 -9 10 147.93 30.3
9 -10 10 138.2 23.05
10 -9 10 138.61 22.99
-9 10 -10 139.56 20.99
-10 9 -10 134.47 20.31
10 -1 -10 137.2 20.05
9 1 -10 131.37 19.92
10 -1 -7 501.99 35.52
-1 10 7 471.86 49.2
1 9 7 505.81 46.41
-10 1 7 247.5 29.91
1 -10 -7 535.25 59.86
-1 -9 -7 466.25 54.45
-9 -1 7 526.52 32.5
9 -10 7 784.97 41.11
-10 1 7 527.52 34.66
10 -9 7 528.46 18.81
1 -10 -7 584.85 39.71
9 -10 7 747.41 59.29
10 -9 7 737.52 59.48
-9 10 -7 437.08 38.15
10 -9 7 1077.83 39.53
9 -10 7 373.68 35.15
-1 10 7 641.33 50.82
-9 -1 7 431.46 32.51
10 -9 7 400.56 34.29
1 9 7 560.64 42.53
-9 10 -7 476.76 32.09
-10 9 -7 432.77 31.4
-10 9 -7 448.84 32.75
9 1 -7 526.56 37.14
10 -1 -4 66.5 12.83
10 -9 4 116.84 14.32
9 1 -4 54.85 10.97
-9 -1 4 66.81 10.4
1 9 4 64.18 9.79
-10 1 4 75.5 12.06
-1 10 4 60.27 15.2
-9 -1 4 51.18 7.71
1 -10 -4 62.86 20.24
-1 -9 -4 57.62 18.93
-9 10 -4 40.89 8.84
-10 9 -4 55.85 10.23
-1 -9 -4 99.83 6.83
9 -10 4 111.8 14.72
-10 1 4 51.73 7.5
10 -9 4 77.12 12.1
9 -10 4 80.02 13.66
10 -9 4 101.34 15.07
9 1 -4 79.1 8.82
-1 10 4 70.82 12.75
10 -9 4 68.01 12.75
-10 9 -4 77.69 13.24
1 9 4 65.01 5.19
1 9 4 72.84 10.08
9 -10 4 40.79 9.69
-9 10 -4 82.87 13.6
9 1 -4 79.58 13.42
-9 10 -4 75.14 11.49
9 1 -1 855.4 41.77
-10 9 -1 1063.94 43.78
-9 -1 1 889.72 39.04
10 -9 1 1427 60.89
-10 9 -1 961.78 39.34
1 9 1 931.06 42.06
10 -9 1 1089.65 47.14
9 -10 1 926.33 30.37
10 -1 -1 800.71 40.71
1 9 1 894.83 16.86
-1 10 1 1036.15 43.19
-10 1 1 887.29 40.63
1 9 1 1008.45 42.18
1 -10 -1 691.56 60.88
-1 -9 -1 830.13 69.07
9 -10 1 1346.06 54.69
-9 10 -1 641.23 27.42
-1 -9 -1 1577.44 48.14
1 9 1 919.31 32.16
-1 10 1 830.51 14.62
9 -10 1 881.03 35.27
-10 9 -1 976.3 30.52
10 -9 1 1026.41 34.67
-9 10 -1 799.02 33.24
9 1 -1 1081.12 30.93
10 -1 -1 1154.79 23.96
9 1 -1 1116.69 41.19
-9 10 -1 873.92 52.3
-1 10 1 969.95 37.11
9 -10 1 763.46 38.24
10 -9 1 853.23 40.49
-1 10 1 808.24 16.09
-1 10 1 907.57 28.33
-9 10 -1 1204.84 44.14
10 -9 -2 1321.88 51.34
-9 10 2 942.59 40.43
9 -10 -2 1285.7 55.29
1 9 -2 1025.83 40.22
9 -10 -2 1163.89 49.32
-10 9 2 910.34 39.92
1 -10 2 846.21 61.5
-1 -9 2 877.49 67.47
9 1 2 939.88 38.71
-9 10 2 1008.73 29.76
9 1 2 429.87 28.61
-1 10 -2 1285.98 78.84
-1 -9 2 1269.07 55.44
1 -10 2 997.32 47.06
1 -10 2 1515.98 62.55
-9 10 2 1047.71 44.13
-10 9 2 797.92 42.72
-1 10 -2 1190.45 48.12
1 9 -2 1191.9 48.64
-1 10 -2 1075.56 54.44
9 -10 -2 825.92 34.85
10 -9 -2 942.84 39.48
-9 -1 -2 956.51 44.76
-1 10 -2 868.79 38.78
10 -1 2 916.18 41.79
1 9 -2 930.54 40.45
9 1 2 1082.57 44.6
-10 1 -2 1002.34 45.66
-10 9 2 890.93 31.78
-9 10 2 826.47 35.35
1 9 -5 700.4 31.23
-1 10 -5 700.71 28.55
-10 9 5 613.03 41.94
-9 10 5 634.21 44.52
-10 9 5 831.47 36.3
9 -10 -5 956.24 58.18
1 9 -5 667.08 42.51
-1 10 -5 554.66 39.2
1 -10 5 574.26 45.13
10 -9 -5 1209.06 81.19
-1 -9 5 534.83 47.06
10 -1 5 473.18 16.67
9 1 5 671.35 24.21
-1 10 -5 729.64 56.06
-10 9 5 667.12 37.25
-9 10 5 703.33 30.31
-1 10 -5 685.23 43.61
9 -10 -5 775.96 41.48
-1 -9 5 899.62 55.25
1 9 -5 461.35 38.35
-9 10 5 455.65 30.36
-1 -9 5 638.57 39.59
1 -10 5 652.02 40.72
-9 10 5 668.3 33.08
1 -10 5 1194.55 67.38
-10 9 5 640.97 29.22
-1 10 -5 893.73 58.14
-9 -1 -5 547.99 39.58
-10 1 -5 597.14 38.11
10 -1 5 636.79 35.82
9 -10 -5 542.61 26.45
9 1 5 634.19 34.3
10 -9 -5 565 29.13
10 -9 -5 721.84 40.02
1 9 -8 4.18 3.04
-10 1 -8 6.74 5.63
-9 -1 -8 -0.34 3.35
-9 10 8 5.95 5.38
9 -10 -8 1.68 1.08
10 -9 -8 5.01 3.11
10 -9 -8 3.65 3.25
1 -10 8 3.45 2.84
-10 9 8 2.13 1.95
1 9 -8 10.08 6.66
-1 -9 8 4.58 3.15
9 -10 -8 4.74 3.6
-1 10 -8 8.82 5.17
-9 10 8 1.74 2.13
-1 -9 8 6.97 5.94
1 -10 8 4.77 4.96
-10 9 8 4.21 2.61
-1 10 -8 0.86 1.77
-10 9 8 -0.28 4.01
-10 9 8 -0.43 2.09
10 -1 8 1.74 1.9
9 1 8 8.01 4.59
10 -9 -11 219.35 21.85
-10 9 11 282.28 37.67
-9 10 11 240.32 36.25
9 -10 -11 278.15 20.89
1 9 -11 293.2 36.78
-1 -9 11 348.86 26.05
-9 10 11 317.6 26.85
-1 -9 11 157.92 25.41
1 -10 11 186.78 30.12
-1 -9 11 310.96 17.36
-9 -1 -11 180.28 29.23
-10 1 -11 203.92 29.35
10 -1 11 264.48 28.32
9 1 11 259.13 26.59
-10 9 11 256.6 29.75
10 -9 -11 291.1 31.03
9 -10 -11 341.61 32.01
-1 10 -11 173.19 29.16
-10 9 14 270.42 41.1
10 -9 -14 259.02 27.44
-9 10 14 254.78 41.62
10 -1 14 309.11 33.88
9 1 14 246.09 31.5
1 9 -14 330.34 43.08
-9 -1 -14 287.11 46.82
-1 -9 14 162.56 29.38
1 -10 14 121.19 27.23
-1 10 -14 320.07 44.17
-9 -1 -14 278.22 32.31
-10 1 -14 394.03 39.88
9 -10 -14 272.06 24.13
9 1 14 257.55 30.64
10 -1 14 281.87 32.98
9 -10 -14 319.3 34.07
-9 -1 -17 74.15 21.52
-10 9 17 71.73 23.09
-9 10 17 76.56 24.79
10 -1 17 68.3 17.19
9 -10 -17 66.49 17.18
1 9 -17 88.69 24.89
-1 10 -17 63.96 20.57
-10 1 -17 69.78 20.25
-1 -9 17 30.04 12.8
1 -10 17 20.41 11.1
-9 -1 -17 64.9 16.78
-10 1 -17 73.11 18.65
9 1 17 57.48 16
10 -1 17 64.84 17.19
9 1 17 70.07 18.47
10 -1 20 39.52 13.6
-9 -1 -20 41.83 13.67
10 0 -17 3.52 3.17
0 10 17 -3.78 5.42
0 -10 -17 4.64 3.38
-10 10 -17 0.82 3.61
10 -10 17 -5.41 8.7
-10 0 17 -3.67 3.71
10 0 -14 5.62 5.97
0 -10 -14 -5.59 9.47
0 10 14 5.31 5.99
-10 10 -14 2.74 3.24
10 -10 14 -1.74 6.46
-10 0 14 8.25 6.09
10 -10 14 3.98 4.28
0 -10 -14 3.75 2.61
10 0 -11 -1.97 3.75
-10 10 -11 0.64 1.84
0 10 11 9.99 6.82
0 -10 -11 -0.97 4.98
-10 0 11 -0.96 1.52
10 -10 11 -3.72 7.36
-10 10 -11 -3.93 4.73
-10 0 11 -0.7 1.18
10 -10 11 1.45 1.79
0 -10 -11 0.7 3.32
0 -10 -8 795.45 73.79
-10 0 8 779.89 43.25
10 0 -8 806.66 48.16
10 -10 8 1031.27 74.68
-10 10 -8 728.2 51.29
0 -10 -8 925.48 52.32
10 -10 8 750.82 51.67
0 10 8 933.73 61.33
-10 10 -8 715.91 42.9
0 10 8 833.1 66.4
-10 0 8 537.39 40.76
10 0 -5 6.39 4.93
-10 10 -5 0.68 1.13
0 10 5 6.36 5.29
0 10 5 1.2 1.74
0 -10 -5 -0.11 5.04
-10 0 5 3.15 2.28
10 -10 5 -1.43 5.59
0 10 5 0.12 3.4
10 -10 5 -4.3 4.47
-10 0 5 3.45 2.35
10 0 -5 -0.75 3.45
-10 10 -2 49.81 8.87
-10 0 2 38.86 9.35
0 10 2 57.25 10.61
10 -10 2 50.45 7.33
10 0 -2 32.32 8.85
0 -10 -2 39.35 16.47
10 -10 2 47.18 8.8
10 0 -2 41.05 5.21
-10 10 -2 57.11 10.41
0 10 2 41 7.3
-10 10 -2 46.27 8
0 10 2 37.84 4.42
10 -10 2 42.41 10.05
10 -10 2 34.27 8.7
0 10 2 38.94 4.68
0 10 2 41.18 6.22
0 10 -1 -1.12 2.09
10 0 1 2.23 3.46
-10 10 1 0.85 0.52
-10 10 1 1.68 1.55
10 -10 -1 -0.01 1.28
0 10 -1 1.65 2.32
0 10 -1 6.73 3.12
-10 0 -1 1.01 2.84
0 -10 1 12.64 8.7
10 -10 -1 3.65 3.29
10 0 1 0.93 0.83
-10 10 1 1.23 1.97
0 -10 1 1.35 1.99
-10 10 1 -4.01 5.06
10 -10 -1 2.64 3.19
0 10 -1 -0.26 1.79
10 -10 -4 1004.08 47.58
-10 10 4 905.2 47.76
10 -10 -4 1563.69 76.69
0 10 -4 1042.64 51.04
0 10 -4 1254.83 56.64
0 -10 4 911.78 64.76
-10 10 4 865.09 40.48
10 0 4 941.93 35.46
0 -10 4 914.16 47.47
0 -10 4 1730.31 77.92
-10 10 4 945.51 40.19
0 10 -4 1320.84 68.57
-10 0 -4 911.04 47.9
10 0 4 998.06 20.92
10 -10 -4 933.58 38.09
10 0 4 1036.55 45.4
-10 10 4 1077.99 31.41
-10 0 -7 9.52 6.02
10 -10 -7 0.33 1.12
0 10 -7 1.26 1.53
10 0 7 0.27 0.55
-10 10 7 1.98 2.84
0 -10 7 3.14 2.24
0 10 -7 0.79 1.76
-10 10 7 -1.3 1.67
0 -10 7 8.65 6.18
-10 10 7 1.92 1.32
-10 10 7 -0.62 2.65
10 0 7 -0.74 1.79
-10 10 10 11.01 7.76
0 10 -10 19.12 6.04
10 -10 -10 14.7 5.4
0 -10 10 18.58 6.54
0 10 -10 11.08 7.31
-10 10 10 9.99 4.54
0 -10 10 5.38 6.45
-10 10 10 5.06 1.95
10 -10 -10 9.78 3.85
10 0 10 13.5 6.13
-10 0 -10 12.97 7.71
-10 10 13 3.46 3.36
10 -10 -13 -0.71 2.61
10 -10 -13 -0.88 3.61
0 10 -13 1.4 3.97
0 -10 13 -2.27 5.57
10 0 13 2.3 2.87
10 0 13 -2.05 4.1
-10 0 -13 -2.12 4.52
10 0 16 157.61 27.25
0 10 -16 226.46 39.58
-10 0 -16 139.83 31.13
-10 0 -16 173.36 27.13
-10 10 16 147.82 33.01
0 -10 16 79.1 22.33
10 0 16 127.08 23.01
10 -10 -16 178.01 28.55
10 0 19 1.73 4.03
-10 0 -19 4.96 4.73
10 0 19 -3.83 5.54
-5 -6 -20 358.93 49.84
5 -11 -20 345.34 38.39
11 -5 -17 9.44 5.97
-11 5 17 9.4 8.83
-5 11 17 6.46 4.66
5 6 17 6.65 5.62
6 5 -17 5.98 8.55
-5 -6 -17 7.52 7.15
-6 11 -17 15.76 10.97
5 -11 -17 5.57 4.88
-6 -5 17 9.66 5.29
6 -11 17 -6.06 10.61
-11 6 -17 9.14 3.79
11 -6 17 5.99 3.01
-6 -5 17 6.17 4.49
-11 5 17 14.72 8.47
-11 5 14 31.44 12.81
-5 11 14 50.64 16.99
11 -6 14 45.67 11.2
5 6 14 43.94 14.8
6 5 -14 39.64 14.66
11 -5 -14 43.88 11.8
-6 -5 14 66.68 13.01
-6 11 -14 39.03 14.5
5 -11 -14 42.34 10.83
-6 -5 14 28 9.87
-5 -6 -14 43.48 10.78
6 -11 14 12.5 3.67
-11 6 -14 48.32 14.53
-5 -6 -14 43.98 18.5
5 6 14 52.5 12.93
-11 5 14 44.43 13.62
11 -6 14 46.41 14.28
-11 6 -14 33.46 12.25
-11 5 11 1.7 2.22
-11 6 -11 2.23 3.47
-5 -6 -11 0.69 0.54
-5 11 11 0.6 3.54
11 -6 11 0.4 2.75
5 6 11 3.09 4.98
6 5 -11 1.23 1.71
5 -11 -11 -1.35 3.56
-5 -6 -11 1.82 4.73
11 -5 -11 1.15 2.32
-6 -5 11 -0.6 3.19
6 -11 11 -0.2 1.9
-6 -5 11 1.06 1.77
-6 11 -11 1.1 1.89
5 -11 -11 -0.59 0.99
-5 -6 -11 -2.65 3.49
-6 -5 11 -1.79 3.08
-11 5 11 -1.08 3.17
5 6 11 1.29 1.81
11 -6 11 -2.7 5.09
11 -5 -8 800.87 47.43
5 -11 -8 1168.92 54.91
6 5 -8 886.44 54.61
5 -11 -8 814.73 69.98
-6 -5 8 953.49 37.36
-6 11 -8 1158.93 70.67
6 -11 8 698.1 34.66
-5 -6 -8 846.48 74.79
-6 -5 8 1037.32 68.77
-6 11 -8 987.59 63.74
-11 5 8 625.58 43.04
-6 -5 8 853.46 43.87
6 -11 8 1257.38 78.34
-5 11 8 883.22 61.83
-6 11 -8 688.09 38.48
11 -6 8 1032.78 56.11
5 6 8 825.73 34.72
-11 6 -8 926.14 49.7
-5 -6 -8 1121.02 41.63
6 5 -8 909.96 53.61
6 5 -5 37.46 9.18
11 -5 -5 31.76 8.42
-6 -5 5 40.24 7.33
-11 6 -5 35.76 9.07
-5 11 5 30.92 9.72
-6 11 -5 39.2 8.41
5 -11 -5 31.15 12.11
5 6 5 33.61 7.08
-6 11 -5 36.99 12.63
-5 -6 -5 30.33 13.51
-6 -5 5 28.44 13.06
6 5 -5 41.06 8.08
6 -11 5 48.49 7.53
6 -11 5 46.55 11.95
-6 11 -5 29.21 10.08
-11 5 5 30.06 8.83
-6 11 -5 37.7 7.23
5 -11 -5 36.79 9.26
5 6 5 37 6.51
11 -6 5 42.81 10.32
-6 11 -5 40.4 10.38
5 6 5 45.1 6.34
-5 -6 -5 36.98 7.41
-6 11 -2 22.72 5.74
-6 11 -2 19.52 6.19
-5 11 2 16.7 2.65
6 5 -2 15.28 5.54
-6 11 -2 15.05 2.86
5 6 2 18.34 4.96
11 -5 -2 39.81 12.64
11 -6 2 17.71 5.81
-6 11 -2 22.51 4.59
-5 11 2 16.57 6.23
-6 -5 2 29.43 7.91
5 -11 -2 16.23 8.94
-6 -5 2 19.37 6.09
-11 6 -2 17.95 5.85
-5 -6 -2 22.29 12.41
-6 -5 2 12.2 8.63
5 6 2 16.99 5.38
6 -11 2 24.03 7.06
-11 5 2 20.59 6.68
-5 11 2 13.7 3.41
5 6 2 17.1 4.16
6 5 -2 25.48 6.03
11 -6 2 23.7 5.18
-6 11 -2 9.97 4.51
11 -6 2 29.99 9.76
-5 11 2 17.57 3.92
5 6 2 17.97 5.22
11 -5 -2 16.55 6.32
5 6 2 15.25 4.42
-5 -6 -2 19 7.85
5 -11 -2 17.92 6.23
6 5 1 67.61 10.28
11 -6 -1 113.03 22.39
-5 11 -1 58.58 6.31
-11 5 -1 61.64 11.09
-6 11 1 50.92 9.74
-5 11 -1 51.29 8.37
5 6 -1 45.21 8.41
-11 6 1 37.09 3.27
-6 -5 -1 65.03 10.11
-11 6 1 57.64 10.58
-6 11 1 74.82 11.33
-5 -6 1 60.47 10.7
-6 11 1 53.85 7.17
11 -5 1 103.05 17.16
6 5 1 60.26 7.88
-5 11 -1 73.81 10.98
-5 11 -1 44.79 8.71
-6 11 1 68.04 7.18
-5 -6 1 62.12 20.59
6 -11 -1 73.01 13.55
-6 -5 -1 56.17 20.14
5 -11 1 60.55 10.82
6 5 1 63.43 10.36
5 6 -1 75.88 10.96
5 6 -1 61.29 6.96
11 -5 1 58.66 6.5
6 5 1 66.38 10.3
-6 11 1 31 7.45
6 -11 -1 55.84 9.84
-6 -5 -1 84.98 15.77
-5 -6 1 68.4 12.33
-5 11 -1 56.68 8.12
11 -6 -1 86.98 12.07
11 -5 1 48.21 9.86
11 -6 -1 52.01 9.92
5 6 -1 82.87 12.73
5 6 -1 70.15 11.05
6 5 4 501.71 21.02
6 5 4 501.75 27.18
-6 -5 -4 463.98 26.29
-6 11 4 601.99 18.32
6 5 4 561.11 28.8
11 -5 4 644.63 26.44
6 -11 -4 564.97 37.2
-5 -6 4 792.77 45.95
-11 6 4 408.67 29.72
-5 11 -4 660.37 56.4
-6 -5 -4 432.85 26.88
-5 -6 4 539.21 58.66
-6 -5 -4 425.12 53.91
-5 11 -4 383.56 32.16
-6 11 4 422.7 34.14
5 -11 4 510.18 35.63
-6 11 4 478.6 26.09
-6 11 4 296.27 17.92
5 6 -4 567.12 31.08
-6 -5 -4 545.08 46.71
-5 11 -4 331.33 18.13
-5 11 -4 641.37 38.75
11 -5 4 529.42 34.24
-5 11 -4 550.03 32.8
6 5 4 478.27 25.38
-11 5 -4 444.14 30.91
-5 -6 4 771.11 34.12
11 -6 -4 403.72 28.52
5 6 -4 364.37 28.72
-6 11 7 5.2 5.07
11 -6 -7 5.5 3.1
-11 5 -7 2.46 0.95
-5 11 -7 9.37 3.82
-5 -6 7 4.67 4.03
-6 -5 -7 9.28 7.36
5 6 -7 6.01 4.2
-5 -6 7 10.26 5.33
-5 -6 7 12.47 3.84
-5 11 -7 4.71 2.02
5 -11 7 11.62 5.88
5 6 -7 2.17 0.87
-11 6 7 9.21 5.52
6 -11 -7 13.03 6.28
5 -11 7 10.67 3.46
11 -5 7 7.95 4.73
6 5 7 7.73 3.57
6 -11 -10 58.26 12.04
-6 -5 -10 80.08 11.44
-11 6 10 70.03 17.01
-6 -5 -10 50.81 19.17
11 -6 -10 49.91 12.08
-6 11 10 52.85 15.77
5 -11 10 116.1 14.29
5 6 -10 66.48 16.22
-5 11 -10 93.34 19.42
-5 -6 10 88.65 17.43
-5 -6 10 57.46 9.42
-11 6 10 69.48 15.2
-5 11 -10 52.37 15.35
-5 -6 10 46.52 11.08
11 -5 10 82.26 8.52
5 -11 10 52.92 16.44
6 5 10 55.79 10.55
11 -5 10 66.54 15.02
11 -6 -10 62.81 12.04
-11 5 -10 67.24 15.03
-6 11 13 2.56 1.59
6 5 13 4.42 3.9
5 6 -13 14.56 9.12
-6 -5 -13 7.46 7.1
11 -6 -13 5.86 3.91
6 -11 -13 6.79 5.24
-5 11 -13 4.02 5.9
-5 -6 13 0.26 1.69
-6 -5 -13 6.73 4.47
11 -5 13 8.15 4.41
-11 5 -13 6.94 6.62
-11 6 13 4.09 3.08
-5 -6 13 4.63 3.68
-11 6 13 7.58 5.38
6 5 13 6.75 4.47
11 -5 13 8.2 5.91
-11 5 -13 3.62 5.01
-6 11 16 225.62 40.74
-11 6 16 194.9 34.22
11 -5 16 213.54 27.28
6 5 16 222.06 34.64
-5 11 -16 254.4 40.15
-6 -5 -16 171.72 35.49
5 6 -16 272.54 39.53
-6 -5 -16 321.52 32.82
-5 -6 16 136.11 23.67
-11 5 -16 231.67 34.35
-5 -6 16 254.48 26.48
5 -11 16 102.25 24.57
6 5 16 231.74 28.87
11 -5 16 215.42 32.63
-11 6 16 249.55 35
6 -11 -16 195.28 25.36
11 -6 -16 216.01 26.82
-6 -5 -19 8.65 9
6 -11 -19 13.22 6.01
-5 -6 19 4.78 1.54
4 -11 -18 90.26 17.87
-4 -7 -18 60.25 21.05
-7 -4 18 92.97 18.38
11 -4 -18 65.23 16.1
-11 4 18 80.23 20.29
-11 4 15 198.63 32.44
4 -11 -15 215.3 25.28
-4 11 15 204.78 37.55
7 4 -15 230.46 35.23
4 7 15 233.62 37.36
4 -11 -15 190.33 38.6
11 -4 -15 181.15 25.59
-4 -7 -15 180.94 36.45
-7 11 -15 212.36 32.87
-7 -4 15 170.7 23.38
-11 7 -15 209.47 31.39
-7 -4 15 286.75 29.2
-11 4 15 178.35 28.52
7 -11 15 112.09 26.08
11 -7 15 194.81 30.91
-11 7 -15 141.16 25.78
-11 4 12 171.98 27.58
11 -4 -12 226.96 26.09
-4 11 12 239.69 37.56
7 4 -12 199.67 30.14
11 -7 12 311.68 26.2
4 7 12 221.79 33.03
4 -11 -12 218.7 40.63
-4 -7 -12 182.79 36.23
-7 -4 12 276.34 27.4
-7 11 -12 223.74 32.13
-4 -7 -12 380.03 28.95
-7 -4 12 222.17 23.18
-7 -4 12 186.86 22.29
-11 4 12 270.21 32.17
4 -11 -12 239.51 25.4
7 -11 12 132.02 30.18
-11 7 -12 305.44 36.01
4 7 12 211.59 22.7
11 -7 12 157.19 25.79
-11 7 -12 178.6 27.05
11 -7 9 755.95 26.3
11 -4 -9 513.86 40.44
-4 11 9 558.97 53.38
7 4 -9 572.55 45.31
4 -11 -9 741.24 44.72
4 7 9 612.64 47.59
4 -11 -9 531.12 59.73
7 -11 9 968.13 45.88
-7 11 -9 783.15 54.86
-4 -7 -9 484.43 56.34
-7 -4 9 628.51 33.33
-7 11 -9 515.55 46.02
-11 4 9 609.39 43.51
-7 -4 9 456.98 31.52
7 -11 9 681.51 63.28
-4 -7 -9 971.81 42.46
11 -7 9 1125.59 97.17
-7 11 -9 461.38 33.94
4 7 9 538.32 29.76
11 -7 9 575.64 44.06
-11 7 -9 539.07 40.2
7 4 -9 379.57 35.6
-4 -7 -9 603.34 29.3
11 -4 -9 615.56 39.98
11 -4 -6 38.07 9.77
-4 -7 -6 43.24 6.87
-11 7 -6 36.72 8.88
-7 -4 6 44.14 7.98
-4 11 6 33.68 11.76
7 4 -6 40.22 9.88
-11 4 6 55.99 11.84
-7 11 -6 49.95 14.2
-4 -7 -6 39.26 15.9
7 4 -6 47.07 9
7 -11 6 49.02 12.88
-7 11 -6 39.03 11.44
11 -7 6 69.09 19.16
4 -11 -6 35.89 14.5
7 -11 6 42.39 12.43
-7 11 -6 34.41 8.05
4 7 6 35.06 5.97
4 -11 -6 45.07 10.29
4 7 6 43.83 6.81
11 -7 6 46.25 10.96
4 7 6 51.94 10.3
7 4 -3 592.9 35.17
-7 -4 3 706.02 33.13
4 7 3 634.88 25.8
4 7 3 609.29 28.68
-4 11 3 572.96 44.23
11 -7 3 977.14 38.84
-4 -7 -3 659.07 30.42
4 7 3 772.1 35.69
-11 4 3 344.66 19.1
-11 4 3 670.02 37.37
4 -11 -3 499.26 51.06
-4 -7 -3 527.96 58.15
4 -11 -3 739.93 43.01
7 -11 3 677.63 38.25
-7 11 -3 456.87 36.97
7 4 -3 675.98 30.42
11 -7 3 879.08 39.32
-4 11 3 572.96 23.38
7 -11 3 660.49 44.11
-7 11 -3 726.63 34.7
11 -7 3 611.89 37.21
-7 11 -3 776.09 37.91
-11 7 -3 588.44 33.62
-7 11 -3 729.23 29.98
4 7 3 612.93 25.81
11 -4 -3 597.61 36
11 -4 0 853.4 48.57
-7 11 0 514.2 26.09
4 7 0 569.87 28.38
-11 4 0 615.3 35.06
7 4 0 688.98 36.06
-11 7 0 646.7 34.82
-4 11 0 545.16 37.08
-4 11 0 646.72 18.29
-7 -4 0 782.63 37.93
7 4 0 585.3 32.18
-7 11 0 619.72 25.28
-7 11 0 726.27 32.71
-4 11 0 705.66 34.97
4 -11 0 560.02 51.62
-4 11 0 458.88 24.52
-4 -7 0 537.11 59.61
7 4 0 597.16 26.83
4 7 0 682.73 21.45
11 -7 0 750.33 34.99
7 -11 0 713.19 42.23
7 -11 0 637.69 32.78
11 -7 0 715.62 20.21
7 4 0 776.06 33.85
11 -4 0 563.65 12.37
4 7 0 626.15 37.16
-7 11 0 693.98 38.56
-7 11 0 405.85 29.88
-11 7 0 395.6 13.07
4 7 0 771.57 37.17
-11 7 0 733.9 34.17
7 -11 0 648.11 36.98
-4 -7 0 716.96 37.42
-4 11 0 724.8 25
-7 -4 0 738.34 41.49
11 -7 0 549.59 32.64
11 -4 0 602.21 34.72
-7 11 0 583.21 26.08
4 7 0 603.87 30.8
-7 -4 -3 152.67 16.32
-4 11 -3 132.7 14.31
7 4 3 160.44 15.12
4 7 -3 104.86 15.33
-11 7 3 122.88 15.81
-4 -7 3 123.98 17.93
-4 11 -3 110.86 15.43
-4 -7 3 117.95 27.51
-11 7 3 157.71 15.14
-7 11 3 122.28 12.76
7 4 3 104.47 9.91
7 4 3 168.92 17.19
4 -11 3 128.84 17.05
-7 11 3 115.01 5.97
-7 11 3 140.25 16.59
11 -4 3 132.78 11.25
4 -11 3 126.57 22.01
-4 11 -3 149.33 16.7
7 -11 -3 141.29 13.85
-4 11 -3 117.27 8.7
-4 11 -3 164.24 19.37
-7 -4 -3 190.12 26.63
-4 -7 3 189.95 16.36
11 -7 -3 142.21 16.37
7 -11 -3 147.37 18.86
11 -4 3 103.71 14.9
11 -7 -3 106.69 13.95
7 4 3 114.91 13.3
-7 11 3 104.68 16.36
-11 4 -3 120.02 16.03
4 7 -3 111.24 14.78
-7 11 6 142.86 22.16
7 -11 -6 193.44 22.22
4 7 -6 153.13 20.98
-4 11 -6 115.68 8.58
-4 11 -6 73.75 13.22
-7 11 6 174.47 12.93
7 -11 -6 184.16 21.97
-4 11 -6 206.19 32.43
-4 11 -6 140.6 21.02
-4 -7 6 148.08 27.89
-11 7 6 152.61 19.07
-7 -4 -6 164.21 36.03
-4 -7 6 251.38 16.06
-4 -7 6 145.57 18.51
4 -11 6 158.18 22.45
-7 11 6 114.91 15.06
-7 -4 -6 164.28 27.79
-4 11 -6 257.48 30.92
7 -11 -6 172.31 11.38
11 -4 6 173.14 20.54
-11 4 -6 109.34 16.43
7 4 6 172.9 16.31
11 -7 -6 128.68 16.24
-11 4 -9 15.1 7.65
-11 7 9 1.74 0.62
11 -7 -9 2.42 0.49
-7 -4 -9 6.45 3.65
-7 11 9 3.71 2.1
11 -4 9 5.56 1.72
4 7 -9 6.82 4.87
-4 -7 9 4.89 3.97
7 -11 -9 6.15 1.7
-4 11 -9 4.84 1.41
-7 -4 -9 -1.83 6.06
-4 11 -9 3 5.03
-7 11 9 4.36 1.86
-4 -7 9 3.78 4.09
4 -11 9 14.56 7.8
7 -11 -9 10.99 5.44
-4 -7 9 6.14 2.55
4 -11 9 7.41 2.85
-11 7 9 8.35 4.8
11 -4 9 9.73 5.52
7 4 9 7.41 4.07
-11 7 12 81.05 20.16
11 -7 -12 42.44 11.3
-7 11 12 87.31 21.42
4 7 -12 90.75 21.02
11 -4 12 93.24 16.16
7 4 12 85.85 18.1
-4 -7 12 103.57 14.59
-7 -4 -12 72.8 24.4
-4 -7 12 99.3 12.98
-4 11 -12 64.59 18.37
-4 -7 12 60.33 14.19
4 -11 12 33.44 11.69
-7 -4 -12 89.81 16.42
7 4 12 64.35 12.74
-11 7 12 64.38 15.04
11 -7 -12 94.89 15.34
11 -4 12 56.97 13.98
-11 4 -12 62.33 15.75
7 -11 -12 75.41 14.44
11 -7 -15 33.57 9.45
-7 11 15 21.23 11.5
7 4 15 20.33 10.09
4 7 -15 32.46 13.56
-7 -4 -15 27.97 14.18
7 -11 -15 33.8 10.42
-4 11 -15 23.85 11.05
-4 -7 15 14.35 7.66
4 -11 15 8.59 5.92
-7 -4 -15 37.91 11.59
11 -4 15 27.33 9.81
-11 4 -15 35.74 12.46
-11 7 15 20.55 11.1
7 4 15 25.99 9.42
-11 7 15 37.97 14.23
11 -4 15 44.87 14.23
-11 4 -15 12.52 7.4
11 -4 18 156.99 25.53
-7 11 18 130.98 33.51
7 4 18 148.62 29.14
-7 -4 -18 123.04 29.93
-4 11 -18 140.75 33.01
-11 4 -18 162.65 29.33
-4 -7 18 64.98 17.84
11 -4 18 125.18 25.83
7 -11 -18 120.3 21.82
11 -3 -19 17.9 9.44
3 -11 -19 0.43 0.81
-3 -8 -19 4.41 6.29
-8 -3 19 13.37 7.5
3 -11 -16 299.98 30.95
-3 11 16 250.91 42.34
8 3 -16 289.48 40.11
3 8 16 339.01 47.25
3 -11 -16 271.9 48.04
-3 -8 -16 224.55 41.19
-8 11 -16 171.54 29.18
-11 8 -16 270.47 37.82
-8 -3 16 296.46 31.94
8 -11 16 139.67 28.81
-11 3 16 283.36 36.38
11 -8 16 358.57 60.31
11 -8 16 222.21 33.63
11 -3 -16 250.97 31.7
8 3 -13 33.71 11.9
-3 11 13 22.68 11.53
11 -8 13 41.7 8.74
8 3 -13 23.96 10.33
3 8 13 32.36 14.11
3 -11 -13 33.1 16.16
-3 -8 -13 27.3 14.79
-8 -3 13 22.43 7.86
-8 11 -13 27.05 11.24
8 -11 13 14.45 7.31
-11 8 -13 24.14 9.99
-8 -3 13 35.43 10.09
3 -11 -13 35.2 10.18
-11 3 13 37.93 12.36
11 -8 13 17.68 8.65
11 -3 -13 28.88 10.42
-11 8 -13 20.26 8.88
-3 -8 -10 7.09 2.63
-11 8 -10 4.36 5.07
-3 11 10 4.96 5.5
8 3 -10 0.61 1.33
3 8 10 7.09 6.68
-11 8 -10 2.97 3.63
11 -8 10 6.11 2.93
3 -11 -10 7.45 7.74
-3 -8 -10 8.4 7.65
11 -3 -10 1.76 1.71
-8 -3 10 7.81 4.83
11 -8 10 5.56 2.48
8 -11 10 -0.38 1.91
-3 -8 -10 12.17 4.63
8 -11 10 0.49 5.35
-8 11 -10 5.94 4.99
11 -8 10 19 14.22
-8 -3 10 4.5 2.88
-11 3 10 12.22 6.01
8 -11 10 8.12 5.57
3 8 10 11.96 4.1
3 -11 -10 3.73 3.37
11 -8 10 -1.28 3.33
-8 11 -10 3.34 2.98
8 3 -7 9.12 3.74
-8 11 -7 11.58 5.5
11 -8 7 40.55 10
11 -3 -7 7.32 2.51
-11 8 -7 13.93 5.38
-3 -8 -7 20.9 4.48
3 8 7 21.72 7.09
-3 11 7 22.57 10.98
3 -11 -7 11.06 7.44
-3 -8 -7 16.83 11.31
-8 -3 7 13.94 4.78
8 -11 7 12.05 5.25
-8 11 -7 10.93 6.5
11 -8 7 10.63 4.62
-11 3 7 17.69 7.05
8 -11 7 23.33 6.94
8 -11 7 10.26 6.64
3 -11 -7 15.54 6.57
11 -3 -7 20.52 7.93
11 -8 7 12.12 5.46
3 8 7 12.96 3.77
11 -3 -4 1249.48 55.39
3 8 4 1268.66 40.37
-8 11 -4 1136.93 45.46
3 8 4 1747.69 56.27
-11 8 -4 1206.56 50.19
-8 -3 4 1293.44 44.12
-8 -3 4 1330.4 46.55
-3 11 4 1339.4 76.67
-3 -8 -4 1598.84 47.9
-11 3 4 1293.24 53.73
3 8 4 1264.5 38.69
3 -11 -4 1026.41 77.04
8 3 -4 1103.42 50.06
-3 -8 -4 1147.83 85.83
11 -8 4 1510.1 50.79
8 -11 4 1608.83 63.51
11 -8 4 1693.94 63.67
3 -11 -4 1452.53 62.08
-8 11 -4 964.4 54.46
8 -11 4 1685.1 54.01
8 -11 4 1235.1 60.46
11 -8 4 1299.5 56.23
-8 11 -4 1588.48 58.76
3 8 4 1257.42 32.38
-8 11 -4 1024.29 39.03
-11 3 4 862.41 31.14
-8 11 -1 12.19 4.1
11 -3 -1 8.69 5.05
-3 11 1 13.71 7.15
3 8 1 8.68 3.02
-8 -3 1 10.57 5.45
-3 11 1 9.64 2.64
3 -11 -1 7.18 6.82
-3 -8 -1 12.04 7.63
-11 8 -1 8.32 4.07
-8 11 -1 10.55 3.6
-11 3 1 13.98 6.01
-3 -8 -1 16.33 5.73
-3 11 1 20.32 6.47
8 -11 1 11.52 4.57
8 3 -1 9.04 3.94
-11 8 -1 12.24 3.08
11 -8 1 9.58 3.36
3 8 1 12.69 2.56
-3 11 1 11.29 2.25
-8 11 -1 9.65 4.89
11 -8 1 10.4 4.82
-8 11 -1 12.08 4.28
8 3 -1 8.62 3.01
3 8 1 13.68 4.93
-3 11 1 9.36 2.2
8 -11 1 11.86 5.18
3 8 1 9.34 3.7
8 -11 1 5.05 3.28
11 -8 1 13.12 4.89
3 8 1 7.99 3.61
-8 11 2 163.79 18.49
-8 11 2 203.51 14.17
-8 -3 -2 247.76 21.96
-3 11 -2 197.96 21.03
8 -11 -2 205.82 17.6
8 -11 -2 239.65 24.12
-11 8 2 165.82 17.97
-3 11 -2 162.35 17.88
3 -11 2 174.39 27.61
8 3 2 233.07 18.46
-8 11 2 205.45 16.51
-3 -8 2 140.48 29.63
3 -11 2 196.55 21.08
8 3 2 222.66 18.15
-8 11 2 209.71 20.36
-3 11 -2 219.55 21.02
11 -8 -2 206.8 19.48
8 -11 -2 179.09 16.18
-3 11 -2 247.35 23.22
-8 -3 -2 203.69 23.13
11 -3 2 225.21 15.19
3 8 -2 250.8 22.95
11 -8 -2 177.91 18.13
11 -3 2 187.04 19.8
8 3 2 200.59 18.81
-11 8 2 267.43 19.64
3 8 -2 209.26 19.65
-11 3 -2 149.64 17.78
3 8 -5 63.94 10.39
-3 11 -5 64.49 7.31
8 -11 -5 87.5 14.7
3 8 -5 62.33 12.93
-8 11 5 70.67 8.71
8 -11 -5 67.22 13.1
3 -11 5 53.03 13.7
11 -3 5 58.16 6
-3 -8 5 64.86 14.02
-11 8 5 55.94 11.2
-3 -8 5 59.53 17.23
-3 11 -5 74.82 19.28
-3 -8 5 60.15 12.2
-3 11 -5 48.67 11.84
3 -11 5 73.94 14.53
-8 11 5 55.98 10.14
-8 11 5 65.59 11.42
-3 11 -5 48.76 10.13
-8 -3 -5 81.26 17.58
8 -11 -5 66.85 8.12
-8 11 5 54.26 13.18
11 -3 5 61.29 11.5
-3 11 -5 73.96 15.73
11 -8 -5 85 13.86
-11 3 -5 64.38 12.04
8 3 5 66.44 10.6
11 -8 -5 56.58 10.25
8 3 5 63.55 4.56
11 -8 -8 1370.63 54.03
8 -11 -8 1641.43 63.93
-11 8 8 1632.59 79.46
-8 11 8 1576.59 82.48
-3 11 -8 1430.88 39.88
-3 -8 8 2529.55 43.73
3 8 -8 1909.01 83.16
-8 11 8 1729.7 50.78
-3 11 -8 1844.58 85.18
-3 -8 8 1772.6 83.19
-3 11 -8 1341.28 75.44
-11 8 8 1678.29 69.71
-3 -8 8 1319.49 61.53
3 -11 8 1666 81.16
-11 8 8 1671.2 36.92
-3 -8 8 2722.88 64.25
-8 -3 -8 1706 93.21
11 -3 8 1687.01 66.65
-11 3 -8 1484.85 67.15
8 3 8 1612.28 55.57
8 -11 -8 1455.25 34.73
-11 8 11 39.8 13.61
-8 11 11 36.58 13.89
11 -8 -11 32.71 9.58
3 8 -11 38.72 12.72
-3 -8 11 46.83 10.56
-3 -8 11 44.52 7.42
-8 -3 -11 55.89 22.27
8 -11 -11 46.5 11.36
-3 11 -11 29.98 12.07
-3 -8 11 28.9 10.14
3 -11 11 25.12 10.19
-11 8 11 36.6 11.13
8 3 11 34.08 9.05
11 -3 11 34.69 10.84
8 -11 -11 46.98 6.63
-11 3 -11 33.41 11.2
11 -8 -14 68.88 15.54
-11 8 14 90.72 22.25
11 -3 14 110.95 19.84
-8 11 14 83.21 23.89
3 8 -14 105.45 24.49
8 3 14 102.96 21.18
-3 11 -14 115.43 28.1
-8 -3 -14 86.57 26.53
-8 -3 -14 127.97 21.17
-11 3 -14 127.51 23.32
-3 -8 14 63.03 16.57
3 -11 14 33.68 13.9
8 3 14 92.14 17.5
11 -3 14 101.77 20.53
11 -8 -14 107.81 16.52
-11 8 14 95.25 20.59
-11 3 -14 62.08 17.41
8 -11 -14 105.71 18.51
-8 11 17 6.77 3.78
11 -3 17 11.57 6.34
8 3 17 -0.74 0.76
3 8 -17 9.87 9.72
8 -11 -17 5.67 4.67
-8 -3 -17 2.78 5.67
-3 11 -17 -4.67 6.79
-11 8 17 11.73 9.49
-3 -8 17 6.15 6.51
3 -11 17 6.19 6.76
-8 -3 -17 7.07 4.86
-11 3 -17 5.98 4.69
8 3 17 7.33 5.9
11 -3 17 2.38 4.11
9 2 -17 37.23 13.87
-2 11 17 24.36 14.07
2 -11 -17 29.25 15.76
-2 -9 -17 14.68 7.24
-9 11 -17 20.58 10.33
9 -11 17 7.93 12.76
11 -9 17 55.18 24.57
11 -2 -17 29.47 11.52
2 -11 -17 24.6 9.37
-9 -2 17 20.54 8.82
-11 2 17 30.12 12.07
11 -2 -14 19.62 8.33
9 2 -14 30.29 10.82
-2 11 14 20.05 12.02
9 2 -14 35.69 13.14
2 9 14 27.58 12.96
2 -11 -14 10.22 9.75
-2 -9 -14 30.83 16.83
-9 11 -14 16.8 9.02
9 -11 14 20.94 10.28
-11 9 -14 23.45 9.64
11 -9 14 37.9 17.32
-9 -2 14 24.41 8.06
-11 2 14 20.97 8.75
2 -11 -14 21.78 8.49
11 -9 14 12.17 7.5
-11 9 -14 11.5 6.24
11 -9 11 208.82 15.24
-2 11 11 166.51 32.58
2 9 11 135.57 27.66
2 -11 -11 180.29 23.01
2 -11 -11 146.35 34.05
-2 -9 -11 125.97 30.51
-9 -2 11 151.64 19.89
-11 2 11 150.3 23.06
-9 11 -11 147.08 25.01
-9 -2 11 142.65 16.08
9 -11 11 165.18 33.57
-11 9 -11 199.37 29.55
11 -9 11 184.5 34.54
9 2 -11 159.03 23.77
9 -11 11 155.11 26.15
11 -9 11 131.43 23.64
-9 11 -11 113.78 19.76
-11 9 -11 130.88 21.76
11 -2 -11 123.27 20.01
11 -2 -8 199.27 25.34
-2 11 8 287.86 41.25
11 -9 8 228.19 15.6
2 9 8 256.5 33.68
2 -11 -8 254.97 42.66
-9 -2 8 242.18 22.65
-2 -9 -8 237.49 40.21
-11 2 8 221.55 24.73
2 -11 -8 283.66 28.49
11 -2 -8 287.11 28.26
-11 2 8 139.19 28.1
-9 11 -8 178.31 25.53
9 -11 8 335.75 42.38
11 -9 8 384.33 45.13
2 9 8 241.77 14.65
9 -11 8 210.51 28.04
-2 11 8 342 38.74
11 -9 8 219.43 27.28
-9 11 -8 210.12 23.05
-11 9 -8 237.81 25.22
2 9 8 285.85 29.99
-11 9 -8 230.75 24.34
9 2 -8 271.32 28.13
11 -2 -5 318.33 29.42
-9 -2 5 394.04 26.52
-2 11 5 374.84 42.89
-11 2 5 379.31 29.42
-9 -2 5 325.58 22.04
2 -11 -5 336.88 46.99
-2 -9 -5 293.56 44.08
-2 -9 -5 608.46 22.62
9 -11 5 590.92 35.55
9 -11 5 485.09 38.6
11 -9 5 507.41 39.23
-9 11 -5 240.25 27.51
11 -9 5 382.06 27.32
9 2 -5 424.9 24.94
-9 11 -5 141.22 18.2
2 -11 -5 405.64 33.46
9 -11 5 322.94 31.8
-2 11 5 427.12 37.51
11 -9 5 387.61 33.03
-11 2 5 301.12 20.49
2 9 5 365.34 15.14
9 2 -5 415.67 32.16
-9 11 -5 368.46 25.63
2 9 5 387.45 25.19
-11 9 -5 335.49 26.62
2 9 5 395.23 24.01
9 2 -2 250.41 23.48
11 -2 -2 247.09 24.12
-9 -2 2 246.21 21.24
-9 11 -2 201.96 17.23
11 -9 2 526.51 47.61
-11 9 -2 254.17 21.86
2 9 2 271.4 22.22
-2 11 2 302.97 25.23
-11 2 2 243.98 22.22
2 9 2 252.52 12.24
-11 9 -2 290.22 19.07
-2 11 2 243.96 30.32
11 -9 2 305.46 24.64
2 9 2 325.02 24.6
2 -11 -2 192.4 33.55
-2 -9 -2 207.47 37.31
-2 -9 -2 361.35 24.12
-2 11 2 257.72 12.85
9 -11 2 381.31 30.94
9 -11 2 240.4 20.9
11 -9 2 261.59 18.57
9 2 -2 322.43 18.64
-2 11 2 224.19 10.69
9 2 -2 270.83 20.26
-9 11 -2 205.1 27.56
-9 11 -2 323.92 21.75
9 -11 2 194.97 21.04
-2 11 2 218.96 17.09
11 -9 2 279.5 25.01
-9 11 -2 330.32 24.9
2 9 2 233.94 14.18
-11 2 -1 331.4 26.27
-9 11 1 351.56 21.32
-9 11 1 406.13 22.99
11 -9 -1 446.52 30.03
-11 9 1 292.12 16.16
-9 11 1 408.39 24.08
-2 11 -1 303.13 20.77
9 -11 -1 364.45 23.05
-11 9 1 408.18 27.49
9 -11 -1 453.25 33.61
-9 11 1 343.77 22.3
2 -11 1 307.15 38.42
-2 -9 1 325.07 44.34
-11 9 1 449.43 25.27
-2 -9 1 51.26 11.59
9 2 1 398.68 25.15
9 2 1 432.76 29.48
-2 11 -1 443.84 30.2
-9 11 1 377.67 29.25
2 9 -1 443.69 30.25
-2 11 -1 457.43 30.19
9 -11 -1 346.11 24.26
11 -9 -1 338.9 25.41
-9 -2 -1 402.11 30.34
11 -2 1 346.13 27.31
2 9 -1 358.47 24
11 -2 4 148.32 9.34
-9 11 4 139.24 19.77
9 -11 -4 196.51 22.29
11 -9 -4 298.09 43.7
2 9 -4 133.67 17.56
9 -11 -4 169.55 20.58
-2 11 -4 118.78 17.42
2 9 -4 144.9 20.08
2 -11 4 144.36 24.5
-2 -9 4 130.79 26.12
-11 9 4 123.93 15.98
-2 -9 4 254.73 28.87
-9 11 4 132.22 15.49
9 2 4 138.08 8.41
-2 -9 4 154.61 19.78
2 -11 4 134.06 18.54
-9 11 4 150.25 16.9
9 2 4 137.67 12.9
-11 9 4 107.33 13.81
-2 11 -4 163.64 23.92
9 -11 -4 144.74 13.45
-9 -2 -4 148.87 21.34
-11 2 -4 160.06 19.62
11 -2 4 137.39 17.23
9 2 4 194.9 19.07
11 -9 -4 127.45 14.8
11 -9 -4 215.64 21.96
-2 11 -4 167.9 19.96
-11 9 4 140.54 13.1
2 9 -7 118.3 14.65
11 -9 -7 102.25 13.97
-2 11 -7 110.9 12.31
-9 11 7 108.02 21.36
2 9 -7 120.35 20.2
-9 11 7 152.81 15.06
-11 9 7 116.48 20.6
2 -11 7 105.36 18.55
-2 -9 7 107.49 20.67
-2 11 -7 135.62 24.31
-2 11 -7 112.36 20.01
-11 9 7 128.75 18.59
-2 -9 7 108.96 17.39
2 -11 7 120.42 20.45
-9 11 7 122.97 15.57
-9 11 7 105.52 15.96
-11 9 7 107.47 11.09
-9 -2 -7 93.18 19.79
-11 2 -7 88.71 15.65
11 -2 7 119.86 17.33
9 2 7 117.1 15.34
9 -11 -7 128.24 11.87
11 -9 -7 118.96 17.86
9 -11 -7 123.87 17.88
11 -9 -10 144.36 18.06
-9 11 10 153.09 28.41
2 9 -10 169.59 27.14
-2 11 -10 148.27 26.36
-2 -9 10 234.51 25.37
-11 9 10 159.07 27.16
-2 -9 10 123.96 21.31
2 -11 10 125.09 24.98
-11 9 10 134.75 21.24
-9 -2 -10 154.57 28.24
11 -2 10 159.09 22.05
9 -11 -10 152.45 20.45
-11 2 -10 128.06 21.9
9 2 10 163.3 20.13
-2 -9 10 220.69 11.95
11 -9 -10 201.11 26.4
9 -11 -10 181.32 14.46
-9 11 13 1.14 3.37
11 -2 13 8.5 4.97
9 2 13 9.15 5.07
2 9 -13 17.38 10.34
9 -11 -13 26.48 8.95
-2 11 -13 2.28 2.68
-9 -2 -13 15.97 14.5
11 -9 -13 6.05 4.32
-2 -9 13 5.88 5.23
2 -11 13 2.12 5.62
-11 9 13 2.81 1.32
-11 9 13 11.46 6.84
9 2 13 2.67 1.55
11 -2 13 3.38 3.23
-11 2 -13 5.73 4.52
11 -9 -16 100.72 19.65
-11 9 16 102.65 26.18
-9 11 16 91.56 26.72
11 -2 16 110.04 21.55
9 2 16 119.53 23.89
2 9 -16 155.26 31.18
-2 11 -16 123.89 29.77
-9 -2 -16 122.3 30.45
-9 -2 -16 104.78 20.35
-11 2 -16 141.18 25.54
-2 -9 16 54.72 16.46
2 -11 16 39.3 15.33
9 2 16 92.04 19.18
11 -2 16 107.22 22.05
9 -11 -16 132.46 23.22
11 -2 19 -4.07 4.16
-9 -2 -19 2.88 4.69
-9 -2 -19 2.21 1.15
9 2 19 1.03 4.46
1 -11 -18 8.93 9.99
-1 -10 -18 16.38 11.11
-10 -1 18 23.36 10.78
-11 1 18 16.12 8.72
11 -1 -15 20.06 10.02
10 1 -15 26.75 10.82
-1 11 15 22.11 13.17
1 10 15 30.76 14.14
1 -11 -15 26.91 15.78
-1 -10 -15 15.54 12.56
-10 11 -15 21.26 9.48
10 -11 15 7.49 6
-11 10 -15 13.11 8.04
11 -10 15 20.95 10.55
-10 -1 15 24.94 9.52
-11 1 15 31.97 11.55
11 -10 15 19.28 10.23
1 -11 -15 24.35 9.32
11 -1 -12 278.69 31.97
-1 11 12 360.35 49.57
1 10 12 355.12 47.72
1 -11 -12 308.05 50.69
-1 -10 -12 253.6 44.28
1 -11 -12 345.78 33.64
-10 -1 12 312.07 31.63
-11 1 12 276.09 31.11
-10 11 -12 276.52 35.7
-11 10 -12 310.03 37.63
10 -11 12 315.37 45.99
11 -10 12 307.3 45.37
-1 -10 -12 361.86 35.07
10 -11 12 275.4 35.26
11 -10 12 252.64 33.69
-10 11 -12 239.94 30.63
-11 10 -12 269.87 33.5
10 1 -12 312.15 34.38
11 -1 -9 44.22 11.38
10 1 -9 43.01 11.38
-10 11 -9 56.1 12.76
-11 10 -9 39.11 11.06
-1 11 9 40.26 15.01
1 10 9 46.83 15.41
1 -11 -9 38.23 20.92
-1 -10 -9 44.26 17.82
10 -11 9 60.88 18.6
11 -10 9 78.05 20.81
-10 -1 9 47.63 10.71
-11 1 9 46.72 11.31
-10 11 -9 46.48 13.56
-11 10 -9 61.44 15.68
10 -11 9 40.53 12.54
11 -10 9 49.48 13.85
1 -11 -9 52.46 12.79
10 1 -6 11.6 5.86
11 -1 -6 8.44 3.79
10 1 -6 2.21 4.37
1 10 6 11.43 4.18
-10 11 -6 6.91 3.79
11 -10 6 15.04 3.09
1 10 6 12.51 4.49
-1 11 6 11.39 7.07
1 10 6 10.59 6.8
-11 1 6 10.19 4.34
1 -11 -6 10.77 10.41
-1 -10 -6 2.83 5.09
11 -1 -6 16.63 7.37
-10 -1 6 10.52 4.82
-11 1 6 8.55 3.95
10 -11 6 1.08 5.45
11 -10 6 3.71 4.18
11 -10 6 11.31 2.42
-10 11 -6 5.39 5.16
-10 -1 6 7.8 3.22
10 -11 6 9.37 4.92
11 -10 6 6.7 3.21
-11 10 -6 7.35 4.61
-1 11 6 15.12 6.35
-11 1 3 12.26 3.25
1 10 3 7.57 1.97
11 -1 -3 7.16 4.61
-1 11 3 13.69 3.37
10 1 -3 7.65 4.48
11 -10 3 11.61 4.21
-1 11 3 10.6 5.45
-1 11 3 2.88 3.48
1 10 3 9.03 2.74
-10 11 -3 12.24 4.92
-11 10 -3 8.5 4.11
1 10 3 11.52 5.32
1 -11 -3 7.94 7.55
-1 -10 -3 8.08 8.69
-10 -1 3 7.03 4.11
-11 1 3 6.89 4.48
10 -11 3 11.37 5.12
11 -10 3 8.33 4.1
10 1 -3 11.68 3.07
-10 11 -3 9.48 4.09
10 -11 3 18.71 6.72
11 -10 3 12.42 4.81
11 -10 3 8.2 5.03
10 -11 3 5.21 3.7
-10 11 0 760.12 35.45
-11 1 0 564.58 34.67
11 -10 0 970.71 50.27
11 -10 0 969.17 48.55
-11 10 0 630.9 33.55
10 -11 0 696.94 30.38
-10 11 0 612.63 31.21
10 -11 0 1045.53 51.35
-10 11 0 788.05 31.67
1 -11 0 535.36 55.21
-1 -10 0 556.01 59.12
-11 10 0 741.27 27.39
-1 11 0 797.55 41.16
-10 -1 0 482.86 32.46
-1 -10 0 1068.3 45.4
1 10 0 861.02 43.03
10 -11 0 617.1 29.74
11 -10 0 724.04 28.5
11 -1 0 721.04 22.32
10 1 0 903.57 31.07
-10 11 0 651.41 46.46
-1 11 0 679.07 36.27
10 -11 0 494.54 31.43
11 -10 0 588.64 35.12
11 -1 0 691.27 40.34
1 10 0 736.85 32.27
10 1 0 594.93 36.36
-1 11 0 685.65 28.96
1 10 -3 72.54 13.13
11 -10 -3 75 12.95
-10 11 3 52.92 10.51
10 -11 -3 64.25 12.75
11 -10 -3 91.79 19.88
1 10 -3 57.86 10.81
-10 -1 -3 53.96 11.91
-1 11 -3 54.88 10.79
-11 10 3 49.81 10.13
-10 11 3 54.58 9.9
1 -11 3 42.73 15.13
-1 -10 3 33.87 12.53
10 1 3 -0.03 9.31
1 -11 3 46.9 10.98
-10 11 3 60.79 11.1
-11 10 3 44.32 9.74
-1 11 -3 86.09 16.64
10 -11 -3 51.05 9.12
11 -1 3 65.5 7.06
-1 11 -3 67.42 12.79
11 -10 -3 48.94 9.29
-11 1 -3 58.05 12.01
11 -1 3 53.1 10.74
10 1 3 59.18 10.8
-10 11 3 64.68 7.42
-11 10 3 51.51 7.69
1 10 -6 47.89 9.06
-1 11 -6 45 7.82
-10 -1 -6 42 12.3
11 -1 6 46.67 10.34
-11 10 6 49.03 12.7
-11 1 -6 41.47 11.03
-10 11 6 45.75 12.68
-10 11 6 65.09 10
10 -11 -6 67.94 16.86
1 10 -6 50.86 12.83
1 -11 6 50.31 13.55
-1 11 -6 34.49 10.2
-1 -10 6 43.71 13.7
10 1 6 48.74 7.11
-11 10 6 48.62 11.14
-10 11 6 46.91 9.39
-11 10 6 49.1 8.87
-1 -10 6 37.06 10.36
1 -11 6 44.04 11.91
-1 11 -6 -14.85 14.51
10 -11 -6 46.45 10.72
1 -11 6 79.61 18.06
-10 11 6 47.39 10.33
10 1 6 46.2 9.87
10 -11 -6 43.91 7.85
11 -10 -6 36.27 7.87
11 -10 -6 62.52 12.75
-10 11 9 172.46 28.58
1 10 -9 230.45 31.03
-10 11 9 149.27 17.33
-1 11 -9 180.75 27.16
1 -11 9 216.72 24.8
-1 -10 9 215.83 25.69
-1 -10 9 118.92 20.88
1 -11 9 159.29 26.38
-11 10 9 145.49 21.35
-10 11 9 141.37 20.59
-11 10 9 184.05 28.39
-10 -1 -9 160.42 27.65
-11 1 -9 135.18 22.72
11 -1 9 152.96 20.23
10 1 9 183.5 21.16
11 -10 -9 250.08 28.01
10 -11 -9 145.43 14.3
10 -11 -9 191.2 23.36
11 -10 -9 139.87 16.56
-11 10 12 161.25 30
-10 11 12 157.74 30.36
1 10 -12 220.76 33.36
-1 11 -12 171.21 30.02
-1 -10 12 94.35 21.25
-11 10 12 146.29 23.52
1 -11 12 83.55 21.08
-10 -1 -12 118.13 24.96
-11 1 -12 108.51 22.91
10 1 12 143 21.31
11 -1 12 132.66 21.12
11 -10 -12 200.01 27.83
11 -10 -12 143.21 18.64
10 -11 -12 192.94 25.47
10 -11 -12 189.61 18.5
11 -10 -15 144.66 21.71
-11 10 15 111.7 27.69
-10 11 15 134.87 30.73
11 -1 15 126.32 22.95
10 1 15 139.89 25.14
1 10 -15 147.93 30.37
-1 11 -15 143.35 30.18
-10 -1 -15 132.84 34.06
-10 -1 -15 153.92 24.73
-11 1 -15 131.89 24.14
-1 -10 15 71.75 19.99
1 -11 15 55.81 19.46
10 1 15 132.9 22.94
11 -1 15 113.92 22.01
11 -10 -15 168.29 28.56
10 -11 -15 169 26.86
11 -1 18 58.96 17.2
10 1 18 61.15 17.86
-10 -1 -18 46.07 17.56
-11 1 -18 48.63 17.05
-10 -1 -18 54.46 15.39
-11 1 -18 35.77 12.58
10 1 18 57.23 16.14
11 -1 18 41.75 13.74
0 11 16 248.46 43.76
0 -11 -16 206.26 42.93
-11 0 16 208.94 30.05
11 -11 16 162.57 33.78
11 0 -16 236.07 33
0 11 13 -4.32 4.17
0 -11 -13 -4 6.92
11 -11 13 2.01 6.71
-11 11 -13 0.72 1.06
-11 0 13 3.79 2.74
11 -11 13 2.06 4.31
11 0 -13 0.24 2.03
-11 11 -13 -3.99 5.9
0 -11 -13 -2.68 2.85
-11 11 -10 9.8 6.03
0 11 10 9.47 8.21
11 0 -10 7.11 4.42
0 -11 -10 7.94 5.43
11 -11 10 5.76 4.12
-11 0 10 2.06 1.53
-11 11 -10 1.81 2.65
11 -11 10 -0.51 1.55
11 0 -7 1.96 3.74
0 11 7 -1.28 4.91
-11 0 7 4.81 3.51
11 0 -7 -4.24 7.03
-11 11 -7 -1.46 3.03
0 11 7 4.81 6.38
0 -11 -7 -3.51 5.44
-11 0 7 0.59 0.15
11 -11 7 -6.03 7.73
11 -11 7 -0.71 0.71
11 0 -4 1107.44 56
0 11 4 1416.72 57.11
-11 0 4 1132.09 36.64
-11 0 4 1031.6 47.83
0 11 4 884.01 60.15
0 -11 -4 933.58 80.67
11 -11 4 1379.99 57.89
11 -11 4 1235.43 56.02
11 -11 4 936.71 52.23
0 11 4 1194.59 37.85
-11 11 -4 1142.97 49.14
0 11 1 0.63 1.57
11 0 -1 1.35 3.05
-11 11 -1 7.15 3.48
0 11 1 -0.16 1.06
11 -11 1 -0.12 0.87
-11 0 1 -0.48 0.91
0 -11 -1 2.22 2.9
-11 11 -1 -1.26 1.32
11 -11 1 3.7 2.76
11 0 -1 0.59 0.59
0 11 1 -3.5 3.48
0 11 1 3.42 2.69
11 -11 1 -0.89 2.44
11 -11 1 2.59 2.97
0 11 -2 178.99 17.07
-11 11 2 165.62 17.83
0 -11 2 154.14 29.89
-11 11 2 190.12 23.6
0 11 -2 220.9 25.58
0 11 -2 236.58 23.98
11 -11 -2 187.03 18.71
-11 0 -2 204.95 22.81
11 0 2 176.43 19.76
-11 11 2 192.4 14.98
0 11 -2 197.58 19.14
11 -11 -5 0.11 1.27
0 11 -5 0.41 1.11
-11 11 5 2.85 1.44
-11 0 -5 -2.94 4.6
11 -11 -5 9.08 7.88
11 0 5 0.57 2.25
-11 11 5 0.71 1.38
0 11 -5 3.14 3.64
0 -11 5 2.49 3.76
0 -11 5 3.99 4.39
11 -11 -5 -2.07 2.8
-11 11 5 1.88 2.47
0 -11 5 0.35 2.86
-11 11 5 5.83 4.23
0 11 -5 1.15 4
-11 11 8 1267.56 72.91
0 11 -8 1304.12 71.44
11 0 8 1392.62 34.07
0 -11 8 1625.21 76.03
11 -11 -8 1476.7 65.23
-11 11 8 1346.47 63.87
0 -11 8 1120.37 64.06
-11 0 -8 1108.41 66.27
11 0 8 1071.1 52.71
11 -11 -8 1249.96 45.66
11 -11 -11 2.33 2.76
-11 11 11 9.36 7.48
11 -11 -11 6.02 4.49
0 11 -11 2.79 4.67
0 -11 11 1.47 2.38
-11 11 11 -2.6 6.23
11 0 11 3.43 3.59
-11 0 -11 5.11 5.4
-11 11 14 70.43 20.83
11 0 14 66.49 16.52
11 -11 -14 87.26 19.27
0 11 -14 98.95 23.98
0 -11 14 39.51 14.97
-11 11 14 66.24 17
11 0 14 60.57 15.23
11 0 17 -2.18 5.55
-11 0 -17 -0.21 2.46
-11 0 -17 -5.98 6.04
11 0 17 1.95 4.75
12 -6 0 662.15 53.24
-6 12 0 296.07 21.75
-12 6 0 323.66 26.66
-6 12 0 313.65 16.42
-6 -6 0 375.2 26.86
-6 12 0 384.67 26.06
-6 -6 0 329.65 51.27
-6 12 0 180.76 17.96
6 6 0 368.74 19.66
12 -6 0 364.75 9.53
6 -12 0 411.14 33.18
-6 -6 0 484.4 40.59
6 6 0 467.45 30.4
12 -6 0 329.39 26.81
12 -6 0 265.37 20.7
-6 12 0 320.25 17.63
6 6 0 336.98 24.39
12 -6 3 984.57 55.64
-6 12 3 471.24 35.57
-6 12 3 652.61 17.74
-6 -6 -3 631.84 31.9
6 6 3 600.16 27.76
6 6 3 523.34 24.85
-12 6 3 608.6 37.31
6 6 3 635.25 32.42
-6 -6 -3 561.99 65.88
-6 -6 3 548.53 64.8
-6 12 3 463.11 19.35
-12 6 -3 536.62 35.13
6 -12 -3 645.97 42.25
-6 12 -3 445.01 34.45
-6 12 3 505.16 24.31
6 -12 3 585.13 37.61
6 6 -3 612.79 33.07
12 -6 3 921.39 42.29
-6 12 -3 668.88 36.43
-6 -6 -3 668.47 53.23
-6 12 -3 635.43 34.69
-6 12 -3 616.94 24.35
12 -6 3 528.4 34.86
-6 -6 3 957.29 47.16
6 6 3 581.21 29.23
12 -6 -3 548.61 35.2
6 6 -3 550.92 35.83
6 6 6 148.68 15.94
6 6 6 139.83 16.4
-6 12 6 102.68 19.61
-6 -6 -6 173.32 16.13
6 -12 -6 163.73 21.13
-6 12 -6 45.46 8.61
-12 6 6 144.08 19.62
-6 -6 -6 116.14 29.84
-6 -6 6 137.72 29.92
-6 12 -6 113.37 19.97
-6 -6 6 192.24 17.13
6 -12 6 152.59 23.86
6 6 -6 118.05 17.95
-6 12 -6 140.15 15.05
12 -6 6 124.93 18.22
6 6 6 110.61 12.34
6 6 6 183.16 12.1
-12 6 -6 128.04 17.97
12 -6 -6 117.19 17.54
12 -6 -9 211 25.81
-6 12 9 213.22 31.96
6 -12 -9 320.94 30.75
6 6 -9 244.48 30.6
-6 -6 9 296.03 21.34
-6 -6 -9 244.42 43.87
-6 -6 9 302.8 36.52
-6 12 -9 221.4 31.42
-12 6 9 213.61 26.31
-6 -6 9 194.47 22.55
6 -12 9 312.54 42.03
12 -6 9 227.59 27.67
6 6 9 220.08 19.79
-12 6 -9 236.41 27.65
6 6 -9 271.21 31.24
-12 6 12 77.34 19.12
6 -12 -12 101.9 17.6
12 -6 -12 74.34 16.23
6 6 -12 105.37 22.98
-6 12 12 88.39 23.13
12 -6 12 111.21 17.23
6 6 12 103.14 21.33
-6 -6 12 105.67 17.69
-6 -6 12 91.4 13.5
-6 -6 -12 82.77 26.24
-6 -6 12 65.7 14.4
-12 6 12 91.09 19.03
-6 -6 -12 171.21 21.69
-6 12 -12 86.35 21.03
6 -12 12 58.03 18.41
6 6 12 96.23 15.96
-12 6 -12 74.64 17.75
12 -6 12 92.29 18.81
12 -6 -12 98.62 17.27
-12 6 15 39.98 14.11
-6 12 15 61.98 20.93
12 -6 15 71.64 15.37
6 6 15 53.76 16.8
6 6 -15 70.84 20
-6 -6 -15 54.07 19.75
-6 12 -15 89.18 23.28
-6 -6 15 33.08 10.83
6 -12 15 23.58 12.59
6 -12 -15 51.86 12.52
-12 6 -15 63.3 18.26
-12 6 15 59.47 16.74
12 -6 15 48.43 14.9
-12 6 -15 36.53 12.23
12 -6 -15 47.63 12.48
6 -12 -18 85.23 18.09
-6 -6 -18 78.34 24.32
-6 -6 18 42.41 12.69
12 -6 -18 81.93 17.81
12 -5 -19 1.81 4.46
-5 -7 -19 -0.77 3.87
5 -12 -19 1.59 3.21
-12 5 16 66.34 19.54
5 -12 -16 82.81 16.65
-5 12 16 83.18 25.31
5 7 16 96.81 24.05
7 5 -16 103.19 24.95
12 -5 -16 86.08 17.84
-5 -7 -16 68.75 22.75
-12 5 16 116.46 24.07
-7 12 -16 84.38 21.93
-7 -5 16 61.91 14.79
7 -12 16 25.42 9.1
-12 7 -16 82.77 20.53
12 -7 16 78.89 20.52
12 -5 -13 26.29 8.71
12 -7 13 71.66 13.66
-5 12 13 64.19 20.98
5 7 13 44.89 14.62
7 5 -13 47.19 14.31
5 -12 -13 38.21 16.55
-5 -7 -13 43.42 17.6
-7 -5 13 41.58 11.08
-7 12 -13 47.99 15.38
7 -12 13 11.86 2.23
5 -12 -13 55.11 13.02
-12 7 -13 55.2 15.37
-7 -5 13 51.37 10.96
-12 5 13 39.68 11.9
12 -7 13 52.22 15.42
-12 7 -13 33.48 12.1
12 -5 -10 213.62 27.51
-5 12 10 215.57 33.92
7 5 -10 276.34 33.71
5 -12 -10 299.87 30.1
5 7 10 232.05 30.22
5 -12 -10 223.93 40.28
-7 -5 10 283.31 22.73
-5 -7 -10 204.62 40.27
-7 -5 10 256.19 31.75
-7 12 -10 188.91 29.33
-12 5 10 217.44 28.01
-7 -5 10 199.23 22.56
7 -12 10 255.38 41.77
-5 -7 -10 342.91 26.92
5 7 10 240.21 21.5
12 -7 10 251.06 30.74
-12 7 -10 200.05 26.6
12 -5 -10 180.94 22.99
7 5 -10 275.56 32.51
12 -5 -7 284.28 28.96
-5 12 7 310.47 37.1
-7 -5 7 369.39 24.27
5 -12 -7 369.41 31.91
5 -12 -7 242.44 39.94
-5 -7 -7 267.31 44.58
-12 5 7 312.11 29.78
-7 -5 7 328.31 43.56
-7 12 -7 291.55 33.87
7 5 -7 224.3 25.99
7 -12 7 375.34 40.38
5 7 7 339.08 27.08
7 5 -7 306.65 26.37
-7 12 -7 271.62 23.18
12 -7 7 337.94 32.58
5 7 7 328.27 20.58
-12 7 -7 315.16 28.97
-5 -7 -7 345.05 23.86
-7 12 -4 33.57 8.51
7 5 -4 25.77 8.72
5 7 4 25.68 5.66
12 -7 4 53.3 13.39
12 -5 -4 31.42 8.87
-7 12 -4 23.97 5.51
-5 12 4 26.1 9.09
-12 7 -4 29.3 8.64
12 -7 4 45.39 8.31
5 -12 -4 18.04 10.05
-7 -5 4 37.08 8.41
-5 -7 -4 20.97 12.14
5 7 4 22.59 5.39
5 7 4 35.67 7.99
7 -12 4 35.29 10.21
-12 5 4 18.75 6.64
-7 12 -4 20.15 8.02
7 5 -4 35.72 7.6
12 -7 4 39.11 9.25
5 7 4 24.78 5.42
-7 12 -4 31.5 8.2
-5 12 4 25.36 5.23
5 -12 -4 34.21 9.57
12 -7 4 34.97 9.57
5 7 1 672.78 31.75
7 5 -1 668.49 36.67
12 -7 1 628.51 31.71
-7 12 -1 594.43 21.67
-7 12 -1 685.35 26.99
-12 7 -1 468.72 32.1
-5 12 1 599.64 38.41
-12 5 1 550.17 35.08
-5 12 1 787.87 39.5
-5 -7 -1 608.9 34.04
-5 12 1 745.38 23.69
5 -12 -1 624.06 56.28
-5 12 1 594.6 25.65
5 7 1 722 25.39
-5 -7 -1 654.43 70.15
7 5 -1 595.68 42.33
-7 12 -1 627.08 32.97
5 7 1 737.44 37.79
7 -12 1 685.37 37.08
-7 12 -1 535.45 37.6
12 -7 1 693.28 21.65
7 5 -1 873.37 38.05
7 5 -1 704.1 28.96
5 7 1 921.12 42.11
7 -12 1 967.85 51.52
7 -12 1 746.64 43.33
-5 -7 -1 760.81 46.76
12 -5 -1 878.78 38.47
-7 -5 1 1061.41 54.14
12 -7 1 661.52 38.29
-7 12 -1 856.51 33.41
12 -5 -1 644.51 38.05
-5 12 1 708.22 20.57
7 5 -1 677.32 37.55
-12 5 -2 439.83 31.41
-7 12 2 501.82 19.27
-7 12 2 609.05 33.39
-7 12 2 493.15 33.38
-5 12 -2 553 26.95
-7 -5 -2 709.74 35.71
-12 7 2 607 36.49
5 7 -2 741.24 45.66
-5 -7 2 622.8 39.81
7 5 2 590.84 27.68
-7 12 2 552.25 25.14
-5 12 -2 447.74 29.73
-5 -7 2 486.36 60.88
7 -12 -2 772.59 45.89
-7 -5 -2 518.35 65.71
5 -12 2 526.32 34.89
-7 12 2 394.55 26.76
7 5 2 500.41 26.72
-5 12 -2 629.82 35.92
12 -5 2 824.43 34.13
7 5 2 696.26 34.69
7 -12 -2 585.78 31.04
-5 -7 2 748.11 41.63
-7 -5 -2 831.77 58.51
-5 12 -2 574.99 30.24
-5 12 -2 455.86 17.24
12 -5 2 578.5 36.22
12 -7 -2 371.29 26.85
12 -7 -2 489.1 32.21
7 5 2 533.69 30.75
5 7 -2 604.9 35.47
-7 12 5 469.47 38.88
-7 -5 -5 587.66 32.05
7 5 5 584.92 32.37
-5 12 -5 550.7 37.49
7 5 5 711.63 33.83
-7 12 5 524.99 19.79
7 -12 -5 657.66 42.75
-12 7 5 542.88 36.52
-5 12 -5 417.75 35.12
-5 -7 5 475.67 55.91
12 -5 5 565.4 24.13
-7 -5 -5 530.21 67.03
12 -7 -5 491.42 33.77
5 -12 5 563.27 41.48
-7 12 5 526.46 30.42
-7 12 5 326.26 18.92
7 -12 -5 701.83 22.91
-7 -5 -5 649.93 57.95
-5 12 -5 708.2 45.02
5 7 -5 525.73 37.37
12 -5 5 539.45 37.22
-12 5 -5 468.17 34.07
7 5 5 496.83 27.96
-5 -7 5 940.02 40.74
7 5 5 705.9 21.9
-12 5 -8 62.49 13.43
7 -12 -8 83.88 15.44
-5 -7 8 99.04 11.38
-7 12 8 58.47 15.7
-12 7 8 63.28 14.15
-5 12 -8 88.85 21.46
-5 -7 8 79.42 19.44
-7 -5 -8 69.01 24.08
-5 -7 8 58.26 12.41
5 -12 8 84.76 20.1
12 -7 -8 63.62 13.16
5 -12 8 127.52 11.95
-5 12 -8 63.76 15.39
12 -5 8 70.37 14.81
7 5 8 53.47 9.65
5 7 -8 59.21 14.4
-12 7 11 113.2 22.68
12 -7 -11 126.35 20.42
7 -12 -11 155.52 20.61
-7 12 11 119.28 25.26
5 7 -11 161.09 26.88
-5 -7 11 149.45 21.79
-5 -7 11 143.25 14.92
-5 12 -11 126.62 25.69
-7 -5 -11 153.46 36.71
-5 -7 11 87.06 16.54
-12 7 11 129.62 21.93
5 -12 11 109.59 26.96
7 5 11 100.94 15.37
12 -5 11 150.45 24.05
-12 5 -11 138.58 23.16
-12 7 14 94 23.09
12 -7 -14 61.98 15.69
7 -12 -14 93.86 16.94
5 7 -14 146.04 28.31
-7 12 14 97.8 26.33
12 -5 14 110.65 19.21
7 5 14 86.47 20.2
-7 -5 -14 79.55 24.76
-7 -5 -14 128.96 20.3
-5 12 -14 108.19 25.72
-12 7 14 103.74 21.49
-12 5 -14 101.85 22.11
-5 -7 14 70.83 16.23
5 -12 14 16.88 8.27
7 5 14 82.67 15.91
12 -5 14 84.04 19.56
-12 5 -14 70.32 17.87
12 -7 -14 103.03 17.61
-7 12 17 16.61 13.82
-7 -5 -17 5.68 5.47
-5 12 -17 8.52 3.11
7 -12 -17 7.11 5.89
-5 -7 17 3.74 4.17
-12 5 -17 4.75 5.1
12 -5 17 7.33 5.83
4 -12 -17 6.21 8.22
-4 -8 -17 4.54 4.29
4 -12 -17 0.61 2.16
-8 -4 17 3.03 3.86
-12 4 17 2.65 2.72
12 -4 -17 2.8 1.74
8 4 -14 50.08 14.94
-4 12 14 44.32 15.51
8 4 -14 34.22 12.94
4 -12 -14 38.8 18.92
-4 -8 -14 39.58 17.66
4 8 14 46.92 16.23
12 -4 -14 37.7 11.03
-8 -4 14 32.78 9.66
-8 12 -14 40.96 14.08
8 -12 14 17.86 7.8
12 -8 14 82.16 30.26
-12 8 -14 41.48 14.17
-8 -4 14 47.52 11.62
4 -12 -14 53.21 13.61
-12 4 14 39.56 13.7
12 -8 14 36.62 12.82
-12 8 -14 35.92 12.45
12 -4 -11 37.35 10.66
-12 8 -11 23.96 9.62
8 4 -11 30.59 11.22
12 -4 -11 14.84 5.3
-4 12 11 50.66 17.36
8 4 -11 25.13 10.12
12 -8 11 34.26 8.41
4 8 11 35.35 12.82
4 -12 -11 27.22 15.01
-4 -8 -11 32.03 14.68
-8 -4 11 33.4 11.51
-8 -4 11 32.1 9.07
-8 12 -11 25.99 10.58
8 -12 11 19.42 6.21
-8 -4 11 32 8.22
12 -8 11 72.97 25.86
-12 4 11 32.7 10.83
4 -12 -11 35.71 10.28
4 8 11 36.22 8.72
12 -8 11 22.78 8.83
12 -4 -8 205.11 25.75
-4 12 8 219.47 34.15
-8 -4 8 237.21 21.01
4 -12 -8 206.23 38.81
4 -12 -8 256.73 26.97
-4 -8 -8 208.16 38.8
-12 4 8 216.22 25.14
8 -12 8 429.27 32.34
-8 12 -8 186.44 27.52
8 -12 8 314.31 41.2
12 -8 8 339.52 42.76
4 8 8 232.79 17.78
12 -8 8 220.17 27.87
-8 12 -8 175.68 20.42
-12 8 -8 203.38 24.13
8 4 -8 224.02 26.5
4 8 5 76.38 10.62
4 8 5 100.18 13.74
12 -4 -5 74.61 14.53
-4 12 5 69.75 17.9
-4 -8 -5 90.73 11.37
-12 4 5 81.63 14.15
4 -12 -5 49.42 17.48
4 8 5 69.09 9.3
-4 -8 -5 67.66 22.32
4 -12 -5 88 15.5
-8 12 -5 73.29 16.14
8 -12 5 95.7 17.74
12 -8 5 68.42 10.59
-8 12 -5 33.94 8.46
-8 -4 5 96.01 13.21
12 -8 5 116.56 18.7
8 4 -5 80.68 11.31
8 -12 5 114.86 14.6
8 -12 5 75.3 16.36
12 -8 5 67.84 13.52
-12 4 5 20.13 6.1
-8 12 -5 58.9 9.45
4 8 5 70.1 8.37
-12 8 -5 59.98 11.74
8 4 -5 93.1 15.61
-8 12 -2 180.64 15.04
8 4 -2 207.34 21.47
-12 8 -2 206.16 20.96
-4 12 2 259.76 23.61
12 -8 2 268.75 22.59
-4 12 2 199.79 26.97
-12 4 2 230.27 23.07
4 8 2 225.04 19.43
4 8 2 252.75 14.56
4 -12 -2 190.99 32.82
-4 -8 -2 208.65 38.74
4 8 2 238.4 21.25
-4 12 2 226.15 12.5
-4 12 2 230.1 10.02
8 -12 2 214.96 20.98
12 -8 2 265.14 17.12
8 4 -2 270.89 20.06
-8 12 -2 162.53 21.69
-8 12 -2 200.78 18.8
8 -12 2 233.98 25.58
12 -8 2 225.94 22.91
-8 12 -2 281.54 21.86
-8 -4 2 247.34 23.7
8 4 -2 216.23 22.54
12 -4 -2 229.06 23.9
4 8 2 233.34 16.81
-8 12 1 31.02 5.8
12 -8 -1 29.1 7.92
12 -4 1 29.24 8.3
8 4 1 31.72 7.94
-8 12 1 26.09 6.49
-8 -4 -1 39.47 11.11
-8 12 1 31.89 6.31
-4 12 -1 24.64 8.35
-12 8 1 42.73 4.93
4 -12 1 26.08 11.55
-12 4 -1 42.78 9.93
-8 12 1 34.35 7.7
8 4 1 35.66 7.2
-4 -8 1 27.09 13.37
-4 12 -1 28.26 6.82
-4 -8 1 42.88 10.47
8 4 1 42.88 8.39
4 8 -1 48 10.81
-12 8 1 34.18 8.61
12 -8 -1 43.83 8.96
4 8 -1 29.99 7.86
12 -4 1 54.91 7.5
8 -12 -1 35.02 8.42
8 4 1 38.38 8.94
-4 12 -1 38.57 3.68
-4 12 -1 51.5 10.52
8 -12 -1 43.8 10.99
-4 12 -1 28.02 6
-4 12 -4 93.71 8.01
-8 12 4 90.51 16.74
12 -4 4 78.4 8.97
-8 12 4 112.14 10.3
-4 12 -4 77.4 11.04
8 -12 -4 138.03 19.91
8 4 4 118.05 9.31
-12 8 4 97.12 15.11
-4 12 -4 68.62 13.38
-4 -8 4 127.8 19.89
-8 12 4 94.33 12.48
8 4 4 95.92 12.12
-4 -8 4 86.05 24.43
4 -12 4 100.88 16.53
8 -12 -4 96.91 11.14
-4 -8 4 136.95 11.5
-4 12 -4 127.29 18.73
-8 -4 -4 112.37 22.53
4 8 -4 14.26 10.05
12 -4 4 99.97 15.42
12 -8 -4 123.41 16.51
8 4 4 86.65 12.36
-12 4 -4 65.15 12.75
12 -8 -4 87.1 13.19
-4 12 -4 121.66 16.67
4 8 -4 104.7 15.71
8 4 7 7.47 3.41
12 -8 -7 4.62 3.22
-12 4 -7 2.5 0.93
-8 12 7 4.71 5.35
12 -8 -7 8.78 4.23
-4 -8 7 7.87 3.1
4 8 -7 3.63 3.7
-8 12 7 6.83 2.67
-4 -8 7 3.31 4.43
-8 -4 -7 5.19 10.91
-4 12 -7 5.09 4.78
-4 -8 7 4.71 4.13
4 -12 7 13 8.52
-12 8 7 10.04 5.57
8 -12 -7 2.7 3.68
-8 12 7 0.58 2.47
8 -12 -7 6.42 2.02
-8 -4 -7 -1.9 7.4
12 -4 7 4.13 3.94
8 4 7 6.13 3.39
12 -8 -10 234.13 26.15
-12 8 10 226.84 32.31
4 8 -10 245.99 32.45
-4 -8 10 341.52 20.03
8 -12 -10 251.93 26.7
-4 12 -10 236.07 33.54
-4 -8 10 275.94 30.77
-8 -4 -10 260.81 51.62
-12 8 10 224.89 28.03
-4 -8 10 162.42 22.93
4 -12 10 207.76 34.32
12 -4 10 270.02 30.37
8 4 10 210.59 21.76
-12 4 -10 200.55 27.04
-8 12 10 226.94 34.31
-12 8 13 31.87 13.69
-8 12 13 23.71 12.54
12 -4 13 44.47 11.83
8 4 13 27.64 11.07
4 8 -13 46.05 15.46
-8 -4 -13 30.09 16.19
-4 12 -13 54.9 17.8
8 -12 -13 32.53 9.5
-4 -8 13 17.56 8.88
4 -12 13 0.58 9.97
-8 -4 -13 28.77 9.47
-12 8 13 27.79 12
12 -8 -13 20.49 8.16
8 4 13 17.93 6.82
12 -4 13 23.66 9.8
-12 4 -13 21.64 9.53
12 -8 -16 36.21 12.25
-8 12 16 41.15 15.11
12 -4 16 60.59 15.45
8 4 16 56.76 17.14
4 8 -16 63.65 19.92
-12 8 16 45.22 17.66
-8 -4 -16 49.84 20.44
-4 12 -16 36.18 14.35
8 -12 -16 40.59 12.61
-4 -8 16 20.02 8.41
4 -12 16 21.4 11.34
-8 -4 -16 56.92 14.38
-12 4 -16 60.61 17.08
-12 8 16 43.32 14.61
8 4 16 34.89 10.44
12 -4 16 32.82 12.14
12 -8 -19 26.55 12.68
-8 -4 -19 20.17 11.9
-4 -8 19 6.11 7.56
3 -12 -18 34.05 18.25
-3 -9 -18 43.41 18.9
12 -3 -18 36.53 12.71
-9 -3 18 45.27 13.49
12 -3 -15 69.72 16.72
-3 12 15 69.87 22.73
9 3 -15 87.31 21.48
3 9 15 91.77 24.94
3 -12 -15 85.74 29.59
-3 -9 -15 52.25 21.16
-9 -3 15 91.15 17.21
-12 9 -15 99.09 23.17
-9 12 -15 75.16 19.45
9 -12 15 29.54 10.62
12 -9 15 72.83 25.12
-12 3 15 88.54 20.27
3 -12 -15 69.06 15.46
12 -9 15 63.76 17.65
-12 9 -15 58.71 16.37
9 3 -15 114.84 23.34
-3 12 12 177.35 34.78
3 9 12 195.56 34
3 -12 -12 191.53 24.71
3 -12 -12 176.97 39.48
-3 -9 -12 153.3 33.21
-9 -3 12 195.45 22.7
-12 3 12 155.24 25
-9 12 -12 157.82 26.37
-9 -3 12 148.82 18.31
9 -12 12 144.75 31.59
-12 9 -12 215.72 32.72
12 -9 12 224.48 39.86
12 -9 12 204.11 30.96
-12 9 -12 168.11 26.62
12 -3 -12 157.93 23.66
9 3 -12 173.92 26.82
12 -3 -9 181.95 25.75
-3 12 9 223.45 37.15
12 -9 9 369.3 22.95
3 9 9 248.08 33.8
-9 -3 9 251.14 23.58
3 -12 -9 243.71 43.99
-3 -9 -9 199.76 38.15
-12 3 9 206.86 25.64
3 -12 -9 291.62 29.88
-9 12 -9 225.78 30.87
9 -12 9 303.56 43.74
12 -9 9 327.84 42.55
9 -12 9 262.82 33.81
3 9 9 214.79 17.17
12 -9 9 211.8 28.24
-9 12 -9 177.18 22.48
12 -3 -9 228.83 26.76
-12 9 -9 200.04 25.53
9 3 -9 214.05 26.67
9 3 -6 44.47 11.67
12 -3 -6 52.25 12.54
-9 -3 6 52.5 10.12
-12 9 -6 53.59 11.32
-3 12 6 57.17 17.94
-3 -9 -6 82.72 10.6
3 -12 -6 43.63 17.11
-3 -9 -6 39.68 17.03
9 -12 6 84.88 14.37
9 -12 6 72.44 16.86
-12 3 6 39.16 10.32
12 -9 6 74.02 15.93
-9 12 -6 36.86 11.14
3 9 6 53.45 6.89
9 -12 6 54.76 13.87
-9 12 -6 49.71 9.66
3 9 6 62.09 9.5
-12 3 6 33.06 8.13
12 -9 6 49.11 12.77
3 9 6 61.32 10.84
3 -12 -6 65.36 13.54
-12 9 -3 366.9 27.76
-9 -3 3 386.18 27.47
9 3 -3 267.17 26.22
-3 12 3 441.61 31.51
3 9 3 360.15 24.28
-12 3 3 248.07 11.73
3 9 3 381.32 18.07
-3 12 3 359.17 40.63
-12 3 3 365.46 29.28
3 9 3 410.01 28.69
3 -12 -3 255.87 40.4
-3 -9 -3 620.26 34.87
12 -9 3 557.15 33.42
-3 -9 -3 310.81 47.34
-9 12 -3 344.42 23.31
9 -12 3 366.47 29.38
12 -9 3 428.69 26.48
-3 12 3 332.22 15.91
-9 12 -3 239.36 26.74
-3 12 3 343.96 28.97
9 -12 3 284.67 28.4
12 -9 3 325.57 28.65
-9 12 -3 459.34 29.13
-9 12 -3 456.91 30.46
3 9 3 360.65 18.5
9 3 -3 331.27 28.85
12 -3 -3 358.91 30.54
-9 12 0 392.46 23.67
-9 12 0 305.39 15.72
3 9 0 325.71 21.45
-12 3 0 303.05 26.67
-12 9 0 212.71 21.26
-9 12 0 303.68 20.76
-3 12 0 339.79 18.3
-3 12 0 309.85 32.92
3 -12 0 288.92 40.06
-9 12 0 419.06 25.32
-3 -9 0 332.4 49.23
12 -9 0 487.47 32.27
-3 12 0 414.35 29.69
9 -12 0 435.86 34.96
9 -12 0 342.82 24.41
12 -9 0 384.05 18.11
9 3 0 414.24 25.99
9 3 0 447.5 25.4
12 -3 0 322.75 9.44
-12 9 0 247.48 13.89
3 9 0 453.84 31.12
12 -3 0 489.95 17.67
9 -12 0 264.58 23.77
-3 12 0 364.83 18.89
12 -9 0 293.73 25.33
-9 -3 0 383.07 30.98
12 -3 0 334.43 27.93
3 9 0 325.29 23.18
9 3 0 359.39 27.82
-9 12 3 188.82 21.13
3 9 -3 240.29 26.23
9 -12 -3 305.14 29.78
-3 12 -3 201.38 21.51
-3 12 -3 170.08 19.74
-12 9 3 207.01 21.37
3 -12 3 192.46 30.12
-3 -9 3 188.2 35.2
-9 12 3 150.36 15.43
-3 -9 3 186.63 24.33
9 3 3 219.77 19.48
-9 12 3 201.43 10.63
3 -12 3 189.23 22.45
12 -9 -3 245.9 23.29
-3 12 -3 253 26.02
9 -12 -3 173.13 16.27
-3 12 -3 237.56 23.87
-9 -3 -3 221.94 27.93
12 -3 3 167.92 19.85
12 -9 -3 143.76 17.13
9 3 3 196.31 19.25
-12 3 -3 194.1 22.08
12 -3 3 188.59 13.34
-12 9 3 196.64 16.94
3 9 -3 186.24 20.23
-3 12 -6 151.91 12.61
-9 12 6 136.15 23.12
9 -12 -6 234.37 25.75
-3 12 -6 79.06 14.56
3 9 -6 168.64 22.96
-9 12 6 198.08 15.89
9 -12 -6 183.83 23.17
3 -12 6 159.95 24.5
-3 12 -6 159.27 23.03
-3 -9 6 102.72 23.04
-12 9 6 140.46 19.14
-3 -9 6 149.52 20.73
-9 12 6 162.76 19.12
3 -12 6 149.15 22.84
-9 -3 -6 183.25 29.7
9 -12 -6 168.91 13.31
12 -3 6 217.71 23.82
-12 3 -6 139.28 19.64
9 3 6 159.4 17.66
12 -9 -6 205.81 23.33
12 -9 -6 168.78 18.77
-12 3 -9 27.62 10.24
-12 9 9 31.47 12.22
12 -9 -9 40.39 10.02
-9 12 9 31.28 11.95
12 -9 -9 45.5 12.02
3 9 -9 33.96 11.58
-3 -9 9 34.32 11
-9 -3 -9 37.64 20.84
-3 12 -9 28.09 11.61
-3 -9 9 33.64 10.82
3 -12 9 39.76 13.79
9 -12 -9 32.08 9.31
-12 9 9 30.35 9.5
-9 12 9 24.61 7.39
9 -12 -9 33.19 5.31
-9 -3 -9 45.3 15.76
12 -3 9 37.02 11.36
9 3 9 32.31 8.5
-12 9 12 49.33 15.88
12 -9 -12 46.13 12.02
-9 12 12 44.4 16.67
3 9 -12 52.46 16.35
-9 -3 -12 62 26.27
-3 12 -12 52.31 16.11
9 -12 -12 55.33 13.15
-3 -9 12 39.57 12.97
3 -12 12 25.26 12.27
-12 9 12 37.74 12.03
9 3 12 41.4 10.36
12 -3 12 41.47 12.43
-12 3 -12 50 15.24
-12 9 15 2.4 1.47
12 -9 -15 0.01 3.45
-9 12 15 1.63 3.47
12 -3 15 -0.65 1.68
9 3 15 -3.26 4.91
3 9 -15 6.38 6.81
-9 -3 -15 6.03 6.61
-3 12 -15 -0.58 6.62
9 -12 -15 1.65 1.27
-3 -9 15 10.63 7.91
3 -12 15 -2.64 6.73
-9 -3 -15 0.48 3.76
-12 3 -15 1.46 2.01
-12 9 15 2.4 3.36
9 3 15 -1.75 2.23
12 -3 15 -0.33 4.05
-12 3 -15 -2.05 5.38
12 -3 18 132.37 25.17
-9 -3 -18 117.8 29.87
-3 -9 18 54.36 16.58
12 -2 -16 13.97 7.85
10 2 -16 7.1 6.61
-2 12 16 3.92 3.2
2 -12 -16 -1.49 4.71
-2 -10 -16 5.17 2.12
-10 12 -16 8.3 7.07
10 -12 16 -9.39 12.56
12 -10 16 -3.15 2.94
-10 -2 16 14.39 7.04
-12 2 16 6.15 4.24
2 -12 -16 5.18 3.59
-2 12 13 395.51 53.78
2 10 13 385.72 50.52
2 -12 -13 382.32 59.47
-2 -10 -13 293.74 48.39
2 -12 -13 398.06 37.45
-10 -2 13 325.53 32.07
-12 2 13 388.92 39.4
-10 12 -13 274.68 35.48
12 -2 -13 344.68 36.5
-12 10 -13 390.27 44.06
10 -12 13 295.61 46.4
12 -10 13 348.57 49.35
12 -10 13 310.57 39.13
-12 10 -13 288.73 36.8
10 2 -13 382.92 40.17
12 -2 -10 190.18 27.24
-2 12 10 297.09 44.69
2 10 10 298.83 41.24
2 -12 -10 333.81 52.76
-10 -2 10 228.09 24.09
-2 -10 -10 251.34 43.36
-12 2 10 251.87 28.72
2 -12 -10 383.5 36.6
12 -2 -10 237.27 28.46
-10 12 -10 251.61 33.62
10 -12 10 322.02 46.98
12 -10 10 346.68 44.98
-12 10 -10 292.97 36.1
10 -12 10 268.81 34.32
12 -10 10 265.88 34.13
-10 12 -10 221.74 26.81
-12 10 -10 243.76 29.31
10 2 -10 253.14 30.39
12 -2 -7 232.02 27.95
-2 12 7 287.23 41.52
12 -10 7 412.24 19.07
-10 -2 7 272.14 24.7
2 10 7 270.09 34.67
-12 2 7 214.96 24.6
2 -12 -7 247.8 43.65
-2 -10 -7 223.68 40.62
10 -12 7 395.41 43.6
-10 12 -7 160.21 24.78
12 -10 7 369.02 40.07
2 -12 -7 304.22 32.25
10 -12 7 231.87 29.51
-2 12 7 361.1 39.33
12 -10 7 249.47 29.99
-10 12 -7 264.61 25.17
-12 10 -7 300.81 28.44
2 10 7 317.07 27.71
-12 2 7 204.72 20.89
10 2 -7 253.82 27.65
12 -2 -4 127.66 19.4
2 10 4 122.79 11.03
10 2 -4 91.18 15.61
-2 12 4 164.06 19.75
12 -10 4 232.22 24.01
-10 -2 4 137.66 17.08
2 10 4 147.04 18.02
-12 2 4 131.42 18.2
-2 12 4 122.95 24.98
-12 2 4 140.95 11.08
-10 12 -4 111.84 15.85
2 -12 -4 109.01 27.44
-2 -10 -4 216.75 13.69
-2 -10 -4 101.6 26.92
12 -10 4 172.45 19.79
10 -12 4 166.53 21.23
12 -10 4 164.14 18.99
10 2 -4 145.18 13.24
-10 12 -4 87.85 16.64
10 -12 4 123.33 19.67
-2 12 4 128.18 17.41
12 -10 4 117.28 18.53
2 10 4 112.14 8.3
-10 12 -4 133 15.94
10 2 -4 119.01 17.89
-12 10 -4 122.68 16.79
2 10 1 29.66 5.47
12 -2 -1 32.5 9.47
-10 12 -1 34.93 7.82
10 2 -1 39.01 9.88
-2 12 1 25.2 9.63
-10 -2 1 37.07 9.55
2 -12 -1 18.56 8.61
-2 -10 -1 82.57 12.68
-12 2 1 32.76 8.83
-2 -10 -1 24.18 13.59
-12 10 -1 30.25 8.05
-10 12 -1 32.86 7.23
12 -10 1 34.13 6.41
10 -12 1 32.99 7.64
-2 12 1 37.94 9.5
12 -10 1 46.47 10.16
-12 10 -1 45.39 7.01
-2 12 1 35.46 4.98
2 10 1 41.06 9.35
10 -12 1 24.08 6.89
10 -12 1 46.11 11.82
12 -10 1 27.96 8.18
-10 12 -1 32.35 7.32
-2 12 1 34.13 5.58
2 10 1 29.68 6.7
-10 12 2 63.43 10.11
-12 10 2 69.01 8.55
12 -10 -2 81.68 13.75
-10 12 2 63.2 9.86
12 -10 -2 127.71 25.37
-2 12 -2 65.18 11.03
10 -12 -2 89.3 16.13
-12 10 2 52.68 10.63
10 -12 -2 1.78 2.36
-10 12 2 65.86 10.55
2 -12 2 50.92 16.18
-10 12 2 57.57 7.18
-2 -10 2 44.34 15.98
10 2 2 81.72 10.84
-10 12 2 65.75 12.67
-2 12 -2 90.84 14.81
-2 12 -2 91.03 15.06
10 -12 -2 58.02 10.13
-12 10 2 93.44 11.81
12 -2 2 94.78 10.26
-10 -2 -2 66.53 14.11
2 10 -2 85.11 14.9
12 -10 -2 61.77 11.2
12 -2 2 59.7 11.92
10 2 2 59.61 11.62
-12 2 -2 73.1 13.73
2 10 -2 82.24 12.71
12 -2 5 21.73 7.31
10 2 5 21.9 6.73
12 -10 -5 18.79 5.99
-10 -2 -5 30.78 11.77
-2 12 -5 18.3 4.77
-10 12 5 16.87 7.5
-12 2 -5 20.94 7.81
10 2 5 31.79 6.77
-2 12 -5 17.85 1.43
10 -12 -5 25.16 8.29
-10 12 5 27.08 6.39
2 10 -5 13.25 5.94
2 -12 5 32.94 11.75
12 -2 5 24.02 3.1
-2 12 -5 20.76 7.75
-2 -10 5 17.62 9.17
12 -10 -5 26.62 7.57
-2 -10 5 24.25 8.84
2 -12 5 18.63 7.59
-2 -10 5 27.71 10.47
-10 12 5 25.65 7.36
-12 10 5 24.96 7.8
-12 10 5 5.28 2.75
10 -12 -5 22.11 7.5
-10 12 5 21.02 6.8
10 -12 -5 28.84 6.57
-2 12 -5 26.56 10.33
10 -12 -8 453.32 36.04
-12 10 8 370.26 39.17
-10 12 8 368.32 40.69
2 10 -8 386.83 38.27
-2 12 -8 310.68 34.29
2 -12 8 419.04 37.48
-2 -10 8 431.28 42.19
-12 10 8 327.6 31.37
-2 -10 8 294.46 31.38
2 -12 8 349.49 38.36
-10 12 8 364.55 32.44
-10 -2 -8 361.24 43.52
-12 2 -8 326.6 34.65
12 -2 8 366.67 31.98
10 2 8 363.22 29.16
10 -12 -8 399.2 21.89
12 -10 -8 475.25 38.71
12 -10 -8 277.54 24.26
12 -10 -11 19.78 7
-12 10 11 18.22 9.08
-10 12 11 20.54 10.43
12 -10 -11 21.94 8.66
2 10 -11 25.81 11.36
-2 -10 11 37.99 9.89
-2 12 -11 37.94 13.47
-10 -2 -11 40.39 22.87
10 -12 -11 30.74 10.65
-2 -10 11 11.47 7.86
2 -12 11 19.26 10.32
-12 10 11 16.53 7.6
-10 12 11 3.28 3.37
-10 -2 -11 26.99 10.94
12 -2 11 19.14 8.26
10 2 11 27.21 8.8
-12 2 -11 17.33 9.2
12 -10 -14 6.5 4.55
-10 12 14 19.08 10.98
12 -10 -14 16.39 8.29
12 -2 14 12.32 6.64
10 2 14 17.27 8.5
2 10 -14 15.45 9.94
-12 10 14 14.74 11.03
-2 12 -14 18.42 9.9
10 -12 -14 10.56 6.69
-10 -2 -14 24.04 17.88
-2 -10 14 12.78 9.21
2 -12 14 2.32 2.1
-10 -2 -14 13.45 7.18
-12 10 14 11.85 7.19
10 2 14 14.87 6.9
12 -2 14 15.77 6.77
-12 2 -14 6.49 5.6
12 -2 17 -3.99 7.6
-10 -2 -17 -5.06 10.12
-12 2 -17 4.94 6.53
-2 -10 17 0.61 5.56
-10 -2 -17 -2.89 5.15
-12 2 -17 -5.07 5.19
10 2 17 2.62 2.86
12 -2 17 2.52 3.55
-11 -1 17 43.87 13.74
-12 1 17 51.56 15.43
12 -1 -14 86.04 19.13
-1 12 14 97.17 27.01
1 11 14 112.84 28.71
11 1 -14 72.74 17.93
1 -12 -14 77.32 26.35
-1 -11 -14 75.1 25.49
-11 -1 14 90.84 17.7
-12 1 14 111.1 21.47
1 -12 -14 128.73 22.35
-11 12 -14 100.99 22.29
-12 11 -14 108.79 23.79
11 -12 14 67.23 21.32
12 -11 14 60.87 19.84
11 -12 14 86.73 21.67
12 -11 14 80.62 20.93
-12 11 -14 41.33 13.89
-1 12 11 15.68 10.68
1 11 11 14.36 10.4
1 -12 -11 18.45 12.19
-1 -11 -11 20.63 13.09
11 1 -11 18.51 8.51
11 -12 11 11.56 8.09
12 -11 11 13.33 5.97
-11 -1 11 9.37 3.83
-11 12 -11 11.26 6.48
-12 1 11 13.46 5.66
-12 11 -11 16.06 8.34
11 -12 11 11.65 7.01
12 -11 11 37.28 13.04
-11 12 -11 6.82 5.89
12 -1 -11 5.16 3.96
-12 11 -11 11.08 6.72
1 -12 -11 15.31 5.76
11 1 -8 13.64 6.32
-11 12 -8 11.8 5.04
-12 11 -8 13.19 4.57
12 -1 -8 0.78 5.21
12 -1 -8 10.01 5.65
-1 12 8 13.04 8.34
1 11 8 14.61 8.55
1 -12 -8 5.84 5.74
-1 -11 -8 11.97 8.82
-11 -1 8 11.69 4.89
11 -12 8 21.6 9.79
-12 1 8 14.29 5.67
12 -11 8 7.11 2.61
-11 12 -8 11.71 7.22
11 -12 8 16.48 7.35
12 -11 8 26.82 10.24
12 -1 -5 7.15 3.53
1 11 5 7.97 4.31
11 1 -5 -1.22 5.27
-11 12 -5 9.48 4.55
-12 11 -5 9.06 5.57
-1 12 5 6.72 3.97
1 11 5 7.35 6.84
-11 -1 5 10.92 4.33
1 -12 -5 3.92 6.07
-1 -11 -5 10.87 8.76
-11 -1 5 3.42 2.13
-12 1 5 9.57 4.91
-12 1 5 11.41 3.78
11 -12 5 10.65 6.59
12 -11 5 8.87 5.59
11 -12 5 2.7 1.87
12 -11 5 3.44 2.55
11 1 -2 511.64 37.26
-11 -1 2 565.43 35.82
-11 12 -2 615.34 34
-12 11 -2 617.31 35.63
-12 11 -2 807.99 35.89
-12 1 2 662.92 40.36
12 -11 2 898.85 36.64
-1 12 2 518.11 44.98
-1 12 2 769.15 42.57
1 -12 -2 539.8 61.97
-1 -11 -2 585.85 65.67
1 11 2 770.04 41.84
12 -11 2 766.39 43.97
11 -12 2 657.76 44.02
11 -12 2 730.71 36.9
12 -11 2 626.09 31.68
-1 -11 -2 1036.92 35.33
11 1 -2 848.09 28.52
12 -1 -2 768.35 20.38
1 11 2 675.96 33.49
11 -12 2 531.23 37.43
-11 12 -2 665.21 33.24
12 -11 2 600.63 40.03
-1 12 2 552.85 11.75
1 11 2 613.4 20.46
12 -1 -2 621.29 41.63
1 11 -1 33.05 7.51
-1 12 -1 21.14 5.57
12 -1 1 32.9 9.1
-11 12 1 37.24 7.93
-1 12 -1 39.88 10.06
-1 12 -1 37.18 6.7
-11 12 1 41.39 7.84
-11 -1 -1 36.35 10.09
11 -12 -1 29.38 6.55
1 11 -1 42.31 10.22
-12 1 -1 32.04 9.62
1 -12 1 26.26 11.59
-11 12 1 37.63 6.9
-12 11 1 35.56 7.07
-1 -11 1 25.48 12.38
11 1 1 23.88 7.97
-1 -11 1 53.23 11.65
12 -1 1 46.83 6.39
-12 11 1 29.75 7.82
-11 12 1 18.09 5.67
-12 11 1 24.63 5.44
-11 12 1 29.27 8.85
12 -11 -1 36.58 11.03
11 -12 -1 42.48 11.27
-1 12 -1 33.62 8.59
11 -12 -1 30 7.83
12 -11 -1 25.52 7.53
-12 11 4 4.2 1.58
12 -1 4 28.7 8.26
11 1 4 3.52 3.11
-11 12 4 -0.22 1.42
-11 -1 -4 -1.87 3.1
12 -11 -4 4.46 2.8
-12 1 -4 3.94 3.1
1 11 -4 9.85 3.63
12 -11 -4 8.95 7.85
-11 12 4 3.95 2.94
11 -12 -4 6.54 5.54
1 11 -4 3.53 2.93
-1 12 -4 2.14 2.76
1 -12 4 -1.78 2.36
-1 -11 4 3.44 3.13
1 -12 4 9.12 6.26
12 -1 4 3.29 1.32
12 -11 -4 4.26 4.86
-12 11 4 1.71 2.29
-1 -11 4 6.11 4.8
-11 12 4 3.16 3.1
-11 12 4 11.9 5.66
-12 11 4 0.24 4.99
1 -12 4 9.28 6.17
11 -12 -4 2.98 3.25
-1 12 -4 18.45 8.53
-1 12 -4 -2.42 3.36
11 -12 -4 6.93 4.22
11 -12 -7 1.66 1.57
11 1 7 8.49 3.39
-11 -1 -7 3.05 3.54
12 -11 -7 5.05 3.37
-12 1 -7 6.28 1.96
-12 11 7 3.62 3.05
1 11 -7 3.79 4.61
1 -12 7 2.2 3.26
-1 12 -7 2.85 3.95
-1 -11 7 2.28 2.49
12 -11 -7 2.5 2.16
-11 12 7 3.85 3.14
-1 -11 7 2.72 3.65
1 -12 7 3.75 4.64
11 -12 -7 5 3.43
-12 11 7 7.08 4.98
-11 12 7 4 3.87
12 -1 7 8.52 5
11 1 7 3.75 3.44
-12 11 10 210.9 31.93
-11 12 10 194.74 31.85
1 11 -10 204.53 30.37
-1 12 -10 154.47 26.04
-1 -11 10 247.6 27.91
-12 11 10 154.36 23.57
-1 -11 10 140.14 24.65
1 -12 10 164 28.7
-11 12 10 158 23.45
-11 -1 -10 177.93 31.1
-12 1 -10 170.14 27.65
12 -1 10 186.94 24.36
11 1 10 172.02 22.03
11 -12 -10 220.2 18.57
12 -11 -10 274.28 31.22
12 -11 -10 193.53 20.42
11 -12 -10 232.93 27.93
12 -11 -13 23.62 8.93
-12 11 13 17.86 10.22
-11 12 13 11.52 9.17
11 1 13 25.96 10.33
12 -1 13 19.9 9.33
12 -11 -13 16.48 7.09
1 11 -13 21.43 11.48
-1 12 -13 19.01 10.31
11 -12 -13 20.94 9.03
-11 -1 -13 26.18 20.26
-1 -11 13 10.4 7.48
1 -12 13 -3.77 8.2
-12 11 13 13.61 7.77
-11 12 13 3.19 1.43
11 1 13 6.74 2.62
12 -1 13 12.9 5.88
-12 1 -13 9.63 6.37
-12 11 16 81.86 24.06
-11 12 16 96.72 26.84
12 -1 16 86.61 20.64
11 1 16 86.34 20.42
1 11 -16 124.34 29.14
-1 12 -16 89.17 24.26
-11 -1 -16 70.29 25.76
-12 1 -16 72.56 24.49
-11 -1 -16 96.69 20.25
-1 -11 16 49.83 17.48
-12 1 -16 75.17 18.45
11 1 16 58.55 16.08
12 -1 16 46.44 14.71
12 0 -15 3.95 4.66
0 -12 -15 4.85 7.69
12 -12 15 5.8 3.76
-12 0 15 -1.25 3.73
0 12 12 135.37 32.14
0 -12 -12 153.27 36.27
-12 0 12 113.54 19.46
-12 12 -12 111.82 23.19
12 -12 12 140.15 30.21
12 -12 12 131.6 25.49
-12 12 -12 93.85 20.03
12 0 -12 135.14 23.49
-12 12 -9 4.76 5.29
12 0 -9 -7.39 8.58
0 12 9 0.98 1.59
0 -12 -9 -2.91 5.24
12 0 -9 -0.78 4.61
-12 0 9 -4.87 5.34
12 -12 9 -5.34 9.16
-12 12 -9 1.88 4.26
12 -12 9 -3.27 5.74
12 0 -6 77.69 16.39
-12 0 6 68.98 13.44
0 12 6 48.5 16.13
0 -12 -6 80.22 24.93
12 -12 6 104.51 19.64
12 -12 6 51.69 13.61
-12 12 -6 82.64 14.38
12 0 -3 1.32 2.94
0 12 3 2.62 4.38
-12 12 -3 0.56 2.09
0 -12 -3 -5.04 8.73
-12 0 3 -0.04 1.79
0 12 3 10.4 4.93
12 -12 3 3.21 3.77
12 -12 3 0.83 2.4
12 -12 3 -3.95 4.46
-12 12 0 147.07 17.28
12 -12 0 216.88 24.82
0 -12 0 89.32 25.34
-12 12 0 152.75 14.97
0 12 0 190.62 22.3
12 -12 0 140.1 18.48
12 0 0 152.82 20.65
-12 0 0 130.69 19.16
0 12 0 151.84 14.91
12 0 3 3.41 2.86
-12 0 -3 0.44 2.69
12 -12 -3 0.27 2.84
0 12 -3 0.24 1.89
0 12 -3 -3.77 4.49
0 -12 3 1.91 2.73
-12 12 3 -0.01 2.32
0 12 -3 3.33 4.12
-12 12 3 -2 5.22
0 -12 3 -2.67 4.67
12 -12 -3 1.89 2.81
0 12 -3 -1.86 3.09
12 -12 -3 1.44 2.35
-12 12 6 229.59 27.59
12 -12 -6 282.76 28.91
0 12 -6 207.45 25.84
0 -12 6 211.91 31.98
-12 12 6 204.4 23.09
0 -12 6 193 25.39
-12 0 -6 217.71 28.86
12 0 6 204.95 23.07
12 -12 -6 218.21 19.84
12 -12 -9 0.64 1.7
-12 12 9 -0.43 4.08
0 -12 9 -2.99 4.01
0 12 -9 0.8 3.15
12 -12 -9 -1.33 2.03
0 -12 9 6.83 6.93
-12 12 9 -0.71 3.26
12 0 9 -1.81 0.47
-12 0 -9 0.85 1.93
-12 12 12 16.11 7.94
0 12 -12 21.98 12.17
12 -12 -12 19.06 8.69
0 -12 12 13.24 9.19
-12 12 12 10.67 5.39
12 0 12 16.91 7.51
-12 0 -12 12.82 5.78
-12 12 15 1.6 3.98
12 0 15 -3.39 5.59
0 12 -15 20.14 11.93
-12 0 -15 10.07 10.7
0 -12 15 -2.74 4.54
-12 0 -15 -3.53 4.85
12 0 15 2.48 3.07
13 -6 -17 61.48 14.47
13 -6 -17 63.57 19
-6 -7 -17 59.39 22.63
6 -13 -17 63.76 15.68
13 -6 -14 23.44 9.58
-6 13 14 46.5 18.44
6 7 14 37.46 13.94
7 6 -14 48.79 15.85
-6 -7 -14 26.72 15.4
-7 13 -14 33.21 13.92
-7 -6 14 27.57 9.75
7 -13 14 12.94 6.86
-13 7 -14 33.78 13.45
6 -13 -14 55.22 14.69
-13 6 14 32.47 11.91
13 -7 14 24.76 11.08
-13 7 -14 33.13 13.06
13 -6 -14 45.86 12.31
13 -6 -11 112.62 21.17
-6 13 11 136.88 28.22
7 6 -11 177.3 28.53
6 -13 -11 157.77 23.07
13 -7 11 229.06 23.53
6 7 11 148.64 25.06
-7 -6 11 120.18 15.9
-6 -7 -11 155.49 37.27
-7 -6 11 156.79 24.09
-7 13 -11 115.7 24.15
-13 6 11 130.44 22.3
-7 -6 11 107.18 17.7
-6 -7 -11 242.71 24.72
7 -13 11 135.25 31.08
6 7 11 123.07 16.8
13 -7 11 145.35 24.93
-13 7 -11 112.16 21.16
7 6 -11 134.66 23.78
13 -6 -8 297.21 31.4
-6 13 8 333.04 39.91
-7 -6 8 422.19 28.19
6 -13 -8 422.87 36.31
-13 6 8 351.25 33.96
-6 -7 -8 329.06 53.8
-7 -6 8 375.43 45.28
-7 13 -8 280.18 34.52
7 -13 8 418.23 47.83
13 -7 8 357.25 35.68
6 7 8 313.72 22.14
-13 7 -8 295.84 30.64
7 6 -8 322.35 33.64
13 -7 5 223.15 27.12
13 -6 -5 92.71 16.01
-6 13 5 106.91 19.97
6 7 5 131.11 14.48
-6 -7 -5 130.59 14.62
6 7 5 126.94 15.61
-7 13 -5 105.63 17.08
6 7 5 128.3 11.63
-13 6 5 123.89 18.62
-7 -6 5 118.23 30.46
6 -13 -5 140.24 20.5
-7 13 -5 100.1 18.23
13 -7 5 85.56 11.59
-6 -7 -5 109.26 31.18
7 -13 5 135.18 21.69
-6 13 5 93.02 11.87
13 -7 5 129.38 19.54
-7 13 -5 103.58 12.4
13 -7 5 115.26 18.32
6 7 5 112.05 12.51
-13 7 -5 132.14 18.97
7 6 -5 102.01 16.98
-7 -6 5 194.98 21.02
7 6 -2 2.36 3.52
6 -13 -2 -0.48 3.41
-7 13 -2 4.43 3.04
13 -6 -2 2.46 2.41
6 7 2 5.36 2.84
6 7 2 3.06 2.98
13 -7 2 7.55 4.21
13 -7 2 5.59 3.48
7 6 -2 -0.07 3.56
-7 -6 2 2.07 2.58
-7 13 -2 3.78 3.85
-6 13 2 2.04 2.52
13 -6 -2 1.11 1.43
-7 13 -2 8.71 3.46
-6 13 2 0.83 0.91
-6 -7 -2 5.18 3.36
-13 7 -2 2.16 3.23
-6 -7 -2 9.95 8.26
-7 -6 2 1.25 6.06
-6 13 2 1.19 1.11
-13 6 2 -0.04 0.97
7 -13 2 4.15 3.82
13 -7 2 2.93 1.31
-7 13 -2 7.57 4.82
-6 13 2 9.31 3.3
6 7 2 4.97 2.5
13 -7 2 5.23 2.87
6 7 2 3.81 2.29
-6 -7 -2 0.26 1.8
6 7 -1 10.93 5.64
7 -13 -1 12.75 5.91
7 6 1 7.29 2.88
-7 -6 -1 11.28 7.23
13 -6 1 8.12 4.03
-6 13 -1 14.46 4.54
13 -7 -1 4.8 2.66
7 6 1 11.33 4.97
-7 13 1 9.38 2.69
6 7 -1 8.1 3.85
-7 13 1 5.35 2.96
-6 13 -1 6.77 3.05
-6 13 -1 11.9 3.46
-7 -6 -1 14.19 5.41
-13 6 -1 11.35 5.39
13 -7 -1 12.01 4.72
-6 -7 1 6.41 2.52
-6 -7 1 10.72 9.25
-7 -6 -1 9.59 9.82
-13 7 1 10.27 5.32
13 -6 1 10.88 3.7
6 -13 1 14.14 5.96
-7 13 1 14.3 5.55
7 6 1 14.72 6.47
-6 13 -1 4.79 2.41
-7 13 1 9.32 3.1
13 -6 1 10.71 2.07
-7 13 1 6.41 3.34
7 6 1 10.71 3.57
-6 13 -1 14.15 5.64
-6 -7 1 12.98 6.8
6 7 -1 11.98 5.75
-7 13 4 485.55 38.57
7 6 4 561.7 24.5
-7 -6 -4 591.78 32.72
-7 13 4 610.2 18.17
7 6 4 669.17 32.47
-13 7 4 561.06 38.52
-6 13 -4 464.08 36.15
-6 -7 4 482.05 62.34
7 -13 -4 673.32 45.29
7 6 4 746.18 37.18
-7 -6 -4 578.66 73.06
-7 13 4 441.53 18.25
-7 13 4 553.51 28.43
6 -13 4 607.18 42.65
13 -6 4 793.6 45.54
-7 -6 -4 724.09 64.14
-6 13 -4 554.81 24.26
-6 13 -4 751.17 41.95
13 -6 4 501.58 36.63
-6 -7 4 1067.31 53.19
13 -7 -4 655.18 39.88
7 6 4 533.01 29.56
-13 6 -4 615.7 41.04
13 -7 -4 543.04 36.74
-6 13 -4 739.48 41.89
6 7 -4 622.04 40.71
13 -7 -7 10.9 5.74
7 6 7 19.42 6.45
-13 6 -7 18.72 6.47
-7 13 7 6.21 5.12
6 7 -7 8.52 4.17
-6 -7 7 22.84 6.58
-6 -7 7 11.84 7
-7 -6 -7 14.3 12.03
-6 13 -7 8 5.1
6 -13 7 21.36 10.47
-13 7 7 15.85 7.48
7 -13 -7 16.22 7.53
-7 13 7 8.03 2.1
13 -6 7 18.13 7.28
7 6 7 13.55 4.48
6 7 -10 22.78 9.45
-13 6 -10 14.18 7.63
13 -7 -10 18.42 7.69
-7 13 10 15.04 7.71
6 7 -10 18.48 9.49
-6 -7 10 16.59 7.39
-7 -6 -10 14.55 12.71
-6 -7 10 10.51 5.31
-6 -7 10 19.89 5.55
-6 13 -10 10.84 6.75
6 -13 10 12.9 8.95
-13 7 10 11.71 5.89
7 -13 -10 23.12 9.24
13 -6 10 21.83 9.53
7 6 10 14.16 5.42
-13 7 13 15.99 8.86
13 -7 -13 11.58 4.78
-7 13 13 20.24 11.99
13 -6 13 24.26 7.94
7 6 13 19.61 9.49
6 7 -13 16.98 8.36
-7 -6 -13 20.18 14.17
-6 13 -13 12.52 8.83
-6 -7 13 11.93 6.45
6 -13 13 -4.28 9.37
7 -13 -13 20.04 8.53
-13 7 13 26.96 11.37
7 6 13 13.23 6.66
13 -6 13 7.21 2.21
-13 6 -13 16.87 8.96
7 -13 -16 103.67 19.31
13 -7 -16 73.36 18.92
-7 13 16 131.68 31.95
-7 -6 -16 77.37 25.64
-6 13 -16 113.53 26.91
-6 -7 16 70.31 16.81
13 -7 -16 101.71 19.25
13 -5 -18 8.7 4.55
5 -13 -18 18.56 9.29
13 -5 -15 9.89 4.22
8 5 -15 38.7 14.37
13 -5 -15 15.54 8.88
-5 13 15 23.34 12.87
8 5 -15 24.36 10.9
5 8 15 29.8 12.64
-5 -8 -15 19.87 13.44
-8 13 -15 21.39 9.37
8 -13 15 11.02 6.53
13 -8 15 52.35 27.67
-13 8 -15 16.59 9.08
-13 5 15 31.88 12.85
5 -13 -15 23.32 9.55
13 -8 15 19.35 9.7
-13 8 -15 7.94 4.07
13 -5 -12 114.35 21.87
-5 13 12 165.94 33.4
8 5 -12 173.26 28.82
5 -13 -12 176.44 24.28
5 8 12 177.7 30.21
5 -13 -12 134.78 33.47
-8 -5 12 172.6 19.93
-5 -8 -12 139.3 34.61
-8 13 -12 124.28 24.54
-13 5 12 169.58 26.76
-8 -5 12 122.15 18.57
13 -8 12 244.45 46.79
8 -13 12 129.57 30.89
13 -8 12 159.8 27.49
-13 8 -12 135.83 24.39
13 -5 -12 142.55 22.37
8 5 -12 177.04 28.44
8 5 -9 3.18 3.21
-13 8 -9 2.98 1.53
13 -5 -9 6.92 4.61
-5 13 9 10.12 8.22
5 -13 -9 5.75 9.04
-5 -8 -9 8.95 7.33
-8 -5 9 16.7 8.16
-8 -5 9 9.92 4.49
8 -13 9 -3.33 7.41
-8 13 -9 11.36 7.5
13 -8 9 14.29 9.89
-13 5 9 5.84 4.21
5 -13 -9 21.22 7.8
-8 13 -9 6.48 2.28
5 8 9 4.27 2.24
13 -8 9 -1.36 5.67
-8 13 -6 24.38 6.88
13 -8 6 61.99 14.56
13 -5 -6 21.97 8.49
5 8 6 29.88 7.95
-13 8 -6 23.76 8.16
-5 13 6 37.03 12.96
5 8 6 27.62 5.73
5 -13 -6 29.28 14.42
5 8 6 29.34 6.96
-8 -5 6 42.61 9.3
-5 -8 -6 19.84 11.36
-8 -5 6 34.85 15.76
8 -13 6 30.77 11.48
-13 5 6 22.29 7.44
-8 13 -6 24.61 9.49
13 -8 6 29.26 9.68
8 5 -6 31.18 7.93
5 -13 -6 26.4 8.88
13 -8 6 30.57 10.24
8 5 -6 29.44 9.72
5 8 6 24.66 5.48
8 5 -3 15.34 6.59
5 -13 -3 1.99 1.96
-8 13 -3 11.12 4.9
5 8 3 8.62 3.43
13 -5 -3 18.11 7.48
13 -8 3 25.27 11.19
-5 13 3 9.98 4.4
8 5 -3 9.31 4.54
-5 13 3 6.73 4.65
-8 13 -3 10.9 4.18
-8 -5 3 25.2 8.67
-13 5 3 7.79 1.57
-13 8 -3 12.2 6.36
5 -13 -3 9.71 7.79
-5 -8 -3 6.61 6.25
-8 13 -3 11.7 5.2
-13 5 3 9.04 4.76
8 -13 3 7.85 3.94
5 8 3 12.41 3.84
13 -8 3 6.36 2.55
8 5 -3 11.51 4.47
-8 13 -3 5.04 4.05
-5 13 3 10.33 3.23
5 8 3 13.98 4.94
5 8 3 14.94 5.67
8 -13 3 7.48 4.58
13 -8 3 8.58 3.83
13 -8 3 9.89 5.27
8 5 0 834.51 42.34
13 -8 0 1207.16 48.08
5 8 0 834.14 37.93
-8 13 0 737.09 28.36
-5 13 0 786.78 22.4
-13 5 0 948.44 49.29
-13 8 0 752.46 42.75
-5 13 0 749.03 42.76
-8 13 0 701.35 29.49
-5 -8 0 1001.87 51.49
5 -13 0 704.45 61.57
-5 13 0 797.94 34.86
-8 13 0 929.15 41.59
8 5 0 912.32 54.54
-5 13 0 1033.45 47.36
-5 -8 0 788.71 83.81
8 5 0 704.66 31.98
-8 13 0 616.2 39.52
5 8 0 863.15 26.17
8 -13 0 1205.52 61.19
8 -13 0 767.87 43.2
5 8 0 1261.95 54.45
-8 -5 0 1311.49 71.58
13 -8 0 669 40.13
13 -5 0 1178.7 43.98
-5 13 0 908.94 27.2
13 -5 0 607.74 39.07
5 8 0 875.38 41.9
-8 13 0 1002.11 34.36
-5 13 -3 46.37 7.24
-8 13 3 48.35 11.38
5 8 -3 21.94 3.12
-13 8 3 60.7 12.47
5 8 -3 62.57 12.59
8 5 3 65.14 10.13
-5 13 -3 47.64 10.57
8 5 3 69.37 8.92
-8 13 3 56.09 8.9
8 -13 -3 78.64 15.6
-5 -8 3 52.95 20.27
-8 -5 -3 57.58 22.47
5 -13 3 58.55 13.02
-8 13 3 41.71 8.64
13 -5 3 121.3 17.1
8 5 3 93.33 13.32
8 -13 -3 65.87 10.31
-5 -8 3 87.47 12.93
-5 13 -3 79.4 13.85
-8 -5 -3 90.54 22.42
-5 13 -3 81.52 12.72
13 -5 3 68.96 13.43
13 -8 -3 72.68 12.45
13 -8 -3 63.89 11.9
8 5 3 62.68 10.8
-13 5 -3 78.81 14.7
-5 13 -6 56.56 10.42
-8 13 6 94.89 18.58
8 -13 -6 142.8 21.07
8 5 6 137.89 15.42
-5 13 -6 92.22 17.43
-13 8 6 126.22 19.03
-5 -8 6 103.99 26.06
-8 -5 -6 108.59 33.01
5 -13 6 136.84 22.83
-8 13 6 101.32 14.29
-8 13 6 67.6 8.64
-8 -5 -6 136.85 29.17
13 -5 6 112.12 18.02
-5 -8 6 218.08 18.71
13 -8 -6 149.11 20.6
-13 5 -6 94.21 16.58
8 5 6 133.59 15.32
13 -8 -6 109.59 17.02
5 8 -6 93.51 16.81
-13 5 -9 35.77 10.87
13 -8 -9 42.28 11.53
-8 13 9 37.6 13.14
5 8 -9 33.98 11.65
-5 -8 9 42.51 13.25
-8 -5 -9 52.46 23.22
-5 13 -9 37.82 12.52
-5 -8 9 31.93 10.02
5 -13 9 44.62 16.33
-13 8 9 32.08 10.84
8 -13 -9 54.79 13.05
8 5 9 49.61 10.06
-8 13 9 33.87 9.77
13 -5 9 46.25 12.97
13 -8 -12 689.28 51.19
-13 8 12 868.98 67.37
8 -13 -12 978.55 56.37
-8 13 12 808.98 71.56
5 8 -12 935.93 68.63
8 5 12 869.29 59.47
13 -5 12 996.38 54.27
-5 13 -12 958.24 73.86
-8 -5 -12 901.88 98.49
-13 8 12 800.09 58.29
-5 -8 12 579.74 46.09
5 -13 12 590.96 67.26
8 5 12 706.68 43.23
13 -5 12 826.01 59.42
-13 5 -12 701.37 56.25
-13 8 15 2.55 2.38
13 -8 -15 3.18 0.27
-8 13 15 8.35 9.62
13 -5 15 9.67 5.88
8 5 15 4.61 6.62
5 8 -15 5.9 4.87
-8 -5 -15 -7.07 11.07
-5 13 -15 2.83 4.51
-5 -8 15 0.42 2.4
5 -13 15 -3.61 7.83
8 -13 -15 6.5 5.63
-13 5 -15 8.71 5.19
-13 8 15 1.81 0.29
13 -5 15 9.14 4.66
-13 5 -15 0.49 0.31
13 -8 -18 52.44 16.2
-5 -8 18 27.58 12.06
4 -13 -16 91.57 18.6
4 -13 -16 89.61 29
-4 -9 -16 83.17 26.77
13 -9 16 131.75 35.43
-13 9 -16 52.67 15.86
13 -4 -16 104.52 20.71
9 4 -13 10.56 7.58
13 -4 -13 4.61 1.38
13 -4 -13 2.01 4.44
-4 13 13 7.23 7.36
4 9 13 -0.66 1.64
4 -13 -13 12.05 11.21
-4 -9 -13 10.4 8.16
-9 13 -13 5.76 7.22
9 -13 13 5.47 6.46
-9 -4 13 4.53 3.42
13 -9 13 7.24 7.99
-13 9 -13 4.2 1.98
-13 4 13 7.38 5.86
4 -13 -13 5.53 4.13
13 -9 13 9.78 6.33
-13 9 -13 5.16 5.18
13 -4 -10 66.93 15.7
4 9 10 86.83 20.63
-4 13 10 104.03 25.59
-9 -4 10 89.71 14.29
4 -13 -10 111.3 18.99
4 -13 -10 73.05 24.74
-13 4 10 88.49 17.82
-4 -9 -10 85.6 26.85
-9 13 -10 97.64 20.22
9 -13 10 123.64 29.4
13 -9 10 106.5 24.09
-9 13 -10 70.13 13.7
13 -9 10 96.62 20.22
-13 9 -10 92.29 18.89
9 4 -10 102.41 19.84
9 4 -7 12.07 5.81
-9 13 -7 18.37 6.93
13 -4 -7 16.93 7.6
-13 9 -7 14.29 5.67
-4 13 7 23.48 10.98
4 -13 -7 29.09 14.12
-4 -9 -7 14.55 12.03
-9 -4 7 33.34 7.93
9 -13 7 16.76 7.66
-13 4 7 11.13 4.38
-9 13 -7 14.49 7.44
13 -9 7 14.71 5.83
9 -13 7 20.97 8.67
13 -9 7 19.05 7.85
4 9 7 23.24 5.5
4 -13 -7 16.49 6.48
4 9 4 55.3 9
-9 -4 4 86.26 13.69
-9 13 -4 73.14 13.08
9 4 -4 55.5 12.05
4 9 4 68.64 8.75
-13 4 4 68.05 13.33
-4 13 4 62.8 17.07
4 9 4 79.89 13.17
-4 -9 -4 135.95 17.07
4 -13 -4 63.88 20.27
13 -9 4 49.33 9.92
-4 -9 -4 59 22.43
9 -13 4 73.05 14.87
-4 13 4 52.45 7.26
13 -9 4 74.88 11.9
9 4 -4 70.14 10.59
-9 13 -4 52.29 13.35
9 -13 4 62.42 14.36
13 -9 4 71.68 14.67
-9 13 -4 73.73 11.16
4 9 4 58.7 7.9
-13 9 -4 70.94 13.87
9 4 -4 72.1 14.21
13 -4 -4 65.23 14.13
9 -13 1 72.53 14.76
4 9 1 51.37 8.65
13 -4 -1 43.89 10.27
-9 13 -1 56.65 9.09
-13 9 -1 59.54 12.16
9 4 -1 46.01 10.2
-13 4 1 55.59 12.29
13 -9 1 79.41 13.26
-4 13 1 58.57 5.27
-4 13 1 54.64 4.86
-4 13 1 59.1 14.8
-4 13 1 68.01 12.1
4 -13 -1 48.71 17.18
-4 -9 -1 51.54 20.23
4 9 1 65.62 6.67
-9 13 -1 65.11 10.81
9 -13 1 59.36 11.1
13 -9 1 64.82 7.6
9 4 -1 75.21 10.99
4 9 1 71.15 12.84
9 4 -1 63.87 9.86
-9 13 -1 33.43 9.84
-4 13 1 54.26 9.04
9 -13 1 68.51 13.63
-9 -4 1 73.39 14.62
-9 13 -1 68.96 10.54
13 -9 1 47.79 10.72
-4 13 1 55.87 6.4
-9 13 2 360.53 26.11
4 9 -2 588.33 41.34
-13 9 2 428.51 17.85
-9 13 2 491.25 30.61
9 4 2 493.49 33.79
-4 13 -2 376.04 31.83
-13 9 2 370.14 29.69
-4 13 -2 369.77 27.54
-9 13 2 398.91 24.7
4 -13 2 347.08 42.36
-4 -9 2 542.07 41.01
-4 -9 2 415.7 57.99
9 -13 -2 506.87 39.86
4 -13 2 394.74 33.02
4 9 -2 425.79 31.27
-4 13 -2 517.86 35.24
9 -13 -2 338.77 26.2
-4 13 -2 500.9 29.42
-9 -4 -2 548.22 48.43
-9 13 2 423.91 16.28
13 -9 -2 342.41 27.96
13 -4 2 417.54 32.76
9 4 2 391.95 28.84
-13 4 -2 424.67 34.13
13 -9 -2 561.28 34.87
-9 13 5 84.34 17.25
9 -13 -5 128.25 20.32
-4 13 -5 103.54 12.57
-4 13 -5 93.98 17.12
-4 13 -5 65.25 14.32
-13 9 5 99.68 16.74
13 -4 5 154.34 11.34
-9 13 5 106.79 14.71
-4 -9 5 78.79 22.58
9 4 5 170.07 17.25
4 -13 5 97.15 18
9 -13 -5 109.55 11.97
-4 13 -5 173.32 23.76
-9 -4 -5 130.96 27.97
13 -4 5 101.95 16.52
-13 4 -5 89.66 16.38
9 4 5 102.19 14.24
13 -9 -5 118.12 17.68
13 -9 -5 92.53 14.32
4 9 -5 109.67 17.67
13 -9 -8 16.05 6.78
-13 4 -8 11.9 4.7
-9 13 8 14.33 8.02
9 4 8 21.14 5.91
13 -9 -8 17.89 7.17
4 9 -8 16.06 7.79
-4 -9 8 20.66 8.77
-9 -4 -8 15.93 13.25
-4 13 -8 16.66 8.41
-4 -9 8 15.82 7.45
4 -13 8 23.29 11.34
-13 9 8 17.1 7.54
9 -13 -8 13.62 6.49
-9 13 8 16.1 5.53
-9 -4 -8 16.45 9.8
13 -4 8 20.99 7.92
9 4 8 14.72 6.51
9 -13 -11 108.03 18.51
-13 9 11 81.01 19.74
-9 13 11 82.8 22.19
4 9 -11 104.37 22.22
-4 13 -11 101.63 23.66
-4 -9 11 116.45 18.95
-9 -4 -11 109.93 37.17
-13 9 11 79.34 17.76
-4 -9 11 75.49 16.79
4 -13 11 94.93 25.17
13 -4 11 91.86 19.25
9 4 11 68.98 13.32
-13 4 -11 71.24 17.32
13 -9 -11 64.51 14.4
9 -13 -14 154.95 23.23
13 -9 -14 116.75 21.69
-13 9 14 132.04 27.9
-9 13 14 133.44 31.45
4 9 -14 176.64 31.49
13 -4 14 151.76 23.74
9 4 14 160.1 26.98
-9 -4 -14 163.67 42.76
-4 13 -14 115.14 28.25
-4 -9 14 93.44 20.41
-13 9 14 142.59 25.98
-9 -4 -14 193.95 25.69
4 -13 14 30.08 13.27
9 4 14 98.45 18.4
-13 4 -14 105.71 23.36
13 -4 14 109.25 21.97
13 -9 -17 34.98 12.13
13 -4 17 47.47 14.16
-9 -4 -17 39.89 18.57
-4 -9 17 37.14 13.81
13 -3 -14 3.77 2.59
10 3 -14 5.09 5.53
-3 13 14 12.51 5.68
3 10 14 15.04 9.09
3 -13 -14 -2.12 11.71
-3 -10 -14 8.05 11.18
-10 13 -14 6.85 5.21
10 -13 14 0.66 1.86
13 -10 14 -3.67 8.08
-13 10 -14 6.03 5.44
-10 -3 14 8.34 5.37
-13 3 14 7.85 6.22
13 -10 14 1.38 4.86
3 -13 -14 4.68 3.92
-13 10 -14 4.35 2.26
13 -3 -11 -1.93 3.72
10 3 -11 0.94 3.01
-13 10 -11 -2.92 4.21
13 -3 -11 -6.05 7.13
-3 13 11 -4.09 8.76
3 10 11 0.65 4.35
3 -13 -11 -1.28 2.86
-3 -10 -11 0.44 5.15
10 -13 11 -3.57 9.71
-10 -3 11 1.6 2.29
-10 13 -11 2.02 3.11
13 -10 11 -4.37 7.92
-13 3 11 -0.62 3.18
-13 10 -11 3.54 1.08
13 -10 11 -1.29 2.91
-10 13 -11 -1.03 4.07
3 -13 -11 3.18 3.25
13 -3 -8 253.97 30.66
-3 13 8 335.2 46.14
-10 -3 8 282.75 25.82
3 10 8 287.12 36.54
3 -13 -8 296.6 50.06
-13 3 8 330.63 32.84
-3 -10 -8 264.38 45.56
-10 13 -8 262.17 33.29
10 -13 8 448.89 50.66
3 -13 -8 380.62 37.21
13 -10 8 433.51 44.71
10 -13 8 310.06 36.04
13 -10 8 350.1 37.67
-10 13 -8 314.49 29.34
-13 10 -8 281.39 29.52
10 3 -8 316.93 33.33
13 -3 -5 40.75 11.09
10 3 -5 30.33 9.1
-10 13 -5 46.68 9.52
-3 13 5 51 17.22
-13 10 -5 36.89 10.04
13 -10 5 53.54 10.75
3 -13 -5 46.05 18.57
3 10 5 57.42 11.75
-3 -10 -5 40.09 17.94
-10 -3 5 41.66 9.51
-13 3 5 43.95 11.35
10 -13 5 60.91 14.71
13 -10 5 63.18 12.37
-10 13 -5 38.73 11.29
10 -13 5 35.28 11.11
3 10 5 36.91 5.38
13 -10 5 43.64 11.8
10 3 -5 52.95 13.2
10 -13 2 28.8 9.36
13 -3 -2 25.91 9.32
3 10 2 20.93 4.96
10 3 -2 23.52 7.98
-3 13 2 23.56 11.17
-3 13 2 27.02 3.48
-10 -3 2 38.57 10.28
-10 13 -2 32.06 7.85
3 -13 -2 17.99 10.28
-10 13 -2 17.25 5.36
-13 10 -2 24.03 7.29
-3 -10 -2 15.7 9.41
-13 3 2 21.22 7.77
13 -10 2 31.99 6.64
10 -13 2 26.94 7.57
-3 -10 -2 48.14 10.13
-3 13 2 34.56 9.03
10 3 -2 27.94 6.47
-10 13 -2 19.42 7.82
3 10 2 30.32 8.29
13 -10 2 37.46 9.16
10 -13 2 22.98 7.71
13 -10 2 26.38 9.1
-3 13 2 23.81 3.73
-10 13 1 106.83 11.18
-10 13 1 110.67 12.52
13 -10 -1 110.52 16.47
-13 10 1 109.2 15.96
-3 13 -1 115.55 12.39
-10 13 1 97.76 12.75
-3 13 -1 78.14 16.55
-10 13 1 122.58 14.48
3 -13 1 99.64 24.47
-13 10 1 75.95 8.17
-3 -10 1 150.24 21.77
10 -13 -1 129.85 19.8
-3 -10 1 103.71 28.22
10 3 1 146.74 15.51
-3 13 -1 143.15 19.03
-3 13 -1 129.27 13.53
3 10 -1 160.56 20.61
13 -3 1 122.89 13.2
13 -10 -1 92.39 14.61
-10 -3 -1 94.8 17.89
10 -13 -1 43.9 9.74
13 -3 1 89.39 15.27
10 3 1 99.64 15.81
3 10 -1 113 15.09
-13 3 -1 100.11 16.23
-10 13 4 379.68 31.97
-3 13 -4 569.08 40.11
13 -3 4 680.71 23.92
10 -13 -4 562.61 42.84
-3 13 -4 473.07 33.53
10 -13 -4 440.85 30.28
-3 13 -4 347.15 30.39
3 -13 4 412.74 44.98
-13 10 4 429.05 33.25
-3 -10 4 388.05 51.38
-10 13 4 351.86 25.82
3 10 -4 343.71 37.26
3 -13 4 414.59 36.14
-3 13 -4 554.63 41.47
10 -13 -4 419.63 25.7
-10 -3 -4 495.98 48.56
13 -3 4 398.99 32.39
-13 3 -4 467.02 37.06
13 -10 -4 431.73 30.83
10 3 4 403.4 29.91
13 -10 -4 441.29 33.6
3 10 -4 425.64 33.58
13 -10 -7 31.82 8.72
-13 3 -7 25.37 9.04
-10 13 7 36.54 12.01
3 10 -7 36.92 10.91
10 3 7 51.45 8.78
13 -10 -7 45.91 11.55
-3 -10 7 44.51 15.18
-3 13 -7 32.81 10.59
-3 -10 7 28.03 9.64
3 -13 7 50.77 14.8
-13 10 7 36.07 10.29
10 -13 -7 44.68 11.87
-10 13 7 28.46 8.13
10 -13 -7 39.01 6.64
-10 -3 -7 40.92 16.25
13 -3 7 42.48 11.26
10 3 7 22.34 7.06
-13 3 -10 2.85 4.39
-13 10 10 1.16 2.18
13 -10 -10 4.2 4.03
-10 13 10 4.8 4.93
13 -10 -10 7.21 3.6
3 10 -10 4.58 4.75
-3 -10 10 5.06 5.94
-3 13 -10 -2.55 4.66
-10 -3 -10 -0.95 10.13
-3 -10 10 0.81 2.11
3 -13 10 12.04 8.82
10 -13 -10 -1.95 1.44
-13 10 10 1.93 1.01
-10 13 10 -0.42 5.51
-10 -3 -10 -6.08 9.78
13 -3 10 3.65 4.64
10 3 10 8.99 5.57
-13 10 13 3.05 4.11
13 -10 -13 -0.14 1.36
-10 13 13 1.72 1.99
13 -10 -13 2.07 4.48
10 3 13 8.9 6.72
13 -3 13 1.41 3.48
3 10 -13 -0.69 3.22
-3 13 -13 -3.37 7.69
-10 -3 -13 0.43 9.46
10 -13 -13 0.27 1.56
-3 -10 13 -1.68 4.21
3 -13 13 -4.98 8.93
-13 10 13 7.06 6.69
-10 13 13 -4.77 6.34
10 3 13 -0.61 3.73
13 -3 13 -2.79 2.9
-13 3 -13 2.04 3.35
-10 13 16 191.89 39.66
13 -3 16 222.21 31.5
-3 13 -16 288.26 46.59
-10 -3 -16 253.22 51.15
-3 -10 16 122.36 25.84
-10 -3 -16 273.8 33.24
10 3 16 154.91 24.61
13 -2 -15 23.8 10.4
-2 13 15 18.75 13.6
2 -13 -15 21.22 15.79
-2 -11 -15 11.44 9.22
11 -13 15 1.82 7.33
13 -11 15 9.06 4.35
-11 -2 15 27.8 10.33
-13 2 15 23.44 9.86
-13 11 -15 7.92 5.24
13 -2 -12 317.66 39.04
-2 13 12 418.34 57.14
2 11 12 470.37 56.35
2 -13 -12 457.66 66.14
-11 -2 12 406.79 35.96
-2 -11 -12 363.43 55.62
-13 2 12 437.97 41.65
-11 13 -12 402.54 43.24
2 -13 -12 498.67 45.01
11 -13 12 459.82 58.73
-13 11 -12 538.03 53.22
13 -11 12 495.22 56.43
11 -13 12 389.38 44.95
13 -11 12 426.8 46.49
-11 13 -12 344.52 36.55
-13 11 -12 398.5 42.33
11 2 -12 442.9 43.53
13 -2 -12 406.29 40.7
13 -2 -9 88.24 18.42
-11 -2 9 118.59 17.84
-2 13 9 119.06 28.39
2 11 9 102.66 24.02
-13 2 9 113.4 19.33
2 -13 -9 97.71 28.76
-2 -11 -9 113.26 30.36
11 2 -9 117.22 20.68
-11 13 -9 97.35 21.17
11 -13 9 144.03 30.14
13 -11 9 166.83 29.68
2 -13 -9 150.5 24.24
11 -13 9 100.79 20.94
13 -11 9 113.81 22.38
-11 13 -9 95.38 17.36
-13 11 -9 118.42 20.07
11 2 -6 30.45 10.65
13 -2 -6 26.06 9.7
2 11 6 31.91 8.84
11 2 -6 17.29 7.42
-11 13 -6 27.8 8.28
-13 11 -6 27.76 8.63
-2 13 6 32.4 14.49
2 11 6 33.95 13.18
2 -13 -6 13.76 9.65
-2 -11 -6 19.89 12.5
-11 -2 6 28.6 8.29
-13 2 6 31.12 9.33
11 -13 6 38.68 12.57
13 -11 6 35.8 10.22
-11 13 -6 21.25 9.26
11 -13 6 25.24 9.56
13 -11 6 30.65 9.83
-11 13 -3 181 19.32
11 2 -3 180.69 23.37
-11 -2 3 165.7 20.22
-13 2 3 157.13 20.71
-2 13 3 158.44 28.55
-2 13 3 232.17 24.83
2 -13 -3 141.2 32.84
2 11 3 216.93 22.98
-2 -11 -3 142.33 33.95
13 -11 3 249.55 25.46
-2 13 3 168.75 9.2
-13 11 -3 143.32 18.36
11 -13 3 173.56 20.39
13 -11 3 200.67 19.16
11 -13 3 261.79 28.49
11 -13 3 153.57 21.51
13 -11 3 185.17 23.78
2 11 3 162.25 10.77
-11 13 -3 172.38 18.51
13 -2 -3 174.9 23.39
-13 2 0 630.82 41.02
2 11 0 671.6 29.8
-13 11 0 583.72 36.8
-11 13 0 706.62 36.13
13 -11 0 828 46.97
-2 13 0 573.01 46.43
2 -13 0 554.72 60.35
-2 -11 0 609.87 69.74
11 -13 0 1053.02 57.75
-11 13 0 627.16 32.45
-2 13 0 838.71 47.17
11 2 0 774.62 32.56
-13 11 0 714.88 28.58
2 11 0 831.85 46.21
11 -13 0 564.2 36.59
13 -11 0 494.58 35.51
-11 -2 0 707.84 45.81
13 -2 0 622.11 41.44
2 11 0 664.44 33.95
11 2 0 650.59 41.89
-2 13 0 670.75 28.46
2 11 -3 30.93 8.19
13 -2 3 36.44 9.73
-11 13 3 42.68 8.73
11 2 3 30.68 8.43
-11 13 3 34.03 8.04
-11 -2 -3 33.31 10.78
-13 2 -3 35.37 10.36
-2 13 -3 34.03 8.63
2 -13 3 32.01 13.24
-2 -11 3 25.15 13.24
-2 -11 3 81.43 17.63
-2 13 -3 53.63 12.66
-13 11 3 38.75 9.8
-11 13 3 29.01 7.61
13 -11 -3 50.25 11.49
11 -13 -3 65.21 14.62
11 -13 -3 35.01 8.14
13 -11 -3 35.14 8.85
2 11 -3 49.69 12.57
13 -2 3 37.37 5.93
11 2 6 17.99 6.59
-11 -2 -6 15.64 9.88
13 -11 -6 11.56 5.07
-11 13 6 13.91 6.67
-13 2 -6 11.77 6.39
2 11 -6 14.31 6.82
2 -13 6 17.92 9.13
-2 13 -6 13.46 6.82
-2 -11 6 16.02 8.92
13 -11 -6 13.47 6.59
-2 -11 6 12.77 6.72
2 -13 6 16.3 8.57
-13 11 6 19.01 8.24
-11 13 6 16.97 7.04
11 -13 -6 23.67 8.76
11 -13 -6 14.53 5.05
13 -2 6 15.53 6.93
-13 2 -9 1.74 0.6
13 -11 -9 7.82 4.19
-13 11 9 7.22 6.44
-11 13 9 10.97 7.26
2 11 -9 7.72 6.21
-2 -11 9 12.37 7.79
13 -11 -9 10.42 6.18
-2 13 -9 6 4.24
-2 -11 9 2.85 5.27
2 -13 9 15.79 9.84
11 -13 -9 10.12 5.95
-13 11 9 4.07 3.43
-11 13 9 4.65 4.2
13 -2 9 7.92 5.6
-11 -2 -9 7.75 6.38
11 2 9 6.55 4.15
-13 11 12 130.32 26.85
-11 13 12 115.93 25.82
2 11 -12 143.06 26.88
-2 13 -12 133.42 27
-11 -2 -12 228.29 61.64
-13 11 12 100.42 20.58
-2 -11 12 102.7 22.39
-11 13 12 97.73 19.56
2 -13 12 91.13 25.23
-11 -2 -12 122.27 28.64
11 2 12 125.09 19.9
13 -2 12 133.59 22.52
13 -11 -12 218.03 31.5
-13 2 -12 83.14 20.83
13 -11 -12 140.24 20.58
11 -13 -12 163.97 24.71
-13 11 15 19.48 10.92
-11 13 15 13.87 8.52
13 -2 15 13.54 6.25
11 2 15 12.35 7.63
2 11 -15 33.91 14.36
-2 13 -15 9.28 7.96
-11 -2 -15 15.65 11.99
-2 -11 15 14.19 8.9
-11 -2 -15 22.37 8.86
-13 2 -15 23.68 10.84
-11 13 15 17.14 8.81
11 2 15 5.66 3.69
13 -2 15 16.47 7.52
-12 -1 16 35.63 12.49
13 -1 -13 -6.71 6.63
12 1 -13 -4.73 5.33
1 -13 -13 -1.8 4.34
-1 13 13 -3.09 10.92
1 12 13 1.12 1.69
1 -13 -13 5.91 7.34
-1 -12 -13 9.58 11.22
12 -13 13 -3.16 10.53
13 -12 13 -9.87 8.72
-12 13 -13 4.12 6.33
-12 -1 13 -2.98 5.79
-13 1 13 2.24 3.38
-13 12 -13 -5.93 5.77
12 -13 13 4.72 5.11
13 -12 13 0.02 1.95
-12 13 -13 -3.93 5.41
-13 12 -13 3.38 2.62
13 -1 -10 76.26 17.96
-1 13 10 95.25 26.24
1 12 10 108.73 26.84
-12 -1 10 88.01 16.43
1 -13 -10 120.22 32.76
-1 -12 -10 107.1 30.13
-12 13 -10 111.57 22.51
13 -12 10 129.44 27.17
12 -13 10 133.68 29.26
-13 1 10 75.64 15.94
-13 12 -10 88.53 20.86
12 -13 10 93.33 20.87
13 -12 10 106.4 22.29
-12 13 -10 111.1 20.32
-13 12 -10 96.03 19.25
13 -1 -10 94.87 19.04
12 1 -10 96.52 19.58
13 -1 -7 3.51 2.65
-12 13 -7 4.65 1.93
12 1 -7 4.75 2.86
-13 12 -7 2.9 2.18
-1 13 7 9.47 8.7
1 12 7 5.23 3.91
1 -13 -7 4.92 4.31
-1 -12 -7 11.71 12.87
-12 -1 7 12.59 5.11
-13 1 7 6.33 4.49
12 -13 7 7.66 5.33
13 -12 7 5.32 3.4
-12 13 -7 2.65 5.16
12 -13 7 3.82 3.75
13 -12 7 0.94 3.06
12 1 -7 9.33 5.48
12 1 -4 85.73 16.74
-12 -1 4 88.15 15.14
-13 1 4 84.77 15.7
-1 13 4 109.39 17.11
1 12 4 75.74 18.55
1 12 4 103.63 16.44
-1 13 4 78.83 20.5
1 -13 -4 61.32 22.04
-1 -12 -4 61.56 22.12
12 -13 4 107.14 17.22
13 -12 4 115.37 16.83
13 -12 4 97.39 16.43
12 -13 4 66.35 14.72
13 -12 4 54.73 13.9
-12 13 -4 84.66 14.4
-13 12 -4 87.39 14.9
13 -1 -4 72.64 15.66
-12 13 -1 68.52 11.93
-13 12 -1 65.18 12.33
-1 13 1 47.48 13.72
13 -12 1 101.4 17.19
1 -13 -1 39.49 17.58
-1 -12 -1 58.04 21.18
12 -13 1 88.56 16.7
-1 13 1 72.23 14.17
1 12 1 62.23 7.46
12 -13 1 68.21 11.39
13 -12 1 62.76 9.79
1 12 1 75.39 14.37
-12 13 -1 61.37 10.42
-13 1 1 69.43 14.11
-13 12 -1 67.71 10.23
12 -13 1 50.18 11.58
13 -12 1 48.54 11.76
13 -1 -1 65.14 14.5
-1 13 1 63.24 8.53
-12 -1 1 78.83 15.33
12 1 -1 63.02 14.01
13 -12 -2 209.37 25.36
-1 13 -2 152.87 15.29
-12 13 2 182.68 17.5
-13 12 2 135.84 17.89
-12 13 2 169.56 18.85
-13 12 2 188.67 15.93
12 -13 -2 218.82 26.68
1 -13 2 147.65 31.21
-1 -12 2 133.43 30.95
12 -13 -2 156.11 18.41
-1 13 -2 231.13 26.11
13 -12 -2 133.65 18.05
-12 -1 -2 168.32 23.84
1 12 -2 228.37 26.11
-13 1 -2 163.5 22.65
13 -1 2 152.12 20.52
12 1 2 142.32 19.46
1 12 -2 150.36 17.34
-1 13 -2 168.11 17.88
-12 13 5 85.45 15.67
13 -12 -5 137.42 20.21
12 -13 -5 146.49 21.86
1 12 -5 122.31 18.58
-1 13 -5 97.74 16.79
1 -13 5 133.9 27.15
-1 -12 5 124.98 27.91
-13 12 5 109.99 17.38
1 12 -5 47.96 10.11
-12 13 5 124.39 17.91
1 -13 5 121.94 21.12
-1 13 -5 104.01 20.22
-12 -1 -5 108.19 20.45
12 -13 -5 114.87 14.55
-13 1 -5 116.03 20.32
13 -12 -5 111.12 15.16
13 -1 5 128.21 18.74
12 1 5 114.18 17.61
-13 1 -8 50.43 14.93
-13 12 8 51.72 14.48
-12 13 8 55.87 15.21
-1 13 -8 67.07 16.43
1 12 -8 68.02 16.18
1 -13 8 78.25 17.96
-1 -12 8 61.02 16.14
13 -12 -8 69.03 14.72
-1 -12 8 50.08 14.48
1 -13 8 69.67 17.51
12 -13 -8 63.34 14.72
-13 12 8 60.99 14.02
-12 13 8 48.46 12.35
13 -1 8 62.95 14.11
12 1 8 53.41 12.57
12 -13 -8 52.78 9.19
13 -12 -8 51.25 10.45
-12 -1 -8 52.48 16.45
-13 12 11 86.9 21.85
-12 13 11 83.78 21.12
1 12 -11 92.61 21.35
-1 13 -11 82.95 20.22
-1 -12 11 58.81 17.22
1 -13 11 69.14 20.74
-13 12 11 62.31 15.26
-12 13 11 51.56 14.11
13 -1 11 85.65 17.29
12 1 11 77.89 15.95
-12 -1 -11 69.66 20.94
13 -12 -11 93.78 14.93
13 -12 -11 137.9 23.74
-13 1 -11 92.09 22.33
12 -13 -11 121.79 21.49
-13 12 14 80.58 22.8
-12 13 14 91.17 24.71
1 12 -14 132.36 28.28
13 -1 14 94.09 20
12 1 14 100.63 20.78
-1 13 -14 85.76 23.13
-12 -1 -14 134.18 42.24
-1 -12 14 51.77 17.5
-12 13 14 76.57 19.17
12 1 14 70.55 16.56
13 -1 14 70.85 16.85
-13 0 14 9.55 5.34
-13 13 -14 1.82 2.98
13 0 -11 -3.63 6.21
0 13 11 2.92 6.88
0 -13 -11 -7.74 10
-13 0 11 3.42 3.27
13 -13 11 -2.41 7.98
-13 13 -11 1.5 3.78
13 -13 11 3.45 5.69
13 0 -11 -3.16 4.85
-13 13 -11 -0.43 0.7
13 0 -8 636.85 51.63
0 13 8 609.18 64.11
-13 0 8 653.6 45.67
0 -13 -8 688.76 79.05
-13 13 -8 675.37 56.6
13 -13 8 686.4 55.97
-13 13 -8 571.82 43.66
13 0 -5 -1.2 2.38
-13 13 -5 5.01 3.38
0 13 5 2.82 4.61
0 -13 -5 7.97 9.37
0 13 5 -2.1 4.02
-13 0 5 2.27 2.83
13 -13 5 6.12 5.35
13 -13 5 -3.05 5.79
-13 0 2 222.44 25.51
-13 13 -2 193.35 21.26
-13 13 -2 273.5 23.65
0 13 2 168.38 27.38
0 -13 -2 193.06 40.2
0 13 2 269.39 27.62
13 -13 2 264.95 29.42
13 -13 2 195.31 19.32
13 -13 2 162.09 22.36
13 0 -2 224.38 27.23
0 13 -1 2.02 2.41
13 0 1 -0.47 1.85
-13 0 -1 1.07 0.27
0 13 -1 0.2 2.92
0 -13 1 0.08 4.59
-13 13 1 -1.04 2.27
-13 13 1 3.72 2.46
13 -13 -1 1.35 2.37
13 -13 -1 3.63 4.22
0 13 -4 1043.05 49.16
-13 13 4 1030.18 51.61
0 -13 4 1051.82 82.96
13 -13 -4 913.48 44.91
-13 0 -4 1125.48 64.78
13 0 4 1142.23 57.14
0 13 -4 1073.31 53.05
-13 0 -7 8.06 6.27
-13 13 7 2.41 3.6
0 13 -7 -0.16 2.18
0 -13 7 0.28 4.02
0 -13 7 4.28 5.16
13 -13 -7 -0.13 2.5
-13 13 7 2.49 3.01
13 0 7 -0.24 1.87
13 -13 -7 1.88 1.1
-13 13 10 35.78 12.93
0 13 -10 47.41 15.72
13 -13 -10 59.57 15.06
0 -13 10 32 12.42
-13 13 10 35.16 11.96
13 0 10 52.59 13.33
-13 0 -10 46.15 16.03
-13 13 13 5.4 5.23
0 13 -13 6.89 8.56
0 -13 13 4.19 7.1
-13 13 13 -0.73 1.58
13 0 13 1.07 0.82
14 -7 0 -0.26 2.12
7 7 0 3.63 2.24
-7 14 0 1.24 1.27
-7 14 0 6.91 2.05
-14 7 0 11.61 6.1
-7 -7 0 9.47 10.98
14 -7 0 7.2 3.83
-7 14 0 2.15 0.23
-7 14 0 -0.14 2.41
7 7 0 1.92 1.58
-7 -7 0 7.41 7.08
-7 14 3 87.78 15.77
-7 14 3 122.21 17.32
7 7 -3 92.82 15.41
14 -7 3 115.53 13.83
7 7 3 112.8 12.61
-14 7 3 124.41 19.06
-7 14 3 104.04 11.24
-7 14 -3 58.59 12.39
-7 -7 -3 107.93 33.81
-7 -7 3 91.14 28.4
7 -14 3 112.87 18.15
7 -14 -3 106.09 19.03
14 -7 3 145.51 13.31
7 7 3 157.83 18.92
-7 -7 -3 137.42 27.17
-7 14 -3 129.98 17.83
-7 -7 3 196.77 27.25
-7 14 -3 92.68 9.91
14 -7 3 110.51 17.62
14 -7 -3 114.59 16.26
14 -7 -3 91.91 15.83
7 7 3 107.58 13.81
7 7 -3 100.4 17.13
-14 7 -3 94.66 16.68
-7 14 6 344.28 37.58
7 7 6 510.43 32.67
-14 7 6 434.2 37.3
7 -14 -6 484.32 40.58
-7 -7 -6 406.05 64.15
-7 -7 6 446.64 57.22
-7 14 -6 240.4 29.52
-7 14 -6 194.51 27.39
7 -14 6 520.96 46.86
-7 14 6 332.96 25.06
14 -7 6 620.58 45.91
14 -7 6 407.92 36.04
7 7 6 358.25 24
-14 7 -6 379.65 35.1
-7 -7 6 807.79 47.86
14 -7 -6 416.57 36.85
7 7 -6 375.57 35.25
14 -7 -9 74.93 16.51
7 7 -9 85.6 18.04
-14 7 -9 79.29 16.69
-7 14 9 71.96 19.5
7 -14 -9 103.58 19.04
-14 7 9 107.14 19.73
-7 -7 9 94.59 21.86
-7 -7 -9 85.77 30.01
7 -14 9 106.83 26.5
-7 14 -9 59.36 15.6
14 -7 9 161.51 32.71
14 -7 9 97.68 19.87
7 7 9 86.13 12.83
7 7 -12 34.19 12.75
14 -7 -12 19.21 7.77
-7 14 12 17.26 10.21
7 7 -12 21.45 10.23
14 -7 12 39.03 10.4
7 7 12 31.34 12.37
-7 -7 -12 21.23 11.82
-7 -7 12 24.54 9.02
-7 14 -12 20.23 10.16
7 -14 12 6.09 3.79
-14 7 12 33.32 12.32
7 -14 -12 31.45 10.66
14 -7 12 24.93 8.86
-14 7 -12 15.11 8.49
14 -7 -15 36.53 13.05
-7 14 15 64.43 23.13
-7 -7 -15 44.4 20.75
-7 14 -15 71.16 20.78
-7 -7 15 43.76 13.45
7 -14 -15 70.12 16.73
6 -14 -16 385.74 40.35
14 -8 16 528.24 80.24
8 6 -13 13.1 8.59
14 -6 -13 -3.94 6.31
-6 14 13 0.05 2.57
8 6 -13 -3.58 7.3
6 8 13 1.48 2.38
-6 -8 -13 -4.57 7.88
-8 -6 13 -0.21 1.99
-8 14 -13 2.89 3.56
8 -14 13 -0.37 6.35
14 -8 13 20.37 14.89
-14 6 13 1.07 3.77
-14 8 -13 -3.84 2.47
6 -14 -13 -2.59 3.46
14 -8 13 2.62 2.97
-14 8 -13 3.74 1.93
8 6 -10 24.32 10.5
-14 8 -10 22.76 10.11
14 -6 -10 16.97 7.34
-6 14 10 13.9 9.22
6 8 10 28.65 11.2
-6 -8 -10 16.7 12.57
-8 -6 10 23.28 9.78
-8 14 -10 17.89 9.01
8 -14 10 21.44 12.29
14 -8 10 30.7 14.03
-14 6 10 20.69 8.78
6 -14 -10 26.17 9.05
14 -8 10 15.8 7.42
8 6 -7 7.25 4.16
14 -6 -7 3.77 4.6
-14 8 -7 5.53 4.22
-6 14 7 0.68 3.03
6 8 7 2.28 1.5
6 -14 -7 -2.79 7.48
-8 -6 7 0.78 1.7
-6 -8 -7 -2.49 6.51
-8 -6 7 3.9 7.53
8 -14 7 10.46 9.43
-8 14 -7 3.89 4.13
-14 6 7 -0.11 3.72
14 -8 7 -7.25 5.91
-6 14 7 -1.77 2.97
6 -14 -7 6.5 4.76
-8 14 -7 1.64 1.79
14 -8 7 10.18 6.45
6 8 7 6.39 4.06
-8 14 -4 434.46 33.53
-6 14 4 526.12 36.73
-6 14 4 324.84 34.21
8 6 -4 334.06 31.67
-14 6 4 374.73 33.12
14 -8 4 454.23 28.34
-6 -8 -4 323.9 56.5
6 8 4 498.31 33.16
-8 -6 4 350.93 53.67
-6 14 4 386.96 21.82
-8 14 -4 275.73 29.81
8 -14 4 427.58 37.36
14 -8 4 591.87 32.4
6 -14 -4 490.77 41.25
14 -8 4 365.83 33.46
-8 14 -4 344.34 22.15
-8 -6 4 715.2 48.69
6 8 4 406.74 24.63
-14 8 -4 354.26 32.38
14 -6 -4 390.47 34.22
8 6 -4 332.85 31.38
14 -8 1 6.81 4.08
14 -6 -1 3.82 2.93
-8 -6 1 -0.83 5.58
6 8 1 2.53 2.33
8 6 -1 5.83 4.5
-6 14 1 0.08 0.97
14 -6 -1 -0.82 1.92
-8 14 -1 3.14 2.22
-14 8 -1 1.33 1.85
6 8 1 6.54 5.9
-6 -8 -1 1.63 5.9
-14 6 1 3.54 4.19
-6 14 1 1.58 0.68
-8 -6 1 -3.67 3.67
-6 14 1 3.36 2.05
14 -8 1 6.58 1.91
-8 14 -1 1.45 1.48
-6 14 1 2.91 2.66
14 -8 1 1.84 1.46
-8 14 -1 5.81 3.8
14 -6 2 216.85 18.68
6 8 -2 133.14 17.69
-8 14 2 124.48 17.03
-6 14 -2 108.45 10.52
-14 8 2 150.36 20.2
-8 14 2 173.97 19.56
-8 14 2 146.03 13.88
-6 14 -2 95.03 14.44
-6 -8 2 150.53 38.21
8 6 2 163.56 16.35
-8 14 2 95.38 12.59
-8 -6 -2 139.9 37.55
6 -14 2 145.11 20.66
8 -14 -2 179.17 24.64
14 -6 2 209.19 11.88
-6 14 -2 172.39 20.73
-6 -8 2 260.93 28.03
-8 -6 -2 216.77 37.12
-6 14 -2 152.02 10.28
8 6 2 231.73 23.31
6 8 -2 113.36 20.34
14 -6 2 154.55 20.66
14 -8 -2 122.24 17.8
14 -8 -2 167.8 19.05
8 6 2 150.42 17.67
6 8 -2 146.19 19.04
-14 6 -2 129.42 18.88
8 6 5 2.03 0.66
-6 -8 5 0.6 2.27
14 -8 -5 0.44 1.25
-8 14 5 -1.87 3.8
-6 14 -5 -7.35 7.38
-14 6 -5 2.1 3.67
14 -8 -5 -2.21 3.63
6 8 -5 -0.17 1.96
-6 -8 5 -1.46 7.57
-8 -6 -5 0.2 8.18
-6 14 -5 1.42 2.57
6 -14 5 0.31 1.37
-14 8 5 0.89 2.57
14 -6 5 3.73 4.12
-8 14 5 1.54 1.07
8 6 5 0.7 3.84
8 -14 -5 1.17 2.24
-8 -6 -5 -9.1 10.94
14 -6 5 0.54 4.43
6 8 -8 25.22 9.13
14 -8 -8 34.24 10.54
-14 6 -8 28.92 9.8
-8 14 8 34.63 12.66
8 6 8 54.36 10.77
-6 -8 8 47.11 16.3
-8 -6 -8 39.93 20.18
-6 14 -8 27.11 10.51
6 -14 8 63.69 18.97
-14 8 8 27.9 9.78
-8 14 8 23.39 6.9
8 -14 -8 39.06 12.33
14 -6 8 39.98 12.09
8 6 8 37.01 8.66
-14 6 -11 1.78 3.18
6 8 -11 5.81 5.58
14 -8 -11 5.31 3.17
-8 14 11 4.52 3.02
6 8 -11 -1.88 3.99
-8 -6 -11 -2.61 4.46
-6 14 -11 -0.99 3.25
-6 -8 11 1.16 1.75
6 -14 11 2.93 3.77
-14 8 11 1.11 1.65
8 -14 -11 7.69 6.53
8 6 11 0.25 1.33
14 -6 11 -0.02 0.57
8 -14 -14 95.22 18.97
14 -8 -14 67 17.13
-8 14 14 100.04 27.79
6 8 -14 94.41 23.13
-8 -6 -14 77.17 27.54
-6 -8 14 75.8 17.35
-6 14 -14 82.16 23.22
-14 6 -14 111.48 24.02
14 -6 14 85.67 21.01
14 -8 -17 -4.87 2.46
14 -5 -17 15.26 8
14 -5 -14 22.66 9.7
-5 14 14 25.43 13.61
5 -14 -14 24.14 14.93
-5 -9 -14 9.7 5.63
-9 14 -14 31.67 12.76
9 -14 14 21.44 12.7
14 -9 14 55.83 21.95
-14 5 14 36.61 13.06
5 -14 -14 40.61 13.35
-14 9 -14 25.51 11.97
-14 9 -11 28.78 11.69
14 -5 -11 13.05 6.4
-5 14 11 29.21 13.93
5 9 11 36.34 13.61
5 -14 -11 44.26 19.45
-5 -9 -11 24.08 13.11
-9 -5 11 24.92 9.75
-9 -5 11 26.9 7.92
-9 14 -11 17.35 8.96
9 -14 11 37.19 16.63
14 -9 11 53.67 17.87
-14 5 11 28.87 10.08
9 5 -11 30.02 11.61
14 -9 11 35.75 11.99
5 -14 -11 33.61 11.19
14 -5 -8 397.27 39.55
-9 -5 8 505.43 34.98
-5 14 8 451.66 51.18
5 -14 -8 345.72 54.81
-14 5 8 430.76 39.03
-5 -9 -8 367.29 58.14
-9 -5 8 423.34 48.87
5 -14 -8 505.06 42.6
-9 14 -8 355.54 38.79
9 -14 8 576.91 58.38
14 -9 8 589.66 49.85
-9 14 -8 287.1 26.63
14 -9 8 467.17 44.12
-14 9 -8 369.99 35.44
9 5 -8 417.76 39.95
9 5 -5 36.84 10.89
5 9 5 28.14 5.94
5 -14 -5 37.7 11.49
14 -5 -5 36.23 11.38
-9 14 -5 41.69 8.42
9 5 -5 24.19 7.88
-5 14 5 31.54 12.07
-14 9 -5 37.83 11
-9 -5 5 44.53 11.12
5 -14 -5 22.86 13.91
-5 -9 -5 26.27 16.3
9 -14 5 51.36 14.19
-14 5 5 38.74 10.88
5 9 5 42.05 9.76
-9 14 -5 13.07 5.28
14 -9 5 52.37 11.11
-9 14 -5 24.35 8.74
-5 14 5 28.58 5.92
14 -9 5 30.5 9.95
14 -9 5 45.85 9.41
9 5 -2 40.7 10.58
14 -9 2 56.94 11.21
-9 -5 2 72.25 16.08
-5 14 2 47.17 5.84
-5 14 2 41.31 12.14
5 -14 -2 36.36 15.87
-14 9 -2 38.36 10.06
-5 -9 -2 35.5 19.13
14 -5 -2 38.6 10.86
-14 5 2 43.27 11
14 -9 2 52.33 7.39
9 -14 2 44.14 10.82
5 9 2 60.08 12.44
-5 14 2 61.76 12.31
-9 14 -2 38.76 11.05
-9 14 -2 55.79 11.03
9 -14 2 50.26 12.58
5 9 2 41.97 8.22
14 -9 2 43.63 11.17
-9 14 -2 49.25 8.73
5 9 -1 23.57 7.47
14 -9 -1 20.25 6.94
-5 14 -1 31.7 8.87
14 -5 1 21.54 7.27
-9 -5 -1 38.85 15.14
9 5 1 30.47 8.62
-9 14 1 21.25 5.26
5 9 -1 17.55 5.69
-5 14 -1 24.98 7.38
-14 5 -1 30.63 9.08
-5 14 -1 14.11 4.47
-5 -9 1 16.55 11.94
14 -5 1 21.31 5.92
-9 -5 -1 17.88 12.2
-14 9 1 24 8.04
9 -14 -1 33.42 10.3
-9 14 1 19.56 5.21
-9 14 1 30.99 7.96
14 -9 -1 29.53 8.12
-9 14 1 22.05 7.08
9 5 1 3.98 7.23
5 9 -1 40.04 11.11
9 -14 -1 34.64 9.13
-9 14 4 631.29 44.55
-14 9 4 789.49 47.25
-5 14 -4 639.61 43.27
9 -14 -4 1019.42 59.34
-5 -9 4 614.88 71.46
-9 14 4 651.39 33.27
-9 -5 -4 812.22 97.87
5 -14 4 712.88 48.66
-9 14 4 491.71 29.39
14 -5 4 1374.3 65.19
9 5 4 978.63 45.23
9 -14 -4 883.61 37.46
-9 -5 -4 1197.65 93.94
14 -5 4 733.41 45.84
9 5 4 811.06 41.44
-14 5 -4 790.32 49.91
14 -9 -4 636.75 40.06
14 -9 -4 811.97 45.78
5 9 -4 732.49 45.81
-5 14 -4 997.87 53.39
5 9 -7 1.58 3.37
14 -9 -7 10.12 5.32
-14 5 -7 8.42 4.61
-9 14 7 15.31 8.08
14 -9 -7 9.92 5.32
-5 -9 7 -1.22 6.95
-9 -5 -7 4.48 10.8
-5 14 -7 8.51 6.45
5 -14 7 26.09 11.74
9 5 7 14.41 4.94
-14 9 7 12.35 7.18
-9 14 7 7.87 4.27
9 -14 -7 13.41 6.93
-9 -5 -7 3 2.85
14 -5 7 14.31 7.35
9 5 7 6.3 3.15
5 9 -10 7.81 7.96
-14 5 -10 5.49 5.53
14 -9 -10 5.27 4.18
-9 14 10 6.51 6.53
14 -9 -10 -4.74 7.31
5 9 -10 7.3 7.78
-5 -9 10 1.56 4.26
-9 -5 -10 16.68 14.97
-5 14 -10 -3.55 5.24
-5 -9 10 4.72 4.51
5 -14 10 13.01 10.16
-14 9 10 4.53 2.84
9 -14 -10 14.67 8.29
-9 14 10 -6.25 6.91
14 -5 10 -3.45 5.46
9 5 10 1.09 0.9
-14 9 13 5.33 4.67
14 -9 -13 1.1 0.84
-9 14 13 1.28 4.28
14 -5 13 5.41 4.56
9 5 13 -0.95 0.7
5 9 -13 -0.38 4.76
-9 -5 -13 0.81 6.62
-5 14 -13 0.28 3.3
-5 -9 13 2.12 2.5
5 -14 13 -1.72 2.58
9 -14 -13 0.37 2.69
-14 9 13 -0.53 2.47
9 5 13 -2.94 4.14
14 -5 13 0.03 1.39
-14 5 -13 1.86 4.06
14 -9 -16 53.3 16.09
-5 -9 16 29.95 11.46
14 -4 -15 10.59 6.92
14 -10 15 21.71 9.95
4 -14 -15 22.68 9.62
10 4 -12 21.66 10.22
14 -4 -12 6.36 0.81
-4 14 12 18.21 11.82
4 10 12 15.28 8.3
4 -14 -12 18.02 12.41
-4 -10 -12 20.38 12.17
-10 -4 12 35.22 10.17
-10 14 -12 21.62 10.09
10 -14 12 15.07 8.79
14 -10 12 14.73 7.21
-14 4 12 17.44 7.42
-14 10 -12 26.32 12.35
14 -10 12 27.47 11.57
4 -14 -12 22.17 9.52
-14 10 -12 17.85 9.91
10 4 -9 70.58 16.8
-14 10 -9 54.96 13.72
14 -4 -9 60.2 15.76
-10 -4 9 80.56 14.04
-4 14 9 65.25 20.35
4 10 9 76.35 19.79
4 -14 -9 76.97 26.99
-4 -10 -9 65.64 23.12
4 -14 -9 102.11 19.54
10 -14 9 92 24.78
-10 14 -9 57.13 15.6
-14 4 9 67.73 15.77
14 -10 9 93.8 20.88
-10 14 -9 71.7 14.5
14 -10 9 77.23 18.63
-10 -4 6 394.97 32.06
10 4 -6 296.13 32.66
-4 14 6 341.57 44.21
4 10 6 394.72 31.57
-14 4 6 286.76 30.36
4 -14 -6 273.61 48.39
-4 -10 -6 274.19 49.03
-10 14 -6 221.25 29.7
10 -14 6 403.34 42.63
14 -10 6 449.06 36.85
4 -14 -6 386.48 37.85
10 -14 6 323.01 35.74
14 -10 6 392.88 38.96
-10 14 -6 256.97 24.04
-14 10 -6 251.31 27.6
10 4 -6 317.96 32.68
14 -4 -6 345.87 35.77
10 4 -3 167 22.31
-14 4 3 208.64 25.07
-4 14 3 188.58 30.41
-4 14 3 222.91 24.52
4 -14 -3 139.25 32.48
-4 -10 -3 153.87 37.58
14 -10 3 209.08 21.82
4 10 3 239.68 24.26
10 -14 3 190.71 22.86
14 -10 3 216.35 17.8
-10 14 -3 106.19 19.01
10 -14 3 212.24 26.31
14 -10 3 168.07 22.6
-10 14 -3 193.52 21.04
4 10 3 168.65 13.9
-10 14 -3 156.95 17.3
-10 -4 3 228.33 26.51
14 -4 -3 195.04 25.33
-14 10 -3 169.41 21.63
-4 14 0 5.93 1.82
14 -4 0 6.86 3.36
10 4 0 6.78 4.59
4 10 0 11.56 4.62
-10 -4 0 10 5.4
14 -4 0 9.64 3.95
-4 14 0 10.22 5.31
4 -14 0 11.2 7.94
-14 4 0 8.94 5.78
4 10 0 15.19 7.01
-4 -10 0 11.25 5.82
-14 10 0 23.73 8.06
-10 14 0 8.73 3.96
-10 14 0 7.79 5.11
14 -10 0 16.76 6.39
-10 14 0 16.87 5.72
10 -14 0 14.17 5.85
-4 14 0 11.88 6.07
10 -14 0 8.05 4.31
14 -10 0 5.29 2.88
14 -10 -3 242.94 25.42
-10 14 3 187.31 19.92
-14 10 3 309.5 16.86
-10 14 3 284.75 24.39
-4 14 -3 283.18 27.04
10 4 3 341.81 30.82
-14 10 3 232.9 25.3
-4 14 -3 187.38 20.7
4 -14 3 212.3 33.88
-10 14 3 212.57 19.68
-4 -10 3 196.83 40.68
10 -14 -3 310.26 32.87
4 10 -3 237.59 31.35
4 -14 3 232.05 27.29
10 -14 -3 219.6 20.88
-10 -4 -3 351.46 45.36
-4 14 -3 330.92 31.02
14 -4 3 195.59 23.8
14 -10 -3 190.68 21.88
10 4 3 226.75 23.18
-14 4 -3 233.09 27.19
4 10 -3 239.35 25.16
-10 14 6 224.07 29.28
10 -14 -6 279.22 31.5
-4 14 -6 87.74 18.23
-4 14 -6 191.17 25.5
-14 10 6 225.31 26.48
-4 -10 6 228.14 38.3
-10 14 6 204.45 21.65
-10 -4 -6 263.23 63.04
4 -14 6 219.02 29.42
10 4 6 380.12 26.79
-10 -4 -6 344.34 50.31
14 -4 6 214.53 25.48
-14 4 -6 202.52 26.55
10 4 6 257.06 24.04
14 -10 -6 218.93 23.65
14 -10 -6 261.36 28.31
4 10 -6 203.03 26.1
-10 14 9 117.25 25.11
10 -14 -9 183.92 26.14
4 10 -9 138.66 24.19
10 4 9 237.99 21.49
-4 14 -9 139.61 25.27
-4 -10 9 196.81 29.41
-14 10 9 114.81 20.13
-10 -4 -9 195.41 58
-4 -10 9 105.69 20.09
4 -14 9 168.56 31.21
-10 14 9 128.99 20.19
-10 -4 -9 196.4 39.64
14 -4 9 155.54 23.52
10 4 9 141.42 18.72
-14 4 -9 129.94 23.44
14 -10 -9 168.41 25.62
14 -10 -9 128.25 19.5
-14 10 12 55.41 17.61
14 -10 -12 53.55 13.88
-10 14 12 44.25 17.27
14 -10 -12 85.64 20.93
4 10 -12 66.53 18.6
-10 -4 -12 76.25 31.16
-4 14 -12 36.82 14.17
-4 -10 12 28.2 11.05
4 -14 12 45.23 18.76
10 -14 -12 68.29 15.83
-14 10 12 55.93 15.34
-10 14 12 32.58 9.44
10 4 12 57.08 13.03
14 -4 12 60.49 16.09
-14 4 -12 52.83 16.23
14 -10 -15 41.93 12.91
-10 14 15 42.73 17.89
14 -4 15 61.38 16.06
-4 14 -15 65.37 21.65
-4 -10 15 35.23 13.23
14 -3 -13 -3.36 5.75
-3 14 13 2.06 5.69
3 11 13 0.05 3.93
3 -14 -13 2.42 3.63
-3 -11 -13 11.4 11.26
11 -14 13 -4.3 7.32
-11 14 -13 -1.34 1.51
-11 -3 13 2.25 2.76
14 -11 13 -6.74 10.08
-14 3 13 0.57 2.5
-14 11 -13 2.77 5.26
3 -14 -13 -1.72 5.33
14 -3 -13 -8.17 7.78
3 -14 -10 -1.81 4.26
11 3 -10 -2.2 4.46
-14 11 -10 12.83 7.95
14 -3 -10 -1.61 5.01
-3 14 10 1.68 7.38
3 11 10 2.46 5.96
3 -14 -10 -1.37 8.55
-3 -11 -10 10.37 10.4
-11 -3 10 2.67 2.04
11 -14 10 -6.81 8.93
-14 3 10 1.67 2.43
14 -11 10 -8.27 7.52
-11 14 -10 3.45 3.53
11 -14 10 5.98 4.42
14 -11 10 3.27 2.88
-11 14 -10 6.61 4.51
11 3 -7 4.37 6.17
-11 14 -7 3.26 3.2
14 -3 -7 7.03 4.75
11 3 -7 -3.58 5.44
3 11 7 2.73 3.39
-14 11 -7 4.73 4.02
-3 14 7 0.4 1.81
3 11 7 1.53 4.28
3 -14 -7 2.27 5.24
-3 -11 -7 2.63 3.78
-11 -3 7 5.57 4.34
-14 3 7 4.49 4.26
11 -14 7 8.98 6.39
14 -11 7 -4.47 5.24
-11 14 -7 3.21 3.5
11 -14 7 1.47 0.68
14 -11 7 0.27 3.28
-11 -3 4 671.53 42.91
11 3 -4 548.48 42.82
-14 3 4 593.02 43.53
-3 14 4 806.89 48.83
-3 14 4 612.33 59.41
-11 14 -4 458.22 37.15
3 -14 -4 494.35 63.44
3 11 4 697.62 42.23
-3 -11 -4 527.64 68.57
11 -14 4 687.14 45.84
14 -11 4 784.35 44.71
14 -11 4 707.06 38
-11 14 -4 496.33 42.54
11 -14 4 495.48 41.39
14 -11 4 600.28 45.96
-11 14 -4 633.02 36.67
-14 11 -4 572.23 40.18
14 -3 -4 576.98 45.13
-3 14 1 14.53 3.6
14 -3 -1 11.97 5.33
11 3 -1 12.16 6.2
3 11 1 14.34 4.5
3 11 1 28.68 9.19
-11 14 -1 13.7 5.83
-11 -3 1 12.26 6.38
-3 14 1 13.68 7.75
3 -14 -1 14.77 10.75
-14 3 1 18.12 7.24
-11 14 -1 11.57 4.47
-14 11 -1 10.64 6.27
-3 -11 -1 12.31 9.89
11 -14 1 19.96 7.17
14 -11 1 14.47 4.13
-3 14 1 24.45 8.36
14 -11 1 14.5 6.75
11 -14 1 11.33 5.3
14 -11 1 22.17 8.32
11 -14 1 11.4 4.46
3 11 -2 33.4 9.02
-11 14 2 33.66 7.14
14 -3 2 30.07 9.41
11 3 2 32.27 9.34
-11 -3 -2 61.83 15.92
-3 14 -2 34.41 7.57
-3 14 -2 37.55 10.91
-14 3 -2 32.85 10.77
-14 11 2 37.01 6.11
3 -14 2 42.34 16.8
-3 14 -2 42.88 11.41
-3 -11 2 24.26 13.99
-11 14 2 28.97 7.61
-14 11 2 32.95 9.16
-11 14 2 30.26 7.47
14 -11 -2 37.18 10.18
3 11 -2 40.21 11.29
11 -14 -2 32.49 8.13
11 -14 -2 51 13.33
14 -11 -2 31.48 9.07
3 11 -5 5.42 2.7
-11 -3 -5 16.61 9.64
11 3 5 9.77 5.15
14 -11 -5 7.12 4.54
-11 14 5 9.59 4.95
-14 3 -5 7.35 5.02
3 -14 5 7.76 6.44
-3 14 -5 -6.13 9.21
-3 14 -5 10.25 5.65
-3 -11 5 3.83 3.09
3 -14 5 23.6 10.01
14 -11 -5 21.48 8.25
-14 11 5 9.18 4.81
-11 14 5 14.65 6.62
11 -14 -5 13.43 6.35
11 -14 -5 7.71 3.35
14 -3 5 12.83 5.51
-11 14 8 400.61 42.18
11 -14 -8 640.69 48.52
3 11 -8 396.58 39.36
-3 14 -8 372.36 38.65
-3 -11 8 539.67 52.16
-14 11 8 424.56 38.09
-11 14 8 385.03 34.55
-3 -11 8 329.61 35.62
3 -14 8 426.44 45.39
-11 -3 -8 544.09 63.49
14 -3 8 385.37 35.15
-14 3 -8 401.28 40.58
11 3 8 451.27 34.26
14 -11 -8 408.16 32.55
14 -11 -8 524.32 43.21
-14 11 11 2.41 1.8
14 -11 -11 4.9 5.22
-11 14 11 5.99 5.92
3 11 -11 1.59 3.07
14 -11 -11 0.66 1.58
-3 14 -11 2.21 2.21
-11 -3 -11 9.56 12.86
-3 -11 11 2.83 2.59
3 -14 11 8.26 9.05
11 -14 -11 1.93 8.79
-14 11 11 0.5 0.48
-11 14 11 -1.8 5.21
-11 -3 -11 -6.24 7.03
14 -3 11 7.49 5.13
11 3 11 0.87 1.06
-14 3 -11 -0.19 2.23
-14 11 14 4.13 5.42
-11 14 14 0.91 5.44
14 -3 14 10.36 6.79
3 11 -14 14.64 9.99
-3 14 -14 -0.84 2.68
-11 -3 -14 23.46 20.55
-3 -11 14 8.29 7.81
-11 -3 -14 1.98 1.39
-11 14 14 -3.54 5.51
11 3 14 -5.2 5.56
-12 -2 14 76 16.65
14 -12 14 61.53 20.08
-14 2 14 38.33 12.61
-14 12 -14 44.59 15.12
12 2 -11 9.05 5
-14 12 -11 22.3 9.49
14 -2 -11 5.56 3.52
-2 14 11 31.23 15.79
2 12 11 19.41 11.2
2 -14 -11 20.72 16.01
-2 -12 -11 17.28 13.79
-12 -2 11 17.84 7.84
12 -14 11 19.95 10.07
-14 2 11 23.05 9.26
14 -12 11 19.78 10.1
-12 14 -11 23.74 11.05
-14 12 -11 20.01 10.28
12 -14 11 26.15 11.73
14 -12 11 18.32 7.99
-12 14 -11 7.12 4.75
12 2 -8 38.05 11.85
2 12 8 50.78 12.17
-12 14 -8 49.01 13.57
14 -2 -8 45.01 13.36
-14 12 -8 25.73 8.61
12 2 -8 26.76 9.2
-2 14 8 49.17 18.67
2 12 8 37.08 14.78
2 -14 -8 53.04 21.23
-2 -12 -8 32.95 15.76
-12 -2 8 51.47 12.31
-14 2 8 38.07 11.01
12 -14 8 70.92 20.1
14 -12 8 46.95 13.84
-12 14 -8 32.44 11.66
12 -14 8 32.12 11.45
14 -12 8 37.68 12.65
12 2 -5 56.76 14.48
-2 14 5 87.31 16.3
2 12 5 75.72 14.49
-2 14 5 56.76 18.75
2 12 5 63.51 17.83
2 -14 -5 49.46 20.34
-12 -2 5 52.55 11.98
-2 -12 -5 57.42 22.47
-14 2 5 58.92 13.52
12 -14 5 87.37 17.64
14 -12 5 83.51 14.94
-12 14 -5 49.67 13.9
12 -14 5 37.29 11.51
-12 14 -5 59.32 12.18
14 -12 5 55.55 14.27
-14 12 -5 67.94 13.91
14 -2 -5 71.04 16.17
-12 14 -2 189.07 19.94
-14 12 -2 157.56 20.35
-14 2 2 171.36 23.25
-2 14 2 160.36 28.61
2 -14 -2 157.07 34.73
-2 -12 -2 168.13 39.19
-2 14 2 212.6 24.52
14 -12 2 245.31 26.89
2 12 2 229.99 25.64
12 -14 2 187.28 20.65
14 -12 2 221.23 18.57
12 -14 2 228.07 28.33
12 -14 2 160.67 22.35
14 -12 2 159.38 22.27
-12 14 -2 196.67 20.18
-12 -2 2 210.04 25.97
14 -2 -2 186.62 25.58
12 2 -2 164.65 23.1
2 12 -1 113.07 13.48
-14 12 1 105.39 16.78
14 -12 -1 185.03 23.32
-12 14 1 100.98 14.58
-2 14 -1 105.64 19.83
2 -14 1 116.64 28.99
-12 14 1 148.58 16.53
12 -14 -1 159.79 23.36
-2 -12 1 97.01 29.02
-14 12 1 171.62 15.05
-2 14 -1 159.92 21.98
12 -14 -1 96.52 14.97
14 -12 -1 97.62 16.17
2 12 -1 158.26 22.5
-12 -2 -1 147.89 23.05
14 -2 1 119.31 18.98
12 2 1 106.86 17.65
-14 2 -1 114.38 19.29
2 12 -1 127.25 15.94
-2 14 -1 119.01 13.29
2 12 -4 53.83 11.93
-12 14 4 56.13 11.64
14 -12 -4 87.78 16.32
-12 -2 -4 69.09 17.46
-2 14 -4 56.12 11.53
12 -14 -4 98.94 18.57
-14 12 4 63.25 13.01
-12 14 4 66.43 12.62
2 -14 4 57.39 18.82
-2 -12 4 47.83 18.89
12 -14 -4 71.86 11.71
2 12 -4 51.25 10.75
-14 2 -4 71.23 15.98
14 -2 4 72.21 14.71
12 2 4 60.81 12.8
-2 14 -4 85.75 17.16
14 -12 -4 45.36 10.48
-12 14 7 91.22 18.31
-14 2 -7 78.77 17.88
12 -14 -7 113.62 20.61
2 12 -7 70.33 15.95
-2 14 -7 81.73 17.48
2 -14 7 120.04 23.49
-2 -12 7 122.33 26.01
-14 12 7 109.02 18.97
-12 14 7 77.27 14.91
-2 -12 7 74.39 17.08
2 -14 7 91.32 19.88
-12 -2 -7 110.4 25.78
14 -2 7 101.15 18.11
12 2 7 99.37 16.65
14 -12 -7 87.14 14.56
14 -12 -7 142.29 21.39
12 -14 -10 120.02 21.31
-14 12 10 61.36 17.48
-12 14 10 64 18.15
-2 14 -10 83.97 19.67
2 12 -10 80.05 18.9
2 -14 10 81.81 22.21
-2 -12 10 62.84 16.82
-14 12 10 60.68 15.16
-12 14 10 64.08 15.21
14 -2 10 84.67 17.75
12 2 10 77.13 15.3
-12 -2 -10 67.56 20.97
14 -12 -10 85.84 15.1
14 -12 -10 111.39 21.68
-14 2 -10 72.19 18.28
-14 12 13 46.97 15.94
-12 14 13 46.39 17.58
2 12 -13 54.54 17.33
-2 14 -13 47.9 16.46
-12 -2 -13 84.98 38.7
-2 -12 13 17.14 9.52
-12 14 13 31.94 11.93
12 2 13 30.8 10.3
14 -2 13 49.17 14.21
-1 14 12 -10.65 11.33
1 13 12 3.45 5.35
-13 -1 12 8.61 5.4
13 -14 12 3.82 5.03
-14 1 12 6.14 4.23
14 -13 12 1.36 4.71
-13 14 -12 4.56 6.85
13 -14 12 7.3 6.31
14 -13 12 8.53 6.41
-13 14 -12 8.6 5.99
-14 13 -12 4.13 4.14
-13 14 -9 17.46 9.03
-14 13 -9 13.19 6.99
14 -1 -9 5.37 4.81
13 1 -9 9.76 4.77
-1 14 9 4.34 6.38
1 13 9 11.01 9.67
1 -14 -9 1.17 5.47
-1 -13 -9 34.42 18.56
-13 -1 9 9.62 5.13
-14 1 9 3.91 3.48
13 -14 9 11.3 7.61
14 -13 9 11.01 1.98
-13 14 -9 10.32 7.29
-14 13 -9 3.74 2.69
13 -14 9 7.57 6.85
14 -13 9 9.78 5.61
13 1 -9 3.66 2.36
14 -1 -6 216.25 29.6
13 1 -6 204.79 28.97
-13 -1 6 227.88 26.91
-1 14 6 314.85 32.02
-14 1 6 238.54 28.41
1 13 6 307.18 31.02
-1 14 6 191.76 35.41
1 13 6 170.03 31.85
1 -14 -6 232.71 45.91
-1 -13 -6 195.53 42.12
13 -14 6 316.11 35.77
14 -13 6 299.5 31.97
-13 14 -6 188.26 28.95
13 -14 6 207.42 29.49
14 -13 6 215.78 30.42
-13 14 -6 259.85 27.41
-14 13 -6 254.97 27.96
13 -14 3 7.85 5.5
14 -1 -3 7.36 6.35
13 1 -3 10.45 6.96
-1 14 3 4.11 4.34
1 13 3 0.78 1.96
-13 14 -3 3.48 3.11
-14 13 -3 7.53 4.76
-13 -1 3 8.95 5.25
1 -14 -3 0.56 6.08
-14 1 3 3.52 4.47
-1 -13 -3 8.67 6.83
13 -14 3 7.17 4.71
14 -13 3 4.82 2.67
-13 14 -3 -9.83 9.33
-1 14 3 14.28 6.42
1 13 3 6.93 4.17
13 -14 3 0.37 4.32
14 -13 3 0.7 2.01
14 -13 3 3.04 1.74
14 -1 0 56.82 13.21
13 1 0 49.74 12.35
-13 14 0 49.43 10.89
-13 -1 0 61.93 14.82
-1 14 0 42.73 13.47
-14 1 0 50.79 12.98
1 -14 0 42.22 17.94
-1 -13 0 35.8 15.91
-14 13 0 53.73 11.68
-13 14 0 63.7 11.04
-1 14 0 75.48 15.15
1 13 0 77.79 15.41
-14 13 0 68.18 10.53
14 -13 0 63.32 13.72
13 -14 0 55.03 12.16
13 -14 0 85.45 16.98
14 -13 0 40.63 11.15
1 13 0 55.28 9.72
-1 14 0 57.61 9.14
1 13 -3 1.73 1.13
-1 14 -3 -0.61 3.29
14 -1 3 4.74 4.85
13 1 3 -1.21 2.1
-13 -1 -3 -0.7 3.68
-14 1 -3 7.41 5.63
1 -14 3 0.53 4.83
-1 -13 3 2.1 7.73
-13 14 3 4.63 2.92
-14 13 3 7.74 3.53
-14 13 3 6.28 4.07
-13 14 3 5.92 3.7
-1 14 -3 3.13 3.48
14 -13 -3 6.58 4.82
13 -14 -3 8.8 4.64
13 -14 -3 2.28 2.32
14 -13 -3 6.42 4.51
1 13 -3 -4.7 6.27
1 13 -6 16.36 5.88
-13 -1 -6 30.96 13.53
-13 14 6 18.72 7.52
-14 1 -6 22.88 9.04
1 13 -6 28.53 9.54
-1 14 -6 25.31 8.73
1 -14 6 21.84 10.41
-1 -13 6 27 12.02
1 -14 6 40.22 13.62
-14 13 6 26.15 8.27
-13 14 6 36.32 10.49
14 -13 -6 27.48 9.39
13 -14 -6 50.57 13.25
13 -14 -6 21.08 6.53
14 -1 6 23.52 8.27
14 -13 -6 24.8 7.35
13 1 6 21.72 7.68
-14 1 -9 7.52 5.46
14 -13 -9 5.07 3.35
-14 13 9 5.73 5.5
-13 14 9 3.28 5.2
1 13 -9 1.73 2.85
1 -14 9 8.91 7.13
-1 14 -9 6.25 5.15
-1 -13 9 5.1 5.53
-1 -13 9 0.15 2.89
1 -14 9 4.69 6.9
14 -13 -9 5.28 3.18
13 -14 -9 8.09 5.15
-14 13 9 4.8 4.52
-13 14 9 8.56 5.59
14 -1 9 5.45 5.56
13 1 9 3.56 3.79
-13 -1 -9 6.31 7.37
-14 13 12 173.04 31.12
-13 14 12 187.39 32.69
1 13 -12 195.33 31.91
-1 14 -12 225.9 34.81
-13 14 12 131.1 23.92
-1 -13 12 121.25 25.95
-13 -1 -12 185.95 35.74
14 -1 12 205.33 29.34
13 1 12 223.98 29.06
-14 0 13 7.15 6.43
14 -14 13 -2.64 5.95
-14 14 -13 -3.11 6.11
-14 14 -10 16.17 8.6
0 14 10 9.5 8.53
-14 0 10 14.72 7.13
14 -14 10 21.88 9.49
-14 14 -10 25.59 11.35
14 -14 10 12.28 6.93
14 0 -7 9.19 6.43
-14 14 -7 -4.38 4.81
0 14 7 -2.04 6.12
0 14 7 3.26 4.13
0 -14 -7 5.97 6.39
-14 0 7 0.9 1.43
14 -14 7 -3.2 4.62
-14 14 -7 -1.08 1.75
14 -14 7 0.47 3.53
-14 0 4 211.06 26.73
0 14 4 129.6 26.96
0 -14 -4 170.47 40.03
0 14 4 241.8 27.17
14 -14 4 224 24.61
14 -14 4 165.24 25.22
-14 14 -4 174.36 22.16
14 0 -4 200.89 27.89
14 0 -1 1.09 4.48
0 14 1 2.14 4.44
0 14 1 0.93 3.37
-14 0 1 4.51 4.94
0 -14 -1 -4.16 4.31
-14 14 -1 -0.97 2.45
14 -14 1 -2.21 4.09
14 -14 1 -1.81 2.13
-14 14 2 176.04 21.75
14 -14 -2 212.06 27.38
0 -14 2 132.56 32.41
-14 14 2 228.28 19.86
14 -14 -2 164.36 21.15
-14 0 -2 167.05 25.6
14 0 2 163.23 23.28
0 14 -2 246.01 29.77
0 14 -2 153.17 17.9
14 0 5 2.78 3.44
0 14 -5 -4.38 5.08
-14 0 -5 -7.74 8.48
0 -14 5 -0.23 5.14
-14 14 5 -3.73 3.32
14 -14 -5 2.06 3.76
14 -14 -5 2.8 3.68
-14 0 -8 5.15 6.32
-14 14 8 0.75 1.51
0 14 -8 -0.91 2.06
0 -14 8 -0.62 4.1
0 -14 8 10.96 8.04
-14 14 8 11.34 7.05
14 -14 -8 0.88 1.67
14 0 8 1.62 1.99
-14 14 11 -3.39 3.03
0 14 -11 1.52 0.82
-14 14 11 3.21 3.88
14 0 11 5.39 5.79
15 -7 -14 25.32 11.4
-7 15 14 44.42 19.93
-8 15 -14 31.33 13.65
7 -15 -14 51.71 14.65
8 7 -11 7.45 5.78
-15 8 -11 13.75 7.91
15 -7 -11 5.77 5.47
-7 15 11 8.64 7.71
7 8 11 9.18 7.23
-7 -8 -11 9.03 3.55
-8 15 -11 6.03 7.14
8 -15 11 17.36 13.52
-15 7 11 8.41 5.09
15 -8 11 23.26 12.94
7 -15 -11 9.7 5.32
15 -8 11 9.29 5.66
-7 15 8 127.5 26.04
7 8 8 176.07 21.02
-15 7 8 151.57 23.99
-8 -7 8 170.75 32.57
-8 15 -8 109.91 21.51
7 -15 -8 189.74 26.92
-7 -8 -8 154.12 42.17
8 -15 8 174.31 32.84
-7 15 8 118.64 16.31
15 -8 8 190.69 27.25
15 -8 8 143.35 23.79
-15 8 -8 138.63 22.9
8 7 -8 143.27 23.7
15 -7 -8 140.66 23.32
8 7 -5 11.93 6.67
7 8 5 6.87 3.55
15 -7 -5 10.24 6.23
-7 15 5 3.34 4.53
15 -7 -5 2.22 2.85
-15 8 -5 3.28 3.5
-8 15 -5 -4.69 9.61
-7 -8 -5 0.24 6.06
-8 -7 5 1.04 5.53
8 -15 5 6.49 4.89
-15 7 5 12 6.53
-8 15 -5 5.12 4.04
15 -8 5 11.28 4.95
-7 15 5 7.14 3.11
7 8 5 8.37 4.34
15 -8 5 8.37 6.07
15 -8 5 7.08 2.69
7 -15 -5 6.39 4.11
-8 -7 2 46.33 17.26
15 -7 -2 22.11 8.03
7 8 2 23.8 7.11
8 7 -2 19.73 7.18
-7 15 2 20.49 7.25
-8 15 -2 32.87 9.27
-15 8 -2 24.11 9.5
15 -7 -2 20.61 6.68
-7 -8 -2 28.56 17.9
7 8 2 37.19 10.15
-8 -7 2 16.47 13.74
-15 7 2 26.71 9.47
8 -15 2 27.71 9.22
-7 15 2 19.8 4.46
-8 15 -2 11.22 4.63
-7 15 2 23.4 7.82
15 -8 2 26.33 7.15
15 -8 2 22.48 7.77
15 -7 1 7.89 4.75
15 -8 -1 4.09 3.53
8 7 1 8.62 5.41
7 8 -1 0.15 0.29
-7 15 -1 1.38 3.57
-15 7 -1 0.44 0.26
-15 8 1 1.52 0.82
-7 -8 1 4.54 9.33
-8 -7 -1 -3.87 9.95
-8 15 1 1.48 1.45
-7 15 -1 -0.01 0.51
15 -8 -1 9.06 5.06
15 -7 1 3.27 2.78
-8 15 1 0.15 0.93
-7 -8 1 3.54 1.72
8 7 1 2.86 1.57
-8 -7 -1 -2.12 4.8
-7 15 -4 264.9 28.03
-8 15 4 181.37 24.66
-8 15 4 270.42 26.59
7 8 -4 190.83 24.25
-15 8 4 211.31 26.25
15 -7 4 369.7 24.44
-8 15 4 237.44 18.81
-7 15 -4 189.19 23.58
-7 -8 4 212.49 44.73
-8 -7 -4 251.29 55.59
7 -15 4 261.91 30.8
8 -15 -4 298.59 33.93
8 7 4 273.82 25.71
-8 -7 -4 325.67 48.03
15 -7 4 223.21 26.71
15 -8 -4 304.98 29.26
8 7 4 210.18 20.37
15 -8 -4 171.7 22.69
-15 7 -4 221.73 27.87
7 8 -4 241.34 27.6
7 8 -7 0.77 2.87
15 -8 -7 2.69 4.94
-15 7 -7 -2.4 4.45
-8 15 7 -2.56 3.91
15 -8 -7 -0.09 2.15
-7 -8 7 1.06 1.78
-8 -7 -7 7.95 12.3
-7 15 -7 3.79 4.2
7 -15 7 8.57 8.12
-15 8 7 -1.09 4.53
8 7 7 -0.58 0.52
15 -7 7 -2.23 4.43
-8 15 7 2.38 2.01
8 -15 -7 -2.09 4.05
15 -7 7 4.57 4.36
8 7 7 3.76 2.4
7 8 -10 42.21 14.34
-15 7 -10 53.93 15.94
15 -8 -10 33.55 11.78
8 7 10 62.7 12.82
-8 15 10 38.13 15.46
-7 -8 10 50.72 15.54
-8 -7 -10 43.68 23.25
-7 15 -10 32.88 12.46
7 -15 10 41.78 19.07
-15 8 10 41.8 12.63
15 -7 10 91.39 25.55
-8 15 10 28.55 8.84
8 -15 -10 52.53 13.89
15 -7 10 41.19 13.26
15 -8 -13 2.51 1.71
-8 15 13 1.13 4.7
7 8 -13 -2 5.13
-7 15 -13 -0.47 3.45
-7 -8 13 -0.44 2.96
8 -15 -13 6.21 4.01
15 -9 15 96.25 29.05
6 -15 -15 73.49 17.55
-15 9 -12 9.76 7.79
9 6 -12 1.29 5.74
15 -6 -12 1.93 5.63
-6 15 12 7.93 9.77
6 9 12 4.84 5.59
-6 -9 -12 -6.16 13.38
-9 15 -12 -0.02 2.71
9 -15 12 -7.83 10.62
15 -9 12 -1.81 2.12
-15 6 12 3.58 3.91
15 -9 12 0.27 5.78
6 -15 -12 2.8 3.69
9 6 -9 66.64 17.28
6 9 9 101.71 16.64
-15 9 -9 64.25 15.46
15 -6 -9 62.56 16.74
-6 15 9 84.51 22.92
-6 -9 -9 74.59 28.84
-9 -6 9 85.83 21.57
9 -15 9 98.96 27.38
-9 15 -9 55.13 15.53
-15 6 9 68.49 15.91
15 -9 9 84.67 17.94
15 -9 9 73.41 18.19
6 -15 -9 76.65 17.11
-6 15 6 408.02 44.34
-15 6 6 330.55 34.42
6 9 6 529.29 36.01
-6 -9 -6 400.33 66.01
-9 -6 6 553.08 64.01
-9 15 -6 354.05 36.85
-9 15 -6 112.21 21.38
-6 15 6 436.26 26.18
9 -15 6 617.55 53.68
6 -15 -6 537.95 45.91
15 -9 6 629.45 41.61
15 -9 6 446.03 40.73
6 9 6 472.55 26.2
-15 9 -6 432.31 38.45
-9 -6 6 791.39 52.19
9 6 -6 501.54 42.97
15 -6 -6 458.77 41.93
15 -6 -3 50.06 12.82
9 6 -3 48.83 11.88
-6 15 3 74.82 14.24
-6 15 3 51.65 13.37
-15 9 -3 42.41 11.76
-6 -9 -3 46.02 21.53
-9 -6 3 55.43 21.65
9 -15 3 65.32 14.5
-15 6 3 58.78 14.27
6 9 3 71.15 13.88
-9 15 -3 34.06 10.02
15 -9 3 64.39 14.54
15 -9 3 48.49 9.9
-9 -6 3 125.39 24.13
15 -6 -3 72.41 13.56
-9 15 -3 58.17 9.57
-9 15 -3 66.47 13.32
6 9 3 52.62 9.23
15 -9 0 4.55 2.56
15 -6 0 5.58 3.8
-9 -6 0 15.08 11.36
9 6 0 8.98 5.04
6 9 0 6.52 3.91
-15 6 0 7.3 4.83
-9 15 0 7.05 3.48
-15 9 0 2.88 0.95
-6 -9 0 -3.91 9.69
15 -6 0 5.69 3.64
-9 -6 0 4.78 8.98
-9 15 0 2.23 2.57
15 -9 0 12.66 5.53
6 9 0 11.46 6.36
-9 15 0 6.1 4.2
-6 15 0 8.36 6.44
15 -6 3 27.44 9.55
6 9 -3 29.83 9.26
15 -9 -3 24.27 8.01
9 6 3 31.12 8.14
6 9 -3 25.22 8.07
-9 15 3 24.59 7.89
-15 6 -3 33.38 11.48
-9 15 3 34.04 9.01
-6 -9 3 7.26 3.08
-9 -6 -3 11.18 9.96
15 -9 -3 28.98 8.6
-6 15 -3 21.29 7.64
6 -15 3 33.88 11.32
-15 9 3 34.73 10.24
-6 15 -3 35.02 10.35
-9 15 3 20.92 5.63
15 -6 3 37.63 7.63
9 6 3 57.45 13.01
9 -15 -3 26.88 9.93
-9 -6 -3 53.43 23.63
-9 15 6 97.52 20.23
-15 9 6 102.45 18.34
-6 15 -6 28.99 3.24
-6 15 -6 100.68 18.65
9 -15 -6 149.98 23.79
-9 15 6 102.24 14.57
-6 -9 6 120.15 30.37
-9 -6 -6 132.38 42.7
9 6 6 188.85 20.93
6 -15 6 137.08 24.71
15 -6 6 123.3 20.49
-15 6 -6 106.98 19.44
9 6 6 111.87 15.26
-9 -6 -6 139.39 34.54
15 -9 -6 180.65 24.36
15 -9 -6 112.09 18.31
6 9 -6 105.69 19.73
6 9 -9 24.36 10.05
-15 6 -9 18.97 8.46
15 -9 -9 18.76 8.51
-9 15 9 14.21 9.23
15 -9 -9 24.19 9.72
-6 -9 9 14.38 7.22
9 6 9 28.17 7.85
-6 15 -9 17.44 8.34
6 -15 9 33.69 15.7
-15 9 9 23.51 9.63
-9 15 9 10.16 5.05
9 -15 -9 18.85 7.77
15 -6 9 23.59 9.62
9 6 9 17.12 6.43
6 9 -12 137.69 26.82
9 -15 -12 161.72 25.57
-9 15 12 91.33 25.27
9 6 12 115.28 22.88
-6 15 -12 112.61 25.76
-9 -6 -12 129.38 43.4
-6 -9 12 89.58 18.82
6 -15 12 85.85 26.66
-15 6 -12 93.81 21.9
-9 15 12 50.92 13.53
15 -6 12 93.22 21.06
15 -9 -12 86.25 19.44
6 9 -12 117.84 24.42
15 -9 -15 4.67 3.81
-6 -9 15 10.74 7.33
-5 15 13 0.03 6.01
-10 15 -13 -0.71 1.58
15 -10 13 0.9 5.64
5 -15 -13 -1.54 3.01
10 5 -10 1.67 4.23
-15 10 -10 3.72 5.36
15 -5 -10 -0.34 4.73
-5 15 10 6.31 6.46
5 10 10 0.75 3.53
5 -15 -10 -2.53 6.86
-5 -10 -10 4.52 5.76
-10 -5 10 2.23 4.91
10 -15 10 4.82 6.34
-10 15 -10 3.11 2.41
-15 5 10 0.32 2.5
15 -10 10 -6.77 8.41
15 -10 10 -2.41 7.04
5 -15 -10 -3.19 4.84
10 5 -7 8.31 6.55
5 -15 -7 10.6 5.76
15 -5 -7 8.37 6.65
10 5 -7 -2.52 7.58
-15 10 -7 11.76 6.86
-5 15 7 4.03 3.66
5 -15 -7 1.06 1.06
-10 -5 7 12.5 6.02
-5 -10 -7 1.82 3.72
-10 -5 7 9.42 8.73
5 10 7 6.37 3.67
10 -15 7 17.37 11.79
-15 5 7 3.86 1.31
-10 15 -7 7.3 5.56
15 -10 7 11.71 5.03
15 -10 7 8.57 7.04
10 5 -4 232.42 28.06
-5 15 4 251.12 34.53
-5 15 4 346.36 32.45
-15 5 4 283.52 31.45
-10 15 -4 245.37 26.99
5 -15 -4 216.26 41.65
-5 -10 -4 230.73 49.36
5 10 4 360.91 30.67
15 -10 4 341.98 28.36
-10 15 -4 170.28 24.63
10 -15 4 281.74 31.25
15 -10 4 405.83 26.25
15 -10 4 244.16 28.9
-10 15 -4 197.16 19.76
5 10 4 246.51 17.81
-10 -5 4 427.54 40.16
-15 10 -4 231.48 27.26
15 -5 -4 294.33 33.15
15 -5 -1 1.78 2.09
5 10 1 4.29 3.1
10 5 -1 0.18 1.22
-10 -5 1 -3.06 5.77
-10 15 -1 4.67 4.38
-5 15 1 -2.39 2.45
15 -5 -1 4.2 3.46
5 -15 -1 -1.62 4.9
-10 15 -1 1.1 2.19
-15 10 -1 -0.64 2.45
-15 5 1 -0.98 3.55
5 10 1 1.97 2.37
-5 -10 -1 -0.97 4.22
-10 15 -1 2.17 2.49
15 -10 1 2.92 2.81
10 -15 1 -2.1 2.42
-5 15 1 0.59 2.46
15 -10 1 -0.81 3.16
15 -5 2 97.61 12
10 5 2 52.88 11.02
15 -10 -2 75.67 14.13
5 10 -2 62.14 12.17
10 5 2 54.84 11.42
-15 10 2 70.22 14.98
-10 15 2 66.28 10.5
-10 15 2 77.63 13.1
5 10 -2 71.24 16.08
-5 -10 2 55.35 23.71
-10 -5 -2 66.36 28.07
-10 15 2 38.96 9.6
-5 15 -2 101.34 17.74
-10 -5 -2 140.34 32.23
15 -10 -2 65.23 13.3
15 -5 2 60.33 13.67
10 -15 -2 90.28 18.56
-15 5 -2 77.22 16.37
5 10 -2 79.27 14.82
5 10 -5 16.38 6.74
10 5 5 25.28 7.46
15 -10 -5 17.45 6.88
-10 15 5 23.5 8.83
-15 5 -5 27.91 10.58
-5 15 -5 0.63 7.32
10 5 5 49.46 11.05
-5 -10 5 15.2 11.43
-5 15 -5 15.96 6.69
15 -10 -5 22.6 8.73
-10 -5 -5 18.73 15.27
5 -15 5 31.15 11.36
-15 10 5 22.76 7.96
-10 15 5 26.71 7.46
10 -15 -5 35.63 11.67
-10 -5 -5 49.3 21.59
15 -5 5 21.77 7.71
5 10 -8 54.03 14.53
15 -10 -8 38.84 10.61
-15 5 -8 36.4 11.69
-10 15 8 40.18 14.77
15 -10 -8 64.63 15.78
10 5 8 59.18 11.42
-5 -10 8 51.21 15.87
-10 -5 -8 55.08 29.77
-5 15 -8 29.36 10.18
5 -15 8 54.99 17.63
-15 10 8 42.32 12.45
-10 15 8 37.6 10.28
10 -15 -8 65.1 15.71
-10 -5 -8 49.64 18.95
15 -5 8 37.72 11.98
10 5 8 43.84 10.5
-15 5 -11 52.27 16.11
5 10 -11 75.17 19.51
15 -10 -11 49.74 14.27
-10 15 11 58.2 18.86
5 10 -11 43.8 14.23
15 -10 -11 79.34 20.62
-10 -5 -11 66.23 32.62
-5 15 -11 56.39 17.51
-5 -10 11 43.56 13.27
5 -15 11 54.97 21.07
-15 10 11 48.65 13.73
10 -15 -11 64.42 16.03
-10 15 11 35.11 11.43
15 -5 11 67.95 17.36
10 5 11 51.24 11.96
15 -10 -14 65.23 17.03
-10 15 14 71.06 24.16
-5 15 -14 48.94 17.21
-5 -10 14 42.38 14.42
-10 15 14 35.09 12.83
4 -15 -14 148.68 26.57
15 -11 14 114.59 26.5
11 4 -11 13.2 8.58
-15 11 -11 9.54 8.22
15 -4 -11 4.16 1.39
-4 15 11 0.14 1.98
4 11 11 9.58 5.93
4 -15 -11 9.92 10.25
-4 -11 -11 -0.66 7.44
11 -15 11 16.8 12.01
-11 15 -11 13.81 8.59
-15 4 11 15.46 7.34
15 -11 11 12.79 7.26
-15 11 -11 12.41 7.47
15 -11 11 9.36 6.88
4 -15 -11 13.74 8.2
11 4 -8 4.15 4
15 -4 -8 8.63 6.98
-15 11 -8 3.44 3.3
11 4 -8 0.18 4.92
4 11 8 4.42 3.59
-4 15 8 0.24 2.18
4 11 8 11.86 8.16
4 -15 -8 8.43 6.47
-4 -11 -8 10.5 9.81
-11 -4 8 5.7 4.53
11 -15 8 10.37 8.73
-15 4 8 4.38 4.09
15 -11 8 -1.51 5.25
-11 15 -8 7.18 5.56
15 -11 8 0.84 0.96
11 4 -5 80.19 16.88
-4 15 5 130.33 20.25
-4 15 5 100.46 23.95
-15 4 5 141.2 22.61
4 11 5 132.82 18.75
4 -15 -5 84.37 27.57
-4 -11 -5 111.98 32.81
11 -15 5 127.72 22.65
-11 15 -5 92.47 18.72
15 -11 5 131.74 17.28
15 -11 5 150.6 19.24
11 -15 5 95 18.89
-11 15 -5 10.6 13.14
15 -11 5 98.45 19.89
-11 15 -5 90.82 14.28
-15 11 -5 105.66 18.39
15 -4 -5 113.14 21.44
-11 -4 5 126.55 20.28
-15 11 -2 258.18 27.46
-15 4 2 273.05 30.69
-4 15 2 268.42 35.36
4 -15 -2 211.54 41.13
15 -11 2 321.06 28.96
-4 -11 -2 224.33 48.07
-4 15 2 302.37 29.68
11 -15 2 247.34 25.92
-11 15 -2 191.94 24.98
4 11 2 373.83 32.87
11 -15 2 255.6 28.29
15 -11 2 202.4 25.57
-11 15 -2 278 26.12
-11 -4 2 356.59 37.91
15 -4 -2 232.72 28.26
-11 15 -2 245.26 22.02
11 4 -2 224.39 26.9
4 11 -1 253 22.25
15 -11 -1 314.84 29.91
-15 11 1 212.16 24.76
-11 15 1 229.34 20.68
4 -15 1 208.29 37.77
-4 -11 1 175.92 41.13
-11 15 1 297.32 25.25
11 -15 -1 353.36 37.61
-11 15 1 145.64 19.38
-4 15 -1 328.06 31.5
11 -15 -1 246.89 24.54
-11 -4 -1 373.82 44.88
15 -11 -1 157.41 21.15
15 -4 1 240.22 27.66
15 -4 1 257.89 20.37
11 4 1 215.09 24.68
4 11 -1 260.62 25.2
-15 4 -1 219.01 27.67
4 11 -1 331.97 32.92
15 -4 4 49.14 12.66
4 11 -4 47.44 12.02
-11 -4 -4 94.49 26
15 -11 -4 42.81 10.68
-11 15 4 65.22 12.55
-15 4 -4 62.01 15.17
-4 -11 4 29.41 16.7
11 4 4 74.65 14.16
4 -15 4 75.86 17.56
-15 11 4 56.1 12.95
15 -11 -4 63.95 13.68
-11 15 4 45.3 9.53
11 -15 -4 82.63 17.73
-4 15 -4 66.02 15.29
11 4 4 61.1 12.53
-11 15 7 173.08 26.4
11 -15 -7 261.1 32.08
-4 15 -7 183.75 26.25
-15 11 7 175.09 24.61
-4 -11 7 208.02 35.74
-11 15 7 185.41 22.15
-11 -4 -7 249.12 68.9
4 -15 7 180.17 29.12
-11 -4 -7 281.45 50.71
15 -4 7 179.65 24.88
-15 4 -7 160.47 25.78
11 4 7 167.08 20.97
15 -11 -7 157.39 21.15
15 -11 -7 221.6 28.01
4 11 -7 164.78 24.79
4 11 -10 41.43 12.99
-15 4 -10 35.18 13.08
15 -11 -10 35.26 10.58
-11 15 10 39 14.48
4 11 -10 34.55 12.27
15 -11 -10 63.35 16.63
-4 15 -10 28.55 10.92
-11 -4 -10 74.84 38.78
-4 -11 10 24.99 10.25
4 -15 10 53.73 19.46
-15 11 10 32.03 11.34
11 -15 -10 73.11 17.85
-11 15 10 40.02 11.58
15 -4 10 51.97 14.41
11 4 10 37.68 10.3
-15 11 13 42.47 14.8
15 -11 -13 55.56 15.48
-11 15 13 65.5 21.65
15 -4 13 79.47 17.16
4 11 -13 67.59 20.06
-4 15 -13 47.13 16.36
-4 -11 13 35.19 12.75
-11 15 13 21.48 8.72
11 4 13 41.1 11.47
-3 15 12 124.14 31.66
-15 3 12 107.99 22.23
15 -12 12 140.83 28.43
3 -15 -12 121.49 23.93
12 -15 12 116.11 30.02
-12 15 -12 83.2 20.42
-15 12 -12 82.01 20.37
12 3 -9 0.7 3.61
3 12 9 1.6 1.19
-15 12 -9 -1.57 4.31
15 -3 -9 5.19 4.34
12 3 -9 -3.61 7.58
-3 15 9 1.76 6.76
3 12 9 0.6 4.83
3 -15 -9 6.9 11.28
-3 -12 -9 12.77 10.62
-12 -3 9 8.54 5.8
-15 3 9 4.95 2.19
12 -15 9 9.52 7.93
15 -12 9 -1.34 4.79
-12 15 -9 3.72 3.77
12 -15 9 9.29 5.67
15 -12 9 1.38 5.99
-12 15 -9 4.65 3.68
15 -3 -6 39.01 13.07
12 3 -6 23.49 7.72
-12 15 -6 32.21 8.87
-15 12 -6 32.98 10.23
-3 15 6 49.34 13.09
-3 15 6 39.91 16.18
3 12 6 35.55 14.07
3 -15 -6 52.62 22.12
-12 -3 6 42.5 11.32
-3 -12 -6 33.86 17.41
-15 3 6 39.57 12.45
3 12 6 36.84 10.21
12 -15 6 52.47 15.4
15 -12 6 43.57 11.12
-12 15 -6 20.59 8.91
12 -15 6 41.67 13.19
15 -12 6 37.04 12.16
-12 15 -3 -0.77 3.51
15 -3 -3 12.71 8.29
12 3 -3 0.67 3.1
-3 15 3 2.4 4.39
-12 15 -3 6.8 4.53
-12 -3 3 1.71 4.29
-15 12 -3 3.74 4.04
3 -15 -3 -0.99 3.77
-3 -12 -3 0.36 5.93
-15 3 3 2.19 3.36
12 -15 3 6.27 5.25
15 -12 3 1.77 1.04
-3 15 3 2.05 2.62
-12 15 -3 -0.67 1.73
12 -15 3 -1.73 3.98
3 12 3 0.95 3.02
15 -12 3 4.76 5.45
15 -12 3 3.39 2.84
-12 15 0 77.39 12.58
-15 12 0 76.67 14.76
-3 15 0 87.21 19.62
15 -12 0 113.29 18.26
3 -15 0 59.73 21.3
-3 -12 0 82.75 27.76
12 -15 0 125.04 22.37
-12 15 0 118.76 16.2
-3 15 0 133.65 21.08
12 -15 0 77.83 14.59
3 12 0 125.44 20.16
15 -12 0 77.14 15.38
15 -3 0 137.46 16.07
-12 -3 0 110.29 21.6
15 -3 0 88.82 17.31
12 3 0 102 18.35
-15 3 0 110.46 19.73
3 12 -3 29.12 9.13
15 -3 3 22.68 9.28
12 3 3 25.72 8.58
-12 -3 -3 38.9 14.97
-15 3 -3 20.66 8.63
3 -15 3 28.63 13.69
-3 -12 3 21.53 13.82
3 12 -3 13.82 5.61
-12 15 3 25.61 7.34
-15 12 3 20.75 7.98
-12 15 3 24.36 7.32
-3 15 -3 42.92 11.91
15 -12 -3 35.33 10.77
12 -15 -3 44.53 13.25
15 -12 -3 21.25 7.35
15 -12 -6 164.69 23.66
-12 15 6 120.63 19.65
12 -15 -6 196.51 27.89
-3 15 -6 145.34 22.05
-15 12 6 165.86 23.55
-3 -12 6 135.97 29.45
-12 15 6 149.29 19.63
3 -15 6 137.63 24.84
-12 -3 -6 175.44 34.79
-15 3 -6 120.94 22.13
15 -3 6 150.94 22.72
12 3 6 117.74 18.04
15 -12 -6 121.8 17.96
3 12 -6 135.16 21.43
3 12 -9 58.67 16.04
-15 3 -9 66.32 17.88
-12 15 9 51.19 15.22
12 -15 -9 96.05 20.36
3 12 -9 53.5 15.49
-3 15 -9 65.9 16.57
-12 15 9 71.34 15.99
-12 -3 -9 124.33 56.62
15 -12 -9 72.22 16.72
-3 -12 9 50.01 14.69
3 -15 9 57 17.33
-15 12 9 54.79 14.26
12 3 9 64.03 13.85
-12 -3 -9 63.97 23.43
15 -12 -9 62.45 13.54
15 -3 9 57.49 14.66
-15 12 12 -3.7 6.82
-12 15 12 17.87 10.82
3 12 -12 11.94 8.05
-3 15 -12 2.35 2.39
-3 -12 12 4.63 2.42
-12 15 12 -0.08 4.21
12 3 12 11.45 5.99
15 -13 13 -0.35 5.34
-15 13 -10 28.65 11.75
-2 15 10 22.33 13.62
2 13 10 17.81 9.12
-13 -2 10 35.01 10.4
-15 2 10 25.73 9.97
13 -15 10 37.52 14.79
15 -13 10 41.43 14.26
-13 15 -10 33.25 12.62
-15 13 -10 50.29 16.82
13 -15 10 36.41 13.08
15 -13 10 32.64 13.65
-13 15 -10 44.06 13.34
-13 15 -7 21.49 7.6
15 -2 -7 25.24 10.77
13 2 -7 28.62 10.4
-15 13 -7 27.78 9.87
-2 15 7 52.28 12.99
-2 15 7 29.96 14.44
2 13 7 32.16 14.41
2 -15 -7 37.14 17.88
-2 -13 -7 30.34 16.92
-13 -2 7 35.07 10.89
2 13 7 45.86 11.95
-15 2 7 49.13 13.33
13 -15 7 50.03 16.42
15 -13 7 46.26 12.7
-13 15 -7 21.63 9.82
13 -15 7 26.42 10.7
15 -13 7 27.45 10.59
13 2 -4 82.1 17.74
-15 2 4 116.32 20.56
-2 15 4 87.13 23.27
-2 15 4 116.02 19.29
2 -15 -4 66.96 24.98
2 13 4 104.8 17.64
-2 -13 -4 59.19 24.39
-13 15 -4 -1.51 14.83
13 -15 4 86.7 16.25
15 -13 4 113.18 15.86
15 -13 4 113.06 18.54
-13 15 -4 53.25 14.41
13 -15 4 64.45 15.34
15 -13 4 67.71 16.71
-13 15 -4 76.89 14.02
-15 13 -4 96.75 17.53
15 -2 -4 103.63 20.89
-13 -2 4 86.2 17.48
-13 15 -1 100.93 15.36
-15 13 -1 103.37 17.11
-2 15 1 96.18 21.91
15 -13 1 121.68 20.05
2 -15 -1 96.13 28.77
-2 -13 -1 88.61 29.18
-2 15 1 139.38 21.82
13 -15 1 118.32 21.19
2 13 1 149.21 21.97
13 -15 1 83.7 16.08
15 -13 1 93.01 17.48
-13 15 -1 119.86 16.52
-13 -2 1 121.49 21.29
15 -2 -1 109.6 19.77
13 2 -1 103.65 19.31
-15 2 1 126.57 21.23
2 13 -2 132.18 22.13
-13 -2 -2 88.31 19.87
-15 13 2 82.92 15.58
15 -13 -2 120.45 20.12
-13 15 2 79.97 13.76
-15 2 -2 63.99 15.66
-13 15 2 86.16 13.2
13 -15 -2 97.81 19.45
2 -15 2 76.81 25.07
-2 -13 2 76.59 26.23
13 -15 -2 81.44 13.9
15 -13 -2 77.31 14.95
-2 15 -2 119.91 20.91
15 -2 2 104.76 18.74
13 2 2 72.1 14.9
2 13 -2 94.51 15.11
-13 -2 -5 102.89 24.87
-13 15 5 119.56 16.44
15 -13 -5 117.13 19.84
13 -15 -5 146.99 24.2
-15 13 5 108.88 18.61
-13 15 5 105.71 16.87
2 -15 5 93.6 23.88
-2 -13 5 95.89 25.93
-15 2 -5 108.29 21.31
15 -13 -5 88.4 15.09
-2 15 -5 60.04 14.64
15 -2 5 98.46 18.2
13 2 5 98.76 17.27
2 13 -5 75.34 14.69
15 -13 -8 91.19 18.68
2 13 -8 49.82 13.78
-15 2 -8 63.45 18.4
-13 15 8 58.03 15.04
13 -15 -8 94.52 20.03
2 13 -8 46.65 13.49
-2 -13 8 76.6 19.93
2 -15 8 64.29 18.41
-15 13 8 49.64 13.7
-13 15 8 48.42 13.06
15 -2 8 66.32 15.47
13 2 8 58.42 14.21
15 -13 -8 56.08 12.12
-13 -2 -8 90.93 25.52
-15 13 11 24.83 10.36
-13 15 11 34.33 13.57
2 13 -11 37.73 13.44
-2 15 -11 36.31 13.39
-2 -13 11 23.16 10.53
-13 15 11 26.27 10.28
-13 -2 -11 31.45 12.61
13 2 11 31.46 10.23
-1 15 11 64.88 23.11
-14 -1 11 67.75 16.01
-15 1 11 71.04 16.91
14 -15 11 66.94 20.74
15 -14 11 88.43 23.23
-15 14 -11 66.15 17.78
-1 15 8 100.76 18.69
-15 14 -8 66.61 15.66
1 14 8 109.07 19.66
-1 15 8 71.41 23.55
1 14 8 61.22 20.45
-14 -1 8 65.64 15.16
-15 1 8 64.53 15.85
15 -14 8 102.35 20.86
14 -15 8 109.94 23.53
-14 15 -8 59.69 17.41
-15 14 -8 84.95 21.53
14 -15 8 71.76 18.48
-14 15 -8 86.35 17.87
15 -14 8 61.26 17.95
-14 -1 5 110.9 19.43
-15 1 5 122.36 21.38
-1 15 5 104.3 25.82
1 14 5 76.94 21.58
-1 15 5 156.83 23.03
1 14 5 158.53 22.77
1 -15 -5 100.32 31.27
-1 -14 -5 88.68 30.45
14 -15 5 153.26 22.45
15 -14 5 150.32 20.79
-14 15 -5 80.68 18.73
14 1 -5 111.66 21.92
14 -15 5 99.01 20.37
15 -14 5 125.57 23.31
-14 15 -5 116.31 18.74
-15 14 -5 126.47 20.14
15 -1 -5 123.02 23.2
14 -15 2 9.77 3.14
1 14 2 25.45 10.36
15 -1 -2 12.46 7.7
14 1 -2 17.24 9.31
-1 15 2 15.91 9.69
1 14 2 9.65 6.74
-14 -1 2 20.26 9.28
-14 15 -2 19.97 7.58
-15 1 2 20.23 8.32
-15 14 -2 11.17 5.81
1 -15 -2 4.04 1.67
-1 -14 -2 27.25 17.47
14 -15 2 16.41 6.19
14 -15 2 4.1 1.15
15 -14 2 11.3 6.29
-1 15 2 36.13 11.53
15 -14 2 25.12 9.52
-15 14 1 106.97 17.83
-14 15 1 119.48 17.79
-1 15 -1 98.88 20.51
15 -14 -1 124.38 20.84
1 -15 1 110.93 30.8
-1 -14 1 89.06 28.3
14 -15 -1 179.79 26.33
-14 15 1 150.44 17.82
14 -15 -1 100.06 16.76
15 -14 -1 100.09 17.71
-1 15 -1 187.46 26.32
-14 -1 -1 147.4 24.87
1 14 -1 149.43 23.58
-15 1 -1 115.97 21.24
15 -1 1 110.05 19.78
14 1 1 122.95 20.33
1 14 -1 121.07 15.69
15 -14 -4 158.5 24.7
-14 15 4 150.5 17.99
-15 14 4 104.76 17.79
-14 15 4 131.44 19.14
14 -15 -4 167.29 25.39
-1 15 -4 139.36 25.82
1 -15 4 98.54 26.47
-1 -14 4 93.44 25.76
15 -14 -4 111.15 17.32
-14 -1 -4 117.52 23.39
-15 1 -4 112.98 22.25
1 14 -4 75.3 18.01
15 -1 4 136.1 21.59
14 1 4 117.21 19.58
1 14 -4 113.36 17.34
-1 15 -4 104.24 16.2
-14 -1 -7 57.45 17.91
1 14 -7 41.88 11.57
-15 1 -7 60.82 18.15
-14 15 7 64.51 14.95
1 -15 7 74.95 20.14
-1 -14 7 62.77 19.06
-15 14 7 48.13 12.53
15 -14 -7 76.26 17.14
14 -15 -7 74.63 17.58
15 -1 7 58.91 14.27
14 1 7 47.94 12.53
-15 14 10 46.06 14.76
-14 15 10 50.04 15.67
1 14 -10 51.18 15.23
-14 15 10 52.83 14.39
14 1 10 53.39 13.81
-14 -1 -10 55.15 19.5
-15 15 -9 0.34 4.21
0 15 9 -3.19 3.85
-15 0 9 -0.16 0.87
15 -15 9 -2.16 7.01
-15 15 -9 -5.26 4.4
15 -15 9 2.44 2.08
-15 0 6 126.19 21.87
0 15 6 113.79 27.89
0 15 6 218.73 27.84
15 -15 6 208.78 27.55
-15 15 -6 148 27.54
15 -15 6 122.12 24.12
-15 15 -6 186.86 25.41
15 0 -3 4.71 4.61
0 15 3 -1.34 4.08
-15 15 -3 3.24 3.92
-15 0 3 1.57 3.92
0 -15 -3 -1.37 6.94
15 -15 3 -1.77 4.79
0 15 3 0.92 5.29
15 0 0 16.55 7.47
-15 0 0 22.78 10.08
0 15 0 13.84 8.47
0 -15 0 17.43 13.18
0 15 0 48.81 14.27
-15 15 0 21.28 7.7
15 -15 0 19.27 7.47
15 -15 0 26.73 9.54
15 0 3 3.87 5.06
0 15 -3 -8.95 8.01
-15 0 -3 1.17 1.2
0 -15 3 -5.18 5.95
-15 15 3 0.11 2.16
15 -15 -3 -0.63 3.43
15 -15 -3 -1.53 1.84
0 15 -6 26.7 9.06
-15 0 -6 48.82 16.64
0 -15 6 62.61 20.27
-15 15 6 34.44 10.51
15 -15 -6 60.69 16.18
15 0 6 41.79 12.37
16 -8 0 1006.58 47.25
-16 8 0 1138.02 62.97
-8 -8 0 1013.87 111.74
8 8 0 1107.28 73.87
-8 16 0 1306.1 60.96
16 -8 0 1066.87 58.99
8 8 0 1124.62 53.73
8 -16 -3 12.9 5.14
16 -8 -3 3.77 0.67
8 8 3 6.5 3.29
8 8 -3 4.05 1.76
-16 8 -3 8.27 6.33
16 -8 -3 3.18 2.28
-8 -8 -3 5.02 7.22
-8 -8 3 12.65 9.61
-16 8 3 5.36 5.22
8 8 3 11.6 6.61
8 -16 3 12.19 7.96
-8 16 3 11.06 5.47
-8 16 -3 8.33 4.99
16 -8 3 9.44 4.42
16 -8 3 5.04 3.11
8 8 -3 13.64 7.48
-8 16 6 125.46 23.54
-16 8 6 138.62 22.82
-8 16 -6 83.56 17.35
-8 -8 6 135.74 33.04
-8 -8 -6 125.82 40.52
8 8 6 187.75 22.64
8 -16 -6 174.79 27.11
8 -16 6 157.48 28.18
16 -8 6 161.3 24.76
8 8 6 130.02 15.67
-16 8 -6 145.78 23.91
16 -8 -6 162.98 24.06
-8 16 -6 25.91 9.45
16 -8 -6 97.99 18.85
8 8 -6 122.6 21.59
8 8 -9 0.69 2.86
16 -8 -9 6.48 6.56
-16 8 -9 -1.64 3.78
-8 16 9 -6.61 7.69
-8 -8 9 -5.93 5.87
-8 -8 -9 -6.94 12.54
8 8 9 -0.07 0.4
-8 16 -9 4.77 4.61
8 -16 9 3.33 7.71
-16 8 9 -0.61 5.41
-8 16 9 -0.6 3.38
8 -16 -9 -2.17 3.69
16 -8 9 5.43 6.88
8 8 12 482.58 39.78
-8 16 12 360.62 51.72
-8 16 -12 341.67 43.03
-8 16 12 177.58 25.97
16 -8 -12 263.18 36.51
-7 16 13 -1.91 4.89
-9 16 -13 4.46 4.15
-7 16 10 122.26 28.74
7 9 10 159.49 22.56
7 9 10 128.16 25.06
-16 7 10 105.55 21.6
7 -16 -10 136.67 23.79
-7 -9 -10 114.65 38.48
9 -16 10 139.43 34.68
-9 16 -10 75.53 18.98
-16 9 -10 116.06 23.97
9 7 -10 124.91 24.62
16 -7 -10 105.01 22.59
9 7 -7 11.14 7.21
16 -7 -7 21.13 9.81
-16 9 -7 8.69 6.41
-7 16 7 7.56 6.69
-7 -9 -7 21.82 15.2
-9 -7 7 12.24 10.1
9 -16 7 31.73 15.01
-16 7 7 7.1 2.55
-9 16 -7 1.54 1.16
7 9 7 9.86 4.91
16 -9 7 9.34 6.87
7 -16 -7 6.18 6.3
7 9 4 12.96 4.62
-9 16 -4 10.49 5.5
16 -7 -4 5.69 3.33
9 7 -4 4.08 2.75
7 9 4 19.28 7.94
-16 9 -4 16.61 8.94
16 -7 -4 12.49 6
-7 -9 -4 12.42 14.26
-9 -7 4 15.07 11.45
-7 16 4 13.81 5.95
-16 7 4 11.56 6.3
9 -16 4 14.04 6.57
-9 16 -4 7.49 4.76
16 -9 4 16.88 5.28
16 -9 4 17.11 7.86
9 7 -4 11.05 6.87
-9 -7 1 53.31 19.64
16 -7 -1 33.37 10.42
7 9 1 33.62 8.96
9 7 -1 28.58 9.12
-9 16 -1 44.33 11.16
-16 9 -1 30.18 10.5
-16 7 1 30.28 10.62
-7 -9 -1 21.76 16.39
-9 -7 1 32.93 19.97
16 -7 -1 37 9.29
7 9 1 40.18 11.39
16 -9 1 44.8 10.28
-7 16 1 32.05 9.58
16 -9 1 28.6 9.75
7 9 -2 192.03 22.84
16 -7 2 307.99 24.7
-16 9 2 170.67 24.25
9 7 2 331.52 34.62
-9 16 2 219.52 23.99
-7 -9 2 211.51 50.65
-9 -7 -2 158.49 45.13
9 -16 -2 260.23 32.9
-9 -7 -2 399.03 61.45
-7 16 -2 267.44 28.46
16 -7 2 180.89 24.39
7 9 -2 29.8 16.01
16 -9 -2 193.44 24.52
9 7 2 194.72 21.88
-16 7 -2 204.7 28.01
16 -9 -2 234.65 25.13
7 9 -5 21.01 8.37
9 7 5 16.34 5.84
16 -9 -5 12.59 6.25
-9 16 5 21.16 7.45
-16 7 -5 14.54 7.2
9 7 5 32.91 9.8
16 -9 -5 18.92 7.1
-7 -9 5 16.17 11.18
-9 -7 -5 17.01 14.88
-7 16 -5 6.72 5.97
7 -16 5 27.2 11.72
-16 9 5 13.85 6.39
-9 16 5 19.46 6.12
9 -16 -5 16.47 6.58
16 -7 5 26.55 10.79
7 9 -8 38.32 13.17
16 -9 -8 46.82 13.45
-16 7 -8 44.13 13.42
-9 16 8 43.87 14.82
16 -9 -8 72 17.18
9 7 8 65.95 13.32
-7 -9 8 68.73 20.37
-9 -7 -8 43.56 27.48
-9 16 8 53.11 11.44
-7 16 -8 41.15 13.15
7 -16 8 60.32 19.26
-16 9 8 39.72 11.86
9 7 8 47.23 10.05
9 -16 -8 71.2 17.01
16 -7 8 57.04 15.62
16 -9 -11 6.08 5.91
-9 16 11 3.68 4.63
16 -9 -11 -2.09 8.09
-7 16 -11 6.91 6.53
-9 16 11 -1.65 5.88
9 -16 -11 -0.34 1.89
-9 16 14 16.34 10.97
6 10 11 15.43 6.76
-6 16 11 11.73 10.89
-10 16 -11 11.04 7.02
6 -16 -11 18.22 8.45
-6 16 8 172.51 32.01
6 10 8 201.9 24.11
-16 6 8 153.36 24.79
-10 -6 8 172.95 32.72
-10 16 -8 116.69 21.62
-6 -10 -8 145.31 41.76
10 -16 8 223.18 38.44
6 -16 -8 194.86 29.39
16 -10 8 181.9 29.55
-16 10 -8 152.12 24.25
10 6 -8 174.82 27.51
16 -6 -8 156.79 26.98
16 -10 5 12.83 4.38
-10 16 -5 -10.02 13.05
16 -6 -5 14.64 8.21
10 6 -5 12.78 5.48
-6 16 5 9.99 6.49
-16 10 -5 6.58 5.06
-6 16 5 15.83 6.59
-6 -10 -5 7.04 7.5
-10 -6 5 10.92 10.35
-16 6 5 10.45 6.35
10 -16 5 18.97 9.32
-10 16 -5 9.24 5.4
6 10 5 15.64 6.43
16 -10 5 12.14 7.89
10 6 -5 19.86 8.87
16 -6 -2 2.81 1.9
6 10 2 4.41 3.25
10 6 -2 5.74 3.73
-10 -6 2 19.84 8.86
16 -6 -2 5.13 3.01
-16 10 -2 5.4 4.96
6 10 2 12.89 7.52
-16 6 2 6.77 4.71
-6 -10 -2 12.26 10.97
-10 -6 2 5.99 3.74
-10 16 -2 10.01 5.59
-10 16 -2 6.61 2.88
-6 16 2 10.91 5.34
16 -10 2 11.4 5.38
16 -10 2 8.25 5.81
16 -10 -1 2.36 3.88
-10 -6 -1 6.37 10.81
16 -6 1 3.03 3.36
10 -16 -1 3.31 1.14
10 6 1 2.66 3.82
6 10 -1 3.7 3.64
-6 16 -1 2.54 4.35
-16 6 -1 3.45 5.33
6 10 -1 -7.77 9.42
-6 -10 1 7.6 8.71
-16 10 1 3.38 4.54
-10 16 1 -0.59 0.61
-10 -6 -1 -3.05 5.77
16 -6 1 3.65 2.74
16 -10 -1 -0.35 1.45
-10 16 1 1.25 2.5
-6 16 -4 302.97 33.92
6 10 -4 176.59 23.5
-10 16 4 270.07 26.9
-16 10 4 234.56 28.32
-10 16 4 207.66 19.65
-6 -10 4 213.67 44.81
10 -16 -4 290.59 35.28
-10 -6 -4 194.16 52.77
6 -16 4 230.91 30.65
16 -6 4 198.66 26.42
-16 6 -4 221.83 29.01
16 -10 -4 198.91 24.94
10 6 4 270.92 25.92
6 10 -4 260.37 29.51
16 -10 -4 230.48 26.28
6 10 -7 3.68 4.59
16 -10 -7 4.55 2.28
-16 6 -7 -1.2 5.52
16 -10 -7 8.78 4.5
-6 -10 7 21.86 12.9
-10 -6 -7 12.15 15.87
-6 16 -7 2.47 2.74
6 -16 7 14.38 9.47
-16 10 7 3.84 2.21
-10 16 7 8.04 4.84
10 -16 -7 6.27 3.72
16 -6 7 8.79 5.97
10 6 7 2.56 2.53
6 10 -10 5.41 3.81
16 -10 -10 11.15 7
-10 16 10 10.16 8.62
16 -10 -10 10.77 7.67
-6 16 -10 -2.19 5.77
-10 16 10 8.53 4.49
10 -16 -10 11.93 8.25
16 -10 -13 3.86 4.33
-10 16 13 0.46 3.17
-6 16 -13 -3.67 8.76
-6 -10 13 7.8 5.47
-10 16 13 -0.31 5
-5 16 12 324.26 50.99
-11 16 -12 277.9 36.71
5 -16 -12 344.35 40.22
11 5 -9 15.46 6.79
5 -16 -9 22.29 8.66
-16 11 -9 13.71 6.41
16 -5 -9 25.12 12.1
11 5 -9 2.82 2.75
-5 16 9 22.9 13.64
5 11 9 34.19 14.1
5 11 9 30.76 9.98
-11 -5 9 25.03 11.61
11 -16 9 26.49 14.33
-16 5 9 20.3 8.93
-11 16 -9 16.4 8.36
16 -11 9 19.21 9.39
16 -5 -6 23.3 11.11
11 5 -6 10.23 5.53
-16 11 -6 9.89 5.45
-5 16 6 20.19 7.06
-5 16 6 17.55 9.79
5 -16 -6 10.47 11.22
-5 -11 -6 19.9 11.82
-11 -5 6 15.01 10.77
-16 5 6 16.26 8.03
11 -16 6 38.39 13.07
-11 16 -6 9.4 5.98
5 11 6 22.57 7.76
16 -11 6 13.71 7.19
11 5 -6 15.01 7.72
16 -5 -3 56.36 14.32
11 5 -3 52.57 14.41
5 11 3 67.58 14.25
16 -5 -3 35.25 9.77
-11 -5 3 79.63 19.35
-16 11 -3 56.81 14.29
5 -16 -3 38.64 17.86
-5 -11 -3 64.87 26.17
-16 5 3 48.61 13.77
-11 -5 3 54.32 21.78
11 -16 3 70.01 15.11
-11 16 -3 33.49 10.6
-5 16 3 63.8 14.11
-11 16 -3 55.09 12.44
16 -11 3 61.38 12.61
16 -11 3 57.57 14.41
-16 5 0 357.51 36.38
-11 16 0 354.75 25.8
-16 11 0 283.49 30.76
16 -11 0 615.6 42.49
5 -16 0 311.14 47.88
-5 -11 0 331.77 62.09
-11 -5 0 229.67 48.02
-11 16 0 528.14 36.61
-5 16 0 530.14 41.64
11 -16 0 598.73 50.77
-11 -5 0 683.21 69.98
16 -11 0 290.89 30.3
16 -5 0 360.46 35.37
16 -5 0 480.98 30.73
11 5 0 387.31 35.72
5 11 0 521.57 42.63
5 11 0 367.46 27.16
5 11 -3 24.26 9.28
16 -5 3 29.61 10.15
16 -11 -3 15.32 6.66
11 5 3 21.44 7.64
5 11 -3 19.84 6.68
-16 5 -3 28.61 10.7
-5 -11 3 14.06 10.01
-11 -5 -3 9.51 5.65
-16 11 3 29.15 10.22
-11 16 3 31.92 8.68
-11 16 3 15.19 5.22
-5 16 -3 27.76 10.05
16 -11 -3 28.41 9.05
11 -16 -3 35.41 12.74
-11 -5 -3 30.6 15.41
5 11 -6 -0.75 2.6
16 -11 -6 0.59 1.62
-16 5 -6 3.84 3.6
-5 -11 6 6.6 6.35
-11 -5 -6 -5.3 2.58
16 -11 -6 3.64 3.2
5 -16 6 9.27 8.37
-16 11 6 0.14 4.09
-11 16 6 5.33 4.17
11 -16 -6 8 6.07
-11 -5 -6 2.89 5.9
16 -5 6 12.09 7.53
11 5 6 1.85 2.11
5 11 -9 -0.31 1.45
-16 5 -9 -1.58 4.48
16 -11 -9 1.83 0.21
-11 16 9 4.89 5.72
16 -11 -9 -8.65 6.52
-5 16 -9 0.07 5.43
-16 11 9 -2.9 5.08
-11 16 9 4.77 4.93
11 -16 -9 4.2 4.94
16 -5 9 1.83 4.42
11 5 9 1.47 2.81
-11 16 12 122.19 28.55
5 11 -12 144.39 27.84
-5 16 -12 128.45 27.5
-5 -11 12 84.84 20.21
-11 16 12 81.35 18.34
16 -11 -12 116.19 22.31
4 12 10 133.63 21.42
-4 16 10 124.43 30.17
-16 4 10 138.41 24.64
-12 16 -10 91.94 20.65
12 -16 10 165.41 35.35
-16 12 -10 132.66 25.24
16 -4 -7 12.75 8.67
12 4 -7 -1.32 5.72
-4 16 7 10.42 5.21
-16 12 -7 6.81 5.15
-4 16 7 12.61 9.55
4 12 7 11.51 8.76
4 -16 -7 3.49 2.6
-12 -4 7 11.51 6.52
-4 -12 -7 5.78 6.7
-16 4 7 10.9 8.15
12 -16 7 15.08 9.53
4 12 7 10.54 5.4
-12 16 -7 6.03 5.28
16 -12 7 1.26 2.59
16 -4 -4 50.16 14.59
12 4 -4 46.62 13.8
-12 16 -4 58.3 11.72
-4 16 4 52.6 17.59
-12 -4 4 72.07 17.53
-16 12 -4 66.48 15.3
4 -16 -4 34.93 17.54
-4 -12 -4 42.92 20.47
-16 4 4 51.47 13.96
12 -16 4 60.38 14.5
16 -12 4 80.62 15.07
-4 16 4 58.94 13.94
-12 16 -4 34.82 11.05
12 -16 4 51.43 13.81
-12 16 -4 19.35 5.42
16 -12 4 44.46 13.1
4 12 4 69.2 14.7
16 -4 -1 16.43 7.35
12 4 -1 12.82 7.12
-12 -4 1 22.61 10.53
16 -4 -1 13.04 4.87
-12 16 -1 22.91 7.06
4 -16 -1 14.22 11.72
-16 4 1 22.12 9.34
-12 16 -1 30.12 8.92
-16 12 -1 14.42 6.89
-4 -12 -1 17.34 12.8
4 12 1 28.62 10.48
-12 16 -1 7.72 4.91
12 -16 1 18.01 7.39
16 -12 1 23.86 7.9
16 -12 1 15.8 8.18
-4 16 1 26.92 10.05
4 12 -2 39.8 10.9
16 -4 2 33.97 10.71
-12 -4 -2 66.28 21.94
12 4 2 30.02 9.63
-16 4 -2 43.5 12.82
4 12 -2 20.35 7.33
4 -16 2 46.56 19.26
-4 -12 2 40.84 19.17
-16 12 2 37.34 10.82
-12 16 2 36.27 8.81
-4 16 -2 60.26 14.86
-12 16 2 34.3 8.91
16 -12 -2 59.27 13.99
12 -16 -2 50.67 14.3
16 -12 -2 32.62 9.8
16 -12 -5 90.68 17.76
-12 16 5 81.22 14.36
-16 4 -5 78.2 18.1
-16 12 5 81.87 16.67
-12 16 5 66.98 12.78
12 -16 -5 104.57 20.96
-4 -12 5 71.78 23.62
-12 -4 -5 89.16 39.5
-4 16 -5 40.52 9.84
16 -12 -5 61.63 13.35
12 4 5 78.64 15.15
4 12 -5 65.35 15.24
-12 -4 -5 112.74 32.29
16 -4 5 49.52 13.39
12 -16 -8 159.05 26.22
-16 12 8 99.22 19.71
-4 -12 8 154.22 29.68
-12 16 8 92.89 16.85
-12 -4 -8 163.82 60.38
4 -16 8 111.46 25.32
16 -4 8 124.26 21.7
-16 4 -8 113.27 22.57
12 4 8 100.4 17.1
16 -12 -8 104.45 18.21
-12 -4 -8 181.1 43.56
16 -12 -8 167.9 26.16
4 12 -8 96.48 20.25
16 -12 -11 52.71 13.55
-12 16 11 49.85 17.24
4 12 -11 49.56 15.36
-4 -12 11 28.58 11.63
-12 16 11 26.87 11.01
12 4 11 56.83 13.99
-3 16 11 -10.23 11.69
-13 16 -11 7.44 7.17
-13 -3 8 230.41 29.06
-3 16 8 200.89 38.58
-16 3 8 215.23 30.31
3 13 8 215.87 38.75
3 13 8 297.55 31.99
-13 16 -8 200.43 30.87
13 -16 8 324.75 44.03
13 -16 8 258.29 34.69
16 -13 8 204.14 32.86
-16 13 -8 184.93 27.02
16 -3 -5 73.75 18.88
13 3 -5 51.62 14.9
-13 16 -5 62.09 12.98
-16 13 -5 51.94 13.58
-3 16 5 56.44 19.38
3 13 5 43.83 15.8
-13 -3 5 61.69 15.34
3 -16 -5 45.97 20.96
-3 -13 -5 46.15 20.95
-16 3 5 46.87 13.92
13 -16 5 57.33 14.84
-3 16 5 70.23 15.52
-13 16 -5 37.05 12.24
3 13 5 61.06 13.76
13 -16 5 39.44 12.06
16 -13 5 49.61 14.86
16 -3 -2 5.37 0.61
13 3 -2 6.54 5.91
-13 -3 2 13.13 8.44
3 13 2 9.71 6.39
-13 16 -2 9.08 4.96
-16 13 -2 4.82 4.73
-16 3 2 4.58 5.94
3 -16 -2 -0.5 7.69
-3 -13 -2 4.91 7.4
-13 16 -2 3.86 4.71
-13 16 -2 8.48 5.24
13 -16 2 0.35 1.88
-3 16 2 7.4 6.32
16 -13 2 8.67 5.83
16 -13 2 9.34 6.24
3 13 -1 81.4 17.69
16 -3 1 45.29 13.07
13 3 1 66.39 15.01
-13 16 1 68.36 12.65
-13 -3 -1 69.74 19.34
16 -13 -1 78.7 16.24
-16 3 -1 66.19 16.31
3 -16 1 50.82 20.04
-3 -13 1 47.14 22.11
-16 13 1 47.86 13.09
-13 16 1 82.16 14.21
-3 16 -1 95.32 18.9
16 -13 -1 48.69 12.47
13 -16 -1 93.97 20.12
16 -13 -4 216.49 27.83
-16 13 4 163.04 23.69
-13 16 4 168.48 20.09
-13 16 4 160.81 20.25
-3 16 -4 208.87 31.65
3 -16 4 162.34 33.08
13 -16 -4 250.27 32.89
-3 -13 4 120 32.13
-13 -3 -4 213.78 39.85
16 -13 -4 141.68 20.62
-16 3 -4 135.24 24.33
16 -3 4 176.54 25.27
13 3 4 169.3 23
3 13 -4 143.66 20.98
16 -13 -7 9.11 5.29
3 13 -7 4 3.44
-16 3 -7 -0.23 5.3
-3 -13 7 9.69 9.22
-16 13 7 8.55 3.9
16 -13 -7 18.54 8.79
-13 16 7 16.69 8.2
13 -16 -7 15.91 7.97
-13 -3 -7 6.83 3.1
16 -3 7 13.76 9.03
13 3 7 11.47 5.92
3 13 -10 4.03 2.29
3 13 -10 5.52 3.8
-13 16 10 13.16 7.24
-13 -3 -10 6.35 5.2
13 3 10 16.45 7.54
-16 14 -9 14.44 6.64
-2 16 9 -6.75 9.48
-14 -2 9 4.84 4.39
-16 2 9 5.03 3.36
14 -16 9 6.37 8.27
-14 16 -9 11.02 6.47
14 -16 9 9.84 7.11
14 2 -6 1.58 4.17
-14 16 -6 7.14 4.89
-16 14 -6 2.6 2.87
-2 16 6 7.56 7.77
2 14 6 0.54 1.14
-14 -2 6 3.28 4.07
-16 2 6 0.56 3.77
14 -16 6 7.21 6.38
2 14 6 4.08 4.31
-14 16 -6 2.02 1.37
14 -16 6 10.09 6.64
16 -14 6 -5.7 6.83
16 -14 3 2.81 2.22
2 14 3 6.78 6.75
16 -2 -3 -0.28 2.7
14 2 -3 4.29 7.41
-14 16 -3 -0.36 3.21
-2 16 3 2.36 3.77
-14 -2 3 9.82 7.47
2 14 3 1.62 5.08
-16 14 -3 4.85 5.02
-16 2 3 4.51 3.92
2 -16 -3 5.25 8.79
-2 -14 -3 0.76 4.74
14 -16 3 8.34 5.56
-14 16 -3 -1.46 4.41
14 -16 3 2 1.71
-2 16 3 5.92 5.04
16 -14 3 2.95 2.97
-14 16 0 238.01 24.89
-16 14 0 241.03 27.6
2 -16 0 188.86 41.87
-2 -14 0 238.67 49.87
16 -14 0 299.9 32.75
14 -16 0 356.86 39.07
-2 16 0 367.11 37.31
14 -16 0 213.96 26.05
16 -14 0 227.48 28.49
2 14 0 360.63 36.5
-14 -2 0 269.3 35.78
16 -2 0 237.96 30.34
-16 2 0 286.3 34.55
14 2 0 260.62 30.8
2 14 -3 3.11 2.98
16 -2 3 7.56 4.91
14 2 3 1.32 1.92
-14 -2 -3 1.1 2
-16 2 -3 -3.15 4.55
2 -16 3 -3.17 1.84
-2 -14 3 1.85 2.61
-16 14 3 2.93 3.32
-14 16 3 -2.78 4.05
-14 16 3 2.14 3.38
16 -14 -3 -0.19 4.09
14 -16 -3 1.9 2.51
-2 16 -3 3.21 3.01
16 -14 -3 3.55 4
-14 -2 -6 6.77 8.97
2 14 -6 1.11 1.58
-16 2 -6 2.8 10.45
-14 16 6 -3.56 3.78
2 -16 6 2.97 5.82
-2 -14 6 4.51 1.96
-16 14 6 -0.64 4.33
-14 16 6 -0.16 2.64
16 -14 -6 6.11 5.44
16 -14 -6 -1.95 3.39
16 -2 6 2.97 4.49
14 2 6 3.17 4.69
2 14 -9 -1.75 4.18
-14 16 9 8.21 6.03
-14 -2 -9 9.59 10.72
14 2 9 4.44 3.84
-15 16 -7 -1.98 5.82
-16 15 -7 0.48 2.38
-1 16 7 -5.52 8.48
1 15 7 -14.29 10.29
-15 -1 7 0.01 4.01
-16 1 7 2.33 3.03
15 -16 7 4.52 6.13
-15 16 -7 -0.57 4.21
-16 15 -7 1.85 4.28
15 -16 7 0.62 3.3
16 -15 7 -1.49 5.26
-15 16 -4 65.95 14.54
-16 15 -4 50.02 13.22
-1 16 4 61.03 20.27
1 15 4 36.82 14.44
-15 -1 4 68.37 17.16
-16 1 4 66.14 16.68
-15 16 -4 35.21 12.18
15 -16 4 58.72 15.54
16 -15 4 59.36 16.28
16 -1 -1 -4.76 6.33
15 1 -1 -5.68 7.4
-15 -1 1 2.66 4.62
-16 1 1 4.85 5.29
-1 16 1 8.14 6.92
1 15 1 0.2 3.3
-15 16 -1 1.5 3.94
-16 15 -1 9.04 6.33
1 15 1 6.17 6.73
1 -16 -1 -2.53 5.31
-1 -15 -1 -0.24 1.31
15 -16 1 -4.68 5.99
16 -15 1 -3.92 3.91
16 -15 1 -2.11 3.68
15 -16 1 -3.15 6.03
16 -1 2 40.85 12.56
15 1 2 35.42 11.11
-15 -1 -2 49.5 15.81
-16 1 -2 41.44 13.6
1 -16 2 46.46 19.52
-1 -15 2 39.63 19.7
-16 15 2 50.55 12.96
-15 16 2 56.86 12.7
16 -15 -2 55.4 14.56
15 -16 -2 68.32 16.9
16 -15 -2 46.72 12.11
1 15 -2 76.8 18.82
15 1 5 0.52 2.98
-15 -1 -5 6.43 9.58
-16 1 -5 -3.95 5.55
1 -16 5 2.12 4.13
-1 -15 5 0.37 2.45
-16 15 5 -0.67 1.41
-15 16 5 -4.29 4.56
1 15 -8 22.74 9.49
-15 16 8 37.98 11.64
-16 0 8 94.96 20.73
0 16 8 113.28 30.74
-16 16 -5 -3.5 4.07
0 16 5 -6.48 3.92
-16 0 5 6.64 6.18
-16 16 -5 -4.15 6.85
16 -16 5 -0.44 1.84
16 -16 2 -1.36 3.59
-16 0 2 4.38 4.73
-16 16 -2 4.71 3.73
16 -16 2 -0.67 3.95
-16 0 -1 -2.25 3.19
0 -16 1 2.26 5.3
-16 16 1 -1.8 1.92
16 -16 -1 -6.85 6.03
-16 16 4 243.69 29.02
0 -16 4 217.33 42.27
-16 0 -4 234.09 35.94
-9 17 -11 -0.8 1.8
8 9 8 137.93 20.5
-9 -8 8 111.09 27.49
9 -17 8 172.53 35.14
8 -17 -8 135.18 24.82
17 -8 -8 182.81 29.74
17 -8 -8 103.54 21.84
9 8 -8 91.99 20.96
8 -17 -5 4.18 2.85
17 -8 -5 8.69 5.16
9 8 -5 0.9 0.71
-17 9 -5 9.58 6.23
8 9 5 22.18 9.07
17 -8 -5 9.24 4.56
-8 17 5 14.23 7.11
-8 -9 -5 6.88 8.07
-9 -8 5 14.6 10.95
-17 8 5 15.7 8.62
9 -17 5 20.42 11.41
17 -9 5 17.12 8.48
-9 17 -5 -13.7 14.01
9 8 -5 10.66 7.52
9 8 -2 102.79 18.36
8 9 2 193.23 27.4
-17 8 2 123.1 22.28
17 -9 2 160.12 19.23
-8 17 2 150.52 21.18
-8 -9 -2 103.93 37.92
-9 -8 2 108.94 34.71
-9 17 -2 158.67 22.81
17 -9 2 134.87 21.95
17 -8 -2 104.92 19.15
8 9 2 121.62 16.73
-17 9 -2 125.65 22.51
17 -8 -2 141.42 19.89
17 -8 1 9.93 6.42
17 -9 -1 8.99 6.35
9 8 1 6.06 3.82
8 9 -1 7.06 4.18
-8 17 -1 8.3 5.89
-17 8 -1 13.66 8.16
-17 9 1 5.2 4.48
-8 -9 1 -6.62 15.2
-9 -8 -1 7.26 11.23
17 -9 -1 8.88 4.6
17 -8 1 7.53 4.21
-9 17 1 7.42 6.52
9 -17 -4 3.12 3.01
9 8 4 2.98 3.2
17 -9 -4 -0.3 2.35
-8 17 -4 -3.04 6.61
8 9 -4 -3.05 5.77
-17 8 -4 4.23 5.87
-8 -9 4 -2.03 8.72
-9 -8 -4 0.9 6.42
17 -9 -4 -1.76 3.31
-17 9 4 2.53 4.47
8 -17 4 10.16 7.83
-9 17 4 4.34 2.74
9 8 4 15.09 8.12
17 -8 4 5.75 4.38
8 9 -4 5.52 4.96
8 9 -7 0.48 2.59
9 8 7 10.47 6.19
17 -9 -7 -0.73 1.5
17 -9 -7 -3.24 6.01
-8 -9 7 -3.71 6.68
8 -17 7 -0.96 2.33
9 -17 -7 -1.89 1.87
17 -9 -10 201.71 31.88
-10 17 -9 10.1 7.58
7 10 9 6.9 5.1
7 -17 -9 -2.18 6.05
10 7 -6 51.82 15.29
17 -7 -6 40.27 12.73
10 7 -6 27.01 9.32
-17 10 -6 49.88 14.44
17 -7 -6 67.21 16.15
-7 17 6 50.64 13.27
-7 -10 -6 86.99 35.18
-10 -7 6 64.73 21.92
-17 7 6 60.85 15.94
10 -17 6 61.13 18.42
17 -10 6 51.91 15.33
7 10 6 64.13 14.45
17 -7 -3 23.89 9.72
10 7 -3 25.72 9.93
-17 10 -3 33.69 11.63
17 -7 -3 42.46 11.35
-7 -10 -3 32.88 22.34
-17 7 3 38.5 13.08
-10 -7 3 45.92 21.2
7 10 3 53.54 13.6
-7 17 3 40.88 11.4
-10 17 -3 35.83 11.52
17 -10 3 32.52 8.79
17 -10 3 38.58 12.19
-17 7 0 106.64 20.47
17 -7 0 135.15 17.14
-17 10 0 97.3 18.88
17 -10 0 138.23 19.74
7 10 0 89.92 19.08
-7 -10 0 72.05 32.43
-10 -7 0 73.62 28.24
-10 17 0 94.84 16.73
-7 17 0 106.84 19
17 -10 0 80.58 16.55
17 -7 0 86.2 17.79
10 7 0 82.63 16.37
7 10 0 88.85 14.87
17 -10 -3 78.64 15.29
7 10 -3 79.84 15.16
-17 10 3 90.37 18.49
-10 17 3 112.11 17.84
10 7 3 103.38 19.66
-7 -10 3 75.19 29.07
-10 -7 -3 67.21 30.2
10 -17 -3 109.24 22.18
17 -7 3 88.01 18.05
17 -10 -3 77.24 16.06
10 7 3 85.44 14.79
-17 7 -3 102.99 21.28
7 10 -3 83.85 17.48
-7 17 -3 112.54 20.48
7 10 -6 65.22 16.61
17 -10 -6 67.43 15.53
-10 17 6 64.03 13.83
-17 7 -6 77.56 18.68
-7 17 -6 -3.35 17.96
-7 -10 6 67.43 22.77
-10 -7 -6 67.31 33.25
7 -17 6 85.21 22.25
-17 10 6 50.68 13.77
10 7 6 65.21 12.54
10 -17 -6 80.25 19.17
17 -10 -6 90.12 18.25
17 -7 6 51.1 13.72
17 -10 -9 158.65 28.05
17 -10 -9 87.8 19.32
-6 17 10 29.41 14.88
6 11 10 31.74 10.69
-11 17 -10 18.76 8.79
11 6 -7 3.78 4.45
-17 11 -7 2.66 2.28
-11 -6 7 -0.52 2.88
11 -17 7 12.35 9.19
-11 17 -7 8.69 5.71
6 11 7 8.2 4.42
17 -11 7 2.37 1.8
11 6 -4 107.67 20.48
-17 6 4 130.64 23.86
-6 17 4 161.9 23.37
-6 -11 -4 132.43 41.03
-11 -6 4 115.65 32.12
11 -17 4 164.95 26.14
17 -11 4 132.43 18.62
-11 17 -4 66.87 15.84
6 11 4 152.56 22.39
17 -11 4 140.59 23.53
17 -6 -4 148.46 22.28
-17 11 -4 99.71 19.55
17 -6 -4 146.64 24.82
17 -6 -1 22.59 9.53
11 6 -1 27.47 10.23
-17 11 -1 36.14 11.87
-17 6 1 32.98 11.76
-11 17 -1 37.9 10.79
-6 -11 -1 23.94 14.15
-11 -6 1 29.97 17.8
6 11 1 50.46 13.89
17 -11 1 34.48 9.76
17 -11 1 27.58 9.98
-6 17 1 41.67 12.72
17 -6 2 5.75 4.23
11 -17 -2 6.87 3.49
11 6 2 11.52 5.79
6 11 -2 7.64 4.15
-17 6 -2 12.48 8.12
-6 -11 2 15.64 13.67
-17 11 2 7.13 4.93
-11 -6 -2 -2.92 11.09
-6 17 -2 16.75 8.22
17 -11 -2 18.71 7.83
-11 17 2 10.33 5.9
-11 -6 -2 28.3 17.2
17 -11 -2 12.84 6.39
6 11 -5 26.24 10.25
11 6 5 24.46 8.16
17 -11 -5 21.18 8.02
-17 6 -5 20.57 9.39
-11 17 5 33.9 9.95
-6 -11 5 29.09 15.74
-11 -6 -5 15.31 7.43
6 -17 5 44.65 15.22
-17 11 5 25.52 9.42
17 -11 -5 32.6 10.87
-6 17 -5 2.67 10.93
11 -17 -5 24.66 9.41
17 -6 5 31.54 12.13
-11 17 8 115.81 17.75
17 -11 -8 99.11 19.35
6 11 -8 96.64 21.04
17 -11 -11 11.54 6.6
-12 17 -11 3.65 4.65
-12 -5 8 19.52 11.35
12 -17 8 31.13 14.31
-12 17 -8 18.71 8.75
5 12 8 14.02 6.81
17 -5 -5 6.57 10.91
12 5 -5 -0.46 4.79
-17 12 -5 1.01 2.31
5 -17 -5 3.53 6.73
-5 -12 -5 4.57 8.69
-17 5 5 6.69 5.67
-12 -5 5 3.64 4.38
12 -17 5 13.84 7.76
-5 17 5 7.52 5.92
-12 17 -5 0.38 1.3
17 -12 5 5.34 4.7
5 12 5 9.69 6.07
-17 5 2 160.93 25.59
5 -17 -2 115.5 32.26
17 -12 2 228.09 26.39
-12 -5 2 135.01 35.44
-5 -12 -2 154.51 43.38
-5 17 2 252.77 30.53
5 12 2 237.13 29.15
17 -12 2 156.07 23.72
17 -5 -2 151.31 24.8
-12 17 -2 213.62 25.36
12 5 -2 165.94 25.23
-17 12 -2 170.94 24.99
-12 17 1 15.02 7.18
12 -17 -1 4.26 3.15
17 -5 1 8.1 5.79
-12 -5 -1 22.03 18.62
12 5 1 2.57 2.3
5 12 -1 -5.34 8.76
-17 5 -1 10.83 8.04
-5 17 -1 20.83 9.41
-17 12 1 7.09 4.21
-5 -12 1 -2.31 9.64
-12 -5 -1 -3.07 5.68
17 -12 -1 9.94 5.82
17 -12 -1 8.35 6.21
17 -12 -4 10.04 5.64
5 12 -4 12.61 7.08
12 5 4 8.52 5.43
-5 17 -4 11.17 7.21
-17 5 -4 12.94 6
-5 -12 4 6.25 7.78
-12 -5 -4 12.97 11.12
-17 12 4 4.65 4.01
-12 17 4 14.14 5.93
-12 17 4 11.47 4.65
17 -12 -4 15.42 7.85
12 -17 -4 17.57 9.53
-12 -5 -4 6.4 8.81
17 -5 4 10.99 5.48
5 12 -7 4.82 2.54
17 -12 -7 14.63 6.37
-5 -12 7 7.89 6.24
17 -12 -7 21.96 8.62
-12 17 7 12.22 5.57
-12 -5 -7 11.81 2.37
12 5 7 9.72 5.23
17 -12 -10 66.51 16
-12 17 10 49.72 13.58
-4 17 9 40.55 16.77
-13 -4 9 39.68 15.6
13 -17 9 56.3 19.12
-13 17 -9 30.22 11.83
-17 13 -6 24.1 9.49
4 13 6 29.72 15.07
-17 4 6 21.38 9.74
13 -17 6 30.72 11.94
-13 17 -6 11.22 7.01
13 -17 6 20.79 9.7
4 13 6 35.25 11.24
17 -13 6 21.88 10.31
13 4 -3 52.01 14.5
-13 -4 3 72.46 20.1
4 13 3 70.27 16.15
-17 13 -3 50.41 13.89
4 -17 -3 36.74 18.17
-17 4 3 55.96 15.64
-13 17 -3 21.56 7.53
-4 -13 -3 40.75 21.86
17 -13 3 45.87 14.18
17 -13 3 58.02 13.43
-17 13 0 126.7 21.23
17 -13 0 129.36 20.6
4 -17 0 86.74 27.3
-4 -13 0 70.99 28.98
13 -17 0 152.83 26.59
-4 17 0 138.26 23.01
-13 17 0 119.84 18.06
17 -13 0 93.46 18.23
-13 -4 0 154.9 32.89
17 -4 0 111.92 21.19
13 4 0 114.93 20.59
-17 4 0 120.66 23.87
4 13 0 140.19 23.79
4 13 -3 22.26 8.73
-13 -4 -3 38.67 19.5
13 4 3 19.39 7.89
-17 4 -3 20.6 10.48
-4 -13 3 18.12 13.46
-17 13 3 19.49 7.9
-13 17 3 12.43 5.24
-13 17 3 18.29 6.71
17 -13 -3 18.7 8.73
-4 17 -3 27.9 11.03
13 -17 -3 23.39 9.85
17 -13 -3 11.92 6.27
17 -13 -6 45.33 11.83
4 13 -6 33.73 11.42
-13 17 6 49.95 11.95
-4 -13 6 46.64 17.36
-13 17 6 32.88 9.43
17 -13 -6 51.39 13.58
-13 -4 -6 62.25 28.99
13 4 6 45.36 11.99
-13 17 9 10.94 7.15
13 4 9 -0.54 2
14 -17 7 19.78 9.71
-14 17 -7 6.22 5.95
14 -17 7 17.18 9.7
3 14 4 34.25 11.59
-17 14 -4 20.63 8.47
-14 -3 4 19.48 9.23
3 14 4 21.74 11.72
-17 3 4 20.49 8.41
14 -17 4 28.76 10.48
-14 17 -4 17.07 7.54
17 -14 4 22.38 9.19
14 3 -1 24.54 10.56
-14 -3 1 20.99 11.04
-17 3 1 17.88 8.67
-14 17 -1 20.31 7.86
-17 14 -1 24.67 9.95
3 -17 -1 4.12 4.26
-3 -14 -1 22.46 17.34
3 14 1 31.5 11.4
17 -14 1 22.25 8.49
17 -14 1 12.58 6.85
14 3 2 54.94 13.78
-14 -3 -2 66.34 21.49
-17 3 -2 55.29 15.91
3 -17 2 38.05 17.72
3 14 -2 33.57 10.6
-3 -14 2 44.65 21.73
-17 14 2 72.39 16.29
-14 17 2 44.98 11.16
17 -14 -2 62.24 15.44
17 -14 -2 39.06 11.64
14 3 5 16.03 7.27
3 14 -5 8.83 6.32
-3 -14 5 11.23 8.19
-14 17 5 9.48 5.15
-14 17 5 6.9 3.35
17 -14 -5 12.9 5.99
17 -14 -5 10.03 5.24
-14 -3 -5 1.08 9.08
3 14 -8 73.67 18.05
-14 17 8 58.23 14.04
14 3 8 101.4 18.82
-17 15 -5 85.09 18.03
2 15 5 79.49 23.63
-15 17 -5 77.04 18.86
15 -17 5 94.06 20.37
17 -15 5 84.79 20.64
-15 -2 5 116.51 23.86
2 15 2 99.32 24.73
17 -15 2 202.71 28.23
17 -15 2 100.18 21.02
-15 -2 2 177.83 30.17
-15 17 -2 137.25 20.47
-17 2 2 163.7 28.25
-17 15 -2 141.95 22.83
-15 17 1 109.13 17.66
-17 15 1 117.81 20.61
17 -15 -1 151.12 24.38
2 -17 1 70.2 25.72
-2 -15 1 84.88 30.97
17 -15 -1 118.7 21.08
-15 -2 -1 139.25 28.62
-17 2 -1 137.02 26.09
-15 -2 -4 2.79 5.34
2 -17 4 3.7 6.07
-2 -15 4 4.82 3.14
-15 17 4 -2.13 2.13
-15 17 7 60.03 15.19
-16 17 -3 16.31 8.76
-16 -1 3 8.83 7.23
-17 16 -3 7.39 4.81
17 -16 3 9.5 6.41
-16 -1 0 27.9 11.53
-16 17 0 31.72 9.94
-17 16 0 24.25 9.18
17 -16 0 25.94 9.95
-16 -1 -3 -9.69 11.45
1 -17 3 -2.13 6.67
-1 -16 3 -0.37 4.89
-16 17 3 7.65 5.48
18 -9 0 66.45 15.95
-9 -9 0 62.78 27.72
-9 18 0 117.3 20.43
9 9 0 97.15 17.4
9 9 3 96.97 20.52
18 -9 -3 46.85 13.41
9 9 -3 53.02 13.78
-9 18 3 69.77 15.2
-9 -9 3 64.88 26.82
-9 18 -3 63.08 15.26
18 -9 -3 92.85 16.68
9 9 -6 23.53 8.91
-9 -9 6 31.64 15.97
8 10 7 13.51 7.55
10 8 -7 13.01 6.65
18 -8 -7 6.56 2.08
-10 -8 7 1.64 6.4
10 8 -4 113.12 21.34
-10 18 -4 91.61 19.76
-10 -8 4 114.15 33.21
8 10 4 165.24 24.81
18 -8 -4 111.44 19.35
18 -8 -1 -3.03 4.45
-8 18 1 15.42 8.78
10 8 -1 6.86 6.74
-10 18 -1 5.1 6.9
-8 -10 -1 3 4.75
-10 -8 1 3.78 7.62
8 10 1 -7.09 8.82
18 -10 1 0.72 3.75
18 -10 -2 9.06 7.05
10 8 2 2.09 2.67
8 10 -2 1.71 2.17
-8 -10 2 -1.86 11.67
-10 -8 -2 2.99 1.9
-8 18 -2 19.57 8.96
18 -10 -2 7.14 5.34
-10 18 2 -0.07 2.09
18 -10 -5 11.99 6.16
8 10 -5 1.66 3.16
-8 -10 5 7.44 7.29
18 -10 -5 11.2 6.47
-10 18 5 11.62 5.98
8 10 -5 4.04 4.68
18 -7 -8 22.19 9.82
-11 -7 8 38.81 16.91
7 11 8 30.42 9.48
11 7 -5 -1.89 3.65
7 11 5 14.34 8.1
18 -7 -5 -4.96 3.98
-11 -7 5 6.04 6.01
11 -18 5 8.15 8.19
7 11 2 86.09 18.89
11 7 -2 65.25 15.84
-7 -11 -2 47.12 27.45
-11 -7 2 50.39 24.41
-11 18 -2 91.38 17.92
18 -11 2 66.21 16.43
11 7 1 15.56 6.55
-11 18 1 25.1 9.19
-7 -11 1 12.02 8.01
-7 18 -1 20.49 8.68
-11 -7 -1 1.21 6.96
18 -11 -1 24.35 8.97
18 -11 -1 7.11 5.42
18 -11 -4 66.18 15.93
11 7 4 62.04 13.25
18 -11 -4 87.42 17.62
7 11 -4 49.93 12.89
-7 -11 4 45.16 22.33
-11 18 4 65.74 14.16
7 11 -4 67.56 16.62
18 -11 -7 5.2 1.39
-7 -11 7 16.98 11.61
18 -11 -7 17 9.15
-12 -6 6 85.49 25.74
12 -18 6 106.79 24.28
6 12 6 106.66 19.9
18 -6 -6 109.81 21.68
-12 18 -3 145.92 24.74
-12 -6 3 106.65 30.79
18 -12 3 133.98 23.28
6 12 3 185.64 27.34
12 6 -3 135.75 23.82
12 6 0 3.85 8.83
6 12 0 -4.05 6.5
-12 18 0 25.08 9.23
-6 -12 0 0.84 10.04
-12 -6 0 17.46 15.04
18 -12 0 12.19 7.32
18 -12 0 11.02 6.66
18 -12 -3 159.35 24.17
-12 18 3 150.62 21.2
-6 -12 3 128.02 37.49
18 -12 -3 100.6 19.25
12 6 3 112.41 19.12
18 -12 -6 164.31 25.32
-12 18 6 126.95 19.91
-6 -12 6 141.52 33.4
12 6 6 119.01 19.01
18 -12 -6 87.74 17.99
6 12 -6 116.67 22.11
-13 -5 7 17.75 11.41
-13 -5 4 111.38 29.36
5 13 4 190.26 27.11
13 5 -1 15.12 8.19
-13 18 -1 24.63 9.86
5 13 1 19.61 9.87
18 -13 1 13.85 6.38
18 -13 1 14.46 8.13
13 5 2 9.14 6.91
-5 -13 2 3.68 8.87
18 -13 -2 6.39 2.48
18 -13 -2 9.17 6.16
-13 18 2 15.61 7.54
5 13 -5 9.48 6.11
13 5 5 7.01 5.31
-5 -13 5 8.58 9.67
-13 18 5 8.13 4.49
-13 -5 -5 -4.84 10.54
18 -13 -5 3.11 3
14 -18 5 9.65 6.62
18 -14 2 36.23 12.4
18 -14 2 80.2 17.13
14 4 1 7.81 3.93
18 -14 -1 12.82 6.38
18 -14 -1 13.3 6.59
14 4 4 14.08 7.91
-4 -14 4 14.79 12.16
18 -14 -4 14.94 7.62
-14 -4 -4 13.24 13.3
18 -15 3 31.56 11.52
3 15 3 16.6 10.16
18 -15 0 145.49 23.68
18 -15 0 93.64 19.86
-15 -3 0 166.46 34.85
-15 -3 -3 15.81 10.87
10 9 -5 18.57 9.85
-10 -9 5 7.96 8.78
19 -9 -5 15.88 8.64
10 9 -2 37.58 11.67
9 10 2 17.98 5.49
9 10 -4 57.09 15.13
-9 -10 4 59.41 25.58
19 -10 -4 76.27 16.5
11 8 -3 15.19 8.13
-11 19 -3 14.02 7.13
8 11 3 12.78 9
-11 19 0 157.86 23.66
11 8 0 117.8 20.4
19 -11 -3 4.1 2.56
7 12 4 87.98 19.28
12 7 -1 61.42 16.01
7 12 1 35.38 11.3
-12 19 -1 64.17 15.45
12 7 2 51.06 13.51
-12 19 2 85.42 17.25
19 -12 -2 71.96 16.11
13 6 1 8.95 5.03
19 -13 -1 8.54 4.84
loop_
_exptl_oxdiff_crystal_face_indexfrac_h
_exptl_oxdiff_crystal_face_indexfrac_k
_exptl_oxdiff_crystal_face_indexfrac_l
_exptl_oxdiff_crystal_face_x
_exptl_oxdiff_crystal_face_y
_exptl_oxdiff_crystal_face_z
-8.6043 19.3115 0.0061 0.0043 0.0079 -1.0000
13.9113 -2.6785 15.7664 0.1297 0.9865 0.0995
-14.9899 5.9825 -15.2619 -0.1254 -0.9542 -0.2718
10.0801 -3.0650 20.6202 -0.1808 0.9745 0.1329
9.0757 -0.6745 20.7948 -0.1823 0.9832 0.0090
-10.2096 3.3993 -20.5698 0.1803 -0.9721 -0.1503
-4.4771 -3.9235 21.9707 -0.8794 0.4192 0.2256
-5.5304 -1.8606 22.3842 -0.8962 0.4273 0.1193
-6.5426 0.2750 22.5373 -0.9026 0.4304 0.0089
6.5426 -0.2750 -22.5373 0.9026 -0.4304 -0.0089
-0.0080 -15.6383 -8.7534 -0.0722 -0.5512 0.8312
0.3521 15.3863 9.0394 0.0746 0.5690 -0.8189
5.3384 -18.3813 5.1659 -0.2723 0.0362 0.9615
loop_
_publcif_info_datablock.id
_publcif_info_datablock.publ_exptl
_publcif_info_datablock.publ_geom
_publcif_info_datablock.structure
{a300091f-f3e2-40b2-b4ba-223c6c6c093f} y y y
loop_
_publcif_info_exptl_table_extra_item
sin_theta_over_lambda_max
loop_
_publcif_info_tables.block_id
_publcif_info_tables.reference_item
{a300091f-f3e2-40b2-b4ba-223c6c6c093f} '_publcif_info_datablock.publ_exptl'
loop_
_publcif_info_cif.paper_type
EE
