#------------------------------------------------------------------------------
#$Date: 2016-03-21 01:21:50 +0200 (Mon, 21 Mar 2016) $
#$Revision: 178377 $
#$URL: svn://www.crystallography.net/cod/cif/4/00/21/4002111.cif $
#------------------------------------------------------------------------------
#
# This file is available in the Crystallography Open Database (COD),
# http://www.crystallography.net/
#
# All data on this site have been placed in the public domain by the
# contributors.
#
data_4002111
loop_
_publ_author_name
'Nanthamathee, Chompoonoot'
'Ling, Sanliang'
'Slater, Ben'
'Attfield, Martin P.'
_publ_section_title
;
 Contradistinct Thermoresponsive Behavior of Isostructural MIL-53 Type
 Metal--Organic Frameworks by Modifying the Framework Inorganic Anion
;
_journal_name_full               'Chemistry of Materials'
_journal_page_first              141223143002002
_journal_paper_doi               10.1021/cm503311x
_journal_year                    2014
_chemical_formula_sum            'C8 Al O5'
_chemical_formula_weight         203.07
_chemical_name_systematic        ' ?'
_space_group_IT_number           74
_symmetry_cell_setting           orthorhombic
_symmetry_space_group_name_Hall  '-I 2b 2'
_symmetry_space_group_name_H-M   'I m m a'
_audit_creation_date             2014-08-28T12:17
_audit_creation_method           'from EXP file using GSAS2CIF'
_audit_update_record
' 2014-08-28T12:17  Initial CIF as created by GSAS2CIF'
_cell_angle_alpha                90.0
_cell_angle_beta                 90.0
_cell_angle_gamma                90.0
_cell_formula_units_Z            4
_cell_length_a                   6.62890(6)
_cell_length_b                   16.73384(17)
_cell_length_c                   12.82536(22)
_cell_volume                     1422.68(3)
_computing_structure_refinement  GSAS
_diffrn_radiation_polarisn_ratio 0.95
_diffrn_radiation_probe          x-ray
_diffrn_radiation_wavelength     0.825993
_exptl_absorpt_correction_T_max  1.00000
_exptl_absorpt_correction_T_min  1.00000
_exptl_absorpt_process_details
;   GSAS Absorption/surface roughness correction: function number 0
 No correction is applied.
;
_pd_block_id                     2014-08-28T12:17|400K|300k|i11
_pd_calc_method                  'Rietveld Refinement'
_pd_instr_location               ' ?'
_pd_meas_2theta_range_inc        0.003
_pd_meas_2theta_range_max        149.9955
_pd_meas_2theta_range_min        0.0015
_pd_meas_number_of_points        49999
_pd_phase_name                   300K
_pd_proc_2theta_range_inc        0.003
_pd_proc_2theta_range_max        150.00438
_pd_proc_2theta_range_min        0.010384
_pd_proc_info_datetime           2014-08-28T12:17:55
_pd_proc_info_excluded_regions   ' ?'
_pd_proc_ls_background_function
;   GSAS Background function number 1 with  2 terms.
 Shifted Chebyshev function of 1st kind
      1:    0.00000     2:    0.00000    
;
_pd_proc_ls_peak_cutoff          0.00100
_pd_proc_ls_profile_function
;
 CW Profile function number 4 with  18 terms
 Pseudovoigt profile coefficients as parameterized in
 P. Thompson, D.E. Cox & J.B. Hastings (1987). J. Appl. Cryst.,20,79-83.
 Asymmetry correction of L.W. Finger, D.E. Cox & A. P. Jephcoat (1994).
 J. Appl. Cryst.,27,892-900.
 Microstrain broadening by P.W. Stephens,  (1999). J. Appl. Cryst.,32,281-289.
 Peak tails are ignored  where the intensity is below 0.0010 times the peak
   Aniso. broadening axis   1.0   0.0   1.0
;
_pd_proc_ls_prof_R_factor        0.0348
_pd_proc_ls_prof_wR_expected     0.0226
_pd_proc_ls_prof_wR_factor       0.0467
_pd_proc_number_of_points        49999
_pd_spec_mounting                ' ?'
_refine_ls_goodness_of_fit_all   2.07
_refine_ls_matrix_type           full
_refine_ls_number_parameters     27
_refine_ls_number_restraints     0
_refine_ls_R_Fsqd_factor         0.19799
_refine_ls_shift/su_max          0.44
_refine_ls_shift/su_mean         0.07
_reflns_d_resolution_high        1.210
_reflns_d_resolution_low         8.367
_reflns_limit_h_max              5
_reflns_limit_h_min              0
_reflns_limit_k_max              13
_reflns_limit_k_min              0
_reflns_limit_l_max              10
_reflns_limit_l_min              0
_reflns_number_total             252
_cod_data_source_file            aloh400K.cif
_cod_data_source_block           400K_publ
_cod_depositor_comments
;
The following automatic conversions were performed:

'_geom_bond_publ_flag' value 'N' changed to 'n' according to
/home/saulius/struct/COD-crude-data--automatic-downloads/rss-feeds/ACS/lib/dictionaries/cif_core.dic
dictionary named 'cif_core.dic' version 2.4.2 from 2011-04-26 (18
times).

'_geom_angle_publ_flag' value 'N' changed to 'n' according
to
/home/saulius/struct/COD-crude-data--automatic-downloads/rss-feeds/ACS/lib/dictionaries/cif_core.dic
dictionary named 'cif_core.dic' version 2.4.2 from 2011-04-26 (24
times).

Automatic conversion script
Id: cif_fix_values 2935 2014-11-11 08:27:57Z andrius 
;
_cod_original_cell_volume        1422.679(31)
_cod_database_code               4002111
#BEGIN Tags that were not found in dictionaries:
_gsas_exptl_extinct_corr_t_min   1.00000
_gsas_exptl_extinct_corr_t_max   1.00000
#END Tags that were not found in dictionaries
loop_
_symmetry_equiv_pos_site_id
_symmetry_equiv_pos_as_xyz
1 +x,+y,+z
2 -x,+y,+z
3 +x,-y+1/2,+z
4 -x,-y+1/2,+z
-1 -x,-y,-z
-2 +x,-y,-z
-3 -x,+y+1/2,-z
-4 +x,+y+1/2,-z
101 +x+1/2,+y+1/2,+z+1/2
102 -x+1/2,+y+1/2,+z+1/2
103 +x+1/2,-y,+z+1/2
104 -x+1/2,-y,+z+1/2
-101 -x+1/2,-y+1/2,-z+1/2
-102 +x+1/2,-y+1/2,-z+1/2
-103 -x+1/2,+y,-z+1/2
-104 +x+1/2,+y,-z+1/2
loop_
_atom_site_type_symbol
_atom_site_label
_atom_site_fract_x
_atom_site_fract_y
_atom_site_fract_z
_atom_site_occupancy
_atom_site_thermal_displace_type
_atom_site_U_iso_or_equiv
_atom_site_symmetry_multiplicity
Al Al1 0.25 0.25 0.75 1.0 Uiso 0.0221(10) 4
O O2 0.0 0.25 0.6858(4) 1.0 Uiso 0.0195(8) 4
O O1 0.16557(31) 0.16805(14) 0.84296(21) 1.0 Uiso 0.0195(8) 16
C C3 -0.1911(4) 0.03585(30) 0.9680(4) 1.0 Uiso 0.0445(15) 16
C C2 0.0 0.0628(4) 0.9472(5) 1.0 Uiso 0.0445(15) 8
C C1 0.0 0.1359(4) 0.8712(6) 1.0 Uiso 0.0445(15) 8
loop_
_atom_type_symbol
_atom_type_number_in_cell
_atom_type_scat_dispersion_real
_atom_type_scat_dispersion_imag
_atom_type_scat_Cromer_Mann_a1
_atom_type_scat_Cromer_Mann_a2
_atom_type_scat_Cromer_Mann_a3
_atom_type_scat_Cromer_Mann_a4
_atom_type_scat_Cromer_Mann_b1
_atom_type_scat_Cromer_Mann_b2
_atom_type_scat_Cromer_Mann_b3
_atom_type_scat_Cromer_Mann_b4
_atom_type_scat_Cromer_Mann_c
_atom_type_scat_source
Al 4.0 0.000 0.000 6.42020 3.03870 1.90020 0.74260 1.59360 31.5472 1.96460
85.0886 1.11510 International_Tables_Vol_C
O 20.0 0.000 0.000 3.04850 13.2771 2.28680 5.70110 1.54630 0.32390 0.86700
32.9089 0.25080 International_Tables_Vol_C
C 32.0 0.000 0.000 2.31000 20.8439 1.02000 10.2075 1.58860 0.56870 0.86500
51.6512 0.21560 International_Tables_Vol_C
loop_
_geom_angle_atom_site_label_1
_geom_angle_atom_site_label_2
_geom_angle_atom_site_label_3
_geom_angle
_geom_angle_site_symmetry_1
_geom_angle_site_symmetry_3
_geom_angle_publ_flag
O2 Al1 O2 180.0 1_555 -101_546 n
O2 Al1 O1 90.88(12) 1_555 1_555 n
O2 Al1 O1 90.88(12) 1_555 3_555 n
O2 Al1 O1 89.12(12) 1_555 -101_566 n
O2 Al1 O1 89.12(12) 1_555 -103_566 n
O2 Al1 O1 89.12(12) -101_566 1_555 n
O2 Al1 O1 89.12(12) -101_566 3_555 n
O2 Al1 O1 90.88(12) -101_566 -101_566 n
O2 Al1 O1 90.88(12) -101_566 -103_566 n
O1 Al1 O1 92.31(17) 1_555 3_555 n
O1 Al1 O1 180.0 1_555 -101_566 n
O1 Al1 O1 87.69(17) 1_555 -103_566 n
O1 Al1 O1 87.69(17) 3_555 -101_566 n
O1 Al1 O1 180.0 3_555 -103_566 n
O1 Al1 O1 92.31(17) -101_566 -103_566 n
Al1 O2 Al1 127.17(30) 1_555 2_555 n
Al1 O1 C1 137.37(35) 1_555 1_555 n
C3 C3 C2 112.4(4) -2_557 1_555 n
C3 C2 C3 135.1(7) 1_555 2_555 n
C3 C2 C1 112.2(4) 1_555 1_555 n
C3 C2 C1 112.2(4) 2_555 1_555 n
O1 C1 O1 118.9(6) 1_555 2_555 n
O1 C1 C2 120.46(30) 1_555 1_555 n
O1 C1 C2 120.46(30) 2_555 1_555 n
loop_
_geom_bond_atom_site_label_1
_geom_bond_atom_site_label_2
_geom_bond_distance
_geom_bond_site_symmetry_2
_geom_bond_publ_flag
Al1 O2 1.8504(24) 1_555 n
Al1 O2 1.8504(24) -101_445 n
Al1 O1 1.9014(20) 1_555 n
Al1 O1 1.9014(20) 3_555 n
Al1 O1 1.9014(20) -101_445 n
Al1 O1 1.9014(20) -103_445 n
O2 Al1 1.8504(24) 1_555 n
O2 Al1 1.8504(24) 2_555 n
O1 Al1 1.9014(20) 1_555 n
O1 C1 1.2747(33) 1_555 n
C3 C3 1.454(7) -2_557 n
C3 C2 1.3711(31) 1_555 n
C2 C3 1.3711(31) 1_555 n
C2 C3 1.3711(31) 2_555 n
C2 C1 1.564(7) 1_555 n
C1 O1 1.2747(33) 1_555 n
C1 O1 1.2747(33) 2_555 n
C1 C2 1.564(7) 1_555 n
loop_
_pd_meas_intensity_total
_pd_proc_ls_weight
_pd_proc_intensity_bkg_calc
_pd_calc_intensity_total
15.7(21) 0.0 0.00 .
16.5(23) 0.0 0.00 .
12.1(20) 0.0 0.00 .
21.1(25) 0.0 0.00 .
25.6(28) 0.0 0.00 .
83(5) 0.0 0.0 .
84(5) 0.0 0.0 .
560(13) 0.0 0.0 .
1040(17) 0.0 0.0 .
2105(24) 0.0 0.0 .
2460(26) 0.0 0.0 .
2462(26) 0.0 0.0 .
2544(28) 0.0 0.0 .
975(17) 0.0 0.0 .
82(5) 0.0 0.0 .
57(4) 0.0 0.0 .
38.0(33) 0.0 0.00 .
27.0(29) 0.0 0.00 .
36.9(35) 0.0 0.00 .
43(4) 0.0 0.0 .
195(7) 0.0 0.0 .
272(8) 0.0 0.0 .
654(14) 0.0 0.0 .
835(15) 0.0 0.0 .
889(15) 0.0 0.0 .
1133(18) 0.0 0.0 .
1232(19) 0.0 0.0 .
1388(20) 0.0 0.0 .
1654(22) 0.0 0.0 .
1662(21) 0.0 0.0 .
1835(22) 0.0 0.0 .
1970(24) 0.0 0.0 .
1824(23) 0.0 0.0 .
1537(21) 0.0 0.0 .
1169(18) 0.0 0.0 .
669(14) 0.0 0.0 .
341(10) 0.0 0.0 .
209(8) 0.0 0.0 .
130(6) 0.0 0.0 .
71(4) 0.0 0.0 .
43(4) 0.0 0.0 .
32.2(30) 0.0 0.00 .
29.8(30) 0.0 0.00 .
33.2(31) 0.0 0.00 .
40.0(33) 0.0 0.00 .
34.6(33) 0.0 0.00 .
27.4(27) 0.0 0.00 .
38(4) 0.0 0.0 .
29.4(30) 0.0 0.00 .
28.6(27) 0.0 0.00 .
22.5(25) 0.0 0.00 .
28.0(30) 0.0 0.00 .
23.6(26) 0.0 0.00 .
20.5(24) 0.0 0.00 .
29.7(28) 0.0 0.00 .
30.6(29) 0.0 0.00 .
23.9(27) 0.0 0.00 .
28.7(29) 0.0 0.00 .
27.7(28) 0.0 0.00 .
33.6(30) 0.0 0.00 .
27.9(28) 0.0 0.00 .
27.8(29) 0.0 0.00 .
31.0(32) 0.0 0.00 .
29.5(30) 0.0 0.00 .
26.6(26) 0.0 0.00 .
28.4(28) 0.0 0.00 .
35.6(33) 0.0 0.00 .
37.9(34) 0.0 0.00 .
32.3(30) 0.0 0.00 .
39.2(32) 0.0 0.00 .
36.7(33) 0.0 0.00 .
30.9(30) 0.0 0.00 .
35.5(33) 0.0 0.00 .
37.8(32) 0.0 0.00 .
31.5(30) 0.0 0.00 .
33.6(32) 0.0 0.00 .
30.8(31) 0.0 0.00 .
33.6(33) 0.0 0.00 .
34.6(31) 0.0 0.00 .
33.5(32) 0.0 0.00 .
28.7(28) 0.0 0.00 .
39.3(35) 0.0 0.00 .
37.8(32) 0.0 0.00 .
44.5(35) 0.0 0.00 .
27.3(27) 0.0 0.00 .
42(4) 0.0 0.0 .
38.6(34) 0.0 0.00 .
35.5(31) 0.0 0.00 .
29.4(28) 0.0 0.00 .
34.3(31) 0.0 0.00 .
28.7(30) 0.0 0.00 .
41(4) 0.0 0.0 .
50(4) 0.0 0.0 .
44.0(34) 0.0 0.00 .
43.3(34) 0.0 0.00 .
55(4) 0.0 0.0 .
58(4) 0.0 0.0 .
82(5) 0.0 0.0 .
89(5) 0.0 0.0 .
89(5) 0.0 0.0 .
98(6) 0.0 0.0 .
93(5) 0.0 0.0 .
121(6) 0.0 0.0 .
130(6) 0.0 0.0 .
155(7) 0.0 0.0 .
134(6) 0.0 0.0 .
150(7) 0.0 0.0 .
138(6) 0.0 0.0 .
164(7) 0.0 0.0 .
163(7) 0.0 0.0 .
194(8) 0.0 0.0 .
186(7) 0.0 0.0 .
197(7) 0.0 0.0 .
217(8) 0.0 0.0 .
212(8) 0.0 0.0 .
232(9) 0.0 0.0 .
255(9) 0.0 0.0 .
256(8) 0.0 0.0 .
238(8) 0.0 0.0 .
267(9) 0.0 0.0 .
289(9) 0.0 0.0 .
289(9) 0.0 0.0 .
304(9) 0.0 0.0 .
293(9) 0.0 0.0 .
313(9) 0.0 0.0 .
311(10) 0.0 0.0 .
329(10) 0.0 0.0 .
348(10) 0.0 0.0 .
346(10) 0.0 0.0 .
361(10) 0.0 0.0 .
338(10) 0.0 0.0 .
374(10) 0.0 0.0 .
370(10) 0.0 0.0 .
384(10) 0.0 0.0 .
431(11) 0.0 0.0 .
406(11) 0.0 0.0 .
411(11) 0.0 0.0 .
417(11) 0.0 0.0 .
419(11) 0.0 0.0 .
437(11) 0.0 0.0 .
440(11) 0.0 0.0 .
445(11) 0.0 0.0 .
460(11) 0.0 0.0 .
481(12) 0.0 0.0 .
508(12) 0.0 0.0 .
515(12) 0.0 0.0 .
496(12) 0.0 0.0 .
520(12) 0.0 0.0 .
511(12) 0.0 0.0 .
463(12) 0.0 0.0 .
498(12) 0.0 0.0 .
508(12) 0.0 0.0 .
532(12) 0.0 0.0 .
549(13) 0.0 0.0 .
544(13) 0.0 0.0 .
546(13) 0.0 0.0 .
534(12) 0.0 0.0 .
559(12) 0.0 0.0 .
535(12) 0.0 0.0 .
526(13) 0.0 0.0 .
523(12) 0.0 0.0 .
531(12) 0.0 0.0 .
553(12) 0.0 0.0 .
548(13) 0.0 0.0 .
544(13) 0.0 0.0 .
544(12) 0.0 0.0 .
549(12) 0.0 0.0 .
575(13) 0.0 0.0 .
572(13) 0.0 0.0 .
590(13) 0.0 0.0 .
542(12) 0.0 0.0 .
584(13) 0.0 0.0 .
568(12) 0.0 0.0 .
588(13) 0.0 0.0 .
599(14) 0.0 0.0 .
582(13) 0.0 0.0 .
629(13) 0.0 0.0 .
612(13) 0.0 0.0 .
609(13) 0.0 0.0 .
577(13) 0.0 0.0 .
591(13) 0.0 0.0 .
580(12) 0.0 0.0 .
664(14) 0.0 0.0 .
612(13) 0.0 0.0 .
604(13) 0.0 0.0 .
639(13) 0.0 0.0 .
638(13) 0.0 0.0 .
618(13) 0.0 0.0 .
652(14) 0.0 0.0 .
635(14) 0.0 0.0 .
623(13) 0.0 0.0 .
642(13) 0.0 0.0 .
652(14) 0.0 0.0 .
684(14) 0.0 0.0 .
642(14) 0.0 0.0 .
686(14) 0.0 0.0 .
691(14) 0.0 0.0 .
682(14) 0.0 0.0 .
676(14) 0.0 0.0 .
649(14) 0.0 0.0 .
639(13) 0.0 0.0 .
669(13) 0.0 0.0 .
686(14) 0.0 0.0 .
679(14) 0.0 0.0 .
695(14) 0.0 0.0 .
694(14) 0.0 0.0 .
669(13) 0.0 0.0 .
729(15) 0.0 0.0 .
736(15) 0.0 0.0 .
706(14) 0.0 0.0 .
680(14) 0.0 0.0 .
764(14) 0.0 0.0 .
727(15) 0.0 0.0 .
740(15) 0.0 0.0 .
723(14) 0.0 0.0 .
706(14) 0.0 0.0 .
695(14) 0.0 0.0 .
757(15) 0.0 0.0 .
723(15) 0.0 0.0 .
731(15) 0.0 0.0 .
750(14) 0.0 0.0 .
735(14) 0.0 0.0 .
743(15) 0.0 0.0 .
747(15) 0.0 0.0 .
814(16) 0.0 0.0 .
746(14) 0.0 0.0 .
762(15) 0.0 0.0 .
749(15) 0.0 0.0 .
764(15) 0.0 0.0 .
767(15) 0.0 0.0 .
823(15) 0.0 0.0 .
782(15) 0.0 0.0 .
802(15) 0.0 0.0 .
765(15) 0.0 0.0 .
773(15) 0.0 0.0 .
818(15) 0.0 0.0 .
801(15) 0.0 0.0 .
802(15) 0.0 0.0 .
841(16) 0.0 0.0 .
776(15) 0.0 0.0 .
780(14) 0.0 0.0 .
804(15) 0.0 0.0 .
783(15) 0.0 0.0 .
798(15) 0.0 0.0 .
786(15) 0.0 0.0 .
837(15) 0.0 0.0 .
787(15) 0.0 0.0 .
827(16) 0.0 0.0 .
830(15) 0.0 0.0 .
840(15) 0.0 0.0 .
846(15) 0.0 0.0 .
819(15) 0.0 0.0 .
824(16) 0.0 0.0 .
835(15) 0.0 0.0 .
845(15) 0.0 0.0 .
882(15) 0.0 0.0 .
811(15) 0.0 0.0 .
826(16) 0.0 0.0 .
809(15) 0.0 0.0 .
891(16) 0.0 0.0 .
870(15) 0.0 0.0 .
870(16) 0.0 0.0 .
844(16) 0.0 0.0 .
852(16) 0.0 0.0 .
854(15) 0.0 0.0 .
852(15) 0.0 0.0 .
908(16) 0.0 0.0 .
899(17) 0.0 0.0 .
901(16) 0.0 0.0 .
895(16) 0.0 0.0 .
869(15) 0.0 0.0 .
890(16) 0.0 0.0 .
891(16) 0.0 0.0 .
869(16) 0.0 0.0 .
882(15) 0.0 0.0 .
925(16) 0.0 0.0 .
934(17) 0.0 0.0 .
904(16) 0.0 0.0 .
913(16) 0.0 0.0 .
922(16) 0.0 0.0 .
888(16) 0.0 0.0 .
900(16) 0.0 0.0 .
890(16) 0.0 0.0 .
889(16) 0.0 0.0 .
925(16) 0.0 0.0 .
919(16) 0.0 0.0 .
912(16) 0.0 0.0 .
917(16) 0.0 0.0 .
942(16) 0.0 0.0 .
926(16) 0.0 0.0 .
927(16) 0.0 0.0 .
905(16) 0.0 0.0 .
943(17) 0.0 0.0 .
957(16) 0.0 0.0 .
906(16) 0.0 0.0 .
880(16) 0.0 0.0 .
900(16) 0.0 0.0 .
913(16) 0.0 0.0 .
893(16) 0.0 0.0 .
892(16) 0.0 0.0 .
867(16) 0.0 0.0 .
919(17) 0.0 0.0 .
939(16) 0.0 0.0 .
984(16) 0.0 0.0 .
972(16) 0.0 0.0 .
920(16) 0.0 0.0 .
916(17) 0.0 0.0 .
959(17) 0.0 0.0 .
938(16) 0.0 0.0 .
975(16) 0.0 0.0 .
954(17) 0.0 0.0 .
957(17) 0.0 0.0 .
951(17) 0.0 0.0 .
939(16) 0.0 0.0 .
1001(16) 0.0 0.0 .
1027(17) 0.0 0.0 .
969(17) 0.0 0.0 .
987(17) 0.0 0.0 .
960(16) 0.0 0.0 .
938(16) 0.0 0.0 .
939(16) 0.0 0.0 .
948(17) 0.0 0.0 .
970(17) 0.0 0.0 .
964(16) 0.0 0.0 .
966(16) 0.0 0.0 .
970(17) 0.0 0.0 .
940(17) 0.0 0.0 .
995(17) 0.0 0.0 .
990(16) 0.0 0.0 .
961(16) 0.0 0.0 .
959(16) 0.0 0.0 .
966(17) 0.0 0.0 .
974(17) 0.0 0.0 .
1005(16) 0.0 0.0 .
1009(17) 0.0 0.0 .
941(16) 0.0 0.0 .
974(17) 0.0 0.0 .
940(16) 0.0 0.0 .
989(16) 0.0 0.0 .
962(16) 0.0 0.0 .
1019(17) 0.0 0.0 .
1046(18) 0.0 0.0 .
986(17) 0.0 0.0 .
968(16) 0.0 0.0 .
1066(18) 0.0 0.0 .
978(17) 0.0 0.0 .
961(17) 0.0 0.0 .
1000(17) 0.0 0.0 .
1014(17) 0.0 0.0 .
1067(18) 0.0 0.0 .
1029(17) 0.0 0.0 .
1016(17) 0.0 0.0 .
1019(17) 0.0 0.0 .
1055(17) 0.0 0.0 .
1087(18) 0.0 0.0 .
1055(18) 0.0 0.0 .
1084(18) 0.0 0.0 .
1052(17) 0.0 0.0 .
1092(17) 0.0 0.0 .
1077(18) 0.0 0.0 .
1032(18) 0.0 0.0 .
1094(18) 0.0 0.0 .
1082(17) 0.0 0.0 .
1066(17) 0.0 0.0 .
1037(17) 0.0 0.0 .
1087(18) 0.0 0.0 .
1046(17) 0.0 0.0 .
1159(18) 0.0 0.0 .
1085(17) 0.0 0.0 .
1052(17) 0.0 0.0 .
1063(18) 0.0 0.0 .
1130(18) 0.0 0.0 .
1071(17) 0.0 0.0 .
1119(17) 0.0 0.0 .
1140(18) 0.0 0.0 .
1104(18) 0.0 0.0 .
1115(18) 0.0 0.0 .
1093(17) 0.0 0.0 .
1149(18) 0.0 0.0 .
1161(18) 0.0 0.0 .
1148(18) 0.0 0.0 .
1210(19) 0.0 0.0 .
1154(18) 0.0 0.0 .
1127(18) 0.0 0.0 .
1129(18) 0.0 0.0 .
1122(18) 0.0 0.0 .
1159(18) 0.0 0.0 .
1133(18) 0.0 0.0 .
1151(18) 0.0 0.0 .
1177(19) 0.0 0.0 .
1126(18) 0.0 0.0 .
1183(18) 0.0 0.0 .
1191(18) 0.0 0.0 .
1176(18) 0.0 0.0 .
1211(19) 0.0 0.0 .
1177(19) 0.0 0.0 .
1181(18) 0.0 0.0 .
1174(18) 0.0 0.0 .
1179(18) 0.0 0.0 .
1195(19) 0.0 0.0 .
1244(19) 0.0 0.0 .
1182(18) 0.0 0.0 .
1163(18) 0.0 0.0 .
1232(19) 0.0 0.0 .
1184(19) 0.0 0.0 .
1233(19) 0.0 0.0 .
1243(19) 0.0 0.0 .
1235(18) 0.0 0.0 .
1189(18) 0.0 0.0 .
1219(19) 0.0 0.0 .
1264(19) 0.0 0.0 .
1254(18) 0.0 0.0 .
1242(18) 0.0 0.0 .
1245(19) 0.0 0.0 .
1179(19) 0.0 0.0 .
1181(18) 0.0 0.0 .
1244(18) 0.0 0.0 .
1183(18) 0.0 0.0 .
1221(19) 0.0 0.0 .
1228(20) 0.0 0.0 .
1201(19) 0.0 0.0 .
1245(18) 0.0 0.0 .
1222(18) 0.0 0.0 .
1218(19) 0.0 0.0 .
1267(20) 0.0 0.0 .
1287(19) 0.0 0.0 .
1254(18) 0.0 0.0 .
1251(19) 0.0 0.0 .
1246(19) 0.0 0.0 .
1244(19) 0.0 0.0 .
1255(19) 0.0 0.0 .
1260(18) 0.0 0.0 .
1221(18) 0.0 0.0 .
1243(19) 0.0 0.0 .
1204(19) 0.0 0.0 .
1254(19) 0.0 0.0 .
1239(18) 0.0 0.0 .
1235(19) 0.0 0.0 .
1270(19) 0.0 0.0 .
1240(19) 0.0 0.0 .
1260(19) 0.0 0.0 .
1252(18) 0.0 0.0 .
1228(19) 0.0 0.0 .
1229(19) 0.0 0.0 .
1234(19) 0.0 0.0 .
1250(19) 0.0 0.0 .
1220(18) 0.0 0.0 .
1253(19) 0.0 0.0 .
1189(19) 0.0 0.0 .
1210(19) 0.0 0.0 .
1265(19) 0.0 0.0 .
1277(19) 0.0 0.0 .
1232(19) 0.0 0.0 .
1236(19) 0.0 0.0 .
1288(19) 0.0 0.0 .
1263(19) 0.0 0.0 .
1250(18) 0.0 0.0 .
1259(19) 0.0 0.0 .
1249(20) 0.0 0.0 .
1279(19) 0.0 0.0 .
1304(19) 0.0 0.0 .
1235(18) 0.0 0.0 .
1253(19) 0.0 0.0 .
1242(20) 0.0 0.0 .
1237(19) 0.0 0.0 .
1305(19) 0.0 0.0 .
1241(18) 0.0 0.0 .
1228(19) 0.0 0.0 .
1233(20) 0.0 0.0 .
1219(19) 0.0 0.0 .
1240(18) 0.0 0.0 .
1232(18) 0.0 0.0 .
1251(19) 0.0 0.0 .
1234(19) 0.0 0.0 .
1277(19) 0.0 0.0 .
1203(18) 0.0 0.0 .
1236(18) 0.0 0.0 .
1185(19) 0.0 0.0 .
1227(19) 0.0 0.0 .
1192(19) 0.0 0.0 .
1241(18) 0.0 0.0 .
1241(19) 0.0 0.0 .
1264(19) 0.0 0.0 .
1249(19) 0.0 0.0 .
1249(19) 0.0 0.0 .
1207(18) 0.0 0.0 .
1256(19) 0.0 0.0 .
1287(19) 0.0 0.0 .
1216(19) 0.0 0.0 .
1285(19) 0.0 0.0 .
1215(18) 0.0 0.0 .
1257(19) 0.0 0.0 .
1239(19) 0.0 0.0 .
1216(19) 0.0 0.0 .
1218(19) 0.0 0.0 .
1266(18) 0.0 0.0 .
1233(19) 0.0 0.0 .
1244(19) 0.0 0.0 .
1267(19) 0.0 0.0 .
1279(19) 0.0 0.0 .
1265(18) 0.0 0.0 .
1240(19) 0.0 0.0 .
1220(19) 0.0 0.0 .
1243(19) 0.0 0.0 .
1236(18) 0.0 0.0 .
1232(18) 0.0 0.0 .
1250(19) 0.0 0.0 .
1261(20) 0.0 0.0 .
1227(19) 0.0 0.0 .
1230(18) 0.0 0.0 .
1255(18) 0.0 0.0 .
1225(19) 0.0 0.0 .
1254(20) 0.0 0.0 .
1207(19) 0.0 0.0 .
1240(18) 0.0 0.0 .
1276(19) 0.0 0.0 .
1213(19) 0.0 0.0 .
1216(19) 0.0 0.0 .
1265(19) 0.0 0.0 .
1213(18) 0.0 0.0 .
1226(18) 0.0 0.0 .
1200(19) 0.0 0.0 .
1242(20) 0.0 0.0 .
1294(19) 0.0 0.0 .
1261(18) 0.0 0.0 .
1264(19) 0.0 0.0 .
1266(19) 0.0 0.0 .
1261(20) 0.0 0.0 .
1233(19) 0.0 0.0 .
1214(18) 0.0 0.0 .
1205(18) 0.0 0.0 .
1216(19) 0.0 0.0 .
1257(19) 0.0 0.0 .
1249(19) 0.0 0.0 .
1283(19) 0.0 0.0 .
1277(19) 0.0 0.0 .
1225(19) 0.0 0.0 .
1193(19) 0.0 0.0 .
1201(19) 0.0 0.0 .
1217(18) 0.0 0.0 .
1199(18) 0.0 0.0 .
1207(19) 0.0 0.0 .
1262(19) 0.0 0.0 .
1283(19) 0.0 0.0 .
1240(18) 0.0 0.0 .
1202(18) 0.0 0.0 .
1264(19) 0.0 0.0 .
1282(19) 0.0 0.0 .
1256(19) 0.0 0.0 .
1223(18) 0.0 0.0 .
1243(19) 0.0 0.0 .
1202(19) 0.0 0.0 .
1239(19) 0.0 0.0 .
1202(18) 0.0 0.0 .
1227(18) 0.0 0.0 .
1256(19) 0.0 0.0 .
1200(19) 0.0 0.0 .
1242(19) 0.0 0.0 .
1237(18) 0.0 0.0 .
1205(18) 0.0 0.0 .
1199(19) 0.0 0.0 .
1209(19) 0.0 0.0 .
1238(19) 0.0 0.0 .
1249(18) 0.0 0.0 .
1209(18) 0.0 0.0 .
1246(19) 0.0 0.0 .
1181(19) 0.0 0.0 .
1186(18) 0.0 0.0 .
1218(18) 0.0 0.0 .
1272(19) 0.0 0.0 .
1201(18) 0.0 0.0 .
1195(19) 0.0 0.0 .
1219(19) 0.0 0.0 .
1191(18) 0.0 0.0 .
1172(18) 0.0 0.0 .
1204(19) 0.0 0.0 .
1254(20) 0.0 0.0 .
1196(19) 0.0 0.0 .
1181(18) 0.0 0.0 .
1224(18) 0.0 0.0 .
1183(19) 0.0 0.0 .
1189(19) 0.0 0.0 .
1246(19) 0.0 0.0 .
1249(18) 0.0 0.0 .
1225(19) 0.0 0.0 .
1250(19) 0.0 0.0 .
1187(19) 0.0 0.0 .
1177(18) 0.0 0.0 .
1168(18) 0.0 0.0 .
1222(19) 0.0 0.0 .
1212(19) 0.0 0.0 .
1169(18) 0.0 0.0 .
1210(18) 0.0 0.0 .
1166(18) 0.0 0.0 .
1177(18) 0.0 0.0 .
1187(19) 0.0 0.0 .
1230(19) 0.0 0.0 .
1195(18) 0.0 0.0 .
1142(18) 0.0 0.0 .
1131(18) 0.0 0.0 .
1160(18) 0.0 0.0 .
1153(18) 0.0 0.0 .
1169(18) 0.0 0.0 .
1163(18) 0.0 0.0 .
1183(18) 0.0 0.0 .
1239(19) 0.0 0.0 .
1201(19) 0.0 0.0 .
1182(18) 0.0 0.0 .
1187(18) 0.0 0.0 .
1145(18) 0.0 0.0 .
1191(19) 0.0 0.0 .
1242(19) 0.0 0.0 .
1213(18) 0.0 0.0 .
1186(18) 0.0 0.0 .
1154(18) 0.0 0.0 .
1157(19) 0.0 0.0 .
1155(18) 0.0 0.0 .
1173(18) 0.0 0.0 .
1148(18) 0.0 0.0 .
1164(18) 0.0 0.0 .
1143(19) 0.0 0.0 .
1113(18) 0.0 0.0 .
1142(18) 0.0 0.0 .
1140(18) 0.0 0.0 .
1151(18) 0.0 0.0 .
1208(19) 0.0 0.0 .
1180(18) 0.0 0.0 .
1109(17) 0.0 0.0 .
1105(17) 0.0 0.0 .
1139(18) 0.0 0.0 .
1126(18) 0.0 0.0 .
1155(18) 0.0 0.0 .
1134(17) 0.0 0.0 .
1169(18) 0.0 0.0 .
1150(18) 0.0 0.0 .
1179(19) 0.0 0.0 .
1176(19) 0.0 0.0 .
1182(18) 0.0 0.0 .
1094(17) 0.0 0.0 .
1127(18) 0.0 0.0 .
1136(18) 0.0 0.0 .
1135(18) 0.0 0.0 .
1177(18) 0.0 0.0 .
1136(18) 0.0 0.0 .
1116(18) 0.0 0.0 .
1083(18) 0.0 0.0 .
1161(18) 0.0 0.0 .
1154(18) 0.0 0.0 .
1121(18) 0.0 0.0 .
1170(19) 0.0 0.0 .
1135(18) 0.0 0.0 .
1123(18) 0.0 0.0 .
1111(17) 0.0 0.0 .
1145(18) 0.0 0.0 .
1068(18) 0.0 0.0 .
1114(18) 0.0 0.0 .
1127(18) 0.0 0.0 .
1178(18) 0.0 0.0 .
1123(18) 0.0 0.0 .
1101(18) 0.0 0.0 .
1131(18) 0.0 0.0 .
1122(18) 0.0 0.0 .
1104(17) 0.0 0.0 .
1057(17) 0.0 0.0 .
1106(19) 0.0 0.0 .
1091(18) 0.0 0.0 .
1117(17) 0.0 0.0 .
1081(17) 0.0 0.0 .
1158(18) 0.0 0.0 .
1092(18) 0.0 0.0 .
1095(18) 0.0 0.0 .
1122(17) 0.0 0.0 .
1120(17) 0.0 0.0 .
1136(18) 0.0 0.0 .
1126(19) 0.0 0.0 .
1146(18) 0.0 0.0 .
1100(17) 0.0 0.0 .
1092(17) 0.0 0.0 .
1082(18) 0.0 0.0 .
1113(19) 0.0 0.0 .
1152(18) 0.0 0.0 .
1082(17) 0.0 0.0 .
1083(17) 0.0 0.0 .
1141(18) 0.0 0.0 .
1104(18) 0.0 0.0 .
1131(18) 0.0 0.0 .
1105(17) 0.0 0.0 .
1135(18) 0.0 0.0 .
1128(18) 0.0 0.0 .
1120(18) 0.0 0.0 .
1104(18) 0.0 0.0 .
1055(17) 0.0 0.0 .
1120(18) 0.0 0.0 .
1118(18) 0.0 0.0 .
1086(18) 0.0 0.0 .
1060(17) 0.0 0.0 .
1091(17) 0.0 0.0 .
1124(18) 0.0 0.0 .
1075(18) 0.0 0.0 .
1103(18) 0.0 0.0 .
1086(17) 0.0 0.0 .
1108(17) 0.0 0.0 .
1098(18) 0.0 0.0 .
1103(18) 0.0 0.0 .
1108(18) 0.0 0.0 .
1094(18) 0.0 0.0 .
1101(17) 0.0 0.0 .
1025(17) 0.0 0.0 .
1055(18) 0.0 0.0 .
1069(18) 0.0 0.0 .
1115(17) 0.0 0.0 .
1107(17) 0.0 0.0 .
1074(18) 0.0 0.0 .
1067(18) 0.0 0.0 .
1083(18) 0.0 0.0 .
1061(17) 0.0 0.0 .
1075(17) 0.0 0.0 .
1059(17) 0.0 0.0 .
1056(18) 0.0 0.0 .
1048(17) 0.0 0.0 .
1115(17) 0.0 0.0 .
1068(17) 0.0 0.0 .
1035(17) 0.0 0.0 .
1053(18) 0.0 0.0 .
1070(18) 0.0 0.0 .
1066(17) 0.0 0.0 .
1060(17) 0.0 0.0 .
1080(18) 0.0 0.0 .
1084(18) 0.0 0.0 .
1072(18) 0.0 0.0 .
1093(17) 0.0 0.0 .
1070(17) 0.0 0.0 .
1015(17) 0.0 0.0 .
1033(18) 0.0 0.0 .
1050(18) 0.0 0.0 .
1090(17) 0.0 0.0 .
1039(17) 0.0 0.0 .
1042(17) 0.0 0.0 .
1025(18) 0.0 0.0 .
1017(17) 0.0 0.0 .
1051(17) 0.0 0.0 .
1068(17) 0.0 0.0 .
1055(18) 0.0 0.0 .
1058(18) 0.0 0.0 .
1075(18) 0.0 0.0 .
1051(17) 0.0 0.0 .
1052(17) 0.0 0.0 .
1096(18) 0.0 0.0 .
1054(18) 0.0 0.0 .
1074(17) 0.0 0.0 .
1049(17) 0.0 0.0 .
1032(17) 0.0 0.0 .
1044(18) 0.0 0.0 .
1004(17) 0.0 0.0 .
1027(17) 0.0 0.0 .
992(16) 0.0 0.0 .
1053(17) 0.0 0.0 .
1007(17) 0.0 0.0 .
995(17) 0.0 0.0 .
975(16) 0.0 0.0 .
965(16) 0.0 0.0 .
1002(17) 0.0 0.0 .
1051(18) 0.0 0.0 .
1004(17) 0.0 0.0 .
1044(17) 0.0 0.0 .
1018(17) 0.0 0.0 .
978(17) 0.0 0.0 .
1010(18) 0.0 0.0 .
1030(17) 0.0 0.0 .
991(16) 0.0 0.0 .
1027(17) 0.0 0.0 .
1019(17) 0.0 0.0 .
1021(18) 0.0 0.0 .
996(17) 0.0 0.0 .
1044(17) 0.0 0.0 .
1052(17) 0.0 0.0 .
979(17) 0.0 0.0 .
1039(18) 0.0 0.0 .
976(17) 0.0 0.0 .
1070(17) 0.0 0.0 .
995(16) 0.0 0.0 .
979(17) 0.0 0.0 .
991(17) 0.0 0.0 .
1019(17) 0.0 0.0 .
988(16) 0.0 0.0 .
1002(17) 0.0 0.0 .
1001(17) 0.0 0.0 .
1034(17) 0.0 0.0 .
1019(17) 0.0 0.0 .
989(16) 0.0 0.0 .
1005(17) 0.0 0.0 .
1038(17) 0.0 0.0 .
995(17) 0.0 0.0 .
1005(17) 0.0 0.0 .
1029(17) 0.0 0.0 .
1033(17) 0.0 0.0 .
1011(17) 0.0 0.0 .
997(17) 0.0 0.0 .
1009(17) 0.0 0.0 .
1005(16) 0.0 0.0 .
978(17) 0.0 0.0 .
994(17) 0.0 0.0 .
967(17) 0.0 0.0 .
975(16) 0.0 0.0 .
1013(17) 0.0 0.0 .
1004(17) 0.0 0.0 .
1012(18) 0.0 0.0 .
956(17) 0.0 0.0 .
1008(17) 0.0 0.0 .
1009(16) 0.0 0.0 .
1026(17) 0.0 0.0 .
993(17) 0.0 0.0 .
1007(17) 0.0 0.0 .
999(16) 0.0 0.0 .
980(16) 0.0 0.0 .
989(17) 0.0 0.0 .
1003(18) 0.0 0.0 .
978(17) 0.0 0.0 .
998(16) 0.0 0.0 .
973(16) 0.0 0.0 .
965(17) 0.0 0.0 .
1009(18) 0.0 0.0 .
954(17) 0.0 0.0 .
952(16) 0.0 0.0 .
963(16) 0.0 0.0 .
971(17) 0.0 0.0 .
990(18) 0.0 0.0 .
979(17) 0.0 0.0 .
1012(17) 0.0 0.0 .
973(16) 0.0 0.0 .
928(16) 0.0 0.0 .
973(17) 0.0 0.0 .
955(16) 0.0 0.0 .
960(16) 0.0 0.0 .
974(16) 0.0 0.0 .
990(17) 0.0 0.0 .
953(17) 0.0 0.0 .
963(17) 0.0 0.0 .
999(16) 0.0 0.0 .
963(17) 0.0 0.0 .
937(17) 0.0 0.0 .
946(17) 0.0 0.0 .
938(16) 0.0 0.0 .
984(16) 0.0 0.0 .
939(16) 0.0 0.0 .
924(17) 0.0 0.0 .
949(17) 0.0 0.0 .
963(17) 0.0 0.0 .
898(16) 0.0 0.0 .
947(16) 0.0 0.0 .
958(17) 0.0 0.0 .
942(17) 0.0 0.0 .
940(16) 0.0 0.0 .
961(16) 0.0 0.0 .
929(16) 0.0 0.0 .
983(17) 0.0 0.0 .
945(16) 0.0 0.0 .
998(17) 0.0 0.0 .
970(16) 0.0 0.0 .
954(17) 0.0 0.0 .
957(17) 0.0 0.0 .
948(16) 0.0 0.0 .
947(16) 0.0 0.0 .
917(16) 0.0 0.0 .
955(17) 0.0 0.0 .
972(18) 0.0 0.0 .
962(17) 0.0 0.0 .
984(16) 0.0 0.0 .
942(16) 0.0 0.0 .
954(17) 0.0 0.0 .
956(17) 0.0 0.0 .
936(16) 0.0 0.0 .
906(16) 0.0 0.0 .
912(16) 0.0 0.0 .
944(16) 0.0 0.0 .
944(17) 0.0 0.0 .
929(17) 0.0 0.0 .
893(16) 0.0 0.0 .
967(16) 0.0 0.0 .
943(17) 0.0 0.0 .
918(17) 0.0 0.0 .
915(16) 0.0 0.0 .
975(16) 0.0 0.0 .
933(16) 0.0 0.0 .
912(16) 0.0 0.0 .
950(17) 0.0 0.0 .
929(16) 0.0 0.0 .
921(16) 0.0 0.0 .
922(16) 0.0 0.0 .
892(16) 0.0 0.0 .
920(17) 0.0 0.0 .
894(16) 0.0 0.0 .
897(16) 0.0 0.0 .
909(16) 0.0 0.0 .
908(16) 0.0 0.0 .
873(16) 0.0 0.0 .
956(16) 0.0 0.0 .
944(16) 0.0 0.0 .
921(16) 0.0 0.0 .
929(17) 0.0 0.0 .
931(17) 0.0 0.0 .
948(16) 0.0 0.0 .
889(16) 0.0 0.0 .
930(17) 0.0 0.0 .
909(16) 0.0 0.0 .
924(16) 0.0 0.0 .
921(16) 0.0 0.0 .
910(16) 0.0 0.0 .
915(16) 0.0 0.0 .
880(16) 0.0 0.0 .
927(16) 0.0 0.0 .
912(16) 0.0 0.0 .
924(16) 0.0 0.0 .
919(16) 0.0 0.0 .
910(17) 0.0 0.0 .
946(16) 0.0 0.0 .
927(16) 0.0 0.0 .
909(16) 0.0 0.0 .
928(16) 0.0 0.0 .
870(16) 0.0 0.0 .
917(16) 0.0 0.0 .
932(16) 0.0 0.0 .
905(16) 0.0 0.0 .
873(16) 0.0 0.0 .
863(16) 0.0 0.0 .
900(16) 0.0 0.0 .
927(16) 0.0 0.0 .
927(16) 0.0 0.0 .
950(17) 0.0 0.0 .
948(17) 0.0 0.0 .
908(16) 0.0 0.0 .
923(16) 0.0 0.0 .
909(16) 0.0 0.0 .
918(16) 0.0 0.0 .
915(17) 0.0 0.0 .
918(17) 0.0 0.0 .
905(16) 0.0 0.0 .
926(16) 0.0 0.0 .
852(15) 0.0 0.0 .
904(16) 0.0 0.0 .
915(16) 0.0 0.0 .
929(16) 0.0 0.0 .
888(16) 0.0 0.0 .
911(16) 0.0 0.0 .
909(16) 0.0 0.0 .
872(16) 0.0 0.0 .
879(15) 0.0 0.0 .
875(16) 0.0 0.0 .
898(16) 0.0 0.0 .
859(16) 0.0 0.0 .
905(16) 0.0 0.0 .
919(16) 0.0 0.0 .
903(16) 0.0 0.0 .
892(16) 0.0 0.0 .
871(16) 0.0 0.0 .
829(15) 0.0 0.0 .
909(16) 0.0 0.0 .
877(16) 0.0 0.0 .
876(16) 0.0 0.0 .
903(16) 0.0 0.0 .
873(16) 0.0 0.0 .
918(16) 0.0 0.0 .
875(16) 0.0 0.0 .
880(16) 0.0 0.0 .
863(16) 0.0 0.0 .
884(16) 0.0 0.0 .
863(15) 0.0 0.0 .
965(17) 0.0 0.0 .
850(16) 0.0 0.0 .
842(16) 0.0 0.0 .
848(15) 0.0 0.0 .
895(16) 0.0 0.0 .
859(16) 0.0 0.0 .
862(16) 0.0 0.0 .
831(15) 0.0 0.0 .
823(15) 0.0 0.0 .
855(15) 0.0 0.0 .
866(16) 0.0 0.0 .
848(16) 0.0 0.0 .
857(16) 0.0 0.0 .
857(15) 0.0 0.0 .
850(15) 0.0 0.0 .
859(16) 0.0 0.0 .
869(16) 0.0 0.0 .
894(16) 0.0 0.0 .
891(15) 0.0 0.0 .
913(16) 0.0 0.0 .
856(16) 0.0 0.0 .
866(16) 0.0 0.0 .
857(16) 0.0 0.0 .
860(15) 0.0 0.0 .
831(15) 0.0 0.0 .
836(16) 0.0 0.0 .
846(16) 0.0 0.0 .
864(16) 0.0 0.0 .
884(15) 0.0 0.0 .
879(16) 0.0 0.0 .
904(16) 0.0 0.0 .
862(16) 0.0 0.0 .
853(15) 0.0 0.0 .
843(15) 0.0 0.0 .
826(15) 0.0 0.0 .
809(15) 0.0 0.0 .
835(16) 0.0 0.0 .
832(15) 0.0 0.0 .
788(15) 0.0 0.0 .
821(15) 0.0 0.0 .
841(16) 0.0 0.0 .
871(16) 0.0 0.0 .
850(15) 0.0 0.0 .
825(15) 0.0 0.0 .
846(16) 0.0 0.0 .
856(16) 0.0 0.0 .
825(15) 0.0 0.0 .
863(15) 0.0 0.0 .
822(15) 0.0 0.0 .
794(15) 0.0 0.0 .
808(16) 0.0 0.0 .
804(15) 0.0 0.0 .
812(15) 0.0 0.0 .
804(15) 0.0 0.0 .
817(15) 0.0 0.0 .
832(16) 0.0 0.0 .
861(16) 0.0 0.0 .
822(15) 0.0 0.0 .
837(15) 0.0 0.0 .
835(16) 0.0 0.0 .
800(16) 0.0 0.0 .
779(15) 0.0 0.0 .
851(15) 0.0 0.0 .
852(15) 0.0 0.0 .
867(16) 0.0 0.0 .
847(16) 0.0 0.0 .
794(15) 0.0 0.0 .
826(15) 0.0 0.0 .
799(15) 0.0 0.0 .
812(15) 0.0 0.0 .
800(15) 0.0 0.0 .
843(16) 0.0 0.0 .
804(15) 0.0 0.0 .
801(15) 0.0 0.0 .
795(15) 0.0 0.0 .
819(16) 0.0 0.0 .
786(15) 0.0 0.0 .
811(15) 0.0 0.0 .
797(15) 0.0 0.0 .
785(15) 0.0 0.0 .
784(15) 0.0 0.0 .
833(15) 0.0 0.0 .
802(15) 0.0 0.0 .
764(15) 0.0 0.0 .
783(15) 0.0 0.0 .
824(15) 0.0 0.0 .
812(15) 0.0 0.0 .
758(14) 0.0 0.0 .
781(15) 0.0 0.0 .
784(15) 0.0 0.0 .
781(15) 0.0 0.0 .
772(15) 0.0 0.0 .
769(14) 0.0 0.0 .
793(15) 0.0 0.0 .
771(15) 0.0 0.0 .
791(15) 0.0 0.0 .
790(15) 0.0 0.0 .
786(15) 0.0 0.0 .
791(15) 0.0 0.0 .
788(16) 0.0 0.0 .
800(15) 0.0 0.0 .
792(15) 0.0 0.0 .
787(15) 0.0 0.0 .
790(15) 0.0 0.0 .
775(15) 0.0 0.0 .
792(15) 0.0 0.0 .
785(14) 0.0 0.0 .
752(14) 0.0 0.0 .
775(15) 0.0 0.0 .
781(15) 0.0 0.0 .
717(14) 0.0 0.0 .
746(14) 0.0 0.0 .
799(15) 0.0 0.0 .
760(15) 0.0 0.0 .
785(15) 0.0 0.0 .
756(15) 0.0 0.0 .
775(14) 0.0 0.0 .
752(14) 0.0 0.0 .
756(15) 0.0 0.0 .
727(15) 0.0 0.0 .
752(15) 0.0 0.0 .
748(14) 0.0 0.0 .
810(15) 0.0 0.0 .
739(15) 0.0 0.0 .
767(15) 0.0 0.0 .
745(15) 0.0 0.0 .
769(14) 0.0 0.0 .
773(15) 0.0 0.0 .
751(15) 0.0 0.0 .
759(15) 0.0 0.0 .
754(14) 0.0 0.0 .
722(14) 0.0 0.0 .
726(14) 0.0 0.0 .
756(15) 0.0 0.0 .
761(15) 0.0 0.0 .
746(15) 0.0 0.0 .
745(14) 0.0 0.0 .
799(15) 0.0 0.0 .
794(15) 0.0 0.0 .
777(15) 0.0 0.0 .
745(14) 0.0 0.0 .
793(15) 0.0 0.0 .
747(15) 0.0 0.0 .
735(15) 0.0 0.0 .
768(15) 0.0 0.0 .
763(14) 0.0 0.0 .
765(14) 0.0 0.0 .
737(15) 0.0 0.0 .
742(15) 0.0 0.0 .
736(15) 0.0 0.0 .
737(14) 0.0 0.0 .
774(15) 0.0 0.0 .
752(15) 0.0 0.0 .
785(16) 0.0 0.0 .
751(15) 0.0 0.0 .
709(14) 0.0 0.0 .
749(14) 0.0 0.0 .
791(15) 0.0 0.0 .
737(15) 0.0 0.0 .
754(15) 0.0 0.0 .
723(14) 0.0 0.0 .
728(14) 0.0 0.0 .
734(15) 0.0 0.0 .
733(15) 0.0 0.0 .
753(15) 0.0 0.0 .
749(14) 0.0 0.0 .
708(14) 0.0 0.0 .
744(15) 0.0 0.0 .
790(15) 0.0 0.0 .
736(15) 0.0 0.0 .
708(14) 0.0 0.0 .
732(14) 0.0 0.0 .
739(15) 0.0 0.0 .
762(15) 0.0 0.0 .
741(15) 0.0 0.0 .
725(14) 0.0 0.0 .
719(14) 0.0 0.0 .
717(14) 0.0 0.0 .
718(14) 0.0 0.0 .
721(14) 0.0 0.0 .
741(14) 0.0 0.0 .
730(15) 0.0 0.0 .
723(15) 0.0 0.0 .
735(15) 0.0 0.0 .
746(14) 0.0 0.0 .
715(14) 0.0 0.0 .
765(15) 0.0 0.0 .
753(15) 0.0 0.0 .
723(14) 0.0 0.0 .
773(15) 0.0 0.0 .
715(14) 0.0 0.0 .
718(14) 0.0 0.0 .
760(15) 0.0 0.0 .
759(15) 0.0 0.0 .
761(14) 0.0 0.0 .
758(14) 0.0 0.0 .
741(15) 0.0 0.0 .
733(15) 0.0 0.0 .
749(15) 0.0 0.0 .
755(14) 0.0 0.0 .
734(14) 0.0 0.0 .
722(14) 0.0 0.0 .
747(15) 0.0 0.0 .
726(14) 0.0 0.0 .
710(14) 0.0 0.0 .
729(14) 0.0 0.0 .
755(15) 0.0 0.0 .
746(15) 0.0 0.0 .
731(14) 0.0 0.0 .
724(14) 0.0 0.0 .
699(14) 0.0 0.0 .
737(14) 0.0 0.0 .
772(15) 0.0 0.0 .
738(15) 0.0 0.0 .
739(14) 0.0 0.0 .
711(14) 0.0 0.0 .
717(14) 0.0 0.0 .
721(15) 0.0 0.0 .
746(15) 0.0 0.0 .
728(14) 0.0 0.0 .
729(14) 0.0 0.0 .
739(15) 0.0 0.0 .
756(15) 0.0 0.0 .
709(14) 0.0 0.0 .
748(14) 0.0 0.0 .
720(14) 0.0 0.0 .
722(14) 0.0 0.0 .
737(15) 0.0 0.0 .
752(15) 0.0 0.0 .
767(14) 0.0 0.0 .
703(14) 0.0 0.0 .
722(15) 0.0 0.0 .
677(14) 0.0 0.0 .
737(14) 0.0 0.0 .
688(14) 0.0 0.0 .
727(14) 0.0 0.0 .
718(14) 0.0 0.0 .
739(15) 0.0 0.0 .
710(14) 0.0 0.0 .
678(14) 0.0 0.0 .
711(14) 0.0 0.0 .
705(15) 0.0 0.0 .
682(14) 0.0 0.0 .
725(14) 0.0 0.0 .
709(14) 0.0 0.0 .
736(15) 0.0 0.0 .
711(15) 0.0 0.0 .
713(15) 0.0 0.0 .
674(13) 0.0 0.0 .
689(14) 0.0 0.0 .
752(15) 0.0 0.0 .
703(15) 0.0 0.0 .
703(14) 0.0 0.0 .
707(14) 0.0 0.0 .
686(14) 0.0 0.0 .
723(14) 0.0 0.0 .
730(15) 0.0 0.0 .
669(14) 0.0 0.0 .
695(14) 0.0 0.0 .
721(14) 0.0 0.0 .
699(14) 0.0 0.0 .
710(15) 0.0 0.0 .
716(14) 0.0 0.0 .
709(14) 0.0 0.0 .
691(14) 0.0 0.0 .
667(14) 0.0 0.0 .
713(15) 0.0 0.0 .
667(14) 0.0 0.0 .
710(14) 0.0 0.0 .
730(14) 0.0 0.0 .
699(14) 0.0 0.0 .
693(14) 0.0 0.0 .
702(14) 0.0 0.0 .
688(14) 0.0 0.0 .
749(15) 0.0 0.0 .
679(14) 0.0 0.0 .
671(14) 0.0 0.0 .
687(14) 0.0 0.0 .
686(14) 0.0 0.0 .
712(14) 0.0 0.0 .
662(14) 0.0 0.0 .
693(14) 0.0 0.0 .
667(14) 0.0 0.0 .
706(14) 0.0 0.0 .
689(14) 0.0 0.0 .
699(14) 0.0 0.0 .
731(15) 0.0 0.0 .
688(14) 0.0 0.0 .
665(13) 0.0 0.0 .
679(14) 0.0 0.0 .
671(14) 0.0 0.0 .
663(14) 0.0 0.0 .
659(13) 0.0 0.0 .
676(13) 0.0 0.0 .
700(14) 0.0 0.0 .
664(14) 0.0 0.0 .
685(14) 0.0 0.0 .
693(14) 0.0 0.0 .
705(14) 0.0 0.0 .
664(14) 0.0 0.0 .
684(15) 0.0 0.0 .
676(14) 0.0 0.0 .
705(14) 0.0 0.0 .
684(14) 0.0 0.0 .
682(14) 0.0 0.0 .
694(15) 0.0 0.0 .
683(14) 0.0 0.0 .
680(14) 0.0 0.0 .
676(14) 0.0 0.0 .
685(14) 0.0 0.0 .
664(14) 0.0 0.0 .
674(14) 0.0 0.0 .
706(14) 0.0 0.0 .
670(14) 0.0 0.0 .
666(14) 0.0 0.0 .
698(15) 0.0 0.0 .
681(14) 0.0 0.0 .
683(14) 0.0 0.0 .
697(14) 0.0 0.0 .
663(14) 0.0 0.0 .
676(14) 0.0 0.0 .
680(14) 0.0 0.0 .
669(13) 0.0 0.0 .
696(14) 0.0 0.0 .
688(14) 0.0 0.0 .
690(14) 0.0 0.0 .
671(14) 0.0 0.0 .
679(13) 0.0 0.0 .
675(14) 0.0 0.0 .
674(14) 0.0 0.0 .
686(14) 0.0 0.0 .
679(14) 0.0 0.0 .
676(14) 0.0 0.0 .
627(13) 0.0 0.0 .
667(14) 0.0 0.0 .
629(14) 0.0 0.0 .
671(14) 0.0 0.0 .
661(13) 0.0 0.0 .
687(14) 0.0 0.0 .
673(14) 0.0 0.0 .
672(14) 0.0 0.0 .
688(14) 0.0 0.0 .
657(13) 0.0 0.0 .
676(14) 0.0 0.0 .
675(14) 0.0 0.0 .
640(13) 0.0 0.0 .
683(14) 0.0 0.0 .
661(13) 0.0 0.0 .
657(14) 0.0 0.0 .
663(14) 0.0 0.0 .
656(14) 0.0 0.0 .
633(13) 0.0 0.0 .
651(13) 0.0 0.0 .
673(14) 0.0 0.0 .
646(14) 0.0 0.0 .
692(14) 0.0 0.0 .
673(13) 0.0 0.0 .
708(14) 0.0 0.0 .
680(14) 0.0 0.0 .
690(15) 0.0 0.0 .
672(14) 0.0 0.0 .
650(13) 0.0 0.0 .
678(14) 0.0 0.0 .
676(14) 0.0 0.0 .
675(14) 0.0 0.0 .
751(15) 0.0 0.0 .
681(14) 0.0 0.0 .
656(13) 0.0 0.0 .
649(14) 0.0 0.0 .
645(14) 0.0 0.0 .
612(13) 0.0 0.0 .
683(14) 0.0 0.0 .
717(14) 0.0 0.0 .
649(14) 0.0 0.0 .
641(14) 0.0 0.0 .
664(14) 0.0 0.0 .
698(14) 0.0 0.0 .
646(13) 0.0 0.0 .
668(14) 0.0 0.0 .
672(14) 0.0 0.0 .
668(14) 0.0 0.0 .
624(13) 0.0 0.0 .
652(14) 0.0 0.0 .
657(14) 0.0 0.0 .
673(14) 0.0 0.0 .
638(13) 0.0 0.0 .
650(13) 0.0 0.0 .
695(14) 0.0 0.0 .
685(14) 0.0 0.0 .
644(14) 0.0 0.0 .
669(14) 0.0 0.0 .
642(13) 0.0 0.0 .
662(14) 0.0 0.0 .
663(14) 0.0 0.0 .
670(14) 0.0 0.0 .
634(13) 0.0 0.0 .
666(13) 0.0 0.0 .
638(14) 0.0 0.0 .
678(14) 0.0 0.0 .
630(13) 0.0 0.0 .
664(13) 0.0 0.0 .
650(13) 0.0 0.0 .
687(14) 0.0 0.0 .
666(14) 0.0 0.0 .
656(14) 0.0 0.0 .
641(13) 0.0 0.0 .
645(13) 0.0 0.0 .
661(14) 0.0 0.0 .
685(15) 0.0 0.0 .
671(14) 0.0 0.0 .
680(14) 0.0 0.0 .
664(13) 0.0 0.0 .
682(14) 0.0 0.0 .
664(14) 0.0 0.0 .
662(14) 0.0 0.0 .
677(13) 0.0 0.0 .
669(14) 0.0 0.0 .
688(14) 0.0 0.0 .
669(14) 0.0 0.0 .
642(14) 0.0 0.0 .
632(13) 0.0 0.0 .
673(14) 0.0 0.0 .
705(14) 0.0 0.0 .
698(14) 0.0 0.0 .
681(14) 0.0 0.0 .
689(14) 0.0 0.0 .
665(14) 0.0 0.0 .
634(14) 0.0 0.0 .
662(14) 0.0 0.0 .
665(14) 0.0 0.0 .
659(13) 0.0 0.0 .
662(14) 0.0 0.0 .
692(14) 0.0 0.0 .
668(14) 0.0 0.0 .
696(14) 0.0 0.0 .
671(13) 0.0 0.0 .
662(14) 0.0 0.0 .
635(14) 0.0 0.0 .
667(14) 0.0 0.0 .
666(13) 0.0 0.0 .
666(13) 0.0 0.0 .
659(14) 0.0 0.0 .
698(15) 0.0 0.0 .
707(14) 0.0 0.0 .
649(13) 0.0 0.0 .
662(13) 0.0 0.0 .
663(14) 0.0 0.0 .
694(15) 0.0 0.0 .
639(13) 0.0 0.0 .
663(14) 0.0 0.0 .
704(14) 0.0 0.0 .
671(14) 0.0 0.0 .
688(15) 0.0 0.0 .
663(14) 0.0 0.0 .
685(14) 0.0 0.0 .
666(13) 0.0 0.0 .
680(14) 0.0 0.0 .
686(15) 0.0 0.0 .
660(14) 0.0 0.0 .
652(13) 0.0 0.0 .
652(13) 0.0 0.0 .
697(14) 0.0 0.0 .
673(14) 0.0 0.0 .
697(14) 0.0 0.0 .
675(13) 0.0 0.0 .
652(13) 0.0 0.0 .
669(14) 0.0 0.0 .
643(14) 0.0 0.0 .
676(14) 0.0 0.0 .
670(13) 0.0 0.0 .
681(14) 0.0 0.0 .
657(14) 0.0 0.0 .
654(14) 0.0 0.0 .
669(14) 0.0 0.0 .
643(13) 0.0 0.0 .
666(14) 0.0 0.0 .
642(14) 0.0 0.0 .
696(14) 0.0 0.0 .
684(14) 0.0 0.0 .
685(14) 0.0 0.0 .
668(14) 0.0 0.0 .
657(14) 0.0 0.0 .
672(14) 0.0 0.0 .
674(14) 0.0 0.0 .
660(13) 0.0 0.0 .
713(14) 0.0 0.0 .
670(14) 0.0 0.0 .
683(14) 0.0 0.0 .
677(14) 0.0 0.0 .
685(14) 0.0 0.0 .
700(14) 0.0 0.0 .
696(14) 0.0 0.0 .
653(13) 0.0 0.0 .
690(14) 0.0 0.0 .
721(14) 0.0 0.0 .
707(14) 0.0 0.0 .
710(14) 0.0 0.0 .
718(14) 0.0 0.0 .
749(14) 0.0 0.0 .
654(13) 0.0 0.0 .
707(14) 0.0 0.0 .
695(15) 0.0 0.0 .
716(14) 0.0 0.0 .
704(14) 0.0 0.0 .
713(14) 0.0 0.0 .
749(15) 0.0 0.0 .
696(15) 0.0 0.0 .
688(14) 0.0 0.0 .
732(14) 0.0 0.0 .
715(14) 0.0 0.0 .
745(15) 0.0 0.0 .
730(15) 0.0 0.0 .
706(14) 0.0 0.0 .
712(14) 0.0 0.0 .
748(14) 0.0 0.0 .
749(15) 0.0 0.0 .
758(15) 0.0 0.0 .
754(15) 0.0 0.0 .
753(14) 0.0 0.0 .
770(15) 0.0 0.0 .
774(15) 0.0 0.0 .
741(15) 0.0 0.0 .
752(15) 0.0 0.0 .
751(14) 0.0 0.0 .
775(15) 0.0 0.0 .
801(15) 0.0 0.0 .
831(16) 0.0 0.0 .
824(15) 0.0 0.0 .
768(14) 0.0 0.0 .
820(15) 0.0 0.0 .
834(15) 0.0 0.0 .
888(16) 0.0 0.0 .
879(16) 0.0 0.0 .
907(16) 0.0 0.0 .
861(16) 0.0 0.0 .
905(16) 0.0 0.0 .
917(16) 0.0 0.0 .
907(16) 0.0 0.0 .
965(16) 0.0 0.0 .
943(17) 0.0 0.0 .
933(17) 0.0 0.0 .
1015(17) 0.0 0.0 .
1024(17) 0.0 0.0 .
1014(17) 0.0 0.0 .
1030(17) 0.0 0.0 .
1139(19) 0.0 0.0 .
1133(18) 0.0 0.0 .
1117(17) 0.0 0.0 .
1195(18) 0.0 0.0 .
1274(19) 0.0 0.0 .
1341(20) 0.0 0.0 .
1438(20) 0.0 0.0 .
1515(20) 0.0 0.0 .
1618(21) 0.0 0.0 .
1823(23) 0.0 0.0 .
2028(25) 0.0 0.0 .
2269(26) 0.0 0.0 .
2576(27) 0.0 0.0 .
3143(29) 0.0 0.0 .
3838(33) 0.0 0.0 .
4781(39) 0.0 0. .
5873(42) 0.0 0. .
7459(45) 0.0 0. .
9240(50) 0.0 0. .
11202(57) 0.0 0. .
13346(64) 0.0 0. .
15780(69) 0.0 0. .
18350(71) 0.0 0. .
20762(76) 0.0 0. .
22907(82) 0.0 0. .
25547(90) 0.0 0. .
28096(93) 0.0 0. .
30747(93) 0.0 0. .
34290(100) 0.0 0. .
38750(110) 0.0 0. .
44380(120) 0.0 0. .
52160(130) 0.0 0. .
60670(130) 0.0 0. .
72170(150) 0.0 0. .
83420(170) 0.0 0. .
92360(180) 0.0 0. .
91500(170) 0.0 0. .
78090(160) 0.0 0. .
58620(140) 0.0 0. .
41910(120) 0.0 0. .
30143(95) 0.0 0. .
22248(80) 0.0 0. .
16832(68) 0.0 0. .
13002(63) 0.0 0. .
10277(56) 0.0 0. .
8391(49) 0.0 0. .
7017(44) 0.0 0. .
5830(40) 0.0 0. .
5057(39) 0.0 0. .
4479(37) 0.0 0. .
4003(34) 0.0 0.0 .
3656(32) 0.0 0.0 .
3245(30) 0.0 0.0 .
2817(29) 0.0 0.0 .
2715(29) 0.0 0.0 .
2468(27) 0.0 0.0 .
2282(25) 0.0 0.0 .
2079(24) 0.0 0.0 .
1919(24) 0.0 0.0 .
1816(24) 0.0 0.0 .
1679(22) 0.0 0.0 .
1685(21) 0.0 0.0 .
1496(20) 0.0 0.0 .
1452(20) 0.0 0.0 .
1395(21) 0.0 0.0 .
1390(20) 0.0 0.0 .
1260(18) 0.0 0.0 .
1243(18) 0.0 0.0 .
1209(19) 0.0 0.0 .
1150(19) 0.0 0.0 .
1115(18) 0.0 0.0 .
1058(17) 0.0 0.0 .
1063(17) 0.0 0.0 .
1026(17) 0.0 0.0 .
1007(17) 0.0 0.0 .
992(17) 0.0 0.0 .
977(16) 0.0 0.0 .
976(16) 0.0 0.0 .
924(16) 0.0 0.0 .
909(16) 0.0 0.0 .
910(16) 0.0 0.0 .
912(16) 0.0 0.0 .
861(16) 0.0 0.0 .
861(16) 0.0 0.0 .
838(16) 0.0 0.0 .
792(15) 0.0 0.0 .
765(14) 0.0 0.0 .
781(15) 0.0 0.0 .
778(15) 0.0 0.0 .
836(16) 0.0 0.0 .
792(15) 0.0 0.0 .
762(14) 0.0 0.0 .
762(15) 0.0 0.0 .
796(15) 0.0 0.0 .
767(15) 0.0 0.0 .
750(15) 0.0 0.0 .
764(14) 0.0 0.0 .
774(15) 0.0 0.0 .
768(15) 0.0 0.0 .
713(14) 0.0 0.0 .
736(14) 0.0 0.0 .
766(14) 0.0 0.0 .
709(14) 0.0 0.0 .
741(15) 0.0 0.0 .
753(15) 0.0 0.0 .
741(14) 0.0 0.0 .
728(14) 0.0 0.0 .
722(15) 0.0 0.0 .
690(15) 0.0 0.0 .
701(14) 0.0 0.0 .
711(14) 0.0 0.0 .
698(14) 0.0 0.0 .
726(14) 0.0 0.0 .
712(15) 0.0 0.0 .
689(14) 0.0 0.0 .
650(13) 0.0 0.0 .
705(14) 0.0 0.0 .
674(14) 0.0 0.0 .
678(14) 0.0 0.0 .
687(14) 0.0 0.0 .
673(13) 0.0 0.0 .
691(14) 0.0 0.0 .
671(14) 0.0 0.0 .
684(15) 0.0 0.0 .
655(14) 0.0 0.0 .
670(13) 0.0 0.0 .
668(14) 0.0 0.0 .
667(14) 0.0 0.0 .
652(14) 0.0 0.0 .
626(13) 0.0 0.0 .
665(13) 0.0 0.0 .
661(14) 0.0 0.0 .
687(14) 0.0 0.0 .
670(14) 0.0 0.0 .
621(13) 0.0 0.0 .
662(13) 0.0 0.0 .
661(14) 0.0 0.0 .
663(14) 0.0 0.0 .
650(14) 0.0 0.0 .
632(13) 0.0 0.0 .
624(13) 0.0 0.0 .
627(13) 0.0 0.0 .
649(14) 0.0 0.0 .
657(14) 0.0 0.0 .
654(13) 0.0 0.0 .
676(14) 0.0 0.0 .
679(14) 0.0 0.0 .
662(14) 0.0 0.0 .
649(14) 0.0 0.0 .
646(13) 0.0 0.0 .
650(13) 0.0 0.0 .
632(14) 0.0 0.0 .
656(14) 0.0 0.0 .
619(13) 0.0 0.0 .
654(13) 0.0 0.0 .
636(13) 0.00578 625.4 61.3
623(13) 0.00557 625.4 60.3
641(14) 0.00521 625.4 59.3
659(14) 0.00520 625.4 58.4
648(13) 0.00565 625.4 57.4
615(13) 0.00611 625.1 56.5
631(14) 0.00533 624.6 0.0
614(14) 0.00505 624.1 0.0
620(13) 0.00553 623.6 0.0
598(13) 0.00628 623.0 0.0
630(13) 0.00577 622.5 0.0
622(13) 0.00566 622.0 0.0
636(14) 0.00518 621.5 0.0
650(14) 0.00547 621.0 0.0
657(13) 0.00570 620.4 0.0
638(13) 0.00574 619.9 0.0
648(14) 0.00530 619.4 0.0
660(14) 0.00505 618.9 0.0
620(13) 0.00560 618.3 0.0
611(13) 0.00610 617.8 0.0
576(13) 0.00640 617.3 0.0
588(13) 0.00580 616.8 0.0
592(13) 0.00557 616.3 0.0
585(13) 0.00594 615.7 0.0
621(13) 0.00600 615.2 0.0
570(12) 0.00644 614.7 0.0
610(13) 0.00556 614.2 0.0
594(13) 0.00577 613.7 0.0
613(13) 0.00583 613.1 0.0
614(13) 0.00607 612.6 0.0
595(13) 0.00612 612.1 0.0
602(13) 0.00584 611.6 0.0
608(13) 0.00562 611.1 0.0
585(13) 0.00607 610.5 0.0
587(12) 0.00640 610.0 0.0
598(13) 0.00581 609.5 0.0
600(13) 0.00558 609.0 0.0
609(13) 0.00559 608.5 0.0
606(13) 0.00592 607.9 0.0
576(12) 0.00646 607.4 0.0
586(13) 0.00567 606.9 0.0
591(13) 0.00557 606.4 0.0
600(13) 0.00561 605.8 0.0
602(13) 0.00592 605.3 0.0
582(13) 0.00638 604.8 0.0
585(13) 0.00590 604.3 0.0
593(13) 0.00562 603.8 0.0
585(13) 0.00609 603.2 0.0
605(13) 0.00603 602.7 0.0
597(13) 0.00627 602.2 0.0
586(13) 0.00604 601.7 0.0
590(13) 0.00562 601.2 0.0
561(13) 0.00631 600.6 0.0
587(13) 0.00621 600.1 0.0
613(13) 0.00598 599.6 0.0
594(13) 0.00584 599.1 0.0
603(14) 0.00526 598.6 0.0
585(13) 0.00594 598.0 0.0
573(12) 0.00648 597.5 0.0
593(13) 0.00626 597.0 0.0
587(13) 0.00601 596.5 0.0
593(13) 0.00551 596.0 0.0
617(14) 0.00549 595.4 0.0
609(13) 0.00612 594.9 0.0
586(13) 0.00631 594.4 0.0
566(13) 0.00610 593.9 0.0
582(13) 0.00566 593.3 0.0
583(13) 0.00600 592.8 0.0
579(13) 0.00638 592.3 0.0
617(13) 0.00594 591.8 0.0
588(13) 0.00592 591.3 0.0
585(13) 0.00576 590.7 0.0
595(13) 0.00587 590.2 0.0
605(13) 0.00610 589.7 0.0
599(13) 0.00600 589.2 0.0
597(13) 0.00591 588.7 0.0
598(13) 0.00554 588.1 0.0
593(13) 0.00596 587.6 0.0
599(13) 0.00628 587.1 0.0
575(13) 0.00631 586.6 0.0
565(13) 0.00605 586.1 0.0
544(13) 0.00627 585.5 0.0
558(13) 0.00636 585.0 0.0
607(13) 0.00612 584.5 0.0
563(13) 0.00630 584.0 0.0
596(13) 0.00568 583.4 0.0
592(13) 0.00579 582.9 0.0
603(13) 0.00586 582.4 0.0
574(12) 0.00649 581.9 0.0
569(13) 0.00627 581.4 0.8
577(13) 0.00600 580.8 0.8
577(13) 0.00600 580.3 0.8
564(13) 0.00635 579.8 0.8
590(13) 0.00631 579.3 0.8
617(14) 0.00547 578.8 0.9
581(13) 0.00560 578.2 0.9
587(13) 0.00580 577.7 0.9
572(13) 0.00637 577.2 0.9
565(12) 0.00649 576.7 0.9
558(13) 0.00626 576.2 0.9
581(13) 0.00573 575.6 0.9
563(13) 0.00629 575.1 1.0
569(12) 0.00641 574.6 1.0
586(13) 0.00629 574.1 1.0
594(13) 0.00568 573.6 1.0
557(13) 0.00576 573.0 1.0
582(13) 0.00585 572.5 1.1
567(12) 0.00652 572.0 1.1
566(12) 0.00648 571.5 1.1
560(13) 0.00627 570.9 1.1
583(13) 0.00562 570.4 1.1
609(13) 0.00566 569.9 1.2
586(13) 0.00635 569.4 1.2
554(12) 0.00641 568.9 1.2
559(13) 0.00614 568.3 1.2
565(13) 0.00572 567.8 1.2
584(13) 0.00592 567.3 1.3
562(12) 0.00666 566.8 1.3
567(13) 0.00640 566.3 1.3
542(12) 0.00656 565.7 1.4
580(13) 0.00574 565.2 1.4
602(13) 0.00583 564.7 1.4
568(12) 0.00650 564.2 1.4
576(13) 0.00628 563.7 1.5
556(13) 0.00638 563.1 1.5
555(13) 0.00601 562.6 1.5
549(12) 0.00641 562.1 1.6
568(12) 0.00654 561.6 1.6
576(13) 0.00613 561.1 1.6
599(13) 0.00567 560.5 1.7
564(13) 0.00602 560.0 1.7
580(13) 0.00610 559.5 1.8
568(12) 0.00645 559.0 1.8
535(12) 0.00660 558.4 1.8
568(13) 0.00609 557.9 1.9
574(13) 0.00611 557.4 1.9
574(13) 0.00618 556.9 2.0
555(12) 0.00674 556.4 2.0
556(13) 0.00631 556.3 2.1
590(13) 0.00566 556.2 2.1
551(13) 0.00619 556.1 2.2
531(12) 0.00670 555.9 2.3
568(12) 0.00658 555.8 2.3
561(13) 0.00618 555.7 2.4
570(13) 0.00585 555.6 2.5
549(13) 0.00631 555.4 2.5
556(12) 0.00652 555.3 2.6
569(12) 0.00660 555.2 2.7
563(13) 0.00608 555.1 2.8
527(13) 0.00629 554.9 2.8
543(12) 0.00642 554.8 2.9
549(12) 0.00675 554.7 3.0
562(12) 0.00656 554.6 3.1
575(13) 0.00612 554.4 3.2
558(13) 0.00580 554.3 3.3
541(13) 0.00634 554.2 3.4
571(12) 0.00649 554.1 3.5
529(12) 0.00696 553.9 3.7
568(13) 0.00602 553.8 3.8
557(13) 0.00574 553.7 3.9
573(13) 0.00612 553.6 4.1
594(13) 0.00627 553.4 4.2
549(12) 0.00676 553.3 4.4
559(13) 0.00607 553.2 4.5
553(13) 0.00600 553.1 4.7
572(13) 0.00607 552.9 4.9
551(12) 0.00671 552.8 5.1
572(12) 0.00647 552.7 5.3
542(12) 0.00646 552.6 5.5
546(13) 0.00602 552.4 5.7
579(13) 0.00601 552.3 6.0
557(12) 0.00671 552.2 6.3
591(13) 0.00605 552.1 6.6
579(13) 0.00592 551.9 6.9
569(13) 0.00596 551.8 7.2
549(13) 0.00634 551.7 7.5
545(12) 0.00681 551.6 7.9
596(13) 0.00603 551.4 8.3
559(12) 0.00641 551.3 8.8
568(13) 0.00619 551.2 9.3
573(13) 0.00598 551.1 9.8
555(12) 0.00672 550.9 10.3
576(13) 0.00605 550.8 10.9
591(13) 0.00568 550.7 11.6
597(13) 0.00554 550.6 12.3
572(13) 0.00614 550.4 13.1
565(12) 0.00659 550.3 14.0
596(13) 0.00586 550.2 15.0
579(13) 0.00577 550.1 16.0
574(13) 0.00599 549.9 17.2
581(13) 0.00625 549.8 18.5
553(12) 0.00670 549.7 20.0
629(14) 0.00545 549.6 21.7
601(13) 0.00565 549.4 23.6
592(13) 0.00587 549.3 25.7
627(13) 0.00585 549.2 28.1
595(13) 0.00622 549.1 30.9
580(13) 0.00577 548.9 34.0
614(14) 0.00540 548.8 37.7
659(14) 0.00529 548.7 42.1
655(13) 0.00562 548.6 47.3
652(13) 0.00568 548.4 53.6
708(14) 0.00488 548.3 61.5
740(15) 0.00435 548.2 71.7
753(15) 0.00463 548.1 85.5
798(15) 0.00460 547.9 104.5
825(15) 0.00451 547.8 131.2
869(16) 0.00397 547.7 168.7
881(17) 0.00363 547.6 220.8
909(16) 0.00377 547.4 290.8
982(16) 0.00378 547.3 381.2
1016(17) 0.00367 547.2 492.1
1116(18) 0.003104 547.1 619.7
1106(18) 0.002941 546.9 754.0
1183(18) 0.002952 546.8 875.8
1255(18) 0.002967 546.7 957.2
1318(19) 0.002783 546.6 972.2
1308(19) 0.002643 546.4 915.3
1218(19) 0.002678 546.3 806.3
1127(18) 0.003072 546.2 674.1
978(16) 0.00379 546.1 542.2
806(15) 0.00448 545.9 423.7
790(15) 0.00427 545.8 324.9
710(15) 0.00472 545.7 246.8
682(14) 0.00497 545.6 187.8
609(13) 0.00609 545.5 144.9
607(13) 0.00587 545.3 114.2
638(14) 0.00520 545.2 92.4
569(13) 0.00608 545.1 76.8
615(13) 0.00559 545.0 65.3
580(12) 0.00643 544.8 56.6
618(13) 0.00559 544.7 49.7
581(13) 0.00582 544.6 44.1
575(13) 0.00571 544.5 39.4
574(13) 0.00607 544.3 35.5
558(12) 0.00670 544.2 32.1
611(13) 0.00566 544.1 29.2
539(12) 0.00651 544.0 26.6
544(13) 0.00636 543.8 24.4
578(13) 0.00627 543.7 22.4
576(12) 0.00647 543.6 20.7
556(13) 0.00632 543.5 19.1
576(13) 0.00591 543.3 17.7
563(13) 0.00633 543.2 16.5
575(13) 0.00632 543.1 15.4
558(12) 0.00672 543.0 14.4
563(13) 0.00613 542.8 13.5
554(13) 0.00622 542.7 12.6
552(13) 0.00609 542.6 11.9
519(12) 0.00706 542.5 11.2
543(12) 0.00685 542.3 10.6
517(12) 0.00677 542.2 10.0
540(13) 0.00595 542.1 9.5
525(12) 0.00659 542.0 9.0
574(13) 0.00630 541.8 8.5
549(12) 0.00679 541.7 8.1
537(12) 0.00644 541.6 7.7
551(13) 0.00592 541.5 7.3
538(12) 0.00643 541.3 7.0
548(12) 0.00674 541.2 6.7
560(12) 0.00654 541.1 6.4
530(12) 0.00657 541.0 6.1
541(13) 0.00595 540.8 5.8
536(12) 0.00652 540.7 5.6
521(12) 0.00719 540.6 5.4
566(12) 0.00647 540.5 5.2
533(12) 0.00672 540.3 5.0
523(13) 0.00638 540.2 4.8
549(13) 0.00625 540.1 4.6
565(12) 0.00657 540.0 4.4
553(12) 0.00669 539.8 4.3
571(13) 0.00605 539.7 4.1
546(13) 0.00623 539.6 4.0
562(13) 0.00606 539.5 3.8
545(12) 0.00677 539.3 3.7
528(12) 0.00691 539.2 3.6
521(12) 0.00679 539.1 3.5
535(12) 0.00642 539.0 3.4
547(13) 0.00626 538.8 3.2
557(12) 0.00665 538.7 3.1
533(12) 0.00675 538.6 3.0
544(12) 0.00642 538.5 3.0
545(13) 0.00612 538.3 2.9
551(13) 0.00628 538.2 2.8
568(12) 0.00654 538.1 2.7
527(12) 0.00680 538.0 2.6
559(13) 0.00589 537.8 2.6
559(13) 0.00597 537.7 2.5
525(12) 0.00668 537.6 2.4
540(12) 0.00689 537.5 2.3
566(13) 0.00616 537.3 2.3
576(13) 0.00571 537.2 2.2
541(13) 0.00632 537.1 2.2
551(13) 0.00638 537.0 2.1
540(12) 0.00692 536.8 2.1
537(12) 0.00642 536.7 2.0
530(12) 0.00641 536.6 2.0
553(13) 0.00636 536.5 1.9
580(13) 0.00625 536.3 1.9
545(12) 0.00690 536.2 1.8
566(13) 0.00604 536.1 1.8
515(12) 0.00650 536.0 1.7
533(12) 0.00651 535.8 1.7
563(12) 0.00648 535.7 1.7
567(12) 0.00661 535.6 1.6
543(12) 0.00643 535.5 1.6
596(14) 0.00523 535.3 1.5
543(13) 0.00623 535.2 1.5
541(12) 0.00680 535.1 1.5
523(12) 0.00717 535.0 1.5
526(12) 0.00665 534.8 1.4
527(13) 0.00625 534.7 1.4
528(12) 0.00653 534.6 1.4
545(12) 0.00679 534.5 1.3
545(12) 0.00674 534.4 1.3
545(13) 0.00626 534.4 1.3
534(13) 0.00605 534.4 1.3
539(12) 0.00647 534.3 1.2
563(12) 0.00656 534.3 1.2
547(12) 0.00665 534.3 1.2
540(12) 0.00656 534.2 1.2
551(13) 0.00612 534.2 1.1
513(12) 0.00675 534.2 1.1
519(12) 0.00711 534.1 1.1
518(12) 0.00704 534.1 1.1
539(13) 0.00638 534.1 1.1
564(13) 0.00582 534.0 1.0
546(13) 0.00634 534.0 1.0
548(12) 0.00676 534.0 1.0
547(12) 0.00645 534.0 1.0
549(13) 0.00620 533.9 1.0
542(13) 0.00626 533.9 1.0
547(13) 0.00632 533.9 0.9
537(12) 0.00695 533.8 0.9
534(12) 0.00671 533.8 0.9
538(13) 0.00631 533.8 0.9
523(12) 0.00651 533.7 0.9
578(13) 0.00612 533.7 0.9
555(12) 0.00672 533.7 0.8
516(12) 0.00662 533.6 0.8
546(13) 0.00628 533.6 0.8
499(12) 0.00700 533.6 0.0
531(12) 0.00660 533.5 0.0
520(12) 0.00711 533.5 0.0
535(12) 0.00655 533.5 0.0
558(13) 0.00585 533.4 0.0
532(12) 0.00648 533.4 0.0
547(12) 0.00659 533.4 0.0
546(12) 0.00681 533.4 0.0
540(12) 0.00653 533.3 0.0
553(13) 0.00604 533.3 0.0
559(13) 0.00615 533.3 0.0
535(12) 0.00679 533.2 0.0
514(12) 0.00731 533.2 0.0
545(13) 0.00637 533.2 0.0
564(13) 0.00566 533.1 0.0
559(13) 0.00598 533.1 0.0
519(12) 0.00712 533.1 0.0
515(12) 0.00717 533.0 0.0
536(12) 0.00641 533.0 0.0
524(13) 0.00612 533.0 0.0
511(12) 0.00675 532.9 0.0
520(12) 0.00711 532.9 0.0
545(12) 0.00672 532.9 0.0
553(13) 0.00628 532.8 0.0
522(12) 0.00654 532.8 0.0
542(13) 0.00634 532.8 0.0
536(12) 0.00697 532.8 0.0
547(12) 0.00661 532.7 0.0
533(12) 0.00665 532.7 0.0
548(13) 0.00602 532.7 0.0
503(12) 0.00683 532.6 0.0
533(12) 0.00692 532.6 0.0
545(12) 0.00660 532.6 0.0
503(12) 0.00694 532.5 0.0
529(13) 0.00635 532.5 0.0
500(12) 0.00714 532.5 0.0
532(12) 0.00697 532.4 0.0
544(12) 0.00672 532.4 0.0
543(13) 0.00622 532.4 0.0
531(13) 0.00640 532.3 0.0
534(12) 0.00659 532.3 0.0
546(12) 0.00682 532.3 0.0
532(12) 0.00649 532.3 0.0
507(12) 0.00678 532.2 0.0
545(13) 0.00635 532.2 0.0
563(12) 0.00641 532.2 0.0
578(13) 0.00638 532.1 0.0
553(13) 0.00631 532.1 0.0
530(13) 0.00630 532.1 0.0
518(12) 0.00657 532.0 0.0
499(12) 0.00723 532.0 0.0
542(12) 0.00689 532.0 0.0
535(12) 0.00647 531.9 0.0
515(12) 0.00666 531.9 0.0
551(13) 0.00622 531.9 0.0
529(12) 0.00676 531.8 0.0
546(12) 0.00684 531.8 0.0
518(12) 0.00661 531.8 0.0
517(13) 0.00629 531.7 0.0
547(13) 0.00622 531.7 0.0
525(12) 0.00703 531.7 0.0
529(12) 0.00698 531.7 0.0
502(12) 0.00700 531.6 0.0
512(13) 0.00640 531.6 0.0
531(12) 0.00651 531.6 0.0
533(12) 0.00681 531.5 0.0
534(12) 0.00699 531.5 0.0
512(12) 0.00689 531.5 0.0
526(13) 0.00620 531.4 0.0
572(13) 0.00604 531.4 0.0
528(12) 0.00694 531.4 0.0
569(12) 0.00650 531.3 0.0
538(13) 0.00638 531.3 0.0
495(13) 0.00637 531.3 0.0
526(12) 0.00640 531.2 0.0
506(12) 0.00741 531.2 0.0
538(12) 0.00674 531.2 0.0
520(12) 0.00678 531.2 0.0
528(13) 0.00623 531.1 0.0
580(13) 0.00594 531.1 0.0
549(12) 0.00679 531.1 0.0
517(12) 0.00705 531.0 0.0
580(13) 0.00581 531.0 0.0
543(13) 0.00616 531.0 0.0
536(13) 0.00627 530.9 0.0
521(12) 0.00716 530.9 0.0
542(12) 0.00652 530.9 0.0
512(12) 0.00673 530.8 0.0
507(12) 0.00666 530.8 0.0
533(12) 0.00652 530.8 0.0
530(12) 0.00699 530.7 0.0
543(12) 0.00656 530.7 0.0
528(12) 0.00652 530.7 0.0
553(13) 0.00619 530.6 0.0
532(12) 0.00663 530.6 0.0
541(12) 0.00686 530.6 0.0
543(12) 0.00645 530.6 0.0
527(12) 0.00645 530.5 0.0
535(13) 0.00638 530.5 0.0
517(12) 0.00692 530.5 0.0
534(12) 0.00698 530.4 0.0
528(12) 0.00664 530.4 0.0
530(13) 0.00634 530.4 0.0
518(12) 0.00659 530.3 0.0
523(12) 0.00690 530.3 0.0
496(12) 0.00751 530.3 0.0
545(13) 0.00636 530.2 0.0
564(13) 0.00575 530.2 0.0
544(13) 0.00637 530.2 0.0
538(12) 0.00679 530.1 0.0
522(12) 0.00715 530.1 0.0
523(12) 0.00687 530.1 0.0
538(13) 0.00609 530.0 0.0
490(12) 0.00708 530.0 0.0
512(12) 0.00703 530.0 0.0
513(12) 0.00724 530.0 0.0
538(13) 0.00639 529.9 0.0
533(13) 0.00604 529.9 0.0
513(12) 0.00669 529.9 0.0
519(12) 0.00705 529.8 0.0
521(12) 0.00714 529.8 0.0
550(13) 0.00624 529.8 0.0
529(13) 0.00605 529.7 0.0
536(13) 0.00638 529.7 0.0
538(12) 0.00688 529.7 0.0
497(12) 0.00729 529.6 0.0
540(12) 0.00659 529.6 0.0
549(13) 0.00601 529.6 0.0
503(12) 0.00687 529.5 0.0
510(12) 0.00721 529.5 0.0
550(12) 0.00668 529.5 0.0
514(12) 0.00696 529.5 0.0
512(12) 0.00653 529.4 0.0
534(13) 0.00640 529.4 0.0
532(12) 0.00695 529.4 0.0
522(12) 0.00707 529.3 0.0
542(13) 0.00639 529.3 0.0
556(13) 0.00589 529.3 0.0
517(12) 0.00673 529.2 0.0
535(12) 0.00694 529.2 0.0
532(12) 0.00664 529.2 0.0
528(12) 0.00649 529.1 0.0
539(13) 0.00638 529.1 0.0
522(12) 0.00672 529.1 0.0
536(12) 0.00691 529.0 0.0
551(12) 0.00648 529.0 0.0
526(12) 0.00648 529.0 0.0
520(12) 0.00655 528.9 0.0
513(12) 0.00694 528.9 0.0
514(12) 0.00719 528.9 0.0
526(12) 0.00665 528.9 0.0
530(12) 0.00645 528.8 0.0
535(12) 0.00652 528.8 0.0
528(12) 0.00686 528.8 0.0
514(12) 0.00729 528.7 0.0
504(12) 0.00686 528.7 0.0
487(12) 0.00708 528.7 0.0
559(13) 0.00620 528.6 0.0
544(12) 0.00673 528.6 0.0
555(12) 0.00672 528.6 0.0
542(12) 0.00653 528.5 0.0
557(13) 0.00586 528.5 0.0
549(13) 0.00612 528.5 0.0
529(12) 0.00692 528.4 0.0
536(12) 0.00690 528.4 0.0
524(12) 0.00677 528.4 0.0
525(12) 0.00645 528.3 0.0
526(12) 0.00690 528.3 0.0
504(12) 0.00741 528.3 0.0
535(12) 0.00687 528.3 0.0
531(12) 0.00671 528.2 0.0
527(13) 0.00621 528.2 0.0
512(12) 0.00693 528.2 0.0
533(12) 0.00689 528.1 0.0
542(12) 0.00682 528.1 0.0
565(13) 0.00628 528.1 0.0
550(13) 0.00606 528.0 0.0
512(12) 0.00695 528.0 0.0
524(12) 0.00708 528.0 0.0
536(12) 0.00671 527.9 0.0
547(12) 0.00647 527.9 0.0
526(13) 0.00640 527.9 0.0
502(12) 0.00684 527.8 0.0
567(12) 0.00647 527.8 0.0
504(12) 0.00726 527.8 0.0
519(12) 0.00666 527.8 0.0
550(13) 0.00601 527.7 0.0
565(13) 0.00598 527.7 0.0
565(12) 0.00660 527.7 0.0
521(12) 0.00672 527.6 0.0
513(12) 0.00668 527.6 0.0
507(12) 0.00674 527.6 0.0
529(12) 0.00662 527.5 0.0
523(12) 0.00708 527.5 0.0
528(12) 0.00679 527.5 0.0
528(13) 0.00635 527.4 0.0
497(12) 0.00673 527.4 0.0
553(12) 0.00643 527.5 0.0
532(12) 0.00699 527.5 0.0
520(12) 0.00667 527.6 0.0
556(13) 0.00606 527.7 0.0
536(12) 0.00651 527.7 0.0
543(12) 0.00660 527.8 0.0
498(12) 0.00746 527.8 0.0
512(12) 0.00671 527.9 0.0
520(12) 0.00660 528.0 0.0
536(12) 0.00657 528.0 0.0
527(12) 0.00684 528.1 0.0
530(12) 0.00698 528.1 0.0
512(12) 0.00683 528.2 0.0
532(13) 0.00619 528.3 0.0
505(12) 0.00688 528.3 0.0
517(12) 0.00698 528.4 0.0
567(12) 0.00656 528.4 0.0
550(12) 0.00646 528.5 0.0
554(13) 0.00591 528.6 0.0
551(13) 0.00632 528.6 0.0
529(12) 0.00703 528.7 0.0
527(12) 0.00688 528.7 0.0
510(12) 0.00667 528.8 0.0
533(13) 0.00593 528.9 0.0
500(12) 0.00704 528.9 0.0
544(12) 0.00677 529.0 0.0
578(13) 0.00639 529.0 0.0
535(12) 0.00664 529.1 0.0
531(13) 0.00615 529.2 0.0
544(13) 0.00639 529.2 0.0
541(12) 0.00696 529.3 0.0
498(12) 0.00730 529.3 0.0
508(12) 0.00691 529.4 0.0
561(13) 0.00595 529.5 0.0
546(12) 0.00648 529.5 0.0
548(12) 0.00683 529.6 0.0
520(12) 0.00703 529.6 0.0
524(12) 0.00663 529.7 0.0
528(12) 0.00646 529.8 0.0
516(12) 0.00680 529.8 0.0
520(12) 0.00709 529.9 0.0
515(12) 0.00711 529.9 0.0
532(12) 0.00658 530.0 0.0
538(13) 0.00633 530.1 0.0
535(12) 0.00647 530.1 0.0
507(12) 0.00735 530.2 0.0
515(12) 0.00700 530.2 0.0
538(13) 0.00640 530.3 0.0
525(12) 0.00666 530.4 0.0
547(12) 0.00648 530.4 0.0
500(12) 0.00744 530.5 0.0
533(12) 0.00652 530.5 0.0
511(12) 0.00664 530.6 0.0
547(13) 0.00614 530.7 0.0
512(12) 0.00712 530.7 0.0
507(12) 0.00724 530.8 0.0
524(12) 0.00652 530.8 0.0
509(12) 0.00664 530.9 0.0
525(12) 0.00657 531.0 0.0
519(12) 0.00709 531.0 0.0
504(12) 0.00739 531.1 0.0
542(12) 0.00642 531.1 0.0
554(13) 0.00610 531.2 0.0
548(12) 0.00642 531.3 0.0
501(12) 0.00728 531.3 0.0
516(12) 0.00728 531.4 0.0
532(12) 0.00656 531.4 0.0
541(13) 0.00604 531.5 0.0
539(12) 0.00655 531.6 0.0
544(12) 0.00679 531.6 0.0
506(12) 0.00739 531.7 0.0
488(12) 0.00738 531.7 0.0
525(13) 0.00605 531.8 0.0
546(13) 0.00631 531.9 0.0
530(12) 0.00686 531.9 0.0
544(12) 0.00688 532.0 0.0
538(12) 0.00647 532.0 0.0
547(13) 0.00589 532.1 0.0
514(12) 0.00684 532.2 0.0
525(12) 0.00707 532.2 0.0
552(12) 0.00665 532.3 0.0
542(12) 0.00652 532.4 0.0
523(12) 0.00645 532.4 0.0
547(12) 0.00644 532.5 0.0
525(12) 0.00702 532.5 0.0
535(12) 0.00694 532.6 0.0
520(12) 0.00678 532.7 0.0
537(13) 0.00628 532.7 0.0
567(13) 0.00616 532.8 0.0
529(12) 0.00698 532.8 0.0
557(12) 0.00649 532.9 0.0
525(12) 0.00664 533.0 0.0
540(13) 0.00618 533.0 0.0
530(12) 0.00648 533.1 0.0
552(12) 0.00672 533.1 0.0
531(12) 0.00667 533.2 0.0
546(13) 0.00631 533.3 0.0
545(13) 0.00632 533.3 0.0
522(12) 0.00657 533.4 0.0
554(12) 0.00674 533.4 0.0
533(12) 0.00663 533.5 0.0
531(13) 0.00636 533.6 0.0
536(13) 0.00636 533.6 0.0
542(12) 0.00658 533.7 0.0
528(12) 0.00697 533.7 0.0
553(13) 0.00633 533.8 0.0
543(13) 0.00613 533.9 0.0
586(13) 0.00590 533.9 0.0
575(12) 0.00645 534.0 0.0
545(12) 0.00685 534.0 0.0
533(12) 0.00642 534.1 0.0
550(13) 0.00609 534.2 0.0
577(13) 0.00598 534.2 0.0
550(12) 0.00668 534.3 0.0
566(12) 0.00655 534.3 0.0
535(12) 0.00643 534.4 0.0
548(13) 0.00596 534.5 0.0
556(13) 0.00623 534.5 0.0
554(12) 0.00658 534.6 0.0
549(12) 0.00678 534.6 0.0
525(12) 0.00682 534.7 0.0
505(12) 0.00672 534.8 0.0
538(12) 0.00641 534.8 0.0
549(12) 0.00675 534.9 0.0
536(12) 0.00686 534.9 0.0
547(12) 0.00643 535.0 0.0
539(13) 0.00596 535.1 0.0
538(13) 0.00634 535.1 0.0
518(12) 0.00719 535.2 0.0
552(12) 0.00670 535.2 0.0
529(12) 0.00655 535.3 0.0
532(13) 0.00612 535.4 0.0
539(13) 0.00637 535.4 0.0
545(12) 0.00682 535.5 0.0
542(12) 0.00677 535.5 0.0
538(13) 0.00640 535.6 0.0
569(13) 0.00574 535.7 0.0
550(13) 0.00634 535.7 0.0
560(12) 0.00660 535.8 0.0
561(13) 0.00639 535.8 0.0
529(12) 0.00651 535.9 0.0
514(12) 0.00667 536.0 0.0
569(13) 0.00602 536.0 0.0
572(12) 0.00651 536.1 0.0
544(12) 0.00659 536.1 0.0
494(12) 0.00699 536.2 0.0
554(13) 0.00615 536.3 0.0
557(12) 0.00642 536.3 0.0
534(12) 0.00693 536.4 0.0
561(12) 0.00642 536.4 0.0
515(12) 0.00675 536.5 0.0
566(13) 0.00585 536.6 0.0
543(12) 0.00658 536.6 0.0
557(12) 0.00669 536.7 0.0
524(12) 0.00675 536.7 0.0
497(12) 0.00662 536.8 0.0
549(13) 0.00589 536.9 0.0
526(12) 0.00684 536.9 0.0
536(12) 0.00691 537.0 0.0
515(12) 0.00688 537.0 0.0
565(13) 0.00593 537.1 0.0
547(12) 0.00648 537.2 0.0
549(12) 0.00668 537.2 0.0
554(12) 0.00668 537.3 0.0
515(12) 0.00665 537.3 0.0
549(13) 0.00575 537.4 0.0
568(13) 0.00607 537.5 0.0
552(12) 0.00675 537.5 0.0
516(12) 0.00726 537.6 0.0
541(13) 0.00630 537.6 0.0
537(13) 0.00586 537.7 0.0
548(13) 0.00636 537.8 0.0
561(12) 0.00659 537.8 0.0
525(12) 0.00707 537.9 0.0
519(12) 0.00672 537.9 0.0
564(13) 0.00569 538.0 0.0
561(13) 0.00627 538.1 0.0
542(12) 0.00682 538.1 0.0
519(12) 0.00717 538.2 0.0
531(12) 0.00647 538.2 0.0
564(13) 0.00571 538.3 0.0
550(12) 0.00642 538.4 0.1
572(12) 0.00653 538.4 0.1
546(12) 0.00673 538.5 0.1
536(12) 0.00647 538.5 0.1
548(13) 0.00601 538.6 0.1
564(13) 0.00621 538.7 0.1
536(12) 0.00690 538.7 0.1
536(12) 0.00672 538.8 0.1
504(12) 0.00695 538.8 0.1
549(13) 0.00613 538.9 0.1
537(12) 0.00644 539.0 0.1
553(12) 0.00673 539.0 0.1
537(12) 0.00660 539.1 0.1
535(13) 0.00637 539.1 0.1
526(12) 0.00645 539.2 0.1
543(13) 0.00640 539.3 0.1
534(12) 0.00704 539.3 0.1
526(12) 0.00682 539.4 0.1
541(12) 0.00658 539.4 0.1
559(13) 0.00614 539.5 0.1
507(12) 0.00695 539.6 0.1
527(12) 0.00706 539.6 0.1
549(13) 0.00631 539.7 0.1
542(13) 0.00618 539.7 0.1
547(13) 0.00634 539.8 0.1
554(12) 0.00654 539.9 0.1
554(12) 0.00676 539.9 0.1
538(13) 0.00604 540.0 0.1
540(13) 0.00636 540.0 0.1
525(12) 0.00652 540.1 0.1
504(12) 0.00716 540.2 0.1
543(12) 0.00681 540.2 0.1
522(12) 0.00662 540.3 0.2
550(13) 0.00588 540.3 0.2
529(12) 0.00654 540.4 0.2
544(12) 0.00674 540.5 0.2
521(12) 0.00701 540.5 0.2
522(12) 0.00675 540.6 0.2
547(13) 0.00605 540.6 0.2
514(12) 0.00685 540.7 0.2
558(12) 0.00664 540.8 0.2
545(12) 0.00665 540.8 0.3
540(12) 0.00669 540.9 0.3
545(13) 0.00606 540.9 0.3
534(12) 0.00656 541.0 0.3
548(12) 0.00675 541.1 0.3
547(12) 0.00672 541.1 0.3
525(12) 0.00663 541.2 0.4
536(13) 0.00591 541.2 0.4
533(12) 0.00644 541.3 0.4
562(13) 0.00638 541.4 0.5
543(12) 0.00675 541.4 0.5
550(13) 0.00635 541.5 0.6
571(13) 0.00570 541.5 0.6
557(13) 0.00629 541.6 0.7
539(12) 0.00680 541.7 0.8
547(12) 0.00665 541.7 0.9
526(12) 0.00653 541.8 1.0
524(12) 0.00643 541.8 1.1
517(12) 0.00669 541.9 1.2
571(12) 0.00647 542.0 1.4
550(12) 0.00667 542.0 1.6
558(13) 0.00605 542.1 1.8
540(13) 0.00637 542.2 2.0
556(13) 0.00628 542.2 2.3
593(13) 0.00627 542.3 2.5
580(13) 0.00593 542.3 2.8
518(12) 0.00668 542.4 3.1
563(13) 0.00605 542.5 3.4
528(12) 0.00654 542.5 3.6
536(12) 0.00691 542.6 3.9
581(13) 0.00613 542.6 4.0
538(12) 0.00646 542.7 4.1
528(12) 0.00665 542.8 4.0
586(13) 0.00611 542.8 3.9
577(12) 0.00644 542.9 3.7
547(13) 0.00640 542.9 3.5
538(13) 0.00626 543.0 3.2
551(13) 0.00611 543.1 3.0
547(12) 0.00664 543.1 2.7
548(12) 0.00684 543.2 2.4
565(13) 0.00608 543.2 2.1
559(13) 0.00591 543.3 1.9
535(12) 0.00659 543.4 1.7
565(12) 0.00648 543.4 1.5
543(12) 0.00682 543.5 1.3
562(13) 0.00612 543.5 1.2
552(13) 0.00600 543.6 1.0
544(12) 0.00655 543.7 0.9
582(13) 0.00626 543.7 0.8
539(12) 0.00697 543.8 0.7
551(13) 0.00627 543.8 0.7
569(13) 0.00578 543.9 0.6
570(13) 0.00596 544.0 0.5
523(12) 0.00693 544.0 0.5
549(12) 0.00680 544.1 0.5
554(13) 0.00612 544.1 0.4
544(13) 0.00581 544.2 0.4
534(12) 0.00650 544.3 0.4
595(13) 0.00614 544.3 0.3
577(13) 0.00636 544.4 0.3
556(13) 0.00626 544.4 0.3
542(13) 0.00613 544.5 0.3
560(13) 0.00627 544.6 0.3
593(13) 0.00633 544.6 0.2
548(12) 0.00659 544.7 0.2
550(13) 0.00629 544.7 0.2
516(12) 0.00655 544.8 0.2
547(13) 0.00623 544.9 0.2
555(12) 0.00670 544.9 0.2
570(13) 0.00636 545.0 0.2
538(12) 0.00663 545.0 0.2
564(13) 0.00607 545.1 0.2
594(13) 0.00583 545.2 0.2
538(12) 0.00692 545.2 0.1
546(12) 0.00654 545.3 0.1
546(13) 0.00617 545.3 0.1
559(13) 0.00593 545.4 0.1
535(12) 0.00647 545.5 0.1
530(12) 0.00706 545.5 0.1
548(12) 0.00653 545.6 0.1
574(13) 0.00594 545.6 0.1
544(13) 0.00632 545.7 0.1
519(12) 0.00693 545.8 0.1
548(12) 0.00677 545.8 0.1
582(13) 0.00600 545.9 0.1
570(13) 0.00591 545.9 0.1
576(13) 0.00600 546.0 0.1
557(12) 0.00657 546.1 0.1
562(12) 0.00659 546.1 0.1
563(13) 0.00594 546.2 0.1
559(13) 0.00603 546.2 0.1
585(13) 0.00587 546.3 0.1
558(12) 0.00657 546.4 0.1
531(12) 0.00705 546.4 0.1
544(13) 0.00632 546.5 0.1
559(13) 0.00587 546.5 0.1
555(13) 0.00622 546.6 0.1
529(12) 0.00688 546.7 0.1
590(13) 0.00623 546.7 0.1
573(13) 0.00616 546.8 0.1
540(13) 0.00621 547.1 0.1
550(13) 0.00638 547.3 0.1
584(13) 0.00629 547.6 0.1
547(12) 0.00681 547.8 0.1
575(13) 0.00619 548.1 0.0
577(13) 0.00571 548.4 0.0
563(13) 0.00626 548.6 0.0
586(13) 0.00632 548.9 0.0
564(12) 0.00656 549.1 0.0
516(12) 0.00684 549.4 0.0
572(13) 0.00560 549.7 0.0
570(13) 0.00607 549.9 0.0
539(12) 0.00691 550.2 0.0
557(12) 0.00657 550.4 0.0
569(13) 0.00599 550.7 0.0
559(13) 0.00581 550.9 0.0
573(13) 0.00574 551.2 0.0
526(12) 0.00707 551.5 0.0
563(12) 0.00643 551.7 0.0
607(14) 0.00547 552.0 0.0
555(13) 0.00616 552.2 0.0
569(13) 0.00591 552.5 0.0
561(12) 0.00657 552.8 0.0
561(12) 0.00644 553.0 0.0
523(12) 0.00650 553.3 0.0
562(13) 0.00608 553.5 7.1
604(13) 0.00562 553.8 7.2
555(12) 0.00679 554.1 7.4
550(12) 0.00654 554.3 7.5
606(14) 0.00546 554.6 7.6
577(13) 0.00599 554.8 7.7
588(13) 0.00603 555.1 7.9
561(12) 0.00665 555.3 8.0
560(13) 0.00614 555.6 8.1
567(13) 0.00602 555.9 8.3
557(13) 0.00633 556.1 8.4
537(12) 0.00678 556.4 8.6
564(12) 0.00649 556.6 8.7
540(13) 0.00636 556.9 8.9
549(13) 0.00606 557.2 9.0
553(13) 0.00628 557.4 9.2
559(12) 0.00644 557.7 9.3
537(12) 0.00689 557.9 9.5
559(13) 0.00629 558.2 9.7
567(13) 0.00582 558.4 9.9
545(13) 0.00633 558.7 10.1
576(13) 0.00636 559.0 10.3
554(12) 0.00667 559.2 10.5
572(13) 0.00604 559.5 10.7
562(13) 0.00596 559.7 10.9
559(13) 0.00623 560.0 11.1
561(12) 0.00658 560.3 11.3
573(12) 0.00651 560.5 11.5
595(13) 0.00566 560.8 11.8
549(13) 0.00581 561.0 12.0
582(13) 0.00599 561.3 12.3
576(12) 0.00650 561.5 12.5
566(12) 0.00650 561.8 12.8
564(13) 0.00624 562.1 13.1
576(13) 0.00567 562.3 13.4
566(13) 0.00612 562.6 13.7
534(12) 0.00699 562.8 14.0
564(12) 0.00642 563.1 14.3
565(13) 0.00630 563.4 14.6
579(13) 0.00585 563.6 14.9
571(13) 0.00623 563.9 15.3
570(12) 0.00657 564.1 15.7
539(12) 0.00678 564.4 16.0
573(13) 0.00607 564.6 16.4
580(13) 0.00568 564.9 16.8
607(13) 0.00555 565.2 17.2
551(12) 0.00674 565.4 17.7
578(13) 0.00635 565.7 18.1
568(13) 0.00613 565.9 18.6
581(13) 0.00561 566.2 19.1
576(13) 0.00612 566.5 19.6
588(13) 0.00634 566.7 20.1
565(13) 0.00627 567.0 20.7
569(13) 0.00602 567.2 21.2
582(13) 0.00577 567.5 21.8
590(13) 0.00609 567.8 22.4
563(12) 0.00655 568.0 23.1
585(13) 0.00621 568.3 23.8
598(13) 0.00580 568.5 24.5
589(13) 0.00580 568.8 25.2
579(13) 0.00611 569.0 26.0
557(12) 0.00670 569.3 26.8
594(13) 0.00582 569.6 27.6
583(13) 0.00578 569.8 28.5
587(13) 0.00593 570.1 29.5
590(13) 0.00617 570.3 30.4
615(13) 0.00608 570.6 31.5
630(13) 0.00552 570.9 32.5
609(13) 0.00557 571.1 33.7
597(13) 0.00593 571.4 34.9
574(13) 0.00639 571.6 36.1
585(13) 0.00631 571.9 37.4
604(13) 0.00578 572.1 38.8
610(14) 0.00541 572.4 40.3
602(13) 0.00577 572.7 41.9
574(13) 0.00636 572.9 43.6
566(12) 0.00657 573.2 45.3
603(13) 0.00575 573.4 47.2
607(14) 0.00534 573.7 49.2
604(13) 0.00585 574.0 51.3
578(12) 0.00644 574.2 53.5
624(13) 0.00590 574.5 56.0
624(13) 0.00559 574.7 58.5
590(13) 0.00571 575.0 61.3
586(13) 0.00595 575.2 64.2
583(13) 0.00627 575.5 67.4
591(13) 0.00617 575.8 70.8
599(13) 0.00576 576.0 74.5
610(14) 0.00545 576.3 78.5
598(13) 0.00582 576.5 82.7
661(13) 0.00566 576.8 87.4
621(13) 0.00580 577.1 92.4
633(14) 0.00537 577.3 97.9
644(14) 0.00507 577.6 104.0
645(14) 0.00526 577.8 110.5
609(13) 0.00604 578.1 117.7
647(13) 0.00554 578.4 125.7
624(13) 0.00564 578.6 134.4
665(14) 0.00512 578.9 144.1
638(13) 0.00561 579.1 154.9
672(13) 0.00550 579.4 166.9
652(14) 0.00539 579.6 180.4
699(14) 0.00499 579.9 195.5
710(14) 0.00477 580.2 212.6
694(14) 0.00507 580.4 232.0
753(14) 0.00493 580.7 254.2
732(14) 0.00485 580.9 279.7
769(15) 0.00444 581.2 309.0
790(15) 0.00437 581.5 343.3
838(15) 0.00429 581.7 383.4
910(16) 0.00408 582.0 431.0
1020(17) 0.003346 582.2 488.4
1076(18) 0.003126 582.5 559.1
1233(19) 0.002834 582.7 649.1
1478(20) 0.002393 583.0 768.8
1818(22) 0.002050 583.3 935.5
2228(25) 0.001582 583.5 1177.0
2721(29) 0.001215 583.8 1534.0
3488(32) 0.000978 584.0 2059.9
4184(34) 0.000861 584.3 2813.7
4907(36) 0.000755 585. 3846.
5805(41) 0.000598 585. 5180.
6741(46) 0.000482 585. 6779.
7976(49) 0.000425 585. 8513.
9559(52) 0.000377 586. 10106.
11593(56) 0.0003148 586. 11132.
12757(61) 0.0002667 586. 11202.
12091(62) 0.0002611 586. 10285.
10046(54) 0.0003451 587. 8741.
7592(45) 0.000485 587. 7006.
5724(40) 0.000633 587. 5379.
4140(35) 0.000825 587.4 4005.9
3220(32) 0.001001 587.7 2933.8
2553(27) 0.001403 587.9 2145.5
2147(24) 0.001728 588.2 1592.8
1838(22) 0.001981 588.4 1216.7
1561(21) 0.002220 588.7 962.4
1411(21) 0.002329 588.9 787.7
1270(19) 0.002724 589.2 663.0
1131(18) 0.003258 589.5 569.8
1090(17) 0.003366 589.7 496.9
1037(17) 0.003287 590.0 438.0
930(17) 0.00364 590.2 389.3
901(16) 0.00380 590.5 348.2
844(15) 0.00440 590.8 313.3
809(15) 0.00453 591.0 283.3
823(15) 0.00422 591.3 257.4
817(15) 0.00419 591.5 234.8
767(15) 0.00463 591.8 215.1
748(14) 0.00496 592.1 197.7
725(14) 0.00491 592.3 182.3
754(15) 0.00446 592.6 168.6
688(14) 0.00493 592.8 156.4
724(14) 0.00478 593.1 145.5
696(14) 0.00535 593.3 135.7
691(14) 0.00513 593.6 126.8
675(14) 0.00524 593.9 118.7
677(14) 0.00517 594.1 111.4
653(13) 0.00553 594.4 104.8
670(13) 0.00552 594.6 98.7
629(13) 0.00549 594.9 93.1
659(14) 0.00511 595.2 88.0
641(14) 0.00534 595.4 83.3
588(13) 0.00613 595.7 79.0
612(13) 0.00609 595.9 75.0
651(14) 0.00532 596.2 71.3
641(14) 0.00516 596.4 67.8
617(13) 0.00560 596.7 64.6
631(13) 0.00575 597.0 61.7
626(13) 0.00593 597.2 58.9
613(13) 0.00574 597.5 56.3
608(14) 0.00543 597.7 53.9
645(14) 0.00519 598.0 51.6
642(13) 0.00566 598.3 49.4
653(13) 0.00570 598.5 47.4
609(13) 0.00555 598.8 45.6
651(14) 0.00483 599.0 43.8
611(13) 0.00567 599.3 42.1
583(13) 0.00625 599.5 40.5
603(13) 0.00616 599.8 39.0
612(13) 0.00576 600.1 37.6
630(14) 0.00515 600.3 36.3
607(13) 0.00580 600.6 35.0
608(13) 0.00602 600.8 33.8
608(13) 0.00610 601.1 32.7
587(13) 0.00591 601.4 31.6
608(14) 0.00543 601.6 30.6
639(13) 0.00552 601.9 29.6
605(13) 0.00616 602.1 28.6
629(13) 0.00574 602.4 27.7
571(13) 0.00618 602.6 26.9
618(14) 0.00532 602.9 26.1
594(13) 0.00598 603.2 25.3
625(13) 0.00594 603.4 24.6
639(13) 0.00568 603.7 23.9
669(14) 0.00505 603.9 23.2
637(14) 0.00525 604.2 22.5
627(13) 0.00556 604.5 21.9
620(13) 0.00599 604.7 21.3
634(13) 0.00552 605.0 20.7
602(13) 0.00570 605.2 20.2
634(14) 0.00533 605.5 19.6
581(13) 0.00607 605.8 19.1
628(13) 0.00590 606.0 18.6
632(13) 0.00559 606.3 18.2
590(13) 0.00595 606.5 17.7
607(13) 0.00555 606.8 17.3
597(13) 0.00592 607.0 16.9
573(12) 0.00654 607.3 16.5
603(13) 0.00585 607.6 16.1
633(14) 0.00523 607.8 15.7
592(13) 0.00588 608.1 15.3
600(13) 0.00580 608.3 15.0
621(13) 0.00600 608.6 14.6
611(13) 0.00581 608.9 14.3
560(13) 0.00608 609.1 14.0
609(14) 0.00549 609.4 13.7
588(13) 0.00612 609.6 13.4
635(13) 0.00588 609.9 13.1
659(14) 0.00527 610.1 12.8
634(14) 0.00528 610.4 12.5
603(13) 0.00572 610.7 12.3
600(13) 0.00608 610.9 12.0
617(13) 0.00596 611.2 11.8
625(13) 0.00556 611.4 11.6
677(14) 0.00477 611.7 11.3
640(14) 0.00544 612.0 11.1
605(13) 0.00600 612.2 10.9
624(13) 0.00596 612.5 10.7
623(13) 0.00552 612.7 10.5
635(14) 0.00499 613.0 10.3
652(14) 0.00528 613.2 10.1
592(13) 0.00617 613.5 9.9
630(13) 0.00586 613.8 9.7
634(14) 0.00536 614.0 9.5
632(14) 0.00506 614.3 9.3
635(14) 0.00543 614.5 9.2
607(13) 0.00609 614.8 9.0
617(13) 0.00587 615.1 8.9
645(14) 0.00531 615.3 8.7
615(14) 0.00543 615.6 8.6
643(14) 0.00543 615.8 8.4
633(13) 0.00589 616.1 8.3
629(13) 0.00581 616.3 8.1
623(13) 0.00564 616.6 8.0
626(14) 0.00536 616.9 7.9
610(13) 0.00564 617.1 7.7
607(13) 0.00615 617.4 7.6
633(13) 0.00558 617.6 7.5
624(13) 0.00554 617.9 7.4
635(14) 0.00540 618.2 7.2
597(13) 0.00601 618.4 7.1
613(13) 0.00600 618.7 0.0
610(13) 0.00591 618.9 0.0
594(13) 0.00599 619.2 0.0
633(14) 0.00543 619.5 0.0
632(13) 0.00557 619.7 0.0
629(13) 0.00594 620.0 0.0
645(14) 0.00535 620.2 0.0
643(14) 0.00524 620.5 0.0
659(14) 0.00511 620.7 0.0
616(13) 0.00588 621.0 0.0
627(13) 0.00591 621.3 0.0
629(14) 0.00540 621.5 0.0
625(14) 0.00544 621.8 0.0
646(14) 0.00513 622.0 0.0
645(13) 0.00565 622.3 0.0
636(13) 0.00585 622.6 0.0
623(13) 0.00564 622.8 0.0
625(14) 0.00537 623.1 0.0
594(13) 0.00588 623.3 0.0
625(13) 0.00588 623.6 0.0
594(13) 0.00627 623.8 0.0
632(13) 0.00557 624.1 0.0
633(14) 0.00518 624.4 0.0
659(14) 0.00523 624.6 0.0
622(13) 0.00591 624.9 0.0
620(13) 0.00602 625.1 0.0
641(14) 0.00547 625.4 0.0
637(14) 0.00510 625.8 0.0
671(14) 0.00516 626.3 0.0
640(13) 0.00581 626.8 0.0
675(14) 0.00545 627.3 0.0
638(14) 0.00542 627.8 0.0
650(14) 0.00492 628.2 0.0
620(13) 0.00575 628.7 0.0
605(13) 0.00615 629.2 0.0
602(13) 0.00618 629.7 0.0
632(14) 0.00545 630.1 0.0
631(14) 0.00522 630.6 0.0
635(13) 0.00553 631.1 0.0
641(13) 0.00579 631.6 0.0
637(13) 0.00580 632.1 0.0
592(13) 0.00590 632.5 0.0
662(14) 0.00482 633.0 0.0
600(13) 0.00588 633.5 0.0
634(13) 0.00590 634.0 0.0
661(14) 0.00548 634.5 0.0
619(13) 0.00550 634.9 0.0
602(13) 0.00566 635.4 0.0
628(14) 0.00543 635.9 0.0
626(13) 0.00598 636.4 0.0
656(14) 0.00547 636.8 0.0
696(14) 0.00491 637.3 0.0
661(14) 0.00513 637.8 0.0
643(14) 0.00543 638.3 0.0
634(13) 0.00586 638.8 0.0
635(13) 0.00560 639.2 0.0
644(14) 0.00522 639.7 0.0
645(14) 0.00531 640.2 0.0
620(13) 0.00574 640.7 0.0
626(13) 0.00593 641.2 0.0
633(13) 0.00560 641.6 0.0
633(14) 0.00539 642.1 0.0
638(14) 0.00540 642.6 0.0
596(13) 0.00608 643.1 0.0
630(13) 0.00592 643.5 0.0
654(14) 0.00513 644.0 0.0
665(14) 0.00488 644.5 0.0
630(13) 0.00559 645.0 0.0
663(13) 0.00560 645.5 0.0
659(13) 0.00559 645.9 0.0
633(13) 0.00564 646.4 0.0
609(14) 0.00533 646.9 0.0
595(13) 0.00576 647.4 0.0
615(13) 0.00597 647.9 0.0
627(13) 0.00597 648.3 0.0
658(14) 0.00529 648.8 0.0
672(14) 0.00481 649.3 0.0
671(14) 0.00516 649.8 0.0
641(13) 0.00580 650.2 0.0
671(13) 0.00551 650.7 0.0
651(14) 0.00539 651.2 0.0
655(14) 0.00486 651.7 0.0
644(14) 0.00543 652.2 0.0
648(13) 0.00559 652.6 0.0
624(13) 0.00589 653.1 0.0
653(14) 0.00533 653.6 0.0
644(14) 0.00521 654.1 0.0
694(14) 0.00497 654.5 0.0
633(13) 0.00592 655.0 0.0
646(13) 0.00560 655.5 0.0
665(14) 0.00513 656.0 0.0
682(15) 0.00467 656.5 0.0
659(14) 0.00532 656.9 0.0
677(14) 0.00547 657.4 0.0
668(14) 0.00547 657.9 0.0
657(14) 0.00528 658.4 0.0
655(14) 0.00506 658.9 0.0
663(14) 0.00529 659.3 0.0
709(14) 0.00524 659.8 0.0
698(14) 0.00511 660.3 0.0
677(14) 0.00511 660.8 0.0
648(14) 0.00534 661.2 0.0
607(13) 0.00585 661.7 0.0
649(13) 0.00570 662.2 0.0
638(13) 0.00563 662.7 0.0
681(14) 0.00493 663.2 0.0
666(14) 0.00505 663.6 0.0
650(14) 0.00539 664.1 0.0
640(13) 0.00583 664.6 0.0
674(14) 0.00519 665.1 0.0
682(14) 0.00499 665.6 0.0
694(14) 0.00501 666.0 0.0
652(13) 0.00557 666.5 0.0
682(14) 0.00543 667.0 0.0
663(14) 0.00515 667.5 0.0
689(15) 0.00473 667.9 0.0
662(14) 0.00535 668.4 0.0
657(13) 0.00554 668.9 0.0
652(13) 0.00571 669.4 0.0
680(14) 0.00509 669.9 0.0
667(14) 0.00483 670.3 9.5
679(14) 0.00508 670.8 9.7
693(14) 0.00530 671.3 9.8
690(14) 0.00542 671.8 9.9
686(14) 0.00514 672.3 10.0
661(14) 0.00512 672.7 10.1
669(14) 0.00534 673.2 10.2
704(14) 0.00523 673.7 10.4
704(14) 0.00528 674.2 10.5
699(14) 0.00496 674.6 10.6
682(15) 0.00469 675.1 10.7
670(14) 0.00517 675.6 10.9
692(14) 0.00540 676.1 11.0
660(13) 0.00555 676.6 11.1
659(14) 0.00536 677.0 11.3
697(15) 0.00456 677.5 11.4
666(14) 0.00519 678.0 11.6
657(13) 0.00568 678.5 11.7
686(14) 0.00528 679.0 11.9
682(14) 0.00510 679.4 12.0
695(15) 0.00470 679.9 12.2
688(14) 0.00497 680.5 12.3
681(14) 0.00543 681.0 12.5
678(14) 0.00540 681.6 12.6
685(14) 0.00511 682.2 12.8
647(14) 0.00533 682.8 13.0
688(14) 0.00500 683.3 13.2
706(14) 0.00525 683.9 13.3
703(14) 0.00512 684.5 13.5
681(14) 0.00507 685.1 13.7
662(14) 0.00520 685.6 13.9
709(14) 0.00500 686.2 14.1
705(14) 0.00527 686.8 14.3
657(13) 0.00550 687.4 15.0
714(15) 0.00467 687.9 15.2
683(14) 0.00502 688.5 15.4
698(14) 0.00496 689.1 15.7
696(14) 0.00537 689.7 15.9
673(14) 0.00511 690.2 16.1
713(15) 0.00469 690.8 16.3
676(14) 0.00518 691.4 16.6
683(14) 0.00523 691.9 16.8
666(13) 0.00557 692.5 17.1
682(14) 0.00509 693.1 17.4
711(15) 0.00466 693.7 17.6
690(14) 0.00500 694.2 17.9
685(14) 0.00526 694.8 18.2
698(14) 0.00534 695.4 18.5
718(14) 0.00478 696.0 18.7
684(14) 0.00490 696.5 19.0
669(14) 0.00530 697.1 19.4
683(14) 0.00536 697.7 19.7
675(13) 0.00550 698.3 20.0
687(14) 0.00512 698.8 20.3
669(14) 0.00500 699.4 20.7
710(14) 0.00484 700.0 21.0
697(14) 0.00530 700.6 21.4
739(14) 0.00501 701.1 21.7
733(15) 0.00475 701.7 22.1
734(15) 0.00431 702.3 22.5
711(14) 0.00487 702.8 22.9
693(14) 0.00536 703.4 23.3
691(14) 0.00534 704.0 23.7
681(14) 0.00509 704.6 24.1
705(15) 0.00463 705.1 24.5
707(14) 0.00494 705.7 25.0
672(13) 0.00553 706.3 25.5
701(14) 0.00526 706.9 25.9
724(14) 0.00487 707.4 26.4
705(14) 0.00480 708.0 26.9
711(14) 0.00492 708.6 27.4
687(14) 0.00540 709.2 28.0
707(14) 0.00518 709.7 28.5
739(15) 0.00472 710.3 29.1
716(15) 0.00471 710.9 29.6
703(14) 0.00503 711.5 30.2
699(14) 0.00537 712.0 30.9
728(14) 0.00492 712.6 31.5
726(15) 0.00470 713.2 32.1
721(15) 0.00468 713.8 32.8
719(14) 0.00487 714.3 33.5
713(14) 0.00521 714.9 34.2
728(14) 0.00489 715.5 35.0
721(15) 0.00464 716.0 35.7
739(15) 0.00453 716.6 36.5
718(14) 0.00492 717.2 37.3
697(14) 0.00533 717.8 38.2
703(14) 0.00501 718.3 39.0
745(15) 0.00448 718.9 39.9
751(15) 0.00463 719.5 40.9
748(14) 0.00485 720.1 41.9
712(14) 0.00521 720.6 42.9
749(15) 0.00461 721.2 43.9
773(15) 0.00429 721.8 45.0
753(15) 0.00458 722.4 46.1
707(14) 0.00512 722.9 47.2
725(14) 0.00515 723.5 48.5
733(15) 0.00474 724.1 49.7
707(14) 0.00478 724.7 51.0
753(15) 0.00454 725.2 52.4
735(14) 0.00496 725.8 53.8
732(14) 0.00507 726.4 55.2
778(15) 0.00449 727.0 56.7
775(16) 0.00415 727.5 58.3
711(14) 0.00489 728.1 60.0
753(14) 0.00490 728.7 61.7
762(14) 0.00492 729.2 63.5
750(15) 0.00468 729.8 65.4
763(15) 0.00421 730.4 67.4
778(15) 0.00446 731.0 69.4
729(14) 0.00502 731.5 71.6
748(14) 0.00500 732.1 73.8
791(15) 0.00446 732.7 76.2
743(15) 0.00441 733.3 78.7
746(14) 0.00483 733.8 81.3
772(14) 0.00486 734.4 84.0
807(15) 0.00448 735.0 86.9
767(15) 0.00472 735.6 89.9
776(15) 0.00423 736.1 93.1
763(15) 0.00463 736.7 96.5
761(14) 0.00485 737.3 100.0
749(14) 0.00483 737.9 103.8
785(15) 0.00437 738.4 107.7
785(15) 0.00419 739.0 111.9
782(15) 0.00433 739.6 116.4
805(15) 0.00455 740.2 121.1
835(15) 0.00433 740.7 126.1
807(15) 0.00436 741.3 131.4
838(16) 0.00405 741.9 137.1
816(15) 0.00433 742.4 143.2
857(15) 0.00431 743.0 149.6
860(15) 0.00421 743.6 156.5
844(16) 0.00405 744.2 164.0
806(15) 0.00424 744.7 171.9
834(15) 0.00425 745.3 180.5
821(15) 0.00453 745.9 189.7
832(15) 0.00424 746.5 199.7
859(16) 0.00402 747.0 210.5
869(16) 0.00391 747.6 222.2
891(16) 0.00402 748.2 234.9
904(16) 0.00411 748.8 248.8
928(17) 0.00362 749.3 264.0
915(16) 0.00368 749.9 280.6
935(17) 0.00357 750.5 299.0
941(16) 0.00384 751.1 319.3
1034(17) 0.00358 751.6 341.9
1023(17) 0.003330 752.2 367.3
1044(17) 0.003298 752.8 396.2
1074(18) 0.003219 753.3 429.5
1122(18) 0.003253 753.9 468.6
1178(18) 0.003158 754.5 515.6
1215(19) 0.002875 755.1 573.3
1324(20) 0.002495 755.6 645.0
1412(20) 0.002469 756.2 734.3
1554(21) 0.002354 756.8 844.6
1620(21) 0.002276 757.4 978.1
1780(23) 0.001970 757.9 1134.6
1966(25) 0.001637 758.5 1310.3
2152(25) 0.001601 759.1 1495.2
2334(25) 0.001575 759.7 1673.1
2500(26) 0.001483 760.2 1827.6
2731(28) 0.001276 760.8 1957.9
2947(30) 0.001096 761.4 2087.5
3144(30) 0.001098 762.0 2254.3
3300(30) 0.001121 762.5 2497.2
3738(32) 0.000985 763.1 2849.8
4268(35) 0.000819 763.7 3341.9
5025(39) 0.000652 764. 3999.
5946(42) 0.000576 765. 4838.
7015(44) 0.000524 765. 5868.
8149(47) 0.000446 766. 7080.
9462(52) 0.000363 767. 8439.
10947(58) 0.0002989 767. 9866.
12328(60) 0.0002745 768. 11218.
13479(61) 0.0002703 768. 12291.
14142(63) 0.0002508 769. 12856.
13896(64) 0.0002433 769. 12766.
12850(63) 0.0002558 770. 12044.
11589(58) 0.0002948 771. 10870.
10121(53) 0.000362 771. 9470.
8672(50) 0.000404 772. 8037.
7244(46) 0.000472 772. 6691.
6227(43) 0.000537 773. 5496.
5313(39) 0.000655 773. 4479.
4550(35) 0.000814 774.0 3638.6
3868(33) 0.000905 774.6 2962.1
3428(32) 0.000992 775.2 2427.9
3008(29) 0.001152 775.7 2012.1
2711(28) 0.001319 776.3 1690.6
2431(26) 0.001531 776.9 1441.7
2303(26) 0.001506 777.5 1247.6
2095(25) 0.001572 778.0 1093.8
1925(24) 0.001765 778.6 969.8
1758(22) 0.002052 779.2 867.9
1709(21) 0.002168 779.7 782.5
1567(21) 0.002182 780.3 709.8
1509(21) 0.002197 780.9 647.0
1440(20) 0.002401 781.5 592.4
1404(20) 0.002622 782.0 544.4
1342(19) 0.002749 782.6 502.0
1322(20) 0.002568 783.2 464.3
1247(19) 0.002645 783.8 430.6
1172(18) 0.002947 784.3 400.4
1176(18) 0.003098 784.9 373.3
1143(18) 0.003252 785.5 348.7
1133(18) 0.003063 786.1 326.6
1133(19) 0.002839 786.6 306.4
1070(17) 0.003281 787.2 288.0
1102(17) 0.003334 787.8 271.2
1073(17) 0.003466 788.4 255.9
1004(17) 0.003464 788.9 241.8
972(17) 0.003348 789.5 228.8
1033(17) 0.003372 790.1 216.8
986(16) 0.00376 790.7 205.7
991(16) 0.00372 791.2 195.5
936(16) 0.00374 791.8 186.0
928(17) 0.00352 792.4 177.2
942(16) 0.00370 792.9 168.9
895(16) 0.00412 793.5 161.3
929(16) 0.00398 794.1 154.1
935(17) 0.00366 794.7 147.4
919(17) 0.00361 795.2 141.2
928(16) 0.00375 795.8 135.3
935(16) 0.00401 796.4 129.8
923(16) 0.00398 797.0 124.6
910(16) 0.00389 797.5 119.7
903(16) 0.00372 798.1 115.1
872(16) 0.00387 798.7 110.8
932(16) 0.00399 799.3 106.7
876(16) 0.00411 799.8 102.8
883(16) 0.00392 800.4 99.1
890(16) 0.00375 801.0 95.6
850(16) 0.00408 801.6 92.3
853(15) 0.00441 802.1 89.2
878(16) 0.00408 802.7 86.2
881(16) 0.00383 803.3 83.4
847(16) 0.00413 803.8 80.7
849(15) 0.00422 804.4 78.1
859(15) 0.00433 805.0 75.7
844(15) 0.00429 805.6 73.3
823(15) 0.00427 806.1 71.1
844(16) 0.00410 806.7 69.0
863(16) 0.00413 807.3 67.0
829(15) 0.00450 807.9 65.0
833(15) 0.00416 808.4 63.2
843(16) 0.00398 809.0 61.4
880(16) 0.00391 809.6 59.7
865(15) 0.00418 810.2 58.0
813(15) 0.00457 810.7 56.5
851(16) 0.00400 811.3 54.9
857(16) 0.00376 811.9 53.5
858(16) 0.00405 812.5 52.1
822(15) 0.00449 813.0 50.8
826(15) 0.00449 813.6 49.5
831(16) 0.00406 814.2 48.2
841(16) 0.00386 814.8 47.0
861(16) 0.00401 815.3 45.9
848(15) 0.00435 815.9 44.8
837(15) 0.00446 816.5 43.7
866(16) 0.00399 817.0 42.7
866(17) 0.00366 817.6 41.7
819(15) 0.00424 818.2 40.7
835(15) 0.00445 818.8 39.8
811(15) 0.00453 819.3 38.9
835(15) 0.00422 819.9 38.0
824(16) 0.00405 820.5 37.2
847(16) 0.00414 821.1 36.4
865(15) 0.00433 821.6 35.6
826(15) 0.00442 822.2 36.3
865(16) 0.00395 822.8 35.6
818(16) 0.00401 823.4 35.0
853(16) 0.00405 823.9 34.3
814(15) 0.00458 824.5 33.7
792(15) 0.00461 825.1 33.1
818(15) 0.00429 825.7 32.5
874(16) 0.00382 826.2 31.9
864(16) 0.00396 826.8 31.4
827(15) 0.00448 827.4 30.9
815(15) 0.00447 828.0 30.4
841(16) 0.00416 828.5 29.9
848(16) 0.00400 829.1 29.4
818(15) 0.00422 829.7 28.9
831(15) 0.00449 830.2 28.5
850(16) 0.00415 830.8 28.1
830(16) 0.00413 831.4 27.7
833(15) 0.00417 832.0 27.3
856(16) 0.00406 832.5 26.9
836(15) 0.00446 833.1 26.5
836(15) 0.00420 833.7 26.2
807(15) 0.00432 834.3 25.9
825(15) 0.00418 834.8 25.6
827(15) 0.00439 835.4 25.3
795(15) 0.00465 836.0 25.0
877(16) 0.00388 836.6 24.7
844(16) 0.00401 837.1 24.4
836(16) 0.00416 837.7 24.2
859(15) 0.00420 838.3 24.0
837(15) 0.00444 838.9 23.7
847(16) 0.00404 839.5 23.5
863(16) 0.00383 840.1 23.4
856(15) 0.00417 840.7 23.2
849(15) 0.00426 841.3 23.0
820(15) 0.00452 841.9 22.9
865(16) 0.00403 842.5 22.8
889(17) 0.00365 843.0 22.7
876(16) 0.00391 843.6 22.6
863(15) 0.00424 844.2 22.5
895(16) 0.00415 844.8 22.5
850(16) 0.00396 845.4 22.5
810(16) 0.00406 846.0 22.5
886(16) 0.00387 846.6 22.5
867(15) 0.00428 847.2 22.5
876(15) 0.00424 847.8 22.6
904(16) 0.00387 848.4 22.7
902(17) 0.00358 849.0 22.8
882(16) 0.00397 849.6 23.0
856(15) 0.00431 850.2 23.2
862(15) 0.00426 850.7 23.4
826(15) 0.00428 851.3 23.7
852(16) 0.00388 851.9 24.1
852(16) 0.00403 852.5 24.5
871(15) 0.00424 853.1 24.9
879(16) 0.00412 853.7 25.4
874(16) 0.00392 854.3 26.0
876(16) 0.00369 854.9 26.7
858(16) 0.00394 855.5 27.5
867(15) 0.00428 856.1 28.4
859(15) 0.00421 856.7 29.4
867(16) 0.00399 857.3 30.6
878(16) 0.00388 857.8 31.9
849(16) 0.00408 858.4 33.4
878(15) 0.00427 859.0 35.2
875(16) 0.00407 859.6 37.3
872(16) 0.00400 860.2 39.7
878(16) 0.00389 860.8 42.6
865(16) 0.00410 861.4 45.9
921(16) 0.00404 862.0 49.9
866(16) 0.00411 862.6 54.6
919(16) 0.00368 863.2 60.3
916(16) 0.00374 863.8 67.4
950(16) 0.00378 864.4 76.1
987(16) 0.00378 865.0 87.5
1060(17) 0.003288 865.5 103.1
1091(18) 0.003121 866.1 126.8
1114(18) 0.003129 866.7 166.3
1283(19) 0.002793 867.3 236.0
1447(20) 0.002568 867.9 358.5
1623(22) 0.002101 868.5 562.3
1826(23) 0.001847 869.1 870.7
2028(24) 0.001697 869.7 1286.4
2247(25) 0.001624 870.3 1769.7
2650(27) 0.001399 870.9 2224.8
3207(31) 0.001074 871.5 2489.2
3575(33) 0.000907 872.1 2450.2
3624(32) 0.000949 872.7 2119.0
2687(27) 0.001386 873.2 1645.3
1860(23) 0.001957 873.8 1171.2
1520(21) 0.002250 874.4 778.7
1246(19) 0.002652 875.0 495.9
1156(18) 0.002988 875.6 313.5
1072(17) 0.003455 876.2 205.5
1036(17) 0.00359 876.8 144.4
947(16) 0.00373 877.4 109.5
957(17) 0.003403 878.0 88.1
945(16) 0.00372 878.6 73.5
932(16) 0.00399 879.2 62.8
929(16) 0.00403 879.8 54.3
953(17) 0.00359 880.3 47.5
913(17) 0.00362 880.9 41.9
915(16) 0.00385 881.5 37.2
905(16) 0.00410 882.1 33.2
901(16) 0.00407 882.7 29.9
897(16) 0.00391 883.3 27.0
881(16) 0.00370 883.9 24.5
884(16) 0.00394 884.5 22.3
869(15) 0.00427 885.1 20.5
897(16) 0.00405 885.7 18.8
895(16) 0.00385 886.3 17.3
878(16) 0.00388 886.9 16.0
900(16) 0.00382 887.5 14.9
922(16) 0.00403 888.0 13.8
955(16) 0.00371 888.6 12.9
923(16) 0.00376 889.2 12.0
904(16) 0.00377 889.8 11.3
891(16) 0.00395 890.4 10.6
894(16) 0.00415 891.0 10.0
837(15) 0.00433 891.6 9.4
913(16) 0.00379 892.2 8.8
878(16) 0.00402 892.8 8.4
897(16) 0.00394 893.4 7.9
893(16) 0.00415 894.0 7.5
879(16) 0.00399 894.6 7.1
951(17) 0.00360 895.2 6.8
921(16) 0.00379 895.7 6.4
924(16) 0.00386 896.3 7.5
884(15) 0.00421 896.9 7.3
929(17) 0.00366 897.5 7.0
928(17) 0.00363 898.1 6.8
914(16) 0.00383 898.7 6.6
894(16) 0.00406 899.3 6.4
923(16) 0.00403 899.9 6.2
874(16) 0.00402 900.5 6.0
906(17) 0.00367 901.1 5.8
942(16) 0.00370 901.7 5.7
886(15) 0.00418 902.3 5.5
926(16) 0.00399 902.9 5.4
923(16) 0.00381 903.4 5.3
933(17) 0.00354 904.0 5.1
961(17) 0.00359 904.6 5.0
929(16) 0.00397 905.2 4.9
956(16) 0.00390 905.8 4.8
916(16) 0.00389 906.4 4.7
876(16) 0.00375 907.0 4.6
915(16) 0.00380 907.6 4.6
976(16) 0.00381 908.2 4.5
936(16) 0.00396 908.8 4.4
926(16) 0.00373 909.4 4.3
914(17) 0.003492 910.0 4.3
882(16) 0.00393 910.6 4.2
948(16) 0.00390 911.2 4.2
899(16) 0.00410 911.8 4.1
953(17) 0.00356 912.4 4.1
953(17) 0.003418 913.1 4.0
965(17) 0.00352 913.7 4.0
921(16) 0.00405 914.3 3.9
917(16) 0.00397 914.9 3.9
916(16) 0.00382 915.5 3.8
938(17) 0.00356 916.2 3.8
974(17) 0.003464 916.8 3.8
923(16) 0.00401 917.4 3.7
929(16) 0.00386 918.0 3.7
892(16) 0.00393 918.7 3.7
932(17) 0.00365 919.3 3.7
927(16) 0.00380 919.9 3.7
927(16) 0.00401 920.5 3.6
932(16) 0.00386 921.2 3.6
941(17) 0.00359 921.8 2.1
903(16) 0.00378 922.4 2.1
923(16) 0.00382 923.0 2.1
914(16) 0.00409 923.7 2.1
890(16) 0.00396 924.3 2.2
935(17) 0.00357 924.9 2.2
922(16) 0.00371 925.5 2.2
966(16) 0.00374 926.2 2.2
946(16) 0.00392 926.8 2.3
933(17) 0.00362 927.4 2.3
917(17) 0.00365 928.0 2.3
933(16) 0.00373 928.7 2.3
943(16) 0.00383 929.3 2.4
957(16) 0.00390 929.9 2.4
979(17) 0.003469 930.5 2.4
955(17) 0.003426 931.2 2.4
921(16) 0.00379 931.8 2.5
942(16) 0.00382 932.4 2.5
963(16) 0.00384 933.0 2.5
935(16) 0.00378 933.7 2.6
942(17) 0.003502 934.3 2.6
963(17) 0.00362 934.9 2.6
930(16) 0.00397 935.5 2.6
951(16) 0.00393 936.1 2.7
967(17) 0.00363 936.8 2.7
938(17) 0.003454 937.4 2.7
935(16) 0.00378 938.0 2.8
953(16) 0.00389 938.6 2.8
1002(16) 0.00369 939.3 2.8
953(16) 0.00375 939.9 2.9
949(17) 0.003410 940.5 2.9
929(16) 0.00368 941.1 2.9
941(16) 0.00393 941.8 3.0
961(16) 0.00387 942.4 3.0
919(16) 0.00388 943.0 3.1
1011(18) 0.003242 943.6 3.1
984(17) 0.003494 944.3 3.1
988(16) 0.00376 944.9 3.2
930(16) 0.00397 945.5 3.2
977(17) 0.00357 946.1 3.3
967(17) 0.003447 946.8 3.3
970(17) 0.00351 947.4 3.4
938(16) 0.00398 948.0 3.4
940(16) 0.00388 948.6 3.4
913(16) 0.00385 949.3 3.5
938(17) 0.00366 949.9 3.5
960(17) 0.00365 950.5 3.6
922(16) 0.00402 951.1 3.6
928(16) 0.00380 951.8 3.7
981(17) 0.003480 952.4 3.7
973(17) 0.003456 953.0 3.8
949(16) 0.00370 953.6 3.8
966(16) 0.00387 954.3 3.9
964(17) 0.00364 954.9 4.0
956(17) 0.00359 955.5 4.0
1025(18) 0.003265 956.1 4.1
974(16) 0.00370 956.7 4.1
995(16) 0.00372 957.4 4.2
971(17) 0.003507 958.0 4.3
908(16) 0.00372 958.6 4.3
976(17) 0.00354 959.2 4.4
981(16) 0.00372 959.9 4.5
988(16) 0.00378 960.5 4.5
949(17) 0.00363 961.1 4.6
967(17) 0.003390 961.7 4.7
958(17) 0.00362 962.4 4.7
998(16) 0.00368 963.0 4.8
1026(17) 0.00360 963.6 4.9
1003(17) 0.003495 964.2 5.0
965(17) 0.003453 964.9 5.0
979(17) 0.00357 965.5 5.1
983(16) 0.00373 966.1 5.2
1010(16) 0.00369 966.7 5.3
977(17) 0.00360 967.4 5.4
991(17) 0.003287 968.0 5.5
998(17) 0.003468 968.6 5.6
964(16) 0.00386 969.2 5.7
1014(17) 0.00365 969.9 5.8
1009(17) 0.003438 970.5 5.9
979(17) 0.003365 971.1 6.0
998(17) 0.003450 971.7 6.1
948(16) 0.00392 972.4 6.2
977(16) 0.00376 973.0 6.3
1003(17) 0.003383 973.6 6.4
987(17) 0.003291 974.2 6.5
956(17) 0.00358 974.8 6.7
991(16) 0.00374 975.5 6.8
979(16) 0.00379 976.1 6.9
1026(17) 0.003453 976.7 7.1
1042(18) 0.003169 977.3 7.2
1001(17) 0.003449 978.0 7.3
983(16) 0.00379 978.6 7.5
975(16) 0.00370 979.2 7.6
1012(17) 0.003387 979.8 7.8
1008(17) 0.003309 980.5 7.9
1022(17) 0.003320 981.1 8.1
1005(16) 0.00371 981.7 8.3
986(17) 0.00365 982.4 8.5
957(17) 0.00361 983.0 8.6
997(17) 0.003381 983.6 8.8
1015(17) 0.003488 984.3 9.0
975(16) 0.00380 984.9 9.2
975(17) 0.00362 985.6 9.4
1020(17) 0.003285 986.2 9.6
1007(17) 0.003409 986.9 9.8
1004(17) 0.00355 987.5 10.1
974(16) 0.00379 988.2 10.3
1044(17) 0.003358 988.8 10.5
1051(18) 0.003220 989.4 10.8
1022(17) 0.003399 990.1 11.1
1029(17) 0.003500 990.7 11.3
998(16) 0.00375 991.4 11.6
984(17) 0.003494 992.0 11.9
990(17) 0.003388 992.7 12.2
1010(17) 0.003491 993.3 12.5
1069(17) 0.003411 994.0 12.8
999(16) 0.00373 994.6 13.2
1003(17) 0.003455 995.2 13.5
1030(18) 0.003131 995.9 13.9
1038(17) 0.003338 996.5 14.3
1044(17) 0.00356 997.2 14.7
1002(16) 0.00369 997.8 15.1
1006(17) 0.003454 998.5 15.5
998(18) 0.003260 999.1 16.0
1017(17) 0.003337 999.8 16.4
983(16) 0.00378 1000.4 16.9
1020(17) 0.00363 1001.1 17.4
987(17) 0.003486 1001.7 18.0
990(17) 0.003333 1002.3 18.5
1054(17) 0.003343 1003.0 19.1
1031(17) 0.00360 1003.6 19.7
1086(17) 0.003381 1004.3 20.4
1027(17) 0.003409 1004.9 21.1
1046(18) 0.003063 1005.6 21.8
1067(18) 0.003244 1006.2 22.5
1051(17) 0.00353 1006.9 23.3
1008(17) 0.00362 1007.5 24.1
1068(18) 0.003261 1008.1 25.0
1028(18) 0.003260 1008.8 25.9
969(17) 0.00356 1009.4 26.9
1045(17) 0.00355 1010.1 28.0
1052(17) 0.003444 1010.7 29.0
1058(17) 0.003268 1011.4 30.2
1035(17) 0.003268 1012.0 31.4
1064(18) 0.003228 1012.7 32.7
1023(17) 0.00365 1013.3 34.1
1043(17) 0.003390 1013.9 35.6
1036(18) 0.003240 1014.6 37.1
1034(18) 0.003208 1015.2 38.8
1013(17) 0.003482 1015.9 40.6
1073(17) 0.003467 1016.5 42.5
1029(17) 0.00352 1017.2 44.6
1099(18) 0.003102 1017.8 46.8
1061(17) 0.003282 1018.5 49.1
1012(17) 0.00356 1019.1 51.7
1095(17) 0.003397 1019.7 54.4
1029(17) 0.003413 1020.4 57.4
1097(18) 0.003083 1021.0 60.6
1071(18) 0.003222 1021.7 64.1
1076(17) 0.003321 1022.3 67.9
1026(17) 0.00360 1023.0 72.1
1049(17) 0.003274 1023.6 76.6
1090(18) 0.003020 1024.3 81.6
1142(18) 0.002968 1024.9 87.0
1116(18) 0.003211 1025.5 93.0
1144(18) 0.003248 1026.2 99.6
1168(18) 0.002984 1026.8 107.0
1130(19) 0.002922 1027.5 115.2
1131(18) 0.003067 1028.1 124.4
1146(18) 0.003243 1028.8 134.7
1153(18) 0.003179 1029.4 146.5
1181(19) 0.002878 1030.1 159.9
1160(19) 0.002811 1030.7 175.3
1203(19) 0.002883 1031.3 193.4
1243(18) 0.002976 1032.0 214.8
1217(18) 0.003065 1032.6 240.3
1233(19) 0.002835 1033.3 271.2
1278(20) 0.002488 1033.9 309.0
1344(20) 0.002529 1034.6 355.4
1441(20) 0.002576 1035.2 412.5
1455(20) 0.002516 1035.9 482.6
1520(21) 0.002306 1036.5 568.2
1688(23) 0.001933 1037.1 671.8
1785(23) 0.001958 1037.8 795.4
1929(23) 0.001913 1038.4 940.5
2117(24) 0.001728 1039.1 1107.4
2290(26) 0.001525 1039.7 1294.6
2589(28) 0.001263 1040.4 1497.1
2806(28) 0.001235 1041.0 1705.3
3056(29) 0.001215 1041.7 1902.9
3093(29) 0.001181 1042.3 2067.4
3227(31) 0.001066 1042.9 2173.5
3289(32) 0.001003 1043.6 2201.1
3150(30) 0.001096 1044.2 2144.5
2961(28) 0.001247 1044.9 2015.2
2744(28) 0.001299 1045.5 1836.2
2525(27) 0.001347 1046.2 1632.6
2347(27) 0.001423 1046.8 1424.9
2134(25) 0.001633 1047.5 1227.0
2005(23) 0.001856 1048.1 1046.6
1884(23) 0.001878 1048.7 887.2
1792(23) 0.001897 1049.4 749.7
1710(23) 0.001959 1050.0 633.4
1590(21) 0.002242 1050.7 536.3
1497(20) 0.002489 1051.3 456.5
1504(21) 0.002283 1052.0 391.2
1420(20) 0.002384 1052.6 338.1
1392(20) 0.002493 1053.3 295.0
1335(19) 0.002671 1053.9 259.8
1298(19) 0.002872 1054.6 230.9
1334(20) 0.002591 1055.2 206.9
1319(20) 0.002559 1055.8 186.8
1283(19) 0.002691 1056.5 169.7
1247(19) 0.002900 1057.1 155.0
1243(18) 0.002981 1057.8 142.3
1238(19) 0.002756 1058.4 131.1
1191(19) 0.002802 1059.1 121.2
1195(19) 0.002907 1059.7 112.3
1185(18) 0.003099 1060.4 104.4
1172(18) 0.003141 1061.0 97.3
1159(18) 0.002986 1061.6 90.9
1193(19) 0.002751 1062.3 85.1
1139(18) 0.003077 1062.9 79.9
1131(18) 0.003240 1063.6 75.1
1142(18) 0.003238 1064.2 70.7
1167(18) 0.002953 1064.9 66.7
1111(19) 0.002918 1065.5 63.0
1169(18) 0.002966 1066.2 59.6
1186(18) 0.003141 1066.8 56.4
1173(18) 0.003142 1067.4 53.6
1143(18) 0.003028 1068.1 50.9
1092(18) 0.002970 1068.7 48.4
1134(18) 0.003098 1069.4 46.1
1166(18) 0.003167 1070.0 43.9
1120(17) 0.003305 1070.7 41.9
1118(18) 0.003127 1071.3 40.1
1156(19) 0.002886 1072.0 38.3
1164(18) 0.002951 1072.6 36.7
1116(17) 0.003343 1073.2 35.2
1079(17) 0.003423 1073.9 33.7
1159(18) 0.002979 1074.5 32.4
1159(19) 0.002869 1075.2 31.1
1120(18) 0.003079 1075.8 29.9
1144(18) 0.003236 1076.5 28.8
1116(18) 0.003250 1077.1 27.7
1096(18) 0.003195 1077.8 26.7
1104(18) 0.003017 1078.4 25.7
1096(18) 0.003167 1079.0 24.8
1115(17) 0.003340 1079.7 24.0
1113(18) 0.003226 1080.3 23.2
1121(18) 0.003088 1081.0 22.4
1127(18) 0.003048 1081.6 21.7
1143(18) 0.003042 1082.3 21.0
1117(17) 0.003332 1082.9 20.3
1075(17) 0.003293 1083.6 19.7
1098(18) 0.003126 1084.2 19.1
1089(18) 0.003123 1084.8 18.5
1075(17) 0.003288 1085.5 17.9
1104(17) 0.003373 1086.1 17.4
1099(18) 0.003152 1086.8 16.9
1133(19) 0.002905 1087.4 16.4
1082(18) 0.003209 1088.1 16.0
1113(18) 0.003212 1088.7 15.5
1098(17) 0.003380 1089.4 15.1
1141(18) 0.002964 1090.0 14.7
1141(19) 0.002908 1090.6 14.3
1106(18) 0.003084 1091.3 13.9
1091(17) 0.003302 1091.9 13.6
1083(17) 0.003427 1092.6 13.2
1141(18) 0.003018 1093.2 12.9
1101(18) 0.003009 1093.9 12.6
1055(17) 0.003362 1094.5 12.3
1093(17) 0.003397 1095.2 12.0
1097(17) 0.003379 1095.8 11.7
1144(18) 0.003016 1096.4 11.4
1135(19) 0.002817 1097.1 11.2
1093(18) 0.003184 1097.7 10.9
1112(17) 0.003320 1098.4 10.7
1118(17) 0.003326 1099.0 10.4
1134(18) 0.003040 1099.7 10.2
1063(18) 0.003027 1100.3 10.0
1101(18) 0.003181 1101.0 9.8
1118(17) 0.003311 1101.6 9.6
1159(18) 0.003165 1102.3 9.4
1142(18) 0.003071 1102.9 9.2
1101(18) 0.003072 1103.5 9.0
1133(18) 0.003046 1104.2 8.8
1107(17) 0.003359 1104.8 8.6
1138(18) 0.003177 1105.5 8.4
1162(18) 0.002930 1106.1 8.3
1126(18) 0.002937 1106.8 8.1
1045(17) 0.003344 1107.4 8.0
1164(18) 0.003180 1108.1 7.8
1131(18) 0.003218 1108.7 7.7
1101(18) 0.003137 1109.3 7.5
1131(18) 0.002956 1110.0 7.4
1120(18) 0.003109 1110.6 7.3
1130(17) 0.003285 1111.3 7.1
1106(18) 0.003257 1111.9 7.0
1131(18) 0.003046 1112.6 6.9
1126(18) 0.003068 1113.2 6.8
1152(18) 0.003075 1113.9 6.7
1093(17) 0.003380 1114.5 6.6
1153(18) 0.003074 1115.1 6.5
1121(18) 0.003101 1115.8 6.4
1116(18) 0.003134 1116.4 6.3
1102(17) 0.003298 1117.1 6.2
1117(17) 0.003324 1117.7 6.1
1055(17) 0.003293 1118.4 6.0
1117(18) 0.003003 1119.0 5.9
1134(18) 0.003044 1119.7 5.8
1152(18) 0.003168 1120.3 5.7
1181(18) 0.003144 1120.9 5.6
1150(18) 0.003007 1121.6 5.5
1104(18) 0.003051 1122.2 5.5
1121(18) 0.003113 1122.9 5.4
1108(17) 0.003276 1123.5 5.3
1104(17) 0.003352 1124.2 5.2
1150(18) 0.002978 1124.8 5.2
1172(19) 0.002775 1125.5 5.1
1135(18) 0.003105 1126.1 5.1
1133(18) 0.003233 1126.7 5.0
1138(17) 0.003267 1127.4 4.9
1141(18) 0.003063 1128.0 4.9
1127(19) 0.002894 1128.7 4.8
1140(18) 0.003105 1129.3 4.8
1115(17) 0.003310 1130.0 4.7
1122(17) 0.003316 1130.6 4.7
1129(18) 0.003142 1131.3 4.6
1139(19) 0.002795 1131.7 4.6
1141(18) 0.003102 1131.8 4.5
1166(18) 0.003161 1132.0 4.5
1150(18) 0.003235 1132.2 4.4
1189(19) 0.002921 1132.4 4.4
1146(19) 0.002892 1132.6 4.3
1179(18) 0.002922 1132.7 4.3
1136(17) 0.003287 1132.9 4.3
1116(17) 0.003284 1133.1 4.2
1140(18) 0.002984 1133.3 4.2
1136(18) 0.002926 1133.5 4.2
1148(18) 0.003034 1133.6 4.1
1123(17) 0.003290 1133.8 4.1
1134(18) 0.003186 1134.0 4.1
1151(18) 0.002986 1134.2 4.1
1178(19) 0.002810 1134.4 4.0
1138(18) 0.003052 1134.5 4.0
1135(17) 0.003285 1134.7 4.0
1164(18) 0.003040 1134.9 4.0
1190(19) 0.002883 1135.1 4.0
1157(19) 0.002899 1135.3 3.9
1166(18) 0.002991 1135.4 3.9
1141(17) 0.003270 1135.6 3.9
1122(18) 0.003202 1135.8 3.9
1169(19) 0.002900 1136.0 3.9
1161(19) 0.002906 1136.2 3.9
1194(18) 0.002986 1136.3 3.9
1141(18) 0.003225 1136.5 3.9
1092(18) 0.003215 1136.7 3.9
1131(18) 0.002962 1136.9 3.9
1153(18) 0.002979 1137.1 3.9
1145(18) 0.003102 1137.2 3.9
1104(17) 0.003349 1137.4 3.9
1187(19) 0.002896 1137.6 4.0
1149(19) 0.002913 1137.8 4.0
1096(18) 0.003157 1138.0 4.0
1135(18) 0.003186 1138.1 4.0
1100(17) 0.003365 1138.3 4.1
1089(18) 0.003220 1138.5 4.1
1124(18) 0.002970 1138.7 4.1
1153(18) 0.003018 1138.9 4.2
1101(17) 0.003321 1139.0 4.2
1113(17) 0.003311 1139.2 4.3
1157(18) 0.002957 1139.4 4.4
1219(19) 0.002640 1139.6 4.4
1151(18) 0.003024 1139.8 4.5
1173(18) 0.003131 1139.9 4.6
1178(18) 0.003149 1140.1 4.7
1185(19) 0.002901 1140.3 4.8
1208(20) 0.002551 1140.5 4.9
1139(18) 0.003037 1140.7 5.0
1146(18) 0.003236 1140.8 5.2
1176(18) 0.003129 1141.0 5.3
1145(18) 0.003068 1141.2 5.5
1147(19) 0.002846 1141.4 5.7
1133(18) 0.003030 1141.6 5.9
1176(18) 0.003135 1141.7 6.1
1183(18) 0.003058 1141.9 6.4
1142(18) 0.003102 1142.1 6.7
1158(19) 0.002803 1142.3 7.0
1200(19) 0.002902 1142.5 7.3
1195(18) 0.003104 1142.6 7.8
1179(18) 0.003053 1142.8 8.2
1134(18) 0.003040 1143.0 8.8
1179(19) 0.002802 1143.2 9.4
1155(18) 0.002990 1143.4 10.1
1181(18) 0.003156 1143.5 11.0
1197(18) 0.003048 1143.7 12.0
1185(18) 0.002931 1143.9 13.3
1167(19) 0.002841 1144.1 14.8
1152(18) 0.002991 1144.3 16.6
1177(18) 0.003152 1144.4 18.8
1200(18) 0.002930 1144.6 21.4
1192(19) 0.002861 1144.8 24.5
1180(19) 0.002872 1145.0 28.3
1185(18) 0.002960 1145.2 32.6
1235(18) 0.003003 1145.3 37.7
1223(19) 0.002912 1145.5 43.4
1232(19) 0.002776 1145.7 49.7
1184(18) 0.002964 1145.9 56.5
1206(18) 0.002934 1146.1 63.6
1232(18) 0.003034 1146.2 70.4
1258(19) 0.002729 1146.4 76.6
1257(19) 0.002682 1146.6 81.4
1215(19) 0.002890 1146.8 84.0
1260(19) 0.002915 1147.0 84.1
1310(19) 0.002849 1147.1 81.7
1264(19) 0.002759 1147.3 77.1
1243(19) 0.002711 1147.5 71.0
1261(19) 0.002729 1147.7 64.2
1219(18) 0.003011 1147.9 57.1
1257(18) 0.002959 1148.0 50.2
1253(19) 0.002811 1148.2 43.9
1179(19) 0.002825 1148.4 38.1
1172(18) 0.003008 1148.6 33.0
1186(18) 0.003125 1148.8 28.6
1191(18) 0.003093 1148.9 24.8
1159(18) 0.002953 1149.1 21.6
1167(19) 0.002795 1149.3 17.6
1175(18) 0.002982 1149.5 15.4
1184(18) 0.003138 1149.7 13.6
1152(18) 0.003222 1149.8 12.1
1154(18) 0.003021 1150.0 10.8
1176(19) 0.002759 1150.2 9.8
1188(18) 0.002932 1150.4 9.0
1128(17) 0.003292 1150.6 8.3
1164(18) 0.003181 1150.8 7.7
1175(18) 0.002997 1150.9 7.3
1184(19) 0.002816 1151.1 6.9
1176(18) 0.002970 1151.3 6.5
1164(18) 0.003211 1151.5 6.3
1213(18) 0.002982 1151.6 6.0
1189(18) 0.002970 1151.8 5.8
1164(19) 0.002877 1152.0 5.7
1192(19) 0.002873 1152.2 5.6
1203(18) 0.003082 1152.4 5.5
1183(18) 0.003069 1152.5 5.4
1178(19) 0.002921 1152.7 5.4
1146(18) 0.002954 1152.9 5.3
1162(18) 0.002996 1153.1 5.3
1190(18) 0.003117 1153.3 5.2
1151(18) 0.003101 1153.4 5.1
1158(18) 0.002977 1153.6 5.0
1202(19) 0.002831 1153.8 4.9
1211(19) 0.002913 1154.0 4.7
1186(18) 0.003138 1154.2 4.6
1164(18) 0.003053 1154.3 4.4
1167(19) 0.002868 1154.5 4.2
1202(19) 0.002847 1154.7 4.0
1170(18) 0.003049 1154.9 3.8
1126(17) 0.003312 1155.1 3.6
1160(18) 0.002951 1155.3 3.4
1143(18) 0.002949 1155.4 3.2
1203(19) 0.002869 1155.6 3.0
1196(18) 0.003065 1155.8 2.8
1086(17) 0.003416 1156.0 2.6
1205(19) 0.002888 1156.1 2.5
1176(19) 0.002862 1156.3 2.3
1196(19) 0.002919 1156.5 2.2
1145(18) 0.003218 1156.7 2.0
1155(18) 0.003214 1156.9 1.9
1175(18) 0.002948 1157.0 1.8
1236(19) 0.002704 1157.2 1.7
1165(18) 0.003046 1157.4 1.6
1165(18) 0.003142 1157.6 1.5
1181(18) 0.003146 1157.8 1.5
1157(18) 0.002981 1157.9 1.4
1188(19) 0.002674 1158.1 1.3
1175(19) 0.002910 1158.3 1.3
1153(18) 0.003190 1158.5 1.2
1194(18) 0.003104 1158.7 1.2
1206(18) 0.002928 1158.8 1.1
1225(20) 0.002604 1159.0 1.1
1222(19) 0.002805 1159.2 1.0
1184(18) 0.003154 1159.4 1.0
1193(18) 0.003078 1159.6 1.0
1176(18) 0.002963 1159.8 0.9
1188(19) 0.002713 1159.9 0.9
1194(19) 0.002834 1160.1 0.9
1201(18) 0.003110 1160.3 0.8
1181(18) 0.003109 1160.5 0.8
1178(18) 0.003000 1160.7 0.8
1162(19) 0.002845 1160.8 0.8
1176(18) 0.002940 1161.0 0.7
1165(18) 0.003195 1161.2 0.7
1191(18) 0.003027 1161.4 0.7
1211(19) 0.002862 1161.5 0.7
1161(18) 0.002926 1161.7 0.7
1172(18) 0.002991 1161.9 0.6
1195(18) 0.003101 1162.1 0.6
1171(18) 0.003071 1162.3 0.6
1184(19) 0.002914 1162.4 0.6
1189(19) 0.002807 1162.6 0.6
1200(19) 0.002893 1162.8 0.6
1169(18) 0.003172 1163.0 0.5
1166(18) 0.003005 1163.2 0.5
1161(18) 0.002930 1163.3 0.5
1151(18) 0.003020 1163.5 0.5
1200(18) 0.002990 1163.7 0.5
1130(17) 0.003283 1163.9 0.5
1154(18) 0.003074 1164.1 0.5
1187(19) 0.002862 1164.3 0.5
1201(19) 0.002866 1164.4 0.5
1176(18) 0.003099 1164.6 0.4
1167(18) 0.003184 1164.8 0.4
1213(19) 0.002807 1165.0 0.4
1169(19) 0.002853 1165.2 0.4
1193(18) 0.002967 1165.3 0.4
1224(18) 0.002985 1165.5 0.4
1217(18) 0.003061 1165.7 0.4
1173(18) 0.002955 1165.9 0.4
1165(19) 0.002885 1165.6 0.4
1173(18) 0.002962 1165.3 0.4
1168(18) 0.003139 1165.0 0.4
1112(17) 0.003329 1164.7 0.4
1137(18) 0.003049 1164.4 0.3
1196(19) 0.002719 1164.1 0.3
1184(18) 0.002975 1163.8 0.3
1151(18) 0.003225 1163.4 0.3
1186(18) 0.003103 1163.1 0.3
1224(19) 0.002812 1162.8 0.3
1172(19) 0.002821 1162.5 0.3
1196(19) 0.002879 1162.2 0.3
1185(18) 0.003140 1161.9 0.3
1182(18) 0.003114 1161.6 0.3
1167(18) 0.002968 1161.2 0.3
1153(19) 0.002845 1160.9 0.3
1145(18) 0.003059 1160.6 0.3
1216(18) 0.003059 1160.3 0.3
1205(18) 0.003032 1160.0 0.3
1199(19) 0.002906 1159.7 0.3
1164(19) 0.002850 1159.4 0.3
1146(18) 0.003073 1159.0 0.3
1200(18) 0.003075 1158.7 0.2
1176(18) 0.003108 1158.4 0.2
1195(19) 0.002852 1158.1 0.2
1196(19) 0.002770 1157.8 0.2
1197(19) 0.002858 1157.5 0.2
1183(18) 0.003147 1157.2 0.2
1199(18) 0.002999 1156.9 0.2
1153(18) 0.003001 1156.5 0.2
1177(19) 0.002899 1156.2 0.2
1172(18) 0.002972 1155.9 0.2
1155(18) 0.003207 1155.6 0.2
1153(18) 0.003090 1155.3 0.2
1172(18) 0.002929 1155.0 0.2
1152(18) 0.003028 1154.7 0.2
1167(18) 0.003065 1154.3 0.2
1181(18) 0.003159 1154.0 0.2
1180(18) 0.002992 1153.7 0.2
1143(18) 0.003034 1153.4 0.2
1186(19) 0.002897 1153.1 0.2
1173(18) 0.003047 1152.8 0.2
1186(18) 0.003130 1152.5 0.2
1150(18) 0.003012 1152.1 0.2
1177(19) 0.002881 1151.8 0.2
1172(18) 0.002978 1151.5 0.2
1186(18) 0.003060 1151.2 0.2
1180(18) 0.003149 1150.9 0.2
1209(19) 0.002836 1150.6 0.2
1191(19) 0.002794 1150.3 0.2
1169(18) 0.002990 1149.9 0.2
1182(18) 0.003067 1149.6 0.2
1182(18) 0.003134 1149.3 0.2
1190(18) 0.002926 1149.0 0.2
1153(19) 0.002878 1148.7 0.2
1167(18) 0.003032 1148.4 0.2
1199(18) 0.003089 1148.1 0.2
1193(18) 0.003068 1147.8 0.2
1223(19) 0.002846 1147.4 0.1
1165(19) 0.002806 1147.1 0.1
1154(18) 0.003038 1146.8 0.1
1161(18) 0.003169 1146.5 0.1
1130(17) 0.003295 1146.2 0.1
1167(18) 0.002987 1145.9 0.1
1232(19) 0.002632 1145.6 0.1
1188(18) 0.002943 1145.2 0.1
1220(18) 0.003023 1144.9 0.1
1216(18) 0.003017 1144.6 0.1
1218(19) 0.002819 1144.3 0.1
1196(19) 0.002766 1144.0 0.1
1160(18) 0.002967 1143.7 0.1
1174(18) 0.003146 1143.4 0.1
1185(18) 0.003081 1143.0 0.1
1169(19) 0.002918 1142.7 0.1
1176(19) 0.002786 1142.4 0.1
1193(19) 0.002893 1142.1 0.1
1191(18) 0.003122 1141.8 0.1
1164(18) 0.003090 1141.5 0.1
1145(18) 0.003022 1141.2 0.1
1169(19) 0.002900 1140.8 0.1
1178(18) 0.002927 1140.5 0.1
1151(18) 0.003240 1140.2 0.1
1195(18) 0.002990 1139.9 0.1
1170(18) 0.002982 1139.6 0.1
1211(19) 0.002802 1139.3 0.1
1212(19) 0.002906 1139.0 0.1
1172(18) 0.003181 1138.7 0.1
1173(18) 0.002988 1138.3 0.1
1163(18) 0.002924 1138.0 0.1
1175(19) 0.002897 1137.7 0.1
1144(18) 0.003155 1137.4 0.1
1150(18) 0.003253 1137.1 0.1
1156(18) 0.002989 1136.8 0.1
1168(18) 0.002925 1136.5 0.1
1153(18) 0.003052 1136.1 0.1
1163(18) 0.003097 1135.8 0.1
1169(18) 0.003176 1135.5 0.1
1135(18) 0.003055 1135.2 0.1
1172(19) 0.002844 1134.9 0.1
1148(18) 0.002973 1134.6 0.1
1153(18) 0.003172 1134.3 0.1
1155(18) 0.003202 1133.9 0.1
1199(19) 0.002888 1133.6 0.1
1159(19) 0.002857 1133.3 0.1
1172(18) 0.003010 1133.0 0.1
1195(18) 0.003111 1132.7 0.1
1196(18) 0.003123 1132.4 0.1
1154(18) 0.003081 1132.1 0.1
1211(19) 0.002637 1131.7 0.1
1149(18) 0.003054 1131.4 0.1
1119(17) 0.003307 1131.1 0.1
1209(18) 0.003041 1130.8 0.1
1179(18) 0.002927 1130.5 0.1
1200(20) 0.002600 1130.2 0.1
1206(19) 0.002777 1129.9 0.1
1166(18) 0.003186 1129.6 0.1
1175(18) 0.003146 1129.2 0.1
1140(18) 0.003052 1128.9 0.1
1168(19) 0.002758 1128.6 0.1
1126(18) 0.003017 1128.3 0.1
1134(18) 0.003250 1128.0 0.1
1103(17) 0.003322 1127.7 0.1
1142(18) 0.002993 1127.4 0.1
1112(18) 0.003059 1127.0 0.1
1163(18) 0.002942 1126.7 0.1
1194(18) 0.003129 1126.4 0.1
1155(18) 0.003126 1126.1 0.1
1182(19) 0.002845 1125.8 0.1
1164(19) 0.002847 1125.5 0.1
1145(18) 0.003060 1125.2 0.1
1159(18) 0.003189 1124.8 0.1
1149(18) 0.003093 1124.5 0.1
1140(18) 0.002994 1124.2 0.1
1141(18) 0.002993 1123.9 0.1
1150(18) 0.003088 1123.6 0.1
1140(17) 0.003268 1123.3 0.1
1170(18) 0.003015 1123.0 0.1
1145(18) 0.002969 1122.6 0.1
1125(18) 0.003098 1122.3 0.1
1103(18) 0.003237 1122.0 0.1
1138(18) 0.003256 1121.7 0.1
1115(18) 0.003114 1121.4 0.1
1153(18) 0.002984 1121.1 0.1
1173(19) 0.002916 1120.8 0.1
1132(18) 0.003212 1120.5 0.1
1126(17) 0.003297 1120.1 0.1
1133(18) 0.003054 1119.8 0.1
1149(19) 0.002900 1119.5 0.1
1180(19) 0.002892 1119.2 0.1
1106(18) 0.003257 1118.9 0.1
1121(17) 0.003306 1118.6 0.1
1160(18) 0.003008 1118.3 0.1
1160(19) 0.002807 1117.9 0.1
1143(18) 0.003030 1117.6 0.1
1114(17) 0.003328 1117.3 0.1
1111(17) 0.003361 1117.0 0.1
1128(18) 0.003063 1116.7 0.1
1124(19) 0.002841 1116.4 0.1
1148(18) 0.003018 1116.1 0.1
1120(17) 0.003324 1115.7 0.1
1158(18) 0.003183 1115.4 0.1
1135(18) 0.003069 1115.1 0.1
1182(19) 0.002741 1114.8 0.1
1131(18) 0.003124 1114.5 0.1
1144(17) 0.003273 1114.2 0.1
1137(18) 0.003253 1113.9 0.1
1165(18) 0.002955 1113.5 0.1
1128(19) 0.002917 1113.2 0.1
1166(18) 0.002966 1112.9 0.1
1157(18) 0.003198 1112.6 0.1
1127(17) 0.003267 1112.3 0.1
1122(18) 0.003147 1112.0 0.1
1141(19) 0.002905 1111.7 0.1
1137(18) 0.003037 1111.4 0.1
1121(17) 0.003313 1111.0 0.1
1167(18) 0.003121 1110.7 0.1
1151(18) 0.003010 1110.4 0.1
1104(18) 0.003090 1110.1 0.1
1172(18) 0.002970 1109.8 0.1
1136(17) 0.003271 1109.5 0.1
1161(18) 0.003062 1109.2 0.1
1167(18) 0.002925 1108.8 0.1
1111(18) 0.003062 1108.5 0.1
1123(18) 0.003094 1108.2 0.1
1153(18) 0.003231 1107.9 0.1
1130(18) 0.003163 1107.6 0.1
1126(18) 0.003056 1107.3 0.1
1154(18) 0.002962 1107.0 0.1
1187(18) 0.002995 1106.6 0.1
1145(18) 0.003244 1106.3 0.1
1141(18) 0.003086 1106.0 0.1
1113(18) 0.003067 1105.7 0.1
1135(18) 0.003046 1105.4 0.1
1099(18) 0.003253 1105.1 0.1
1153(18) 0.003235 1104.8 0.1
1109(18) 0.003167 1104.5 0.1
1147(19) 0.002891 1104.1 0.1
1109(18) 0.003087 1103.8 0.1
1125(18) 0.003226 1103.5 0.1
1102(17) 0.003390 1103.2 0.1
1135(18) 0.003028 1102.9 0.1
1095(18) 0.003009 1102.6 0.1
1109(18) 0.003101 1102.3 0.1
1066(17) 0.003457 1101.9 0.1
1155(18) 0.003216 1101.6 0.1
1123(18) 0.003073 1101.3 0.1
1116(19) 0.002904 1101.0 0.1
1117(18) 0.003115 1100.7 0.1
1162(18) 0.003110 1100.4 0.1
1116(17) 0.003297 1100.1 0.1
1165(18) 0.003031 1099.7 0.1
1114(19) 0.002883 1099.4 0.1
1057(17) 0.003353 1099.1 0.1
1094(17) 0.003389 1098.8 0.1
1121(17) 0.003318 1098.5 0.1
1103(18) 0.003149 1098.2 0.1
1120(19) 0.002904 1097.9 0.1
1106(18) 0.003111 1097.5 0.1
1105(17) 0.003326 1097.2 0.1
1124(17) 0.003266 1096.9 0.1
1136(18) 0.003042 1096.6 0.1
1022(17) 0.003373 1096.3 0.1
1136(18) 0.003051 1096.0 0.1
1150(18) 0.003217 1095.7 0.1
1096(17) 0.003326 1095.4 0.1
1111(18) 0.003142 1095.0 0.1
1114(18) 0.003027 1094.7 0.1
1102(18) 0.003100 1094.4 0.1
1096(17) 0.003384 1094.1 0.1
1135(18) 0.003124 1093.8 0.1
1093(18) 0.003121 1093.5 0.1
1123(18) 0.003008 1093.2 0.1
1100(18) 0.003161 1092.8 0.1
1101(17) 0.003382 1092.5 0.1
1062(17) 0.003343 1092.2 0.1
1092(18) 0.003049 1091.9 0.1
1090(18) 0.003094 1091.6 0.1
1053(17) 0.003365 1091.3 0.1
1107(17) 0.003375 1091.0 0.1
1100(18) 0.003184 1090.6 0.1
1051(17) 0.003267 1090.3 0.1
1099(18) 0.003116 1090.0 0.1
1080(17) 0.003315 1089.7 0.1
1058(17) 0.003496 1089.4 0.1
1145(18) 0.003022 1089.1 0.1
1131(18) 0.002964 1088.8 0.1
1101(18) 0.003149 1088.4 0.1
1056(17) 0.003433 1088.1 0.1
1055(17) 0.00352 1087.8 0.1
1083(18) 0.003205 1087.5 0.1
1127(18) 0.002934 1087.2 0.1
1073(17) 0.003303 1086.9 0.1
1083(17) 0.003382 1086.6 0.1
1078(17) 0.003440 1086.3 0.1
1125(18) 0.003050 1085.9 0.1
1089(18) 0.003002 1085.6 0.1
1052(17) 0.003301 1085.3 0.1
1115(17) 0.003278 1085.0 0.1
1112(17) 0.003334 1084.7 0.1
1087(18) 0.003196 1084.4 0.1
1053(18) 0.003131 1084.1 0.1
1113(18) 0.003086 1083.7 0.1
1096(17) 0.003383 1083.4 0.1
1128(17) 0.003267 1083.1 0.1
1129(18) 0.003034 1082.8 0.1
1066(18) 0.003069 1082.5 0.1
1078(18) 0.003212 1082.2 0.1
1073(17) 0.003442 1081.9 0.1
1102(17) 0.003335 1081.5 0.1
1090(18) 0.003175 1081.2 0.1
1098(18) 0.003008 1080.9 0.1
1138(18) 0.003072 1080.6 0.1
1071(17) 0.003463 1080.0 0.1
1092(17) 0.003343 1079.3 0.1
1095(18) 0.003205 1078.7 0.1
1069(18) 0.003202 1078.0 0.1
1051(17) 0.003332 1077.3 0.1
1053(17) 0.00354 1076.7 0.1
1023(17) 0.00355 1076.0 0.1
1059(18) 0.003209 1075.4 0.1
1067(18) 0.003157 1074.7 0.1
1086(18) 0.003188 1074.0 0.1
1102(17) 0.003357 1073.4 0.1
993(17) 0.00358 1072.7 0.1
1040(17) 0.003270 1072.0 0.1
1108(18) 0.003052 1071.4 0.1
1057(17) 0.003339 1070.7 0.1
1070(17) 0.003489 1070.0 0.1
1059(17) 0.003271 1069.4 0.1
989(17) 0.00352 1068.7 0.1
1075(18) 0.003136 1068.1 0.1
1075(17) 0.003301 1067.4 0.1
1084(17) 0.003429 1066.7 0.1
1077(18) 0.003217 1066.1 0.1
1065(18) 0.003139 1065.4 0.1
1039(17) 0.003321 1064.7 0.1
1018(17) 0.003505 1064.1 0.1
1009(16) 0.00369 1063.4 0.1
1012(17) 0.003412 1062.7 0.1
1024(18) 0.003217 1062.1 0.1
1059(17) 0.003271 1061.4 0.1
1087(17) 0.003349 1060.8 0.1
1094(17) 0.003427 1060.1 0.1
1067(17) 0.003266 1059.4 0.1
1060(18) 0.003070 1058.8 0.1
1031(17) 0.003393 1058.1 0.1
1068(17) 0.003414 1057.4 0.1
1020(17) 0.00364 1056.8 0.1
1056(17) 0.003280 1056.1 0.1
1043(18) 0.003086 1055.4 0.1
1013(17) 0.003444 1054.8 0.1
1042(17) 0.00355 1054.1 0.1
1068(17) 0.003434 1053.4 0.1
1083(18) 0.003202 1052.8 0.1
1059(18) 0.003038 1052.1 0.1
1036(17) 0.003381 1051.5 0.1
1089(17) 0.003419 1050.8 0.1
1092(17) 0.003396 1050.1 0.1
1043(17) 0.003300 1049.5 0.1
1031(18) 0.003169 1048.8 0.1
1085(18) 0.003201 1048.1 0.1
1085(17) 0.003419 1047.5 0.1
1048(17) 0.003465 1046.8 0.1
1085(18) 0.003102 1046.1 0.1
1052(18) 0.003118 1045.5 0.1
1024(17) 0.003382 1044.8 0.1
1014(16) 0.00368 1044.2 0.1
1039(17) 0.003457 1043.5 0.1
1060(18) 0.003232 1042.8 0.1
1075(18) 0.003142 1042.2 0.1
1066(17) 0.003299 1041.5 0.1
1021(17) 0.00364 1040.8 0.1
996(17) 0.00363 1040.2 0.1
1058(17) 0.003279 1039.5 0.1
1084(18) 0.003126 1038.8 0.1
1034(17) 0.003371 1038.2 0.1
1038(17) 0.00359 1037.5 0.1
1094(18) 0.003255 1036.9 0.1
1060(18) 0.003260 1036.2 0.1
1053(17) 0.003281 1035.5 0.1
1022(17) 0.003470 1034.9 0.1
1004(16) 0.00371 1034.2 0.1
978(17) 0.00358 1033.5 0.1
1022(17) 0.003286 1032.9 0.1
992(17) 0.00354 1032.2 0.1
1051(17) 0.003437 1031.5 0.1
1033(17) 0.00359 1030.9 0.1
1055(18) 0.003197 1030.2 0.1
1014(17) 0.003301 1029.6 0.1
1021(17) 0.003380 1028.9 0.1
1007(17) 0.00360 1028.2 0.1
1003(16) 0.00370 1027.6 0.1
1034(17) 0.003318 1026.9 0.1
1011(18) 0.003260 1026.2 0.1
1003(17) 0.003401 1025.6 0.1
1036(17) 0.00356 1024.9 0.1
1068(17) 0.003483 1024.2 0.1
1032(17) 0.003321 1023.6 0.1
1030(18) 0.003071 1022.9 0.1
1028(17) 0.003364 1022.3 0.1
1045(17) 0.00354 1021.6 0.1
1027(17) 0.00356 1020.9 0.1
1032(17) 0.003367 1020.3 0.1
1022(18) 0.003193 1019.6 0.1
1003(17) 0.003495 1018.9 0.1
1049(17) 0.00355 1018.3 0.1
1001(17) 0.00367 1017.6 0.1
996(17) 0.00356 1016.9 0.1
1002(17) 0.003271 1016.3 0.1
1019(17) 0.003340 1015.6 0.1
1038(17) 0.00357 1015.0 0.1
999(16) 0.00368 1014.3 0.1
987(17) 0.00351 1013.6 0.1
995(17) 0.003401 1013.0 0.1
1049(17) 0.003280 1012.3 0.1
1009(16) 0.00370 1011.6 0.1
996(16) 0.00368 1011.0 0.1
1040(17) 0.003348 1010.3 0.1
1028(17) 0.003301 1009.6 0.1
1037(17) 0.003366 1009.0 0.1
1012(16) 0.00368 1008.3 0.1
1039(17) 0.003488 1007.7 0.1
1061(18) 0.003154 1007.0 0.1
998(17) 0.003399 1006.3 0.1
1014(17) 0.003450 1005.7 0.1
1022(17) 0.00363 1005.0 0.1
1017(17) 0.003493 1004.3 0.1
1005(17) 0.003458 1003.7 0.1
1029(17) 0.003360 1003.0 0.1
1065(17) 0.003330 1002.3 0.1
1046(17) 0.00355 1001.7 0.1
1035(17) 0.003350 1001.0 0.1
1007(17) 0.003288 1000.4 0.1
999(17) 0.003462 999.7 0.1
1039(17) 0.003473 999.0 0.1
1024(17) 0.00361 998.4 0.1
1027(17) 0.003337 997.7 0.2
991(17) 0.003399 997.0 0.2
988(17) 0.003443 996.4 0.2
967(16) 0.00374 995.7 0.2
1004(16) 0.00370 995.0 0.2
991(17) 0.00355 994.4 0.2
971(17) 0.003499 993.7 0.2
991(17) 0.00353 993.1 0.2
984(16) 0.00372 992.4 0.2
967(16) 0.00386 991.7 0.2
1026(17) 0.003392 991.1 0.2
1015(18) 0.003220 990.4 0.2
1042(17) 0.003371 989.7 0.2
1016(17) 0.00363 989.1 0.2
994(16) 0.00371 988.4 0.2
966(17) 0.00357 987.7 0.2
999(18) 0.003254 987.1 0.2
1016(17) 0.003437 986.4 0.2
1006(16) 0.00370 985.8 0.2
986(16) 0.00373 985.1 0.2
969(17) 0.00357 984.4 0.2
954(17) 0.003385 983.8 0.2
965(17) 0.00362 983.1 0.2
992(16) 0.00377 982.4 0.2
1003(16) 0.00367 981.8 0.2
947(16) 0.00369 981.1 0.2
968(17) 0.003395 980.4 0.2
972(17) 0.00357 979.8 0.2
1003(16) 0.00371 979.1 0.3
998(17) 0.00367 978.5 0.3
1000(17) 0.003414 977.8 0.3
979(17) 0.003436 977.1 0.3
960(17) 0.00358 976.5 0.3
1013(17) 0.00367 975.8 0.3
965(16) 0.00376 975.1 0.3
1004(17) 0.003422 974.5 0.3
1000(17) 0.003356 973.8 0.3
972(17) 0.00361 973.1 0.3
1007(16) 0.00370 972.5 0.3
1006(17) 0.003486 971.8 0.3
987(17) 0.003429 971.2 0.3
960(17) 0.00351 970.5 0.3
986(17) 0.00359 969.8 0.3
1013(16) 0.00368 969.2 0.4
965(17) 0.00361 968.5 0.4
985(17) 0.003442 967.8 0.4
978(17) 0.00352 967.2 0.4
983(17) 0.00364 966.5 0.4
931(16) 0.00401 965.8 0.4
951(16) 0.00369 965.2 0.4
935(17) 0.00366 964.5 0.4
928(16) 0.00373 963.9 0.4
978(16) 0.00370 963.2 0.5
978(16) 0.00378 962.5 0.5
980(17) 0.00355 961.9 0.5
930(17) 0.00362 961.2 0.5
986(17) 0.003456 960.6 0.5
990(16) 0.00368 960.0 0.5
978(16) 0.00381 959.5 0.5
1025(17) 0.003363 958.9 0.6
1008(18) 0.003236 958.3 0.6
999(17) 0.003465 957.7 0.6
982(16) 0.00377 957.1 0.6
980(16) 0.00376 956.5 0.6
952(17) 0.00363 955.9 0.7
940(17) 0.003456 955.4 0.7
952(17) 0.00366 954.8 0.7
967(16) 0.00375 954.2 0.7
965(16) 0.00386 953.6 0.8
964(16) 0.00368 953.0 0.8
978(17) 0.003358 952.4 0.8
925(16) 0.00385 951.8 0.8
986(16) 0.00379 951.2 0.9
942(16) 0.00390 950.7 0.9
954(17) 0.00357 950.1 1.0
952(17) 0.003427 949.5 1.0
944(16) 0.00368 948.9 1.0
998(16) 0.00369 948.3 1.1
929(16) 0.00389 947.7 1.1
969(17) 0.00363 947.1 1.2
947(17) 0.00352 946.6 1.2
907(16) 0.00377 946.0 1.3
949(16) 0.00392 945.4 1.3
910(16) 0.00394 944.8 1.4
912(16) 0.00371 944.2 1.5
935(17) 0.00352 943.6 1.6
941(17) 0.00364 943.0 4.0
913(16) 0.00405 942.5 4.1
952(16) 0.00377 941.9 4.3
974(17) 0.003502 941.3 4.5
977(17) 0.003506 940.7 4.6
935(16) 0.00378 940.1 4.8
954(16) 0.00390 939.5 5.0
1004(17) 0.003457 938.9 5.3
929(17) 0.00364 938.4 5.5
952(17) 0.003503 937.8 5.8
956(17) 0.00364 937.2 6.1
897(15) 0.00418 936.6 6.4
983(17) 0.003486 936.0 6.8
923(16) 0.00370 935.4 7.2
930(16) 0.00371 934.8 7.6
1016(17) 0.00357 934.3 8.1
948(16) 0.00391 933.7 8.6
943(17) 0.00362 933.1 9.2
952(17) 0.003462 932.5 9.9
909(16) 0.00379 931.9 10.6
926(16) 0.00393 931.3 11.4
917(16) 0.00403 930.7 12.3
880(16) 0.00394 930.1 13.3
996(18) 0.003194 929.6 14.3
980(17) 0.003492 929.0 15.4
968(16) 0.00381 928.4 16.6
974(16) 0.00375 927.8 17.9
979(17) 0.00353 927.2 19.2
958(17) 0.003363 926.6 20.5
990(17) 0.003403 926.0 21.9
979(16) 0.00379 925.5 23.2
966(16) 0.00377 924.9 24.5
970(17) 0.00351 924.3 25.6
938(17) 0.003391 923.7 26.6
923(16) 0.00374 923.1 27.3
935(16) 0.00393 922.5 27.7
947(16) 0.00387 921.9 27.9
955(17) 0.00357 921.4 27.8
940(17) 0.00354 920.8 27.4
981(17) 0.00352 920.2 26.9
934(16) 0.00391 919.6 26.3
904(16) 0.00402 919.0 25.5
933(16) 0.00373 918.4 24.8
957(17) 0.003470 917.8 24.0
955(16) 0.00368 917.3 23.3
947(16) 0.00391 916.7 22.7
912(16) 0.00399 916.1 22.2
943(17) 0.00354 915.5 21.8
909(16) 0.00376 914.9 21.6
935(17) 0.00361 914.3 21.4
956(16) 0.00389 913.7 21.4
940(16) 0.00381 913.2 21.6
929(16) 0.00369 912.6 21.8
929(17) 0.00367 912.0 22.3
882(16) 0.00389 911.4 22.8
893(16) 0.00414 910.8 23.6
970(17) 0.00358 910.2 24.5
938(17) 0.00366 909.6 25.6
953(17) 0.00355 909.0 26.9
916(16) 0.00394 908.5 28.4
909(16) 0.00408 907.9 30.2
926(16) 0.00377 907.3 32.3
988(17) 0.003365 906.7 35.9
924(16) 0.00375 906.1 38.7
917(16) 0.00399 905.5 41.9
879(15) 0.00424 904.9 45.6
955(17) 0.00355 904.4 50.0
964(17) 0.003398 903.8 55.1
942(16) 0.00371 903.2 61.1
976(16) 0.00372 902.6 68.2
963(16) 0.00388 902.0 76.9
993(17) 0.003477 901.4 87.4
1002(17) 0.003296 900.8 100.6
1035(17) 0.003291 900.3 117.9
1109(17) 0.003321 899.7 142.0
1113(17) 0.003332 899.1 177.7
1134(18) 0.003120 898.5 233.7
1226(19) 0.002644 897.9 323.0
1351(20) 0.002601 897.3 463.0
1543(20) 0.002382 896.7 672.0
1752(22) 0.002116 896.2 962.2
2077(24) 0.001676 895.6 1330.6
2406(27) 0.001323 895.0 1747.3
2782(28) 0.001242 894.4 2143.2
3302(30) 0.001117 893.8 2405.6
3573(31) 0.001034 893.2 2424.1
3401(31) 0.001017 892.6 2189.8
2791(29) 0.001165 892.0 1804.7
2226(25) 0.001576 891.5 1385.8
1827(22) 0.002032 890.9 1008.2
1580(21) 0.002320 890.3 706.6
1465(21) 0.002324 889.7 486.9
1336(20) 0.002467 889.1 338.5
1240(19) 0.002781 888.5 243.3
1114(17) 0.003338 887.9 183.8
1092(17) 0.003313 887.4 145.8
1094(18) 0.003094 886.8 120.5
1052(18) 0.003151 886.2 102.4
990(17) 0.00352 885.6 88.7
1029(17) 0.00360 885.0 77.8
961(16) 0.00381 884.4 68.9
944(17) 0.00362 883.8 61.4
984(17) 0.003388 883.3 55.2
923(16) 0.00374 882.7 49.9
957(16) 0.00390 882.1 45.3
897(16) 0.00399 881.5 41.4
899(16) 0.00379 880.9 38.0
921(16) 0.00370 880.3 35.0
922(16) 0.00384 879.7 32.4
893(16) 0.00414 879.2 30.1
908(16) 0.00388 878.6 28.1
914(16) 0.00378 878.0 26.2
912(16) 0.00375 877.4 24.6
889(16) 0.00409 876.8 23.1
925(16) 0.00399 876.2 21.8
944(17) 0.00362 875.6 20.6
901(16) 0.00379 875.1 19.6
878(16) 0.00399 874.5 18.6
912(16) 0.00399 873.9 17.7
906(16) 0.00408 873.3 16.9
862(16) 0.00406 872.7 16.1
870(16) 0.00384 872.1 15.5
892(16) 0.00383 871.5 14.8
897(16) 0.00400 870.9 14.3
892(15) 0.00419 870.4 13.7
890(16) 0.00394 869.8 13.2
925(17) 0.003500 869.2 13.0
908(16) 0.00387 868.6 12.6
852(15) 0.00434 868.0 12.2
901(16) 0.00410 867.4 11.8
872(16) 0.00410 866.8 11.5
867(16) 0.00369 866.3 11.2
849(16) 0.00416 865.7 10.9
893(16) 0.00415 865.1 10.6
917(16) 0.00399 864.5 10.4
875(16) 0.00400 863.9 10.2
841(16) 0.00400 863.3 9.9
928(16) 0.00381 862.7 9.8
865(15) 0.00430 862.2 9.6
918(16) 0.00393 861.6 9.4
880(16) 0.00396 861.0 9.3
837(16) 0.00392 860.4 9.1
867(16) 0.00390 859.8 9.0
868(15) 0.00428 859.2 8.9
863(15) 0.00426 858.6 8.8
842(16) 0.00411 858.1 8.7
874(16) 0.00381 857.5 8.7
868(16) 0.00393 856.9 8.6
811(15) 0.00455 856.3 8.5
855(15) 0.00418 855.7 8.4
874(16) 0.00387 855.1 8.3
871(16) 0.00388 854.5 8.2
880(16) 0.00387 854.0 8.1
902(16) 0.00412 853.4 8.1
832(15) 0.00427 852.8 8.0
894(16) 0.00374 852.2 8.0
864(16) 0.00395 851.6 7.9
865(16) 0.00406 851.0 7.9
885(15) 0.00420 850.4 7.9
862(16) 0.00410 849.8 7.8
858(16) 0.00398 849.3 7.8
875(16) 0.00395 848.7 7.8
876(16) 0.00413 848.1 7.8
841(15) 0.00443 847.5 7.8
863(16) 0.00396 846.9 7.8
839(16) 0.00402 846.3 7.8
869(16) 0.00397 845.7 7.9
868(16) 0.00415 845.2 7.9
847(15) 0.00444 844.6 7.9
890(16) 0.00398 844.0 7.9
868(16) 0.00391 843.4 8.0
870(16) 0.00402 842.8 8.0
837(15) 0.00440 842.2 8.0
846(15) 0.00436 841.6 8.1
840(16) 0.00409 841.1 8.1
845(16) 0.00380 840.5 8.2
841(16) 0.00407 839.9 8.2
872(15) 0.00417 839.3 8.3
830(15) 0.00445 838.7 8.4
837(15) 0.00425 838.2 8.4
836(16) 0.00390 837.6 8.5
856(16) 0.00402 837.1 8.6
811(15) 0.00453 836.5 8.7
834(15) 0.00447 835.9 8.8
844(16) 0.00413 835.4 8.8
831(16) 0.00395 834.8 8.9
841(16) 0.00410 834.3 9.0
835(15) 0.00447 833.7 9.1
831(15) 0.00449 833.2 9.3
838(16) 0.00409 832.6 9.4
866(16) 0.00373 832.1 9.5
857(16) 0.00405 831.5 9.6
895(15) 0.00417 831.0 9.7
849(15) 0.00426 830.4 9.9
861(16) 0.00402 829.8 10.0
849(16) 0.00394 829.3 10.2
795(15) 0.00434 828.7 10.3
824(15) 0.00454 828.2 10.5
786(15) 0.00466 827.6 10.7
824(15) 0.00417 827.1 10.8
801(15) 0.00429 826.5 11.0
855(16) 0.00413 826.0 11.2
792(15) 0.00468 825.4 11.4
806(15) 0.00443 824.8 11.6
802(15) 0.00428 824.3 11.8
827(15) 0.00419 823.7 12.1
839(15) 0.00424 823.2 12.3
863(15) 0.00432 822.6 12.5
870(16) 0.00405 822.1 12.8
823(16) 0.00415 821.5 13.0
817(16) 0.00415 821.0 13.3
873(16) 0.00401 820.4 13.6
837(15) 0.00444 819.9 13.9
823(15) 0.00419 819.3 14.2
818(16) 0.00415 818.7 14.5
805(15) 0.00433 818.2 14.9
839(15) 0.00427 817.6 15.2
826(15) 0.00450 817.1 15.6
824(15) 0.00424 816.5 16.0
823(16) 0.00402 816.0 16.4
823(15) 0.00416 815.4 16.8
828(15) 0.00440 814.9 17.3
787(15) 0.00475 814.3 17.7
855(16) 0.00405 813.8 18.2
887(17) 0.00364 813.2 18.7
840(15) 0.00423 812.6 19.3
822(15) 0.00448 812.1 19.8
833(15) 0.00447 811.5 20.4
823(15) 0.00417 811.0 21.1
782(16) 0.00414 810.4 21.7
795(15) 0.00429 809.9 22.4
836(15) 0.00446 809.3 23.1
829(15) 0.00451 808.8 23.9
801(15) 0.00440 808.2 24.7
836(16) 0.00386 807.7 25.6
852(16) 0.00410 807.1 26.5
862(15) 0.00429 806.5 27.5
837(15) 0.00441 806.0 28.5
834(16) 0.00414 805.4 29.7
865(16) 0.00376 804.9 30.8
829(15) 0.00425 804.3 32.1
842(15) 0.00439 803.8 33.4
846(15) 0.00430 803.2 34.9
816(15) 0.00430 802.7 36.5
827(16) 0.00397 802.1 38.1
833(16) 0.00409 801.6 39.9
856(15) 0.00436 801.0 41.9
861(15) 0.00417 800.4 44.0
889(16) 0.00378 799.9 46.4
840(16) 0.00389 799.3 48.9
858(16) 0.00398 798.8 51.7
861(15) 0.00434 798.2 54.8
856(16) 0.00414 797.7 58.2
847(16) 0.00412 797.1 62.0
838(16) 0.00411 796.6 66.4
881(16) 0.00401 796.0 71.3
879(15) 0.00425 795.4 77.1
826(15) 0.00432 794.9 84.0
913(17) 0.00363 794.3 92.2
886(16) 0.00386 793.8 102.2
917(16) 0.00385 793.2 114.5
902(16) 0.00409 792.7 129.6
947(17) 0.00367 792.1 148.1
940(17) 0.00366 791.6 170.7
985(17) 0.003507 791.0 197.8
1039(17) 0.003441 790.5 229.7
1043(17) 0.00357 789.9 266.2
1085(18) 0.003182 789.3 306.5
1133(18) 0.003006 788.8 348.8
1220(19) 0.002846 788.2 389.8
1253(19) 0.002886 787.7 424.6
1224(18) 0.003054 787.1 447.9
1257(19) 0.002810 786.6 456.1
1271(20) 0.002602 786.0 449.5
1259(19) 0.002758 785.5 432.5
1215(18) 0.002994 784.9 410.8
1155(18) 0.003232 784.4 389.9
1107(18) 0.003135 783.8 373.5
1100(18) 0.002923 783.2 364.0
1060(17) 0.003286 782.7 363.0
1077(17) 0.003434 782.1 371.7
1097(17) 0.003399 781.6 390.8
1147(18) 0.003048 781.0 421.0
1178(19) 0.002717 780.5 463.0
1243(19) 0.002804 779.9 517.3
1251(18) 0.002933 779.4 584.6
1389(19) 0.002674 778.8 665.2
1478(21) 0.002372 778.3 759.0
1599(22) 0.002019 777.7 865.5
1760(23) 0.001958 777.1 983.1
1941(23) 0.001916 776.6 1108.7
2129(24) 0.001729 776.0 1236.6
2232(25) 0.001554 775.5 1358.4
2360(27) 0.001377 774.9 1463.1
2411(27) 0.001409 774.4 1537.8
2410(25) 0.001539 773.8 1571.5
2320(25) 0.001574 773.3 1558.5
2298(26) 0.001488 772.7 1500.9
2136(25) 0.001584 772.2 1407.3
2023(24) 0.001711 771.6 1289.9
1908(23) 0.001939 771.0 1161.1
1774(22) 0.002032 770.5 1030.6
1669(22) 0.002072 769.9 905.3
1566(21) 0.002195 769.4 789.2
1478(21) 0.002367 768.8 684.3
1384(19) 0.002689 768.3 591.6
1280(19) 0.002755 767.7 511.0
1240(19) 0.002738 767.2 441.7
1173(18) 0.002935 766.6 382.8
1171(18) 0.003014 766.1 333.2
1080(17) 0.003437 765.5 291.6
1021(17) 0.003420 764.9 256.9
1040(18) 0.003233 764.4 228.0
1033(17) 0.003317 763.8 203.7
960(16) 0.00377 763.3 183.4
972(16) 0.00380 762.7 166.2
957(17) 0.00360 762.2 151.6
948(17) 0.003503 761.6 139.0
927(17) 0.00363 761.1 128.0
860(15) 0.00424 760.5 118.4
896(16) 0.00415 759.9 110.0
898(16) 0.00386 759.4 102.4
856(16) 0.00398 758.8 95.7
869(16) 0.00397 758.3 89.6
872(15) 0.00417 757.7 84.1
837(15) 0.00449 757.2 79.1
872(16) 0.00403 756.6 74.6
828(16) 0.00400 756.1 70.5
833(15) 0.00419 755.5 66.7
822(15) 0.00451 755.0 63.2
816(15) 0.00455 754.4 60.0
818(15) 0.00435 753.8 57.0
841(16) 0.00383 753.3 54.3
812(15) 0.00434 752.7 51.8
792(14) 0.00476 752.2 49.4
819(15) 0.00449 751.6 47.2
820(16) 0.00416 751.1 45.2
811(16) 0.00395 750.5 43.4
800(15) 0.00436 750.0 41.6
804(15) 0.00460 749.4 40.0
800(15) 0.00466 748.9 38.4
836(15) 0.00423 748.3 37.0
845(16) 0.00396 747.7 35.7
813(15) 0.00430 747.2 34.4
824(15) 0.00455 746.6 33.3
737(14) 0.00492 746.1 32.2
792(15) 0.00433 745.5 31.1
807(16) 0.00405 745.0 30.2
782(15) 0.00447 744.4 29.3
796(15) 0.00461 743.9 28.4
753(14) 0.00486 743.3 27.6
777(15) 0.00440 742.8 26.8
753(15) 0.00448 742.2 26.1
761(15) 0.00450 741.6 25.5
744(14) 0.00498 741.1 24.8
768(15) 0.00462 740.5 24.6
780(15) 0.00437 740.0 24.1
789(15) 0.00436 739.4 23.5
797(15) 0.00444 738.9 23.1
745(14) 0.00503 738.3 22.6
740(15) 0.00469 737.8 22.2
745(15) 0.00459 737.2 21.9
809(15) 0.00426 736.7 21.5
787(15) 0.00440 736.1 21.2
755(14) 0.00495 735.5 20.9
723(14) 0.00485 735.0 20.6
713(14) 0.00482 734.4 20.4
750(15) 0.00459 733.9 20.2
778(15) 0.00471 733.3 20.0
757(14) 0.00489 732.8 19.8
778(15) 0.00443 732.2 19.7
754(15) 0.00446 731.7 19.6
769(15) 0.00456 731.2 19.5
744(14) 0.00497 730.8 19.5
741(14) 0.00505 730.3 19.5
765(15) 0.00451 729.8 19.5
742(15) 0.00442 729.3 19.5
717(14) 0.00493 728.8 19.6
727(14) 0.00509 728.3 19.7
734(14) 0.00501 727.9 19.8
702(14) 0.00508 727.4 20.0
751(15) 0.00432 726.9 20.2
726(14) 0.00485 726.4 20.4
732(14) 0.00512 725.9 20.7
759(14) 0.00485 725.5 21.1
742(15) 0.00474 725.0 21.5
743(15) 0.00432 724.5 22.0
765(15) 0.00450 724.0 22.5
726(14) 0.00514 723.5 23.1
742(14) 0.00495 723.1 23.9
717(14) 0.00487 722.6 24.7
734(15) 0.00454 722.1 25.6
742(15) 0.00468 721.6 26.7
751(14) 0.00500 721.1 28.0
760(14) 0.00484 720.6 29.5
738(14) 0.00476 720.2 31.2
773(15) 0.00428 719.7 33.4
769(15) 0.00450 719.2 36.3
756(14) 0.00492 718.7 40.7
750(14) 0.00486 718.2 48.3
757(15) 0.00455 717.8 63.0
800(15) 0.00425 717.3 90.9
805(15) 0.00438 716.8 139.2
909(16) 0.00409 716.3 212.1
932(16) 0.00387 715.8 304.6
1040(17) 0.003312 715.3 397.9
1167(19) 0.002909 714.9 460.4
1299(19) 0.002734 714.4 463.0
1268(18) 0.002933 713.9 406.6
1034(17) 0.003323 713.4 321.2
943(17) 0.00355 712.9 238.1
854(16) 0.00397 712.5 175.8
794(15) 0.00445 712.0 138.8
793(15) 0.00468 711.5 122.7
787(15) 0.00443 711.0 120.7
787(15) 0.00428 710.5 126.6
794(15) 0.00430 710.0 136.9
829(15) 0.00438 709.6 149.8
860(15) 0.00430 709.1 164.3
875(16) 0.00394 708.6 180.1
912(16) 0.00374 708.1 196.4
928(16) 0.00375 707.6 212.7
892(16) 0.00410 707.2 227.9
911(16) 0.00411 706.7 241.0
910(16) 0.00385 706.2 250.8
911(16) 0.00369 705.7 256.1
942(16) 0.00370 705.2 256.5
888(15) 0.00420 704.8 251.7
879(15) 0.00424 704.3 242.3
873(16) 0.00393 703.8 229.2
871(16) 0.00372 703.3 213.7
865(16) 0.00402 702.8 196.7
863(15) 0.00431 702.3 179.4
815(15) 0.00453 701.9 162.4
822(15) 0.00426 701.4 146.1
772(15) 0.00428 700.9 130.9
820(15) 0.00416 700.4 117.0
791(15) 0.00472 699.9 104.5
788(15) 0.00468 699.5 93.2
771(15) 0.00456 699.0 83.2
771(15) 0.00428 698.5 74.4
784(15) 0.00439 698.0 66.7
764(14) 0.00486 697.5 60.0
764(14) 0.00480 697.0 54.2
756(15) 0.00448 696.6 49.1
704(15) 0.00473 696.1 44.7
770(15) 0.00446 695.6 40.9
737(14) 0.00502 695.1 37.6
752(14) 0.00483 694.6 34.7
746(15) 0.00465 694.2 32.2
731(15) 0.00462 693.7 30.0
739(15) 0.00458 693.2 28.0
746(14) 0.00496 692.7 26.2
725(14) 0.00492 692.2 24.7
748(15) 0.00451 691.8 23.3
720(15) 0.00470 691.3 22.0
710(14) 0.00490 690.8 20.8
768(14) 0.00483 690.3 19.8
745(14) 0.00476 689.8 18.8
714(15) 0.00474 689.3 17.9
696(14) 0.00489 688.9 17.1
725(14) 0.00490 688.4 16.3
702(14) 0.00531 687.9 15.6
703(14) 0.00505 687.4 15.1
707(14) 0.00488 686.9 14.5
716(14) 0.00491 686.5 13.9
760(15) 0.00457 686.0 13.4
683(14) 0.00547 685.5 12.9
679(14) 0.00503 685.0 12.4
683(14) 0.00499 684.5 12.0
720(14) 0.00486 684.0 11.6
726(14) 0.00502 683.6 11.2
709(14) 0.00525 683.1 10.8
708(14) 0.00485 682.6 10.5
669(14) 0.00506 682.1 10.2
711(14) 0.00493 681.6 9.9
713(14) 0.00514 681.2 9.6
691(14) 0.00539 680.7 9.3
721(14) 0.00482 680.2 9.1
675(15) 0.00474 679.7 8.8
697(14) 0.00499 679.2 8.6
694(14) 0.00529 678.7 8.4
664(13) 0.00565 678.3 8.2
735(15) 0.00460 677.8 8.0
700(15) 0.00450 677.3 7.8
678(14) 0.00511 676.8 7.7
664(13) 0.00562 676.3 7.5
690(14) 0.00540 675.9 7.3
714(15) 0.00470 675.4 7.2
716(15) 0.00455 674.9 7.1
695(14) 0.00507 674.4 7.0
746(14) 0.00497 673.9 6.8
675(14) 0.00546 673.5 6.7
693(14) 0.00499 673.0 6.6
704(15) 0.00458 672.5 6.6
689(14) 0.00497 672.0 6.5
678(14) 0.00548 671.5 6.4
717(14) 0.00506 671.0 6.4
684(14) 0.00503 670.6 6.3
684(14) 0.00486 670.1 6.3
654(14) 0.00512 669.6 6.3
661(13) 0.00565 669.1 6.3
677(14) 0.00532 668.6 6.3
701(14) 0.00498 668.2 6.4
679(14) 0.00497 667.7 6.5
698(14) 0.00493 667.2 6.6
707(14) 0.00525 666.7 6.8
686(14) 0.00518 666.2 7.0
679(14) 0.00503 665.7 7.3
685(14) 0.00499 665.3 7.6
685(14) 0.00511 664.8 8.0
653(13) 0.00572 664.3 8.5
697(14) 0.00481 663.8 9.0
672(14) 0.00511 663.3 9.6
660(14) 0.00518 662.9 10.2
632(13) 0.00578 662.4 10.8
634(13) 0.00584 661.9 11.4
685(14) 0.00502 661.4 11.8
668(14) 0.00505 660.9 12.2
656(14) 0.00547 660.4 12.3
674(14) 0.00546 660.0 12.2
674(14) 0.00548 659.5 11.9
715(15) 0.00474 659.0 11.4
647(14) 0.00527 658.5 10.8
669(14) 0.00513 658.0 10.1
664(13) 0.00555 657.6 9.4
685(14) 0.00537 657.1 8.7
684(14) 0.00515 656.6 8.0
675(14) 0.00491 656.1 7.5
674(14) 0.00522 655.6 7.0
688(14) 0.00531 655.2 6.5
679(14) 0.00547 654.7 6.1
659(14) 0.00530 654.2 5.8
667(14) 0.00486 653.7 5.5
678(14) 0.00510 653.2 5.2
657(13) 0.00562 652.7 5.0
686(14) 0.00547 652.3 4.9
681(14) 0.00502 651.8 4.8
644(14) 0.00515 651.3 4.6
651(14) 0.00533 651.0 4.6
634(13) 0.00583 650.7 4.5
656(13) 0.00563 650.4 4.4
610(13) 0.00555 650.1 4.4
664(14) 0.00486 649.7 4.4
693(14) 0.00497 649.4 4.4
689(14) 0.00535 649.1 4.4
679(14) 0.00532 648.8 4.4
671(14) 0.00506 648.5 4.4
652(14) 0.00522 648.2 4.4
648(13) 0.00551 647.9 4.5
656(13) 0.00567 647.5 4.5
686(14) 0.00524 647.2 4.6
662(14) 0.00512 646.9 4.7
647(14) 0.00523 646.6 4.7
703(14) 0.00487 646.3 4.8
646(13) 0.00576 646.0 4.9
672(14) 0.00524 645.6 5.0
694(14) 0.00485 645.3 5.1
664(14) 0.00510 645.0 5.2
654(14) 0.00543 644.7 5.3
659(13) 0.00568 644.4 5.4
687(14) 0.00515 644.1 5.5
649(14) 0.00540 643.8 5.6
686(14) 0.00497 643.4 5.6
664(14) 0.00534 643.1 5.7
652(13) 0.00567 642.8 5.7
677(14) 0.00505 642.5 5.8
653(14) 0.00521 642.2 5.8
668(14) 0.00510 641.9 5.8
639(13) 0.00571 641.5 5.8
682(14) 0.00540 641.2 6.1
638(14) 0.00547 640.9 6.1
641(14) 0.00514 640.6 6.0
650(14) 0.00530 640.3 5.9
622(13) 0.00587 640.0 5.8
665(13) 0.00555 639.7 5.6
669(14) 0.00530 639.3 5.5
642(14) 0.00506 639.0 5.4
653(14) 0.00534 638.7 5.2
664(13) 0.00550 638.4 5.1
636(13) 0.00585 638.1 4.9
664(14) 0.00522 637.8 4.8
648(14) 0.00500 637.4 4.7
679(14) 0.00512 637.1 4.5
648(13) 0.00571 636.8 4.4
666(13) 0.00556 636.5 4.3
628(13) 0.00562 636.2 4.2
659(14) 0.00485 635.9 4.1
658(14) 0.00512 635.6 4.0
637(13) 0.00584 635.2 3.9
659(13) 0.00558 634.9 3.8
643(14) 0.00538 634.6 3.8
646(14) 0.00510 634.3 3.7
651(14) 0.00527 634.0 3.6
631(13) 0.00591 633.7 3.6
658(13) 0.00562 633.3 3.5
647(14) 0.00542 633.0 3.5
639(14) 0.00517 632.7 3.4
605(13) 0.00572 632.4 3.4
592(13) 0.00628 632.1 3.4
639(13) 0.00571 631.8 3.4
609(13) 0.00582 631.4 3.4
646(14) 0.00518 631.1 3.3
631(13) 0.00550 630.8 3.3
608(13) 0.00610 630.5 3.3
650(14) 0.00534 630.2 3.3
606(13) 0.00572 629.9 3.4
630(14) 0.00528 629.6 3.4
623(13) 0.00559 629.2 3.4
625(13) 0.00599 628.9 3.4
640(13) 0.00562 628.6 3.5
615(14) 0.00548 628.3 3.5
628(14) 0.00543 628.0 3.5
618(13) 0.00579 627.7 3.6
574(12) 0.00642 627.3 3.7
625(14) 0.00548 627.0 3.7
618(13) 0.00559 626.7 3.8
667(14) 0.00511 626.4 3.9
644(13) 0.00569 626.1 4.0
659(13) 0.00563 625.8 4.1
646(14) 0.00545 625.5 4.2
645(14) 0.00534 625.1 4.3
670(14) 0.00517 624.8 4.5
622(13) 0.00574 624.5 4.6
626(13) 0.00600 624.2 4.8
614(13) 0.00555 623.9 5.0
610(13) 0.00553 623.6 5.2
671(14) 0.00520 623.2 5.5
632(13) 0.00588 622.9 5.7
627(13) 0.00597 622.6 6.1
634(13) 0.00563 622.3 6.4
617(14) 0.00542 622.0 6.8
604(13) 0.00589 621.7 7.3
622(13) 0.00593 621.4 7.8
647(13) 0.00576 621.0 8.4
598(13) 0.00595 620.7 9.1
651(14) 0.00501 620.4 9.8
623(13) 0.00570 620.1 10.8
629(13) 0.00590 619.8 11.9
656(13) 0.00562 619.5 13.2
641(14) 0.00530 619.1 14.8
642(14) 0.00506 618.8 16.7
648(14) 0.00537 618.5 19.1
628(13) 0.00591 618.2 22.2
635(13) 0.00581 617.9 26.5
640(14) 0.00545 617.6 32.9
659(14) 0.00507 617.2 43.3
679(14) 0.00517 616.9 61.0
723(14) 0.00515 616.6 90.8
777(15) 0.00463 616.3 138.3
788(15) 0.00450 616.0 208.1
861(16) 0.00391 615.7 300.2
958(17) 0.00360 615.4 406.5
1046(17) 0.00354 615.0 507.3
1211(18) 0.003001 614.7 570.7
1233(19) 0.002791 614.4 567.3
1154(18) 0.002949 614.1 499.0
985(17) 0.00363 613.8 396.6
877(15) 0.00422 613.5 291.0
796(15) 0.00437 613.1 200.7
756(15) 0.00454 612.8 133.0
685(14) 0.00501 612.5 87.3
652(14) 0.00542 612.2 58.9
661(13) 0.00565 611.9 42.0
635(13) 0.00561 611.6 32.0
656(14) 0.00515 611.3 25.9
660(14) 0.00506 610.9 21.7
658(14) 0.00547 610.6 18.7
632(13) 0.00586 610.3 16.3
605(13) 0.00573 610.0 14.4
617(14) 0.00540 609.7 12.9
628(14) 0.00544 609.4 11.6
629(13) 0.00581 609.0 10.5
615(13) 0.00610 608.7 9.5
617(13) 0.00558 608.4 8.7
639(14) 0.00509 608.1 8.0
602(13) 0.00591 607.8 7.4
621(13) 0.00590 607.5 6.9
612(13) 0.00606 607.2 6.5
655(14) 0.00528 606.8 6.0
657(14) 0.00486 606.5 5.7
576(13) 0.00606 606.2 5.4
572(12) 0.00652 605.9 5.1
631(13) 0.00584 605.6 4.8
612(13) 0.00569 605.3 4.6
607(14) 0.00533 604.9 4.4
644(14) 0.00544 604.6 4.2
619(13) 0.00599 604.3 4.0
613(13) 0.00599 604.0 3.8
575(13) 0.00621 603.7 3.7
632(14) 0.00501 603.4 3.5
606(13) 0.00571 603.0 3.4
576(13) 0.00636 602.7 3.3
596(13) 0.00612 602.4 3.2
586(13) 0.00593 602.1 3.1
597(13) 0.00578 601.8 3.0
621(13) 0.00557 601.5 2.9
624(13) 0.00596 601.2 2.8
623(13) 0.00578 600.8 2.8
642(14) 0.00535 600.5 2.7
622(14) 0.00531 600.2 2.6
602(13) 0.00582 599.9 2.6
610(13) 0.00608 599.6 2.5
593(13) 0.00615 599.3 2.5
617(13) 0.00572 598.9 2.4
637(14) 0.00524 598.6 2.4
585(13) 0.00611 598.3 2.3
636(13) 0.00589 598.0 2.3
598(13) 0.00600 597.7 2.3
605(13) 0.00579 597.4 2.2
596(13) 0.00589 597.1 2.2
674(14) 0.00526 596.7 2.2
635(13) 0.00584 596.4 2.1
628(13) 0.00554 596.1 2.1
613(14) 0.00548 595.8 2.1
630(14) 0.00527 595.5 2.1
566(13) 0.00616 595.2 2.0
617(13) 0.00598 594.8 2.0
618(13) 0.00570 594.5 2.0
616(13) 0.00549 594.2 2.0
625(14) 0.00545 593.9 2.0
586(13) 0.00605 593.6 2.0
616(13) 0.00599 593.3 2.0
589(13) 0.00589 593.0 1.9
576(13) 0.00578 592.6 1.9
608(13) 0.00564 592.3 1.9
614(13) 0.00590 592.0 1.9
612(13) 0.00610 591.7 1.9
576(13) 0.00602 591.4 1.9
585(13) 0.00558 591.1 1.9
607(13) 0.00565 590.7 1.9
579(13) 0.00636 590.4 1.9
593(13) 0.00627 590.1 1.9
610(13) 0.00571 589.8 1.9
609(14) 0.00542 589.5 1.9
615(13) 0.00575 589.2 1.9
617(13) 0.00598 588.8 1.9
578(12) 0.00643 588.5 2.0
593(13) 0.00582 588.2 2.0
591(14) 0.00537 587.9 2.0
578(13) 0.00598 587.6 2.0
588(13) 0.00628 587.3 2.0
587(13) 0.00620 587.0 2.1
577(13) 0.00607 586.6 2.1
593(13) 0.00568 586.3 2.1
586(13) 0.00598 586.0 2.2
640(13) 0.00579 585.7 2.2
640(13) 0.00562 585.4 2.3
619(13) 0.00561 585.1 2.4
580(13) 0.00592 584.7 2.4
614(14) 0.00536 584.4 2.5
582(13) 0.00639 584.1 2.6
573(13) 0.00632 583.8 2.7
566(13) 0.00612 583.5 2.9
589(13) 0.00566 583.2 3.1
583(13) 0.00607 582.9 3.3
612(13) 0.00605 582.5 3.5
582(13) 0.00607 582.2 3.8
618(13) 0.00552 581.9 4.3
601(13) 0.00564 581.6 4.9
609(13) 0.00566 581.3 5.8
589(13) 0.00639 581.0 7.2
596(13) 0.00593 580.6 9.4
558(13) 0.00614 580.3 12.8
558(13) 0.00618 580.0 17.8
605(13) 0.00590 579.7 24.5
618(13) 0.00603 579.4 32.9
587(13) 0.00618 579.1 42.0
641(14) 0.00525 578.8 50.3
644(14) 0.00546 578.4 55.1
587(13) 0.00624 578.1 54.3
622(13) 0.00596 577.8 48.4
637(14) 0.00539 577.5 39.7
634(14) 0.00527 577.2 30.6
583(13) 0.00612 576.9 22.6
594(13) 0.00599 576.5 16.4
553(12) 0.00676 576.2 11.8
580(13) 0.00591 575.9 8.8
580(13) 0.00578 575.6 6.8
576(13) 0.00601 575.3 5.6
571(12) 0.00643 575.0 4.8
583(13) 0.00639 574.6 4.2
594(13) 0.00595 574.3 3.9
577(13) 0.00563 574.0 3.6
579(13) 0.00599 573.7 3.3
592(13) 0.00626 573.4 3.1
577(12) 0.00649 573.1 3.0
551(12) 0.00643 572.8 2.9
578(13) 0.00558 572.4 2.7
580(13) 0.00606 572.1 2.7
586(13) 0.00630 571.8 2.6
576(13) 0.00634 571.5 2.5
594(13) 0.00584 571.2 2.5
608(14) 0.00529 570.9 2.4
591(13) 0.00592 570.5 2.4
577(12) 0.00651 570.2 2.3
600(13) 0.00604 569.9 2.3
587(13) 0.00594 569.6 2.3
598(14) 0.00544 569.3 2.3
557(12) 0.00642 569.0 2.3
540(12) 0.00694 568.7 2.2
556(12) 0.00665 568.3 2.2
575(13) 0.00617 568.0 2.2
606(14) 0.00547 567.7 2.2
590(13) 0.00598 567.5 2.2
570(12) 0.00657 567.3 2.2
591(13) 0.00618 567.0 2.2
594(13) 0.00578 566.8 2.2
574(13) 0.00608 566.6 2.2
558(12) 0.00645 566.4 2.3
571(12) 0.00649 566.1 2.3
608(13) 0.00583 565.9 2.3
606(13) 0.00559 565.7 2.3
565(13) 0.00611 565.5 2.3
550(12) 0.00651 565.2 2.3
575(12) 0.00652 565.0 2.3
577(13) 0.00594 564.8 2.4
581(13) 0.00581 564.5 2.4
566(13) 0.00611 564.3 2.4
562(12) 0.00657 564.1 2.4
598(13) 0.00616 563.9 2.5
584(13) 0.00588 563.6 2.5
581(13) 0.00574 563.4 2.5
594(13) 0.00584 563.2 2.5
618(13) 0.00592 563.0 2.6
587(13) 0.00634 562.7 2.6
557(13) 0.00638 562.5 2.6
582(13) 0.00563 562.3 2.7
563(13) 0.00615 562.0 2.7
558(12) 0.00664 561.8 2.7
574(13) 0.00639 561.6 2.8
572(13) 0.00610 561.4 2.8
559(13) 0.00586 561.1 2.9
573(13) 0.00615 560.9 2.9
574(12) 0.00645 560.7 3.0
536(12) 0.00690 560.5 3.1
531(12) 0.00674 560.2 3.1
555(13) 0.00581 560.0 3.2
569(13) 0.00612 559.8 3.2
614(13) 0.00608 559.5 3.3
553(12) 0.00665 559.3 3.3
546(13) 0.00634 559.1 3.4
568(13) 0.00563 558.9 3.5
579(13) 0.00590 558.6 3.5
566(12) 0.00661 558.4 3.6
565(12) 0.00650 558.2 3.7
554(12) 0.00652 558.0 3.8
580(13) 0.00583 557.7 3.8
567(13) 0.00609 557.5 3.9
575(12) 0.00647 557.3 4.0
583(13) 0.00634 557.0 4.1
539(12) 0.00659 556.8 4.2
552(13) 0.00612 556.6 4.3
569(13) 0.00598 556.4 4.4
580(13) 0.00637 556.1 4.5
559(13) 0.00627 555.9 4.6
532(13) 0.00635 555.7 4.7
557(13) 0.00593 555.5 4.9
556(13) 0.00633 555.2 5.0
584(13) 0.00636 555.0 5.1
558(13) 0.00632 554.8 5.3
561(13) 0.00601 554.5 5.4
584(13) 0.00585 554.3 5.6
546(12) 0.00661 554.1 5.7
572(12) 0.00650 553.9 5.9
550(13) 0.00638 553.6 6.1
564(13) 0.00608 553.4 6.3
570(13) 0.00587 553.2 6.5
562(13) 0.00635 553.0 6.7
550(12) 0.00677 552.7 6.9
557(13) 0.00616 552.5 7.2
531(13) 0.00628 552.3 7.4
566(13) 0.00584 552.0 7.7
557(12) 0.00651 551.8 8.0
557(12) 0.00665 551.6 8.3
549(13) 0.00635 551.4 8.6
544(13) 0.00601 551.1 8.9
540(13) 0.00637 550.9 9.3
548(12) 0.00672 550.7 9.7
598(13) 0.00627 550.5 10.1
540(12) 0.00651 550.2 10.5
574(13) 0.00566 550.0 11.0
540(12) 0.00669 549.8 11.5
584(13) 0.00626 549.5 12.1
546(12) 0.00689 549.3 12.7
572(13) 0.00595 549.1 13.3
580(13) 0.00551 548.9 14.0
555(13) 0.00639 548.6 14.8
554(12) 0.00674 548.4 15.7
563(12) 0.00653 548.2 16.6
567(13) 0.00607 548.0 17.6
563(13) 0.00560 547.7 18.7
563(13) 0.00609 547.5 19.9
548(12) 0.00684 547.3 21.2
565(12) 0.00657 547.0 22.7
560(13) 0.00633 546.8 24.3
563(13) 0.00586 546.6 26.0
568(13) 0.00623 546.4 27.9
606(13) 0.00609 546.1 29.9
579(12) 0.00641 545.9 32.1
574(13) 0.00603 545.7 34.6
554(13) 0.00588 545.5 37.2
559(13) 0.00617 545.2 40.0
566(12) 0.00654 545.0 43.0
581(13) 0.00615 544.8 46.3
600(13) 0.00559 544.5 49.8
609(14) 0.00542 544.3 53.5
572(13) 0.00604 544.1 57.4
591(13) 0.00630 543.9 61.4
598(13) 0.00597 543.6 65.7
594(13) 0.00580 543.4 70.1
613(13) 0.00564 543.2 74.5
661(14) 0.00532 543.0 79.0
624(13) 0.00598 542.7 83.4
637(13) 0.00556 542.5 87.6
629(14) 0.00546 542.3 91.5
652(14) 0.00520 542.0 95.0
615(13) 0.00576 541.8 98.0
627(13) 0.00596 541.6 100.3
598(13) 0.00583 541.4 101.8
630(14) 0.00541 541.1 102.5
624(13) 0.00561 540.9 102.3
632(13) 0.00583 540.7 101.3
625(13) 0.00592 540.5 99.5
603(13) 0.00583 540.2 96.9
619(14) 0.00534 540.0 93.7
622(13) 0.00555 539.8 90.1
617(13) 0.00605 539.5 86.0
632(13) 0.00586 539.3 81.8
628(13) 0.00558 539.1 77.3
611(14) 0.00535 538.9 72.9
609(13) 0.00566 538.6 68.5
598(13) 0.00616 538.4 64.1
614(13) 0.00606 538.2 60.0
609(13) 0.00569 538.0 56.0
575(13) 0.00563 537.7 52.2
564(13) 0.00619 537.5 48.5
563(12) 0.00653 537.3 45.2
571(12) 0.00655 537.0 42.0
564(13) 0.00613 536.8 39.0
562(13) 0.00582 536.6 36.3
576(13) 0.00616 536.4 33.8
564(12) 0.00662 536.1 31.4
556(12) 0.00663 535.9 29.3
577(13) 0.00584 535.7 27.3
570(13) 0.00579 535.5 25.5
574(13) 0.00606 535.2 23.8
533(12) 0.00704 535.0 22.3
551(12) 0.00661 534.8 20.9
530(13) 0.00638 534.5 19.6
531(13) 0.00621 534.3 18.5
582(13) 0.00586 534.1 17.4
524(12) 0.00709 533.9 16.5
546(12) 0.00669 533.6 15.6
569(13) 0.00590 533.4 14.8
564(13) 0.00598 533.2 14.1
588(13) 0.00590 533.0 13.4
559(12) 0.00664 532.7 12.8
546(12) 0.00652 532.5 12.2
508(12) 0.00671 532.3 11.7
509(12) 0.00696 532.0 11.2
560(13) 0.00637 531.8 10.7
534(12) 0.00698 531.6 10.3
538(12) 0.00656 531.4 9.9
537(13) 0.00626 531.1 9.6
498(12) 0.00694 530.9 9.3
513(12) 0.00698 530.7 9.0
535(12) 0.00696 530.5 8.7
556(13) 0.00614 530.2 8.4
548(13) 0.00604 530.0 8.2
544(12) 0.00641 529.8 8.0
567(13) 0.00630 529.5 7.8
515(12) 0.00724 529.3 7.6
558(13) 0.00606 529.1 7.4
537(13) 0.00611 528.9 7.2
532(12) 0.00654 528.6 7.1
549(12) 0.00662 528.4 7.0
549(12) 0.00681 528.2 6.9
548(13) 0.00638 528.0 6.8
535(13) 0.00625 527.7 6.7
521(12) 0.00661 527.5 6.6
527(12) 0.00698 527.3 6.6
539(12) 0.00692 527.1 6.5
558(13) 0.00604 526.8 6.5
542(13) 0.00604 526.6 6.5
515(12) 0.00691 526.4 6.5
527(12) 0.00697 526.1 6.6
528(12) 0.00701 525.9 6.7
524(12) 0.00669 525.7 6.8
524(13) 0.00619 525.5 6.9
548(13) 0.00639 525.2 7.1
525(12) 0.00714 525.0 7.3
516(12) 0.00716 524.8 7.6
536(12) 0.00644 524.6 7.9
550(13) 0.00579 524.3 8.3
520(12) 0.00679 524.1 8.9
537(12) 0.00695 523.9 9.6
550(12) 0.00662 523.6 10.6
543(13) 0.00635 523.4 11.9
520(13) 0.00630 523.2 13.5
539(13) 0.00632 523.0 15.7
557(12) 0.00665 522.7 18.5
570(12) 0.00643 522.5 22.0
559(13) 0.00621 522.3 26.3
540(13) 0.00617 522.1 31.6
542(12) 0.00644 521.8 37.6
569(12) 0.00654 521.6 44.2
571(13) 0.00633 521.4 50.9
570(13) 0.00601 521.1 57.0
554(13) 0.00621 520.9 61.2
561(13) 0.00623 520.7 62.7
582(12) 0.00644 520.5 60.9
567(13) 0.00614 520.2 56.3
568(13) 0.00608 520.0 50.1
550(12) 0.00642 519.8 43.2
507(12) 0.00710 519.6 36.5
529(12) 0.00700 519.3 30.5
534(12) 0.00645 519.1 25.2
559(13) 0.00606 518.9 20.8
529(12) 0.00661 518.6 17.3
532(12) 0.00679 518.4 14.5
523(12) 0.00703 518.2 12.2
537(12) 0.00656 518.0 10.5
535(13) 0.00617 517.7 9.2
515(12) 0.00658 517.5 8.1
522(12) 0.00687 517.3 7.3
529(12) 0.00699 517.1 6.7
501(12) 0.00669 516.8 6.1
512(13) 0.00635 516.6 5.6
540(12) 0.00649 516.4 5.3
513(12) 0.00729 516.1 4.9
522(12) 0.00705 515.9 4.6
504(12) 0.00693 515.7 4.3
537(13) 0.00598 515.5 4.1
505(12) 0.00684 515.2 3.9
493(12) 0.00747 515.0 3.7
509(12) 0.00723 514.8 3.5
503(12) 0.00696 514.6 3.4
489(12) 0.00670 514.3 3.2
499(12) 0.00693 514.1 3.1
510(12) 0.00733 513.9 3.0
512(12) 0.00705 513.6 2.9
518(12) 0.00670 513.4 2.8
532(13) 0.00623 513.2 2.7
536(12) 0.00643 513.0 2.6
513(12) 0.00717 512.7 2.5
526(12) 0.00702 512.5 2.5
491(12) 0.00741 512.3 2.4
516(12) 0.00653 512.1 2.3
541(13) 0.00633 511.8 2.3
494(12) 0.00755 511.6 2.2
557(13) 0.00639 511.4 2.1
518(12) 0.00674 511.1 2.1
538(13) 0.00611 510.9 2.0
521(12) 0.00654 510.7 2.0
547(12) 0.00682 510.5 1.9
512(12) 0.00694 510.2 1.9
469(12) 0.00731 510.0 1.9
489(12) 0.00691 509.8 1.8
492(12) 0.00710 509.6 1.8
501(12) 0.00742 509.3 1.8
510(12) 0.00705 509.1 1.7
535(13) 0.00633 508.9 1.7
501(12) 0.00690 508.6 1.7
507(12) 0.00698 508.4 1.6
501(12) 0.00738 508.2 1.6
543(12) 0.00641 508.0 1.6
519(12) 0.00666 507.7 1.5
517(12) 0.00680 507.5 1.5
519(12) 0.00697 507.3 1.5
515(12) 0.00719 507.1 1.5
481(12) 0.00713 506.8 1.5
488(12) 0.00682 506.6 1.4
508(12) 0.00667 506.4 1.4
489(12) 0.00732 506.1 1.4
469(11) 0.00798 505.9 1.4
509(12) 0.00671 505.7 1.4
517(12) 0.00647 505.5 1.3
509(12) 0.00686 505.2 1.3
536(12) 0.00675 505.0 1.3
521(12) 0.00717 504.8 1.3
490(12) 0.00738 504.6 1.3
536(13) 0.00614 504.3 1.3
478(12) 0.00738 504.1 1.2
505(12) 0.00733 503.9 1.2
491(12) 0.00749 503.6 1.2
512(12) 0.00663 503.4 1.2
484(12) 0.00674 503.2 1.2
518(12) 0.00678 503.0 1.2
539(12) 0.00684 502.7 1.2
502(12) 0.00735 502.5 1.1
521(12) 0.00674 502.3 1.1
512(12) 0.00648 502.1 1.1
520(12) 0.00664 501.8 1.1
523(12) 0.00719 501.6 1.1
509(12) 0.00710 501.4 1.1
511(12) 0.00684 501.1 1.1
520(13) 0.00618 500.9 1.1
502(12) 0.00685 500.7 1.1
496(12) 0.00749 500.5 1.1
541(12) 0.00675 500.2 1.0
499(12) 0.00691 500.0 1.0
525(13) 0.00628 499.8 1.0
501(12) 0.00680 499.6 1.0
512(12) 0.00720 499.3 1.0
526(12) 0.00676 499.1 1.0
494(12) 0.00703 498.9 1.0
501(12) 0.00680 498.6 1.0
500(12) 0.00690 498.4 1.0
485(11) 0.00768 498.2 1.0
484(12) 0.00741 498.0 1.0
487(12) 0.00720 497.7 1.0
491(12) 0.00706 497.5 1.0
515(12) 0.00681 497.3 1.0
500(12) 0.00746 497.1 1.0
478(12) 0.00737 496.8 0.9
481(12) 0.00725 496.6 0.9
510(12) 0.00692 496.4 0.9
508(12) 0.00701 496.1 0.9
485(11) 0.00759 495.9 0.9
489(12) 0.00709 495.7 0.9
520(12) 0.00644 495.5 0.9
512(12) 0.00680 495.2 0.8
490(12) 0.00742 495.0 0.8
484(11) 0.00775 494.8 0.8
489(12) 0.00724 494.6 0.8
525(13) 0.00629 494.3 0.7
508(12) 0.00696 494.1 0.7
471(11) 0.00772 493.9 0.7
494(11) 0.00759 493.6 0.7
510(12) 0.00700 493.4 0.7
528(13) 0.00626 493.2 0.7
517(12) 0.00670 493.0 0.7
540(12) 0.00683 492.7 0.7
500(12) 0.00742 492.5 0.7
448(11) 0.00779 492.3 0.7
496(12) 0.00642 492.1 0.7
472(12) 0.00745 491.8 0.7
532(12) 0.00695 491.6 0.7
514(12) 0.00730 491.4 0.7
522(12) 0.00659 491.1 0.7
521(13) 0.00619 490.9 0.7
501(12) 0.00713 490.7 0.7
491(11) 0.00766 490.5 0.7
493(12) 0.00747 490.2 0.7
513(12) 0.00699 490.0 0.7
517(12) 0.00645 489.8 0.8
490(12) 0.00700 489.7 0.8
492(12) 0.00754 489.6 0.8
512(12) 0.00701 489.5 0.8
475(12) 0.00737 489.4 0.8
473(12) 0.00704 489.2 0.8
507(12) 0.00695 489.1 0.8
515(12) 0.00723 489.0 0.8
480(12) 0.00740 488.9 0.8
490(12) 0.00693 488.8 0.8
510(12) 0.00666 488.6 0.8
532(12) 0.00641 488.5 0.8
478(11) 0.00774 488.4 0.8
484(12) 0.00753 488.3 0.8
484(12) 0.00721 488.2 0.9
525(13) 0.00639 488.1 0.9
502(12) 0.00690 487.9 0.9
510(12) 0.00724 487.8 0.9
481(12) 0.00715 487.7 0.9
502(12) 0.00676 487.6 0.9
512(12) 0.00651 487.5 0.9
457(11) 0.00770 487.3 1.0
473(11) 0.00790 487.2 1.0
515(12) 0.00677 487.1 1.0
476(12) 0.00711 487.0 1.1
506(13) 0.00638 486.9 1.1
475(11) 0.00768 486.7 1.1
521(12) 0.00717 486.6 1.2
501(12) 0.00685 486.5 1.2
491(12) 0.00675 486.4 1.2
503(12) 0.00699 486.3 1.3
481(11) 0.00761 486.1 1.3
451(11) 0.00827 486.0 1.4
492(12) 0.00693 485.9 1.5
490(12) 0.00676 485.8 1.5
509(12) 0.00693 485.7 1.6
489(11) 0.00762 485.5 1.7
510(12) 0.00720 485.4 1.8
469(11) 0.00762 485.3 1.9
486(12) 0.00652 485.2 2.0
488(12) 0.00696 485.1 2.1
489(11) 0.00758 484.9 2.2
484(11) 0.00757 484.8 2.3
468(12) 0.00748 484.7 2.4
485(12) 0.00650 484.6 2.5
472(12) 0.00731 484.5 2.7
501(12) 0.00750 484.4 2.8
469(11) 0.00788 484.2 2.9
471(12) 0.00756 484.1 3.0
529(13) 0.00613 484.0 3.1
545(13) 0.00628 483.9 3.2
499(12) 0.00743 483.8 3.3
495(12) 0.00747 483.6 3.4
484(12) 0.00692 483.5 3.4
485(12) 0.00672 483.4 3.6
517(12) 0.00649 483.3 3.6
482(11) 0.00764 483.2 3.6
487(12) 0.00728 483.0 3.6
516(12) 0.00682 482.9 3.5
500(12) 0.00700 482.8 3.4
521(12) 0.00644 482.7 3.3
495(12) 0.00755 482.6 3.2
484(12) 0.00750 482.4 3.1
475(12) 0.00715 482.3 3.6
497(12) 0.00665 482.2 3.5
482(12) 0.00740 482.1 3.4
504(12) 0.00736 482.0 3.3
497(12) 0.00732 481.8 3.2
493(12) 0.00696 481.7 3.1
481(12) 0.00707 481.6 3.0
503(12) 0.00700 481.5 3.0
493(12) 0.00753 481.4 2.9
473(12) 0.00752 481.3 2.8
474(12) 0.00718 481.1 2.8
491(12) 0.00685 481.0 2.7
455(11) 0.00804 480.9 2.7
502(12) 0.00730 480.8 2.6
499(12) 0.00698 480.7 2.6
491(12) 0.00682 480.5 2.6
484(12) 0.00689 480.4 2.5
473(11) 0.00764 480.3 2.5
479(11) 0.00777 480.2 2.5
476(12) 0.00731 480.1 2.5
499(12) 0.00641 479.9 2.5
451(11) 0.00807 479.8 2.5
487(12) 0.00745 479.7 2.5
489(11) 0.00763 479.6 2.5
501(12) 0.00698 479.5 2.5
480(12) 0.00680 479.3 2.5
489(12) 0.00697 479.2 2.6
470(11) 0.00771 479.1 2.6
466(11) 0.00800 479.0 2.6
508(12) 0.00692 478.9 2.7
472(12) 0.00686 478.7 2.7
481(12) 0.00723 478.6 2.7
463(11) 0.00792 478.5 2.8
502(12) 0.00734 478.4 2.8
475(12) 0.00756 478.3 2.9
492(12) 0.00653 478.1 2.9
499(12) 0.00698 478.0 3.0
472(11) 0.00796 477.9 3.0
476(11) 0.00788 477.8 3.1
501(12) 0.00693 477.7 3.1
507(12) 0.00656 477.6 3.2
474(11) 0.00759 477.4 3.2
493(12) 0.00752 477.3 3.3
478(11) 0.00763 477.2 3.4
498(12) 0.00696 477.1 3.5
463(12) 0.00723 477.0 3.5
476(12) 0.00697 476.8 3.6
439(11) 0.00839 476.7 3.7
467(11) 0.00781 476.6 3.8
485(12) 0.00701 476.5 3.9
480(12) 0.00711 476.4 4.0
477(12) 0.00720 476.2 4.1
478(11) 0.00778 476.1 4.2
459(11) 0.00772 476.0 4.3
467(12) 0.00742 475.9 4.5
485(12) 0.00698 475.8 4.6
506(12) 0.00696 475.6 4.7
498(12) 0.00752 475.5 4.9
468(12) 0.00748 475.4 5.0
443(11) 0.00766 475.3 5.2
487(12) 0.00694 475.2 6.2
503(12) 0.00709 475.0 6.4
456(11) 0.00815 474.9 6.6
498(12) 0.00682 474.8 6.8
489(12) 0.00677 474.7 7.0
476(12) 0.00729 474.6 7.2
465(11) 0.00791 474.5 7.5
512(12) 0.00721 474.3 7.8
483(12) 0.00724 474.2 8.1
465(12) 0.00702 474.1 8.4
504(12) 0.00672 474.0 8.7
461(11) 0.00805 473.9 9.1
482(11) 0.00770 473.7 9.5
453(11) 0.00761 473.6 9.9
475(12) 0.00691 473.5 10.4
474(12) 0.00732 473.4 10.9
473(11) 0.00782 473.3 11.4
454(11) 0.00819 473.1 12.0
444(11) 0.00802 473.0 12.7
475(12) 0.00684 472.9 13.4
483(12) 0.00722 472.8 14.2
484(11) 0.00774 472.7 15.1
487(11) 0.00758 472.5 16.1
492(12) 0.00709 472.4 17.2
492(12) 0.00677 472.3 18.4
491(12) 0.00713 472.2 19.8
482(11) 0.00761 472.1 21.4
481(11) 0.00777 471.9 23.1
486(12) 0.00703 471.8 25.0
497(12) 0.00655 471.7 27.1
479(12) 0.00743 471.6 29.4
495(12) 0.00744 471.5 31.9
506(12) 0.00733 471.3 34.7
489(12) 0.00730 471.2 37.7
495(12) 0.00666 471.1 41.0
506(12) 0.00684 471.0 44.4
490(11) 0.00757 470.9 48.1
513(12) 0.00706 470.8 52.3
515(12) 0.00674 470.6 56.1
539(13) 0.00627 470.5 59.9
514(12) 0.00689 470.4 63.6
555(12) 0.00676 470.3 67.1
504(12) 0.00721 470.2 70.3
530(13) 0.00631 470.0 73.3
534(13) 0.00637 469.9 76.1
534(12) 0.00671 469.8 78.9
518(12) 0.00711 469.7 82.2
518(12) 0.00674 469.6 86.4
567(13) 0.00594 469.4 92.5
525(12) 0.00653 469.3 101.7
556(13) 0.00626 469.2 115.6
573(12) 0.00645 469.1 136.1
615(13) 0.00552 469.0 165.4
660(14) 0.00508 468.8 204.8
709(14) 0.00490 468.7 254.9
726(14) 0.00496 468.6 313.9
755(14) 0.00492 468.5 377.0
875(16) 0.00396 468.4 435.0
950(17) 0.003427 468.2 477.1
950(16) 0.00368 468.1 500.0
1016(17) 0.00361 468.0 512.7
958(16) 0.00389 467.9 530.1
953(16) 0.00370 467.8 562.5
978(17) 0.003394 467.7 612.4
1133(18) 0.003029 467.5 673.7
1227(18) 0.002940 467.4 730.5
1313(19) 0.002845 467.3 760.2
1266(19) 0.002726 467.2 744.3
1189(19) 0.002735 467.1 682.1
1023(17) 0.003416 466.9 590.2
957(16) 0.00386 466.8 488.9
815(15) 0.00456 466.7 392.4
706(14) 0.00502 466.6 308.5
723(15) 0.00455 466.5 239.7
681(14) 0.00520 466.3 186.1
669(13) 0.00553 466.2 145.8
584(13) 0.00633 466.1 116.3
575(13) 0.00600 466.0 95.0
580(13) 0.00552 465.9 79.7
518(12) 0.00661 465.7 68.4
539(12) 0.00685 465.6 59.8
537(12) 0.00682 465.5 53.1
489(12) 0.00732 465.4 47.7
523(13) 0.00635 465.3 43.3
525(12) 0.00650 465.1 39.5
495(12) 0.00752 465.0 36.3
500(12) 0.00717 464.9 33.6
515(12) 0.00661 464.8 31.2
488(12) 0.00700 464.7 29.1
510(12) 0.00677 464.5 27.2
496(12) 0.00741 464.4 25.6
492(12) 0.00708 464.3 24.2
486(12) 0.00691 464.2 22.9
490(12) 0.00664 464.1 21.8
440(11) 0.00795 464.0 20.8
488(11) 0.00758 463.8 19.9
474(12) 0.00754 463.7 19.1
486(12) 0.00681 463.6 18.4
464(12) 0.00752 463.5 17.8
441(11) 0.00821 463.4 17.2
429(11) 0.00862 463.2 16.7
481(12) 0.00722 463.1 16.3
453(12) 0.00746 463.0 15.9
445(11) 0.00798 462.9 15.5
463(11) 0.00768 462.8 15.2
490(12) 0.00752 462.6 14.9
472(12) 0.00701 462.5 14.7
480(12) 0.00678 462.4 14.5
462(12) 0.00741 462.3 14.3
487(12) 0.00744 462.2 14.2
491(11) 0.00760 462.0 14.1
465(12) 0.00734 461.9 14.0
457(12) 0.00720 461.8 13.9
463(11) 0.00769 461.7 13.8
472(11) 0.00783 461.6 13.8
483(11) 0.00758 461.4 13.8
484(12) 0.00700 461.3 13.8
480(12) 0.00681 461.2 13.9
458(11) 0.00778 461.1 14.0
478(11) 0.00774 460.9 14.1
463(11) 0.00798 460.7 14.2
457(11) 0.00763 460.5 14.4
465(12) 0.00689 460.3 14.6
474(11) 0.00756 460.2 14.8
472(11) 0.00789 460.0 15.0
462(11) 0.00810 459.8 15.3
477(12) 0.00747 459.6 15.6
446(12) 0.00751 459.4 15.9
471(12) 0.00729 459.2 16.3
439(11) 0.00844 459.0 16.7
480(11) 0.00762 458.8 17.1
472(12) 0.00741 458.6 17.6
457(12) 0.00720 458.4 18.1
455(12) 0.00752 458.3 18.6
471(11) 0.00783 458.1 19.2
485(12) 0.00740 457.9 19.9
461(12) 0.00753 457.7 20.6
476(12) 0.00707 457.5 21.3
471(12) 0.00731 457.3 22.2
454(11) 0.00815 457.1 23.1
467(11) 0.00776 456.9 24.1
471(12) 0.00734 456.7 25.2
476(12) 0.00725 456.5 26.3
480(12) 0.00732 456.4 27.6
479(11) 0.00774 456.2 29.0
496(12) 0.00719 456.0 30.6
477(12) 0.00723 455.8 32.3
484(12) 0.00702 455.6 34.2
460(11) 0.00770 455.4 36.3
470(11) 0.00790 455.2 38.6
493(12) 0.00710 455.0 41.2
512(12) 0.00647 454.8 44.1
492(12) 0.00712 454.6 47.3
525(12) 0.00694 454.5 50.9
504(12) 0.00734 454.3 55.0
466(12) 0.00726 454.1 59.7
504(12) 0.00651 453.9 65.0
496(12) 0.00689 453.7 71.2
525(12) 0.00687 453.5 78.3
558(12) 0.00669 453.3 86.8
542(13) 0.00623 453.1 96.9
555(13) 0.00578 452.9 109.3
579(13) 0.00558 452.7 124.9
563(12) 0.00653 452.6 144.9
625(13) 0.00589 452.4 171.3
641(14) 0.00538 452.2 206.5
690(14) 0.00480 452.0 253.5
720(14) 0.00489 451.8 315.8
786(15) 0.00473 451.6 396.8
875(15) 0.00426 451.4 499.7
1004(17) 0.003499 451.2 625.9
1176(19) 0.002708 451.0 774.2
1343(20) 0.002567 450.8 939.3
1534(20) 0.002394 450.7 1108.0
1728(22) 0.002147 450.5 1257.9
1877(23) 0.001878 450.3 1357.8
1870(24) 0.001741 450.1 1379.9
1780(23) 0.001950 449.9 1317.3
1538(20) 0.002413 449.7 1189.2
1390(20) 0.002609 449.5 1027.4
1271(19) 0.002720 449.3 859.2
1115(18) 0.003000 449.1 702.4
984(17) 0.00353 448.9 565.8
913(16) 0.00407 448.8 452.5
821(15) 0.00443 448.6 362.0
773(15) 0.00456 448.4 291.9
745(15) 0.00450 448.2 239.0
731(15) 0.00472 448.0 199.9
666(13) 0.00561 447.8 171.0
657(14) 0.00544 447.6 149.8
623(13) 0.00553 447.4 134.0
621(14) 0.00548 447.2 122.3
574(13) 0.00616 447.0 113.4
555(12) 0.00667 446.9 106.9
584(13) 0.00608 446.7 102.1
555(13) 0.00601 446.5 98.9
596(13) 0.00579 446.3 97.2
584(13) 0.00605 446.1 96.9
578(12) 0.00642 445.9 98.2
573(13) 0.00619 445.7 101.2
606(13) 0.00556 445.5 106.5
593(13) 0.00598 445.3 114.8
580(13) 0.00629 445.1 127.1
633(13) 0.00588 445.0 144.7
669(14) 0.00523 444.8 169.6
680(14) 0.00501 444.6 203.7
751(15) 0.00461 444.4 249.1
783(15) 0.00462 444.2 307.4
804(15) 0.00464 444.0 379.4
936(17) 0.00361 443.8 464.1
1055(18) 0.003120 443.6 557.7
1088(18) 0.003146 443.4 651.9
1217(18) 0.002974 443.2 732.4
1303(19) 0.002878 443.1 780.8
1369(20) 0.002567 442.9 782.3
1310(20) 0.002546 442.7 736.3
1217(18) 0.002941 442.5 656.3
1042(17) 0.00359 442.3 560.8
893(16) 0.00414 442.1 464.9
775(15) 0.00450 441.9 377.1
744(15) 0.00421 441.7 301.8
656(14) 0.00536 441.5 240.0
600(13) 0.00612 441.3 191.1
600(13) 0.00625 441.2 153.6
562(12) 0.00643 441.0 125.3
538(13) 0.00608 440.8 104.2
534(12) 0.00642 440.6 88.4
503(12) 0.00741 440.4 76.5
521(12) 0.00692 440.2 67.3
485(12) 0.00729 440.0 59.9
510(12) 0.00656 439.8 53.9
506(12) 0.00684 439.6 48.9
484(11) 0.00768 439.4 44.7
463(11) 0.00801 439.3 41.0
483(12) 0.00708 439.1 37.8
452(12) 0.00747 438.9 35.0
444(11) 0.00796 438.7 32.5
455(11) 0.00817 438.5 30.3
445(11) 0.00806 438.3 28.4
475(12) 0.00731 438.1 26.6
452(12) 0.00749 437.9 25.0
453(11) 0.00757 437.7 23.6
476(11) 0.00780 437.5 22.2
468(11) 0.00771 437.4 21.1
475(12) 0.00718 437.2 20.0
467(12) 0.00724 437.0 19.0
427(11) 0.00810 436.8 18.1
474(11) 0.00782 436.6 17.2
457(11) 0.00769 436.4 16.4
442(11) 0.00792 436.2 15.7
446(11) 0.00781 436.0 15.0
461(11) 0.00782 435.8 14.4
426(11) 0.00871 435.6 13.8
440(11) 0.00788 435.5 13.3
437(11) 0.00788 435.3 12.8
450(11) 0.00759 435.1 12.3
446(11) 0.00823 434.9 11.9
456(11) 0.00820 434.7 11.4
437(11) 0.00801 434.5 11.0
484(12) 0.00677 434.3 10.7
452(11) 0.00778 434.1 10.3
464(11) 0.00780 433.9 10.0
489(11) 0.00760 433.7 9.7
450(11) 0.00762 433.6 9.4
464(12) 0.00699 433.4 9.1
479(12) 0.00721 433.2 8.8
450(11) 0.00810 433.0 8.6
449(11) 0.00840 432.8 8.3
454(11) 0.00776 432.6 8.1
449(12) 0.00719 432.4 7.9
448(11) 0.00784 432.2 7.7
491(11) 0.00764 432.0 7.5
432(11) 0.00859 431.8 7.3
434(11) 0.00814 431.7 7.1
451(12) 0.00740 431.5 6.9
431(11) 0.00807 431.3 6.8
440(11) 0.00851 431.1 6.6
431(11) 0.00850 430.9 6.4
453(11) 0.00775 430.7 6.3
446(12) 0.00739 430.5 6.2
459(12) 0.00751 430.3 6.0
430(11) 0.00861 430.1 5.9
431(11) 0.00855 429.9 5.8
477(12) 0.00729 429.8 5.7
433(11) 0.00780 429.6 5.5
412(11) 0.00862 429.4 5.4
421(11) 0.00878 429.2 5.3
440(11) 0.00818 429.0 5.4
437(11) 0.00782 428.8 5.3
424(11) 0.00795 428.6 5.2
433(11) 0.00829 428.4 5.1
463(11) 0.00809 428.2 5.0
453(11) 0.00791 428.0 5.6
453(11) 0.00759 427.9 5.5
435(11) 0.00782 427.7 5.4
440(11) 0.00783 427.5 5.3
428(11) 0.00873 427.3 5.3
439(11) 0.00791 427.1 5.2
428(11) 0.00799 426.9 5.1
442(12) 0.00743 426.7 5.1
422(11) 0.00826 426.5 5.0
416(11) 0.00899 426.3 5.0
464(12) 0.00753 426.1 4.9
418(11) 0.00821 426.0 4.9
421(11) 0.00828 425.8 4.8
419(11) 0.00875 425.6 4.8
430(11) 0.00869 425.4 4.7
447(11) 0.00765 425.2 4.7
423(11) 0.00816 425.0 4.6
428(11) 0.00835 424.8 4.6
428(11) 0.00862 424.6 4.6
443(11) 0.00832 424.4 4.5
439(11) 0.00814 424.2 4.5
429(11) 0.00778 424.1 4.5
416(11) 0.00852 423.9 4.4
420(11) 0.00894 423.7 4.4
436(11) 0.00840 423.5 4.4
445(11) 0.00781 423.5 4.4
431(12) 0.00736 423.4 4.3
418(11) 0.00834 423.4 4.3
438(11) 0.00837 423.3 4.3
449(11) 0.00819 423.2 4.3
434(11) 0.00803 423.2 4.2
438(12) 0.00722 423.1 4.2
435(11) 0.00799 423.1 4.2
434(11) 0.00843 423.0 4.2
428(11) 0.00873 422.9 4.2
446(11) 0.00783 422.9 4.2
440(12) 0.00732 422.8 4.2
414(11) 0.00864 422.8 4.2
424(11) 0.00877 422.7 4.1
463(11) 0.00787 422.6 4.1
441(11) 0.00807 422.6 4.1
412(11) 0.00824 422.5 4.1
413(11) 0.00845 422.5 4.1
437(11) 0.00848 422.4 4.1
435(11) 0.00853 422.3 4.1
427(11) 0.00807 422.3 4.1
422(11) 0.00801 422.2 4.1
402(11) 0.00872 422.1 4.2
412(11) 0.00904 422.1 4.2
435(11) 0.00838 422.0 4.2
423(11) 0.00827 422.0 4.2
429(11) 0.00805 421.9 4.2
415(11) 0.00859 421.8 4.2
426(11) 0.00879 421.8 4.3
441(11) 0.00789 421.7 4.3
432(11) 0.00812 421.7 4.3
425(11) 0.00823 421.6 4.4
409(11) 0.00873 421.5 4.5
436(11) 0.00859 421.5 4.5
421(11) 0.00837 421.4 4.5
449(12) 0.00743 421.4 4.6
428(11) 0.00804 421.3 4.7
406(11) 0.00877 421.2 4.7
446(11) 0.00833 421.2 4.8
431(11) 0.00787 421.1 4.9
401(11) 0.00873 421.1 5.0
443(12) 0.00753 421.0 5.1
421(11) 0.00841 420.9 5.3
421(11) 0.00886 420.9 5.5
435(11) 0.00810 420.8 5.7
427(11) 0.00758 420.7 5.9
438(11) 0.00779 420.7 6.2
434(11) 0.00829 420.6 6.5
421(11) 0.00886 420.6 7.0
454(12) 0.00733 420.5 7.6
435(12) 0.00741 420.4 8.5
426(11) 0.00835 420.4 10.0
453(11) 0.00811 420.3 12.8
459(11) 0.00808 420.3 18.2
457(12) 0.00744 420.2 28.3
445(12) 0.00735 420.1 44.9
493(12) 0.00692 420.1 69.1
489(11) 0.00769 420.0 98.8
510(12) 0.00722 420.0 128.1
560(13) 0.00625 419.9 147.2
597(14) 0.00547 419.8 146.7
571(13) 0.00611 419.8 127.1
553(12) 0.00664 419.7 97.6
488(11) 0.00758 419.6 68.1
457(12) 0.00748 419.6 44.3
459(12) 0.00683 419.5 28.0
456(12) 0.00752 419.5 18.3
449(11) 0.00823 419.4 13.1
408(11) 0.00907 419.3 10.4
448(11) 0.00770 419.3 9.0
437(11) 0.00775 419.2 8.2
435(11) 0.00800 419.2 7.7
431(11) 0.00853 419.1 7.3
452(11) 0.00782 419.0 7.0
424(11) 0.00817 419.0 6.8
455(12) 0.00732 418.9 6.7
464(12) 0.00738 418.9 6.5
431(11) 0.00864 418.8 6.4
430(11) 0.00831 418.7 6.4
432(11) 0.00805 418.7 6.3
435(11) 0.00789 418.6 6.3
410(11) 0.00858 418.6 6.3
418(11) 0.00894 418.5 6.3
412(11) 0.00866 418.4 6.3
445(11) 0.00765 418.4 6.3
416(11) 0.00842 418.3 6.3
430(11) 0.00843 418.2 6.4
412(10) 0.00909 418.2 6.4
412(11) 0.00823 418.1 6.5
441(12) 0.00744 418.1 6.5
410(11) 0.00833 418.0 6.6
427(11) 0.00857 417.9 6.7
420(11) 0.00880 417.9 6.8
435(11) 0.00780 417.8 6.9
421(11) 0.00781 417.8 7.0
439(11) 0.00787 417.9 7.1
426(11) 0.00864 417.9 7.2
423(11) 0.00881 417.9 7.3
428(11) 0.00818 417.9 7.5
413(11) 0.00790 417.9 7.5
432(11) 0.00784 418.0 7.6
437(11) 0.00845 418.0 7.8
416(11) 0.00900 418.0 8.0
411(11) 0.00863 418.0 8.1
417(11) 0.00798 418.1 8.3
438(11) 0.00793 418.1 8.5
458(11) 0.00813 418.1 8.8
457(11) 0.00804 418.1 9.0
445(11) 0.00770 418.2 9.2
395(11) 0.00855 418.2 9.5
412(11) 0.00852 418.2 9.8
419(11) 0.00890 418.2 10.1
431(11) 0.00850 418.2 10.4
405(11) 0.00876 418.3 10.8
425(11) 0.00777 418.3 11.1
438(11) 0.00783 418.3 11.5
434(11) 0.00858 418.3 12.0
425(11) 0.00873 418.4 12.4
422(11) 0.00843 418.4 13.0
443(12) 0.00752 418.4 13.5
447(11) 0.00772 418.4 14.1
443(11) 0.00852 418.5 14.8
442(11) 0.00805 418.5 15.5
454(11) 0.00756 418.5 16.3
459(11) 0.00763 418.5 17.2
448(11) 0.00782 418.5 18.2
416(11) 0.00901 418.6 19.3
445(11) 0.00810 418.6 20.5
456(12) 0.00745 418.6 21.9
437(11) 0.00783 418.6 23.6
433(11) 0.00813 418.7 25.5
466(11) 0.00805 418.7 27.7
451(11) 0.00789 418.7 30.5
456(12) 0.00708 418.7 33.9
437(11) 0.00774 418.8 38.1
463(11) 0.00778 418.8 43.4
487(11) 0.00763 418.8 50.0
457(11) 0.00761 418.8 58.3
478(12) 0.00706 418.8 68.6
491(12) 0.00703 418.9 81.2
477(11) 0.00762 418.9 96.1
549(12) 0.00680 418.9 113.5
525(12) 0.00688 418.9 132.8
564(13) 0.00593 419.0 153.4
578(13) 0.00611 419.0 173.5
573(12) 0.00641 419.0 190.7
628(13) 0.00588 419.0 202.1
607(13) 0.00578 419.1 205.3
629(14) 0.00530 419.1 199.9
614(13) 0.00570 419.1 187.6
555(12) 0.00660 419.1 171.4
539(12) 0.00697 419.1 154.2
555(13) 0.00633 419.2 137.9
512(12) 0.00655 419.2 123.8
510(12) 0.00691 419.2 112.4
529(12) 0.00691 419.2 104.1
477(11) 0.00769 419.3 98.7
506(12) 0.00682 419.3 96.3
497(12) 0.00646 419.3 96.5
499(12) 0.00699 419.3 99.2
524(12) 0.00702 419.4 104.2
506(12) 0.00731 419.4 111.2
540(12) 0.00641 419.4 120.1
548(13) 0.00587 419.4 130.5
581(13) 0.00580 419.4 142.2
609(13) 0.00608 419.5 154.7
628(13) 0.00584 419.5 167.5
644(14) 0.00535 419.5 179.5
614(14) 0.00543 419.5 189.9
652(14) 0.00527 419.6 197.5
629(13) 0.00595 419.6 201.2
637(13) 0.00572 419.6 200.6
608(13) 0.00565 419.6 195.6
612(13) 0.00549 419.7 186.8
602(13) 0.00566 419.7 175.1
571(12) 0.00654 419.7 161.8
571(13) 0.00626 419.7 147.7
546(13) 0.00638 419.7 133.7
568(13) 0.00600 419.8 120.3
537(12) 0.00673 419.8 107.9
523(12) 0.00720 419.8 96.5
539(12) 0.00657 419.8 86.3
531(13) 0.00627 419.9 77.3
485(12) 0.00724 419.9 69.4
496(12) 0.00715 419.9 62.5
499(12) 0.00738 419.9 56.6
481(12) 0.00736 420.0 51.6
473(12) 0.00690 420.0 47.3
446(11) 0.00770 420.0 43.6
471(11) 0.00762 420.0 40.5
436(11) 0.00857 420.0 37.9
473(12) 0.00737 420.1 35.7
448(11) 0.00769 420.1 33.8
430(11) 0.00808 420.1 32.3
473(11) 0.00775 420.1 30.9
441(11) 0.00839 420.2 29.7
434(11) 0.00805 420.2 28.8
465(12) 0.00705 420.2 27.9
445(11) 0.00783 420.2 27.2
434(11) 0.00854 420.3 26.6
441(11) 0.00837 420.3 26.1
440(11) 0.00774 420.3 25.7
442(12) 0.00711 420.3 25.4
427(11) 0.00817 420.3 25.2
421(11) 0.00883 420.4 25.0
430(11) 0.00861 420.4 24.9
418(11) 0.00839 420.4 24.9
415(11) 0.00784 420.4 24.9
439(11) 0.00774 420.5 25.0
413(11) 0.00900 420.5 25.2
434(11) 0.00833 420.5 25.4
420(11) 0.00833 420.5 25.7
435(12) 0.00754 420.6 26.0
410(11) 0.00834 420.6 26.5
424(11) 0.00875 420.6 27.0
456(11) 0.00811 420.6 27.5
439(11) 0.00796 420.6 28.1
422(11) 0.00803 420.7 28.8
420(11) 0.00852 420.7 29.6
453(11) 0.00816 420.6 30.5
415(11) 0.00884 420.4 31.4
399(11) 0.00875 420.2 32.4
423(11) 0.00792 420.0 33.4
442(11) 0.00776 419.8 34.5
435(11) 0.00854 419.6 35.6
453(11) 0.00764 419.4 36.8
432(11) 0.00805 419.2 38.0
441(11) 0.00787 418.9 39.2
429(11) 0.00839 418.7 40.4
442(11) 0.00848 418.5 41.6
408(11) 0.00859 418.3 42.8
434(11) 0.00784 418.1 44.1
448(11) 0.00762 417.9 45.4
437(11) 0.00791 417.7 46.7
439(11) 0.00851 417.5 48.2
432(11) 0.00821 417.3 49.9
426(11) 0.00820 417.1 51.7
450(11) 0.00769 416.9 53.7
439(11) 0.00800 416.7 56.0
440(11) 0.00842 416.5 58.5
465(12) 0.00748 416.3 61.2
458(12) 0.00745 416.1 64.0
437(11) 0.00808 415.9 66.8
461(11) 0.00791 415.6 69.7
450(11) 0.00823 415.4 72.5
449(11) 0.00764 415.2 75.2
446(12) 0.00747 415.0 77.9
450(11) 0.00775 414.8 80.8
434(11) 0.00833 414.6 84.1
465(11) 0.00799 414.4 87.9
461(11) 0.00759 414.2 92.3
439(11) 0.00762 414.0 97.5
469(12) 0.00741 413.8 103.7
446(11) 0.00816 413.6 111.0
464(11) 0.00800 413.4 119.6
513(12) 0.00654 413.2 129.6
478(12) 0.00684 413.0 141.2
477(12) 0.00737 412.8 154.7
561(12) 0.00656 412.6 170.4
548(12) 0.00678 412.3 188.3
562(13) 0.00619 412.1 208.9
563(13) 0.00570 411.9 232.3
602(13) 0.00582 411.7 258.7
625(13) 0.00592 411.5 288.4
656(13) 0.00569 411.3 321.5
697(14) 0.00503 411.1 358.0
698(15) 0.00461 410.9 397.7
765(15) 0.00430 410.7 440.3
803(15) 0.00458 410.5 485.2
887(16) 0.00415 410.3 531.3
911(16) 0.00382 410.1 577.0
989(17) 0.003323 409.9 620.2
1016(17) 0.003370 409.7 658.3
1029(17) 0.00361 409.5 688.4
958(16) 0.00374 409.3 708.0
1000(17) 0.003437 409.0 715.1
985(17) 0.003414 408.8 709.2
977(17) 0.00357 408.6 691.0
940(16) 0.00400 408.4 662.4
947(16) 0.00374 408.2 626.1
860(16) 0.00404 408.0 584.9
832(15) 0.00416 407.8 541.4
829(15) 0.00425 407.6 497.7
789(15) 0.00472 407.4 455.3
758(15) 0.00458 407.2 415.2
750(15) 0.00452 407.0 378.0
706(14) 0.00491 406.8 344.1
692(14) 0.00516 406.6 313.5
662(13) 0.00568 406.4 286.1
617(13) 0.00569 406.2 261.9
626(14) 0.00544 406.0 240.6
665(14) 0.00512 405.7 222.0
639(13) 0.00571 405.5 205.8
610(13) 0.00611 405.3 191.7
587(13) 0.00585 405.1 179.4
599(14) 0.00545 404.9 168.7
555(13) 0.00631 404.7 159.3
527(12) 0.00691 404.5 151.0
541(12) 0.00693 404.3 143.7
547(13) 0.00631 404.1 137.0
527(13) 0.00622 403.9 131.0
514(12) 0.00679 403.7 125.4
510(12) 0.00714 403.5 120.3
510(12) 0.00735 403.3 115.4
501(12) 0.00676 403.1 110.8
484(12) 0.00667 402.9 106.5
509(12) 0.00664 402.7 102.4
481(11) 0.00771 402.4 98.6
497(12) 0.00740 402.2 94.9
499(12) 0.00679 402.0 91.4
488(12) 0.00668 401.8 88.1
505(12) 0.00689 401.6 85.1
470(11) 0.00786 401.4 82.3
462(11) 0.00803 401.2 79.7
489(12) 0.00711 401.0 77.4
492(12) 0.00669 400.8 75.4
455(11) 0.00794 400.6 73.7
472(11) 0.00788 400.4 72.3
482(12) 0.00753 400.2 71.3
502(12) 0.00677 400.0 70.7
464(12) 0.00716 399.8 70.4
499(12) 0.00677 399.6 70.6
436(11) 0.00853 399.4 71.3
469(11) 0.00784 399.1 72.5
466(11) 0.00757 398.9 74.2
451(12) 0.00745 398.7 76.5
459(12) 0.00736 398.5 79.2
501(12) 0.00746 398.3 82.5
488(12) 0.00718 398.1 86.2
483(12) 0.00707 397.9 90.3
489(12) 0.00693 397.7 94.6
491(12) 0.00720 397.5 98.8
508(12) 0.00733 397.3 102.6
509(12) 0.00708 397.1 105.8
545(13) 0.00618 396.9 107.8
531(13) 0.00634 396.7 108.4
518(12) 0.00668 396.5 107.4
549(12) 0.00679 396.3 104.7
523(12) 0.00651 396.1 100.6
516(12) 0.00651 395.8 95.5
510(12) 0.00694 395.6 89.5
521(12) 0.00682 395.4 83.3
450(11) 0.00829 395.2 76.9
467(12) 0.00741 395.0 70.7
457(12) 0.00740 394.8 64.8
444(11) 0.00765 394.6 59.3
449(11) 0.00818 394.4 54.2
449(11) 0.00828 394.2 49.6
415(11) 0.00858 394.0 45.5
425(11) 0.00778 393.8 41.8
452(12) 0.00750 393.6 38.5
428(11) 0.00869 393.4 35.6
434(11) 0.00866 393.2 33.0
397(11) 0.00899 393.0 30.7
405(11) 0.00811 392.8 28.7
434(11) 0.00792 392.5 26.9
410(11) 0.00907 392.3 25.4
424(11) 0.00865 392.1 24.0
413(11) 0.00855 391.9 22.7
370(11) 0.00907 391.7 21.6
394(11) 0.00886 391.5 20.6
400(10) 0.00930 391.3 19.7
399(10) 0.00940 391.1 18.9
425(11) 0.00825 390.9 18.1
407(11) 0.00795 390.7 17.4
406(11) 0.00857 390.5 16.8
413(11) 0.00903 390.3 16.2
377(10) 0.00984 390.1 15.6
385(11) 0.00886 389.9 15.1
411(11) 0.00777 389.7 14.6
397(11) 0.00873 389.5 14.1
398(10) 0.00936 389.2 13.7
405(11) 0.00903 389.0 13.3
393(11) 0.00900 388.8 12.9
434(11) 0.00789 388.6 12.5
406(11) 0.00860 388.4 12.1
398(10) 0.00938 388.2 11.8
394(11) 0.00902 388.0 11.5
388(11) 0.00898 387.8 11.2
360(10) 0.00984 387.6 10.9
379(10) 0.00918 387.4 10.6
385(10) 0.00968 387.2 10.4
389(11) 0.00901 387.0 10.1
368(10) 0.00921 386.8 9.9
385(11) 0.00879 386.6 9.6
392(11) 0.00905 386.4 9.4
403(10) 0.00921 386.2 9.2
377(10) 0.00920 385.9 9.0
414(11) 0.00814 385.7 8.8
415(11) 0.00817 385.5 8.6
388(11) 0.00902 385.3 8.4
355(10) 0.01053 385.1 8.2
404(11) 0.00832 384.9 8.1
377(11) 0.00886 384.7 7.9
388(11) 0.00880 384.5 7.7
393(10) 0.00910 384.3 7.6
383(10) 0.00977 384.1 7.4
388(11) 0.00901 383.9 7.3
374(11) 0.00894 383.7 7.2
385(10) 0.00908 383.5 7.0
376(10) 0.00983 383.3 6.9
401(10) 0.00926 383.1 6.8
396(11) 0.00873 382.9 6.6
389(11) 0.00836 382.6 6.5
399(11) 0.00864 382.4 6.4
381(10) 0.00977 382.2 6.3
372(10) 0.01009 382.0 6.2
403(11) 0.00853 381.8 6.1
381(11) 0.00849 381.6 6.0
393(11) 0.00853 381.4 5.9
385(10) 0.00966 381.2 5.8
392(10) 0.00953 381.0 5.7
386(10) 0.00931 380.8 5.6
372(11) 0.00891 380.6 5.5
380(10) 0.00926 380.4 5.4
375(10) 0.00998 380.2 5.3
366(10) 0.00995 380.0 5.3
376(10) 0.00953 379.8 5.2
393(11) 0.00849 379.6 5.1
379(11) 0.00897 379.3 5.0
393(10) 0.00951 379.1 4.9
406(11) 0.00878 378.9 4.9
369(10) 0.00966 378.7 4.8
384(11) 0.00886 378.5 4.7
389(11) 0.00897 378.3 4.7
411(11) 0.00905 378.1 4.6
385(10) 0.00942 377.9 4.5
386(11) 0.00892 377.7 4.5
401(11) 0.00842 377.5 4.4
414(11) 0.00842 377.3 4.4
396(10) 0.00946 377.1 4.3
368(10) 0.00988 376.9 4.2
391(11) 0.00866 376.7 4.2
396(11) 0.00833 376.5 4.1
340(10) 0.01050 376.3 4.1
369(10) 0.01006 376.0 4.0
374(10) 0.00939 375.8 4.0
388(11) 0.00887 375.6 3.9
381(10) 0.00948 375.4 3.9
392(10) 0.00932 375.2 3.8
409(10) 0.00907 375.0 3.8
411(11) 0.00822 374.8 3.7
388(11) 0.00861 374.6 3.7
380(10) 0.00932 374.4 3.6
386(10) 0.00946 374.2 3.6
373(10) 0.01003 374.0 3.5
400(11) 0.00819 373.8 3.5
394(11) 0.00834 373.6 3.5
412(11) 0.00825 373.4 3.4
400(11) 0.00907 373.2 3.4
352(10) 0.01063 373.0 3.3
391(11) 0.00894 372.8 3.3
380(11) 0.00845 372.5 3.3
416(11) 0.00785 372.3 3.2
363(10) 0.01017 372.1 3.2
376(10) 0.00992 371.9 3.2
388(11) 0.00889 371.7 3.1
359(10) 0.00950 371.5 3.1
397(11) 0.00865 371.3 3.1
360(10) 0.01041 371.1 3.0
350(10) 0.01036 370.9 3.0
373(11) 0.00900 370.7 3.0
383(11) 0.00819 370.5 2.9
371(10) 0.00926 370.3 2.9
400(10) 0.00930 370.1 2.9
383(10) 0.00955 369.9 2.8
382(10) 0.00918 369.7 2.8
358(10) 0.00947 369.5 2.8
377(11) 0.00897 369.2 2.8
379(10) 0.00968 369.0 2.7
397(10) 0.00931 368.8 2.7
403(11) 0.00864 368.6 2.7
373(11) 0.00882 368.4 2.7
364(10) 0.00958 368.2 2.6
388(10) 0.00972 368.0 2.7
400(11) 0.00883 367.8 2.6
375(10) 0.00963 367.6 2.6
404(11) 0.00851 367.4 2.6
374(10) 0.00931 367.2 2.6
367(10) 0.01018 367.0 2.5
344(10) 0.01050 366.8 2.5
362(10) 0.00938 366.6 2.5
353(10) 0.00975 366.4 2.5
377(10) 0.00925 366.2 2.4
354(10) 0.01046 365.9 2.4
388(10) 0.00933 365.9 2.4
372(10) 0.00944 365.8 2.4
345(10) 0.01019 365.8 2.4
352(10) 0.01002 365.7 2.3
352(10) 0.01055 365.6 2.3
374(10) 0.00924 365.6 2.3
364(10) 0.00927 365.5 2.3
372(10) 0.00920 365.5 2.3
381(10) 0.00939 365.4 2.3
370(10) 0.01011 365.4 2.2
391(11) 0.00895 365.3 2.2
377(11) 0.00890 365.3 2.2
381(10) 0.00916 365.2 2.2
376(10) 0.00964 365.1 2.2
376(10) 0.00991 365.1 2.2
340(10) 0.01023 365.0 2.1
359(11) 0.00899 365.0 2.1
356(10) 0.00985 364.9 2.1
364(10) 0.01028 364.9 2.1
378(10) 0.00973 364.8 2.1
364(10) 0.00955 364.8 2.1
372(11) 0.00838 364.7 2.1
335(10) 0.01021 364.6 2.0
364(10) 0.01025 364.6 2.0
373(10) 0.01009 364.5 2.0
369(10) 0.00922 364.5 2.0
357(11) 0.00904 364.4 2.0
382(11) 0.00897 364.4 2.0
358(10) 0.01038 364.3 2.0
396(10) 0.00912 364.3 2.0
351(10) 0.01003 364.2 1.9
373(11) 0.00846 364.1 1.9
366(10) 0.00926 364.1 1.9
371(10) 0.01006 364.0 1.9
355(10) 0.01028 364.0 1.9
376(10) 0.00930 363.9 1.9
377(11) 0.00880 363.9 1.9
381(10) 0.00921 363.8 1.9
374(10) 0.00980 363.8 1.8
406(11) 0.00901 363.7 1.8
366(10) 0.00931 363.6 1.8
347(10) 0.00980 363.6 1.8
354(10) 0.00991 363.5 1.8
368(10) 0.01005 363.5 1.8
399(11) 0.00902 363.4 1.8
401(11) 0.00831 363.4 1.8
369(10) 0.00930 363.3 1.8
369(10) 0.00977 363.3 1.8
368(10) 0.01017 363.2 1.8
389(10) 0.00909 363.1 1.7
364(10) 0.00938 363.1 1.7
398(11) 0.00851 363.0 1.7
376(10) 0.00969 363.0 1.7
379(10) 0.00975 362.9 1.7
393(11) 0.00871 362.9 1.7
361(10) 0.00931 362.8 1.7
370(10) 0.00922 362.7 1.7
344(10) 0.01067 362.7 1.7
339(10) 0.01098 362.6 1.7
371(10) 0.00942 362.6 1.7
365(10) 0.00938 362.5 1.7
374(10) 0.00926 362.5 1.7
372(10) 0.00972 362.4 1.6
374(10) 0.01002 362.4 1.7
370(10) 0.00970 362.3 1.6
362(11) 0.00902 362.2 1.6
332(10) 0.01094 362.2 1.6
375(10) 0.00984 362.1 1.6
360(10) 0.01014 362.1 1.6
363(10) 0.00967 362.0 1.6
372(11) 0.00834 362.0 1.6
358(10) 0.00990 361.9 1.6
355(10) 0.01053 361.9 1.6
360(10) 0.01018 361.8 1.6
351(10) 0.00985 361.7 1.6
364(11) 0.00854 361.7 1.6
387(11) 0.00866 361.6 1.6
383(10) 0.00963 361.6 1.6
377(10) 0.00968 361.5 1.6
382(10) 0.00931 361.5 1.6
390(11) 0.00864 361.4 1.6
368(10) 0.00992 361.4 1.6
399(10) 0.00920 361.3 1.6
374(10) 0.00988 361.2 1.6
379(10) 0.00928 361.2 1.6
364(10) 0.00914 361.1 1.6
343(10) 0.00951 361.1 1.6
360(10) 0.01040 361.0 1.6
358(10) 0.01004 361.0 1.6
362(10) 0.00951 360.9 1.6
390(11) 0.00867 360.9 1.6
386(10) 0.00909 360.8 1.6
371(10) 0.01004 360.7 1.6
386(10) 0.00910 360.7 1.6
353(10) 0.00973 360.6 1.6
360(10) 0.00977 360.6 1.6
395(11) 0.00898 360.5 1.6
368(10) 0.01018 360.5 1.6
347(10) 0.01028 360.4 1.6
353(10) 0.00911 360.4 1.6
351(10) 0.00983 360.3 1.6
372(10) 0.00942 360.2 1.6
375(10) 0.00994 360.2 1.6
370(10) 0.00943 360.1 1.6
373(10) 0.00921 360.1 1.6
370(10) 0.00928 360.0 1.6
370(10) 0.00974 360.0 1.6
350(10) 0.01063 359.9 1.6
349(10) 0.00986 359.9 1.6
361(10) 0.00947 359.8 1.6
375(10) 0.00941 359.7 1.6
378(10) 0.00960 359.7 1.6
372(10) 0.01007 359.6 1.6
351(10) 0.00976 359.6 1.7
354(10) 0.00908 359.5 1.7
357(10) 0.00962 359.5 1.7
365(10) 0.00997 359.4 1.7
353(10) 0.01066 359.4 1.7
373(10) 0.00926 359.3 1.7
356(10) 0.00941 359.2 1.7
382(11) 0.00893 359.2 1.8
377(10) 0.00973 359.1 1.8
377(10) 0.00977 359.1 1.8
361(10) 0.00963 359.0 1.8
362(11) 0.00878 359.0 1.8
372(10) 0.00961 358.9 1.9
367(10) 0.01010 358.9 1.9
373(10) 0.00985 358.8 1.9
386(11) 0.00888 358.7 2.0
376(11) 0.00851 358.7 2.0
361(10) 0.00967 358.6 2.1
335(9) 0.01124 358.6 2.1
383(10) 0.00959 358.5 2.2
365(10) 0.00977 358.5 2.3
368(11) 0.00882 358.4 2.4
376(10) 0.00934 358.4 2.5
373(10) 0.00993 358.3 2.6
365(10) 0.00991 358.2 2.8
361(10) 0.00948 358.2 3.0
372(11) 0.00905 358.1 3.4
350(10) 0.00985 358.1 4.0
365(10) 0.01031 358.0 4.8
369(10) 0.00972 358.0 6.1
374(10) 0.00929 357.9 7.9
386(11) 0.00884 357.9 10.1
396(11) 0.00882 357.8 12.7
412(11) 0.00902 357.7 15.3
392(11) 0.00899 357.7 17.1
371(10) 0.00916 357.6 17.6
382(11) 0.00881 357.6 16.5
363(10) 0.00990 357.5 14.3
366(10) 0.01000 357.5 11.8
380(10) 0.00924 357.4 9.4
364(10) 0.00917 357.4 7.5
366(10) 0.00946 357.3 6.0
392(11) 0.00898 357.2 5.1
382(10) 0.00981 357.2 4.5
353(10) 0.01001 357.1 4.1
369(10) 0.00927 357.1 3.9
378(11) 0.00903 357.0 3.8
352(10) 0.01033 357.0 3.8
379(10) 0.00985 356.9 3.8
378(10) 0.00911 356.9 3.9
375(11) 0.00870 356.8 3.9
368(10) 0.00924 356.7 4.0
352(10) 0.01043 356.7 4.1
377(10) 0.00989 356.6 4.2
394(11) 0.00876 356.6 4.3
371(10) 0.00911 356.5 4.5
363(10) 0.00977 356.5 4.6
353(10) 0.01053 356.4 4.8
394(10) 0.00941 356.4 5.0
374(10) 0.00933 356.3 5.1
368(11) 0.00872 356.2 5.3
360(10) 0.00985 356.2 5.5
407(10) 0.00919 356.1 5.7
371(10) 0.00992 356.1 6.0
373(10) 0.00913 356.0 6.2
356(10) 0.00914 356.0 6.4
363(10) 0.00943 355.9 6.6
370(10) 0.00997 355.9 6.9
385(10) 0.00952 355.8 7.1
366(10) 0.00934 355.7 7.3
397(11) 0.00843 355.7 7.5
392(10) 0.00917 355.6 7.8
388(10) 0.00969 355.6 7.9
386(10) 0.00949 355.5 8.1
377(11) 0.00893 355.5 8.3
381(11) 0.00879 355.4 8.4
382(11) 0.00893 355.4 8.5
342(10) 0.01091 355.3 8.5
368(10) 0.00987 355.2 8.6
347(10) 0.01043 355.2 8.5
388(11) 0.00863 355.1 8.5
379(10) 0.00908 355.1 8.4
390(10) 0.00972 355.0 8.3
361(10) 0.01005 355.0 8.2
328(10) 0.01057 354.9 8.0
351(10) 0.00970 354.9 7.9
389(10) 0.00909 354.8 7.7
368(10) 0.01024 354.7 7.5
345(10) 0.01028 354.7 7.3
358(10) 0.00930 354.6 7.0
370(10) 0.00920 354.6 6.8
370(10) 0.00970 354.5 6.6
375(10) 0.00991 354.5 6.4
359(10) 0.00964 354.4 6.2
357(10) 0.00933 354.4 5.9
385(11) 0.00876 354.3 5.7
356(10) 0.01032 354.2 5.5
351(10) 0.01062 354.2 5.4
352(10) 0.00997 354.1 5.2
364(10) 0.00929 354.1 5.0
337(10) 0.01044 354.0 4.8
388(10) 0.00941 354.0 4.7
355(10) 0.01049 353.9 4.6
346(10) 0.01001 353.9 4.4
372(11) 0.00862 353.8 4.3
362(10) 0.00995 353.7 4.2
352(10) 0.01066 353.7 4.1
339(10) 0.01091 353.6 4.0
360(10) 0.00943 353.6 4.0
353(10) 0.00921 353.5 3.9
369(10) 0.00953 353.5 3.9
370(10) 0.01018 353.4 3.8
361(10) 0.01023 353.4 3.8
357(10) 0.00991 353.3 3.8
384(11) 0.00855 353.2 3.8
357(10) 0.00999 353.2 3.8
372(10) 0.01001 353.1 3.8
363(10) 0.00993 353.1 3.9
348(10) 0.00985 353.0 4.0
351(10) 0.00952 353.0 4.1
347(10) 0.01013 352.9 4.2
360(10) 0.01038 352.9 4.4
362(10) 0.00993 352.8 4.6
366(10) 0.00936 352.7 4.9
356(10) 0.00936 352.7 5.2
374(11) 0.00864 352.6 5.7
347(10) 0.01072 352.6 6.3
369(10) 0.00985 352.5 7.0
353(10) 0.00987 352.5 7.9
348(10) 0.00961 352.4 9.0
330(10) 0.01043 352.4 10.4
393(10) 0.00949 352.3 12.0
373(10) 0.00942 352.2 13.8
349(10) 0.01009 352.2 15.9
364(10) 0.00960 352.1 18.0
364(10) 0.01000 352.1 20.2
381(10) 0.00959 352.0 22.1
351(10) 0.01003 352.0 23.4
352(10) 0.00973 351.9 23.9
368(10) 0.00950 351.9 23.5
379(10) 0.00952 351.8 22.3
363(10) 0.01012 351.7 20.4
357(10) 0.00976 351.7 18.3
364(11) 0.00891 351.6 16.1
322(10) 0.01083 351.6 14.0
337(10) 0.01063 351.5 12.2
314(9) 0.01187 351.5 10.5
359(10) 0.00963 351.4 9.1
339(10) 0.00955 351.3 7.9
344(10) 0.01006 351.3 7.0
358(10) 0.00996 351.2 6.2
322(9) 0.01176 351.2 5.6
358(10) 0.00961 351.1 5.1
381(11) 0.00841 351.1 4.7
355(10) 0.01004 351.0 4.4
366(10) 0.00974 350.9 4.2
341(10) 0.01091 350.9 4.0
338(10) 0.01039 350.8 3.8
371(11) 0.00865 350.8 3.7
342(10) 0.01044 350.7 3.6
368(10) 0.01013 350.7 3.5
388(10) 0.00932 350.6 3.4
369(10) 0.00954 350.5 3.4
369(11) 0.00862 350.5 3.3
326(10) 0.01081 350.4 3.3
348(10) 0.01080 350.4 3.3
371(10) 0.01006 350.3 3.3
341(10) 0.01049 350.2 3.3
374(11) 0.00845 350.2 3.3
372(10) 0.00936 350.1 3.3
331(10) 0.01106 350.1 3.4
357(10) 0.01041 350.0 3.4
338(10) 0.01035 350.0 3.5
340(10) 0.00988 349.9 3.6
360(10) 0.00958 349.8 3.7
349(10) 0.01069 349.8 3.8
362(10) 0.01020 349.7 3.9
348(10) 0.01020 349.7 4.1
346(10) 0.01002 349.6 4.3
367(10) 0.00925 349.6 4.5
354(10) 0.01050 349.5 4.7
353(10) 0.01038 349.4 5.0
366(10) 0.00945 349.4 5.3
368(10) 0.00936 349.3 5.6
370(10) 0.00946 349.3 6.0
347(10) 0.01068 349.2 6.4
349(10) 0.01009 349.1 6.8
338(10) 0.01022 349.1 7.3
357(10) 0.00953 349.0 7.8
349(10) 0.01046 349.0 8.4
374(10) 0.00991 348.9 8.9
356(10) 0.00967 348.9 9.5
357(10) 0.00953 348.8 10.1
379(11) 0.00874 348.7 10.7
353(10) 0.00987 348.7 11.2
381(10) 0.00974 348.6 11.7
339(10) 0.01035 348.6 12.1
327(10) 0.01061 348.5 12.3
354(10) 0.00934 348.5 12.5
375(10) 0.00955 348.4 12.4
336(9) 0.01135 348.3 12.3
344(10) 0.01025 348.3 12.0
332(10) 0.01012 348.2 11.6
367(10) 0.00937 348.2 11.1
371(10) 0.01003 348.1 10.6
325(9) 0.01141 348.0 10.0
340(10) 0.01026 348.0 9.5
342(10) 0.00942 347.9 8.9
335(10) 0.01012 347.9 8.4
330(10) 0.01107 347.8 7.9
364(10) 0.01024 347.8 7.4
363(10) 0.00924 347.7 7.0
338(10) 0.00970 347.6 6.6
318(9) 0.01118 347.6 6.2
351(10) 0.01062 347.5 5.9
355(10) 0.01040 347.5 5.6
356(10) 0.01000 347.4 5.4
355(11) 0.00903 347.4 5.2
325(10) 0.01082 347.3 5.0
353(10) 0.01043 347.2 4.8
361(10) 0.00995 347.2 4.7
347(10) 0.01004 347.1 4.6
339(10) 0.01004 347.1 4.5
330(10) 0.01088 347.0 4.5
334(9) 0.01117 347.0 4.4
345(10) 0.01050 346.9 4.4
346(10) 0.01021 346.8 4.4
342(10) 0.00994 346.8 4.4
340(10) 0.01016 346.7 4.4
330(9) 0.01135 346.7 4.5
344(10) 0.01029 346.6 4.5
347(10) 0.01018 346.5 4.6
365(10) 0.00910 346.5 4.7
367(10) 0.00933 346.4 4.7
334(9) 0.01115 346.4 4.8
362(10) 0.00950 346.3 5.0
339(10) 0.01021 346.3 5.1
340(10) 0.01030 346.2 5.2
340(10) 0.01040 346.1 5.4
358(10) 0.01039 346.1 5.5
324(9) 0.01120 346.0 5.7
342(10) 0.00997 346.0 5.8
344(10) 0.00965 345.9 6.0
356(10) 0.01002 345.9 6.2
372(10) 0.01001 345.8 6.4
358(10) 0.00953 345.7 6.6
364(11) 0.00891 345.7 6.8
361(10) 0.00935 345.6 7.0
323(10) 0.01107 345.6 7.2
328(9) 0.01135 345.5 7.4
359(10) 0.00970 345.4 7.6
356(10) 0.00925 345.4 7.8
361(10) 0.00932 345.3 7.9
328(9) 0.01129 345.3 8.1
328(9) 0.01152 345.2 8.2
342(10) 0.01042 345.2 8.3
366(11) 0.00902 345.1 8.3
355(10) 0.00976 345.0 8.3
334(10) 0.01096 345.0 8.3
338(10) 0.01092 344.9 8.3
351(10) 0.00969 344.9 8.3
336(10) 0.00969 344.8 8.2
322(10) 0.01078 344.8 8.1
345(10) 0.01072 344.7 8.0
333(9) 0.01114 344.6 7.9
322(10) 0.01043 344.6 7.8
324(10) 0.00983 344.5 7.7
347(10) 0.00986 344.5 7.6
358(10) 0.01032 344.4 7.5
311(9) 0.01190 344.3 7.5
348(10) 0.00983 344.3 7.4
355(10) 0.00945 344.2 7.3
356(10) 0.00936 344.2 7.3
343(10) 0.01079 344.1 7.2
376(10) 0.00967 344.1 7.2
346(10) 0.01015 344.0 7.2
349(10) 0.00945 343.9 7.2
325(10) 0.01075 343.9 7.2
352(10) 0.01051 343.8 7.3
319(9) 0.01142 343.8 7.3
353(10) 0.00996 343.7 7.4
354(10) 0.00958 343.7 7.5
345(10) 0.01027 343.6 7.5
355(10) 0.01047 343.5 7.7
343(10) 0.01061 343.5 7.8
357(10) 0.00963 343.4 7.9
325(10) 0.01091 343.4 8.1
330(10) 0.01081 343.3 8.3
359(10) 0.01038 343.3 8.5
371(10) 0.00970 343.2 8.7
347(10) 0.00989 343.1 9.0
354(10) 0.00968 343.1 9.3
344(10) 0.01013 343.0 9.6
368(10) 0.01011 343.0 9.9
369(10) 0.00963 342.9 10.3
342(10) 0.01007 342.8 10.7
336(10) 0.01029 342.8 11.1
339(10) 0.01071 342.7 11.5
339(10) 0.01094 342.7 12.0
359(10) 0.00963 342.6 12.5
348(10) 0.00941 342.6 13.1
342(10) 0.01021 342.5 13.7
387(10) 0.00945 342.4 14.4
365(10) 0.01013 342.4 15.1
358(10) 0.01001 342.3 15.9
364(10) 0.00930 342.3 16.8
356(10) 0.00982 342.2 17.8
364(10) 0.01022 342.2 18.9
356(10) 0.01047 342.1 20.1
365(10) 0.00954 342.0 21.4
361(10) 0.00919 342.0 22.9
381(10) 0.00914 341.9 24.5
384(10) 0.00961 341.9 26.3
371(10) 0.01021 341.8 28.3
362(10) 0.00984 341.7 30.5
347(10) 0.00960 341.7 32.9
377(10) 0.00938 341.6 35.5
385(10) 0.00966 341.6 38.4
376(10) 0.00991 341.5 41.5
374(10) 0.00952 341.5 44.8
379(11) 0.00899 341.4 48.4
376(10) 0.00942 341.3 52.3
398(10) 0.00936 341.3 56.4
406(10) 0.00908 341.2 60.7
408(11) 0.00843 341.2 65.1
381(11) 0.00901 341.1 69.7
421(11) 0.00851 341.1 74.3
430(11) 0.00860 341.0 78.8
430(11) 0.00833 340.9 83.2
446(11) 0.00756 340.9 87.2
440(12) 0.00749 340.8 90.8
448(12) 0.00746 340.8 93.8
467(11) 0.00792 340.7 96.0
469(11) 0.00763 340.6 97.4
458(11) 0.00762 340.6 97.9
447(11) 0.00774 340.5 97.6
431(11) 0.00808 340.5 96.5
438(11) 0.00852 340.4 94.7
448(11) 0.00777 340.4 92.3
446(11) 0.00772 340.3 89.5
446(11) 0.00781 340.2 86.4
434(11) 0.00820 340.2 83.1
402(10) 0.00925 340.1 79.7
422(11) 0.00819 340.1 76.2
403(11) 0.00836 340.0 72.8
410(11) 0.00832 340.0 69.4
405(10) 0.00908 339.9 66.1
403(10) 0.00922 339.8 62.8
408(11) 0.00863 339.8 59.6
403(11) 0.00835 339.7 56.6
384(11) 0.00890 339.7 53.6
396(10) 0.00913 339.6 50.7
387(10) 0.00965 339.5 48.0
376(11) 0.00907 339.5 45.3
361(10) 0.00917 339.4 42.8
372(10) 0.00982 339.4 40.1
367(10) 0.00988 339.3 37.8
352(10) 0.01061 339.3 35.7
359(10) 0.00993 339.2 33.6
349(10) 0.00963 339.1 31.6
341(10) 0.01028 339.1 29.8
370(10) 0.00984 339.0 28.1
370(10) 0.00978 339.0 26.5
368(10) 0.00932 338.9 25.0
367(11) 0.00885 338.9 23.5
386(10) 0.00927 338.8 22.2
374(10) 0.00986 338.7 21.0
359(10) 0.01018 338.7 19.8
356(10) 0.00979 338.6 18.7
368(11) 0.00873 338.6 17.7
356(10) 0.00984 338.5 16.8
368(10) 0.01013 338.5 15.9
372(10) 0.00974 338.4 15.1
365(10) 0.00965 338.3 14.3
374(11) 0.00885 338.3 13.6
356(10) 0.00990 338.2 12.9
348(10) 0.01072 338.2 12.3
352(10) 0.01027 338.1 11.7
334(10) 0.01064 338.0 11.1
336(10) 0.01020 338.0 10.6
341(10) 0.01023 337.9 10.1
351(10) 0.01047 337.9 9.7
346(10) 0.01029 337.8 9.3
317(9) 0.01114 337.8 8.9
341(10) 0.01004 337.7 8.5
370(10) 0.00916 337.6 8.1
354(10) 0.01049 337.6 7.8
345(10) 0.01039 337.5 7.5
313(9) 0.01145 337.5 7.2
375(11) 0.00899 337.4 7.0
343(10) 0.01049 337.4 6.7
345(10) 0.01085 337.3 6.5
323(10) 0.01104 337.2 6.2
353(10) 0.00974 337.2 6.0
338(10) 0.01047 337.1 5.8
340(10) 0.01038 337.1 5.6
329(9) 0.01129 337.0 5.4
334(10) 0.01003 336.9 5.3
338(10) 0.00985 336.9 5.1
358(10) 0.00960 336.8 4.9
348(10) 0.01045 336.8 4.8
349(10) 0.01059 336.7 4.7
350(10) 0.00959 336.7 4.5
336(10) 0.00967 336.6 4.4
341(10) 0.00975 336.5 4.3
342(10) 0.01052 336.5 4.1
333(9) 0.01135 336.4 4.0
313(10) 0.01088 336.4 3.9
339(10) 0.00918 336.3 3.8
326(10) 0.01069 336.3 3.7
353(10) 0.01047 336.2 3.6
341(10) 0.01095 336.1 3.5
330(10) 0.01070 336.1 3.4
321(10) 0.01008 336.0 3.4
321(10) 0.01066 336.0 3.3
314(9) 0.01169 335.9 3.2
335(10) 0.01080 335.8 3.1
327(10) 0.01090 335.8 3.1
329(10) 0.01004 335.7 3.0
354(10) 0.00965 335.7 2.9
324(9) 0.01153 335.6 2.9
341(10) 0.01068 335.6 2.8
335(10) 0.01059 335.5 2.7
332(10) 0.00985 335.4 2.7
353(10) 0.00980 335.4 2.6
331(9) 0.01126 335.3 2.6
319(9) 0.01141 335.3 2.5
349(10) 0.01008 335.2 2.5
359(10) 0.00950 335.2 2.4
346(10) 0.00992 335.1 2.4
341(10) 0.01094 335.0 2.3
362(10) 0.01010 335.0 2.3
338(10) 0.01053 334.9 2.2
364(10) 0.00943 334.9 2.2
346(10) 0.01009 334.8 2.1
333(9) 0.01133 334.8 2.1
334(10) 0.01053 334.7 2.1
338(10) 0.01033 334.6 2.0
355(10) 0.00916 334.6 2.0
325(10) 0.01075 334.5 2.0
343(10) 0.01086 334.5 1.9
343(10) 0.01033 334.4 1.9
308(9) 0.01123 334.3 1.9
325(10) 0.01022 334.3 1.8
352(10) 0.01001 334.2 1.8
339(10) 0.01103 334.2 1.8
325(10) 0.01095 334.1 1.7
325(10) 0.01042 334.1 1.7
324(10) 0.01086 334.0 1.7
328(10) 0.01077 333.9 1.7
333(9) 0.01130 333.9 1.6
332(10) 0.01030 333.8 1.6
371(11) 0.00874 333.8 1.6
329(10) 0.01099 333.7 1.6
334(10) 0.01100 333.7 1.5
339(10) 0.01104 333.6 1.5
305(9) 0.01149 333.5 1.5
343(10) 0.00947 333.5 1.5
336(10) 0.01023 333.4 1.4
327(9) 0.01128 333.4 1.4
333(9) 0.01117 333.3 1.4
355(10) 0.00949 333.2 1.4
320(10) 0.01032 333.2 1.4
340(10) 0.01052 333.1 1.3
338(10) 0.01099 333.1 1.3
319(9) 0.01173 333.0 1.3
335(10) 0.01044 333.0 1.3
325(10) 0.01005 332.9 1.3
344(10) 0.00962 332.8 1.3
322(9) 0.01148 332.8 1.2
335(10) 0.01101 332.7 1.2
342(10) 0.01005 332.7 1.2
326(10) 0.01018 332.6 1.2
331(10) 0.01027 332.6 1.2
318(9) 0.01164 332.5 1.2
323(9) 0.01155 332.4 1.2
341(10) 0.01005 332.4 1.1
337(10) 0.01000 332.3 1.1
334(10) 0.01002 332.3 1.6
337(9) 0.01114 332.2 1.6
345(10) 0.01063 332.1 1.6
348(10) 0.01016 332.1 1.6
338(10) 0.01011 332.0 1.5
323(10) 0.01022 332.0 1.5
338(10) 0.01081 331.9 1.5
325(9) 0.01142 331.9 1.5
322(10) 0.01104 331.8 1.5
309(10) 0.01080 331.7 1.5
315(9) 0.01134 331.7 1.5
315(9) 0.01182 331.6 1.5
348(10) 0.01024 331.6 1.5
342(10) 0.01016 331.5 1.5
337(10) 0.01033 331.5 1.5
345(10) 0.01023 331.4 1.5
343(10) 0.01074 331.3 1.5
328(10) 0.01083 331.3 1.5
343(10) 0.01005 331.4 1.5
354(10) 0.00924 331.4 1.5
350(10) 0.01028 331.5 1.5
343(10) 0.01080 331.5 1.5
347(10) 0.00993 331.6 1.5
326(10) 0.01035 331.6 1.5
341(10) 0.00975 331.6 1.5
350(10) 0.01049 331.7 1.5
328(9) 0.01119 331.7 1.5
341(10) 0.00985 331.8 1.5
330(10) 0.01012 331.8 1.5
332(10) 0.01042 331.9 1.5
309(9) 0.01192 331.9 1.5
333(9) 0.01115 332.0 1.5
336(10) 0.01044 332.0 1.5
342(10) 0.00937 332.0 1.5
344(10) 0.01042 332.1 1.5
329(9) 0.01116 332.1 1.5
345(10) 0.01084 332.2 1.5
341(10) 0.01038 332.2 1.5
349(11) 0.00897 332.3 1.5
344(10) 0.00987 332.3 1.5
355(10) 0.01029 332.4 1.5
347(10) 0.01042 332.4 1.5
328(10) 0.01024 332.4 1.5
324(10) 0.00989 332.5 1.5
330(10) 0.01050 332.5 1.5
321(9) 0.01154 332.6 1.5
317(9) 0.01165 332.6 1.5
332(10) 0.01028 332.7 1.5
341(10) 0.00979 332.7 1.5
328(10) 0.01064 332.8 2.0
336(9) 0.01118 332.8 2.1
324(9) 0.01117 332.8 2.1
327(10) 0.01029 332.9 2.1
300(10) 0.01098 332.9 2.1
331(10) 0.01010 333.0 2.1
333(9) 0.01118 333.0 2.1
330(10) 0.01076 333.1 2.2
304(9) 0.01127 333.1 2.2
338(10) 0.00967 333.2 2.2
330(10) 0.01038 333.2 2.2
342(10) 0.01102 333.2 2.2
327(10) 0.01085 333.3 2.3
336(10) 0.01024 333.3 2.3
348(10) 0.00992 333.4 2.3
343(10) 0.01013 333.4 2.3
336(10) 0.01105 333.5 2.4
327(10) 0.01038 333.5 2.4
344(10) 0.00957 333.6 2.4
329(10) 0.01066 333.6 2.4
354(10) 0.01034 333.6 2.5
333(9) 0.01118 333.7 2.5
340(10) 0.01007 333.7 2.5
337(10) 0.00989 333.8 2.5
344(10) 0.00999 333.8 2.6
332(10) 0.01099 333.9 2.6
303(9) 0.01227 333.9 2.7
322(10) 0.01097 333.9 2.7
327(10) 0.01002 334.0 2.7
360(10) 0.00942 334.0 2.8
347(10) 0.01056 334.1 2.8
358(10) 0.01034 334.1 2.9
359(10) 0.00981 334.2 2.9
334(10) 0.00974 334.2 2.9
354(10) 0.00940 334.3 3.0
332(9) 0.01118 334.3 3.1
339(10) 0.01096 334.3 3.1
326(10) 0.01079 334.4 3.2
332(10) 0.00984 334.4 3.3
333(10) 0.01024 334.5 3.3
329(9) 0.01138 334.5 3.4
369(10) 0.00989 334.6 3.5
331(10) 0.01073 334.6 3.6
337(10) 0.00961 334.7 3.6
322(10) 0.01091 334.7 3.7
343(10) 0.01089 334.7 3.8
323(9) 0.01159 334.8 4.0
331(10) 0.01059 334.8 4.1
334(10) 0.00958 334.9 4.2
332(10) 0.01033 334.9 4.3
337(10) 0.01104 335.0 4.5
338(10) 0.01049 335.0 4.7
354(10) 0.00964 335.1 4.8
338(10) 0.00995 335.1 5.0
348(10) 0.01004 335.1 5.2
363(10) 0.01027 335.2 5.4
337(10) 0.01077 335.2 5.7
341(10) 0.00978 335.3 5.9
314(9) 0.01118 335.3 6.1
350(10) 0.00981 335.4 6.4
365(10) 0.01022 335.4 6.7
331(10) 0.01069 335.5 6.9
325(10) 0.01051 335.5 7.1
345(10) 0.00980 335.5 7.3
346(10) 0.01003 335.6 7.5
345(10) 0.01097 335.6 7.6
341(10) 0.01055 335.7 7.7
335(10) 0.01046 335.7 7.8
347(10) 0.00984 335.8 7.8
335(10) 0.01073 335.8 7.8
339(10) 0.01099 335.9 7.8
351(10) 0.01004 335.9 7.8
340(10) 0.01013 335.9 7.8
340(10) 0.01004 336.0 7.8
349(10) 0.01027 336.0 7.7
357(10) 0.01042 336.1 7.8
354(10) 0.01010 336.1 7.8
350(10) 0.00922 336.2 7.8
327(10) 0.01075 336.2 7.9
331(9) 0.01111 336.3 7.9
343(10) 0.01085 336.3 8.0
357(10) 0.00957 336.3 8.1
369(11) 0.00886 336.4 8.3
364(10) 0.00958 336.4 8.5
340(10) 0.01090 336.5 8.6
332(9) 0.01126 336.5 8.9
339(10) 0.01053 336.6 9.1
334(10) 0.00965 336.6 9.4
355(10) 0.00978 336.7 9.6
349(10) 0.01068 336.7 10.0
338(10) 0.01089 336.7 10.3
346(10) 0.01008 336.8 10.7
348(10) 0.00937 336.8 11.1
355(10) 0.00957 336.9 11.6
329(9) 0.01138 336.9 12.1
367(10) 0.00998 337.0 12.7
350(10) 0.00987 337.0 13.3
349(10) 0.00920 337.1 14.0
350(10) 0.00984 337.1 14.7
343(10) 0.01085 337.1 15.5
360(10) 0.01018 337.2 16.4
359(10) 0.00940 337.2 17.5
340(10) 0.00985 337.3 18.7
376(11) 0.00897 337.3 20.0
390(10) 0.00949 337.4 21.4
384(10) 0.00940 337.4 23.0
362(10) 0.00969 337.5 24.8
352(10) 0.00977 337.5 26.9
379(10) 0.00918 337.5 29.3
394(10) 0.00947 337.6 32.1
389(10) 0.00921 337.6 35.4
367(10) 0.00928 337.7 39.2
402(11) 0.00824 337.7 43.8
409(11) 0.00895 337.8 49.3
419(11) 0.00884 337.8 56.3
416(11) 0.00856 337.9 65.4
460(12) 0.00728 337.9 77.9
485(12) 0.00696 337.9 96.3
525(12) 0.00663 338.0 124.4
558(12) 0.00671 338.0 168.0
560(13) 0.00630 338.1 234.5
674(14) 0.00509 338.1 331.3
796(15) 0.00428 338.2 463.2
992(17) 0.00357 338.2 628.8
1118(17) 0.003332 338.3 816.3
1298(19) 0.002721 338.3 997.0
1536(22) 0.002142 338.3 1124.0
1623(22) 0.002122 338.4 1147.8
1592(21) 0.002295 338.4 1057.9
1254(18) 0.002956 338.5 892.4
972(17) 0.00353 338.5 703.8
781(15) 0.00420 338.6 527.6
640(13) 0.00557 338.6 382.3
578(12) 0.00645 338.7 272.5
491(11) 0.00757 338.7 195.3
484(12) 0.00711 338.7 144.1
475(12) 0.00656 338.8 111.2
433(11) 0.00794 338.8 90.2
431(11) 0.00856 338.9 76.3
387(10) 0.00952 338.9 66.7
394(11) 0.00885 339.0 59.7
391(11) 0.00803 339.0 54.3
345(10) 0.01000 339.1 50.1
364(10) 0.01026 339.1 46.8
363(10) 0.01034 339.1 44.2
372(10) 0.00917 339.2 42.1
382(11) 0.00852 339.2 40.4
406(11) 0.00848 339.3 39.2
374(10) 0.00983 339.3 38.3
382(10) 0.00938 339.4 37.7
389(11) 0.00862 339.4 37.4
364(11) 0.00897 339.5 37.4
392(11) 0.00875 339.5 37.6
352(10) 0.01054 339.5 38.0
367(10) 0.00989 339.6 38.7
403(11) 0.00845 339.6 39.6
386(11) 0.00867 339.7 40.7
384(11) 0.00871 339.7 42.1
376(10) 0.00996 339.8 43.8
370(10) 0.00948 339.8 45.8
369(10) 0.00935 339.9 48.1
385(11) 0.00901 339.9 50.8
413(11) 0.00854 339.9 54.0
378(10) 0.01001 340.0 57.7
396(11) 0.00867 340.0 62.0
397(11) 0.00841 340.1 67.1
398(11) 0.00849 340.1 73.2
400(11) 0.00872 340.2 80.6
396(10) 0.00933 340.2 89.5
436(11) 0.00795 340.3 100.3
425(11) 0.00831 340.3 113.6
439(11) 0.00798 340.3 129.9
463(11) 0.00767 340.4 149.8
461(11) 0.00806 340.4 174.0
513(12) 0.00675 340.5 203.2
523(13) 0.00639 340.5 237.9
570(13) 0.00598 340.6 278.6
629(13) 0.00572 340.6 325.5
688(14) 0.00535 340.6 378.3
757(15) 0.00469 340.7 436.0
889(17) 0.00367 340.7 496.5
891(16) 0.00392 340.8 556.2
979(16) 0.00373 340.8 609.5
1063(17) 0.003485 340.9 649.8
986(17) 0.00360 340.9 670.6
973(17) 0.003450 341.0 667.9
937(16) 0.00376 341.0 642.3
892(16) 0.00412 341.0 598.5
789(15) 0.00470 341.1 543.4
786(15) 0.00441 341.1 483.2
705(15) 0.00471 341.2 423.4
675(14) 0.00525 341.2 366.9
628(13) 0.00594 341.3 315.7
588(13) 0.00629 341.3 270.6
580(13) 0.00600 341.4 231.7
539(13) 0.00597 341.4 198.8
525(12) 0.00662 341.4 171.4
533(12) 0.00690 341.5 149.0
474(11) 0.00785 341.5 130.8
477(12) 0.00710 341.6 116.4
469(12) 0.00702 341.6 105.1
452(11) 0.00763 341.7 96.6
434(11) 0.00858 341.7 90.8
470(11) 0.00780 341.8 88.1
426(11) 0.00801 341.8 89.4
413(11) 0.00804 341.8 97.1
477(12) 0.00728 341.9 114.4
463(11) 0.00805 341.9 145.1
527(12) 0.00669 342.0 191.8
606(13) 0.00551 342.0 253.4
702(14) 0.00482 342.1 322.4
863(16) 0.00403 342.1 383.4
888(15) 0.00419 342.2 413.3
809(15) 0.00423 342.2 396.3
672(14) 0.00517 342.2 340.1
615(13) 0.00559 342.3 267.5
539(12) 0.00649 342.3 197.3
479(11) 0.00785 342.4 140.0
450(11) 0.00783 342.4 98.4
425(11) 0.00810 342.5 71.0
414(11) 0.00842 342.5 54.1
400(11) 0.00902 342.6 44.0
394(10) 0.00937 342.6 37.6
380(10) 0.00919 342.6 33.4
360(10) 0.00942 342.7 30.2
357(10) 0.00997 342.7 27.8
379(10) 0.00979 342.8 25.7
374(10) 0.00991 342.8 24.0
349(10) 0.00998 342.9 22.5
356(10) 0.00914 342.9 21.1
359(10) 0.00923 343.0 20.0
386(10) 0.00968 343.0 18.9
364(10) 0.01025 343.0 18.0
357(10) 0.00998 343.1 17.2
334(10) 0.01025 343.1 16.4
381(10) 0.00909 343.2 15.8
359(10) 0.01043 343.2 15.1
343(10) 0.01086 343.3 14.6
355(10) 0.01003 343.3 14.0
352(10) 0.00931 343.4 13.6
372(10) 0.00932 343.4 13.1
367(10) 0.01013 343.4 12.7
346(10) 0.01059 343.5 12.3
338(10) 0.01053 343.5 12.0
370(11) 0.00852 343.6 11.6
380(11) 0.00907 343.6 11.3
353(10) 0.01055 343.7 11.1
359(10) 0.01010 343.7 10.8
305(9) 0.01171 343.8 10.5
340(10) 0.00950 343.8 10.3
351(10) 0.00968 343.8 10.1
353(10) 0.01066 343.9 9.9
355(10) 0.01032 343.9 9.7
360(10) 0.00950 344.0 9.5
340(10) 0.00973 344.0 9.4
334(10) 0.01016 344.1 9.2
353(10) 0.01056 344.1 9.1
372(10) 0.00959 344.2 8.9
346(10) 0.00990 344.2 8.8
342(10) 0.00974 344.2 8.7
349(10) 0.00999 344.3 8.6
353(10) 0.01054 344.3 8.5
350(10) 0.01009 344.4 8.4
324(10) 0.01053 344.4 8.3
342(10) 0.00985 344.5 8.3
348(10) 0.01033 344.5 8.2
338(10) 0.01095 344.6 8.2
344(10) 0.01002 344.6 8.1
366(11) 0.00865 344.6 8.1
325(10) 0.01090 344.7 8.0
320(9) 0.01166 344.7 8.0
367(10) 0.01015 344.8 8.0
337(10) 0.01060 344.8 7.9
346(10) 0.00990 344.9 7.9
341(10) 0.01034 344.9 7.9
347(10) 0.01040 345.0 7.9
345(10) 0.01085 345.0 7.9
357(10) 0.00955 345.0 7.9
364(11) 0.00891 345.1 7.9
341(10) 0.01008 345.1 8.0
340(10) 0.01093 345.2 8.0
364(10) 0.01018 345.2 8.0
363(10) 0.00972 345.3 8.1
347(10) 0.00990 345.3 8.1
384(11) 0.00895 345.4 8.2
365(10) 0.01008 345.4 8.2
347(10) 0.01074 345.4 8.3
335(10) 0.01034 345.5 8.4
333(10) 0.00984 345.5 8.4
349(10) 0.00983 345.6 8.5
354(10) 0.01043 345.6 8.6
343(10) 0.01089 345.7 8.7
340(10) 0.01046 345.7 8.9
343(10) 0.00969 345.7 9.0
352(10) 0.00999 345.8 9.1
346(10) 0.01070 345.8 9.3
344(10) 0.01057 345.8 9.4
359(10) 0.00973 345.8 9.6
359(10) 0.00968 345.9 9.8
372(10) 0.00947 345.9 10.0
352(10) 0.01056 345.9 10.2
335(10) 0.01083 345.9 10.4
354(10) 0.00981 346.0 10.6
372(11) 0.00902 346.0 10.9
367(10) 0.00944 346.0 11.1
364(10) 0.01018 346.0 11.4
336(10) 0.01085 346.0 11.7
340(10) 0.01024 346.1 12.0
340(10) 0.01016 346.1 12.3
354(10) 0.00998 346.1 12.7
318(9) 0.01170 346.1 13.1
358(10) 0.00977 346.2 13.5
347(10) 0.01013 346.2 13.9
339(10) 0.01019 346.2 14.3
348(10) 0.01027 346.2 14.8
352(10) 0.01067 346.3 15.3
355(10) 0.01013 346.3 15.8
354(10) 0.00950 346.3 16.3
375(11) 0.00892 346.3 16.9
373(10) 0.00948 346.4 17.5
361(10) 0.01022 346.4 18.1
392(11) 0.00874 346.4 18.7
368(11) 0.00904 346.4 19.4
337(10) 0.01034 346.5 20.1
339(10) 0.01074 346.5 20.9
354(10) 0.01045 346.5 21.7
354(10) 0.00998 346.5 22.5
370(10) 0.00920 346.5 23.3
393(11) 0.00876 346.6 24.2
348(10) 0.01068 346.6 25.1
357(10) 0.01045 346.6 26.1
351(10) 0.01014 346.6 27.1
354(10) 0.00971 346.7 28.1
367(10) 0.00937 346.7 29.1
364(10) 0.01018 346.7 30.2
381(10) 0.00973 346.7 31.3
351(10) 0.00979 346.8 32.5
374(11) 0.00848 346.8 33.7
375(10) 0.00932 346.8 34.9
376(10) 0.00991 346.8 36.2
386(10) 0.00966 346.9 37.5
429(11) 0.00806 346.9 38.8
394(11) 0.00816 346.9 40.2
403(11) 0.00854 346.9 42.3
389(10) 0.00968 346.9 43.8
344(10) 0.01073 347.0 45.5
375(10) 0.00940 347.0 47.2
397(11) 0.00798 347.0 49.1
383(11) 0.00902 347.0 51.2
389(10) 0.00965 347.1 53.4
394(10) 0.00929 347.1 55.8
374(10) 0.00933 347.1 58.5
372(11) 0.00887 347.1 61.9
406(11) 0.00809 347.2 65.1
399(10) 0.00925 347.2 68.5
414(11) 0.00867 347.2 72.2
428(11) 0.00807 347.2 76.1
418(11) 0.00798 347.3 80.3
420(11) 0.00847 347.3 84.3
422(11) 0.00881 347.3 88.0
441(11) 0.00799 347.3 91.2
444(11) 0.00769 347.4 93.6
420(11) 0.00835 347.4 95.0
435(11) 0.00816 347.4 95.0
454(11) 0.00817 347.4 93.7
461(11) 0.00778 347.4 91.2
441(11) 0.00794 347.5 87.8
444(11) 0.00778 347.5 83.7
437(11) 0.00827 347.5 79.2
425(11) 0.00876 347.5 74.6
416(11) 0.00844 347.6 70.2
399(11) 0.00836 347.6 66.0
402(11) 0.00847 347.6 62.2
399(11) 0.00889 347.6 58.8
404(10) 0.00917 347.7 55.7
411(11) 0.00834 347.7 53.1
405(11) 0.00838 347.7 50.9
400(11) 0.00880 347.7 49.2
372(10) 0.01004 347.8 47.8
379(10) 0.00984 347.8 46.9
405(11) 0.00831 347.8 46.3
376(11) 0.00898 347.8 46.2
411(11) 0.00847 347.8 46.4
398(10) 0.00925 347.9 47.0
396(10) 0.00937 347.9 48.1
416(11) 0.00812 347.9 49.6
390(11) 0.00850 347.9 51.7
431(11) 0.00824 348.0 54.4
439(11) 0.00843 348.0 57.7
396(10) 0.00951 348.0 61.8
410(11) 0.00850 348.0 66.7
446(12) 0.00708 348.1 72.6
438(11) 0.00786 348.1 79.5
420(11) 0.00906 348.1 87.6
466(11) 0.00773 348.1 96.9
482(12) 0.00715 348.2 107.5
487(12) 0.00676 348.2 119.4
469(12) 0.00738 348.2 132.5
495(12) 0.00746 348.2 146.8
524(12) 0.00691 348.2 161.8
547(13) 0.00634 348.3 177.1
541(13) 0.00600 348.3 192.1
550(13) 0.00636 348.3 205.7
572(12) 0.00658 348.3 216.7
583(13) 0.00614 348.4 224.2
605(13) 0.00570 348.4 227.1
629(14) 0.00534 348.4 225.1
612(13) 0.00571 348.4 218.5
619(13) 0.00596 348.5 207.9
568(13) 0.00634 348.5 194.5
557(13) 0.00624 348.5 179.4
505(12) 0.00687 348.5 163.7
491(12) 0.00728 348.6 148.2
478(11) 0.00771 348.6 133.3
478(12) 0.00728 348.6 119.5
452(11) 0.00771 348.6 106.8
444(11) 0.00761 348.7 95.4
426(11) 0.00839 348.7 85.3
434(11) 0.00856 348.7 76.4
410(11) 0.00842 348.7 68.6
406(11) 0.00835 348.7 61.9
398(11) 0.00874 348.8 56.2
388(10) 0.00936 348.8 51.2
395(10) 0.00940 348.8 47.0
383(11) 0.00882 348.8 43.4
349(10) 0.00947 348.9 40.4
375(11) 0.00902 348.9 37.8
426(11) 0.00831 348.9 35.6
387(10) 0.00971 348.9 33.8
371(10) 0.00942 349.0 32.2
349(10) 0.00969 349.0 30.9
362(10) 0.00971 349.0 29.7
381(10) 0.00983 349.0 28.8
369(10) 0.00996 349.1 28.0
382(10) 0.00934 349.1 27.3
369(10) 0.00912 349.1 26.8
376(10) 0.00919 349.1 26.4
328(9) 0.01112 349.1 26.1
350(10) 0.01064 349.2 26.0
381(11) 0.00895 349.2 25.9
371(11) 0.00871 349.2 26.0
410(11) 0.00809 349.2 26.2
355(10) 0.01044 349.3 26.5
379(10) 0.00980 349.3 26.9
369(10) 0.00951 349.3 27.5
376(11) 0.00825 349.3 28.3
362(10) 0.00951 349.4 29.2
397(10) 0.00941 349.4 30.4
364(10) 0.01024 349.4 31.8
402(11) 0.00839 349.4 33.5
392(11) 0.00850 349.5 35.6
372(10) 0.00949 349.5 38.4
370(10) 0.01014 349.5 41.9
412(11) 0.00876 349.5 46.5
411(11) 0.00840 349.6 52.4
416(11) 0.00787 349.6 59.8
397(11) 0.00859 349.6 68.8
398(10) 0.00938 349.6 79.4
405(10) 0.00912 349.6 91.7
446(11) 0.00786 349.7 107.0
487(12) 0.00688 349.7 126.9
492(12) 0.00703 349.7 155.0
519(12) 0.00723 349.7 194.5
608(13) 0.00593 349.8 248.2
704(14) 0.00489 349.8 317.4
772(15) 0.00430 349.8 400.8
935(16) 0.00372 349.8 494.1
1116(17) 0.003339 349.9 586.8
1250(19) 0.002814 349.9 662.0
1337(20) 0.002514 349.9 698.8
1312(20) 0.002601 349.9 683.9
1109(18) 0.003238 350.0 622.8
980(16) 0.00379 350.0 534.8
899(16) 0.00380 350.0 439.5
778(15) 0.00441 350.0 349.9
679(14) 0.00515 350.0 272.7
622(13) 0.00594 350.1 210.1
578(12) 0.00644 350.1 162.0
500(12) 0.00685 350.1 126.3
487(12) 0.00676 350.1 100.5
478(12) 0.00730 350.2 82.3
472(11) 0.00773 350.2 69.2
455(11) 0.00816 350.2 59.8
442(11) 0.00788 350.2 52.7
443(12) 0.00744 350.3 47.3
413(11) 0.00871 350.3 42.9
430(11) 0.00853 350.3 39.4
409(10) 0.00911 350.3 36.4
391(11) 0.00901 350.4 33.9
432(12) 0.00733 350.4 31.8
389(10) 0.00909 350.4 30.0
374(10) 0.00990 350.4 28.4
401(10) 0.00926 350.4 27.1
397(11) 0.00889 350.5 26.0
382(11) 0.00853 350.5 25.1
363(10) 0.00996 350.5 24.3
390(10) 0.00955 350.5 23.6
366(10) 0.01013 350.6 23.1
371(10) 0.00943 350.6 22.6
390(11) 0.00863 350.6 22.3
406(11) 0.00833 350.6 22.1
388(10) 0.00965 350.7 21.9
393(10) 0.00914 350.7 21.9
376(11) 0.00907 350.7 21.9
383(11) 0.00853 350.7 22.0
354(10) 0.01033 350.8 22.2
355(10) 0.01043 350.8 22.5
381(10) 0.00947 350.8 22.9
393(11) 0.00879 350.8 23.5
408(11) 0.00789 350.9 24.1
373(10) 0.00927 350.9 24.9
385(10) 0.00966 350.9 25.8
394(11) 0.00906 350.9 26.8
409(11) 0.00856 350.9 28.1
381(11) 0.00883 351.0 29.5
391(11) 0.00853 351.0 31.3
378(10) 0.00987 351.0 33.3
388(10) 0.00915 351.0 35.7
393(11) 0.00859 351.1 38.7
412(11) 0.00808 351.1 42.4
412(11) 0.00873 351.1 46.9
458(11) 0.00812 351.1 52.8
437(11) 0.00791 351.2 60.4
459(12) 0.00735 351.2 70.3
463(12) 0.00747 351.2 83.4
496(12) 0.00726 351.2 100.3
496(12) 0.00745 351.3 121.9
511(12) 0.00690 351.3 148.9
578(13) 0.00587 351.3 181.8
571(13) 0.00617 351.3 220.6
666(14) 0.00549 351.3 264.2
712(14) 0.00519 351.4 310.4
786(15) 0.00434 351.4 354.9
839(16) 0.00387 351.4 391.0
863(16) 0.00404 351.4 411.2
867(15) 0.00425 351.5 410.1
844(15) 0.00442 351.5 388.1
793(15) 0.00431 351.5 350.8
729(15) 0.00444 351.5 306.0
664(14) 0.00525 351.6 260.1
541(12) 0.00691 351.6 217.0
509(12) 0.00735 351.6 179.0
478(12) 0.00729 351.6 146.9
443(12) 0.00752 351.7 120.6
453(11) 0.00782 351.7 99.6
442(11) 0.00846 351.7 83.3
414(11) 0.00882 351.7 70.8
413(11) 0.00862 351.8 61.4
382(11) 0.00905 351.8 54.2
403(11) 0.00866 351.8 48.7
413(11) 0.00904 351.8 44.4
398(10) 0.00928 351.8 41.1
394(11) 0.00868 351.9 38.5
392(11) 0.00837 351.9 36.4
391(11) 0.00887 351.9 34.7
366(10) 0.01012 351.9 33.4
380(10) 0.00975 352.0 32.4
359(10) 0.00979 352.0 31.6
343(10) 0.01026 352.0 31.1
388(11) 0.00883 352.0 30.8
381(10) 0.00972 352.1 30.7
389(10) 0.00919 352.1 30.8
357(10) 0.00992 352.1 31.1
399(11) 0.00832 352.1 31.7
366(10) 0.00985 352.2 32.5
402(10) 0.00929 352.2 33.5
362(10) 0.00970 352.2 34.9
362(10) 0.00930 352.2 36.6
369(10) 0.00922 352.2 38.7
384(10) 0.00930 352.3 41.3
401(10) 0.00925 352.3 44.5
396(11) 0.00873 352.3 48.7
394(11) 0.00878 352.3 54.2
402(11) 0.00828 352.4 61.5
392(10) 0.00929 352.4 71.7
456(11) 0.00814 352.4 86.0
429(11) 0.00809 352.4 106.1
449(11) 0.00757 352.5 133.8
483(12) 0.00734 352.5 170.8
532(12) 0.00684 352.5 218.7
626(13) 0.00594 352.5 277.4
683(14) 0.00505 352.6 345.2
735(15) 0.00459 352.6 416.7
862(16) 0.00402 352.6 481.5
882(16) 0.00410 352.6 524.5
855(15) 0.00434 352.6 531.6
837(16) 0.00408 352.7 500.0
769(16) 0.00413 352.7 441.0
706(14) 0.00494 352.7 370.2
635(13) 0.00585 352.7 300.1
578(13) 0.00638 352.8 237.7
535(12) 0.00662 352.8 185.7
504(13) 0.00619 352.8 144.8
489(12) 0.00704 352.8 113.8
469(11) 0.00793 352.9 91.0
455(11) 0.00797 352.9 74.7
444(11) 0.00782 352.9 63.0
426(11) 0.00772 352.9 54.5
408(11) 0.00841 353.0 48.2
378(10) 0.00980 353.0 43.4
405(10) 0.00909 353.0 39.6
390(11) 0.00906 353.0 36.5
385(11) 0.00849 353.1 33.9
383(10) 0.00912 353.1 31.8
400(10) 0.00929 353.1 29.9
399(10) 0.00918 353.1 28.4
379(11) 0.00894 353.1 27.1
385(11) 0.00845 353.2 26.1
395(11) 0.00869 353.2 25.2
357(10) 0.01021 353.2 24.6
388(10) 0.00949 353.2 24.1
363(10) 0.00980 353.3 23.8
375(11) 0.00886 353.3 23.7
379(10) 0.00910 353.3 24.0
371(10) 0.00989 353.3 24.8
392(11) 0.00901 353.4 26.5
373(10) 0.00924 353.4 29.4
382(11) 0.00869 353.4 34.0
383(11) 0.00896 353.4 41.0
361(10) 0.01009 353.5 50.4
440(11) 0.00803 353.5 62.0
439(11) 0.00773 353.5 74.5
446(11) 0.00763 353.5 85.5
450(11) 0.00786 353.5 91.4
459(11) 0.00805 353.6 89.5
440(11) 0.00784 353.6 80.7
426(11) 0.00779 353.6 68.3
411(11) 0.00884 353.6 55.6
379(10) 0.00938 353.7 44.5
397(10) 0.00941 353.7 35.7
368(10) 0.00924 353.7 29.4
378(11) 0.00877 353.7 25.1
395(11) 0.00873 353.8 22.3
363(10) 0.01006 353.8 20.6
371(10) 0.00997 353.8 19.4
358(10) 0.00991 353.8 18.7
355(10) 0.00915 353.9 18.2
354(10) 0.00949 353.9 17.8
366(10) 0.01013 353.9 17.6
373(10) 0.00972 353.9 17.4
374(11) 0.00886 354.0 17.2
382(11) 0.00808 354.0 17.2
367(10) 0.00940 354.0 17.1
342(10) 0.01102 354.0 17.1
381(10) 0.00958 354.0 17.2
361(10) 0.00969 354.1 17.2
338(10) 0.00966 354.1 17.3
352(10) 0.01006 354.1 17.4
374(10) 0.00986 354.1 17.6
367(10) 0.01004 354.2 17.8
375(10) 0.00946 354.2 17.9
375(11) 0.00867 354.2 18.2
385(11) 0.00900 354.2 18.4
365(10) 0.01017 354.3 18.6
357(10) 0.01039 354.3 18.9
337(10) 0.01060 354.3 19.2
352(10) 0.00949 354.3 19.5
352(10) 0.00963 354.4 19.9
354(10) 0.01054 354.4 20.2
391(11) 0.00897 354.4 20.6
346(10) 0.01023 354.3 21.0
374(11) 0.00864 354.3 21.5
371(10) 0.00909 354.3 21.9
374(10) 0.01004 354.3 22.4
353(10) 0.01029 354.2 22.9
361(10) 0.00915 354.2 23.5
387(11) 0.00859 354.2 24.0
379(11) 0.00906 354.1 24.6
363(10) 0.01030 354.1 25.3
374(10) 0.00938 354.1 25.9
418(11) 0.00795 354.1 26.7
363(10) 0.00984 354.0 27.4
348(10) 0.01034 354.0 28.2
371(10) 0.00996 354.0 29.1
362(11) 0.00907 354.0 30.0
371(11) 0.00885 353.9 30.9
368(10) 0.00948 353.9 31.9
379(10) 0.00939 353.9 33.0
380(10) 0.00985 353.9 34.1
401(11) 0.00837 353.8 35.3
370(10) 0.00913 353.8 36.5
369(10) 0.00916 353.8 37.9
396(10) 0.00929 353.8 39.3
390(10) 0.00964 353.7 40.9
361(10) 0.00965 353.7 42.5
366(10) 0.00914 353.7 44.2
398(11) 0.00894 353.6 46.1
398(10) 0.00933 353.6 48.1
396(10) 0.00932 353.6 50.3
396(11) 0.00881 353.6 52.6
406(11) 0.00803 353.5 55.1
380(10) 0.00919 353.5 57.8
392(10) 0.00955 353.5 60.8
398(10) 0.00928 353.5 64.0
381(10) 0.00920 353.4 67.5
431(12) 0.00725 353.4 71.3
429(11) 0.00827 353.4 75.6
419(11) 0.00881 353.4 80.3
409(11) 0.00904 353.3 85.4
421(11) 0.00816 353.3 91.2
428(11) 0.00776 353.3 97.6
456(11) 0.00761 353.3 104.8
451(11) 0.00830 353.2 112.8
454(11) 0.00800 353.2 121.7
470(12) 0.00745 353.2 131.7
479(12) 0.00702 353.1 142.8
475(12) 0.00739 353.1 155.3
511(12) 0.00725 353.1 169.2
530(12) 0.00675 353.1 184.7
491(12) 0.00708 353.0 201.9
516(13) 0.00637 353.0 220.8
574(13) 0.00599 353.0 241.7
581(12) 0.00645 353.0 264.6
598(13) 0.00591 352.9 289.6
665(14) 0.00510 352.9 316.6
692(14) 0.00503 352.9 345.7
759(15) 0.00466 352.9 376.6
746(14) 0.00497 352.8 409.2
806(15) 0.00441 352.8 442.9
825(16) 0.00410 352.8 477.3
882(16) 0.00392 352.8 511.5
943(16) 0.00379 352.7 544.5
958(16) 0.00388 352.7 574.9
948(16) 0.00368 352.7 601.4
972(17) 0.00352 352.7 622.5
1019(17) 0.003328 352.6 636.9
962(16) 0.00370 352.6 643.5
975(16) 0.00381 352.6 642.0
959(17) 0.00361 352.5 632.5
920(17) 0.00365 352.5 615.6
908(16) 0.00376 352.5 592.5
831(15) 0.00435 352.5 564.5
801(15) 0.00461 352.4 533.2
787(15) 0.00438 352.4 500.0
730(15) 0.00466 352.4 465.9
761(15) 0.00457 352.4 432.0
710(14) 0.00515 352.3 399.0
691(14) 0.00535 352.3 367.4
693(14) 0.00492 352.3 337.6
611(14) 0.00546 352.3 309.8
619(13) 0.00563 352.2 284.0
596(13) 0.00624 352.2 260.3
629(13) 0.00583 352.2 238.6
561(13) 0.00628 352.2 219.0
564(13) 0.00586 352.1 201.3
565(13) 0.00633 352.1 185.3
533(12) 0.00698 352.1 171.1
540(12) 0.00675 352.0 158.4
533(12) 0.00641 352.0 147.1
499(12) 0.00661 352.0 137.2
488(12) 0.00703 352.0 128.4
473(11) 0.00785 351.9 120.8
483(12) 0.00755 351.9 114.1
476(12) 0.00713 351.9 108.4
500(12) 0.00656 351.9 103.5
471(12) 0.00741 351.8 99.4
425(11) 0.00871 351.8 96.2
466(11) 0.00774 351.8 93.7
465(12) 0.00728 351.8 92.0
432(11) 0.00780 351.7 91.2
466(12) 0.00748 351.7 91.1
458(11) 0.00811 351.7 92.0
416(11) 0.00877 351.7 93.7
459(12) 0.00734 351.6 96.3
473(12) 0.00727 351.6 99.7
497(12) 0.00692 351.6 103.7
505(12) 0.00740 351.5 108.0
469(11) 0.00759 351.5 112.2
462(12) 0.00735 351.5 115.6
475(12) 0.00727 351.5 117.4
474(11) 0.00758 351.4 117.2
497(12) 0.00748 351.4 115.1
488(12) 0.00724 351.4 111.4
470(12) 0.00742 351.4 106.8
475(12) 0.00736 351.3 102.1
436(11) 0.00839 351.3 97.7
442(11) 0.00840 351.3 94.0
438(11) 0.00793 351.3 91.2
430(11) 0.00774 351.2 89.4
436(11) 0.00782 351.2 88.6
439(11) 0.00811 351.2 88.8
400(10) 0.00932 351.2 90.1
426(11) 0.00838 351.1 92.5
462(12) 0.00725 351.1 95.8
466(12) 0.00747 351.1 100.1
471(11) 0.00775 351.0 105.3
474(11) 0.00780 351.0 111.5
501(12) 0.00680 351.0 118.5
498(12) 0.00665 351.0 126.0
501(12) 0.00698 350.9 134.0
494(12) 0.00751 350.9 142.0
494(12) 0.00748 350.9 149.6
531(12) 0.00648 350.9 156.0
502(12) 0.00656 350.8 160.6
476(11) 0.00759 350.8 162.8
460(11) 0.00806 350.8 162.1
488(12) 0.00755 350.8 158.7
492(12) 0.00696 350.7 152.9
481(12) 0.00657 350.7 145.4
472(12) 0.00716 350.7 136.7
494(12) 0.00749 350.7 127.7
465(11) 0.00797 350.6 118.7
441(11) 0.00808 350.6 110.0
451(12) 0.00728 350.6 102.0
446(11) 0.00788 350.5 94.6
433(11) 0.00847 350.5 88.0
462(11) 0.00794 350.5 82.0
429(11) 0.00811 350.5 76.8
399(11) 0.00837 350.4 72.2
417(11) 0.00835 350.4 68.1
401(10) 0.00928 350.4 64.4
410(11) 0.00864 350.4 61.2
408(11) 0.00844 350.3 58.3
404(11) 0.00867 350.3 55.6
443(11) 0.00785 350.3 53.2
406(10) 0.00920 350.3 51.0
426(11) 0.00826 350.2 48.8
397(11) 0.00867 350.2 46.8
415(11) 0.00819 350.2 44.9
405(11) 0.00850 350.2 43.1
405(10) 0.00914 350.1 41.3
404(11) 0.00855 350.1 39.6
394(11) 0.00868 350.1 38.0
380(10) 0.00915 350.1 36.4
382(10) 0.00943 350.0 34.9
389(10) 0.00965 350.0 33.5
376(10) 0.00935 350.0 32.1
382(11) 0.00894 349.9 30.8
403(11) 0.00837 349.9 29.6
375(10) 0.00984 349.9 28.4
362(10) 0.01019 349.9 27.3
385(10) 0.00916 349.8 26.3
420(11) 0.00771 349.8 25.3
367(10) 0.00967 349.8 24.4
384(10) 0.00923 349.8 23.5
381(10) 0.00981 349.7 22.7
398(11) 0.00820 349.7 21.9
384(11) 0.00838 349.7 21.2
378(11) 0.00903 349.7 20.5
376(10) 0.00982 349.6 19.9
401(10) 0.00921 349.6 19.3
386(11) 0.00888 349.6 18.7
391(11) 0.00820 349.6 18.2
348(10) 0.01053 349.5 17.7
390(10) 0.00961 349.5 17.2
383(10) 0.00949 349.5 16.8
369(10) 0.00948 349.4 16.4
370(11) 0.00876 349.4 16.0
366(10) 0.00924 349.4 15.7
366(10) 0.01014 349.4 15.4
382(10) 0.00940 349.3 15.1
367(10) 0.00932 349.3 14.8
368(11) 0.00877 349.3 14.5
365(10) 0.00942 349.3 14.3
363(10) 0.01024 349.2 14.1
365(10) 0.00999 349.2 13.9
360(10) 0.00965 349.2 13.7
354(10) 0.00942 349.2 13.5
334(10) 0.01052 349.1 13.3
385(10) 0.00955 349.1 13.2
359(10) 0.01005 349.1 13.1
383(11) 0.00888 349.1 12.9
363(10) 0.00938 349.0 12.8
374(10) 0.00947 349.0 12.8
351(10) 0.01059 349.0 12.7
385(11) 0.00901 348.9 12.6
361(10) 0.00969 348.9 12.6
378(11) 0.00892 348.9 12.6
368(10) 0.00967 348.9 12.5
382(10) 0.00979 348.8 12.5
354(10) 0.01003 348.8 12.5
360(10) 0.00945 348.8 12.6
372(10) 0.00924 348.8 12.6
367(10) 0.00992 348.7 12.7
369(10) 0.01012 348.7 12.8
362(10) 0.00954 348.7 12.9
360(10) 0.00953 348.7 13.0
358(10) 0.00978 348.6 13.1
363(10) 0.01008 348.6 13.3
375(10) 0.01004 348.6 13.5
377(11) 0.00906 348.6 13.7
352(10) 0.00943 348.5 13.9
369(10) 0.00932 348.5 14.2
373(10) 0.00956 348.5 14.5
373(10) 0.00995 348.4 14.9
359(10) 0.00985 348.4 15.3
370(10) 0.00919 348.4 15.8
391(11) 0.00856 348.4 16.4
360(10) 0.01020 348.3 17.0
386(10) 0.00955 348.3 17.7
364(10) 0.00979 348.3 18.5
370(11) 0.00901 348.3 19.4
377(10) 0.00917 348.2 20.4
391(10) 0.00942 348.2 21.6
375(10) 0.00991 348.2 23.0
402(11) 0.00864 348.2 24.5
392(11) 0.00840 348.1 26.3
409(11) 0.00828 348.1 28.2
404(10) 0.00920 348.1 30.5
366(10) 0.01010 348.1 33.0
423(11) 0.00828 348.0 35.7
407(11) 0.00829 348.0 38.8
418(11) 0.00840 348.0 42.2
393(10) 0.00942 347.9 45.9
388(10) 0.00932 347.9 50.0
409(11) 0.00839 347.9 54.3
409(11) 0.00825 347.9 58.9
407(11) 0.00840 347.8 63.6
448(11) 0.00841 347.8 68.4
460(11) 0.00783 347.8 73.2
464(12) 0.00742 347.8 77.7
462(12) 0.00727 347.7 81.7
475(12) 0.00699 347.7 85.0
465(11) 0.00796 347.7 87.3
455(11) 0.00800 347.7 88.6
463(12) 0.00734 347.6 88.6
460(12) 0.00734 347.6 87.4
467(12) 0.00752 347.6 85.0
480(11) 0.00771 347.6 81.7
444(11) 0.00798 347.5 77.7
444(11) 0.00760 347.5 73.2
432(11) 0.00789 347.5 68.4
437(11) 0.00821 347.4 63.6
419(11) 0.00896 347.4 58.8
425(11) 0.00797 347.4 54.2
389(11) 0.00841 347.4 49.9
388(11) 0.00895 347.3 45.8
366(10) 0.01003 347.3 42.1
403(10) 0.00918 347.3 38.7
397(11) 0.00846 347.3 35.5
394(11) 0.00844 347.2 32.7
371(10) 0.00946 347.2 30.2
359(10) 0.01022 347.2 28.0
380(10) 0.00978 347.2 26.0
369(10) 0.00931 347.1 24.2
362(10) 0.00928 347.1 22.7
375(10) 0.00944 347.1 21.3
388(10) 0.00961 347.1 20.1
363(10) 0.01023 347.0 19.1
371(10) 0.00911 347.0 18.2
367(10) 0.00912 347.0 17.4
383(10) 0.00934 347.0 16.7
377(10) 0.00992 346.9 16.1
357(10) 0.01038 346.9 15.6
350(10) 0.01009 346.9 15.1
368(11) 0.00880 346.8 14.7
370(10) 0.00937 346.8 14.4
355(10) 0.01039 346.8 14.1
353(10) 0.01049 346.8 13.9
374(10) 0.00924 346.7 13.7
350(10) 0.00914 346.7 13.6
345(10) 0.00982 346.7 13.5
346(10) 0.01065 346.7 13.4
345(10) 0.01067 346.6 13.4
365(10) 0.00957 346.6 13.4
352(10) 0.00928 346.6 13.5
333(10) 0.01036 346.6 13.6
351(10) 0.01063 346.5 13.8
358(10) 0.01023 346.5 14.0
372(10) 0.00951 346.5 14.2
363(10) 0.00940 346.5 14.6
368(10) 0.00924 346.4 14.9
396(10) 0.00936 346.4 15.4
357(10) 0.01024 346.4 16.0
374(10) 0.00941 346.3 16.6
364(10) 0.00936 346.3 17.3
373(10) 0.00935 346.3 18.0
350(10) 0.01073 346.3 18.9
369(10) 0.00978 346.2 19.8
370(10) 0.00945 346.2 20.9
354(10) 0.00976 346.2 22.0
358(10) 0.00971 346.2 23.3
361(10) 0.01036 346.1 24.7
393(11) 0.00889 346.1 26.2
372(10) 0.00917 346.1 27.9
371(10) 0.00929 346.1 29.6
346(10) 0.01048 346.0 31.5
370(10) 0.01006 346.0 33.5
391(11) 0.00859 346.0 35.5
387(11) 0.00876 346.0 37.5
378(10) 0.00909 345.9 39.6
394(10) 0.00928 345.9 41.5
386(10) 0.00969 345.9 43.4
397(11) 0.00857 345.8 45.0
377(11) 0.00869 345.8 46.4
358(10) 0.00986 345.8 47.5
393(10) 0.00912 345.8 48.2
388(10) 0.00964 345.7 48.5
385(11) 0.00891 345.7 48.3
378(11) 0.00873 345.7 47.8
393(11) 0.00860 345.7 47.0
422(11) 0.00875 345.6 45.8
384(10) 0.00945 345.6 44.5
392(11) 0.00883 345.6 43.1
401(11) 0.00797 345.6 41.6
383(10) 0.00911 345.5 40.1
385(10) 0.00967 345.5 38.7
398(10) 0.00931 345.5 37.4
395(11) 0.00884 345.5 36.3
386(11) 0.00837 345.4 35.4
369(10) 0.00942 345.4 34.7
357(10) 0.01041 345.4 34.3
371(10) 0.01003 345.3 34.2
372(10) 0.00945 345.3 34.4
355(10) 0.00911 345.3 35.1
349(10) 0.00991 345.3 36.2
390(10) 0.00961 345.2 37.9
379(10) 0.00939 345.2 40.3
403(11) 0.00849 345.2 43.5
381(11) 0.00895 345.2 47.6
394(11) 0.00899 345.1 52.8
393(10) 0.00941 345.1 59.0
385(10) 0.00948 345.1 66.3
394(10) 0.00909 345.1 74.7
446(11) 0.00763 345.0 84.3
415(11) 0.00851 345.0 94.9
435(11) 0.00855 345.0 106.0
465(11) 0.00760 345.0 117.0
443(11) 0.00792 344.9 127.0
486(12) 0.00679 344.9 134.8
463(12) 0.00754 344.9 139.3
446(11) 0.00836 344.8 139.5
430(11) 0.00805 344.8 135.5
438(12) 0.00745 344.8 128.0
405(11) 0.00876 344.8 117.9
420(11) 0.00857 344.7 106.7
426(11) 0.00874 344.7 95.2
402(11) 0.00862 344.7 84.3
415(11) 0.00807 344.7 74.1
414(11) 0.00849 344.6 65.1
414(11) 0.00873 344.6 57.2
398(10) 0.00933 344.6 50.5
409(11) 0.00831 344.6 44.9
385(11) 0.00879 344.5 40.3
394(11) 0.00879 344.5 36.6
378(10) 0.00978 344.5 33.8
412(10) 0.00913 344.5 31.7
381(10) 0.00928 344.4 30.5
395(11) 0.00852 344.4 30.2
387(10) 0.00923 344.4 31.2
387(10) 0.00940 344.4 33.8
434(11) 0.00847 344.3 39.0
418(11) 0.00811 344.3 47.7
448(12) 0.00708 344.3 60.6
459(11) 0.00762 344.2 78.1
503(12) 0.00734 344.2 99.4
560(12) 0.00668 344.2 122.0
605(13) 0.00581 344.2 141.1
636(14) 0.00508 344.1 150.1
585(13) 0.00618 344.1 144.6
576(12) 0.00648 344.1 127.0
520(12) 0.00694 344.1 103.8
482(12) 0.00710 344.0 80.7
464(12) 0.00674 344.0 60.7
432(11) 0.00797 344.0 45.0
407(10) 0.00912 344.0 33.8
412(11) 0.00882 343.9 26.1
388(11) 0.00904 343.9 21.0
372(11) 0.00879 343.9 17.8
378(10) 0.00910 343.9 15.5
373(10) 0.00994 343.8 14.0
352(10) 0.01014 343.8 12.8
364(10) 0.00928 343.8 11.8
347(10) 0.00965 343.7 11.0
348(10) 0.00991 343.7 10.4
371(10) 0.01005 343.7 9.8
330(9) 0.01120 343.7 9.3
336(10) 0.01029 343.6 8.9
314(9) 0.01116 343.6 8.5
360(10) 0.00970 343.6 8.2
343(10) 0.01088 343.6 7.9
380(10) 0.00918 343.5 7.6
358(10) 0.00957 343.5 7.3
339(10) 0.01003 343.5 7.1
342(10) 0.01057 343.5 6.9
352(10) 0.01051 343.4 6.7
336(10) 0.01075 343.4 6.6
346(10) 0.00979 343.4 6.4
325(10) 0.01067 343.4 6.3
338(10) 0.01077 343.3 6.1
341(10) 0.01085 343.3 6.0
335(10) 0.01028 343.3 5.9
355(10) 0.00912 343.2 5.8
371(11) 0.00905 343.2 5.7
353(10) 0.01043 343.2 5.6
352(10) 0.01058 343.2 5.5
347(10) 0.00994 343.1 5.5
331(10) 0.01006 343.1 5.4
331(10) 0.01090 343.1 5.3
336(10) 0.01102 343.1 5.3
340(10) 0.01082 343.0 5.2
335(10) 0.01044 343.0 5.2
340(10) 0.00950 343.0 5.1
331(10) 0.01072 343.0 5.1
345(10) 0.01086 342.9 5.0
334(10) 0.01080 342.9 5.0
353(10) 0.00972 342.9 5.0
336(10) 0.00927 342.9 4.9
309(9) 0.01136 342.8 4.9
331(9) 0.01126 342.8 4.9
339(10) 0.01070 342.8 4.9
353(10) 0.00948 342.7 4.9
368(11) 0.00883 342.7 4.8
333(10) 0.01069 342.6 4.8
337(9) 0.01111 342.6 4.8
355(10) 0.01021 342.6 4.8
356(10) 0.00948 342.5 4.8
346(10) 0.00948 342.5 4.8
380(10) 0.00910 342.5 4.9
330(9) 0.01126 342.4 4.9
337(10) 0.01084 342.4 4.9
329(10) 0.01042 342.4 4.9
343(10) 0.00946 342.3 4.9
320(10) 0.01066 342.3 5.0
350(10) 0.01064 342.3 5.0
350(10) 0.01016 342.2 5.0
339(10) 0.01038 342.2 5.0
321(10) 0.01085 342.2 5.1
346(10) 0.01046 342.1 5.1
373(10) 0.01004 342.1 5.1
351(10) 0.01013 342.1 5.2
336(10) 0.01061 342.0 5.3
358(10) 0.00929 342.0 5.3
354(10) 0.01002 341.9 5.4
332(9) 0.01110 341.9 5.5
348(10) 0.01019 341.9 5.5
359(10) 0.00947 341.8 5.6
356(10) 0.00947 341.8 5.7
356(10) 0.01026 341.8 5.9
345(10) 0.01077 341.7 6.0
355(10) 0.00976 341.7 6.1
336(10) 0.01042 341.7 6.3
355(10) 0.00990 341.6 6.5
343(10) 0.01050 341.6 6.7
349(10) 0.01068 341.6 6.9
337(10) 0.01009 341.5 7.2
335(10) 0.00981 341.5 7.4
357(10) 0.00960 341.5 7.8
371(10) 0.00978 341.4 8.2
382(10) 0.00986 341.4 8.7
378(10) 0.00939 341.4 9.2
355(10) 0.00915 341.3 10.0
344(10) 0.00995 341.3 10.9
354(10) 0.01052 341.3 12.2
362(10) 0.01025 341.2 13.9
356(10) 0.01031 341.2 16.2
394(11) 0.00820 341.1 19.3
400(11) 0.00873 341.1 23.5
421(11) 0.00889 341.1 28.8
415(11) 0.00876 341.0 35.3
446(11) 0.00775 341.0 43.0
453(12) 0.00701 341.0 51.4
494(12) 0.00697 340.9 59.7
494(11) 0.00758 340.9 66.3
488(12) 0.00744 340.9 69.6
506(12) 0.00671 340.8 68.5
509(12) 0.00651 340.8 63.3
478(12) 0.00729 340.8 55.7
432(11) 0.00862 340.7 47.4
430(11) 0.00850 340.7 39.4
408(11) 0.00853 340.7 32.5
381(11) 0.00865 340.6 26.8
359(10) 0.00942 340.6 22.3
383(10) 0.00978 340.6 18.9
376(10) 0.00942 340.5 16.3
359(10) 0.00965 340.5 14.5
341(10) 0.00979 340.4 13.3
341(10) 0.01034 340.4 12.4
347(10) 0.01067 340.4 11.7
348(10) 0.01012 340.3 11.3
345(10) 0.01026 340.3 10.9
366(10) 0.00918 340.3 10.7
349(10) 0.01003 340.2 10.5
346(10) 0.01076 340.2 10.4
344(10) 0.01017 340.2 10.3
366(10) 0.00933 340.1 10.3
352(10) 0.00967 340.1 10.3
333(10) 0.01090 340.1 10.3
338(10) 0.01103 340.0 10.4
326(10) 0.01055 340.0 10.4
340(10) 0.00983 340.0 10.6
346(10) 0.00999 339.9 10.7
364(10) 0.01002 339.9 10.9
339(10) 0.01100 339.9 11.0
341(10) 0.01014 339.8 11.3
350(10) 0.00950 339.8 11.5
366(10) 0.00947 339.8 11.7
345(10) 0.01049 339.7 12.0
348(10) 0.01074 339.7 12.3
355(10) 0.00979 339.6 12.7
349(10) 0.00940 339.6 13.0
346(10) 0.01006 339.6 13.4
355(10) 0.01035 339.5 13.9
349(10) 0.01052 339.5 14.4
365(10) 0.00953 339.5 14.9
361(11) 0.00901 339.4 15.4
351(10) 0.01009 339.4 16.1
347(10) 0.01059 339.4 16.8
353(10) 0.01064 339.3 17.5
345(10) 0.00985 339.3 18.4
347(10) 0.00933 339.3 19.3
360(10) 0.00980 339.2 20.3
368(10) 0.01016 339.2 21.4
357(10) 0.01039 339.2 22.6
357(10) 0.00983 339.1 24.0
365(11) 0.00876 339.1 25.5
364(10) 0.00955 339.1 27.1
370(10) 0.00998 339.0 28.8
376(10) 0.00959 339.0 30.7
367(10) 0.00954 338.9 32.8
375(11) 0.00882 338.9 34.9
398(11) 0.00870 338.9 37.2
368(10) 0.01017 338.8 39.5
376(11) 0.00902 338.8 41.9
365(10) 0.00916 338.8 44.3
388(11) 0.00893 338.7 46.6
390(10) 0.00919 338.7 48.8
389(10) 0.00952 338.7 50.8
374(10) 0.00935 338.6 52.6
365(10) 0.00931 338.6 54.3
377(11) 0.00896 338.6 55.9
394(10) 0.00908 338.5 57.4
397(10) 0.00943 338.5 59.1
431(11) 0.00816 338.5 61.0
405(11) 0.00833 338.4 63.2
363(10) 0.00969 338.4 66.0
411(11) 0.00855 338.4 69.4
422(11) 0.00889 338.3 73.6
385(11) 0.00901 338.3 78.9
406(11) 0.00818 338.3 85.5
422(11) 0.00807 338.2 93.7
450(11) 0.00804 338.2 104.1
458(11) 0.00812 338.1 117.0
475(12) 0.00742 338.1 132.9
495(12) 0.00662 338.1 152.4
527(12) 0.00672 338.0 176.0
555(12) 0.00663 338.0 204.0
588(13) 0.00635 338.0 236.5
658(14) 0.00529 337.9 273.4
731(15) 0.00444 337.9 313.9
789(15) 0.00442 337.9 356.2
880(16) 0.00410 337.8 397.4
902(16) 0.00413 337.8 432.7
841(16) 0.00413 337.8 457.1
857(16) 0.00373 337.7 465.8
843(16) 0.00405 337.7 457.3
803(15) 0.00457 337.7 433.5
767(14) 0.00478 337.6 399.4
747(15) 0.00449 337.6 360.3
694(14) 0.00476 337.6 320.3
678(14) 0.00510 337.5 282.5
597(13) 0.00624 337.5 248.5
610(13) 0.00596 337.4 218.9
592(13) 0.00579 337.4 193.9
556(13) 0.00587 337.4 173.3
560(13) 0.00625 337.3 156.6
554(12) 0.00676 337.3 143.4
546(12) 0.00664 337.3 133.1
548(13) 0.00621 337.2 125.1
510(13) 0.00638 337.2 119.0
502(12) 0.00690 337.2 114.2
509(12) 0.00719 337.1 110.5
495(12) 0.00733 337.1 107.5
491(12) 0.00707 337.1 104.9
492(12) 0.00685 337.0 102.6
470(12) 0.00747 337.0 100.4
483(11) 0.00765 337.0 98.1
457(11) 0.00798 336.9 95.9
476(12) 0.00700 336.9 93.6
448(12) 0.00746 336.9 91.2
474(12) 0.00743 336.8 88.7
469(11) 0.00778 336.8 86.2
449(11) 0.00798 336.7 83.6
428(11) 0.00793 336.7 81.0
430(11) 0.00806 336.7 78.4
458(11) 0.00783 336.6 75.8
440(11) 0.00832 336.6 73.2
434(11) 0.00824 336.6 70.7
459(12) 0.00722 336.5 68.1
442(11) 0.00780 336.5 65.5
397(10) 0.00912 336.5 63.0
421(11) 0.00876 336.4 60.5
436(11) 0.00777 336.4 58.0
410(11) 0.00801 336.4 55.5
397(11) 0.00870 336.3 53.1
400(11) 0.00898 336.3 50.7
410(10) 0.00907 336.3 48.4
380(10) 0.00910 336.2 46.2
399(11) 0.00820 336.2 44.0
404(11) 0.00840 336.2 41.9
394(10) 0.00941 336.1 39.9
378(10) 0.00981 336.1 38.0
363(10) 0.00971 336.1 36.1
394(11) 0.00807 336.0 34.4
383(10) 0.00911 336.0 32.7
388(10) 0.00945 335.9 31.2
362(10) 0.01022 335.9 29.7
387(11) 0.00860 335.9 28.2
365(11) 0.00858 335.8 26.9
361(10) 0.00912 335.8 25.6
356(10) 0.01032 335.8 24.5
355(10) 0.01045 335.7 23.3
349(10) 0.01022 335.7 22.3
365(10) 0.00912 335.7 21.3
351(10) 0.01024 335.6 20.3
370(10) 0.01009 335.6 19.5
376(10) 0.00979 335.6 18.6
375(11) 0.00900 335.5 17.8
357(10) 0.00929 335.5 17.1
359(10) 0.00974 335.5 16.4
347(10) 0.01075 335.4 15.8
337(10) 0.01093 335.4 15.1
359(10) 0.00937 335.4 14.6
362(10) 0.00914 335.3 14.0
338(10) 0.00993 335.3 13.5
376(10) 0.00994 335.2 13.0
362(10) 0.01000 335.2 12.6
345(10) 0.00997 335.2 12.1
351(10) 0.00954 335.1 11.7
347(10) 0.01000 335.1 11.3
341(10) 0.01090 335.1 11.0
347(10) 0.01033 335.0 10.6
327(10) 0.01066 335.0 10.3
342(10) 0.01018 335.0 10.0
362(10) 0.00993 334.9 9.7
339(10) 0.01102 334.9 9.4
321(10) 0.01070 334.9 9.1
325(10) 0.01009 334.8 8.9
329(10) 0.01029 334.8 8.6
362(10) 0.00955 334.8 8.4
340(10) 0.01099 334.7 8.2
332(10) 0.01050 334.7 8.0
325(10) 0.01000 334.7 7.8
324(10) 0.01079 334.6 7.6
335(10) 0.01082 334.6 7.4
323(9) 0.01153 334.6 7.2
354(10) 0.00984 334.5 7.1
334(10) 0.00990 334.5 6.9
343(10) 0.00994 334.4 6.8
328(9) 0.01123 334.4 6.6
345(10) 0.01096 334.4 6.5
330(10) 0.01054 334.3 6.3
329(10) 0.00989 334.3 6.2
328(10) 0.01042 334.3 6.1
339(10) 0.01073 334.2 6.0
343(10) 0.01077 334.2 5.9
353(10) 0.00971 334.2 5.7
350(10) 0.00908 334.1 5.6
342(10) 0.01027 334.1 5.6
323(9) 0.01129 334.1 5.5
347(10) 0.01076 334.0 5.4
348(10) 0.00977 334.0 5.3
363(11) 0.00870 334.0 5.3
336(10) 0.01072 333.9 5.2
343(10) 0.01080 333.9 5.1
322(9) 0.01139 333.9 5.0
315(9) 0.01132 333.8 4.9
338(10) 0.00980 333.8 4.8
339(10) 0.01012 333.7 4.7
319(9) 0.01169 333.7 4.7
354(10) 0.01019 333.7 4.6
344(10) 0.00986 333.6 4.5
330(10) 0.00965 333.6 4.5
332(10) 0.01029 333.6 4.4
331(9) 0.01133 333.5 4.3
338(10) 0.01054 333.5 4.3
325(10) 0.01029 333.5 4.2
327(10) 0.01048 333.4 4.2
330(10) 0.01080 333.4 4.1
327(9) 0.01138 333.4 4.0
362(10) 0.00991 333.3 4.0
313(10) 0.01087 333.3 3.9
313(10) 0.01060 333.3 3.9
341(10) 0.01041 333.2 3.9
352(10) 0.01062 333.2 3.8
315(9) 0.01109 333.2 3.8
325(10) 0.01025 333.1 3.7
338(10) 0.01019 333.1 3.7
316(9) 0.01168 333.0 3.6
334(10) 0.01103 333.0 3.6
316(10) 0.01103 333.0 3.6
325(10) 0.01049 332.9 3.5
351(10) 0.00986 332.9 3.5
361(10) 0.00980 332.9 3.4
314(9) 0.01194 332.8 3.4
321(10) 0.01097 332.8 3.4
339(10) 0.00951 332.8 3.3
316(10) 0.01086 332.7 3.3
317(9) 0.01148 332.7 3.3
340(10) 0.01096 332.7 3.3
335(10) 0.01065 332.6 3.2
359(11) 0.00902 332.6 3.2
324(10) 0.01079 332.6 3.2
336(10) 0.01102 332.5 3.2
339(10) 0.01086 332.5 3.1
338(10) 0.00992 332.5 3.1
365(11) 0.00885 332.4 3.1
355(10) 0.00997 332.4 3.1
333(9) 0.01115 332.4 3.0
348(10) 0.01059 332.3 3.0
309(9) 0.01131 332.3 3.0
300(9) 0.01130 332.2 3.0
321(9) 0.01110 332.2 2.9
324(9) 0.01136 332.2 2.9
313(9) 0.01195 332.1 2.9
342(10) 0.00979 332.1 2.9
339(10) 0.00933 332.1 2.9
332(10) 0.01023 332.0 2.9
314(9) 0.01200 332.0 2.8
326(9) 0.01121 332.0 2.8
305(9) 0.01183 331.9 2.8
327(10) 0.01021 331.9 2.8
316(10) 0.01086 331.9 2.8
339(10) 0.01094 331.8 2.8
347(10) 0.01043 331.8 2.8
335(10) 0.01026 331.8 2.7
330(10) 0.00983 331.7 2.7
314(10) 0.01077 331.7 2.7
347(10) 0.01076 331.7 2.7
360(10) 0.00994 331.6 2.7
338(10) 0.01035 331.6 2.7
329(10) 0.01051 331.5 2.7
330(10) 0.01047 331.5 2.7
352(10) 0.01049 331.5 2.7
336(10) 0.01075 331.4 2.6
340(10) 0.00975 331.4 2.6
340(10) 0.01026 331.4 2.6
338(10) 0.01058 331.3 2.6
323(9) 0.01154 331.3 2.6
330(10) 0.01027 331.3 2.6
343(10) 0.00967 331.2 2.6
336(10) 0.01006 331.2 2.6
308(9) 0.01192 331.2 2.6
330(9) 0.01118 331.1 2.6
345(10) 0.01015 331.1 2.6
316(10) 0.01081 331.0 2.6
323(10) 0.01077 331.0 2.6
323(10) 0.01102 331.0 2.6
338(10) 0.01097 330.9 2.6
334(10) 0.01025 330.9 2.6
334(10) 0.00970 330.9 2.6
357(10) 0.00963 330.8 2.6
346(10) 0.01070 330.8 2.6
342(10) 0.01089 330.7 2.6
335(10) 0.01067 330.7 2.6
329(10) 0.00990 330.7 2.6
338(10) 0.00993 330.6 2.6
319(9) 0.01180 330.6 2.6
351(10) 0.01036 330.6 2.6
325(10) 0.01054 330.5 2.6
362(11) 0.00858 330.5 2.6
340(10) 0.01031 330.4 2.6
319(9) 0.01169 330.4 2.6
319(9) 0.01164 330.4 2.6
331(10) 0.01059 330.3 2.6
314(10) 0.01030 330.3 2.6
322(10) 0.01058 330.3 2.6
303(9) 0.01216 330.2 2.6
331(9) 0.01114 330.2 2.6
341(10) 0.01042 330.1 2.6
332(10) 0.00986 330.1 2.7
311(9) 0.01125 330.1 2.7
315(9) 0.01176 330.0 2.7
309(9) 0.01165 330.0 2.7
314(9) 0.01114 330.0 2.7
326(10) 0.01018 329.9 2.7
317(10) 0.01068 329.9 2.7
317(9) 0.01176 329.9 2.7
328(10) 0.01095 329.8 2.8
328(10) 0.01028 329.8 2.8
322(10) 0.01016 329.7 2.8
327(10) 0.01019 329.7 2.8
322(9) 0.01173 329.7 2.8
317(9) 0.01121 329.6 2.8
337(10) 0.00996 329.6 2.9
311(9) 0.01116 329.6 2.9
331(10) 0.01081 329.5 2.9
330(9) 0.01135 329.5 2.9
306(9) 0.01142 329.4 3.0
326(10) 0.01016 329.4 3.0
325(10) 0.01050 329.4 3.0
349(10) 0.01032 329.3 3.1
338(10) 0.01093 329.3 3.1
331(10) 0.01061 329.3 3.1
305(9) 0.01146 329.2 3.2
334(10) 0.01037 329.2 3.2
341(10) 0.01077 329.1 3.2
338(10) 0.01107 329.1 3.3
325(10) 0.01083 329.1 3.3
322(10) 0.01046 329.0 3.3
330(10) 0.01048 329.0 3.4
327(9) 0.01128 329.0 3.4
335(9) 0.01113 328.9 3.5
335(10) 0.01028 328.9 3.5
337(10) 0.00956 328.8 3.6
328(10) 0.01105 328.8 3.6
325(9) 0.01141 328.8 3.7
331(9) 0.01119 328.7 3.7
328(10) 0.01091 328.7 3.8
329(10) 0.00986 328.7 3.8
341(10) 0.01012 328.6 3.9
320(9) 0.01170 328.6 4.0
316(9) 0.01186 328.5 4.0
315(9) 0.01151 328.5 4.1
360(11) 0.00896 328.5 4.2
373(11) 0.00902 328.4 4.3
325(9) 0.01160 328.4 4.3
307(9) 0.01195 328.4 4.4
303(9) 0.01160 328.3 4.5
301(10) 0.01066 328.3 4.6
311(10) 0.01096 328.3 4.7
342(10) 0.01081 328.2 4.8
341(10) 0.01081 328.2 4.9
326(10) 0.01052 328.1 5.0
361(11) 0.00891 328.1 5.1
327(10) 0.01057 328.1 5.3
321(9) 0.01158 328.0 5.4
306(9) 0.01165 328.0 5.5
332(10) 0.01009 328.0 5.7
347(10) 0.00972 327.9 5.8
357(10) 0.00958 327.9 6.0
329(9) 0.01121 327.8 6.1
323(10) 0.01102 327.8 6.3
339(10) 0.00983 327.8 6.5
348(10) 0.00984 327.7 6.7
347(10) 0.01030 327.7 6.9
339(10) 0.01093 327.7 7.2
335(10) 0.01052 327.6 7.4
329(10) 0.01056 327.6 7.7
318(10) 0.01093 327.5 7.9
344(10) 0.01041 327.5 8.2
321(9) 0.01154 327.5 8.6
329(10) 0.01059 327.4 8.9
331(10) 0.01014 327.4 9.3
344(10) 0.01008 327.4 9.7
323(9) 0.01130 327.3 10.1
323(9) 0.01153 327.3 10.6
339(10) 0.00987 327.2 11.2
343(10) 0.00932 327.2 11.7
336(10) 0.00990 327.2 12.4
329(9) 0.01143 327.1 13.1
351(10) 0.01067 327.1 13.8
341(10) 0.01016 327.1 14.6
362(10) 0.00911 327.0 15.5
329(10) 0.01075 327.0 16.5
308(9) 0.01201 326.9 17.5
340(10) 0.01083 326.9 18.7
360(10) 0.00964 326.9 20.0
356(11) 0.00884 326.8 21.4
362(10) 0.00925 326.8 22.9
351(10) 0.01053 326.8 24.6
362(10) 0.01008 326.7 26.4
344(10) 0.01023 326.7 28.4
369(11) 0.00873 326.7 30.5
361(10) 0.00955 326.6 32.7
364(10) 0.01033 326.6 35.3
365(10) 0.00994 326.5 38.3
355(10) 0.01001 326.5 41.9
376(11) 0.00891 326.5 46.7
385(11) 0.00896 326.4 53.6
362(10) 0.01034 326.4 63.9
417(11) 0.00872 326.4 78.9
419(11) 0.00834 326.3 98.9
436(11) 0.00786 326.3 122.5
482(12) 0.00689 326.2 145.4
499(12) 0.00744 326.2 160.8
475(11) 0.00775 326.2 162.2
454(11) 0.00763 326.1 150.1
456(12) 0.00739 326.1 130.8
423(11) 0.00828 326.1 110.9
405(10) 0.00913 326.0 94.4
420(11) 0.00826 326.0 82.4
442(11) 0.00781 325.9 74.5
416(11) 0.00849 325.9 69.3
421(11) 0.00852 325.9 65.7
401(10) 0.00921 325.8 62.6
395(10) 0.00926 325.8 59.8
411(11) 0.00845 325.8 57.0
427(11) 0.00785 325.7 54.1
392(10) 0.00913 325.7 51.2
399(10) 0.00929 325.6 48.4
427(11) 0.00815 325.6 45.6
407(11) 0.00799 325.6 42.8
362(10) 0.00948 325.5 40.2
362(10) 0.01018 325.5 37.7
348(10) 0.01063 325.5 35.3
342(10) 0.00978 325.4 33.1
339(10) 0.00977 325.4 31.0
360(10) 0.00973 325.3 29.0
344(10) 0.01066 325.3 27.1
346(10) 0.01070 325.3 25.4
358(10) 0.00964 325.2 23.8
329(10) 0.01009 325.2 22.4
347(10) 0.00994 325.2 21.0
338(9) 0.01109 325.1 19.8
338(10) 0.01103 325.1 18.7
325(9) 0.01123 325.0 17.6
346(10) 0.00928 325.0 16.7
333(10) 0.01046 325.0 15.8
359(10) 0.01033 324.9 15.1
320(9) 0.01149 324.9 14.4
352(10) 0.00999 324.9 13.7
325(10) 0.01044 324.8 13.1
340(10) 0.01030 324.8 12.6
321(9) 0.01164 324.8 12.1
337(9) 0.01109 324.7 11.7
328(10) 0.01055 324.7 11.3
334(10) 0.00931 324.6 10.9
295(9) 0.01225 324.6 10.6
310(9) 0.01203 324.6 10.3
344(10) 0.01077 324.5 10.1
352(10) 0.00980 324.5 9.8
330(10) 0.01050 324.5 9.6
347(10) 0.01016 324.4 9.5
364(10) 0.01027 324.4 9.3
338(10) 0.01052 324.3 9.1
329(10) 0.01090 324.3 9.0
321(10) 0.01046 324.3 8.9
330(10) 0.01024 324.2 8.8
358(10) 0.01035 324.2 8.7
328(9) 0.01110 324.2 8.7
356(10) 0.00983 324.1 8.6
345(10) 0.01001 324.1 8.6
337(10) 0.01041 324.0 8.5
310(9) 0.01197 324.0 8.5
329(10) 0.01094 324.0 8.5
336(10) 0.01018 323.9 8.5
331(10) 0.01026 323.9 8.5
320(9) 0.01136 323.9 8.6
314(9) 0.01191 323.8 8.6
337(10) 0.01007 323.8 8.7
328(10) 0.01039 323.7 8.7
318(10) 0.01106 323.7 8.8
306(9) 0.01189 323.7 8.8
339(10) 0.01102 323.6 8.9
335(10) 0.01024 323.6 9.0
324(10) 0.01019 323.6 9.1
335(10) 0.01060 323.5 9.2
363(10) 0.01022 323.5 9.4
332(9) 0.01122 323.4 9.5
331(10) 0.01058 323.4 9.6
326(10) 0.01030 323.4 9.8
332(10) 0.01063 323.3 9.9
332(10) 0.01089 323.3 10.1
308(9) 0.01217 323.3 10.2
328(10) 0.01019 323.2 10.4
322(10) 0.01028 323.2 10.6
327(10) 0.01071 323.2 10.8
323(9) 0.01142 323.1 10.9
340(10) 0.01099 323.1 11.1
335(10) 0.01053 323.0 11.3
333(10) 0.00971 323.0 11.5
319(9) 0.01115 323.0 11.7
317(9) 0.01180 322.9 11.9
381(10) 0.00955 322.9 12.1
302(9) 0.01182 322.9 12.3
307(10) 0.01055 322.8 12.5
315(9) 0.01109 322.8 12.7
355(10) 0.01051 322.7 13.0
348(10) 0.01059 322.7 13.2
335(10) 0.01047 322.7 13.4
346(10) 0.00964 322.6 13.6
332(10) 0.01063 322.6 13.9
331(9) 0.01126 322.6 14.1
330(10) 0.01100 322.5 14.4
336(10) 0.01040 322.5 14.7
328(10) 0.01031 322.4 15.0
335(10) 0.01031 322.4 15.4
344(10) 0.01076 322.4 15.8
344(10) 0.01038 322.3 16.2
337(10) 0.01032 322.3 16.8
327(10) 0.01031 322.3 17.3
307(9) 0.01128 322.2 18.0
325(9) 0.01149 322.2 18.8
357(10) 0.01002 322.1 19.7
314(10) 0.01080 322.1 20.7
345(10) 0.00970 322.1 21.8
332(10) 0.01080 322.0 23.1
334(9) 0.01113 322.0 24.6
320(9) 0.01117 322.0 26.2
343(10) 0.00968 321.9 28.0
366(10) 0.00921 321.9 29.9
341(10) 0.01054 321.8 31.9
334(9) 0.01109 321.8 34.0
352(10) 0.00953 321.8 36.0
341(10) 0.00967 321.7 38.0
351(10) 0.01005 321.7 39.6
339(10) 0.01061 321.7 41.0
351(10) 0.01059 321.6 41.8
357(10) 0.00974 321.6 42.2
339(10) 0.00994 321.5 42.1
331(10) 0.01038 321.5 41.6
356(10) 0.01038 321.5 40.9
373(10) 0.01009 321.4 40.1
344(10) 0.01022 321.4 39.3
358(11) 0.00898 321.4 38.6
346(10) 0.01007 321.3 38.1
355(10) 0.01030 321.3 37.8
355(10) 0.01043 321.3 37.9
344(10) 0.00990 321.2 38.3
348(10) 0.00914 321.2 39.1
380(11) 0.00902 321.1 40.4
350(10) 0.01044 321.1 42.0
370(10) 0.01017 321.1 44.2
385(11) 0.00902 321.0 46.9
368(11) 0.00888 321.0 50.1
395(11) 0.00860 321.0 53.9
374(10) 0.00992 320.9 58.4
378(10) 0.00962 320.9 63.5
365(10) 0.00971 320.8 69.4
382(11) 0.00859 320.8 76.0
406(11) 0.00835 320.8 83.4
393(10) 0.00956 320.7 91.6
410(11) 0.00869 320.7 100.5
446(11) 0.00778 320.7 110.1
467(12) 0.00716 320.6 120.2
466(12) 0.00736 320.6 130.7
485(11) 0.00757 320.5 141.3
490(12) 0.00747 320.5 151.7
516(12) 0.00675 320.5 161.2
514(12) 0.00669 320.4 169.4
531(12) 0.00653 320.4 175.7
518(12) 0.00712 320.4 179.5
519(12) 0.00685 320.3 180.7
496(12) 0.00689 320.3 179.0
500(12) 0.00670 320.2 174.7
503(12) 0.00706 320.2 168.1
497(12) 0.00747 320.2 159.7
469(12) 0.00742 320.1 150.0
460(12) 0.00731 320.1 139.5
464(12) 0.00733 320.1 128.6
488(12) 0.00719 320.0 117.9
440(11) 0.00843 320.0 107.4
428(11) 0.00780 319.9 97.5
413(11) 0.00827 319.9 88.1
428(11) 0.00785 319.9 79.6
433(11) 0.00833 319.8 71.8
414(11) 0.00890 319.8 64.8
408(11) 0.00864 319.8 58.5
383(11) 0.00860 319.7 52.8
393(11) 0.00894 319.7 47.9
393(10) 0.00908 319.7 43.5
370(10) 0.01012 319.6 39.6
361(10) 0.00987 319.6 36.2
358(11) 0.00904 319.5 33.2
358(10) 0.00938 319.5 30.6
356(10) 0.01029 319.5 28.3
355(10) 0.01053 319.4 26.2
352(10) 0.00995 319.4 24.4
358(11) 0.00881 319.4 22.8
348(10) 0.01007 319.3 21.4
344(10) 0.01087 319.3 20.1
363(10) 0.01021 319.2 18.9
347(10) 0.01016 319.2 17.9
326(10) 0.00996 319.2 16.9
335(10) 0.01044 319.1 16.1
316(9) 0.01163 319.1 15.3
343(10) 0.01062 319.1 14.6
319(10) 0.01076 319.0 13.9
309(10) 0.01051 319.0 13.5
317(10) 0.01095 318.9 12.9
322(9) 0.01145 318.9 12.4
358(10) 0.01010 318.9 11.9
318(10) 0.01087 318.8 11.4
314(10) 0.01098 318.8 11.1
355(10) 0.00976 318.8 10.7
329(9) 0.01130 318.7 10.4
309(9) 0.01208 318.7 10.0
324(10) 0.01093 318.6 9.7
308(9) 0.01140 318.6 9.4
315(10) 0.01077 318.6 9.1
331(9) 0.01131 318.5 8.8
331(10) 0.01062 318.5 8.6
346(10) 0.00999 318.5 8.3
347(10) 0.00952 318.4 8.1
298(9) 0.01192 318.4 7.9
331(9) 0.01129 318.3 7.7
329(10) 0.01093 318.3 7.5
337(10) 0.01015 318.3 7.3
331(10) 0.01010 318.2 7.2
323(9) 0.01109 318.2 7.0
335(10) 0.01095 318.2 6.9
302(9) 0.01172 318.1 6.8
341(10) 0.00979 318.1 6.6
325(10) 0.01021 318.1 6.5
297(9) 0.01210 318.0 6.4
315(9) 0.01183 318.0 6.3
306(9) 0.01169 317.9 6.2
325(10) 0.01024 317.9 6.1
314(9) 0.01114 317.9 6.0
317(9) 0.01145 317.8 5.9
327(9) 0.01116 317.8 5.8
309(9) 0.01117 317.8 5.7
339(10) 0.00952 317.7 5.6
339(10) 0.01036 317.7 5.6
325(9) 0.01143 317.6 5.5
315(9) 0.01160 317.6 5.5
303(9) 0.01129 317.6 5.4
318(10) 0.01026 317.5 5.3
335(10) 0.01040 317.5 5.3
316(9) 0.01178 317.5 5.2
323(9) 0.01110 317.4 5.2
329(10) 0.00985 317.4 5.1
329(10) 0.00966 317.3 5.1
343(10) 0.01028 317.3 5.1
340(9) 0.01115 317.3 5.0
302(9) 0.01212 317.2 5.0
314(9) 0.01139 317.2 5.0
317(10) 0.01053 317.2 4.9
346(10) 0.00978 317.1 4.9
332(9) 0.01131 317.1 4.9
299(9) 0.01229 317.0 4.9
329(10) 0.01022 317.0 4.9
326(10) 0.00988 317.0 4.9
344(10) 0.00966 316.9 4.8
341(10) 0.01083 316.9 4.8
297(9) 0.01231 316.9 4.8
329(10) 0.01076 316.9 4.8
335(10) 0.01018 316.9 4.8
323(10) 0.01072 316.9 4.8
289(9) 0.01287 316.9 4.8
316(10) 0.01101 316.9 4.9
333(10) 0.01048 316.8 4.9
323(10) 0.01070 316.8 4.9
322(10) 0.01071 316.8 4.9
310(9) 0.01194 316.8 4.9
309(9) 0.01160 316.8 4.9
303(9) 0.01146 316.8 5.0
338(10) 0.01011 316.8 5.0
329(10) 0.01072 316.8 5.0
340(10) 0.01095 316.8 5.1
332(10) 0.01030 316.8 5.1
328(10) 0.01025 316.8 5.1
306(9) 0.01150 316.8 5.2
307(9) 0.01178 316.8 5.2
334(9) 0.01117 316.8 5.3
316(10) 0.01103 316.8 5.4
324(10) 0.01012 316.7 5.4
343(10) 0.01001 316.7 5.5
317(9) 0.01157 316.7 5.6
346(10) 0.01077 316.7 5.6
331(10) 0.01033 316.7 5.7
309(10) 0.01064 316.7 5.8
320(9) 0.01111 316.7 5.9
310(9) 0.01210 316.7 6.0
313(9) 0.01178 316.7 6.1
338(10) 0.01030 316.7 6.3
326(10) 0.00980 316.7 6.4
318(10) 0.01107 316.7 6.5
311(9) 0.01217 316.7 6.7
348(10) 0.01052 316.7 6.8
327(10) 0.01079 316.6 7.0
334(10) 0.00952 316.6 7.2
319(10) 0.01095 316.6 7.4
326(9) 0.01132 316.6 7.7
319(9) 0.01169 316.6 7.9
333(10) 0.01022 316.6 8.2
318(10) 0.01042 316.6 8.5
351(10) 0.00946 316.6 8.8
328(9) 0.01142 316.6 9.3
316(9) 0.01140 316.6 9.7
312(10) 0.01073 316.6 10.1
290(9) 0.01189 316.6 10.7
340(10) 0.01033 316.6 11.2
318(9) 0.01161 316.6 11.9
327(9) 0.01131 316.6 12.6
327(10) 0.01086 316.5 13.4
322(10) 0.01063 316.5 14.4
346(10) 0.00971 316.5 15.5
332(9) 0.01125 316.5 16.8
325(10) 0.01085 316.5 18.5
344(10) 0.00998 316.5 20.5
360(10) 0.00950 316.5 23.0
339(10) 0.01049 316.5 26.4
345(10) 0.01079 316.5 30.9
379(10) 0.00935 316.5 37.0
365(10) 0.01003 316.5 45.3
418(11) 0.00825 316.5 56.3
371(10) 0.00983 316.5 70.6
442(11) 0.00844 316.5 88.5
435(11) 0.00806 316.5 109.8
437(11) 0.00764 316.4 133.9
489(12) 0.00696 316.4 158.7
508(12) 0.00707 316.4 181.5
602(13) 0.00617 316.4 198.6
565(13) 0.00604 316.4 206.1
502(12) 0.00660 316.4 201.6
496(12) 0.00696 316.4 185.8
495(12) 0.00737 316.4 162.8
472(11) 0.00784 316.4 137.5
434(11) 0.00803 316.4 113.3
441(12) 0.00739 316.4 92.1
394(11) 0.00876 316.4 74.7
420(11) 0.00871 316.4 61.0
404(10) 0.00918 316.4 50.9
389(11) 0.00865 316.4 43.6
362(10) 0.00931 316.3 38.7
369(10) 0.00955 316.3 35.8
372(10) 0.01001 316.3 34.4
365(10) 0.01010 316.3 34.4
379(11) 0.00895 316.3 35.7
342(10) 0.00944 316.3 38.4
353(10) 0.01008 316.3 42.5
356(10) 0.01045 316.3 47.9
372(10) 0.00999 316.3 54.4
374(10) 0.00944 316.3 61.4
412(11) 0.00787 316.3 67.9
405(11) 0.00850 316.3 72.5
418(11) 0.00887 316.3 73.7
413(11) 0.00873 316.3 70.9
389(10) 0.00932 316.3 65.3
385(11) 0.00855 316.2 58.3
347(10) 0.01024 316.2 51.2
366(10) 0.01021 316.2 44.8
350(10) 0.01035 316.2 39.6
349(10) 0.00972 316.2 35.4
338(10) 0.00976 316.2 32.4
378(11) 0.00849 316.2 30.4
344(10) 0.01075 316.2 29.2
375(10) 0.00953 316.2 28.5
373(11) 0.00885 316.2 28.3
346(10) 0.00942 316.2 28.5
369(10) 0.00932 316.2 29.0
343(10) 0.01089 316.2 29.7
352(10) 0.00963 316.2 30.7
350(10) 0.00991 316.2 32.0
368(11) 0.00902 316.1 33.6
374(10) 0.00925 316.1 35.7
391(10) 0.00955 316.1 38.3
371(10) 0.00948 316.1 41.8
376(10) 0.00914 316.1 46.2
386(11) 0.00898 316.1 52.0
373(10) 0.00961 316.1 59.3
395(10) 0.00934 316.1 68.6
412(11) 0.00837 316.1 80.0
406(11) 0.00832 316.1 93.7
410(11) 0.00864 316.1 109.6
433(11) 0.00845 316.1 127.0
476(11) 0.00773 316.1 145.0
528(13) 0.00638 316.1 161.4
486(12) 0.00666 316.1 173.6
517(12) 0.00650 316.0 178.6
507(12) 0.00722 316.0 175.1
489(12) 0.00746 316.0 164.2
454(11) 0.00771 316.0 148.4
427(11) 0.00770 316.0 130.7
405(11) 0.00876 316.0 113.2
410(11) 0.00902 316.0 97.2
387(10) 0.00955 316.0 83.3
385(10) 0.00912 316.0 71.6
372(11) 0.00887 316.0 62.1
383(10) 0.00907 316.0 54.6
376(10) 0.00988 316.0 48.8
341(10) 0.01075 316.0 44.3
361(10) 0.00947 316.0 40.9
353(10) 0.00910 316.0 38.4
337(10) 0.00989 315.9 36.4
342(10) 0.01093 315.9 35.0
372(10) 0.00973 315.9 33.8
366(10) 0.00943 315.9 33.0
331(10) 0.01016 315.9 32.4
355(10) 0.00931 315.9 31.9
316(9) 0.01177 315.9 31.6
352(10) 0.01032 315.9 31.4
362(10) 0.00946 315.9 31.4
358(10) 0.00933 315.9 31.5
362(10) 0.00932 315.9 31.6
357(10) 0.01038 315.9 31.9
345(10) 0.01059 315.9 32.3
349(10) 0.00989 315.9 32.7
337(10) 0.00998 315.9 33.3
359(10) 0.00970 315.8 33.9
349(10) 0.01069 315.8 34.6
360(10) 0.01000 315.8 35.3
369(10) 0.00929 315.8 36.1
353(10) 0.00963 315.8 36.9
376(10) 0.00930 315.8 37.8
338(9) 0.01112 315.8 38.8
355(10) 0.00987 315.8 39.7
353(10) 0.00957 315.8 40.7
334(10) 0.01080 315.8 41.6
383(10) 0.00933 315.8 42.6
359(10) 0.01032 315.8 43.5
373(11) 0.00887 315.8 44.4
387(11) 0.00854 315.8 45.3
365(10) 0.00960 315.7 46.0
375(10) 0.00938 315.7 46.7
376(10) 0.00981 315.7 47.2
387(11) 0.00886 315.7 47.7
347(10) 0.00960 315.7 48.0
329(10) 0.01080 315.7 48.1
376(10) 0.00983 315.7 48.2
379(10) 0.00970 315.7 48.0
389(11) 0.00907 315.7 47.8
358(10) 0.00952 315.7 47.4
367(10) 0.00955 315.7 46.9
359(10) 0.01014 315.7 46.4
387(10) 0.00962 315.7 45.8
364(10) 0.00961 315.7 45.1
374(11) 0.00834 315.7 44.4
361(10) 0.00977 315.6 43.8
356(10) 0.01049 315.6 43.2
381(10) 0.00966 315.6 42.7
335(10) 0.01082 315.6 42.5
344(10) 0.00951 315.6 42.6
353(10) 0.01014 315.6 43.3
367(10) 0.01006 315.6 44.9
386(10) 0.00971 315.6 47.8
390(10) 0.00909 315.6 52.3
395(11) 0.00826 315.6 58.5
379(10) 0.00918 315.6 66.5
401(10) 0.00929 315.6 75.7
427(11) 0.00861 315.6 84.7
446(11) 0.00791 315.6 91.3
461(12) 0.00724 315.6 93.1
455(11) 0.00756 315.5 89.3
424(11) 0.00866 315.5 81.7
393(10) 0.00942 315.5 72.8
393(11) 0.00891 315.5 64.7
385(11) 0.00866 315.5 58.5
368(10) 0.00926 315.5 54.5
401(10) 0.00916 315.5 52.9
379(10) 0.00943 315.5 53.4
360(10) 0.00981 315.5 55.6
389(11) 0.00866 315.5 59.2
387(10) 0.00912 315.5 63.9
431(11) 0.00865 315.5 69.3
404(11) 0.00855 315.5 74.7
442(11) 0.00765 315.5 79.6
447(11) 0.00777 315.5 83.0
420(11) 0.00854 315.4 84.2
424(11) 0.00875 315.4 83.0
430(11) 0.00824 315.4 79.4
407(11) 0.00844 315.4 74.1
415(11) 0.00847 315.4 68.1
381(10) 0.00966 315.4 61.9
399(10) 0.00928 315.4 55.9
372(10) 0.00927 315.4 50.5
392(11) 0.00821 315.4 45.8
400(11) 0.00851 315.4 41.9
362(10) 0.01029 315.4 38.6
379(10) 0.00976 315.4 36.0
353(10) 0.00992 315.4 33.9
346(10) 0.00986 315.4 32.4
339(10) 0.01029 315.4 31.2
381(10) 0.00949 315.3 30.4
331(9) 0.01129 315.3 29.9
352(10) 0.00985 315.3 29.6
366(11) 0.00845 315.3 29.5
346(10) 0.01004 315.3 29.6
348(10) 0.01058 315.3 29.8
349(10) 0.01056 315.3 30.0
331(10) 0.01037 315.3 30.4
353(11) 0.00882 315.3 30.9
350(10) 0.00971 315.3 31.5
343(10) 0.01086 315.3 32.2
352(10) 0.01056 315.3 32.9
351(10) 0.00999 315.3 33.8
371(11) 0.00849 315.3 34.7
340(10) 0.01008 315.3 35.7
349(10) 0.01064 315.2 36.8
329(9) 0.01133 315.2 37.9
369(10) 0.00925 315.2 39.2
347(10) 0.00942 315.2 40.5
348(10) 0.00979 315.2 41.9
352(10) 0.01051 315.2 43.4
370(10) 0.00987 315.2 44.9
356(10) 0.00969 315.2 46.6
346(10) 0.00981 315.2 48.3
358(10) 0.00958 315.2 50.1
383(10) 0.00979 315.2 52.0
362(10) 0.00986 315.2 53.9
382(11) 0.00895 315.2 55.9
385(11) 0.00863 315.2 58.0
358(10) 0.00975 315.2 60.2
374(10) 0.00989 315.1 62.4
381(10) 0.00926 315.1 64.7
364(10) 0.00928 315.1 66.9
378(11) 0.00879 315.1 69.3
390(11) 0.00890 315.1 71.6
412(11) 0.00898 315.1 73.9
389(11) 0.00902 315.1 76.2
396(11) 0.00865 315.1 78.5
369(10) 0.00959 315.1 80.7
374(10) 0.00955 315.1 82.9
388(10) 0.00959 315.1 85.1
386(11) 0.00896 315.1 87.3
380(11) 0.00886 315.1 89.5
378(10) 0.00948 315.1 91.8
395(10) 0.00923 315.1 94.2
395(10) 0.00947 315.0 96.9
391(11) 0.00894 315.0 99.8
367(10) 0.00952 315.0 103.1
411(11) 0.00846 315.0 106.7
420(11) 0.00871 315.0 110.8
405(10) 0.00919 315.0 115.3
435(11) 0.00813 315.0 120.3
436(11) 0.00766 315.0 125.7
446(11) 0.00779 315.0 131.5
443(11) 0.00829 315.0 137.4
435(11) 0.00843 315.0 143.2
420(11) 0.00837 315.0 148.7
449(12) 0.00709 315.0 153.5
455(11) 0.00778 315.0 157.1
449(11) 0.00831 315.0 159.4
447(11) 0.00822 314.9 159.8
447(11) 0.00778 314.9 158.4
449(12) 0.00721 314.9 155.1
418(11) 0.00807 314.9 150.1
414(11) 0.00901 314.9 143.8
404(11) 0.00902 314.9 136.5
439(11) 0.00763 314.9 128.6
408(11) 0.00788 314.9 120.6
407(11) 0.00826 314.9 112.5
390(10) 0.00953 314.9 104.7
410(11) 0.00881 314.9 97.4
401(11) 0.00839 314.9 90.5
385(11) 0.00851 314.9 84.3
367(10) 0.00937 314.9 78.7
392(10) 0.00928 314.9 73.6
393(10) 0.00931 314.8 69.2
373(10) 0.00929 314.8 65.4
385(11) 0.00869 314.8 62.2
370(10) 0.00957 314.8 59.4
359(10) 0.01037 314.8 57.2
387(11) 0.00901 314.8 55.4
361(10) 0.00989 314.8 54.0
362(10) 0.00956 314.8 53.0
354(10) 0.00998 314.8 52.2
379(10) 0.00987 314.8 51.5
365(10) 0.00966 314.8 50.9
357(10) 0.00980 314.8 50.3
385(11) 0.00872 314.8 49.6
328(10) 0.01101 314.8 48.6
359(10) 0.01027 314.7 47.4
345(10) 0.00999 314.7 46.0
321(10) 0.01051 314.7 44.4
356(10) 0.00942 314.7 42.8
377(10) 0.00964 314.7 41.1
364(10) 0.01022 314.7 39.5
372(10) 0.00921 314.7 37.9
350(10) 0.00985 314.7 36.4
340(10) 0.01047 314.7 35.1
352(10) 0.01051 314.7 33.8
375(10) 0.00998 314.7 32.5
333(10) 0.01071 314.7 31.4
324(10) 0.00988 314.7 30.4
326(10) 0.01077 314.7 29.4
380(10) 0.00976 314.7 28.5
345(10) 0.01081 314.6 27.7
349(10) 0.01027 314.6 26.9
350(10) 0.00949 314.6 26.2
361(10) 0.00956 314.6 25.5
350(10) 0.01053 314.6 24.8
326(9) 0.01146 314.6 24.2
337(10) 0.01005 314.6 23.6
346(10) 0.00946 314.6 23.0
350(10) 0.00976 314.6 22.5
342(10) 0.01085 314.6 22.0
348(10) 0.01087 314.6 21.5
326(10) 0.01045 314.6 21.0
342(10) 0.00931 314.6 20.6
331(10) 0.01054 314.6 20.1
334(9) 0.01132 314.6 19.7
320(9) 0.01118 314.5 19.4
341(10) 0.01030 314.5 19.0
345(10) 0.00952 314.5 18.7
324(10) 0.01061 314.5 18.4
338(10) 0.01098 314.5 18.1
344(10) 0.01050 314.5 17.8
347(10) 0.00988 314.5 17.6
342(10) 0.01012 314.5 17.4
336(10) 0.01046 314.5 17.2
327(9) 0.01140 314.5 17.1
326(10) 0.01089 314.5 17.0
329(10) 0.01049 314.5 16.9
340(10) 0.00974 314.5 16.9
316(9) 0.01136 314.5 16.9
348(10) 0.01076 314.5 17.0
348(10) 0.01010 314.4 17.1
336(10) 0.01022 314.4 17.3
335(10) 0.01007 314.4 17.6
335(10) 0.01077 314.4 17.9
354(10) 0.01045 314.4 18.3
316(9) 0.01161 314.4 18.8
331(10) 0.01013 314.4 19.4
325(10) 0.01048 314.4 20.1
361(10) 0.00984 314.4 21.1
338(10) 0.01103 314.4 22.2
355(10) 0.00996 314.4 23.6
344(10) 0.00998 314.4 25.4
344(10) 0.01023 314.4 27.5
364(10) 0.00997 314.4 30.1
349(10) 0.01067 314.4 33.3
355(10) 0.00973 314.3 37.1
387(11) 0.00814 314.3 41.6
389(11) 0.00874 314.3 47.0
407(10) 0.00910 314.3 53.2
388(10) 0.00963 314.3 60.3
389(11) 0.00860 314.3 68.3
417(11) 0.00771 314.3 77.0
466(12) 0.00719 314.3 86.1
431(11) 0.00858 314.3 95.1
443(11) 0.00819 314.3 103.4
477(12) 0.00743 314.3 110.0
489(12) 0.00657 314.3 114.0
477(12) 0.00736 314.3 114.8
491(12) 0.00743 314.3 112.2
476(11) 0.00775 314.3 106.6
460(12) 0.00742 314.2 98.8
404(11) 0.00838 314.2 89.9
438(11) 0.00817 314.2 80.6
412(11) 0.00899 314.2 71.6
384(10) 0.00961 314.2 63.1
373(10) 0.00953 314.2 55.4
394(11) 0.00843 314.2 48.6
362(10) 0.00942 314.2 42.7
346(10) 0.01077 314.2 37.6
343(10) 0.01063 314.2 33.3
346(10) 0.00999 314.2 29.7
331(10) 0.01052 314.2 26.7
349(10) 0.00997 314.2 24.2
308(9) 0.01210 314.2 22.1
346(10) 0.01000 314.2 20.4
352(10) 0.00974 314.1 18.9
339(10) 0.00981 314.1 17.7
320(9) 0.01126 314.1 16.7
341(10) 0.01080 314.1 15.8
335(10) 0.01103 314.1 15.0
329(10) 0.01046 314.1 14.4
338(10) 0.01005 314.1 13.8
332(10) 0.01097 314.1 13.3
307(9) 0.01208 314.1 12.9
337(10) 0.01015 314.1 12.5
320(10) 0.01097 314.1 12.2
343(10) 0.01006 314.1 11.9
318(9) 0.01153 314.1 11.6
365(10) 0.01010 314.1 11.4
329(10) 0.01103 314.1 11.2
341(10) 0.01002 314.0 11.0
318(10) 0.01077 314.0 10.9
335(10) 0.01084 314.0 10.7
339(10) 0.01088 314.0 10.6
325(10) 0.01038 314.0 10.6
311(10) 0.01079 314.0 10.5
349(10) 0.00997 314.0 10.5
322(9) 0.01139 314.0 10.5
293(9) 0.01263 314.0 10.5
332(10) 0.01014 314.1 10.5
310(10) 0.01047 314.1 10.6
303(9) 0.01180 314.1 10.7
334(9) 0.01117 314.1 10.8
342(10) 0.01081 314.1 10.9
341(10) 0.01007 314.1 11.1
306(10) 0.01090 314.1 11.3
308(9) 0.01151 314.1 11.5
326(9) 0.01148 314.1 11.8
298(9) 0.01247 314.1 12.1
336(10) 0.01046 314.2 12.5
339(10) 0.00969 314.2 12.8
346(10) 0.00975 314.2 13.2
326(9) 0.01145 314.2 13.7
341(10) 0.01088 314.2 14.2
320(10) 0.01082 314.2 14.7
332(10) 0.00946 314.2 15.1
295(9) 0.01194 314.2 15.6
344(10) 0.01091 314.2 16.1
330(10) 0.01077 314.3 16.5
313(9) 0.01129 314.3 16.8
348(10) 0.00964 314.3 17.0
335(10) 0.01015 314.3 17.2
337(10) 0.01092 314.3 17.3
330(9) 0.01122 314.3 17.4
334(10) 0.01039 314.3 17.4
324(10) 0.01047 314.3 17.4
326(10) 0.01064 314.3 17.5
343(10) 0.01092 314.3 17.6
317(9) 0.01141 314.4 17.7
333(10) 0.01046 314.4 17.9
327(10) 0.01062 314.4 18.2
323(10) 0.01079 314.4 18.5
318(9) 0.01180 314.4 18.9
329(10) 0.01069 314.4 19.4
315(10) 0.01083 314.4 20.0
314(9) 0.01123 314.4 20.7
316(9) 0.01139 314.4 21.5
325(9) 0.01151 314.5 22.4
337(10) 0.01037 314.5 23.4
315(9) 0.01132 314.5 24.5
330(10) 0.01056 314.5 25.8
337(10) 0.01081 314.5 27.2
345(10) 0.01083 314.5 28.8
325(10) 0.01056 314.5 30.6
357(10) 0.00923 314.5 32.5
354(10) 0.00992 314.5 34.6
328(9) 0.01135 314.5 37.0
331(9) 0.01136 314.6 39.6
347(10) 0.00994 314.6 42.3
355(10) 0.00933 314.6 45.4
334(10) 0.01053 314.6 48.7
325(9) 0.01140 314.6 52.2
344(10) 0.01044 314.6 56.0
340(10) 0.01011 314.6 60.1
369(11) 0.00843 314.6 64.4
357(10) 0.00961 314.6 68.9
362(10) 0.01004 314.7 73.7
382(10) 0.00964 314.7 78.6
384(11) 0.00896 314.7 83.6
394(11) 0.00823 314.7 88.7
383(10) 0.00942 314.7 93.7
412(11) 0.00903 314.7 98.5
385(10) 0.00953 314.7 103.0
426(11) 0.00800 314.7 107.0
398(11) 0.00857 314.7 110.4
388(11) 0.00906 314.7 113.1
385(10) 0.00983 314.8 114.8
395(10) 0.00920 314.8 115.6
407(11) 0.00877 314.8 115.3
411(11) 0.00820 314.8 114.0
413(11) 0.00811 314.8 111.8
388(10) 0.00956 314.8 108.8
396(10) 0.00916 314.8 105.0
375(10) 0.00945 314.8 100.8
377(11) 0.00889 314.8 96.1
400(11) 0.00847 314.9 91.2
363(10) 0.01026 314.9 86.1
393(11) 0.00892 314.9 81.1
376(11) 0.00886 314.9 76.1
373(11) 0.00902 314.9 71.3
363(10) 0.00971 314.9 66.6
376(10) 0.00990 314.9 62.2
366(10) 0.00972 314.9 58.0
370(11) 0.00890 314.9 54.0
363(10) 0.00931 314.9 50.4
335(10) 0.01090 315.0 46.9
349(10) 0.01057 315.0 43.8
345(10) 0.00969 315.0 40.8
328(10) 0.01049 315.0 38.1
358(10) 0.00969 315.0 35.7
338(10) 0.01103 315.0 33.4
341(10) 0.01087 315.0 31.3
330(10) 0.01041 315.0 29.5
349(10) 0.00961 315.0 27.7
358(10) 0.00963 315.1 26.2
376(10) 0.00971 315.1 24.8
352(10) 0.01053 315.1 23.5
341(10) 0.01024 315.1 22.3
342(10) 0.00949 315.1 21.3
332(10) 0.01042 315.1 20.3
348(10) 0.01051 315.1 19.4
338(10) 0.01095 315.1 18.7
328(10) 0.01056 315.1 17.9
333(10) 0.00954 315.2 17.3
353(10) 0.00945 315.2 16.7
326(9) 0.01111 315.2 16.1
343(10) 0.01081 315.2 15.6
331(10) 0.01015 315.2 15.2
318(10) 0.01011 315.2 14.8
316(10) 0.01083 315.2 14.4
316(9) 0.01189 315.2 14.0
315(9) 0.01160 315.2 13.7
313(9) 0.01153 315.2 13.4
357(10) 0.00930 315.3 13.2
307(9) 0.01149 315.3 12.9
324(9) 0.01152 315.3 12.7
318(9) 0.01164 315.3 12.5
340(10) 0.01041 315.3 12.3
346(10) 0.00943 315.3 12.1
306(9) 0.01131 315.3 12.0
326(9) 0.01130 315.3 11.9
338(10) 0.01078 315.3 11.8
323(10) 0.01065 315.4 11.6
303(9) 0.01113 315.4 11.6
308(9) 0.01152 315.4 11.5
326(9) 0.01133 315.4 11.4
293(9) 0.01182 315.4 11.4
324(10) 0.01049 315.4 11.3
330(10) 0.01029 315.4 11.3
323(10) 0.01069 315.4 11.3
338(10) 0.01106 315.4 11.3
317(10) 0.01094 315.4 11.3
333(10) 0.01030 315.5 11.4
310(10) 0.01104 315.5 11.4
317(10) 0.01090 315.5 11.5
315(9) 0.01192 315.5 11.5
325(10) 0.01061 315.5 11.6
331(10) 0.01033 315.5 11.7
323(10) 0.01045 315.5 11.8
314(9) 0.01149 315.5 11.9
332(10) 0.01106 315.5 12.0
303(9) 0.01176 315.6 12.2
336(10) 0.00963 315.6 12.3
314(10) 0.01100 315.6 12.5
346(10) 0.01069 315.6 12.7
329(9) 0.01139 315.6 12.9
330(10) 0.01039 315.6 13.2
331(10) 0.00984 315.6 13.4
329(10) 0.01045 315.6 13.7
331(9) 0.01112 315.6 14.0
336(10) 0.01103 315.6 14.3
354(10) 0.00981 315.7 14.6
334(10) 0.00986 315.7 15.0
338(10) 0.01021 315.7 15.4
333(9) 0.01123 315.7 15.8
322(9) 0.01151 315.7 16.3
332(10) 0.01027 315.7 16.8
332(10) 0.00958 315.7 17.4
345(10) 0.01008 315.7 17.9
362(10) 0.01014 315.7 18.6
315(9) 0.01184 315.8 19.3
334(10) 0.01040 315.8 20.0
321(10) 0.01008 315.8 20.9
328(10) 0.01038 315.8 21.8
349(10) 0.01061 315.8 22.7
321(9) 0.01174 315.8 23.8
334(10) 0.01044 315.8 24.9
341(10) 0.00973 315.8 26.2
350(10) 0.00978 315.8 27.5
346(10) 0.01069 315.8 29.0
361(10) 0.01018 315.9 30.6
341(10) 0.01006 315.9 32.4
351(10) 0.00962 315.9 34.3
341(10) 0.01025 315.9 36.3
344(10) 0.01078 315.9 38.5
345(10) 0.01059 315.9 40.9
368(10) 0.00959 315.9 43.5
356(10) 0.00963 315.9 46.2
361(10) 0.00989 315.9 49.2
375(10) 0.00992 316.0 52.3
365(10) 0.00964 316.0 55.7
383(11) 0.00884 316.0 59.3
388(11) 0.00878 316.0 63.1
389(10) 0.00931 316.0 67.0
377(10) 0.00988 316.0 71.2
420(11) 0.00822 316.0 75.5
415(11) 0.00810 316.0 80.0
400(11) 0.00841 316.0 84.6
413(11) 0.00891 316.0 89.2
424(11) 0.00876 316.1 93.8
431(11) 0.00810 316.1 98.3
433(11) 0.00777 316.1 102.7
406(11) 0.00871 316.1 106.8
397(10) 0.00912 316.1 110.5
406(10) 0.00913 316.1 113.7
449(11) 0.00764 316.1 116.4
441(12) 0.00755 316.1 118.4
468(12) 0.00742 316.1 119.7
448(11) 0.00826 316.2 120.3
427(11) 0.00853 316.2 120.2
428(11) 0.00810 316.2 119.3
437(12) 0.00737 316.2 117.7
442(11) 0.00788 316.2 115.4
454(11) 0.00814 316.2 112.6
458(11) 0.00813 316.2 109.3
449(11) 0.00756 316.2 105.6
441(12) 0.00732 316.2 101.7
404(11) 0.00884 316.3 97.4
428(11) 0.00866 316.3 93.1
394(10) 0.00950 316.3 88.7
397(11) 0.00873 316.3 84.3
402(11) 0.00827 316.3 79.9
395(11) 0.00898 316.3 75.6
391(10) 0.00942 316.3 71.4
414(11) 0.00885 316.3 67.4
381(10) 0.00913 316.3 63.5
372(11) 0.00896 316.3 59.8
371(10) 0.00952 316.4 56.3
347(10) 0.01070 316.4 53.0
335(10) 0.01085 316.4 49.9
330(10) 0.01064 316.4 47.0
345(10) 0.01017 316.4 44.2
367(10) 0.00949 316.4 41.7
344(10) 0.01096 316.4 39.3
348(10) 0.01024 316.4 37.0
344(10) 0.00985 316.4 34.9
347(10) 0.00958 316.5 33.0
350(10) 0.01004 316.5 31.2
356(10) 0.01050 316.5 29.5
343(10) 0.01041 316.5 28.0
339(10) 0.01004 316.5 26.6
349(10) 0.00941 316.5 25.2
332(10) 0.01054 316.5 24.0
330(9) 0.01126 316.5 22.9
345(10) 0.01015 316.5 21.8
343(10) 0.00998 316.5 20.9
323(10) 0.01091 316.6 20.0
347(10) 0.01039 316.6 19.2
338(10) 0.01088 316.6 18.4
323(10) 0.01041 316.6 17.7
330(10) 0.01013 316.6 17.0
347(10) 0.01024 316.6 16.4
349(10) 0.01017 316.6 15.8
330(9) 0.01133 316.6 15.3
341(10) 0.01022 316.6 14.9
313(10) 0.01104 316.7 14.4
329(10) 0.01037 316.7 14.0
331(10) 0.01077 316.7 13.6
314(9) 0.01208 316.7 13.3
308(9) 0.01141 316.7 12.9
332(10) 0.00980 316.7 12.6
340(10) 0.01035 316.7 12.3
353(10) 0.01042 316.7 12.0
315(9) 0.01201 316.7 11.8
325(10) 0.01086 316.7 11.5
327(10) 0.00972 316.8 11.3
325(10) 0.01043 316.8 11.1
321(9) 0.01136 316.8 10.9
326(9) 0.01136 316.8 10.7
310(9) 0.01140 316.8 10.5
310(10) 0.01036 316.8 10.4
310(9) 0.01132 316.8 10.2
323(9) 0.01162 316.8 10.1
314(9) 0.01177 316.8 10.0
339(10) 0.01018 316.9 9.9
321(10) 0.01036 316.9 9.8
330(10) 0.01026 316.9 9.7
330(9) 0.01109 316.9 9.6
315(9) 0.01153 316.9 9.6
324(10) 0.01055 316.9 9.5
325(10) 0.01027 317.0 9.5
331(10) 0.01042 317.0 9.5
331(9) 0.01135 317.0 9.5
327(10) 0.01087 317.1 9.5
321(10) 0.01051 317.1 9.5
322(10) 0.01029 317.1 9.5
347(10) 0.01012 317.2 9.6
352(10) 0.01060 317.2 9.6
309(9) 0.01160 317.2 9.7
307(9) 0.01109 317.3 9.8
327(10) 0.01023 317.3 9.9
319(9) 0.01115 317.3 10.1
350(10) 0.01064 317.3 10.3
344(10) 0.00974 317.4 10.6
317(10) 0.01090 317.4 10.9
328(10) 0.01071 317.4 11.3
318(9) 0.01131 317.5 12.0
318(9) 0.01179 317.5 13.1
331(10) 0.01069 317.5 15.2
338(10) 0.00987 317.6 19.4
337(10) 0.00998 317.6 27.2
356(10) 0.01025 317.6 40.1
372(10) 0.01015 317.7 58.1
386(10) 0.00911 317.7 78.8
410(11) 0.00826 317.7 96.7
398(11) 0.00889 317.8 104.5
415(11) 0.00866 317.8 98.0
382(10) 0.00966 317.8 80.9
379(11) 0.00870 317.8 60.8
344(10) 0.00969 317.9 43.2
313(9) 0.01167 317.9 30.7
344(10) 0.01072 317.9 23.3
310(9) 0.01195 318.0 19.6
318(10) 0.01102 318.0 18.1
348(10) 0.00918 318.0 17.7
342(10) 0.01065 318.1 17.9
356(10) 0.01045 318.1 18.3
324(9) 0.01151 318.1 18.8
372(10) 0.00917 318.2 19.4
327(10) 0.01006 318.2 20.2
354(10) 0.00973 318.2 21.1
351(10) 0.01072 318.3 22.0
339(10) 0.01040 318.3 23.0
369(10) 0.00916 318.3 24.1
350(10) 0.00939 318.4 25.4
333(10) 0.00986 318.4 26.7
365(10) 0.01016 318.4 28.0
323(9) 0.01149 318.4 29.5
336(10) 0.01040 318.5 31.0
350(10) 0.00953 318.5 32.7
362(10) 0.00958 318.5 34.3
346(10) 0.01072 318.6 36.1
348(10) 0.01041 318.6 37.9
383(11) 0.00899 318.6 39.7
373(10) 0.00908 318.7 41.5
372(10) 0.00965 318.7 43.3
380(10) 0.00975 318.7 45.1
377(10) 0.00953 318.8 46.8
376(10) 0.00928 318.8 48.4
392(11) 0.00871 318.8 49.8
414(11) 0.00848 318.9 51.1
366(10) 0.01016 318.9 52.1
386(11) 0.00900 318.9 52.9
377(10) 0.00918 319.0 53.4
368(10) 0.00936 319.0 53.6
368(10) 0.00973 319.0 53.5
385(10) 0.00960 319.0 53.1
391(11) 0.00878 319.1 52.5
404(11) 0.00812 319.1 51.5
365(10) 0.00999 319.1 50.3
375(10) 0.00953 319.2 49.0
338(10) 0.01103 319.2 47.4
381(11) 0.00871 319.2 45.7
355(10) 0.00932 319.3 43.9
356(10) 0.00962 319.3 42.0
354(10) 0.01047 319.3 40.2
385(10) 0.00967 319.4 38.3
361(10) 0.00963 319.4 36.4
364(11) 0.00876 319.4 34.6
354(10) 0.00935 319.5 32.8
354(10) 0.01018 319.5 31.1
353(10) 0.01051 319.5 29.4
350(10) 0.00999 319.5 27.9
350(10) 0.00942 319.6 26.4
332(10) 0.01008 319.6 24.9
366(10) 0.00989 319.6 23.6
345(10) 0.01057 319.7 22.3
323(10) 0.01077 319.7 21.1
342(10) 0.00926 319.7 20.0
316(9) 0.01110 319.8 19.0
336(10) 0.01087 319.8 18.0
327(9) 0.01136 319.8 17.1
321(9) 0.01110 319.9 16.3
346(10) 0.00933 319.9 15.5
344(10) 0.01026 319.9 14.8
348(10) 0.01053 320.0 14.1
342(10) 0.01068 320.0 13.5
299(9) 0.01199 320.0 12.9
342(10) 0.00930 320.1 12.4
327(10) 0.01036 320.1 11.9
352(10) 0.01054 320.1 11.5
339(10) 0.01046 320.1 11.1
326(10) 0.01066 320.2 10.8
321(10) 0.01014 320.2 10.4
325(10) 0.01046 320.2 10.2
312(9) 0.01185 320.3 9.9
318(9) 0.01123 320.3 9.7
324(10) 0.01053 320.3 9.4
362(11) 0.00894 320.4 9.3
336(10) 0.01065 320.4 9.1
343(10) 0.01072 320.4 8.9
318(9) 0.01145 320.5 8.8
339(10) 0.00996 320.5 8.7
321(10) 0.01089 320.5 8.6
322(9) 0.01130 320.6 8.5
317(9) 0.01166 320.6 8.4
302(9) 0.01185 320.6 8.3
304(9) 0.01159 320.6 8.2
323(10) 0.01072 320.7 8.1
310(9) 0.01167 320.7 8.0
344(10) 0.01075 320.7 7.8
345(10) 0.00981 320.8 7.7
337(10) 0.00958 320.8 7.6
319(10) 0.01081 320.8 7.5
331(9) 0.01117 320.9 7.3
305(9) 0.01229 320.9 7.2
299(9) 0.01171 320.9 7.1
348(10) 0.00946 321.0 6.9
337(10) 0.00992 321.0 6.8
314(9) 0.01165 321.0 6.7
299(9) 0.01249 321.1 6.6
316(9) 0.01115 321.1 6.6
300(9) 0.01126 321.1 6.5
359(10) 0.00949 321.2 6.5
315(9) 0.01172 321.2 6.5
340(10) 0.01105 321.2 6.5
334(10) 0.01065 321.2 6.5
320(10) 0.00970 321.3 6.6
329(10) 0.01016 321.3 6.7
345(10) 0.01082 321.3 6.9
323(9) 0.01111 321.4 7.1
323(10) 0.01062 321.4 7.4
335(10) 0.00944 321.4 7.8
354(10) 0.00950 321.5 8.3
325(9) 0.01142 321.5 9.0
338(10) 0.01093 321.5 10.2
336(10) 0.01052 321.6 12.1
357(10) 0.00917 321.6 15.4
349(10) 0.00993 321.6 21.4
346(10) 0.01071 321.7 31.4
372(10) 0.00976 321.7 46.6
424(11) 0.00825 321.7 67.3
466(12) 0.00708 321.7 91.9
501(12) 0.00674 321.8 115.6
535(12) 0.00691 321.8 131.0
523(12) 0.00671 321.8 130.7
465(12) 0.00724 321.9 115.0
415(11) 0.00789 321.9 91.1
401(11) 0.00874 321.9 66.6
390(10) 0.00949 322.0 46.0
377(10) 0.00963 322.0 30.9
373(10) 0.00931 322.0 21.0
348(10) 0.00985 322.1 15.1
355(10) 0.00964 322.1 11.7
344(10) 0.01080 322.1 9.8
347(10) 0.01017 322.2 8.6
327(10) 0.01039 322.2 7.9
329(10) 0.01073 322.2 7.3
333(10) 0.01075 322.3 6.9
348(10) 0.01062 322.3 6.5
309(9) 0.01116 322.3 6.3
306(10) 0.01087 322.3 6.1
326(10) 0.01093 322.4 5.9
333(10) 0.01099 322.4 5.8
317(9) 0.01177 322.4 5.7
309(10) 0.01096 322.5 5.6
323(10) 0.00986 322.5 5.6
315(10) 0.01082 322.5 5.5
333(9) 0.01112 322.6 5.5
343(10) 0.01075 322.6 5.5
335(10) 0.01068 322.6 5.6
297(9) 0.01122 322.7 5.6
325(10) 0.01043 322.7 5.6
319(9) 0.01175 322.7 5.7
311(9) 0.01186 322.8 5.7
317(10) 0.01080 322.8 5.8
320(10) 0.01018 322.8 5.9
323(10) 0.01072 322.9 6.0
324(9) 0.01128 322.9 6.1
340(10) 0.01106 322.9 6.2
324(10) 0.01105 322.9 6.3
321(10) 0.01012 323.0 6.4
317(10) 0.01071 323.0 6.6
344(10) 0.01088 323.0 6.7
324(9) 0.01139 323.1 6.8
338(10) 0.01046 323.1 7.0
330(10) 0.01035 323.1 7.1
350(10) 0.00966 323.2 7.3
332(9) 0.01115 323.2 7.4
344(10) 0.01054 323.2 7.6
319(10) 0.01087 323.3 7.7
338(10) 0.00981 323.3 7.9
317(10) 0.01103 323.3 8.0
354(10) 0.01051 323.4 8.2
323(10) 0.01096 323.4 8.3
320(10) 0.01065 323.4 8.5
323(10) 0.01057 323.4 8.7
344(10) 0.01007 323.5 9.0
323(9) 0.01154 323.5 9.4
319(9) 0.01124 323.5 10.1
307(9) 0.01136 323.6 11.2
319(10) 0.01107 323.6 12.9
359(10) 0.01002 323.6 15.2
367(10) 0.01010 323.7 18.0
376(10) 0.00929 323.7 21.1
409(11) 0.00827 323.7 23.6
379(10) 0.00926 323.8 24.7
406(11) 0.00845 323.8 23.9
360(10) 0.01037 323.8 21.4
349(10) 0.01012 323.9 18.2
375(11) 0.00888 323.9 15.1
352(10) 0.00969 323.9 12.6
353(10) 0.01004 324.0 10.7
330(9) 0.01121 324.0 9.4
309(9) 0.01171 324.0 8.6
355(10) 0.00928 324.0 8.0
319(10) 0.01093 324.1 7.7
322(9) 0.01151 324.1 7.5
328(9) 0.01113 324.1 7.3
333(10) 0.01004 324.2 7.2
325(10) 0.01018 324.2 7.1
313(9) 0.01139 324.2 7.0
321(9) 0.01132 324.3 7.0
319(9) 0.01175 324.3 7.0
325(10) 0.01096 324.3 7.0
304(10) 0.01032 324.4 7.0
313(10) 0.01071 324.4 7.1
303(9) 0.01218 324.4 7.2
319(9) 0.01151 324.5 7.3
301(9) 0.01161 324.5 7.4
316(10) 0.01065 324.5 7.5
346(10) 0.01003 324.5 7.7
330(9) 0.01130 324.6 7.9
324(9) 0.01113 324.6 8.1
319(10) 0.01060 324.6 8.3
329(10) 0.01023 324.7 8.6
350(10) 0.00995 324.7 8.8
331(9) 0.01127 324.7 9.1
331(10) 0.01101 324.8 9.4
319(9) 0.01129 324.8 9.6
364(10) 0.00925 324.8 9.9
344(10) 0.01018 324.9 10.1
311(9) 0.01178 324.9 10.4
309(9) 0.01165 324.9 10.5
334(10) 0.01078 325.0 10.7
338(10) 0.01044 325.0 10.8
346(10) 0.01012 325.0 10.8
343(10) 0.01084 325.1 10.8
338(10) 0.01048 325.1 10.7
343(10) 0.01046 325.1 10.6
327(10) 0.01064 325.1 10.4
320(9) 0.01117 325.2 10.2
325(9) 0.01144 325.2 9.9
328(10) 0.01059 325.2 9.6
316(10) 0.01082 325.3 9.4
320(10) 0.01070 325.3 9.1
296(9) 0.01214 325.3 8.8
302(9) 0.01216 325.4 8.5
344(10) 0.01022 325.4 8.2
331(10) 0.01040 325.4 7.9
351(10) 0.00983 325.5 7.7
317(9) 0.01139 325.5 7.5
329(9) 0.01120 325.5 7.3
333(10) 0.01054 325.5 7.1
319(10) 0.01073 325.5 6.9
334(10) 0.01035 325.5 6.8
318(9) 0.01164 325.5 6.6
301(9) 0.01241 325.5 6.5
309(9) 0.01108 325.5 6.5
317(10) 0.01010 325.4 6.4
287(9) 0.01230 325.4 6.4
289(9) 0.01301 325.4 6.4
303(9) 0.01193 325.4 6.4
322(10) 0.01069 325.4 6.4
322(10) 0.01004 325.4 6.5
320(9) 0.01129 325.3 6.5
320(9) 0.01158 325.3 6.7
365(10) 0.01023 325.3 6.8
344(10) 0.01026 325.3 6.9
315(10) 0.01088 325.3 7.1
329(10) 0.01044 325.3 7.3
332(9) 0.01117 325.3 7.5
304(9) 0.01215 325.2 7.8
320(10) 0.01089 325.2 8.1
306(10) 0.01091 325.2 8.4
330(10) 0.01063 325.2 8.7
342(10) 0.01061 325.2 9.1
279(9) 0.01345 325.2 9.5
315(10) 0.01100 325.1 9.9
336(10) 0.00982 325.1 10.4
310(10) 0.01100 325.1 10.9
322(9) 0.01161 325.1 11.4
295(9) 0.01231 325.1 11.9
332(10) 0.01027 325.1 12.5
320(10) 0.01077 325.1 13.1
323(10) 0.01087 325.0 13.7
324(9) 0.01156 325.0 14.4
340(10) 0.01052 325.0 15.0
339(10) 0.01015 325.0 15.6
324(10) 0.01038 325.0 16.2
334(10) 0.01051 325.0 16.8
344(10) 0.01080 324.9 17.4
338(10) 0.01061 324.9 17.9
343(10) 0.00976 324.9 18.3
316(10) 0.01080 324.9 18.7
329(10) 0.01043 324.9 19.0
353(10) 0.01064 324.9 19.3
334(10) 0.01024 324.8 19.4
334(10) 0.01019 324.8 19.4
348(10) 0.00962 324.8 19.3
350(10) 0.01043 324.8 19.2
340(10) 0.01093 324.8 19.0
347(10) 0.00996 324.8 18.7
340(10) 0.00988 324.8 18.4
338(10) 0.01038 324.7 18.1
330(10) 0.01107 324.7 17.8
325(9) 0.01139 324.7 17.5
365(10) 0.00928 324.7 17.2
327(10) 0.01001 324.7 17.0
325(10) 0.01055 324.7 16.9
358(10) 0.01007 324.6 16.9
343(10) 0.01085 324.6 17.1
334(10) 0.01034 324.6 17.5
340(10) 0.00941 324.6 18.4
325(10) 0.01102 324.6 19.8
329(9) 0.01116 324.6 22.0
354(10) 0.01051 324.6 25.5
315(9) 0.01140 324.5 30.5
345(10) 0.00928 324.5 37.5
361(10) 0.00946 324.5 46.5
369(10) 0.01000 324.5 57.4
352(10) 0.01052 324.5 69.5
361(10) 0.00967 324.5 81.2
389(11) 0.00853 324.4 90.1
398(11) 0.00873 324.4 93.2
381(10) 0.00981 324.4 89.7
390(10) 0.00923 324.4 81.1
382(11) 0.00883 324.4 70.2
351(10) 0.00963 324.4 58.9
378(10) 0.00913 324.4 48.3
350(10) 0.01054 324.3 39.0
369(10) 0.01001 324.3 31.4
373(10) 0.00953 324.3 25.4
339(10) 0.00994 324.3 20.9
328(10) 0.01075 324.3 17.6
325(9) 0.01139 324.3 15.2
352(10) 0.01032 324.2 13.5
336(10) 0.01025 324.2 12.3
336(10) 0.01036 324.2 11.4
346(10) 0.00996 324.2 10.7
317(9) 0.01170 324.2 10.3
326(9) 0.01122 324.2 9.9
329(10) 0.01060 324.2 9.7
339(10) 0.00987 324.1 9.5
333(10) 0.01033 324.1 9.4
347(10) 0.01082 324.1 9.3
336(10) 0.01051 324.1 9.3
336(10) 0.01014 324.1 9.4
325(10) 0.01038 324.1 9.6
306(9) 0.01208 324.0 9.8
331(9) 0.01125 324.0 10.1
332(10) 0.01050 324.0 10.5
337(10) 0.00991 324.0 11.0
363(10) 0.00950 324.0 11.6
356(10) 0.01027 324.0 12.5
335(9) 0.01120 323.9 13.5
329(10) 0.01065 323.9 14.9
323(10) 0.01057 323.9 16.6
349(10) 0.00980 323.9 18.7
336(10) 0.01077 323.9 21.2
327(9) 0.01153 323.9 24.1
332(10) 0.01048 323.9 27.5
335(10) 0.00973 323.8 31.2
335(10) 0.01074 323.8 35.0
329(9) 0.01116 323.8 38.7
336(10) 0.01106 323.8 41.8
335(10) 0.01057 323.8 43.7
355(10) 0.00927 323.8 44.0
355(10) 0.01007 323.7 42.7
356(10) 0.01046 323.7 40.2
329(9) 0.01124 323.7 36.8
316(9) 0.01113 323.7 33.1
376(11) 0.00820 323.7 29.5
336(10) 0.01068 323.7 26.2
338(10) 0.01102 323.7 23.3
340(10) 0.01082 323.6 20.8
334(10) 0.01076 323.6 18.7
353(10) 0.00934 323.6 17.0
332(10) 0.01050 323.6 15.6
323(9) 0.01136 323.6 14.5
334(10) 0.01087 323.6 13.6
332(10) 0.01032 323.5 12.9
340(10) 0.00959 323.5 12.4
334(10) 0.01050 323.5 11.9
353(10) 0.01052 323.5 11.4
316(9) 0.01156 323.5 11.0
311(10) 0.01088 323.5 10.7
327(10) 0.01010 323.5 10.5
357(10) 0.01043 323.4 10.2
362(10) 0.00997 323.4 9.9
337(10) 0.01031 323.4 9.6
344(10) 0.01006 323.4 9.3
334(10) 0.01065 323.4 9.0
311(9) 0.01206 323.4 8.8
307(9) 0.01149 323.3 8.5
320(10) 0.01045 323.3 8.3
321(10) 0.01073 323.3 8.1
335(10) 0.01051 323.3 7.9
332(9) 0.01123 323.3 7.6
350(10) 0.01008 323.3 7.4
332(10) 0.01022 323.2 7.2
347(10) 0.00978 323.2 7.0
340(10) 0.01056 323.2 6.8
338(10) 0.01095 323.2 6.6
340(10) 0.00971 323.2 6.4
312(10) 0.01091 323.2 6.3
322(10) 0.01067 323.2 6.1
329(10) 0.01102 323.1 6.0
327(9) 0.01153 323.1 5.8
316(9) 0.01126 323.1 5.7
303(9) 0.01116 323.1 5.6
323(10) 0.01050 323.1 5.4
315(9) 0.01156 323.1 5.3
315(9) 0.01168 323.0 5.2
355(10) 0.00972 323.0 5.1
338(10) 0.00950 323.0 4.9
326(10) 0.01056 323.0 4.8
358(10) 0.01041 323.0 4.7
342(10) 0.01073 323.0 4.7
337(10) 0.01017 323.0 4.6
328(10) 0.00955 322.9 4.5
329(10) 0.01034 322.9 4.4
336(10) 0.01106 322.9 4.4
330(9) 0.01127 322.9 4.3
329(10) 0.01078 322.9 4.2
328(10) 0.00991 322.9 4.2
307(9) 0.01159 322.8 4.1
310(9) 0.01205 322.8 4.1
328(10) 0.01104 322.8 4.0
318(10) 0.01060 322.8 4.0
314(10) 0.01077 322.8 4.0
310(9) 0.01152 322.8 3.9
337(9) 0.01108 322.8 3.9
321(9) 0.01141 322.7 3.9
322(10) 0.01056 322.7 3.9
330(10) 0.01005 322.7 3.8
341(10) 0.00985 322.7 3.8
310(9) 0.01198 322.7 3.8
301(9) 0.01222 322.7 3.8
333(10) 0.01025 322.6 3.8
335(10) 0.00992 322.6 3.8
333(10) 0.01033 322.6 3.8
318(9) 0.01169 322.6 3.8
321(10) 0.01105 322.6 3.8
313(10) 0.01094 322.6 3.8
344(10) 0.00986 322.6 3.8
339(10) 0.01063 322.5 3.9
352(10) 0.01053 322.5 3.9
317(9) 0.01125 322.5 3.9
333(10) 0.00999 322.5 3.9
351(10) 0.00983 322.5 4.0
318(9) 0.01148 322.5 4.0
334(9) 0.01111 322.4 4.1
351(10) 0.01005 322.4 4.1
350(10) 0.00996 322.4 4.1
360(10) 0.00958 322.4 4.2
326(9) 0.01129 322.4 4.2
325(9) 0.01141 322.4 4.3
322(9) 0.01116 322.3 4.4
337(10) 0.00955 322.3 4.4
317(10) 0.01097 322.3 4.5
320(9) 0.01124 322.3 4.6
347(10) 0.01072 322.3 4.6
336(10) 0.01020 322.3 4.7
340(10) 0.00966 322.3 4.8
341(10) 0.00996 322.2 4.9
362(10) 0.01021 322.2 5.0
327(9) 0.01115 322.2 5.1
317(10) 0.01081 322.2 5.2
329(10) 0.00954 322.2 5.4
337(10) 0.01000 322.2 5.5
318(9) 0.01150 322.1 5.6
316(9) 0.01178 322.1 5.8
331(10) 0.01034 322.1 6.0
349(10) 0.00928 322.1 6.1
335(10) 0.01040 322.1 6.4
344(10) 0.01084 322.1 6.6
312(9) 0.01186 322.1 6.8
333(10) 0.01034 322.0 7.0
346(10) 0.00942 322.0 7.3
361(10) 0.00952 322.0 7.5
326(9) 0.01139 322.0 7.8
334(9) 0.01109 322.0 8.1
326(10) 0.01082 322.0 8.5
322(10) 0.01025 321.9 8.8
329(10) 0.01033 321.9 9.1
312(9) 0.01209 321.9 9.6
311(9) 0.01158 321.9 10.0
326(10) 0.01079 321.9 10.6
347(10) 0.00968 321.9 11.1
340(10) 0.01018 321.9 11.8
369(10) 0.00998 321.8 12.5
348(10) 0.01025 321.8 13.3
355(10) 0.00968 321.8 14.2
356(10) 0.00959 321.8 15.2
337(10) 0.01037 321.8 16.4
340(10) 0.01103 321.8 17.8
332(10) 0.01057 321.7 19.5
354(10) 0.00952 321.7 21.6
356(10) 0.00954 321.7 24.3
349(10) 0.01025 321.7 28.0
390(10) 0.00954 321.7 33.2
397(11) 0.00904 321.7 40.7
415(11) 0.00799 321.7 51.2
381(10) 0.00914 321.6 65.8
411(11) 0.00879 321.6 84.9
426(11) 0.00871 321.6 108.6
455(12) 0.00740 321.6 136.0
485(12) 0.00683 321.6 164.3
513(12) 0.00684 321.6 189.8
539(12) 0.00669 321.5 210.7
536(12) 0.00692 321.5 228.0
542(13) 0.00638 321.5 242.5
550(13) 0.00574 321.5 251.1
475(12) 0.00736 321.5 248.4
494(12) 0.00747 321.5 232.8
493(12) 0.00755 321.4 209.3
454(11) 0.00770 321.4 185.2
451(12) 0.00706 321.4 165.4
457(11) 0.00783 321.4 151.5
431(11) 0.00841 321.4 142.8
448(11) 0.00837 321.4 137.1
400(11) 0.00876 321.4 131.9
430(12) 0.00727 321.3 126.7
414(11) 0.00834 321.3 122.2
445(11) 0.00834 321.3 119.4
442(11) 0.00844 321.3 118.9
439(11) 0.00783 321.3 120.5
442(12) 0.00738 321.3 123.9
445(11) 0.00761 321.2 128.0
443(11) 0.00825 321.2 131.7
465(11) 0.00765 321.2 133.7
473(12) 0.00745 321.2 133.1
469(12) 0.00724 321.2 129.4
455(12) 0.00744 321.2 122.7
422(11) 0.00871 321.2 113.9
417(11) 0.00872 321.1 103.9
387(10) 0.00923 321.1 93.4
417(11) 0.00804 321.1 83.1
382(10) 0.00915 321.1 73.4
379(10) 0.00969 321.1 64.6
373(10) 0.00944 321.1 56.7
378(11) 0.00878 321.0 49.8
354(10) 0.00969 321.0 43.8
350(10) 0.01027 321.0 38.6
389(10) 0.00956 321.0 34.2
348(10) 0.01004 321.0 30.5
357(10) 0.00917 321.0 27.4
350(10) 0.00967 321.0 24.8
365(10) 0.00958 320.9 22.6
349(10) 0.01055 320.9 20.8
349(10) 0.00974 320.9 19.2
347(10) 0.00973 320.9 17.8
357(10) 0.00980 320.9 16.6
323(9) 0.01110 320.9 15.6
334(9) 0.01125 320.8 14.7
309(9) 0.01143 320.8 13.9
312(9) 0.01112 320.8 13.2
330(10) 0.01043 320.8 12.6
322(9) 0.01128 320.8 12.0
342(10) 0.01094 320.8 11.5
369(10) 0.00939 320.8 11.0
349(10) 0.00960 320.7 10.6
336(10) 0.01050 320.7 10.2
315(9) 0.01155 320.7 9.8
328(9) 0.01131 320.7 9.5
328(10) 0.01069 320.7 9.2
328(10) 0.01036 320.7 9.1
323(10) 0.01101 320.6 8.9
333(10) 0.01100 320.6 8.7
351(10) 0.01053 320.6 8.5
331(10) 0.01056 320.6 8.3
359(11) 0.00875 320.6 8.1
332(10) 0.01065 320.6 8.0
323(9) 0.01145 320.5 7.9
339(10) 0.01092 320.5 7.8
348(10) 0.01006 320.5 7.7
357(10) 0.00922 320.5 7.6
338(10) 0.01025 320.5 7.6
337(9) 0.01111 320.5 7.6
336(10) 0.01044 320.5 7.6
325(10) 0.01054 320.4 7.6
325(10) 0.01040 320.4 7.7
366(10) 0.00935 320.4 7.8
334(10) 0.01107 320.4 8.0
305(9) 0.01166 320.4 8.2
324(10) 0.01078 320.4 8.6
317(10) 0.01056 320.3 9.0
321(10) 0.01061 320.3 9.6
316(9) 0.01176 320.3 10.3
315(9) 0.01142 320.3 11.2
312(9) 0.01118 320.3 12.3
323(10) 0.01089 320.3 13.5
359(10) 0.00973 320.3 14.9
315(9) 0.01190 320.2 16.4
347(10) 0.00994 320.2 18.0
315(9) 0.01122 320.2 19.3
350(10) 0.00952 320.2 20.4
333(10) 0.01066 320.2 20.8
314(9) 0.01180 320.2 20.6
304(9) 0.01167 320.1 19.8
340(10) 0.01013 320.1 18.5
338(10) 0.01035 320.1 17.1
341(10) 0.01054 320.1 15.5
320(9) 0.01155 320.1 14.1
328(10) 0.01047 320.1 12.8
335(10) 0.01004 320.1 11.6
320(9) 0.01110 320.0 10.7
315(9) 0.01142 320.0 9.9
331(9) 0.01120 320.0 9.3
344(10) 0.01006 320.0 8.8
319(10) 0.01070 320.0 8.4
322(9) 0.01119 320.0 8.1
351(10) 0.01051 319.9 7.9
328(9) 0.01129 319.9 7.8
341(10) 0.01043 319.9 7.7
339(10) 0.00959 319.9 7.6
335(10) 0.01022 319.9 7.6
326(9) 0.01128 319.9 7.6
335(10) 0.01090 319.8 7.6
339(10) 0.01045 319.8 7.6
321(10) 0.01036 319.8 7.6
302(9) 0.01199 319.8 7.7
345(10) 0.01086 319.8 7.8
333(10) 0.01087 319.8 7.9
341(10) 0.00982 319.9 8.0
350(10) 0.00932 320.0 8.1
357(10) 0.00957 320.1 8.2
330(9) 0.01130 320.2 8.3
342(10) 0.01076 320.3 8.5
343(10) 0.01054 320.4 8.6
354(10) 0.00925 320.5 8.8
330(10) 0.01048 320.5 8.9
319(9) 0.01169 320.6 9.1
354(10) 0.00976 320.7 9.3
352(10) 0.00978 320.8 9.5
317(10) 0.01093 320.9 9.7
350(10) 0.00951 321.0 9.9
330(9) 0.01142 321.1 10.2
315(9) 0.01129 321.2 10.4
333(10) 0.01052 321.3 10.7
340(10) 0.01002 321.3 11.0
330(10) 0.01100 321.4 11.3
364(10) 0.01023 321.5 11.6
330(10) 0.01068 321.6 11.9
330(10) 0.01033 321.7 12.3
331(10) 0.01057 321.8 12.6
352(10) 0.01046 321.9 13.0
347(10) 0.01069 322.0 13.4
347(10) 0.00966 322.1 13.8
334(10) 0.01026 322.1 14.2
350(10) 0.00977 322.2 14.7
343(10) 0.01041 322.3 15.1
326(9) 0.01143 322.4 15.6
353(10) 0.00965 322.5 16.1
332(10) 0.01056 322.6 16.5
361(10) 0.00945 322.7 17.0
329(10) 0.01072 322.8 17.5
343(10) 0.01077 322.9 17.9
375(11) 0.00903 323.0 18.4
360(10) 0.00914 323.0 18.8
335(10) 0.01010 323.1 19.3
335(10) 0.01078 323.2 19.7
348(10) 0.01074 323.3 20.2
368(10) 0.00939 323.4 20.7
356(10) 0.00927 323.5 21.2
346(10) 0.01032 323.6 21.8
374(10) 0.00979 323.7 22.4
371(10) 0.00999 323.8 23.0
372(10) 0.00938 323.8 23.7
360(11) 0.00877 323.9 24.5
343(10) 0.01015 324.0 25.3
366(10) 0.01005 324.1 26.2
360(10) 0.01015 324.2 27.2
344(10) 0.01001 324.3 28.3
366(11) 0.00866 324.4 29.6
352(10) 0.00988 324.5 30.9
343(10) 0.01074 324.6 32.5
341(10) 0.01080 324.7 34.2
345(10) 0.00995 324.7 36.2
337(10) 0.00992 324.8 38.5
361(10) 0.00922 324.9 41.3
356(10) 0.01044 325.0 44.7
396(10) 0.00915 325.1 48.9
369(10) 0.00954 325.2 54.5
386(11) 0.00876 325.3 62.0
421(11) 0.00830 325.4 72.1
427(11) 0.00870 325.5 85.9
449(11) 0.00806 325.5 103.9
454(11) 0.00772 325.6 126.9
449(11) 0.00759 325.7 154.8
502(12) 0.00683 325.8 186.4
511(12) 0.00729 325.9 219.3
519(12) 0.00674 326.0 248.0
562(13) 0.00601 326.1 265.8
567(13) 0.00590 326.2 267.0
536(12) 0.00664 326.3 252.2
536(12) 0.00693 326.3 227.5
521(12) 0.00668 326.4 200.3
478(12) 0.00700 326.5 175.6
460(12) 0.00754 326.6 156.1
477(12) 0.00727 326.7 143.0
471(11) 0.00788 326.8 136.3
438(11) 0.00799 326.9 135.4
459(12) 0.00740 327.0 139.2
489(12) 0.00722 327.1 146.2
482(11) 0.00762 327.2 154.8
508(12) 0.00736 327.2 162.8
475(12) 0.00715 327.3 168.2
479(12) 0.00678 327.4 169.1
452(11) 0.00776 327.5 164.7
425(11) 0.00845 327.6 155.6
475(11) 0.00783 327.7 143.3
472(12) 0.00726 327.8 129.4
423(11) 0.00788 327.9 115.5
437(11) 0.00800 328.0 102.3
427(11) 0.00857 328.0 90.5
399(10) 0.00931 328.1 80.2
443(11) 0.00795 328.2 71.5
407(11) 0.00789 328.3 64.3
383(11) 0.00901 328.4 58.5
385(10) 0.00973 328.5 53.9
387(10) 0.00950 328.6 50.4
405(11) 0.00855 328.7 47.7
389(11) 0.00855 328.8 45.7
382(10) 0.00932 328.9 44.2
391(10) 0.00955 328.9 43.2
389(10) 0.00938 329.0 42.5
372(10) 0.00951 329.1 42.2
387(11) 0.00843 329.2 42.1
426(11) 0.00773 329.3 42.2
393(10) 0.00946 329.4 42.5
354(10) 0.01024 329.5 42.9
391(11) 0.00881 329.6 43.5
369(10) 0.00938 329.7 44.2
377(11) 0.00904 329.7 45.1
399(10) 0.00932 329.8 46.2
406(11) 0.00905 329.9 47.5
381(11) 0.00903 330.0 49.0
391(11) 0.00858 330.1 51.0
401(11) 0.00862 330.2 53.5
391(10) 0.00951 330.3 56.7
369(10) 0.00968 330.4 60.9
381(10) 0.00927 330.5 66.2
409(11) 0.00804 330.6 72.8
401(11) 0.00862 330.6 80.7
416(11) 0.00906 330.7 89.8
416(11) 0.00851 330.8 99.5
432(11) 0.00785 330.9 108.8
420(11) 0.00813 331.0 115.9
420(11) 0.00868 331.1 119.0
428(11) 0.00865 331.2 117.0
406(11) 0.00841 331.3 110.9
413(11) 0.00806 331.4 102.4
403(11) 0.00873 331.4 93.6
399(10) 0.00908 331.5 85.5
390(10) 0.00947 331.6 79.0
412(11) 0.00839 331.7 74.2
405(11) 0.00806 331.8 71.2
380(11) 0.00894 331.9 69.8
369(10) 0.01004 332.0 69.7
388(10) 0.00953 332.1 70.5
388(11) 0.00893 332.2 71.7
402(11) 0.00836 332.2 72.5
428(11) 0.00811 332.3 72.3
427(11) 0.00865 332.4 70.7
411(11) 0.00905 332.5 67.6
394(11) 0.00884 332.6 63.2
372(11) 0.00893 332.7 58.2
401(11) 0.00871 332.8 53.0
365(10) 0.01020 332.9 48.0
347(10) 0.01055 333.0 43.3
395(11) 0.00831 333.1 39.2
377(11) 0.00820 333.1 35.6
381(10) 0.00910 333.2 32.4
384(10) 0.00970 333.3 29.7
383(10) 0.00969 333.4 27.5
367(10) 0.00924 333.5 25.5
351(10) 0.00943 333.6 23.8
362(10) 0.00968 333.7 22.4
368(10) 0.01019 333.8 21.1
367(10) 0.00991 333.9 20.0
349(10) 0.01012 333.9 19.0
346(10) 0.00943 334.0 18.1
336(10) 0.00992 334.1 17.2
326(9) 0.01122 334.2 16.5
355(10) 0.01011 334.3 15.8
349(10) 0.01021 334.4 15.1
365(10) 0.00909 334.5 14.5
350(10) 0.00992 334.6 14.0
356(10) 0.01044 334.7 13.5
345(10) 0.01040 334.8 13.0
349(10) 0.00992 334.8 12.5
340(10) 0.00997 334.9 12.1
338(10) 0.01040 335.0 11.7
337(10) 0.01098 335.1 11.3
350(10) 0.01052 335.2 11.0
345(10) 0.00971 335.3 10.6
350(10) 0.00984 335.4 10.3
331(10) 0.01092 335.5 10.0
349(10) 0.01067 335.6 9.8
340(10) 0.01050 335.6 9.5
341(10) 0.00991 335.7 9.3
351(10) 0.00985 335.8 9.1
345(10) 0.01037 335.9 8.9
360(10) 0.01036 336.0 8.7
337(10) 0.01049 336.1 8.5
310(9) 0.01120 336.2 8.3
324(10) 0.01103 336.3 8.1
376(10) 0.00958 336.4 8.0
353(10) 0.01046 336.4 7.8
347(10) 0.01030 336.5 7.7
353(10) 0.00953 336.6 7.5
343(10) 0.01048 336.7 7.4
365(10) 0.01022 336.8 7.3
352(10) 0.01048 336.9 7.2
350(10) 0.01006 337.0 7.1
332(10) 0.00984 337.1 7.0
346(10) 0.01003 337.2 6.9
350(10) 0.01074 337.3 6.8
331(10) 0.01101 337.3 6.7
353(10) 0.00972 337.4 6.6
362(11) 0.00868 337.5 6.5
348(10) 0.00962 337.6 6.4
336(10) 0.01106 337.7 6.4
329(9) 0.01116 337.8 6.3
354(10) 0.00989 337.9 6.2
335(10) 0.00961 338.0 6.2
340(10) 0.01035 338.1 6.1
360(10) 0.01040 338.1 6.1
367(10) 0.01009 338.2 6.0
362(10) 0.00984 338.3 6.0
357(11) 0.00906 338.4 5.9
346(10) 0.01018 338.5 5.9
344(10) 0.01086 338.6 5.8
332(10) 0.01081 338.7 5.8
357(10) 0.00957 338.8 5.8
351(10) 0.00996 338.9 5.7
350(10) 0.01003 339.0 5.7
341(10) 0.01098 339.0 5.7
323(9) 0.01116 339.1 5.6
334(10) 0.01050 339.2 5.6
329(10) 0.01023 339.3 5.6
365(10) 0.00942 339.4 5.6
336(10) 0.01098 339.5 5.6
358(10) 0.00986 339.6 5.5
324(10) 0.01025 339.7 5.5
320(10) 0.01056 339.8 5.5
329(10) 0.01101 339.8 5.5
351(10) 0.01050 339.9 5.5
305(9) 0.01121 340.0 5.5
330(10) 0.01016 340.1 5.5
330(10) 0.01008 340.2 5.5
315(9) 0.01154 340.3 5.5
329(9) 0.01123 340.4 5.5
336(10) 0.01033 340.5 5.5
330(10) 0.01016 340.6 5.5
345(10) 0.00963 340.7 5.6
356(10) 0.01018 340.7 5.6
341(10) 0.01089 340.8 5.6
320(9) 0.01119 340.9 5.6
358(10) 0.00919 341.0 5.7
339(10) 0.01011 341.1 5.7
336(10) 0.01074 341.2 5.7
332(9) 0.01139 341.3 5.8
329(10) 0.01090 341.4 5.8
355(11) 0.00888 341.5 5.8
339(10) 0.01029 341.5 5.9
359(10) 0.01022 341.6 5.9
349(10) 0.01059 341.7 6.0
365(10) 0.00973 341.8 6.0
339(10) 0.00968 341.9 6.1
341(10) 0.00974 342.0 6.1
335(10) 0.01085 342.1 6.2
351(10) 0.01031 342.2 6.3
344(10) 0.00963 342.3 6.3
330(10) 0.00947 342.3 6.4
319(10) 0.01084 342.4 6.5
344(10) 0.01085 342.5 6.6
333(10) 0.01090 342.6 6.7
344(10) 0.01024 342.7 6.8
360(11) 0.00896 342.8 6.9
327(10) 0.01046 342.9 7.0
338(10) 0.01085 342.9 7.1
356(10) 0.01014 342.9 7.2
350(10) 0.00988 342.9 7.3
364(10) 0.00928 342.9 7.4
383(11) 0.00896 343.0 7.6
347(10) 0.01065 343.0 7.7
348(10) 0.01050 343.0 7.9
361(10) 0.00979 343.0 8.0
342(10) 0.01013 343.0 8.2
362(10) 0.00977 343.1 8.4
370(10) 0.01009 343.1 8.6
350(10) 0.01038 343.1 8.8
329(10) 0.01021 343.1 9.0
349(10) 0.00945 343.1 9.3
347(10) 0.01049 343.2 9.5
364(10) 0.01020 343.2 9.8
362(10) 0.00987 343.2 10.1
370(10) 0.00928 343.2 10.4
345(10) 0.01030 343.2 10.7
350(10) 0.01025 343.3 11.1
344(10) 0.01072 343.3 11.5
351(10) 0.01007 343.3 12.0
370(10) 0.00927 343.3 12.5
379(11) 0.00904 343.3 13.0
355(10) 0.01018 343.4 13.6
365(10) 0.01005 343.4 14.2
348(10) 0.01014 343.4 15.0
352(10) 0.00918 343.4 15.7
370(10) 0.00916 343.4 16.6
354(10) 0.01021 343.5 17.5
325(9) 0.01142 343.5 18.5
358(10) 0.00958 343.5 19.6
357(10) 0.00921 343.5 20.7
380(11) 0.00906 343.5 21.8
339(10) 0.01081 343.6 23.0
372(10) 0.00999 343.6 24.2
363(10) 0.00972 343.6 25.4
380(11) 0.00851 343.6 26.5
364(10) 0.00979 343.6 27.4
379(10) 0.00963 343.7 28.2
374(10) 0.00968 343.7 28.9
373(10) 0.00913 343.7 29.4
360(10) 0.00917 343.7 29.7
391(11) 0.00885 343.7 30.1
361(10) 0.01033 343.8 30.4
384(10) 0.00955 343.8 30.7
343(10) 0.01025 343.8 31.0
333(10) 0.01006 343.8 31.5
382(11) 0.00887 343.8 32.1
369(10) 0.01013 343.9 32.9
394(11) 0.00904 343.9 33.8
382(11) 0.00851 343.9 34.9
335(10) 0.01006 343.9 36.2
373(11) 0.00895 343.9 37.7
379(10) 0.00975 344.0 39.3
387(10) 0.00915 344.0 41.2
358(10) 0.00947 344.0 43.3
370(11) 0.00901 344.0 45.7
362(10) 0.00959 344.0 48.3
398(10) 0.00927 344.1 51.1
363(10) 0.01007 344.1 54.3
396(11) 0.00871 344.1 57.7
405(11) 0.00847 344.1 61.3
422(11) 0.00841 344.1 65.2
397(10) 0.00931 344.2 69.4
409(11) 0.00875 344.2 73.9
392(11) 0.00841 344.2 78.7
394(11) 0.00889 344.2 83.7
419(11) 0.00856 344.2 89.0
439(11) 0.00840 344.3 94.5
462(11) 0.00758 344.3 100.2
426(11) 0.00804 344.3 106.1
439(11) 0.00793 344.3 112.0
422(11) 0.00859 344.3 118.0
421(11) 0.00886 344.4 123.9
467(12) 0.00732 344.4 129.5
483(12) 0.00677 344.4 134.8
446(11) 0.00778 344.4 139.6
457(11) 0.00798 344.4 143.7
473(11) 0.00790 344.5 146.9
483(12) 0.00711 344.5 149.1
482(12) 0.00672 344.5 150.2
477(12) 0.00710 344.5 150.1
458(11) 0.00800 344.5 148.9
442(11) 0.00831 344.6 146.4
430(11) 0.00793 344.6 143.0
451(12) 0.00720 344.6 138.7
462(12) 0.00746 344.6 133.7
462(11) 0.00799 344.6 128.1
449(11) 0.00822 344.7 122.3
423(11) 0.00847 344.7 116.3
473(12) 0.00666 344.7 110.2
436(11) 0.00814 344.7 104.1
414(11) 0.00895 344.7 98.1
406(11) 0.00890 344.8 92.3
399(11) 0.00865 344.8 86.6
376(11) 0.00850 344.8 81.2
381(11) 0.00894 344.8 76.1
395(10) 0.00938 344.8 71.2
396(10) 0.00952 344.9 66.5
412(11) 0.00825 344.9 62.2
391(11) 0.00864 344.9 58.1
408(11) 0.00848 344.9 54.4
392(10) 0.00947 345.0 50.9
348(10) 0.01072 345.0 47.7
402(11) 0.00848 345.0 44.7
371(10) 0.00937 345.0 42.1
375(10) 0.00919 345.0 39.6
384(10) 0.00976 345.1 37.4
381(10) 0.00946 345.1 35.5
351(10) 0.01008 345.1 34.0
362(10) 0.00954 345.1 33.5
375(10) 0.00926 345.1 35.9
393(10) 0.00944 345.2 44.7
406(11) 0.00848 345.2 63.2
432(11) 0.00774 345.2 89.0
421(11) 0.00829 345.2 110.5
424(11) 0.00842 345.2 112.7
404(10) 0.00931 345.3 93.0
421(11) 0.00817 345.3 64.8
404(11) 0.00840 345.3 41.7
382(10) 0.00914 345.3 28.5
348(10) 0.01037 345.3 22.6
365(10) 0.01009 345.4 20.2
375(10) 0.00913 345.4 19.2
387(11) 0.00831 345.4 18.4
362(10) 0.00965 345.4 17.9
375(10) 0.00950 345.4 17.4
392(10) 0.00957 345.5 16.9
405(11) 0.00864 345.5 16.5
353(10) 0.00978 345.5 16.1
370(10) 0.00929 345.5 15.8
381(10) 0.00954 345.5 15.5
354(10) 0.01048 345.6 15.3
361(10) 0.00927 345.6 15.0
332(10) 0.01004 345.6 14.8
353(10) 0.00968 345.6 14.7
372(10) 0.00974 345.6 14.5
353(10) 0.01053 345.7 14.4
327(10) 0.01086 345.7 14.3
375(11) 0.00831 345.7 14.2
339(10) 0.01016 345.7 14.1
387(10) 0.00949 345.7 14.1
358(10) 0.01040 345.8 14.1
350(10) 0.00993 345.8 14.1
365(11) 0.00876 345.8 14.1
385(11) 0.00883 345.8 14.2
364(10) 0.01025 345.8 14.2
350(10) 0.01033 345.9 14.4
352(10) 0.00989 345.9 14.5
371(10) 0.00908 345.9 14.7
391(11) 0.00903 345.9 15.0
346(10) 0.01078 345.9 15.3
328(9) 0.01129 346.0 15.7
357(10) 0.00970 346.0 16.2
346(10) 0.00996 346.0 16.8
358(10) 0.00979 346.0 17.5
358(10) 0.01042 346.0 18.5
377(10) 0.00950 346.1 19.7
406(11) 0.00832 346.1 21.4
384(11) 0.00886 346.1 23.9
378(10) 0.00916 346.1 27.6
374(10) 0.01001 346.1 33.4
411(11) 0.00862 346.2 41.8
437(11) 0.00775 346.2 53.9
454(12) 0.00750 346.2 70.0
472(12) 0.00727 346.2 90.2
493(12) 0.00755 346.2 113.2
544(13) 0.00636 346.3 135.9
564(13) 0.00590 346.3 153.0
545(13) 0.00619 346.3 158.4
546(12) 0.00659 346.3 149.9
498(12) 0.00746 346.3 131.1
466(12) 0.00713 346.4 108.6
463(12) 0.00726 346.4 86.8
404(11) 0.00886 346.4 68.5
410(11) 0.00894 346.4 54.4
408(11) 0.00902 346.4 44.4
384(11) 0.00898 346.5 37.9
392(11) 0.00829 346.5 34.1
384(11) 0.00900 346.5 32.2
377(10) 0.00964 346.5 31.5
412(10) 0.00912 346.5 31.8
376(10) 0.00917 346.6 32.6
366(11) 0.00881 346.6 34.0
381(10) 0.00916 346.6 35.7
379(10) 0.00976 346.6 37.7
393(10) 0.00947 346.6 40.0
387(11) 0.00899 346.7 42.3
401(11) 0.00803 346.7 44.6
403(11) 0.00866 346.7 46.6
424(11) 0.00858 346.7 48.3
398(10) 0.00914 346.7 49.3
377(10) 0.00914 346.8 49.6
371(11) 0.00891 346.8 49.2
386(10) 0.00907 346.8 48.1
404(10) 0.00915 346.8 46.7
410(11) 0.00889 346.8 44.9
405(11) 0.00865 346.9 43.0
383(11) 0.00873 346.9 41.1
395(11) 0.00900 346.9 39.3
413(10) 0.00911 346.9 37.7
390(11) 0.00907 347.0 36.2
363(10) 0.00965 347.0 35.0
380(11) 0.00872 347.0 33.9
375(10) 0.00938 347.0 33.0
368(10) 0.00996 347.0 32.3
382(10) 0.00930 347.1 31.7
387(11) 0.00851 347.1 31.3
385(11) 0.00858 347.1 31.0
402(11) 0.00869 347.1 30.7
401(10) 0.00929 347.1 30.6
381(10) 0.00924 347.2 30.4
404(11) 0.00814 347.2 30.4
370(10) 0.00907 347.2 30.3
385(10) 0.00907 347.2 30.4
343(10) 0.01085 347.2 30.4
385(10) 0.00915 347.3 30.5
378(10) 0.00910 347.3 30.7
389(11) 0.00897 347.3 31.0
374(10) 0.00954 347.3 31.4
392(10) 0.00954 347.3 32.1
392(11) 0.00903 347.4 33.1
407(11) 0.00826 347.4 34.5
411(11) 0.00819 347.4 36.6
388(10) 0.00930 347.4 39.6
381(10) 0.00969 347.4 43.7
410(11) 0.00829 347.5 49.5
388(11) 0.00893 347.5 57.2
426(11) 0.00824 347.5 67.2
456(11) 0.00793 347.5 79.7
471(11) 0.00795 347.5 94.7
519(12) 0.00660 347.6 111.8
527(13) 0.00618 347.6 129.7
551(13) 0.00634 347.6 146.5
516(12) 0.00722 347.6 158.8
538(12) 0.00687 347.6 163.4
526(12) 0.00652 347.7 158.7
524(13) 0.00619 347.7 146.1
476(12) 0.00743 347.7 128.7
446(11) 0.00828 347.7 109.9
437(11) 0.00852 347.7 91.8
418(11) 0.00821 347.8 75.6
382(11) 0.00843 347.8 61.9
399(11) 0.00874 347.8 50.8
421(11) 0.00892 347.8 41.9
391(10) 0.00924 347.8 35.1
376(10) 0.00915 347.9 29.8
368(11) 0.00874 347.9 25.8
382(11) 0.00884 347.9 22.8
392(10) 0.00927 347.9 20.4
386(10) 0.00968 347.9 18.6
395(11) 0.00870 348.0 17.1
326(10) 0.01003 348.0 15.8
358(10) 0.00961 348.0 14.8
362(10) 0.01026 348.0 13.9
351(10) 0.01013 348.0 13.1
347(10) 0.00989 348.1 12.5
372(11) 0.00894 348.1 11.9
370(10) 0.00932 348.1 11.4
339(10) 0.01094 348.1 11.0
401(11) 0.00886 348.1 10.6
371(10) 0.00921 348.2 10.3
332(10) 0.01028 348.2 10.1
361(10) 0.00924 348.2 9.9
360(10) 0.01036 348.2 9.8
353(10) 0.00991 348.2 9.8
346(10) 0.00973 348.3 9.7
371(11) 0.00905 348.3 9.8
366(10) 0.00947 348.3 9.9
345(10) 0.01079 348.3 10.0
357(10) 0.00972 348.3 10.2
380(11) 0.00891 348.4 10.5
374(10) 0.00945 348.4 10.7
358(10) 0.00992 348.4 11.0
344(10) 0.01096 348.4 11.2
354(10) 0.00977 348.4 11.3
369(11) 0.00888 348.5 11.4
347(10) 0.01031 348.5 11.3
373(10) 0.00973 348.5 11.2
372(10) 0.01008 348.5 10.9
377(10) 0.00928 348.5 10.5
368(11) 0.00874 348.6 10.1
351(10) 0.00974 348.6 9.7
354(10) 0.01042 348.6 9.2
337(9) 0.01111 348.6 8.8
340(10) 0.01053 348.6 8.5
373(11) 0.00870 348.6 8.1
337(10) 0.01035 348.5 7.8
296(9) 0.01267 348.5 7.6
362(10) 0.01026 348.5 7.4
335(10) 0.01082 348.5 7.2
352(10) 0.00924 348.4 7.0
365(10) 0.00969 348.4 6.9
366(10) 0.01005 348.4 6.8
341(10) 0.01088 348.4 6.8
333(10) 0.01040 348.4 6.7
335(10) 0.00924 348.3 6.7
345(10) 0.00973 348.3 6.7
365(10) 0.00999 348.3 6.7
371(10) 0.00992 348.3 6.8
356(10) 0.00985 348.3 6.8
338(10) 0.00986 348.2 6.9
353(10) 0.00942 348.2 7.0
336(10) 0.01100 348.2 7.1
359(10) 0.00995 348.2 7.2
363(10) 0.00920 348.2 7.4
338(10) 0.00962 348.1 7.6
354(10) 0.00966 348.1 7.7
362(10) 0.01023 348.1 8.0
367(10) 0.00949 348.1 8.2
362(10) 0.00934 348.1 8.5
358(10) 0.00921 348.0 8.8
353(10) 0.00986 348.0 9.2
371(10) 0.01001 348.0 9.6
366(10) 0.00982 348.0 10.0
361(10) 0.00956 348.0 10.5
366(10) 0.00942 347.9 11.1
383(11) 0.00906 347.9 11.8
368(10) 0.01000 347.9 12.5
361(10) 0.00986 347.9 13.4
357(10) 0.00960 347.9 14.4
353(10) 0.00997 347.8 15.6
372(10) 0.00962 347.8 17.0
360(10) 0.01027 347.8 18.7
397(11) 0.00857 347.8 20.8
397(11) 0.00840 347.7 23.5
391(11) 0.00889 347.7 26.9
362(10) 0.00983 347.7 31.3
387(10) 0.00959 347.7 37.0
411(11) 0.00837 347.7 44.4
395(11) 0.00811 347.6 53.8
391(11) 0.00860 347.6 65.5
430(11) 0.00841 347.6 79.9
438(11) 0.00861 347.6 96.8
458(11) 0.00774 347.6 115.9
492(13) 0.00636 347.5 136.4
481(12) 0.00701 347.5 156.5
497(12) 0.00742 347.5 173.3
518(12) 0.00711 347.5 183.3
543(12) 0.00651 347.5 184.1
510(12) 0.00653 347.4 175.4
505(12) 0.00704 347.4 159.7
469(11) 0.00800 347.4 140.3
428(11) 0.00862 347.4 120.3
445(11) 0.00767 347.4 101.5
377(11) 0.00900 347.3 84.9
401(11) 0.00869 347.3 71.0
415(11) 0.00893 347.3 59.7
404(11) 0.00899 347.3 51.0
365(10) 0.00969 347.3 44.4
374(11) 0.00890 347.2 39.6
389(10) 0.00913 347.2 36.3
362(10) 0.01032 347.2 34.1
355(10) 0.01023 347.2 32.9
369(11) 0.00902 347.2 32.3
375(11) 0.00903 347.1 32.2
363(10) 0.00971 347.1 32.5
414(11) 0.00889 347.1 33.1
396(10) 0.00924 347.1 33.7
383(11) 0.00895 347.1 34.2
388(11) 0.00864 347.0 34.5
372(10) 0.00923 347.0 34.5
384(10) 0.00961 347.0 34.0
344(10) 0.01042 347.0 33.1
375(11) 0.00887 346.9 31.7
337(10) 0.01028 346.9 30.0
368(10) 0.00987 346.9 28.1
353(10) 0.01054 346.9 26.1
357(10) 0.00986 346.9 24.1
348(10) 0.00980 346.8 22.2
375(10) 0.00917 346.8 20.3
370(10) 0.00950 346.8 18.6
337(10) 0.01098 346.8 17.0
343(10) 0.01014 346.8 15.6
348(10) 0.00974 346.7 14.3
359(10) 0.00930 346.7 13.2
338(10) 0.01058 346.7 12.2
334(9) 0.01122 346.7 11.3
351(10) 0.00985 346.7 10.6
359(10) 0.00937 346.6 9.9
341(10) 0.01024 346.6 9.3
346(10) 0.01055 346.6 8.8
367(10) 0.01010 346.6 8.4
355(10) 0.00968 346.6 8.0
340(10) 0.00963 346.5 7.6
328(10) 0.01060 346.5 7.3
349(10) 0.01029 346.5 7.1
355(10) 0.01045 346.5 6.8
346(10) 0.01002 346.5 6.6
331(10) 0.00967 346.4 6.4
350(10) 0.00935 346.4 6.2
345(10) 0.01079 346.4 6.1
340(10) 0.01085 346.4 6.0
348(10) 0.01008 346.4 5.8
347(10) 0.00908 346.3 5.7
335(10) 0.01049 346.3 5.6
329(9) 0.01112 346.3 5.5
336(10) 0.01093 346.3 5.4
363(10) 0.00964 346.2 5.4
355(10) 0.00915 346.2 5.3
363(10) 0.00943 346.2 5.2
349(10) 0.01069 346.2 5.2
380(10) 0.00976 346.2 5.1
367(10) 0.00918 346.1 5.1
357(10) 0.00924 346.1 5.0
345(10) 0.01001 346.1 5.0
331(9) 0.01121 346.1 5.0
324(9) 0.01120 346.1 4.9
343(10) 0.00976 346.0 4.9
346(10) 0.00954 346.0 4.9
367(10) 0.00931 346.0 4.9
370(10) 0.01004 346.0 4.9
344(10) 0.01032 346.0 4.9
368(11) 0.00895 345.9 4.9
346(10) 0.00984 345.9 4.9
351(10) 0.00977 345.9 4.9
364(10) 0.01026 345.9 4.9
355(10) 0.00989 345.9 4.9
344(10) 0.01001 345.8 4.9
350(10) 0.00965 345.8 5.0
361(10) 0.00959 345.8 5.0
352(10) 0.01044 345.8 5.0
355(10) 0.00974 345.8 5.0
345(10) 0.00959 345.7 5.1
346(10) 0.01044 345.7 5.1
370(10) 0.01002 345.8 5.2
368(10) 0.01005 345.8 5.2
384(11) 0.00868 345.8 5.2
344(10) 0.00973 345.8 5.3
339(10) 0.01025 345.9 5.4
331(10) 0.01103 345.9 5.4
369(10) 0.00995 345.9 5.5
358(10) 0.00953 345.9 5.5
333(10) 0.00986 345.9 5.6
332(10) 0.01097 346.0 5.7
318(9) 0.01170 346.0 5.8
349(10) 0.01046 346.0 5.9
364(10) 0.00942 346.0 5.9
377(11) 0.00854 346.0 6.0
348(10) 0.01038 346.1 6.1
353(10) 0.01022 346.1 6.2
346(10) 0.01073 346.1 6.4
332(10) 0.01102 346.1 6.5
352(10) 0.00937 346.1 6.6
344(10) 0.01002 346.2 6.7
361(10) 0.01042 346.2 6.9
362(10) 0.01028 346.2 7.0
393(11) 0.00886 346.2 7.2
372(11) 0.00882 346.3 7.4
358(10) 0.00956 346.3 7.5
355(10) 0.01040 346.3 7.7
370(10) 0.00977 346.3 7.9
387(11) 0.00902 346.3 8.1
339(10) 0.00977 346.4 8.3
353(10) 0.00943 346.4 8.6
353(10) 0.01031 346.4 8.8
327(9) 0.01142 346.4 9.1
360(10) 0.00965 346.4 9.4
356(10) 0.00922 346.5 9.7
363(10) 0.00949 346.5 10.0
343(10) 0.01080 346.5 10.4
352(10) 0.01003 346.5 10.7
358(10) 0.00981 346.5 11.1
363(10) 0.00940 346.6 11.6
353(10) 0.00992 346.6 12.1
358(10) 0.01031 346.6 12.6
375(10) 0.00924 346.6 13.1
347(10) 0.01000 346.6 13.7
352(10) 0.01002 346.7 14.4
355(10) 0.00993 346.7 15.1
375(10) 0.00996 346.7 15.8
354(10) 0.01003 346.7 16.7
359(10) 0.00954 346.8 17.5
362(10) 0.00959 346.8 18.5
365(10) 0.00995 346.8 19.5
364(10) 0.01025 346.8 20.7
364(10) 0.00936 346.8 21.9
380(11) 0.00864 346.9 23.2
381(11) 0.00904 346.9 24.5
388(10) 0.00918 346.9 26.0
360(10) 0.01034 346.9 27.6
391(11) 0.00888 346.9 29.3
391(11) 0.00810 347.0 31.1
377(10) 0.00913 347.0 33.0
381(10) 0.00983 347.0 35.0
372(10) 0.01002 347.0 37.1
370(10) 0.00946 347.0 39.2
345(10) 0.00993 347.1 41.5
380(10) 0.00919 347.1 43.8
387(10) 0.00943 347.1 46.1
384(10) 0.00976 347.1 48.4
364(10) 0.00945 347.2 50.7
380(11) 0.00838 347.2 52.9
401(11) 0.00862 347.2 55.0
409(11) 0.00905 347.2 56.9
410(11) 0.00903 347.2 58.6
399(11) 0.00870 347.3 60.1
390(11) 0.00845 347.3 61.2
390(11) 0.00907 347.3 62.0
403(10) 0.00928 347.3 62.6
394(10) 0.00926 347.3 62.7
393(11) 0.00875 347.4 62.5
394(11) 0.00838 347.4 61.9
359(10) 0.00951 347.4 61.0
395(10) 0.00942 347.4 59.9
397(10) 0.00936 347.4 58.5
369(10) 0.00932 347.5 56.9
372(11) 0.00887 347.5 55.3
388(11) 0.00872 347.5 53.5
387(10) 0.00964 347.5 51.7
372(10) 0.00956 347.6 50.0
379(11) 0.00901 347.6 48.2
387(11) 0.00879 347.6 46.6
372(10) 0.00943 347.6 45.1
353(10) 0.01048 347.6 43.7
385(10) 0.00940 347.7 42.5
388(11) 0.00888 347.7 41.4
392(11) 0.00883 347.7 40.6
400(10) 0.00909 347.7 40.0
410(11) 0.00898 347.7 39.7
425(11) 0.00813 347.8 39.6
413(11) 0.00825 347.8 39.8
396(11) 0.00871 347.8 40.3
401(11) 0.00889 347.8 41.1
398(10) 0.00936 347.8 42.2
374(10) 0.00951 347.9 43.6
404(11) 0.00823 347.9 45.4
436(11) 0.00782 347.9 47.3
431(11) 0.00846 347.9 49.5
435(11) 0.00854 347.9 51.8
418(11) 0.00815 348.0 53.9
406(11) 0.00822 348.0 55.8
413(11) 0.00854 348.0 57.2
410(11) 0.00899 348.0 58.0
450(11) 0.00826 348.1 58.0
418(11) 0.00791 348.1 57.4
386(11) 0.00841 348.1 56.1
409(11) 0.00848 348.1 54.4
412(11) 0.00907 348.1 52.5
436(11) 0.00843 348.2 50.7
417(11) 0.00838 348.2 48.9
405(11) 0.00813 348.2 47.4
436(11) 0.00774 348.2 46.2
413(11) 0.00895 348.2 45.4
404(10) 0.00910 348.3 45.0
409(11) 0.00868 348.3 45.0
413(11) 0.00805 348.3 45.5
436(11) 0.00790 348.3 46.3
381(10) 0.00981 348.3 47.4
432(11) 0.00837 348.4 48.4
420(11) 0.00840 348.4 49.2
432(11) 0.00785 348.4 49.4
414(11) 0.00858 348.4 49.4
390(10) 0.00951 348.5 49.1
426(11) 0.00846 348.5 49.0
424(11) 0.00814 348.5 48.9
417(11) 0.00776 348.5 49.1
392(10) 0.00911 348.5 49.3
400(10) 0.00930 348.6 49.7
417(11) 0.00855 348.6 50.1
404(11) 0.00852 348.6 50.6
400(11) 0.00851 348.6 50.9
414(11) 0.00856 348.6 51.2
427(11) 0.00864 348.7 51.4
406(11) 0.00884 348.7 51.4
400(11) 0.00853 348.7 51.3
415(11) 0.00796 348.7 51.1
414(11) 0.00840 348.7 50.7
398(10) 0.00929 348.8 50.1
363(10) 0.00976 348.8 49.5
400(11) 0.00837 348.8 48.7
403(11) 0.00859 348.8 47.9
406(11) 0.00869 348.8 46.9
402(10) 0.00935 348.9 45.9
381(10) 0.00926 348.9 44.8
403(11) 0.00831 348.9 43.7
405(11) 0.00854 348.9 42.5
398(11) 0.00890 349.0 41.3
400(10) 0.00936 349.0 40.0
412(11) 0.00858 349.0 38.8
430(11) 0.00757 349.0 37.5
425(11) 0.00828 349.0 36.3
415(11) 0.00878 349.1 35.1
391(10) 0.00948 349.1 33.9
434(11) 0.00775 349.1 32.7
399(11) 0.00815 349.1 31.6
418(11) 0.00844 349.1 30.5
382(10) 0.00936 349.2 29.4
362(10) 0.01027 349.2 28.3
358(10) 0.00986 349.2 27.3
370(11) 0.00858 349.2 26.3
379(11) 0.00900 349.2 25.4
370(10) 0.01010 349.3 24.5
391(10) 0.00949 349.3 23.6
394(11) 0.00862 349.3 22.8
379(11) 0.00835 349.3 22.0
377(11) 0.00903 349.4 21.2
377(10) 0.00985 349.4 20.5
385(10) 0.00964 349.4 19.8
363(10) 0.00969 349.4 19.1
363(10) 0.00909 349.4 18.5
368(10) 0.00924 349.5 17.9
340(10) 0.01081 349.5 17.3
376(10) 0.00974 349.5 16.8
367(10) 0.00947 349.5 16.2
359(10) 0.00948 349.5 15.7
387(11) 0.00874 349.6 15.3
344(10) 0.01081 349.6 14.8
364(10) 0.01035 349.6 14.4
357(10) 0.00982 349.6 14.0
365(10) 0.00933 349.6 13.6
362(10) 0.00954 349.7 13.3
346(10) 0.01091 349.7 12.9
352(10) 0.00964 349.7 12.6
352(10) 0.00979 349.7 12.3
354(10) 0.00963 349.8 12.0
348(10) 0.01041 349.8 11.7
349(10) 0.01060 349.8 11.4
366(10) 0.00960 349.8 11.2
376(11) 0.00891 349.8 11.0
359(10) 0.00937 349.9 10.7
364(10) 0.00965 349.9 10.5
375(10) 0.00979 349.9 10.3
372(10) 0.00927 349.9 10.1
354(10) 0.00957 349.9 10.0
359(10) 0.00937 350.0 9.8
346(10) 0.01041 350.0 9.7
389(10) 0.00963 350.0 9.5
343(10) 0.00985 350.0 9.4
402(11) 0.00828 350.0 9.3
356(10) 0.01023 350.1 9.2
370(10) 0.00985 350.1 9.1
375(10) 0.00992 350.1 9.0
358(10) 0.00966 350.1 9.0
349(10) 0.00969 350.1 9.0
379(10) 0.00919 350.2 8.9
338(10) 0.01104 350.2 8.9
374(10) 0.00996 350.2 8.9
361(10) 0.00947 350.2 9.0
380(11) 0.00852 350.3 9.0
379(10) 0.00928 350.3 9.1
347(10) 0.01079 350.3 9.1
355(10) 0.01056 350.3 9.3
378(10) 0.00945 350.3 9.4
355(10) 0.00929 350.4 9.5
374(10) 0.00931 350.4 9.7
369(10) 0.01006 350.4 9.9
367(10) 0.01010 350.4 10.0
351(10) 0.00980 350.4 10.2
366(11) 0.00891 350.5 10.4
356(10) 0.00971 350.5 10.6
331(9) 0.01120 350.5 10.8
377(10) 0.00973 350.5 11.0
339(10) 0.01035 350.5 11.2
374(11) 0.00888 350.6 11.4
395(11) 0.00864 350.6 11.7
362(10) 0.01027 350.6 11.9
383(10) 0.00930 350.6 12.3
375(10) 0.00944 350.7 12.6
362(10) 0.00943 350.7 13.0
348(10) 0.01003 350.7 13.4
370(10) 0.01004 350.7 13.8
371(10) 0.00958 350.7 14.2
363(10) 0.00948 350.8 14.7
349(10) 0.00996 350.8 15.2
382(10) 0.00926 350.8 15.8
374(10) 0.00990 350.8 16.4
366(10) 0.00977 350.8 17.2
373(10) 0.00915 350.9 18.0
397(11) 0.00838 350.9 19.0
366(10) 0.00966 350.9 20.2
395(10) 0.00939 350.9 21.7
372(10) 0.00949 350.9 23.4
366(10) 0.00917 351.0 25.4
382(10) 0.00911 351.0 27.6
368(10) 0.00979 351.0 30.0
393(10) 0.00945 351.0 32.6
396(11) 0.00828 351.1 35.2
381(11) 0.00858 351.1 37.5
384(11) 0.00863 351.1 39.4
363(10) 0.00992 351.1 40.3
398(10) 0.00937 351.1 40.3
404(11) 0.00839 351.2 39.2
382(11) 0.00875 351.2 37.2
387(11) 0.00859 351.2 34.7
392(10) 0.00936 351.2 31.8
385(10) 0.00958 351.2 29.0
380(11) 0.00862 351.3 26.3
387(11) 0.00835 351.3 23.8
392(11) 0.00862 351.3 21.7
367(10) 0.00982 351.3 19.8
327(9) 0.01137 351.3 18.2
352(10) 0.00951 351.4 16.9
344(10) 0.00951 351.4 15.8
338(10) 0.01040 351.4 15.0
378(10) 0.00977 351.4 14.3
353(10) 0.01022 351.4 13.8
363(10) 0.00974 351.5 13.4
354(10) 0.00954 351.5 13.1
360(10) 0.00980 351.5 13.0
379(10) 0.00972 351.5 12.9
354(10) 0.01011 351.6 12.9
393(11) 0.00861 351.6 12.9
354(10) 0.00959 351.6 13.0
360(10) 0.00936 351.6 13.1
393(10) 0.00942 351.6 13.3
372(10) 0.00949 351.7 13.6
345(10) 0.01024 351.7 13.9
374(11) 0.00890 351.7 14.2
362(10) 0.00930 351.7 14.7
375(10) 0.00989 351.7 15.1
357(10) 0.01014 351.8 15.7
368(10) 0.00924 351.8 16.3
401(11) 0.00848 351.8 17.0
401(11) 0.00866 351.8 17.8
386(10) 0.00973 351.8 18.8
382(10) 0.00918 351.9 19.9
382(11) 0.00872 351.9 21.2
362(10) 0.00926 351.9 22.7
381(10) 0.00949 351.9 24.6
369(10) 0.01010 352.0 26.8
380(10) 0.00939 352.0 29.5
383(11) 0.00899 352.0 32.7
420(11) 0.00810 352.0 36.6
393(11) 0.00906 352.0 41.1
407(10) 0.00915 352.1 46.5
407(11) 0.00840 352.1 52.8
407(11) 0.00819 352.1 59.9
428(11) 0.00781 352.1 68.0
446(11) 0.00822 352.1 76.8
430(11) 0.00862 352.2 86.0
452(11) 0.00782 352.2 95.2
462(12) 0.00731 352.2 103.6
537(12) 0.00640 352.2 110.3
481(12) 0.00754 352.2 114.3
520(12) 0.00716 352.3 115.0
495(12) 0.00708 352.3 112.2
459(12) 0.00719 352.3 106.6
467(12) 0.00719 352.3 99.0
462(11) 0.00789 352.4 90.5
431(11) 0.00868 352.4 81.9
425(11) 0.00848 352.4 73.5
419(11) 0.00762 352.4 65.9
380(11) 0.00907 352.4 59.1
411(11) 0.00891 352.5 53.2
379(10) 0.00967 352.5 48.2
412(11) 0.00821 352.5 43.9
397(11) 0.00804 352.5 40.4
383(11) 0.00904 352.5 37.6
397(10) 0.00940 352.6 35.2
386(10) 0.00951 352.6 33.4
368(11) 0.00895 352.6 31.8
360(10) 0.00908 352.6 30.6
376(11) 0.00901 352.6 29.6
378(10) 0.00980 352.7 28.8
396(10) 0.00907 352.7 28.1
383(11) 0.00904 352.7 27.5
360(10) 0.00950 352.7 27.0
362(10) 0.00978 352.7 26.5
392(10) 0.00944 352.8 26.1
392(10) 0.00917 352.8 25.7
385(11) 0.00880 352.8 25.4
391(11) 0.00833 352.8 25.0
388(11) 0.00874 352.9 24.7
346(10) 0.01073 352.9 24.4
389(10) 0.00911 352.9 24.1
386(11) 0.00872 352.9 23.8
370(11) 0.00897 352.9 23.5
373(10) 0.00953 353.0 23.2
368(10) 0.01009 353.0 23.0
369(10) 0.00980 353.0 22.7
388(11) 0.00903 353.0 22.4
359(10) 0.00971 353.0 22.1
361(10) 0.01002 353.1 21.8
384(10) 0.00966 353.1 21.5
395(11) 0.00869 353.1 21.2
390(11) 0.00861 353.1 20.9
368(10) 0.00950 353.1 20.6
386(10) 0.00927 353.2 20.3
368(10) 0.01009 353.2 20.0
396(11) 0.00873 353.2 19.7
365(10) 0.00939 353.2 19.3
372(10) 0.00910 353.3 19.0
369(10) 0.00970 353.3 18.7
368(10) 0.01014 353.3 18.4
366(10) 0.00915 353.3 18.1
363(11) 0.00894 353.3 17.8
362(10) 0.00960 353.4 17.5
378(10) 0.00975 353.4 17.2
373(10) 0.00997 353.4 16.9
381(11) 0.00902 353.4 16.6
358(10) 0.00918 353.4 16.3
396(11) 0.00868 353.5 16.0
366(10) 0.01013 353.5 15.7
355(10) 0.01046 353.5 15.4
369(10) 0.00939 353.5 15.2
366(11) 0.00877 353.5 14.9
374(11) 0.00906 353.6 14.7
388(10) 0.00959 353.6 14.4
377(10) 0.00973 353.6 14.1
336(10) 0.01012 353.6 13.9
354(11) 0.00871 353.6 13.7
350(10) 0.00973 353.7 13.5
359(10) 0.01044 353.7 13.3
357(10) 0.01010 353.7 13.1
350(10) 0.01023 353.7 13.0
366(11) 0.00893 353.8 12.8
365(10) 0.00947 353.8 12.7
351(10) 0.01077 353.8 12.5
350(10) 0.01026 353.8 12.4
343(10) 0.00991 353.8 12.3
362(10) 0.00911 353.9 12.2
340(10) 0.01030 353.9 12.1
369(10) 0.01014 353.9 12.0
348(10) 0.01009 353.9 11.9
370(10) 0.00936 353.9 11.9
381(11) 0.00895 354.0 11.8
380(10) 0.00934 354.0 11.8
378(10) 0.00988 354.0 11.8
354(10) 0.01009 354.0 11.8
365(10) 0.00932 354.0 11.8
373(10) 0.00911 354.1 11.8
361(10) 0.00981 354.1 11.8
371(10) 0.01001 354.1 11.9
368(10) 0.00934 354.1 11.9
383(11) 0.00882 354.2 12.0
357(10) 0.01012 354.2 12.1
360(10) 0.01010 354.2 12.2
396(10) 0.00927 354.2 12.3
369(10) 0.00944 354.2 12.4
369(11) 0.00885 354.3 12.5
366(10) 0.00930 354.3 12.6
345(10) 0.01046 354.3 12.7
358(10) 0.01036 354.3 12.9
372(10) 0.00936 354.3 13.0
353(10) 0.00927 354.4 13.1
358(10) 0.00942 354.4 13.3
380(10) 0.00971 354.4 13.4
381(10) 0.00958 354.4 13.6
360(10) 0.00972 354.4 13.7
385(11) 0.00844 354.5 13.9
388(11) 0.00894 354.5 14.1
374(10) 0.00988 354.5 14.2
377(10) 0.00977 354.5 14.3
377(10) 0.00913 354.5 14.4
381(11) 0.00825 354.6 14.5
382(10) 0.00919 354.6 14.6
375(10) 0.00996 354.6 14.7
387(10) 0.00937 354.6 14.7
338(10) 0.01048 354.6 14.7
369(11) 0.00899 354.7 14.7
395(11) 0.00891 354.7 14.6
400(10) 0.00932 354.7 14.6
359(10) 0.01042 354.7 14.5
365(10) 0.00931 354.8 14.3
347(10) 0.00961 354.8 14.2
372(10) 0.00921 354.8 14.0
366(10) 0.01015 354.8 13.8
356(10) 0.01025 354.8 13.5
355(10) 0.00962 354.9 13.3
366(11) 0.00906 354.9 13.0
362(10) 0.00934 354.9 12.8
393(10) 0.00941 354.9 12.5
388(11) 0.00906 354.9 12.2
346(10) 0.01042 355.0 11.9
401(11) 0.00862 355.0 11.6
395(11) 0.00903 355.0 11.3
356(10) 0.01049 355.0 11.0
359(10) 0.00995 355.0 10.7
349(10) 0.00960 355.1 10.4
339(10) 0.01021 355.1 10.1
372(10) 0.00940 355.1 9.9
334(10) 0.01105 355.1 9.6
360(10) 0.00959 355.1 9.3
380(11) 0.00879 355.2 9.1
373(10) 0.00925 355.2 8.9
386(11) 0.00874 355.2 8.6
357(10) 0.01032 355.2 8.4
359(10) 0.00913 355.2 8.2
349(10) 0.00929 355.3 8.0
372(11) 0.00891 355.3 7.8
353(10) 0.01026 355.3 7.7
360(10) 0.01038 355.3 7.5
358(10) 0.00985 355.3 7.4
351(10) 0.00972 355.4 7.2
353(10) 0.01027 355.4 7.1
361(10) 0.01016 355.4 7.0
378(10) 0.00987 355.4 6.9
351(10) 0.00953 355.4 6.8
352(10) 0.00918 355.5 6.7
380(11) 0.00869 355.5 6.6
366(10) 0.00989 355.5 6.6
357(10) 0.01044 355.5 6.5
323(10) 0.01103 355.5 6.5
371(11) 0.00852 355.6 6.5
342(10) 0.01017 355.6 6.5
365(10) 0.01007 355.6 6.5
362(10) 0.01020 355.6 6.6
364(10) 0.00934 355.6 6.7
371(11) 0.00859 355.7 6.8
361(10) 0.00958 355.7 6.9
368(10) 0.01022 355.7 7.1
364(10) 0.00992 355.7 7.4
366(10) 0.00933 355.7 7.8
383(11) 0.00861 355.8 8.4
356(10) 0.00976 355.8 9.2
391(10) 0.00956 355.8 10.5
376(10) 0.00968 355.8 12.4
394(11) 0.00870 355.9 15.0
377(11) 0.00907 355.9 18.6
404(11) 0.00860 355.9 23.2
384(10) 0.00965 355.9 28.7
402(11) 0.00906 355.9 34.5
399(11) 0.00870 356.0 39.8
439(12) 0.00744 356.0 43.1
409(11) 0.00887 356.0 43.2
408(10) 0.00917 356.0 40.1
400(11) 0.00885 356.0 34.9
365(10) 0.00914 356.1 29.0
382(11) 0.00882 356.1 23.6
364(10) 0.01003 356.1 18.9
378(10) 0.00985 356.1 15.3
382(11) 0.00871 356.1 12.6
334(10) 0.01055 356.2 10.7
391(11) 0.00882 356.2 9.4
372(10) 0.00991 356.2 8.6
348(10) 0.01064 356.2 8.0
365(10) 0.00948 356.2 7.6
347(10) 0.00952 356.3 7.3
349(10) 0.01027 356.3 7.1
373(10) 0.00973 356.3 7.0
347(10) 0.01065 356.3 6.9
373(11) 0.00896 356.3 6.8
376(11) 0.00903 356.4 6.8
383(11) 0.00905 356.4 6.8
342(10) 0.01067 356.4 6.8
363(10) 0.01019 356.4 6.8
313(9) 0.01132 356.4 6.9
350(10) 0.00938 356.5 7.0
377(10) 0.00931 356.5 7.1
374(10) 0.00995 356.5 7.2
337(10) 0.01102 356.5 7.3
356(10) 0.00967 356.5 7.5
362(11) 0.00873 356.6 7.6
344(10) 0.01043 356.6 7.8
349(10) 0.01035 356.6 8.0
380(10) 0.00980 356.6 8.3
386(10) 0.00914 356.6 8.5
389(11) 0.00859 356.7 8.8
378(10) 0.00955 356.7 9.1
364(10) 0.01010 356.7 9.5
386(10) 0.00949 356.7 9.8
369(10) 0.00951 356.7 10.2
377(11) 0.00892 356.8 10.6
362(10) 0.00975 356.8 11.1
367(10) 0.01006 356.8 11.6
362(10) 0.01016 356.8 12.1
346(10) 0.00985 356.8 12.7
368(10) 0.00932 356.9 13.3
358(10) 0.00997 356.9 13.9
334(9) 0.01112 356.9 14.5
361(10) 0.01000 356.9 15.3
392(11) 0.00873 357.0 16.0
349(10) 0.00923 357.0 16.7
340(10) 0.01031 357.0 17.4
383(10) 0.00974 357.0 18.1
373(10) 0.00975 357.0 18.8
395(11) 0.00876 357.1 19.4
407(11) 0.00819 357.1 20.0
380(10) 0.00930 357.1 20.6
375(10) 0.00991 357.1 21.1
360(10) 0.00986 357.1 21.5
386(11) 0.00865 357.2 21.9
374(11) 0.00896 357.2 22.2
374(10) 0.00928 357.2 22.4
372(10) 0.00991 357.2 22.5
381(11) 0.00862 357.2 22.7
406(11) 0.00815 357.3 22.7
413(11) 0.00815 357.3 22.8
387(10) 0.00924 357.3 22.8
381(10) 0.00984 357.3 22.8
391(11) 0.00867 357.3 22.8
376(11) 0.00906 357.4 22.7
386(10) 0.00924 357.4 22.6
354(10) 0.01033 357.4 22.6
362(10) 0.01020 357.4 22.5
376(11) 0.00906 357.4 22.3
345(10) 0.00960 357.5 22.2
382(11) 0.00905 357.5 22.1
376(10) 0.00976 357.5 21.9
378(10) 0.00997 357.5 21.7
396(11) 0.00878 357.5 21.6
410(11) 0.00789 357.6 21.4
412(11) 0.00834 357.6 21.3
384(10) 0.00959 357.6 21.2
393(10) 0.00949 357.6 21.1
414(11) 0.00832 357.6 21.1
377(11) 0.00833 357.7 21.1
373(10) 0.00911 357.7 21.2
404(11) 0.00903 357.7 21.3
362(10) 0.01033 357.7 21.6
370(10) 0.00919 357.7 22.0
363(10) 0.00918 357.8 22.6
375(10) 0.00925 357.8 23.4
360(10) 0.01026 357.8 24.5
344(10) 0.01063 357.8 25.9
391(11) 0.00889 357.8 28.0
416(11) 0.00816 357.9 30.6
413(11) 0.00844 357.9 34.0
365(10) 0.01016 357.9 38.3
371(10) 0.00979 357.9 43.7
379(11) 0.00887 357.9 50.0
391(11) 0.00869 358.0 57.3
407(11) 0.00865 358.0 65.4
428(11) 0.00871 358.0 73.6
421(11) 0.00841 358.0 81.1
424(11) 0.00825 358.1 86.5
431(11) 0.00788 358.1 88.9
414(11) 0.00851 358.1 87.6
400(10) 0.00933 358.1 83.1
421(11) 0.00839 358.1 76.7
397(11) 0.00860 358.2 69.7
415(11) 0.00787 358.2 63.1
404(11) 0.00860 358.2 57.3
425(11) 0.00880 358.2 52.8
427(11) 0.00807 358.2 49.6
425(11) 0.00776 358.3 47.8
406(11) 0.00854 358.3 47.3
361(10) 0.00998 358.3 47.9
415(11) 0.00884 358.3 49.5
420(11) 0.00823 358.3 51.9
410(11) 0.00818 358.4 54.8
400(11) 0.00874 358.4 57.8
417(11) 0.00857 358.4 60.4
411(10) 0.00909 358.4 62.4
405(11) 0.00825 358.4 63.3
402(11) 0.00832 358.5 63.1
402(11) 0.00861 358.5 62.0
391(10) 0.00931 358.5 60.4
433(11) 0.00861 358.5 58.5
421(11) 0.00822 358.5 56.8
410(11) 0.00767 358.6 55.2
408(11) 0.00822 358.6 53.9
383(10) 0.00959 358.6 52.8
408(11) 0.00903 358.6 51.9
409(11) 0.00865 358.6 51.1
415(12) 0.00747 358.7 50.2
374(10) 0.00944 358.7 49.3
420(11) 0.00875 358.7 48.2
374(10) 0.00979 358.7 46.8
392(11) 0.00889 358.7 45.3
430(12) 0.00755 358.8 43.5
371(10) 0.00954 358.8 41.5
380(10) 0.00971 358.8 39.4
384(10) 0.00958 358.8 37.3
369(10) 0.00921 358.8 35.1
381(11) 0.00845 358.9 32.9
362(10) 0.00952 358.9 30.8
378(10) 0.00983 358.9 28.7
383(10) 0.00942 358.9 26.8
370(10) 0.00923 358.9 24.9
361(10) 0.00945 359.0 23.2
364(10) 0.00943 359.0 21.6
373(10) 0.00996 359.0 20.2
355(10) 0.01001 359.0 18.8
352(10) 0.01002 359.0 17.6
352(10) 0.00983 359.1 16.4
367(10) 0.00935 359.1 15.4
393(10) 0.00941 359.1 14.5
383(10) 0.00931 359.1 13.6
373(11) 0.00894 359.2 12.9
380(11) 0.00885 359.2 12.2
388(10) 0.00939 359.2 11.5
361(10) 0.01012 359.2 11.0
367(10) 0.00940 359.2 10.5
365(10) 0.00934 359.3 10.0
331(10) 0.01045 359.3 9.6
341(10) 0.01045 359.3 9.2
362(10) 0.01021 359.3 8.9
373(10) 0.00920 359.3 8.6
367(11) 0.00884 359.4 8.3
344(10) 0.01030 359.4 8.0
382(10) 0.00947 359.4 7.8
365(10) 0.01023 359.4 7.6
380(10) 0.00908 359.4 7.4
360(10) 0.00937 359.5 7.2
383(11) 0.00899 359.5 7.0
371(10) 0.00973 359.5 6.9
376(10) 0.00978 359.5 6.7
353(10) 0.00982 359.5 6.6
334(10) 0.01013 359.6 6.5
366(10) 0.00942 359.6 6.4
394(10) 0.00932 359.6 6.3
365(10) 0.01012 359.6 6.2
349(10) 0.00976 359.6 6.1
376(11) 0.00847 359.7 6.0
357(10) 0.00967 359.7 6.0
361(10) 0.01032 359.7 5.9
374(10) 0.00979 359.7 5.8
401(11) 0.00878 359.7 5.8
355(10) 0.00958 359.8 5.7
367(10) 0.00953 359.8 5.8
352(10) 0.01067 359.8 5.8
361(10) 0.01008 359.8 5.7
342(10) 0.01019 359.8 5.7
355(10) 0.00917 359.9 5.7
367(10) 0.00930 359.9 5.7
379(10) 0.00974 359.9 5.9
343(10) 0.01065 359.9 5.9
360(10) 0.00975 359.9 6.0
350(10) 0.01000 360.0 6.0
382(11) 0.00882 360.0 6.0
355(10) 0.01049 360.0 6.0
349(10) 0.01045 360.0 6.0
372(10) 0.00938 360.0 6.1
350(10) 0.00983 360.1 6.1
328(10) 0.01051 360.1 6.2
353(10) 0.01062 360.1 6.2
345(10) 0.01044 360.1 6.3
364(10) 0.00943 360.1 6.4
372(11) 0.00892 360.1 6.4
359(10) 0.00968 360.0 6.5
361(10) 0.01029 360.0 6.6
373(10) 0.00935 359.9 6.7
358(10) 0.00963 359.9 6.8
346(10) 0.01023 359.9 7.0
361(10) 0.01020 359.8 7.1
342(10) 0.01088 359.8 7.3
345(10) 0.01011 359.7 7.4
370(11) 0.00902 359.7 7.6
367(10) 0.00961 359.6 7.8
346(10) 0.01063 359.6 8.0
361(10) 0.01027 359.5 8.2
365(10) 0.00970 359.5 8.5
360(10) 0.00946 359.5 8.7
356(10) 0.00970 359.4 9.0
366(10) 0.01012 359.4 9.3
368(10) 0.01016 359.3 9.6
359(10) 0.00932 359.3 9.9
349(10) 0.00934 359.2 10.2
355(10) 0.00998 359.2 10.6
375(10) 0.00963 359.1 11.0
389(10) 0.00972 359.1 11.4
390(11) 0.00882 359.1 11.8
380(11) 0.00826 359.0 12.2
360(10) 0.00991 359.0 12.7
375(10) 0.00994 358.9 13.1
357(10) 0.01042 358.9 13.6
358(10) 0.00964 358.8 14.0
364(11) 0.00900 358.8 14.5
336(10) 0.01070 358.7 14.9
393(10) 0.00944 358.7 15.4
350(10) 0.01043 358.7 15.8
354(10) 0.00915 358.6 16.1
357(11) 0.00897 358.6 16.5
361(10) 0.00987 358.5 16.8
406(10) 0.00916 358.5 17.0
380(10) 0.00970 358.4 17.3
350(10) 0.00994 358.4 17.5
342(10) 0.00957 358.3 17.7
373(10) 0.00911 358.3 17.8
380(10) 0.00979 358.3 18.0
382(10) 0.00938 358.2 18.2
367(10) 0.00946 358.2 18.4
379(10) 0.00924 358.1 18.7
362(10) 0.00987 358.1 19.1
368(10) 0.01003 358.0 19.6
361(10) 0.01017 358.0 20.2
404(11) 0.00834 358.0 21.0
374(10) 0.00937 357.9 22.0
399(11) 0.00888 357.9 23.3
389(10) 0.00951 357.8 24.7
406(11) 0.00856 357.8 26.2
384(11) 0.00887 357.7 27.8
384(11) 0.00879 357.7 29.2
411(11) 0.00851 357.6 30.5
392(10) 0.00938 357.6 31.4
407(11) 0.00848 357.6 32.1
383(11) 0.00867 357.5 32.6
378(10) 0.00915 357.5 33.4
377(10) 0.00933 357.4 34.8
419(11) 0.00887 357.4 37.2
413(11) 0.00847 357.3 41.5
433(11) 0.00762 357.3 48.6
444(11) 0.00770 357.2 60.1
441(11) 0.00804 357.2 77.8
471(11) 0.00789 357.2 103.5
539(12) 0.00642 357.1 138.1
562(13) 0.00597 357.1 181.0
588(13) 0.00585 357.0 228.2
621(13) 0.00592 357.0 271.4
663(13) 0.00556 356.9 297.6
673(14) 0.00516 356.9 295.0
588(13) 0.00570 356.8 264.6
540(12) 0.00666 356.8 218.7
479(11) 0.00777 356.8 170.3
452(11) 0.00804 356.7 127.2
421(11) 0.00814 356.7 93.0
413(11) 0.00793 356.6 68.3
438(11) 0.00779 356.6 51.6
445(11) 0.00817 356.5 40.9
398(10) 0.00936 356.5 34.3
383(10) 0.00929 356.4 30.1
401(11) 0.00816 356.4 27.4
391(10) 0.00909 356.4 25.6
408(10) 0.00918 356.3 24.2
399(10) 0.00922 356.3 23.3
389(11) 0.00887 356.2 22.6
378(11) 0.00874 356.2 22.1
406(11) 0.00823 356.1 21.8
374(10) 0.00997 356.1 21.6
374(10) 0.00966 356.1 21.5
407(11) 0.00828 356.0 21.5
403(11) 0.00804 356.0 21.6
363(10) 0.00962 355.9 21.8
373(10) 0.00994 355.9 22.1
378(10) 0.00933 355.8 22.4
378(11) 0.00889 355.8 22.8
354(10) 0.00968 355.7 23.3
371(10) 0.00932 355.7 23.8
375(10) 0.00992 355.7 24.4
363(10) 0.00958 355.6 25.1
386(11) 0.00874 355.6 25.8
369(10) 0.00916 355.5 26.5
368(10) 0.00985 355.5 27.4
373(10) 0.00998 355.4 28.2
423(11) 0.00816 355.4 29.2
394(11) 0.00865 355.3 30.2
392(11) 0.00879 355.3 31.3
368(10) 0.00977 355.3 32.4
393(10) 0.00948 355.2 33.6
351(10) 0.00980 355.2 34.8
374(11) 0.00874 355.1 36.2
414(11) 0.00836 355.1 37.6
403(11) 0.00881 355.0 39.0
384(10) 0.00966 355.0 40.6
427(11) 0.00781 354.9 42.2
402(11) 0.00824 354.9 44.0
413(11) 0.00842 354.9 45.8
418(11) 0.00876 354.8 47.8
401(10) 0.00926 354.8 49.9
418(11) 0.00818 354.7 52.1
415(11) 0.00767 354.7 54.5
412(11) 0.00812 354.6 57.2
429(11) 0.00857 354.6 60.0
431(11) 0.00860 354.5 63.2
404(11) 0.00889 354.5 66.7
440(12) 0.00733 354.5 70.6
420(11) 0.00838 354.4 74.9
416(11) 0.00892 354.4 79.6
460(11) 0.00802 354.3 84.9
430(11) 0.00837 354.3 90.7
470(12) 0.00694 354.2 97.1
492(12) 0.00698 354.2 104.0
497(12) 0.00752 354.2 111.4
519(12) 0.00705 354.1 119.1
515(12) 0.00694 354.1 127.0
564(13) 0.00558 354.0 134.6
524(12) 0.00655 354.0 141.5
508(12) 0.00737 353.9 147.1
548(12) 0.00667 353.9 150.9
522(12) 0.00671 353.8 152.3
519(12) 0.00663 353.8 151.2
549(13) 0.00632 353.8 147.6
510(12) 0.00731 353.7 141.9
493(12) 0.00746 353.7 134.8
468(12) 0.00745 353.6 126.8
460(12) 0.00724 353.6 118.4
459(11) 0.00757 353.5 110.0
439(11) 0.00847 353.5 101.9
431(11) 0.00820 353.4 94.2
439(11) 0.00781 353.4 87.1
458(12) 0.00752 353.4 80.5
449(11) 0.00795 353.3 74.5
429(11) 0.00868 353.3 69.1
426(11) 0.00814 353.2 64.2
426(11) 0.00798 353.2 59.8
438(11) 0.00790 353.1 55.8
398(10) 0.00932 353.1 52.2
413(11) 0.00905 353.0 49.0
392(11) 0.00872 353.0 46.1
409(11) 0.00808 353.0 43.5
403(11) 0.00858 352.9 41.1
385(10) 0.00952 352.9 38.9
369(10) 0.01011 352.8 37.0
364(10) 0.00946 352.8 35.2
390(11) 0.00848 352.7 33.5
405(11) 0.00834 352.7 32.0
403(10) 0.00914 352.6 30.6
388(10) 0.00938 352.6 29.3
388(11) 0.00864 352.6 28.1
383(11) 0.00854 352.5 27.0
390(11) 0.00888 352.5 26.0
381(10) 0.00963 352.4 25.1
385(10) 0.00949 352.4 24.2
357(10) 0.00984 352.3 23.5
354(10) 0.00915 352.3 22.8
394(11) 0.00827 352.2 22.2
376(10) 0.00967 352.2 21.6
365(10) 0.00994 352.2 21.1
393(11) 0.00868 352.1 20.7
383(11) 0.00860 352.1 20.3
377(10) 0.00933 352.0 20.0
387(10) 0.00948 352.0 19.8
388(10) 0.00941 351.9 19.6
369(10) 0.00957 351.9 19.5
355(10) 0.00909 351.9 19.4
362(10) 0.00939 351.8 19.4
371(10) 0.01010 351.8 19.5
380(10) 0.00933 351.7 19.6
372(10) 0.00926 351.7 19.8
365(10) 0.00924 351.6 20.1
406(11) 0.00822 351.6 20.5
373(10) 0.00986 351.5 20.9
406(11) 0.00881 351.5 21.5
416(11) 0.00819 351.5 22.2
364(10) 0.00976 351.4 23.1
398(11) 0.00860 351.4 24.2
390(10) 0.00957 351.3 25.5
385(11) 0.00907 351.3 27.1
376(10) 0.00916 351.2 29.0
395(11) 0.00848 351.2 31.3
432(11) 0.00788 351.1 34.0
389(10) 0.00948 351.1 37.3
415(11) 0.00848 351.1 41.2
409(11) 0.00847 351.0 45.7
452(11) 0.00756 351.0 51.0
441(11) 0.00807 350.9 57.2
433(11) 0.00858 350.9 64.2
466(12) 0.00721 350.8 72.1
469(12) 0.00711 350.8 80.8
427(11) 0.00824 350.7 90.2
492(12) 0.00727 350.7 100.0
482(11) 0.00767 350.7 109.9
507(12) 0.00682 350.6 119.2
487(12) 0.00685 350.6 127.2
505(12) 0.00666 350.5 133.2
504(12) 0.00709 350.5 136.3
508(12) 0.00726 350.4 136.3
565(13) 0.00612 350.4 133.2
549(13) 0.00584 350.3 127.4
487(12) 0.00738 350.3 119.5
519(12) 0.00701 350.3 110.3
488(12) 0.00743 350.2 100.5
486(12) 0.00704 350.2 90.6
454(12) 0.00707 350.1 81.0
421(11) 0.00805 350.1 72.1
413(11) 0.00893 350.0 64.0
427(11) 0.00854 350.0 56.7
398(11) 0.00855 350.0 50.3
401(11) 0.00840 349.9 44.7
407(11) 0.00871 349.9 39.9
407(10) 0.00917 349.8 35.7
404(10) 0.00911 349.8 32.2
385(10) 0.00926 349.7 29.3
393(11) 0.00847 349.7 26.8
384(10) 0.00934 349.6 24.7
386(10) 0.00964 349.6 23.0
379(10) 0.00940 349.6 21.5
340(10) 0.01031 349.5 20.3
378(11) 0.00882 349.5 19.3
375(10) 0.00970 349.4 18.5
410(11) 0.00903 349.4 17.8
383(10) 0.00942 349.3 17.3
377(10) 0.00916 349.3 16.8
383(11) 0.00861 349.2 16.4
365(10) 0.00922 349.2 16.1
358(10) 0.01044 349.2 15.8
385(11) 0.00907 349.1 15.6
393(11) 0.00885 349.1 15.3
395(11) 0.00823 349.0 15.1
361(10) 0.00977 349.0 14.8
380(10) 0.00979 348.9 14.5
363(10) 0.00973 348.9 14.1
351(10) 0.00979 348.8 13.7
359(10) 0.00935 348.8 13.3
377(10) 0.00957 348.8 12.9
393(10) 0.00945 348.7 12.4
360(10) 0.00965 348.7 12.0
347(10) 0.00980 348.6 11.6
357(10) 0.00952 348.6 11.1
351(10) 0.01038 348.5 10.7
334(10) 0.01098 348.5 10.3
364(11) 0.00900 348.4 9.9
357(10) 0.00925 348.4 9.6
355(10) 0.00966 348.4 9.2
345(10) 0.01039 348.3 8.8
358(10) 0.01050 348.3 8.5
322(9) 0.01127 348.2 8.2
374(11) 0.00856 348.2 7.9
337(10) 0.01056 348.1 7.6
347(10) 0.01059 348.1 7.4
379(10) 0.00970 348.1 7.1
350(10) 0.00991 348.0 6.9
344(10) 0.00970 348.0 6.7
353(10) 0.00994 347.9 6.5
373(10) 0.00977 347.9 6.3
357(10) 0.01032 347.8 6.1
334(10) 0.01036 347.8 6.0
358(11) 0.00852 347.7 5.8
354(10) 0.00957 347.7 5.7
370(10) 0.01000 347.7 5.6
356(10) 0.01021 347.6 5.5
327(10) 0.01070 347.6 5.4
345(10) 0.00940 347.5 5.3
341(10) 0.01014 347.5 5.2
334(9) 0.01113 347.4 5.1
350(10) 0.01043 347.4 5.1
372(10) 0.00935 347.3 5.0
355(10) 0.00958 347.3 5.0
362(10) 0.00993 347.3 4.9
361(10) 0.01032 347.2 4.9
365(10) 0.00979 347.2 4.8
386(11) 0.00882 347.1 4.8
375(10) 0.00914 347.1 4.7
352(10) 0.00971 347.0 4.7
343(10) 0.01081 347.0 4.6
325(9) 0.01112 346.9 4.6
349(10) 0.00963 346.9 4.5
352(10) 0.00963 346.9 4.4
346(10) 0.01003 346.8 4.4
339(10) 0.01094 346.8 4.3
343(10) 0.01054 346.7 4.3
360(10) 0.00970 346.7 4.2
344(10) 0.01007 346.6 4.1
348(10) 0.01018 346.6 4.1
364(10) 0.01014 346.5 4.0
331(10) 0.01078 346.5 4.0
336(10) 0.01004 346.5 3.9
362(10) 0.00966 346.4 3.9
350(10) 0.01050 346.4 3.9
323(9) 0.01148 346.3 3.8
378(10) 0.00908 346.3 3.8
358(10) 0.00948 346.2 3.8
372(10) 0.00909 346.2 3.7
366(10) 0.01005 346.1 3.7
364(10) 0.01003 346.1 3.7
363(10) 0.00934 346.1 3.7
343(10) 0.00963 346.0 3.7
334(10) 0.01031 346.0 3.7
338(10) 0.01088 345.9 3.7
342(10) 0.01078 345.9 3.6
354(10) 0.01006 345.8 3.6
363(10) 0.00911 345.8 3.6
356(10) 0.00969 345.8 3.6
360(10) 0.00994 345.7 3.6
341(10) 0.01086 345.8 3.6
335(10) 0.01079 345.8 3.6
350(10) 0.00939 345.8 3.7
354(10) 0.00978 345.8 3.7
342(10) 0.01091 345.9 3.7
337(10) 0.01106 345.9 3.7
375(10) 0.00913 345.9 3.7
348(10) 0.00928 346.0 3.7
346(10) 0.00988 346.0 3.7
380(10) 0.00978 346.0 3.7
335(10) 0.01071 346.0 3.8
353(10) 0.00971 346.1 3.8
335(10) 0.01003 346.1 3.8
352(10) 0.00966 346.1 3.8
333(9) 0.01111 346.1 3.9
375(10) 0.00971 346.2 3.9
364(10) 0.00961 346.2 3.9
382(11) 0.00868 346.2 4.0
337(10) 0.01064 346.2 4.0
367(10) 0.01008 346.3 4.1
366(10) 0.00980 346.3 4.1
326(10) 0.01082 346.3 4.2
331(10) 0.01036 346.3 4.2
370(10) 0.00939 346.4 4.3
344(10) 0.01082 346.4 4.3
342(10) 0.01018 346.4 4.4
347(10) 0.01006 346.4 4.5
370(10) 0.00929 346.5 4.5
337(10) 0.01054 346.5 4.6
352(10) 0.01047 346.5 4.7
374(10) 0.00943 346.5 4.8
368(10) 0.00920 346.6 4.8
390(11) 0.00880 346.6 4.9
338(10) 0.01051 346.6 5.0
352(10) 0.01062 346.7 5.1
341(10) 0.01010 346.7 5.2
339(10) 0.01001 346.7 5.4
358(10) 0.00946 346.7 5.5
367(10) 0.00993 346.8 5.6
340(10) 0.01098 346.8 5.7
350(10) 0.00980 346.8 5.9
362(10) 0.00917 346.8 6.0
376(11) 0.00905 346.9 6.1
370(10) 0.00991 346.9 6.3
337(10) 0.01105 346.9 6.4
338(10) 0.01004 346.9 6.6
346(10) 0.00949 347.0 6.8
348(10) 0.01016 347.0 6.9
367(10) 0.01006 347.0 7.1
347(10) 0.01075 347.0 7.3
359(10) 0.00958 347.1 7.5
371(11) 0.00864 347.1 7.7
384(11) 0.00868 347.1 7.9
333(9) 0.01124 347.1 8.1
369(10) 0.00999 347.2 8.3
376(10) 0.00938 347.2 8.5
365(11) 0.00898 347.2 8.7
338(10) 0.01024 347.2 8.9
360(10) 0.01017 347.3 9.2
390(10) 0.00950 347.3 9.4
385(11) 0.00896 347.3 9.7
359(10) 0.00928 347.4 10.0
353(10) 0.00974 347.4 10.3
363(10) 0.01022 347.4 10.6
385(10) 0.00925 347.4 11.0
362(10) 0.00976 347.5 11.4
329(10) 0.01032 347.5 11.8
357(10) 0.00977 347.5 12.3
329(9) 0.01142 347.5 12.8
378(10) 0.00909 347.6 13.4
366(10) 0.00933 347.6 14.0
397(11) 0.00846 347.6 14.7
361(10) 0.00957 347.6 15.5
374(10) 0.00999 347.7 16.3
378(10) 0.00943 347.7 17.2
367(10) 0.00976 347.7 18.2
368(10) 0.00954 347.7 19.3
374(10) 0.00945 347.8 20.4
387(10) 0.00956 347.8 21.7
338(10) 0.01089 347.8 23.1
344(10) 0.01013 347.8 24.5
373(10) 0.00921 347.9 26.1
383(10) 0.00928 347.9 27.8
371(10) 0.00999 347.9 29.6
399(11) 0.00836 347.9 31.5
378(10) 0.00922 348.0 33.5
405(11) 0.00880 348.0 35.6
398(11) 0.00887 348.0 37.7
379(10) 0.00980 348.1 40.0
388(11) 0.00878 348.1 42.3
377(11) 0.00852 348.1 44.6
418(11) 0.00794 348.1 46.9
397(10) 0.00912 348.2 49.2
415(11) 0.00895 348.2 51.3
415(11) 0.00829 348.2 53.3
421(11) 0.00757 348.2 55.1
391(10) 0.00913 348.3 56.6
427(11) 0.00859 348.3 57.8
381(10) 0.00975 348.3 58.6
382(10) 0.00950 348.3 59.0
427(12) 0.00738 348.4 59.0
398(11) 0.00893 348.4 58.5
393(10) 0.00929 348.4 57.6
387(10) 0.00960 348.4 56.4
395(11) 0.00885 348.5 54.9
408(11) 0.00768 348.5 53.1
387(10) 0.00921 348.5 51.1
397(10) 0.00939 348.5 48.9
384(10) 0.00958 348.6 46.6
394(11) 0.00865 348.6 44.3
386(11) 0.00839 348.6 42.1
370(10) 0.00953 348.6 39.8
382(10) 0.00975 348.7 37.6
352(10) 0.01040 348.7 35.4
369(10) 0.00928 348.7 33.4
364(10) 0.00911 348.8 31.4
343(10) 0.00982 348.8 29.6
348(10) 0.01079 348.8 27.8
379(10) 0.00962 348.8 26.2
411(11) 0.00807 348.9 24.7
385(11) 0.00872 348.9 23.3
362(10) 0.00957 348.9 22.0
375(10) 0.00990 348.9 20.8
363(10) 0.00958 349.0 19.7
357(10) 0.00935 349.0 18.7
350(10) 0.00961 349.0 17.8
376(10) 0.00926 349.0 17.0
365(10) 0.01006 349.1 16.3
339(10) 0.01042 349.1 15.6
359(10) 0.00952 349.1 15.0
371(10) 0.00928 349.1 14.5
339(10) 0.01060 349.2 14.1
353(10) 0.01057 349.2 13.7
367(10) 0.00909 349.2 13.3
375(11) 0.00891 349.2 13.1
352(10) 0.00984 349.3 12.8
338(10) 0.01055 349.3 12.6
360(10) 0.01030 349.3 12.5
386(11) 0.00863 349.4 12.3
374(11) 0.00886 349.4 12.2
363(10) 0.00977 349.4 12.0
356(10) 0.01036 349.4 11.9
360(10) 0.01029 349.5 11.8
387(11) 0.00893 349.5 11.6
364(11) 0.00903 349.5 11.4
345(10) 0.01017 349.5 11.2
374(10) 0.00986 349.6 11.0
378(10) 0.00977 349.6 10.8
331(10) 0.01037 349.6 10.5
352(11) 0.00890 349.6 10.2
336(10) 0.01053 349.7 9.9
378(10) 0.00988 349.7 9.6
359(10) 0.01043 349.7 9.3
354(10) 0.00987 349.7 9.0
359(10) 0.00915 349.8 8.7
353(10) 0.00969 349.8 8.5
342(10) 0.01077 349.8 8.2
365(10) 0.01008 349.8 7.9
371(10) 0.00928 349.9 7.7
378(11) 0.00856 349.9 7.4
346(10) 0.00950 349.9 7.2
361(10) 0.01037 349.9 7.0
342(10) 0.01065 350.0 6.8
340(10) 0.00981 350.0 6.6
336(10) 0.00973 350.0 6.4
347(10) 0.01000 350.1 6.3
350(10) 0.01048 350.1 6.1
350(10) 0.01047 350.1 6.0
355(10) 0.00976 350.1 5.9
357(10) 0.00950 350.2 5.8
340(10) 0.01044 350.2 5.7
383(10) 0.00971 350.2 5.6
356(10) 0.01016 350.2 5.5
334(10) 0.01059 350.3 5.4
370(10) 0.00921 350.3 5.3
360(10) 0.00995 350.3 5.3
350(10) 0.01058 350.3 5.2
339(10) 0.01054 350.4 5.2
351(10) 0.00973 350.4 5.1
354(10) 0.00977 350.4 5.1
372(10) 0.00958 350.4 5.1
366(10) 0.01020 350.5 5.0
362(10) 0.00960 350.5 5.0
371(11) 0.00901 350.5 5.0
327(10) 0.01094 350.5 5.0
350(10) 0.01011 350.6 5.0
355(10) 0.01053 350.6 5.0
341(10) 0.01049 350.6 5.0
336(10) 0.01022 350.6 5.0
349(10) 0.01031 350.7 5.0
362(10) 0.01009 350.7 5.0
361(10) 0.01031 350.7 5.0
356(10) 0.00965 350.8 5.0
372(11) 0.00903 350.8 5.0
362(10) 0.00972 350.8 5.1
351(10) 0.01045 350.8 5.1
347(10) 0.01085 350.9 5.2
375(10) 0.00932 350.9 5.2
344(10) 0.00956 350.9 5.3
329(10) 0.01103 350.9 5.3
364(10) 0.01023 351.0 5.4
351(10) 0.01066 351.0 5.5
370(10) 0.00919 351.0 5.6
383(11) 0.00827 351.0 5.7
369(10) 0.00951 351.1 5.9
386(10) 0.00972 351.1 6.1
318(9) 0.01175 351.1 6.3
342(10) 0.01005 351.1 6.5
374(11) 0.00854 351.2 6.8
377(11) 0.00875 351.2 7.1
347(10) 0.01077 351.2 7.6
347(10) 0.01056 351.2 8.2
335(10) 0.01034 351.3 9.0
361(11) 0.00904 351.3 10.4
362(10) 0.00987 351.3 12.8
387(10) 0.00955 351.3 17.1
406(11) 0.00869 351.4 24.2
395(11) 0.00881 351.4 35.3
439(12) 0.00733 351.4 50.7
447(12) 0.00748 351.5 69.0
484(11) 0.00766 351.5 87.1
460(11) 0.00792 351.5 99.1
447(11) 0.00766 351.5 99.5
433(11) 0.00768 351.6 88.3
421(11) 0.00830 351.6 70.7
421(11) 0.00882 351.6 52.6
384(10) 0.00931 351.6 37.5
374(10) 0.00922 351.7 26.6
386(11) 0.00867 351.7 19.8
370(10) 0.00936 351.7 16.0
357(10) 0.01052 351.7 14.1
360(10) 0.00974 351.8 13.3
390(11) 0.00830 351.8 13.0
376(10) 0.00927 351.8 12.8
371(10) 0.00964 351.8 12.7
360(10) 0.01036 351.9 12.8
364(10) 0.00935 351.9 12.9
372(11) 0.00886 351.9 13.1
379(11) 0.00894 351.9 13.5
360(10) 0.01004 352.0 14.0
371(10) 0.00993 352.0 14.5
415(11) 0.00834 352.0 15.2
395(11) 0.00860 352.0 15.9
393(11) 0.00878 352.1 16.6
394(10) 0.00912 352.1 17.4
369(10) 0.01015 352.1 18.2
374(10) 0.00913 352.2 19.0
368(11) 0.00867 352.2 19.8
367(10) 0.00973 352.2 20.5
402(10) 0.00908 352.2 21.1
387(10) 0.00966 352.3 21.6
405(11) 0.00879 352.3 22.0
380(11) 0.00858 352.3 22.2
368(10) 0.00981 352.3 22.3
397(10) 0.00931 352.4 22.2
387(10) 0.00965 352.4 21.9
403(11) 0.00835 352.4 21.5
369(11) 0.00897 352.4 21.0
403(11) 0.00860 352.5 20.3
414(11) 0.00889 352.5 19.6
372(10) 0.01000 352.5 18.9
386(10) 0.00922 352.5 18.1
376(11) 0.00876 352.6 17.4
362(10) 0.00942 352.6 16.6
376(10) 0.00985 352.6 15.9
372(10) 0.00991 352.6 15.2
347(10) 0.01012 352.7 14.6
351(10) 0.00970 352.7 14.0
361(10) 0.00960 352.7 13.5
346(10) 0.01077 352.7 13.0
353(10) 0.00989 352.8 12.6
368(10) 0.00923 352.8 12.2
343(10) 0.01008 352.8 11.9
381(10) 0.00921 352.9 11.6
387(10) 0.00957 352.9 11.3
336(10) 0.01047 352.9 11.2
358(10) 0.00922 352.9 11.0
366(10) 0.00966 353.0 10.9
360(10) 0.00977 353.0 10.9
332(9) 0.01125 353.0 10.8
352(10) 0.01029 353.0 10.8
362(10) 0.00980 353.1 10.9
366(10) 0.00979 353.1 11.0
360(10) 0.01003 353.1 11.1
349(10) 0.01060 353.1 11.3
359(10) 0.00988 353.2 11.5
369(11) 0.00900 353.2 11.7
350(10) 0.00999 353.2 12.0
330(10) 0.01096 353.2 12.3
359(10) 0.01026 353.3 12.6
350(10) 0.00998 353.3 13.0
371(11) 0.00857 353.3 13.4
362(10) 0.00965 353.3 13.8
381(10) 0.00956 353.4 14.3
364(10) 0.01016 353.4 14.8
339(10) 0.00983 353.4 15.3
331(10) 0.01008 353.5 15.8
375(10) 0.00956 353.5 16.4
381(10) 0.00970 353.5 16.9
392(10) 0.00930 353.5 17.5
367(10) 0.00942 353.6 18.1
381(11) 0.00831 353.6 18.7
350(10) 0.01002 353.6 19.3
372(10) 0.00982 353.6 19.9
366(10) 0.01011 353.7 20.5
342(10) 0.01013 353.7 21.0
374(11) 0.00870 353.7 21.5
379(10) 0.00928 353.7 22.0
388(10) 0.00944 353.8 22.4
328(9) 0.01131 353.8 22.8
338(10) 0.01025 353.8 23.2
385(11) 0.00823 353.8 23.5
355(10) 0.00997 353.9 23.9
363(10) 0.01025 353.9 24.2
388(10) 0.00947 353.9 24.6
384(11) 0.00901 353.9 25.1
351(10) 0.00954 354.0 25.5
350(10) 0.00964 354.0 25.9
357(10) 0.01040 354.0 26.3
344(10) 0.01078 354.0 26.6
357(10) 0.00968 354.1 26.8
363(10) 0.00919 354.1 26.8
354(10) 0.00981 354.1 26.6
374(10) 0.00993 354.2 26.2
371(10) 0.00953 354.2 25.8
390(11) 0.00888 354.2 25.4
373(10) 0.00964 354.2 25.0
382(11) 0.00905 354.3 24.7
376(10) 0.00989 354.3 24.5
385(10) 0.00918 354.3 24.5
363(10) 0.00968 354.3 24.7
351(10) 0.00986 354.4 24.9
369(10) 0.00961 354.4 25.3
364(10) 0.01023 354.3 25.6
373(11) 0.00906 354.3 25.9
363(10) 0.00912 354.3 26.1
358(10) 0.00976 354.3 26.1
372(10) 0.00975 354.2 26.1
374(10) 0.00996 354.2 26.0
390(11) 0.00856 354.2 26.0
349(10) 0.00986 354.1 26.0
377(10) 0.00916 354.1 26.1
370(10) 0.00991 354.1 26.2
343(10) 0.01087 354.1 26.4
339(10) 0.00992 354.0 26.6
336(10) 0.00973 354.0 26.8
376(10) 0.00910 354.0 26.9
333(10) 0.01105 353.9 27.1
348(10) 0.01044 353.9 27.3
367(10) 0.00952 353.9 27.4
392(11) 0.00863 353.8 27.4
396(11) 0.00901 353.8 27.5
363(10) 0.01025 353.8 27.4
375(10) 0.00980 353.8 27.4
387(11) 0.00896 353.7 27.2
352(10) 0.00916 353.7 27.1
351(10) 0.00937 353.7 26.9
356(10) 0.01044 353.6 26.6
376(10) 0.00973 353.6 26.3
344(10) 0.01039 353.6 26.0
372(11) 0.00870 353.6 25.7
374(10) 0.00935 353.5 25.4
363(10) 0.01021 353.5 25.1
368(10) 0.01004 353.5 24.8
361(10) 0.00961 353.4 24.6
345(10) 0.00968 353.4 24.4
334(10) 0.01038 353.4 24.2
357(10) 0.01029 353.3 24.2
325(9) 0.01137 353.3 24.4
366(10) 0.00962 353.3 25.0
373(10) 0.00913 353.3 26.2
378(10) 0.00937 353.2 28.5
378(10) 0.00980 353.2 32.3
373(10) 0.00963 353.2 37.7
393(11) 0.00873 353.1 44.6
408(11) 0.00816 353.1 52.3
425(11) 0.00801 353.1 59.0
396(10) 0.00945 353.0 62.4
402(11) 0.00867 353.0 61.0
383(11) 0.00867 353.0 55.7
362(10) 0.00948 353.0 49.0
405(11) 0.00880 352.9 42.7
385(10) 0.00964 352.9 37.7
431(11) 0.00786 352.9 34.2
386(11) 0.00896 352.8 31.6
399(11) 0.00868 352.8 29.7
375(10) 0.00947 352.8 27.9
358(10) 0.01029 352.8 26.3
366(10) 0.00947 352.7 24.9
359(10) 0.00970 352.7 23.7
384(11) 0.00895 352.7 22.8
344(10) 0.01080 352.6 22.2
364(10) 0.01027 352.6 21.9
365(10) 0.00954 352.6 21.9
367(11) 0.00891 352.5 22.1
369(10) 0.00944 352.5 22.5
367(10) 0.01011 352.5 23.1
404(10) 0.00933 352.5 23.8
379(10) 0.00934 352.4 24.6
367(11) 0.00889 352.4 25.4
387(11) 0.00877 352.4 26.2
369(10) 0.01005 352.3 27.0
392(10) 0.00949 352.3 27.9
371(10) 0.00959 352.3 28.8
387(11) 0.00839 352.3 29.8
379(10) 0.00935 352.2 31.0
385(10) 0.00958 352.2 32.3
407(10) 0.00909 352.2 33.7
394(11) 0.00865 352.1 35.1
389(11) 0.00836 352.1 36.6
404(11) 0.00866 352.1 38.1
388(10) 0.00968 352.0 39.4
399(10) 0.00924 352.0 40.5
384(10) 0.00911 352.0 41.4
418(11) 0.00774 352.0 42.0
391(11) 0.00894 351.9 42.4
400(10) 0.00939 351.9 42.7
400(10) 0.00918 351.9 43.0
387(11) 0.00878 351.8 43.4
376(10) 0.00913 351.8 44.2
394(11) 0.00872 351.8 45.4
398(10) 0.00929 351.8 47.1
395(10) 0.00915 351.7 49.2
416(11) 0.00808 351.7 51.5
403(11) 0.00819 351.7 53.7
405(11) 0.00837 351.6 55.0
386(10) 0.00964 351.6 55.0
384(11) 0.00899 351.6 53.2
373(10) 0.00943 351.5 50.1
409(11) 0.00829 351.5 46.0
392(11) 0.00901 351.5 41.7
377(10) 0.00981 351.5 37.6
360(10) 0.00955 351.4 33.9
359(10) 0.00936 351.4 30.8
393(11) 0.00842 351.4 28.3
367(10) 0.00980 351.3 26.3
360(10) 0.01034 351.3 24.9
365(10) 0.00922 351.3 23.8
364(10) 0.00916 351.3 23.1
341(10) 0.01001 351.2 22.6
364(10) 0.00986 351.2 22.3
376(10) 0.00996 351.2 22.3
400(11) 0.00875 351.1 22.3
373(11) 0.00906 351.1 22.5
349(10) 0.00976 351.1 22.8
344(10) 0.01048 351.0 23.3
347(10) 0.01063 351.0 23.8
384(11) 0.00891 351.0 24.4
385(11) 0.00835 351.0 25.2
343(10) 0.01016 350.9 26.3
389(10) 0.00931 350.9 27.7
389(10) 0.00955 350.9 29.5
388(11) 0.00902 350.8 32.0
386(11) 0.00848 350.8 35.3
392(10) 0.00916 350.8 39.4
398(10) 0.00923 350.8 44.1
387(10) 0.00958 350.7 49.2
413(11) 0.00832 350.7 53.7
403(11) 0.00809 350.7 56.6
402(11) 0.00881 350.6 56.8
400(10) 0.00935 350.6 54.4
415(11) 0.00889 350.6 50.5
411(11) 0.00839 350.5 46.2
389(11) 0.00842 350.5 42.3
380(10) 0.00926 350.5 39.0
382(10) 0.00972 350.5 36.4
379(10) 0.00951 350.4 34.4
344(10) 0.01011 350.4 33.0
379(11) 0.00827 350.4 31.9
356(10) 0.00949 350.3 31.1
360(10) 0.01032 350.3 30.4
344(10) 0.01044 350.3 29.8
361(10) 0.00928 350.3 29.2
361(11) 0.00898 350.2 28.6
384(11) 0.00886 350.2 28.0
333(10) 0.01107 350.2 27.5
366(10) 0.00998 350.1 26.9
381(11) 0.00892 350.1 26.3
351(10) 0.00982 350.1 25.6
362(10) 0.00947 350.0 25.0
355(10) 0.01050 350.0 24.3
365(10) 0.00964 350.0 23.6
367(10) 0.00911 350.0 22.9
362(11) 0.00903 349.9 22.1
369(10) 0.00956 349.9 21.4
378(10) 0.00974 349.9 20.7
355(10) 0.00975 349.8 20.1
332(10) 0.01017 349.8 19.4
374(11) 0.00900 349.8 18.8
339(10) 0.01061 349.7 18.3
394(10) 0.00933 349.7 17.7
378(10) 0.00912 349.7 17.2
377(11) 0.00866 349.7 16.8
362(10) 0.00924 349.6 16.3
361(10) 0.00985 349.6 16.0
357(10) 0.01043 349.6 15.6
342(10) 0.01005 349.5 15.2
370(11) 0.00879 349.5 14.9
383(10) 0.00912 349.5 14.6
373(10) 0.00975 349.5 14.4
350(10) 0.01068 349.4 14.2
362(10) 0.00941 349.4 13.9
333(10) 0.01011 349.4 13.8
356(10) 0.00938 349.3 13.6
356(10) 0.01034 349.3 13.4
331(9) 0.01131 349.3 13.3
348(10) 0.00986 349.2 13.2
384(11) 0.00842 349.2 13.1
343(10) 0.01022 349.2 13.0
361(10) 0.01021 349.2 13.0
362(10) 0.00993 349.1 13.0
333(10) 0.01060 349.1 12.9
371(11) 0.00838 349.1 12.9
364(10) 0.00959 349.0 12.9
389(10) 0.00960 349.0 13.0
357(10) 0.01006 349.0 13.0
359(10) 0.00974 349.0 13.1
365(10) 0.00937 348.9 13.2
381(11) 0.00900 348.9 13.3
370(10) 0.01008 348.9 13.4
357(10) 0.01022 348.8 13.5
349(10) 0.01008 348.8 13.7
349(10) 0.00950 348.8 13.9
347(10) 0.00981 348.7 14.1
381(10) 0.00979 348.7 14.3
360(10) 0.00981 348.7 14.5
344(10) 0.00999 348.7 14.8
363(10) 0.00930 348.6 15.1
373(10) 0.00952 348.6 15.4
381(10) 0.00977 348.6 15.8
349(10) 0.00992 348.5 16.1
360(10) 0.00933 348.5 16.6
370(10) 0.00926 348.5 17.0
361(10) 0.00991 348.5 17.5
352(10) 0.01057 348.4 18.1
372(10) 0.00940 348.4 18.6
342(10) 0.01001 348.4 19.3
343(10) 0.01004 348.3 20.0
348(10) 0.01052 348.3 20.7
374(10) 0.00997 348.3 21.6
378(10) 0.00930 348.2 22.5
368(11) 0.00897 348.2 23.4
369(11) 0.00902 348.2 24.4
371(10) 0.00985 348.2 25.5
384(10) 0.00979 348.1 26.6
395(11) 0.00865 348.1 27.7
366(11) 0.00887 348.1 28.9
348(10) 0.00984 348.0 30.0
368(10) 0.00988 348.0 31.0
387(10) 0.00941 348.0 31.8
370(10) 0.00948 348.0 32.5
381(11) 0.00816 347.9 33.0
372(10) 0.00919 347.9 33.2
396(10) 0.00937 347.9 33.3
400(10) 0.00924 347.8 33.3
395(11) 0.00895 347.8 33.2
368(11) 0.00865 347.8 33.1
375(11) 0.00907 347.7 33.0
378(10) 0.00981 347.7 33.0
386(10) 0.00943 347.7 33.0
357(10) 0.00985 347.7 33.1
391(11) 0.00826 347.6 33.2
370(10) 0.00957 347.6 33.5
386(10) 0.00954 347.6 33.8
423(11) 0.00866 347.5 34.2
412(11) 0.00848 347.5 34.7
364(10) 0.00939 347.5 35.3
356(10) 0.01014 347.5 35.9
393(10) 0.00947 347.4 36.5
404(11) 0.00885 347.4 37.3
389(10) 0.00909 347.4 38.1
379(10) 0.00924 347.3 38.9
395(11) 0.00868 347.3 39.7
375(10) 0.00977 347.3 40.6
428(11) 0.00826 347.2 41.5
395(11) 0.00854 347.2 42.4
384(11) 0.00897 347.2 43.3
392(11) 0.00888 347.2 44.2
405(10) 0.00917 347.1 45.0
395(11) 0.00905 347.1 45.9
423(11) 0.00794 347.1 46.7
381(10) 0.00907 347.0 47.4
392(11) 0.00897 347.0 48.1
410(10) 0.00913 347.0 48.8
422(11) 0.00813 347.0 49.3
434(11) 0.00791 346.9 49.8
394(11) 0.00906 346.9 50.2
402(11) 0.00891 346.9 50.4
386(10) 0.00963 346.8 50.6
438(11) 0.00772 346.8 50.7
383(11) 0.00864 346.8 50.7
428(11) 0.00816 346.7 50.5
410(11) 0.00901 346.7 50.3
389(10) 0.00954 346.7 49.9
406(11) 0.00843 346.7 49.5
399(11) 0.00798 346.6 49.0
373(10) 0.00942 346.6 48.3
393(10) 0.00923 346.6 47.6
382(10) 0.00968 346.5 46.9
385(11) 0.00880 346.5 46.0
427(12) 0.00729 346.5 45.1
389(11) 0.00871 346.4 44.2
396(10) 0.00939 346.4 43.2
399(10) 0.00916 346.4 42.2
404(11) 0.00826 346.4 41.2
392(11) 0.00792 346.3 40.2
366(10) 0.00969 346.3 39.2
393(10) 0.00944 346.3 38.1
393(10) 0.00947 346.2 37.1
375(10) 0.00948 346.2 36.2
370(11) 0.00870 346.2 35.2
393(11) 0.00902 346.2 34.3
386(10) 0.00968 346.1 33.3
382(10) 0.00930 346.1 32.4
378(10) 0.00908 346.1 31.6
344(10) 0.00969 346.0 30.7
352(10) 0.00978 346.0 29.9
355(10) 0.01047 346.0 29.1
369(10) 0.00974 345.9 28.3
391(11) 0.00894 345.9 27.5
399(11) 0.00850 345.9 26.8
390(11) 0.00893 345.9 26.1
380(10) 0.00975 345.8 25.4
381(10) 0.00939 345.8 24.8
375(10) 0.00943 345.8 24.2
386(11) 0.00886 345.7 23.6
355(10) 0.00959 345.7 23.1
364(10) 0.01017 345.7 22.7
397(10) 0.00909 345.7 22.2
372(10) 0.00945 345.6 21.8
376(11) 0.00907 345.6 21.5
365(10) 0.00973 345.6 21.1
380(10) 0.00979 345.5 20.9
375(10) 0.00922 345.5 20.6
371(10) 0.00918 345.5 20.4
370(10) 0.00933 345.4 20.2
375(10) 0.00940 345.4 20.1
382(10) 0.00980 345.4 20.0
341(10) 0.01029 345.4 20.0
373(11) 0.00896 345.3 19.9
369(10) 0.00924 345.3 19.9
349(10) 0.01036 345.3 20.0
380(10) 0.00977 345.2 20.1
362(10) 0.00910 345.2 20.2
359(10) 0.00927 345.2 20.3
371(10) 0.00948 345.2 20.5
394(10) 0.00951 345.1 20.8
379(10) 0.00986 345.1 21.1
357(10) 0.00944 345.1 21.4
368(11) 0.00879 345.0 21.8
356(10) 0.00974 345.0 22.2
330(9) 0.01133 345.0 22.8
368(10) 0.01001 344.9 23.4
369(10) 0.00969 344.9 24.1
382(11) 0.00870 344.9 25.0
374(10) 0.00928 344.9 25.9
401(10) 0.00912 344.8 27.0
374(10) 0.00996 344.8 28.3
377(10) 0.00916 344.8 29.8
374(11) 0.00874 344.7 31.5
396(11) 0.00878 344.7 33.5
384(10) 0.00967 344.7 35.8
386(10) 0.00954 344.7 38.4
402(11) 0.00890 344.6 41.3
420(11) 0.00775 344.6 44.5
388(11) 0.00891 344.6 48.1
388(10) 0.00964 344.5 52.0
391(10) 0.00946 344.5 56.2
392(11) 0.00905 344.5 60.5
408(11) 0.00821 344.4 64.9
401(11) 0.00860 344.4 69.0
390(10) 0.00951 344.4 72.7
382(10) 0.00952 344.4 75.6
430(11) 0.00795 344.3 77.5
428(11) 0.00782 344.3 78.0
412(11) 0.00847 344.3 77.1
421(11) 0.00884 344.2 75.0
392(10) 0.00910 344.2 71.7
393(11) 0.00883 344.2 67.7
378(11) 0.00893 344.2 63.2
376(10) 0.00917 344.1 58.6
396(10) 0.00940 344.1 54.1
376(10) 0.00938 344.1 49.7
367(10) 0.00973 344.0 45.6
392(11) 0.00884 344.0 41.9
371(10) 0.00993 344.0 38.5
372(10) 0.00996 343.9 35.4
387(11) 0.00863 343.9 32.7
390(11) 0.00855 343.9 30.2
378(10) 0.00937 343.9 28.1
333(9) 0.01109 343.8 26.2
348(10) 0.01062 343.8 24.5
381(10) 0.00926 343.8 23.0
352(10) 0.00947 343.7 21.6
344(10) 0.01026 343.7 20.4
343(10) 0.01065 343.7 19.4
343(10) 0.01080 343.7 18.4
371(11) 0.00900 343.6 17.6
353(11) 0.00904 343.6 16.8
355(10) 0.00970 343.6 16.1
370(10) 0.01000 343.5 15.4
347(10) 0.01082 343.5 14.8
349(10) 0.00993 343.5 14.3
358(11) 0.00896 343.4 13.7
366(10) 0.00941 343.4 13.3
376(10) 0.00972 343.4 12.8
367(10) 0.01010 343.4 12.4
395(11) 0.00872 343.3 12.0
374(11) 0.00835 343.3 11.7
359(10) 0.00938 343.3 11.3
351(10) 0.01059 343.2 11.0
341(10) 0.01085 343.2 10.8
348(10) 0.01034 343.2 10.5
391(11) 0.00793 343.1 10.2
344(10) 0.00971 343.1 10.0
340(10) 0.01094 343.1 9.8
331(9) 0.01123 343.1 9.6
375(10) 0.00912 343.0 9.4
370(11) 0.00902 343.0 9.2
364(10) 0.00950 343.0 9.0
371(10) 0.01012 342.9 8.9
353(10) 0.01046 342.9 8.7
345(10) 0.01007 342.9 8.6
352(10) 0.00936 342.9 8.5
347(10) 0.00996 342.8 8.4
405(10) 0.00922 342.8 8.3
345(10) 0.01060 342.8 8.2
346(10) 0.00983 342.8 8.1
345(10) 0.01015 342.8 8.0
374(10) 0.00923 342.7 7.9
343(10) 0.01078 342.7 7.8
350(10) 0.01019 342.7 7.7
367(10) 0.00927 342.7 7.7
363(10) 0.00949 342.7 7.6
323(9) 0.01110 342.6 7.6
358(10) 0.01038 342.6 7.6
334(10) 0.01032 342.6 7.5
361(10) 0.00921 342.6 7.5
352(10) 0.01011 342.6 7.5
374(10) 0.00950 342.5 7.5
343(10) 0.01080 342.5 7.6
350(10) 0.01003 342.5 7.6
359(10) 0.00933 342.5 7.7
356(10) 0.00963 342.5 7.7
361(10) 0.01012 342.4 7.8
366(10) 0.01023 342.4 7.8
345(10) 0.00995 342.4 7.9
303(10) 0.01087 342.4 7.9
354(10) 0.00951 342.4 8.0
345(10) 0.01051 342.3 8.1
352(10) 0.01064 342.3 8.2
353(10) 0.00955 342.3 8.5
327(10) 0.00973 342.3 8.8
336(10) 0.01031 342.3 9.3
347(10) 0.01061 342.2 10.0
343(10) 0.01066 342.2 11.2
339(10) 0.01028 342.2 13.1
361(10) 0.00911 342.2 15.8
404(11) 0.00859 342.2 19.7
387(10) 0.00962 342.1 24.6
373(10) 0.00989 342.1 30.5
368(10) 0.00962 342.1 36.5
372(11) 0.00874 342.1 41.4
366(10) 0.00930 342.1 43.3
355(10) 0.01046 342.0 41.6
359(10) 0.01016 342.0 36.9
375(10) 0.00908 342.0 31.0
374(11) 0.00875 342.0 25.2
364(10) 0.00961 342.0 20.3
335(10) 0.01101 341.9 16.6
376(10) 0.00964 341.9 13.9
371(10) 0.00930 341.9 12.2
361(10) 0.00950 341.9 11.1
372(10) 0.00936 341.9 10.5
386(10) 0.00965 341.8 10.2
354(10) 0.01012 341.8 10.0
377(11) 0.00885 341.8 10.0
378(11) 0.00889 341.8 10.0
379(10) 0.00909 341.8 10.1
366(10) 0.01009 341.8 10.2
345(10) 0.01011 341.7 10.4
355(10) 0.00946 341.7 10.6
359(10) 0.00948 341.7 10.9
354(10) 0.01001 341.7 11.2
336(10) 0.01106 341.7 11.5
352(10) 0.00978 341.6 11.9
356(10) 0.00930 341.6 12.3
375(10) 0.00936 341.6 12.8
368(10) 0.00996 341.6 13.3
359(10) 0.01027 341.6 13.8
357(10) 0.00977 341.5 14.4
349(10) 0.00970 341.5 15.0
353(10) 0.00986 341.5 15.6
363(10) 0.01014 341.5 16.3
358(10) 0.01046 341.5 17.0
349(10) 0.01023 341.4 17.7
372(11) 0.00879 341.4 18.4
349(10) 0.00977 341.4 19.2
328(9) 0.01135 341.4 19.9
367(10) 0.01007 341.4 20.7
365(10) 0.00968 341.3 21.5
349(10) 0.00968 341.3 22.2
341(10) 0.01020 341.3 22.9
356(10) 0.01033 341.3 23.6
382(10) 0.00962 341.3 24.2
374(10) 0.00935 341.2 24.8
377(11) 0.00847 341.2 25.3
357(10) 0.00984 341.2 25.7
384(10) 0.00944 341.2 26.1
372(10) 0.01000 341.2 26.3
365(10) 0.00985 341.1 26.5
394(11) 0.00805 341.1 26.7
392(11) 0.00885 341.1 26.7
369(10) 0.01002 341.1 26.8
392(10) 0.00930 341.1 26.7
365(10) 0.00974 341.0 26.7
363(10) 0.00916 341.0 26.6
372(10) 0.00944 341.0 26.4
375(10) 0.00990 341.0 26.2
357(10) 0.01024 341.0 26.0
365(10) 0.00965 340.9 25.8
367(10) 0.00930 340.9 25.5
376(10) 0.00943 340.9 25.2
340(10) 0.01094 340.9 24.8
380(10) 0.00939 340.9 24.4
347(10) 0.00992 340.8 23.9
365(10) 0.00909 340.8 23.4
356(10) 0.01004 340.8 22.9
366(10) 0.01006 340.8 22.3
373(10) 0.00953 340.8 21.7
357(10) 0.00960 340.8 21.0
360(10) 0.00956 340.7 20.4
368(10) 0.00946 340.7 19.8
388(10) 0.00961 340.7 19.1
364(10) 0.00959 340.7 18.3
335(10) 0.01016 340.7 17.5
320(10) 0.01081 340.6 16.7
344(10) 0.01020 340.6 15.8
346(10) 0.01081 340.6 14.9
368(10) 0.00924 340.6 14.1
334(10) 0.01033 340.6 13.3
351(10) 0.00986 340.5 12.6
349(10) 0.01034 340.5 12.0
353(10) 0.01050 340.5 11.3
352(10) 0.01011 340.5 10.8
371(11) 0.00879 340.5 10.3
367(10) 0.00927 340.4 9.8
345(10) 0.01058 340.4 9.4
361(10) 0.01033 340.4 8.9
378(10) 0.00926 340.4 8.6
378(11) 0.00857 340.4 8.2
341(10) 0.01011 340.3 7.9
363(10) 0.00984 340.3 7.6
356(10) 0.01045 340.3 7.3
342(10) 0.01033 340.3 7.0
364(11) 0.00858 340.3 6.7
343(10) 0.01021 340.2 6.5
329(9) 0.01109 340.2 6.3
351(10) 0.01054 340.2 6.1
346(10) 0.01011 340.2 5.9
359(10) 0.00910 340.2 5.8
339(10) 0.01054 340.1 5.6
363(10) 0.01018 340.1 5.5
343(10) 0.01069 340.1 5.4
354(10) 0.00993 340.1 5.2
340(10) 0.00990 340.1 5.1
375(10) 0.00926 340.0 5.0
325(9) 0.01141 340.0 4.9
340(10) 0.01065 340.0 4.9
339(10) 0.01069 340.0 4.8
351(10) 0.00943 340.0 4.7
361(10) 0.00928 339.9 4.7
328(9) 0.01139 339.9 4.6
334(10) 0.01098 339.9 4.6
338(10) 0.01068 339.9 4.6
395(11) 0.00837 339.9 4.6
345(10) 0.01000 339.8 4.6
348(10) 0.01069 339.8 4.6
352(10) 0.01037 339.8 4.7
355(10) 0.00959 339.8 4.8
351(10) 0.00969 339.8 4.9
371(10) 0.00964 339.8 5.0
343(10) 0.01092 339.7 5.2
368(10) 0.00950 339.7 5.5
335(10) 0.01024 339.7 5.9
367(11) 0.00895 339.7 6.5
340(10) 0.01045 339.7 7.2
366(10) 0.01019 339.6 8.2
349(10) 0.01016 339.6 9.4
371(11) 0.00879 339.6 10.8
363(10) 0.00960 339.6 12.5
332(10) 0.01073 339.6 14.4
346(10) 0.01074 339.5 16.3
336(10) 0.01028 339.5 18.0
353(10) 0.00926 339.5 19.2
363(10) 0.00953 339.5 19.4
358(10) 0.01016 339.5 18.7
372(10) 0.01004 339.4 17.2
357(10) 0.01002 339.4 15.4
366(11) 0.00905 339.4 13.4
368(10) 0.00954 339.4 11.6
353(10) 0.01038 339.4 9.9
374(10) 0.00997 339.3 8.5
348(10) 0.00985 339.3 7.4
334(10) 0.00984 339.3 6.5
365(10) 0.00943 339.3 5.9
348(10) 0.01073 339.3 5.3
318(9) 0.01178 339.2 5.0
341(10) 0.00985 339.2 4.7
335(10) 0.00966 339.2 4.5
357(10) 0.00974 339.2 4.3
358(10) 0.01047 339.2 4.2
357(10) 0.01037 339.1 4.1
354(10) 0.01000 339.1 4.0
357(11) 0.00892 339.1 3.9
344(10) 0.01007 339.1 3.8
358(10) 0.01036 339.1 3.8
349(10) 0.01051 339.0 3.7
341(10) 0.01031 339.0 3.7
344(10) 0.00938 339.0 3.6
331(10) 0.01059 339.0 3.6
350(10) 0.01063 339.0 3.6
361(10) 0.01012 338.9 3.5
346(10) 0.01002 338.9 3.5
371(11) 0.00899 338.9 3.4
372(10) 0.00932 338.9 3.4
332(9) 0.01116 338.9 3.3
362(10) 0.00981 338.8 3.3
344(10) 0.00987 338.8 3.3
325(10) 0.01035 338.8 3.3
334(10) 0.01053 338.8 3.2
339(10) 0.01088 338.8 3.2
333(10) 0.01034 338.8 3.2
360(10) 0.00914 338.7 3.2
345(10) 0.01024 338.7 3.2
344(10) 0.01039 338.7 3.2
333(9) 0.01111 338.7 3.2
350(10) 0.01016 338.7 3.2
344(10) 0.01034 338.6 3.2
330(10) 0.01092 338.6 3.2
354(10) 0.01028 338.6 3.2
345(10) 0.01075 338.6 3.2
341(10) 0.01006 338.6 3.2
336(10) 0.01008 338.5 3.2
328(10) 0.01085 338.5 3.2
348(10) 0.01027 338.5 3.2
346(10) 0.01080 338.5 3.2
339(10) 0.00998 338.5 3.2
348(10) 0.00922 338.4 3.2
343(10) 0.01018 338.4 3.2
379(10) 0.00957 338.4 3.2
332(10) 0.01092 338.4 3.2
350(10) 0.00970 338.4 3.2
330(10) 0.00998 338.3 3.2
338(10) 0.01059 338.3 3.2
359(10) 0.01030 338.3 3.2
369(10) 0.01009 338.3 3.2
337(10) 0.01040 338.3 3.2
361(11) 0.00829 338.2 3.2
360(10) 0.00936 338.2 3.2
336(10) 0.01108 338.2 3.1
358(10) 0.01032 338.2 3.1
361(10) 0.00983 338.2 3.1
329(10) 0.01007 338.1 3.1
361(10) 0.00935 338.1 3.0
349(10) 0.01069 338.1 3.0
366(10) 0.00984 338.1 3.0
372(10) 0.00927 338.1 2.9
350(10) 0.00947 338.0 2.9
355(10) 0.00983 338.0 2.9
331(9) 0.01122 338.0 2.8
343(10) 0.01078 338.0 2.8
353(10) 0.01015 338.0 2.7
358(10) 0.00949 337.9 2.7
329(10) 0.01056 337.9 2.7
333(9) 0.01115 337.9 2.6
381(10) 0.00959 337.9 2.6
349(10) 0.00986 337.9 2.6
340(10) 0.00952 337.8 2.5
347(10) 0.01012 337.8 2.5
350(10) 0.01059 337.8 2.5
374(10) 0.00932 337.8 2.4
354(10) 0.00953 337.8 2.4
351(10) 0.00979 337.8 2.4
348(10) 0.01034 337.7 2.3
357(10) 0.01050 337.7 2.3
351(10) 0.00977 337.7 2.3
359(10) 0.00947 337.7 2.3
356(10) 0.00961 337.7 2.2
356(10) 0.00962 337.6 2.2
354(10) 0.01047 337.6 2.2
370(11) 0.00893 337.6 2.2
328(10) 0.01033 337.6 2.2
354(10) 0.00955 337.6 2.1
336(10) 0.01100 337.5 2.1
352(10) 0.01055 337.5 2.1
347(10) 0.01036 337.5 2.1
315(10) 0.01067 337.5 2.1
346(10) 0.01018 337.5 2.1
340(10) 0.01070 337.4 2.1
346(10) 0.01090 337.4 2.1
349(10) 0.00984 337.4 2.0
334(10) 0.00972 337.4 2.0
312(9) 0.01118 337.4 2.0
330(9) 0.01109 337.3 2.0
339(10) 0.01091 337.3 2.0
354(10) 0.00976 337.3 2.0
332(10) 0.00966 337.3 2.0
340(10) 0.01032 337.3 2.0
355(10) 0.01045 337.2 2.0
339(10) 0.01092 337.2 2.0
349(10) 0.00996 337.2 2.0
363(11) 0.00863 337.2 2.0
329(10) 0.01060 337.2 2.1
339(10) 0.01097 337.1 2.1
347(10) 0.01081 337.1 2.1
350(10) 0.00993 337.1 2.1
332(10) 0.00975 337.1 2.1
354(10) 0.00951 337.1 2.1
385(10) 0.00959 337.1 2.1
359(10) 0.00998 337.2 2.1
332(10) 0.01055 337.2 2.1
327(10) 0.01043 337.2 2.1
364(10) 0.00940 337.3 2.1
355(10) 0.01041 337.3 2.2
357(10) 0.01018 337.3 2.2
351(10) 0.00970 337.4 2.2
345(10) 0.01001 337.4 2.2
357(10) 0.00934 337.4 2.2
340(10) 0.01100 337.5 2.2
320(9) 0.01123 337.5 2.2
335(10) 0.01018 337.5 2.2
311(9) 0.01159 337.5 2.3
328(10) 0.01082 337.6 2.3
339(10) 0.01095 337.6 2.3
346(10) 0.00990 337.6 2.3
346(10) 0.00990 337.7 2.3
349(10) 0.01001 337.7 2.3
334(10) 0.01072 337.7 2.3
329(9) 0.01132 337.8 2.4
360(10) 0.00950 337.8 2.4
364(10) 0.00921 337.8 2.4
325(10) 0.01093 337.9 2.4
337(10) 0.01085 337.9 2.4
343(10) 0.01078 337.9 2.5
341(10) 0.01021 338.0 2.5
344(10) 0.00973 338.0 2.5
353(10) 0.00995 338.0 2.5
350(10) 0.01042 338.1 2.6
340(10) 0.01099 338.1 2.6
366(10) 0.00934 338.1 2.6
367(11) 0.00878 338.1 2.7
367(10) 0.00934 338.2 2.7
367(10) 0.01001 338.2 2.8
346(10) 0.01072 338.2 2.8
339(10) 0.01028 338.3 2.9
331(10) 0.00968 338.3 2.9
368(11) 0.00903 338.3 3.0
358(10) 0.01035 338.4 3.0
332(10) 0.01100 338.4 3.1
330(10) 0.01025 338.4 3.1
298(10) 0.01106 338.5 3.2
330(10) 0.01054 338.5 3.3
347(10) 0.01056 338.5 3.4
344(10) 0.01038 338.6 3.4
339(10) 0.01037 338.6 3.5
353(10) 0.00943 338.6 3.6
327(10) 0.01092 338.7 3.7
364(10) 0.01024 338.7 3.8
360(10) 0.01027 338.7 3.9
324(10) 0.01095 338.7 4.1
344(10) 0.01006 338.8 4.2
369(10) 0.00933 338.8 4.3
361(10) 0.01035 338.8 4.5
365(10) 0.00991 338.9 4.6
379(11) 0.00887 338.9 4.8
345(10) 0.00973 338.9 5.0
359(10) 0.00951 339.0 5.2
345(10) 0.01082 339.0 5.4
365(10) 0.00974 339.0 5.6
350(10) 0.00958 339.1 5.8
342(10) 0.01028 339.1 6.0
347(10) 0.01037 339.1 6.3
340(10) 0.01104 339.2 6.6
348(10) 0.01017 339.2 6.9
308(9) 0.01150 339.2 7.2
336(10) 0.00986 339.3 7.5
337(10) 0.01041 339.3 7.9
355(10) 0.01048 339.3 8.3
351(10) 0.01014 339.3 8.7
385(11) 0.00856 339.4 9.1
360(10) 0.00951 339.4 9.6
336(10) 0.01079 339.4 10.1
359(10) 0.01040 339.5 10.7
349(10) 0.00999 339.5 11.3
364(11) 0.00894 339.5 11.9
368(10) 0.00924 339.6 12.6
362(10) 0.01014 339.6 13.4
379(10) 0.00987 339.6 14.2
361(10) 0.00953 339.7 15.1
351(10) 0.00939 339.7 16.0
363(10) 0.00954 339.7 17.0
367(10) 0.01005 339.8 18.1
363(10) 0.01025 339.8 19.2
361(10) 0.00968 339.8 20.5
346(10) 0.00967 339.8 21.8
395(11) 0.00874 339.9 23.2
359(10) 0.01037 339.9 24.6
358(10) 0.01037 339.9 26.2
385(11) 0.00885 340.0 27.8
380(11) 0.00844 340.0 29.5
387(11) 0.00893 340.0 31.2
380(10) 0.00966 340.1 33.0
382(10) 0.00968 340.1 34.7
396(11) 0.00847 340.1 36.2
393(11) 0.00814 340.2 37.6
386(11) 0.00878 340.2 38.8
361(10) 0.01039 340.2 39.7
379(10) 0.00950 340.3 40.2
379(10) 0.00909 340.3 40.3
396(11) 0.00818 340.3 40.1
393(11) 0.00860 340.4 39.5
405(10) 0.00909 340.4 38.6
397(10) 0.00936 340.4 37.6
359(10) 0.01008 340.4 36.4
362(10) 0.00934 340.5 35.1
372(10) 0.00954 340.5 33.8
331(9) 0.01120 340.5 32.6
360(10) 0.00985 340.6 31.4
360(10) 0.00984 340.6 30.3
389(11) 0.00879 340.6 29.3
366(10) 0.00949 340.7 28.4
375(10) 0.01008 340.7 27.5
377(10) 0.00921 340.7 26.7
340(10) 0.01030 340.8 25.9
351(10) 0.00992 340.8 25.2
340(10) 0.01058 340.8 24.4
329(9) 0.01118 340.9 23.7
355(10) 0.01005 340.9 22.9
351(10) 0.00988 340.9 22.2
362(10) 0.00953 341.0 21.4
340(10) 0.01068 341.0 20.6
367(10) 0.00998 341.0 19.8
365(10) 0.00944 341.0 19.0
361(10) 0.00913 341.1 18.2
331(10) 0.01060 341.1 17.5
348(10) 0.01055 341.1 16.7
368(10) 0.01000 341.2 16.0
364(10) 0.00930 341.2 15.4
326(10) 0.01031 341.2 14.8
373(10) 0.00908 341.3 14.2
343(10) 0.01083 341.3 13.7
332(9) 0.01116 341.3 13.2
371(10) 0.00936 341.4 12.8
346(10) 0.00964 341.4 12.4
348(10) 0.00989 341.4 12.0
340(10) 0.01071 341.5 11.7
335(10) 0.01103 341.5 11.5
333(10) 0.01060 341.5 11.3
361(11) 0.00872 341.6 11.1
328(10) 0.01094 341.6 10.9
327(9) 0.01126 341.6 10.8
329(9) 0.01133 341.6 10.7
364(10) 0.00942 341.7 10.7
356(10) 0.00927 341.7 10.7
365(10) 0.00960 341.7 10.7
360(10) 0.01040 341.8 10.7
334(9) 0.01109 341.8 10.8
372(10) 0.00932 341.8 10.8
366(11) 0.00906 341.9 10.9
334(10) 0.01034 341.9 11.0
359(10) 0.01039 341.9 11.2
372(10) 0.00973 342.0 11.3
345(10) 0.01015 342.0 11.4
354(10) 0.00955 342.0 11.6
341(10) 0.01023 342.1 11.7
380(10) 0.00985 342.1 11.9
395(11) 0.00888 342.1 12.0
354(10) 0.00980 342.2 12.1
350(10) 0.00964 342.2 12.2
348(10) 0.00996 342.2 12.4
351(10) 0.01060 342.2 12.5
381(10) 0.00936 342.3 12.6
381(10) 0.00933 342.3 12.7
359(10) 0.00961 342.3 12.8
349(10) 0.00992 342.4 13.0
359(10) 0.01025 342.4 13.3
356(10) 0.00973 342.4 13.6
353(10) 0.00949 342.5 14.2
362(10) 0.00971 342.5 15.1
368(10) 0.00977 342.5 16.3
348(10) 0.01074 342.6 18.0
373(10) 0.00915 342.6 19.9
360(10) 0.00934 342.6 22.2
359(10) 0.00972 342.7 24.4
370(10) 0.00978 342.7 26.0
371(10) 0.01003 342.7 26.6
379(10) 0.00916 342.8 25.7
376(11) 0.00879 342.8 23.8
349(10) 0.01011 342.8 21.3
354(10) 0.01022 342.8 18.8
352(10) 0.01070 342.9 16.5
331(10) 0.01020 342.9 14.7
346(10) 0.00918 342.9 13.3
361(10) 0.00951 343.0 12.2
356(10) 0.01026 343.0 11.4
352(10) 0.01059 343.0 10.9
356(10) 0.00985 343.1 10.5
367(11) 0.00890 343.1 10.2
347(10) 0.01017 343.1 10.0
364(10) 0.01000 343.2 9.9
328(9) 0.01142 343.2 9.7
358(10) 0.00967 343.2 9.6
354(10) 0.00917 343.3 9.6
353(10) 0.00993 343.3 9.5
338(10) 0.01094 343.3 9.5
338(10) 0.01095 343.3 9.5
342(10) 0.01036 343.4 9.5
349(10) 0.00969 343.4 9.6
336(10) 0.01030 343.4 9.6
348(10) 0.01063 343.5 9.7
365(10) 0.00985 343.5 9.7
353(10) 0.00995 343.5 9.8
347(10) 0.00959 343.6 9.9
348(10) 0.00988 343.6 10.0
364(10) 0.01013 343.6 10.1
361(10) 0.01004 343.7 10.2
391(11) 0.00839 343.7 10.3
376(11) 0.00893 343.7 10.4
375(11) 0.00897 343.8 10.5
365(10) 0.01026 343.8 10.6
364(10) 0.00967 343.8 10.7
363(10) 0.00947 343.9 10.9
362(10) 0.00923 343.9 11.0
352(10) 0.00990 343.9 11.2
366(10) 0.01026 343.9 11.3
377(10) 0.00948 344.0 11.5
355(10) 0.00957 344.0 11.7
344(10) 0.01013 344.0 11.8
356(10) 0.01000 344.1 12.0
367(10) 0.01024 344.1 12.2
362(10) 0.00920 344.1 12.4
345(10) 0.00949 344.2 12.6
362(10) 0.00957 344.2 12.7
357(10) 0.00996 344.2 12.9
365(10) 0.01014 344.3 13.1
354(10) 0.00951 344.3 13.2
347(10) 0.00953 344.3 13.4
370(10) 0.00939 344.4 13.5
365(10) 0.00988 344.4 13.6
352(10) 0.01063 344.4 13.7
351(10) 0.01005 344.5 13.8
373(11) 0.00881 344.5 13.8
378(10) 0.00928 344.5 13.9
350(10) 0.01062 344.5 13.9
355(10) 0.01052 344.6 14.0
359(10) 0.00973 344.6 14.0
360(11) 0.00896 344.6 14.0
376(11) 0.00896 344.7 14.2
378(10) 0.00958 344.7 14.4
344(10) 0.01086 344.7 14.8
356(10) 0.00976 344.8 15.5
356(10) 0.00917 344.8 16.3
359(10) 0.00965 344.8 17.1
355(10) 0.01052 344.9 17.7
366(10) 0.00965 344.9 17.8
370(10) 0.00932 344.9 17.1
356(10) 0.00929 345.0 16.0
355(10) 0.00951 345.0 14.8
366(10) 0.01018 345.0 13.7
338(10) 0.01069 345.1 12.9
347(10) 0.00981 345.1 12.2
353(10) 0.00947 345.1 11.8
343(10) 0.01016 345.1 11.5
333(9) 0.01115 345.2 11.2
356(10) 0.01008 345.2 11.1
337(10) 0.01060 345.2 10.9
358(10) 0.00937 345.3 10.7
356(10) 0.00958 345.3 10.5
366(10) 0.01020 345.3 10.3
361(10) 0.00961 345.4 10.1
321(10) 0.01053 345.4 9.8
338(10) 0.00978 345.4 9.6
341(10) 0.01038 345.5 9.3
362(10) 0.01035 345.5 9.1
345(10) 0.01011 345.5 8.8
360(10) 0.00916 345.6 8.6
354(10) 0.00954 345.6 8.4
350(10) 0.01028 345.6 8.3
322(9) 0.01152 345.7 8.1
346(10) 0.01033 345.7 8.0
340(10) 0.01042 345.7 8.0
347(10) 0.00999 345.7 8.0
350(10) 0.01026 345.8 8.0
361(10) 0.01035 345.8 8.0
375(11) 0.00882 345.8 8.1
355(11) 0.00897 345.9 8.2
356(10) 0.00943 345.9 8.4
351(10) 0.01049 345.9 8.7
358(10) 0.01039 346.0 8.9
337(10) 0.01053 346.0 9.2
351(10) 0.00941 346.0 9.6
332(10) 0.01088 346.1 9.9
332(10) 0.01096 346.1 10.3
358(10) 0.01036 346.1 10.6
357(10) 0.00979 346.2 10.9
376(11) 0.00870 346.2 11.0
362(10) 0.00969 346.2 11.1
335(10) 0.01093 346.3 11.1
355(10) 0.01020 346.3 10.9
343(10) 0.01001 346.3 10.7
374(11) 0.00860 346.3 10.5
362(10) 0.00997 346.4 10.2
366(10) 0.01020 346.4 9.9
320(9) 0.01139 346.4 9.6
334(10) 0.01065 346.5 9.3
371(11) 0.00855 346.5 9.0
353(10) 0.00998 346.5 8.8
351(10) 0.01055 346.6 8.6
327(9) 0.01143 346.6 8.5
352(10) 0.00973 346.6 8.5
355(10) 0.00933 346.7 8.6
366(10) 0.00928 346.7 8.7
360(10) 0.01034 346.7 9.0
356(10) 0.00982 346.8 9.4
375(11) 0.00864 346.8 10.1
350(10) 0.00974 346.8 11.0
371(10) 0.00950 346.8 12.5
352(10) 0.01053 346.9 14.6
336(10) 0.01074 346.9 17.5
383(11) 0.00881 346.9 21.6
397(11) 0.00857 347.0 26.9
405(11) 0.00878 347.0 33.6
383(10) 0.00971 347.0 41.3
394(10) 0.00911 347.1 49.6
416(11) 0.00826 347.1 57.2
403(11) 0.00854 347.1 62.3
398(11) 0.00903 347.2 63.3
385(10) 0.00968 347.2 59.8
396(11) 0.00897 347.2 53.1
394(11) 0.00877 347.3 45.1
370(10) 0.00965 347.3 37.3
378(10) 0.00945 347.3 30.4
391(10) 0.00955 347.4 24.9
339(10) 0.01002 347.4 20.7
372(11) 0.00856 347.4 17.9
384(11) 0.00873 347.4 16.2
373(10) 0.00962 347.5 15.5
385(10) 0.00965 347.5 15.6
368(10) 0.00915 347.5 16.4
363(10) 0.00913 347.6 17.8
357(10) 0.00949 347.6 19.6
365(10) 0.00983 347.6 21.5
375(10) 0.00999 347.7 23.2
375(11) 0.00906 347.7 24.1
380(11) 0.00837 347.7 23.8
370(10) 0.00945 347.8 22.3
376(10) 0.00992 347.8 20.1
367(10) 0.01001 347.8 17.7
352(10) 0.00964 347.9 15.3
335(10) 0.00924 347.9 13.3
337(10) 0.01020 347.9 11.6
347(10) 0.01061 348.0 10.2
337(10) 0.01073 348.0 9.1
359(10) 0.00975 348.0 8.3
368(11) 0.00884 348.0 7.7
323(10) 0.01060 348.1 7.2
338(10) 0.01101 348.1 6.9
360(10) 0.01022 348.1 6.5
355(10) 0.00997 348.2 6.2
363(10) 0.00910 348.2 6.0
372(10) 0.00942 348.2 5.7
344(10) 0.01080 348.3 5.5
344(10) 0.01008 348.3 5.3
323(10) 0.01090 348.3 5.1
338(10) 0.01024 348.4 4.9
338(10) 0.01035 348.4 4.7
349(10) 0.01068 348.4 4.6
359(10) 0.01002 348.5 4.4
361(10) 0.00959 348.5 4.2
364(10) 0.00909 348.5 4.1
344(10) 0.00997 348.6 3.9
348(10) 0.01076 348.6 3.8
316(9) 0.01120 348.6 3.6
331(10) 0.01032 348.6 3.5
349(10) 0.00962 348.6 3.4
386(10) 0.00916 348.6 3.3
354(10) 0.01049 348.6 3.2
350(10) 0.01006 348.6 3.1
351(10) 0.00983 348.6 3.0
350(10) 0.00981 348.6 2.9
344(10) . . .
338(10) . . .
323(10) . . .
340(10) . . .
346(10) . . .
352(10) . . .
357(10) . . .
346(10) . . .
337(10) . . .
339(10) . . .
364(10) . . .
354(10) . . .
306(9) . . .
336(10) . . .
360(10) . . .
347(10) . . .
333(9) . . .
342(10) . . .
340(10) . . .
346(10) . . .
346(10) . . .
339(9) . . .
335(10) . . .
345(10) . . .
324(10) . . .
365(10) . . .
337(10) . . .
355(10) . . .
323(10) . . .
347(10) . . .
326(9) . . .
338(10) . . .
360(10) . . .
372(11) . . .
340(10) . . .
322(9) . . .
329(10) . . .
353(10) . . .
331(10) . . .
345(10) . . .
363(10) . . .
336(10) . . .
348(10) . . .
332(10) . . .
351(10) . . .
341(10) . . .
343(10) . . .
342(10) . . .
329(10) . . .
341(10) . . .
318(9) . . .
315(10) . . .
358(10) . . .
328(10) . . .
336(10) . . .
353(10) . . .
337(10) . . .
344(10) . . .
357(10) . . .
343(10) . . .
376(10) . . .
345(10) . . .
345(10) . . .
359(10) . . .
309(9) . . .
337(10) . . .
349(10) . . .
335(10) . . .
336(10) . . .
348(10) . . .
315(9) . . .
326(10) . . .
320(10) . . .
335(10) . . .
354(10) . . .
323(9) . . .
334(10) . . .
351(10) . . .
329(10) . . .
344(10) . . .
333(10) . . .
342(10) . . .
321(10) . . .
363(10) . . .
322(9) . . .
363(10) . . .
334(10) . . .
328(10) . . .
352(10) . . .
354(10) . . .
348(10) . . .
366(10) . . .
342(10) . . .
323(10) . . .
339(10) . . .
314(9) . . .
361(10) . . .
344(10) . . .
329(10) . . .
357(10) . . .
345(10) . . .
353(10) . . .
354(10) . . .
373(10) . . .
349(10) . . .
330(10) . . .
373(11) . . .
372(10) . . .
328(9) . . .
361(10) . . .
329(10) . . .
350(10) . . .
348(10) . . .
326(9) . . .
327(9) . . .
338(10) . . .
343(10) . . .
339(10) . . .
352(10) . . .
359(10) . . .
368(10) . . .
341(10) . . .
375(10) . . .
355(10) . . .
362(10) . . .
366(10) . . .
361(11) . . .
378(11) . . .
349(10) . . .
348(10) . . .
353(10) . . .
338(10) . . .
356(10) . . .
375(10) . . .
341(10) . . .
345(10) . . .
367(11) . . .
370(10) . . .
331(9) . . .
348(10) . . .
361(10) . . .
355(10) . . .
367(10) . . .
363(10) . . .
371(10) . . .
364(10) . . .
374(10) . . .
377(10) . . .
363(10) . . .
380(10) . . .
371(11) . . .
337(10) . . .
363(10) . . .
365(10) . . .
348(10) . . .
355(10) . . .
339(10) . . .
331(9) . . .
358(10) . . .
355(10) . . .
365(11) . . .
360(10) . . .
359(10) . . .
367(10) . . .
350(10) . . .
357(10) . . .
369(11) . . .
330(10) . . .
350(10) . . .
356(10) . . .
393(11) . . .
371(10) . . .
354(10) . . .
336(10) . . .
352(10) . . .
345(10) . . .
320(10) . . .
355(10) . . .
361(10) . . .
369(10) . . .
325(10) . . .
356(10) . . .
323(9) . . .
362(10) . . .
353(10) . . .
331(10) . . .
347(10) . . .
343(10) . . .
357(10) . . .
340(10) . . .
326(10) . . .
344(10) . . .
348(10) . . .
335(10) . . .
332(10) . . .
332(10) . . .
326(10) . . .
342(10) . . .
330(10) . . .
340(10) . . .
314(10) . . .
340(10) . . .
341(10) . . .
343(10) . . .
339(10) . . .
332(10) . . .
340(10) . . .
338(10) . . .
336(10) . . .
337(10) . . .
327(10) . . .
346(10) . . .
344(10) . . .
339(10) . . .
342(10) . . .
327(10) . . .
332(10) . . .
363(10) . . .
341(10) . . .
338(10) . . .
382(11) . . .
376(10) . . .
359(10) . . .
351(10) . . .
362(11) . . .
349(10) . . .
342(10) . . .
339(10) . . .
341(10) . . .
355(10) . . .
360(10) . . .
350(10) . . .
345(10) . . .
333(10) . . .
328(10) . . .
371(10) . . .
333(9) . . .
313(9) . . .
349(10) . . .
322(10) . . .
315(9) . . .
338(10) . . .
324(10) . . .
314(10) . . .
332(10) . . .
332(10) . . .
347(10) . . .
357(10) . . .
363(10) . . .
352(10) . . .
350(10) . . .
352(10) . . .
374(10) . . .
350(10) . . .
334(10) . . .
346(10) . . .
330(9) . . .
362(10) . . .
376(11) . . .
375(10) . . .
354(10) . . .
400(10) . . .
361(10) . . .
391(11) . . .
385(10) . . .
417(11) . . .
408(10) . . .
403(11) . . .
391(11) . . .
414(11) . . .
388(10) . . .
406(10) . . .
448(12) . . .
393(11) . . .
402(11) . . .
419(11) . . .
417(11) . . .
420(11) . . .
419(11) . . .
407(11) . . .
404(10) . . .
414(11) . . .
389(11) . . .
387(11) . . .
362(10) . . .
343(10) . . .
356(10) . . .
344(10) . . .
361(10) . . .
353(10) . . .
355(10) . . .
355(10) . . .
344(10) . . .
357(10) . . .
317(10) . . .
326(9) . . .
364(10) . . .
367(10) . . .
321(10) . . .
329(10) . . .
352(10) . . .
316(9) . . .
330(10) . . .
326(10) . . .
331(9) . . .
337(10) . . .
331(10) . . .
318(10) . . .
332(10) . . .
323(9) . . .
336(10) . . .
344(10) . . .
327(10) . . .
321(10) . . .
322(9) . . .
324(9) . . .
344(10) . . .
300(10) . . .
304(9) . . .
334(9) . . .
354(10) . . .
323(10) . . .
308(10) . . .
320(10) . . .
329(9) . . .
322(9) . . .
345(10) . . .
335(10) . . .
331(10) . . .
347(10) . . .
285(9) . . .
316(9) . . .
320(10) . . .
333(10) . . .
334(10) . . .
300(9) . . .
356(10) . . .
317(10) . . .
335(10) . . .
346(10) . . .
333(10) . . .
312(9) . . .
358(10) . . .
311(9) . . .
330(9) . . .
335(10) . . .
314(10) . . .
329(10) . . .
336(10) . . .
317(9) . . .
322(10) . . .
322(10) . . .
348(10) . . .
338(10) . . .
351(10) . . .
353(10) . . .
349(10) . . .
365(10) . . .
368(10) . . .
340(10) . . .
335(10) . . .
349(10) . . .
304(9) . . .
333(9) . . .
320(9) . . .
326(10) . . .
351(10) . . .
327(10) . . .
311(9) . . .
323(9) . . .
340(10) . . .
321(10) . . .
338(10) . . .
339(10) . . .
326(9) . . .
316(9) . . .
312(10) . . .
321(10) . . .
315(9) . . .
329(9) . . .
318(10) . . .
331(10) . . .
342(10) . . .
320(9) . . .
327(9) . . .
325(10) . . .
324(10) . . .
327(10) . . .
335(10) . . .
345(10) . . .
294(9) . . .
316(10) . . .
327(10) . . .
329(9) . . .
316(10) . . .
321(10) . . .
330(10) . . .
322(10) . . .
353(10) . . .
320(10) . . .
337(10) . . .
305(9) . . .
308(9) . . .
323(9) . . .
329(10) . . .
313(9) . . .
307(9) . . .
324(9) . . .
274(9) . . .
311(10) . . .
313(10) . . .
318(9) . . .
320(9) . . .
323(9) . . .
327(10) . . .
318(10) . . .
327(10) . . .
337(10) . . .
342(10) . . .
329(10) . . .
326(10) . . .
315(9) . . .
323(9) . . .
324(9) . . .
340(10) . . .
328(10) . . .
323(10) . . .
301(9) . . .
308(9) . . .
325(10) . . .
330(10) . . .
317(10) . . .
326(9) . . .
329(10) . . .
330(10) . . .
349(10) . . .
327(10) . . .
350(10) . . .
320(9) . . .
346(10) . . .
337(10) . . .
316(10) . . .
327(9) . . .
356(10) . . .
365(10) . . .
348(10) . . .
348(10) . . .
350(10) . . .
332(10) . . .
349(10) . . .
354(10) . . .
361(10) . . .
373(10) . . .
359(10) . . .
349(10) . . .
360(10) . . .
362(10) . . .
333(9) . . .
328(10) . . .
338(10) . . .
338(10) . . .
336(10) . . .
332(10) . . .
367(10) . . .
358(10) . . .
350(10) . . .
354(10) . . .
350(10) . . .
365(10) . . .
343(10) . . .
324(10) . . .
319(9) . . .
337(9) . . .
375(10) . . .
384(11) . . .
392(11) . . .
356(10) . . .
396(10) . . .
379(10) . . .
379(11) . . .
378(10) . . .
367(10) . . .
356(10) . . .
387(11) . . .
362(10) . . .
357(10) . . .
376(10) . . .
365(10) . . .
326(10) . . .
351(10) . . .
333(10) . . .
342(10) . . .
339(10) . . .
316(10) . . .
317(10) . . .
303(9) . . .
322(9) . . .
300(9) . . .
313(10) . . .
329(10) . . .
331(10) . . .
317(9) . . .
327(10) . . .
313(10) . . .
334(10) . . .
323(10) . . .
320(9) . . .
289(9) . . .
313(10) . . .
285(9) . . .
308(9) . . .
306(9) . . .
310(9) . . .
317(10) . . .
292(9) . . .
298(9) . . .
304(9) . . .
293(9) . . .
305(10) . . .
323(10) . . .
303(9) . . .
324(9) . . .
321(10) . . .
321(10) . . .
314(9) . . .
320(9) . . .
301(9) . . .
287(9) . . .
305(10) . . .
313(9) . . .
337(10) . . .
315(9) . . .
315(9) . . .
303(10) . . .
316(10) . . .
301(9) . . .
291(9) . . .
295(9) . . .
293(9) . . .
310(9) . . .
289(9) . . .
316(9) . . .
323(10) . . .
303(9) . . .
281(9) . . .
297(9) . . .
303(9) . . .
325(10) . . .
298(10) . . .
286(9) . . .
291(9) . . .
298(9) . . .
303(9) . . .
318(10) . . .
292(9) . . .
305(9) . . .
310(10) . . .
305(10) . . .
282(9) . . .
306(9) . . .
312(9) . . .
324(10) . . .
272(9) . . .
301(9) . . .
284(9) . . .
321(9) . . .
315(10) . . .
304(10) . . .
311(10) . . .
308(9) . . .
308(9) . . .
323(10) . . .
326(10) . . .
300(9) . . .
313(9) . . .
313(9) . . .
307(9) . . .
299(10) . . .
327(10) . . .
323(9) . . .
282(9) . . .
281(9) . . .
319(10) . . .
294(9) . . .
294(9) . . .
311(9) . . .
339(10) . . .
310(9) . . .
311(9) . . .
296(9) . . .
329(10) . . .
328(10) . . .
299(9) . . .
302(9) . . .
290(9) . . .
312(9) . . .
316(10) . . .
332(10) . . .
306(9) . . .
270(9) . . .
316(10) . . .
316(10) . . .
297(9) . . .
319(9) . . .
277(9) . . .
317(10) . . .
309(10) . . .
317(10) . . .
301(9) . . .
310(9) . . .
308(9) . . .
315(10) . . .
303(9) . . .
284(9) . . .
287(9) . . .
277(9) . . .
294(9) . . .
303(9) . . .
299(9) . . .
296(9) . . .
310(9) . . .
302(10) . . .
289(9) . . .
288(9) . . .
292(9) . . .
300(9) . . .
286(9) . . .
291(9) . . .
285(9) . . .
285(9) . . .
292(9) . . .
272(9) . . .
305(9) . . .
308(9) . . .
296(9) . . .
289(9) . . .
276(9) . . .
293(9) . . .
294(9) . . .
298(9) . . .
324(10) . . .
297(9) . . .
288(9) . . .
299(9) . . .
294(9) . . .
306(9) . . .
324(10) . . .
309(9) . . .
300(9) . . .
303(9) . . .
279(9) . . .
312(9) . . .
340(10) . . .
324(9) . . .
338(10) . . .
361(10) . . .
338(10) . . .
344(10) . . .
332(9) . . .
308(10) . . .
314(10) . . .
346(10) . . .
339(10) . . .
332(10) . . .
310(9) . . .
327(10) . . .
289(9) . . .
295(9) . . .
303(9) . . .
274(9) . . .
294(9) . . .
341(10) . . .
313(9) . . .
317(9) . . .
320(10) . . .
320(10) . . .
300(9) . . .
326(9) . . .
304(9) . . .
293(9) . . .
317(10) . . .
298(9) . . .
313(9) . . .
310(9) . . .
372(10) . . .
368(11) . . .
334(10) . . .
325(9) . . .
357(10) . . .
321(9) . . .
336(10) . . .
316(9) . . .
314(9) . . .
309(9) . . .
278(9) . . .
284(9) . . .
303(9) . . .
308(9) . . .
313(9) . . .
307(10) . . .
257(8) . . .
285(9) . . .
299(9) . . .
293(9) . . .
283(9) . . .
296(9) . . .
278(9) . . .
288(9) . . .
281(9) . . .
299(9) . . .
306(9) . . .
290(9) . . .
309(9) . . .
303(9) . . .
314(10) . . .
289(9) . . .
301(9) . . .
291(9) . . .
284(9) . . .
292(9) . . .
317(10) . . .
269(9) . . .
306(9) . . .
272(9) . . .
286(9) . . .
311(9) . . .
324(9) . . .
290(9) . . .
276(9) . . .
274(9) . . .
285(9) . . .
264(8) . . .
268(9) . . .
306(9) . . .
302(10) . . .
291(9) . . .
292(9) . . .
301(9) . . .
286(9) . . .
281(9) . . .
278(9) . . .
268(9) . . .
306(9) . . .
318(10) . . .
291(9) . . .
277(9) . . .
284(9) . . .
296(9) . . .
285(9) . . .
279(9) . . .
273(9) . . .
288(9) . . .
284(9) . . .
280(9) . . .
273(9) . . .
270(9) . . .
299(9) . . .
301(9) . . .
311(10) . . .
294(9) . . .
292(9) . . .
307(9) . . .
298(9) . . .
281(9) . . .
292(9) . . .
261(8) . . .
292(9) . . .
275(9) . . .
291(9) . . .
281(9) . . .
278(9) . . .
282(9) . . .
289(9) . . .
290(10) . . .
288(9) . . .
267(9) . . .
294(9) . . .
290(9) . . .
282(9) . . .
283(9) . . .
272(9) . . .
302(9) . . .
279(9) . . .
312(10) . . .
299(9) . . .
285(9) . . .
292(9) . . .
302(9) . . .
289(9) . . .
281(9) . . .
298(9) . . .
281(9) . . .
277(9) . . .
310(10) . . .
279(9) . . .
293(9) . . .
267(9) . . .
290(9) . . .
296(9) . . .
303(9) . . .
264(8) . . .
299(9) . . .
320(10) . . .
306(10) . . .
299(9) . . .
319(9) . . .
288(9) . . .
318(10) . . .
306(10) . . .
306(9) . . .
301(9) . . .
307(10) . . .
311(10) . . .
293(9) . . .
321(9) . . .
307(9) . . .
302(9) . . .
287(10) . . .
300(9) . . .
304(9) . . .
308(9) . . .
285(9) . . .
293(10) . . .
265(9) . . .
285(9) . . .
295(9) . . .
312(9) . . .
290(9) . . .
312(9) . . .
294(9) . . .
275(9) . . .
306(9) . . .
287(9) . . .
293(9) . . .
282(9) . . .
285(9) . . .
293(9) . . .
302(10) . . .
272(9) . . .
294(9) . . .
296(9) . . .
302(9) . . .
302(9) . . .
296(9) . . .
302(9) . . .
321(10) . . .
286(9) . . .
281(9) . . .
293(9) . . .
301(9) . . .
300(9) . . .
306(9) . . .
306(10) . . .
304(9) . . .
297(9) . . .
290(9) . . .
289(9) . . .
297(9) . . .
310(9) . . .
312(9) . . .
307(10) . . .
306(10) . . .
303(9) . . .
335(10) . . .
319(9) . . .
308(9) . . .
320(10) . . .
309(9) . . .
306(9) . . .
308(9) . . .
297(9) . . .
299(10) . . .
308(9) . . .
303(9) . . .
289(9) . . .
303(9) . . .
297(10) . . .
265(9) . . .
284(9) . . .
269(9) . . .
281(9) . . .
313(10) . . .
280(9) . . .
282(9) . . .
281(9) . . .
302(9) . . .
286(9) . . .
290(9) . . .
258(8) . . .
272(9) . . .
273(9) . . .
276(9) . . .
274(9) . . .
277(9) . . .
251(8) . . .
261(9) . . .
276(9) . . .
272(9) . . .
289(9) . . .
298(9) . . .
265(9) . . .
266(9) . . .
274(9) . . .
304(9) . . .
293(9) . . .
272(9) . . .
258(9) . . .
262(9) . . .
256(8) . . .
251(8) . . .
259(9) . . .
268(9) . . .
250(8) . . .
254(8) . . .
279(9) . . .
246(8) . . .
275(9) . . .
259(8) . . .
255(8) . . .
256(9) . . .
267(9) . . .
275(9) . . .
270(9) . . .
253(8) . . .
249(8) . . .
242(9) . . .
278(9) . . .
253(8) . . .
262(8) . . .
266(9) . . .
268(9) . . .
269(9) . . .
240(8) . . .
269(9) . . .
292(9) . . .
269(9) . . .
264(9) . . .
295(9) . . .
274(9) . . .
248(8) . . .
274(9) . . .
278(9) . . .
265(9) . . .
238(8) . . .
262(9) . . .
258(9) . . .
260(9) . . .
247(8) . . .
251(9) . . .
250(9) . . .
238(8) . . .
281(9) . . .
262(8) . . .
265(9) . . .
279(9) . . .
254(9) . . .
273(9) . . .
255(8) . . .
269(9) . . .
250(9) . . .
252(9) . . .
257(9) . . .
252(8) . . .
270(9) . . .
266(9) . . .
266(9) . . .
252(8) . . .
260(8) . . .
258(9) . . .
272(9) . . .
271(9) . . .
265(8) . . .
273(9) . . .
269(9) . . .
251(9) . . .
263(9) . . .
241(8) . . .
262(8) . . .
295(9) . . .
247(9) . . .
269(9) . . .
260(8) . . .
244(8) . . .
261(9) . . .
255(9) . . .
247(9) . . .
281(9) . . .
289(9) . . .
269(9) . . .
278(9) . . .
260(9) . . .
270(9) . . .
225(8) . . .
249(8) . . .
262(9) . . .
259(9) . . .
259(8) . . .
264(9) . . .
294(9) . . .
269(9) . . .
236(8) . . .
243(8) . . .
242(8) . . .
259(9) . . .
248(8) . . .
251(8) . . .
255(8) . . .
255(8) . . .
274(9) . . .
277(9) . . .
252(8) . . .
260(8) . . .
252(8) . . .
272(9) . . .
263(9) . . .
253(8) . . .
253(8) . . .
259(9) . . .
274(9) . . .
266(9) . . .
281(9) . . .
266(9) . . .
265(9) . . .
271(9) . . .
288(9) . . .
259(8) . . .
251(8) . . .
263(9) . . .
256(9) . . .
267(9) . . .
278(9) . . .
261(8) . . .
246(8) . . .
244(9) . . .
254(8) . . .
265(8) . . .
280(9) . . .
269(9) . . .
268(9) . . .
266(9) . . .
262(8) . . .
242(8) . . .
260(9) . . .
266(9) . . .
260(9) . . .
268(9) . . .
271(9) . . .
286(9) . . .
260(9) . . .
278(9) . . .
272(9) . . .
262(8) . . .
270(9) . . .
271(9) . . .
260(8) . . .
265(8) . . .
266(9) . . .
248(8) . . .
270(9) . . .
254(8) . . .
236(8) . . .
237(8) . . .
260(9) . . .
268(9) . . .
233(8) . . .
262(8) . . .
263(9) . . .
260(9) . . .
259(8) . . .
273(9) . . .
236(8) . . .
262(9) . . .
252(9) . . .
251(9) . . .
234(8) . . .
247(8) . . .
233(8) . . .
273(9) . . .
281(9) . . .
249(8) . . .
262(8) . . .
264(9) . . .
267(9) . . .
253(8) . . .
235(8) . . .
248(8) . . .
244(8) . . .
240(9) . . .
256(9) . . .
246(8) . . .
264(8) . . .
253(9) . . .
258(9) . . .
258(9) . . .
260(8) . . .
254(8) . . .
251(9) . . .
235(8) . . .
252(8) . . .
229(8) . . .
247(8) . . .
238(8) . . .
241(8) . . .
249(8) . . .
252(8) . . .
251(8) . . .
258(9) . . .
233(8) . . .
231(8) . . .
247(8) . . .
266(9) . . .
260(9) . . .
254(9) . . .
227(8) . . .
252(8) . . .
252(9) . . .
254(9) . . .
233(8) . . .
226(8) . . .
224(8) . . .
257(9) . . .
262(9) . . .
243(9) . . .
266(9) . . .
245(8) . . .
239(8) . . .
261(9) . . .
263(9) . . .
249(8) . . .
259(8) . . .
257(9) . . .
246(9) . . .
244(8) . . .
245(8) . . .
252(8) . . .
269(9) . . .
242(8) . . .
259(9) . . .
259(8) . . .
266(9) . . .
256(9) . . .
226(8) . . .
243(9) . . .
242(8) . . .
269(9) . . .
255(9) . . .
268(9) . . .
263(9) . . .
258(8) . . .
260(8) . . .
269(9) . . .
271(9) . . .
264(9) . . .
258(8) . . .
235(8) . . .
240(8) . . .
247(9) . . .
257(8) . . .
226(8) . . .
227(8) . . .
237(9) . . .
232(8) . . .
242(8) . . .
228(8) . . .
247(8) . . .
234(8) . . .
252(9) . . .
254(8) . . .
242(8) . . .
246(9) . . .
251(9) . . .
241(8) . . .
232(8) . . .
256(8) . . .
239(8) . . .
212(8) . . .
249(9) . . .
213(8) . . .
238(8) . . .
243(8) . . .
227(8) . . .
242(8) . . .
243(8) . . .
243(8) . . .
229(8) . . .
244(9) . . .
251(9) . . .
245(8) . . .
260(9) . . .
248(8) . . .
242(9) . . .
237(8) . . .
246(8) . . .
226(8) . . .
239(8) . . .
240(8) . . .
240(8) . . .
262(8) . . .
268(9) . . .
247(9) . . .
242(8) . . .
237(8) . . .
250(8) . . .
254(8) . . .
214(8) . . .
236(9) . . .
230(8) . . .
238(8) . . .
230(8) . . .
224(8) . . .
233(8) . . .
246(8) . . .
245(8) . . .
239(8) . . .
242(8) . . .
239(8) . . .
234(8) . . .
252(8) . . .
251(9) . . .
209(8) . . .
243(8) . . .
273(9) . . .
247(8) . . .
235(8) . . .
216(8) . . .
232(8) . . .
265(8) . . .
244(8) . . .
239(8) . . .
259(9) . . .
250(8) . . .
235(8) . . .
240(8) . . .
248(9) . . .
264(9) . . .
239(8) . . .
236(8) . . .
258(8) . . .
248(9) . . .
236(8) . . .
248(9) . . .
261(8) . . .
241(8) . . .
212(8) . . .
236(8) . . .
244(8) . . .
246(8) . . .
231(8) . . .
246(8) . . .
235(8) . . .
224(8) . . .
245(8) . . .
241(8) . . .
223(8) . . .
245(9) . . .
233(8) . . .
252(8) . . .
258(8) . . .
234(9) . . .
234(8) . . .
237(8) . . .
237(8) . . .
243(8) . . .
244(9) . . .
232(8) . . .
240(8) . . .
222(8) . . .
222(8) . . .
249(9) . . .
243(8) . . .
218(8) . . .
245(8) . . .
245(8) . . .
239(9) . . .
240(8) . . .
228(8) . . .
252(8) . . .
246(8) . . .
226(8) . . .
244(8) . . .
231(8) . . .
233(8) . . .
232(8) . . .
248(9) . . .
257(9) . . .
249(8) . . .
259(8) . . .
267(9) . . .
271(9) . . .
275(9) . . .
266(8) . . .
255(8) . . .
275(9) . . .
287(10) . . .
290(9) . . .
301(9) . . .
302(9) . . .
296(9) . . .
289(9) . . .
269(9) . . .
260(8) . . .
268(9) . . .
253(9) . . .
268(9) . . .
254(8) . . .
245(8) . . .
276(9) . . .
243(8) . . .
268(9) . . .
256(9) . . .
262(8) . . .
258(9) . . .
274(9) . . .
243(8) . . .
266(9) . . .
278(9) . . .
253(9) . . .
248(9) . . .
236(8) . . .
247(8) . . .
268(9) . . .
261(9) . . .
242(8) . . .
258(9) . . .
256(8) . . .
237(8) . . .
248(8) . . .
239(9) . . .
235(8) . . .
242(8) . . .
260(8) . . .
230(8) . . .
235(8) . . .
264(9) . . .
267(8) . . .
287(9) . . .
253(8) . . .
234(8) . . .
240(8) . . .
269(8) . . .
243(8) . . .
251(8) . . .
240(9) . . .
250(9) . . .
264(8) . . .
266(9) . . .
259(9) . . .
259(9) . . .
241(8) . . .
260(8) . . .
269(9) . . .
244(8) . . .
232(8) . . .
226(8) . . .
239(8) . . .
256(8) . . .
216(8) . . .
231(8) . . .
248(8) . . .
248(8) . . .
253(9) . . .
238(8) . . .
231(8) . . .
256(8) . . .
243(8) . . .
245(9) . . .
220(8) . . .
241(8) . . .
256(8) . . .
252(8) . . .
232(8) . . .
239(9) . . .
239(8) . . .
243(8) . . .
244(8) . . .
246(8) . . .
231(8) . . .
239(8) . . .
257(8) . . .
236(8) . . .
226(8) . . .
245(9) . . .
250(8) . . .
235(8) . . .
247(8) . . .
274(9) . . .
287(9) . . .
285(9) . . .
249(8) . . .
230(8) . . .
242(8) . . .
260(9) . . .
258(9) . . .
247(8) . . .
251(8) . . .
225(8) . . .
262(9) . . .
259(9) . . .
238(8) . . .
260(9) . . .
246(8) . . .
247(9) . . .
254(9) . . .
267(8) . . .
247(9) . . .
230(8) . . .
239(8) . . .
263(9) . . .
260(8) . . .
239(8) . . .
246(8) . . .
263(9) . . .
248(8) . . .
237(8) . . .
268(9) . . .
271(9) . . .
238(8) . . .
257(8) . . .
268(8) . . .
258(8) . . .
244(8) . . .
264(9) . . .
270(9) . . .
257(8) . . .
276(9) . . .
247(9) . . .
283(9) . . .
269(8) . . .
262(8) . . .
279(9) . . .
266(9) . . .
249(8) . . .
272(8) . . .
272(9) . . .
245(9) . . .
259(9) . . .
252(8) . . .
237(8) . . .
239(8) . . .
241(8) . . .
245(9) . . .
227(8) . . .
241(8) . . .
255(8) . . .
237(8) . . .
232(8) . . .
223(8) . . .
230(8) . . .
245(8) . . .
238(8) . . .
232(8) . . .
209(8) . . .
230(8) . . .
249(8) . . .
248(9) . . .
225(8) . . .
250(8) . . .
231(8) . . .
237(8) . . .
244(9) . . .
255(9) . . .
245(8) . . .
241(8) . . .
258(9) . . .
245(8) . . .
257(9) . . .
256(8) . . .
246(8) . . .
225(8) . . .
214(8) . . .
215(8) . . .
228(8) . . .
229(8) . . .
232(8) . . .
239(9) . . .
246(8) . . .
246(8) . . .
236(8) . . .
246(9) . . .
226(8) . . .
218(8) . . .
252(8) . . .
215(8) . . .
217(8) . . .
224(8) . . .
220(8) . . .
226(8) . . .
247(8) . . .
234(8) . . .
231(8) . . .
228(8) . . .
207(7) . . .
239(8) . . .
214(8) . . .
216(8) . . .
233(8) . . .
229(8) . . .
242(8) . . .
226(8) . . .
225(8) . . .
251(9) . . .
232(8) . . .
235(8) . . .
219(8) . . .
228(8) . . .
239(8) . . .
214(8) . . .
232(8) . . .
231(8) . . .
223(8) . . .
226(8) . . .
217(8) . . .
222(8) . . .
225(8) . . .
230(8) . . .
241(8) . . .
250(8) . . .
243(8) . . .
251(9) . . .
217(8) . . .
248(8) . . .
213(8) . . .
239(8) . . .
250(9) . . .
242(8) . . .
234(8) . . .
235(8) . . .
236(8) . . .
227(8) . . .
229(8) . . .
229(8) . . .
237(8) . . .
236(8) . . .
228(9) . . .
209(8) . . .
256(8) . . .
210(8) . . .
205(8) . . .
234(8) . . .
220(8) . . .
252(8) . . .
206(8) . . .
223(8) . . .
245(9) . . .
203(8) . . .
229(8) . . .
209(8) . . .
212(8) . . .
235(9) . . .
240(8) . . .
235(8) . . .
213(8) . . .
229(8) . . .
214(8) . . .
215(8) . . .
226(8) . . .
223(8) . . .
238(8) . . .
239(8) . . .
226(8) . . .
227(8) . . .
250(9) . . .
232(8) . . .
215(8) . . .
237(8) . . .
223(8) . . .
236(8) . . .
244(9) . . .
213(8) . . .
210(8) . . .
215(8) . . .
232(8) . . .
234(8) . . .
228(8) . . .
227(8) . . .
213(8) . . .
232(8) . . .
219(8) . . .
218(8) . . .
254(8) . . .
234(8) . . .
227(8) . . .
237(9) . . .
244(8) . . .
240(8) . . .
226(8) . . .
231(8) . . .
243(9) . . .
214(8) . . .
227(8) . . .
222(8) . . .
227(8) . . .
201(8) . . .
232(8) . . .
221(8) . . .
236(8) . . .
229(8) . . .
218(8) . . .
231(8) . . .
245(8) . . .
233(8) . . .
215(8) . . .
205(8) . . .
200(7) . . .
196(7) . . .
229(8) . . .
212(8) . . .
214(8) . . .
219(8) . . .
212(8) . . .
225(8) . . .
242(9) . . .
198(8) . . .
209(8) . . .
234(8) . . .
229(8) . . .
224(8) . . .
226(8) . . .
206(8) . . .
227(8) . . .
229(8) . . .
220(8) . . .
214(8) . . .
232(8) . . .
220(8) . . .
200(7) . . .
232(9) . . .
240(8) . . .
230(8) . . .
211(7) . . .
249(9) . . .
214(8) . . .
226(8) . . .
250(8) . . .
224(8) . . .
231(8) . . .
232(8) . . .
258(9) . . .
218(8) . . .
243(8) . . .
223(8) . . .
235(8) . . .
256(8) . . .
233(8) . . .
234(8) . . .
237(8) . . .
236(8) . . .
224(8) . . .
259(8) . . .
232(8) . . .
233(8) . . .
258(9) . . .
245(8) . . .
260(8) . . .
230(8) . . .
235(8) . . .
240(9) . . .
238(8) . . .
250(8) . . .
215(8) . . .
235(9) . . .
240(8) . . .
254(8) . . .
220(8) . . .
241(8) . . .
234(8) . . .
230(8) . . .
213(8) . . .
216(8) . . .
233(8) . . .
221(8) . . .
229(8) . . .
222(8) . . .
222(8) . . .
210(8) . . .
233(9) . . .
228(8) . . .
233(8) . . .
240(8) . . .
236(8) . . .
231(9) . . .
230(8) . . .
222(8) . . .
218(8) . . .
197(7) . . .
226(8) . . .
224(8) . . .
231(8) . . .
237(8) . . .
222(8) . . .
221(8) . . .
216(8) . . .
229(8) . . .
211(8) . . .
229(8) . . .
223(8) . . .
220(8) . . .
202(7) . . .
221(8) . . .
216(8) . . .
223(8) . . .
212(8) . . .
218(8) . . .
206(8) . . .
220(8) . . .
191(8) . . .
222(8) . . .
232(8) . . .
214(8) . . .
209(8) . . .
215(8) . . .
226(8) . . .
212(8) . . .
229(8) . . .
226(8) . . .
223(8) . . .
219(8) . . .
236(8) . . .
218(8) . . .
210(8) . . .
213(8) . . .
212(8) . . .
196(7) . . .
214(8) . . .
209(8) . . .
201(8) . . .
205(7) . . .
210(8) . . .
210(8) . . .
220(8) . . .
215(8) . . .
230(8) . . .
221(8) . . .
211(8) . . .
203(8) . . .
211(8) . . .
222(8) . . .
215(8) . . .
216(8) . . .
224(8) . . .
218(8) . . .
218(8) . . .
195(7) . . .
212(8) . . .
216(8) . . .
233(8) . . .
208(7) . . .
214(8) . . .
208(8) . . .
202(8) . . .
218(8) . . .
241(8) . . .
219(8) . . .
221(8) . . .
217(8) . . .
208(8) . . .
219(8) . . .
211(8) . . .
214(8) . . .
217(8) . . .
204(8) . . .
213(8) . . .
211(8) . . .
201(8) . . .
227(8) . . .
221(8) . . .
209(8) . . .
225(8) . . .
224(8) . . .
216(8) . . .
214(8) . . .
216(8) . . .
216(8) . . .
210(8) . . .
205(8) . . .
239(8) . . .
220(8) . . .
222(8) . . .
236(9) . . .
237(8) . . .
227(8) . . .
214(8) . . .
225(8) . . .
219(8) . . .
220(8) . . .
210(8) . . .
202(7) . . .
219(8) . . .
218(8) . . .
239(8) . . .
243(8) . . .
206(8) . . .
193(7) . . .
219(8) . . .
215(8) . . .
204(7) . . .
221(8) . . .
206(8) . . .
218(8) . . .
213(8) . . .
230(8) . . .
230(8) . . .
223(8) . . .
205(8) . . .
217(8) . . .
207(7) . . .
228(8) . . .
194(8) . . .
205(8) . . .
242(8) . . .
215(8) . . .
197(7) . . .
196(8) . . .
216(8) . . .
233(8) . . .
240(8) . . .
226(8) . . .
240(8) . . .
228(8) . . .
229(8) . . .
235(8) . . .
238(8) . . .
229(8) . . .
245(8) . . .
233(8) . . .
246(8) . . .
248(9) . . .
251(9) . . .
249(8) . . .
241(8) . . .
235(8) . . .
255(8) . . .
258(9) . . .
251(9) . . .
253(8) . . .
271(9) . . .
262(9) . . .
251(9) . . .
235(8) . . .
240(8) . . .
252(9) . . .
250(9) . . .
234(8) . . .
249(9) . . .
245(8) . . .
222(8) . . .
223(8) . . .
224(8) . . .
244(8) . . .
242(8) . . .
239(8) . . .
223(8) . . .
225(8) . . .
219(8) . . .
231(8) . . .
225(8) . . .
237(8) . . .
223(8) . . .
190(7) . . .
224(8) . . .
213(8) . . .
212(8) . . .
217(8) . . .
218(8) . . .
226(8) . . .
211(8) . . .
213(8) . . .
210(8) . . .
223(8) . . .
216(8) . . .
199(8) . . .
217(8) . . .
213(8) . . .
211(7) . . .
225(8) . . .
204(8) . . .
226(9) . . .
220(8) . . .
213(8) . . .
232(8) . . .
227(8) . . .
224(8) . . .
225(8) . . .
215(8) . . .
205(7) . . .
217(8) . . .
215(8) . . .
216(8) . . .
204(7) . . .
206(8) . . .
220(8) . . .
209(8) . . .
214(8) . . .
218(8) . . .
214(8) . . .
217(8) . . .
213(8) . . .
209(8) . . .
228(8) . . .
219(8) . . .
205(8) . . .
204(8) . . .
202(8) . . .
230(8) . . .
218(8) . . .
203(8) . . .
208(8) . . .
229(8) . . .
222(8) . . .
207(8) . . .
214(8) . . .
209(8) . . .
221(8) . . .
195(7) . . .
193(7) . . .
224(8) . . .
211(8) . . .
234(8) . . .
217(8) . . .
211(8) . . .
197(8) . . .
217(8) . . .
206(8) . . .
243(8) . . .
218(8) . . .
222(8) . . .
213(8) . . .
197(7) . . .
228(8) . . .
208(8) . . .
207(8) . . .
220(8) . . .
199(7) . . .
214(8) . . .
216(8) . . .
208(8) . . .
214(8) . . .
220(8) . . .
199(7) . . .
197(7) . . .
209(8) . . .
216(8) . . .
208(7) . . .
230(8) . . .
216(8) . . .
207(8) . . .
202(8) . . .
216(8) . . .
237(8) . . .
213(8) . . .
217(8) . . .
203(8) . . .
196(7) . . .
213(8) . . .
208(8) . . .
202(8) . . .
203(8) . . .
200(7) . . .
217(8) . . .
226(8) . . .
217(8) . . .
229(8) . . .
209(7) . . .
198(8) . . .
213(8) . . .
223(8) . . .
209(8) . . .
202(7) . . .
206(8) . . .
228(8) . . .
212(8) . . .
206(8) . . .
213(8) . . .
208(8) . . .
226(8) . . .
209(8) . . .
205(7) . . .
214(8) . . .
220(8) . . .
208(8) . . .
201(8) . . .
214(8) . . .
208(8) . . .
191(7) . . .
195(8) . . .
205(8) . . .
204(7) . . .
194(7) . . .
208(8) . . .
230(8) . . .
226(8) . . .
215(8) . . .
210(8) . . .
200(8) . . .
212(8) . . .
212(8) . . .
201(7) . . .
214(8) . . .
202(7) . . .
212(8) . . .
215(8) . . .
213(8) . . .
232(8) . . .
206(8) . . .
208(8) . . .
199(8) . . .
219(8) . . .
211(8) . . .
207(8) . . .
228(8) . . .
222(8) . . .
215(8) . . .
218(8) . . .
225(8) . . .
213(8) . . .
208(8) . . .
223(8) . . .
222(8) . . .
236(9) . . .
204(8) . . .
207(7) . . .
208(7) . . .
206(8) . . .
224(8) . . .
207(8) . . .
218(8) . . .
218(8) . . .
221(8) . . .
204(8) . . .
216(8) . . .
208(7) . . .
233(8) . . .
208(8) . . .
212(8) . . .
208(8) . . .
244(8) . . .
213(8) . . .
228(8) . . .
239(9) . . .
232(8) . . .
245(8) . . .
210(8) . . .
251(9) . . .
249(9) . . .
250(9) . . .
247(8) . . .
272(9) . . .
261(9) . . .
248(8) . . .
253(9) . . .
241(8) . . .
243(8) . . .
260(9) . . .
221(8) . . .
220(8) . . .
223(8) . . .
228(8) . . .
208(8) . . .
208(8) . . .
217(8) . . .
233(8) . . .
226(8) . . .
231(8) . . .
235(8) . . .
242(8) . . .
222(8) . . .
211(8) . . .
252(9) . . .
212(8) . . .
205(8) . . .
219(8) . . .
213(8) . . .
202(8) . . .
216(8) . . .
225(8) . . .
212(8) . . .
232(8) . . .
229(8) . . .
221(8) . . .
207(7) . . .
214(8) . . .
216(8) . . .
210(8) . . .
208(8) . . .
195(7) . . .
218(8) . . .
232(8) . . .
215(8) . . .
210(8) . . .
216(8) . . .
215(8) . . .
209(8) . . .
204(8) . . .
209(8) . . .
194(7) . . .
235(8) . . .
225(8) . . .
206(8) . . .
221(8) . . .
216(8) . . .
200(7) . . .
223(8) . . .
236(8) . . .
228(8) . . .
217(8) . . .
209(8) . . .
208(8) . . .
203(8) . . .
210(8) . . .
231(8) . . .
210(8) . . .
193(8) . . .
193(7) . . .
197(7) . . .
216(8) . . .
205(8) . . .
198(8) . . .
214(8) . . .
204(8) . . .
207(7) . . .
194(8) . . .
217(9) . . .
203(8) . . .
204(7) . . .
232(8) . . .
212(8) . . .
228(9) . . .
219(8) . . .
227(8) . . .
223(8) . . .
207(8) . . .
224(8) . . .
217(8) . . .
213(8) . . .
208(8) . . .
230(8) . . .
204(8) . . .
218(8) . . .
235(8) . . .
228(8) . . .
225(8) . . .
230(9) . . .
248(8) . . .
206(7) . . .
221(8) . . .
218(8) . . .
229(8) . . .
227(8) . . .
241(8) . . .
213(8) . . .
199(8) . . .
206(8) . . .
227(8) . . .
218(8) . . .
212(8) . . .
224(8) . . .
209(8) . . .
221(8) . . .
234(8) . . .
221(8) . . .
219(8) . . .
198(7) . . .
219(8) . . .
210(8) . . .
222(8) . . .
236(8) . . .
223(8) . . .
257(9) . . .
237(8) . . .
266(9) . . .
261(9) . . .
261(9) . . .
270(9) . . .
256(8) . . .
243(8) . . .
226(8) . . .
234(8) . . .
230(8) . . .
240(8) . . .
232(8) . . .
235(9) . . .
228(8) . . .
231(8) . . .
227(8) . . .
212(8) . . .
222(8) . . .
247(8) . . .
240(8) . . .
225(8) . . .
232(8) . . .
230(8) . . .
230(8) . . .
231(8) . . .
209(8) . . .
230(8) . . .
231(8) . . .
218(8) . . .
209(7) . . .
205(8) . . .
206(8) . . .
230(8) . . .
234(8) . . .
220(8) . . .
220(8) . . .
209(8) . . .
237(9) . . .
200(8) . . .
209(8) . . .
228(8) . . .
216(8) . . .
236(8) . . .
225(8) . . .
242(8) . . .
219(8) . . .
221(8) . . .
212(8) . . .
216(8) . . .
214(8) . . .
232(8) . . .
227(8) . . .
209(8) . . .
228(8) . . .
219(8) . . .
195(7) . . .
196(7) . . .
224(8) . . .
197(7) . . .
207(7) . . .
218(8) . . .
224(8) . . .
223(8) . . .
215(8) . . .
211(8) . . .
215(8) . . .
217(8) . . .
227(8) . . .
212(8) . . .
217(8) . . .
211(8) . . .
208(8) . . .
202(8) . . .
231(8) . . .
218(8) . . .
206(8) . . .
208(8) . . .
204(8) . . .
194(7) . . .
190(7) . . .
203(8) . . .
190(7) . . .
200(7) . . .
214(8) . . .
191(7) . . .
217(8) . . .
201(8) . . .
195(8) . . .
210(8) . . .
204(8) . . .
226(8) . . .
212(8) . . .
210(8) . . .
228(8) . . .
205(8) . . .
217(8) . . .
201(8) . . .
210(8) . . .
215(8) . . .
222(8) . . .
201(8) . . .
227(8) . . .
217(8) . . .
197(7) . . .
237(9) . . .
221(8) . . .
210(8) . . .
206(7) . . .
215(8) . . .
218(8) . . .
227(8) . . .
201(8) . . .
209(8) . . .
215(8) . . .
222(8) . . .
211(8) . . .
224(8) . . .
205(8) . . .
188(7) . . .
214(8) . . .
209(8) . . .
208(8) . . .
214(8) . . .
220(8) . . .
206(8) . . .
224(8) . . .
204(8) . . .
212(8) . . .
207(8) . . .
205(7) . . .
225(8) . . .
224(8) . . .
210(7) . . .
205(7) . . .
240(8) . . .
222(8) . . .
223(8) . . .
211(8) . . .
224(8) . . .
223(8) . . .
223(8) . . .
239(8) . . .
259(8) . . .
246(8) . . .
231(8) . . .
245(8) . . .
269(9) . . .
247(8) . . .
244(8) . . .
255(9) . . .
263(9) . . .
250(8) . . .
259(8) . . .
230(8) . . .
248(9) . . .
248(9) . . .
237(8) . . .
218(8) . . .
217(8) . . .
215(8) . . .
215(8) . . .
239(8) . . .
209(8) . . .
231(8) . . .
246(9) . . .
225(8) . . .
212(8) . . .
217(8) . . .
221(8) . . .
202(8) . . .
231(8) . . .
219(8) . . .
227(8) . . .
230(8) . . .
213(8) . . .
239(8) . . .
225(8) . . .
191(7) . . .
201(8) . . .
220(8) . . .
225(8) . . .
205(7) . . .
193(7) . . .
201(8) . . .
235(9) . . .
218(8) . . .
215(8) . . .
229(8) . . .
206(8) . . .
213(8) . . .
211(8) . . .
219(8) . . .
199(7) . . .
212(8) . . .
192(7) . . .
196(7) . . .
192(7) . . .
217(8) . . .
234(8) . . .
212(8) . . .
217(8) . . .
215(8) . . .
190(7) . . .
223(8) . . .
209(8) . . .
204(8) . . .
195(7) . . .
198(8) . . .
210(8) . . .
201(7) . . .
215(8) . . .
191(7) . . .
195(8) . . .
211(8) . . .
210(8) . . .
213(8) . . .
199(7) . . .
201(7) . . .
214(8) . . .
219(8) . . .
209(8) . . .
216(8) . . .
222(8) . . .
216(8) . . .
218(8) . . .
223(8) . . .
209(8) . . .
236(8) . . .
220(8) . . .
218(8) . . .
205(7) . . .
214(8) . . .
227(8) . . .
230(8) . . .
216(8) . . .
213(8) . . .
224(8) . . .
230(8) . . .
211(8) . . .
209(8) . . .
200(7) . . .
209(8) . . .
216(8) . . .
213(8) . . .
198(7) . . .
203(7) . . .
195(7) . . .
222(8) . . .
210(8) . . .
230(8) . . .
222(8) . . .
212(8) . . .
201(8) . . .
221(8) . . .
204(7) . . .
197(7) . . .
198(8) . . .
196(8) . . .
210(8) . . .
196(7) . . .
212(8) . . .
197(7) . . .
221(8) . . .
207(8) . . .
214(8) . . .
217(8) . . .
205(8) . . .
220(8) . . .
193(8) . . .
188(7) . . .
223(8) . . .
234(8) . . .
232(8) . . .
203(8) . . .
215(8) . . .
199(7) . . .
212(8) . . .
202(8) . . .
208(8) . . .
201(7) . . .
196(7) . . .
201(8) . . .
179(7) . . .
188(7) . . .
201(7) . . .
219(8) . . .
213(8) . . .
216(8) . . .
201(8) . . .
181(7) . . .
215(8) . . .
214(8) . . .
237(8) . . .
249(8) . . .
213(8) . . .
237(8) . . .
237(8) . . .
224(8) . . .
266(9) . . .
257(8) . . .
245(8) . . .
268(9) . . .
253(9) . . .
251(8) . . .
230(8) . . .
227(8) . . .
238(8) . . .
233(8) . . .
226(8) . . .
224(8) . . .
245(8) . . .
250(9) . . .
232(8) . . .
228(8) . . .
227(8) . . .
219(8) . . .
215(8) . . .
218(8) . . .
225(8) . . .
217(8) . . .
227(8) . . .
189(8) . . .
191(7) . . .
208(8) . . .
227(8) . . .
229(8) . . .
215(8) . . .
237(8) . . .
235(8) . . .
222(8) . . .
234(8) . . .
228(8) . . .
211(8) . . .
207(7) . . .
200(7) . . .
210(8) . . .
224(8) . . .
240(8) . . .
216(8) . . .
197(8) . . .
205(8) . . .
222(8) . . .
209(8) . . .
204(7) . . .
187(7) . . .
208(8) . . .
226(8) . . .
227(8) . . .
210(7) . . .
227(8) . . .
208(8) . . .
200(8) . . .
197(7) . . .
198(7) . . .
223(8) . . .
222(8) . . .
207(8) . . .
200(7) . . .
213(8) . . .
200(7) . . .
214(8) . . .
231(8) . . .
211(8) . . .
226(8) . . .
246(9) . . .
230(9) . . .
197(8) . . .
205(8) . . .
213(8) . . .
215(8) . . .
209(8) . . .
195(7) . . .
217(8) . . .
217(8) . . .
221(8) . . .
215(8) . . .
202(8) . . .
202(7) . . .
218(8) . . .
187(7) . . .
211(8) . . .
212(8) . . .
197(7) . . .
193(7) . . .
190(7) . . .
205(8) . . .
210(8) . . .
202(7) . . .
199(7) . . .
207(8) . . .
198(7) . . .
215(8) . . .
215(8) . . .
221(8) . . .
223(8) . . .
206(8) . . .
226(8) . . .
215(8) . . .
212(8) . . .
218(8) . . .
198(7) . . .
207(8) . . .
226(8) . . .
202(8) . . .
210(8) . . .
192(7) . . .
210(8) . . .
179(7) . . .
198(8) . . .
219(8) . . .
203(7) . . .
213(8) . . .
200(7) . . .
206(8) . . .
201(8) . . .
207(8) . . .
211(8) . . .
209(8) . . .
215(8) . . .
215(8) . . .
204(8) . . .
202(7) . . .
193(7) . . .
233(8) . . .
207(8) . . .
218(8) . . .
216(8) . . .
225(8) . . .
215(8) . . .
203(8) . . .
188(7) . . .
219(8) . . .
204(7) . . .
207(8) . . .
239(8) . . .
241(8) . . .
209(8) . . .
212(8) . . .
225(8) . . .
212(8) . . .
221(8) . . .
217(8) . . .
204(8) . . .
207(8) . . .
206(8) . . .
210(8) . . .
194(7) . . .
199(8) . . .
199(8) . . .
203(7) . . .
217(8) . . .
214(8) . . .
200(8) . . .
204(8) . . .
200(8) . . .
194(7) . . .
195(7) . . .
207(8) . . .
197(8) . . .
181(7) . . .
194(7) . . .
213(8) . . .
205(8) . . .
202(8) . . .
209(8) . . .
209(7) . . .
219(8) . . .
196(8) . . .
194(8) . . .
196(8) . . .
198(7) . . .
199(7) . . .
212(8) . . .
223(8) . . .
211(8) . . .
197(7) . . .
192(7) . . .
213(8) . . .
200(8) . . .
223(8) . . .
199(7) . . .
222(8) . . .
209(8) . . .
206(8) . . .
208(8) . . .
209(7) . . .
216(8) . . .
211(8) . . .
214(8) . . .
208(8) . . .
202(7) . . .
210(8) . . .
213(8) . . .
230(8) . . .
205(7) . . .
210(8) . . .
231(8) . . .
225(8) . . .
224(8) . . .
232(8) . . .
215(8) . . .
223(8) . . .
219(8) . . .
221(8) . . .
213(8) . . .
214(8) . . .
237(8) . . .
217(8) . . .
222(8) . . .
219(8) . . .
212(7) . . .
204(8) . . .
214(8) . . .
261(9) . . .
220(8) . . .
234(8) . . .
224(8) . . .
239(9) . . .
236(8) . . .
239(8) . . .
219(8) . . .
192(7) . . .
217(8) . . .
216(8) . . .
218(8) . . .
235(8) . . .
232(8) . . .
227(8) . . .
229(8) . . .
235(8) . . .
247(8) . . .
258(9) . . .
246(9) . . .
244(8) . . .
271(8) . . .
287(9) . . .
261(9) . . .
247(8) . . .
239(8) . . .
238(8) . . .
271(9) . . .
236(8) . . .
259(9) . . .
237(8) . . .
248(8) . . .
222(8) . . .
243(8) . . .
247(9) . . .
226(8) . . .
235(8) . . .
234(8) . . .
224(8) . . .
226(8) . . .
226(8) . . .
227(8) . . .
232(8) . . .
247(9) . . .
222(8) . . .
220(8) . . .
219(8) . . .
248(8) . . .
219(8) . . .
226(8) . . .
207(7) . . .
207(8) . . .
227(8) . . .
226(8) . . .
217(8) . . .
225(8) . . .
219(8) . . .
213(8) . . .
219(8) . . .
215(8) . . .
232(8) . . .
221(8) . . .
208(8) . . .
212(8) . . .
209(8) . . .
202(7) . . .
209(8) . . .
196(8) . . .
222(8) . . .
202(8) . . .
205(7) . . .
226(8) . . .
219(8) . . .
218(8) . . .
228(8) . . .
205(7) . . .
218(8) . . .
204(8) . . .
212(8) . . .
222(8) . . .
205(7) . . .
225(8) . . .
208(8) . . .
222(8) . . .
219(8) . . .
217(8) . . .
197(8) . . .
205(8) . . .
224(8) . . .
216(8) . . .
229(8) . . .
220(8) . . .
213(8) . . .
217(8) . . .
194(7) . . .
211(7) . . .
216(8) . . .
222(8) . . .
232(8) . . .
214(8) . . .
214(8) . . .
218(8) . . .
204(8) . . .
201(8) . . .
182(7) . . .
211(8) . . .
197(7) . . .
202(8) . . .
204(8) . . .
223(8) . . .
192(7) . . .
199(8) . . .
210(8) . . .
220(8) . . .
226(8) . . .
213(8) . . .
209(8) . . .
224(8) . . .
222(8) . . .
218(8) . . .
221(8) . . .
199(8) . . .
189(8) . . .
206(8) . . .
198(7) . . .
208(8) . . .
201(8) . . .
224(8) . . .
194(7) . . .
196(7) . . .
203(8) . . .
201(8) . . .
212(8) . . .
215(8) . . .
220(8) . . .
178(7) . . .
182(7) . . .
203(8) . . .
213(8) . . .
209(8) . . .
232(8) . . .
210(8) . . .
225(8) . . .
223(8) . . .
204(7) . . .
212(8) . . .
200(8) . . .
227(8) . . .
204(7) . . .
191(7) . . .
205(8) . . .
211(8) . . .
181(7) . . .
206(8) . . .
229(8) . . .
205(8) . . .
197(8) . . .
214(8) . . .
216(8) . . .
211(7) . . .
201(8) . . .
216(8) . . .
205(8) . . .
213(8) . . .
211(8) . . .
209(8) . . .
189(8) . . .
213(8) . . .
204(7) . . .
202(7) . . .
218(8) . . .
219(8) . . .
246(9) . . .
224(8) . . .
227(8) . . .
205(8) . . .
218(8) . . .
245(8) . . .
219(8) . . .
222(8) . . .
220(8) . . .
236(9) . . .
224(8) . . .
213(8) . . .
210(8) . . .
219(8) . . .
212(8) . . .
224(8) . . .
230(8) . . .
205(8) . . .
221(8) . . .
224(8) . . .
235(8) . . .
211(8) . . .
201(8) . . .
208(8) . . .
214(8) . . .
214(8) . . .
222(8) . . .
229(8) . . .
221(8) . . .
212(8) . . .
200(7) . . .
202(7) . . .
235(8) . . .
205(8) . . .
191(7) . . .
222(8) . . .
230(8) . . .
225(8) . . .
200(8) . . .
201(8) . . .
203(7) . . .
213(8) . . .
181(7) . . .
208(8) . . .
202(8) . . .
225(8) . . .
214(8) . . .
212(8) . . .
211(8) . . .
216(8) . . .
210(8) . . .
220(8) . . .
205(8) . . .
231(8) . . .
219(8) . . .
205(7) . . .
191(7) . . .
227(8) . . .
200(8) . . .
198(8) . . .
209(7) . . .
223(8) . . .
212(8) . . .
223(8) . . .
233(8) . . .
217(8) . . .
222(8) . . .
217(8) . . .
213(8) . . .
221(8) . . .
228(8) . . .
229(8) . . .
233(8) . . .
265(9) . . .
245(8) . . .
235(8) . . .
222(8) . . .
220(8) . . .
225(8) . . .
217(8) . . .
220(8) . . .
227(8) . . .
215(8) . . .
225(8) . . .
214(8) . . .
209(8) . . .
223(8) . . .
232(8) . . .
220(8) . . .
218(8) . . .
221(8) . . .
208(8) . . .
220(8) . . .
220(8) . . .
221(8) . . .
231(8) . . .
215(8) . . .
232(9) . . .
222(8) . . .
236(8) . . .
225(8) . . .
235(9) . . .
208(8) . . .
234(8) . . .
219(8) . . .
207(8) . . .
223(8) . . .
220(8) . . .
216(8) . . .
210(8) . . .
205(8) . . .
214(8) . . .
212(8) . . .
209(8) . . .
205(7) . . .
208(8) . . .
222(8) . . .
216(8) . . .
211(8) . . .
204(7) . . .
201(8) . . .
198(8) . . .
206(8) . . .
192(7) . . .
210(8) . . .
207(8) . . .
196(8) . . .
203(8) . . .
198(7) . . .
215(8) . . .
215(8) . . .
191(7) . . .
193(8) . . .
190(7) . . .
216(8) . . .
207(8) . . .
182(8) . . .
189(7) . . .
207(7) . . .
215(8) . . .
189(7) . . .
191(8) . . .
193(7) . . .
184(7) . . .
209(8) . . .
199(8) . . .
213(8) . . .
219(8) . . .
203(7) . . .
220(8) . . .
226(8) . . .
184(7) . . .
204(8) . . .
223(8) . . .
198(7) . . .
201(8) . . .
221(8) . . .
212(8) . . .
199(7) . . .
203(8) . . .
195(7) . . .
178(7) . . .
198(7) . . .
225(8) . . .
220(8) . . .
220(8) . . .
198(7) . . .
195(7) . . .
201(7) . . .
203(8) . . .
199(8) . . .
201(8) . . .
199(7) . . .
199(7) . . .
184(7) . . .
184(8) . . .
187(7) . . .
205(8) . . .
218(8) . . .
222(8) . . .
209(8) . . .
208(8) . . .
204(7) . . .
187(7) . . .
194(7) . . .
202(8) . . .
217(8) . . .
197(7) . . .
210(8) . . .
203(8) . . .
198(8) . . .
197(8) . . .
195(7) . . .
199(7) . . .
187(7) . . .
193(8) . . .
201(8) . . .
197(7) . . .
207(8) . . .
212(8) . . .
193(8) . . .
218(8) . . .
208(8) . . .
219(8) . . .
224(8) . . .
202(8) . . .
204(8) . . .
185(7) . . .
206(8) . . .
206(8) . . .
219(8) . . .
206(8) . . .
211(8) . . .
205(8) . . .
197(8) . . .
194(8) . . .
210(8) . . .
212(8) . . .
215(8) . . .
203(8) . . .
207(8) . . .
220(8) . . .
216(8) . . .
219(8) . . .
222(8) . . .
199(7) . . .
210(8) . . .
208(7) . . .
196(7) . . .
197(8) . . .
201(8) . . .
218(8) . . .
198(7) . . .
206(8) . . .
229(9) . . .
205(8) . . .
191(7) . . .
216(8) . . .
206(8) . . .
213(8) . . .
203(8) . . .
202(7) . . .
205(8) . . .
204(8) . . .
208(8) . . .
199(8) . . .
189(7) . . .
199(7) . . .
213(8) . . .
219(8) . . .
195(7) . . .
221(8) . . .
219(8) . . .
225(8) . . .
233(8) . . .
231(8) . . .
217(8) . . .
211(8) . . .
212(8) . . .
210(8) . . .
211(8) . . .
218(8) . . .
200(7) . . .
223(8) . . .
215(8) . . .
211(8) . . .
195(7) . . .
187(7) . . .
201(8) . . .
215(8) . . .
212(8) . . .
208(8) . . .
202(8) . . .
209(8) . . .
220(8) . . .
215(8) . . .
213(8) . . .
216(8) . . .
197(8) . . .
197(7) . . .
202(7) . . .
204(7) . . .
195(7) . . .
216(8) . . .
206(8) . . .
205(7) . . .
207(7) . . .
195(7) . . .
213(8) . . .
203(8) . . .
216(8) . . .
231(8) . . .
206(8) . . .
201(8) . . .
188(7) . . .
195(7) . . .
200(7) . . .
220(8) . . .
195(8) . . .
200(8) . . .
203(7) . . .
210(8) . . .
222(8) . . .
197(8) . . .
205(8) . . .
191(7) . . .
180(7) . . .
198(8) . . .
185(7) . . .
195(7) . . .
221(8) . . .
199(7) . . .
178(7) . . .
228(8) . . .
211(8) . . .
201(7) . . .
227(8) . . .
206(8) . . .
195(8) . . .
209(8) . . .
229(8) . . .
196(7) . . .
195(8) . . .
193(7) . . .
216(8) . . .
204(7) . . .
202(8) . . .
201(8) . . .
212(8) . . .
217(8) . . .
195(7) . . .
189(7) . . .
188(8) . . .
215(8) . . .
213(8) . . .
230(8) . . .
212(8) . . .
216(8) . . .
203(8) . . .
213(8) . . .
208(7) . . .
207(8) . . .
194(8) . . .
219(8) . . .
193(7) . . .
210(8) . . .
199(8) . . .
203(8) . . .
216(8) . . .
205(7) . . .
190(7) . . .
206(8) . . .
203(8) . . .
203(8) . . .
210(8) . . .
220(8) . . .
212(8) . . .
209(8) . . .
205(8) . . .
185(7) . . .
196(7) . . .
168(7) . . .
186(7) . . .
207(8) . . .
212(8) . . .
198(8) . . .
202(8) . . .
196(8) . . .
197(7) . . .
191(7) . . .
201(8) . . .
190(8) . . .
205(8) . . .
208(8) . . .
207(7) . . .
198(8) . . .
218(8) . . .
206(8) . . .
211(8) . . .
193(7) . . .
195(7) . . .
196(8) . . .
209(8) . . .
222(8) . . .
186(7) . . .
205(8) . . .
208(8) . . .
197(7) . . .
191(7) . . .
215(8) . . .
203(8) . . .
205(8) . . .
179(7) . . .
205(7) . . .
215(8) . . .
216(8) . . .
198(8) . . .
206(8) . . .
207(7) . . .
193(7) . . .
208(8) . . .
207(8) . . .
201(8) . . .
216(8) . . .
217(8) . . .
194(8) . . .
221(8) . . .
220(8) . . .
214(8) . . .
223(8) . . .
222(8) . . .
209(8) . . .
208(8) . . .
224(8) . . .
195(7) . . .
204(8) . . .
215(8) . . .
187(7) . . .
216(8) . . .
195(7) . . .
193(7) . . .
201(8) . . .
205(8) . . .
210(8) . . .
192(7) . . .
199(8) . . .
204(8) . . .
182(7) . . .
197(7) . . .
199(8) . . .
202(8) . . .
192(7) . . .
188(7) . . .
227(8) . . .
197(7) . . .
184(7) . . .
204(8) . . .
210(8) . . .
203(7) . . .
206(8) . . .
202(8) . . .
202(8) . . .
226(8) . . .
217(8) . . .
175(7) . . .
187(7) . . .
181(7) . . .
187(7) . . .
201(7) . . .
204(8) . . .
187(7) . . .
190(7) . . .
183(7) . . .
217(8) . . .
191(7) . . .
205(8) . . .
209(8) . . .
210(7) . . .
199(7) . . .
203(8) . . .
211(8) . . .
189(7) . . .
209(7) . . .
196(8) . . .
205(8) . . .
184(7) . . .
220(8) . . .
199(7) . . .
194(7) . . .
181(7) . . .
210(8) . . .
204(8) . . .
202(7) . . .
216(8) . . .
218(8) . . .
211(8) . . .
190(7) . . .
192(7) . . .
218(8) . . .
197(8) . . .
195(8) . . .
207(7) . . .
216(8) . . .
227(8) . . .
195(7) . . .
206(8) . . .
197(7) . . .
216(8) . . .
211(8) . . .
191(8) . . .
197(7) . . .
229(8) . . .
223(8) . . .
196(8) . . .
202(8) . . .
202(8) . . .
200(7) . . .
182(7) . . .
218(8) . . .
216(8) . . .
194(7) . . .
199(7) . . .
192(7) . . .
191(7) . . .
199(8) . . .
217(8) . . .
186(7) . . .
178(7) . . .
215(8) . . .
210(8) . . .
198(8) . . .
205(7) . . .
201(8) . . .
207(8) . . .
206(8) . . .
193(7) . . .
206(7) . . .
210(8) . . .
203(8) . . .
215(8) . . .
223(8) . . .
222(8) . . .
226(8) . . .
214(8) . . .
212(8) . . .
206(8) . . .
208(7) . . .
202(8) . . .
192(7) . . .
205(8) . . .
207(7) . . .
201(7) . . .
218(8) . . .
192(8) . . .
193(8) . . .
208(8) . . .
199(7) . . .
195(8) . . .
186(8) . . .
183(7) . . .
193(7) . . .
211(8) . . .
200(8) . . .
214(8) . . .
201(8) . . .
202(7) . . .
208(8) . . .
192(7) . . .
185(8) . . .
184(7) . . .
190(7) . . .
191(7) . . .
203(8) . . .
220(8) . . .
210(8) . . .
210(8) . . .
196(7) . . .
210(8) . . .
230(8) . . .
216(8) . . .
199(7) . . .
219(8) . . .
214(8) . . .
191(7) . . .
207(8) . . .
210(8) . . .
209(8) . . .
198(8) . . .
210(8) . . .
190(7) . . .
189(7) . . .
199(7) . . .
200(8) . . .
193(7) . . .
193(7) . . .
208(7) . . .
206(8) . . .
204(8) . . .
186(7) . . .
205(8) . . .
193(7) . . .
206(8) . . .
206(8) . . .
199(8) . . .
197(7) . . .
204(7) . . .
209(8) . . .
207(8) . . .
210(8) . . .
205(7) . . .
189(7) . . .
184(7) . . .
195(8) . . .
213(8) . . .
195(7) . . .
208(7) . . .
195(7) . . .
208(8) . . .
195(7) . . .
178(7) . . .
193(7) . . .
192(7) . . .
185(7) . . .
203(8) . . .
208(7) . . .
193(7) . . .
189(7) . . .
167(7) . . .
192(8) . . .
193(7) . . .
202(7) . . .
186(7) . . .
174(7) . . .
177(7) . . .
183(7) . . .
188(7) . . .
202(8) . . .
207(8) . . .
191(7) . . .
188(7) . . .
193(8) . . .
186(7) . . .
189(8) . . .
198(7) . . .
193(7) . . .
198(8) . . .
202(8) . . .
203(8) . . .
186(7) . . .
194(7) . . .
186(7) . . .
192(8) . . .
190(7) . . .
207(8) . . .
186(7) . . .
178(7) . . .
183(7) . . .
185(7) . . .
204(7) . . .
202(7) . . .
201(8) . . .
201(8) . . .
197(8) . . .
203(7) . . .
203(7) . . .
178(7) . . .
193(8) . . .
206(8) . . .
201(7) . . .
185(7) . . .
182(7) . . .
196(8) . . .
204(8) . . .
200(7) . . .
215(8) . . .
191(7) . . .
206(8) . . .
199(8) . . .
188(7) . . .
216(8) . . .
197(8) . . .
192(7) . . .
199(7) . . .
193(7) . . .
201(8) . . .
199(8) . . .
189(7) . . .
198(7) . . .
196(7) . . .
196(7) . . .
185(7) . . .
186(7) . . .
197(8) . . .
190(7) . . .
194(8) . . .
185(7) . . .
196(7) . . .
190(7) . . .
192(7) . . .
193(7) . . .
189(8) . . .
188(8) . . .
176(7) . . .
190(7) . . .
225(8) . . .
203(8) . . .
191(7) . . .
171(7) . . .
188(7) . . .
185(7) . . .
224(8) . . .
202(8) . . .
196(7) . . .
196(7) . . .
196(8) . . .
181(7) . . .
189(7) . . .
181(7) . . .
189(7) . . .
204(8) . . .
221(8) . . .
212(8) . . .
200(7) . . .
191(7) . . .
207(8) . . .
198(7) . . .
193(7) . . .
215(8) . . .
208(8) . . .
200(8) . . .
169(7) . . .
178(7) . . .
217(8) . . .
208(8) . . .
191(7) . . .
192(8) . . .
181(7) . . .
182(7) . . .
195(7) . . .
189(7) . . .
202(8) . . .
212(8) . . .
210(8) . . .
188(7) . . .
191(8) . . .
201(8) . . .
193(7) . . .
203(7) . . .
197(7) . . .
196(8) . . .
197(7) . . .
204(7) . . .
189(7) . . .
186(7) . . .
186(8) . . .
193(7) . . .
192(7) . . .
203(7) . . .
182(7) . . .
166(7) . . .
198(8) . . .
204(8) . . .
187(7) . . .
196(7) . . .
170(7) . . .
184(7) . . .
204(7) . . .
180(7) . . .
186(7) . . .
195(8) . . .
181(7) . . .
189(7) . . .
204(8) . . .
183(7) . . .
194(8) . . .
186(8) . . .
181(7) . . .
186(7) . . .
182(7) . . .
184(7) . . .
190(8) . . .
206(7) . . .
181(7) . . .
191(7) . . .
190(7) . . .
197(8) . . .
212(8) . . .
192(7) . . .
203(8) . . .
211(8) . . .
195(7) . . .
203(7) . . .
198(7) . . .
195(8) . . .
173(7) . . .
197(7) . . .
193(7) . . .
174(7) . . .
196(8) . . .
181(7) . . .
207(8) . . .
191(7) . . .
174(7) . . .
174(7) . . .
190(7) . . .
185(7) . . .
211(8) . . .
206(8) . . .
192(8) . . .
173(7) . . .
197(7) . . .
211(8) . . .
196(8) . . .
169(7) . . .
194(7) . . .
182(7) . . .
207(8) . . .
196(8) . . .
188(7) . . .
198(8) . . .
180(7) . . .
186(7) . . .
179(7) . . .
186(8) . . .
184(7) . . .
200(7) . . .
205(8) . . .
203(8) . . .
183(7) . . .
186(7) . . .
197(7) . . .
184(7) . . .
205(8) . . .
214(8) . . .
207(8) . . .
205(7) . . .
208(8) . . .
201(8) . . .
186(7) . . .
181(7) . . .
210(8) . . .
206(8) . . .
198(8) . . .
208(8) . . .
218(8) . . .
220(8) . . .
214(8) . . .
181(7) . . .
178(7) . . .
205(7) . . .
196(7) . . .
189(7) . . .
211(8) . . .
213(8) . . .
209(7) . . .
204(7) . . .
201(8) . . .
202(8) . . .
192(7) . . .
196(7) . . .
196(7) . . .
196(8) . . .
191(8) . . .
192(7) . . .
184(7) . . .
211(8) . . .
196(8) . . .
180(7) . . .
176(7) . . .
184(7) . . .
172(7) . . .
191(7) . . .
198(8) . . .
210(8) . . .
193(7) . . .
209(8) . . .
208(8) . . .
183(7) . . .
185(7) . . .
197(7) . . .
194(7) . . .
205(8) . . .
195(8) . . .
211(8) . . .
207(8) . . .
188(7) . . .
195(7) . . .
223(8) . . .
198(8) . . .
188(7) . . .
209(8) . . .
208(8) . . .
204(8) . . .
185(7) . . .
222(8) . . .
214(8) . . .
230(8) . . .
196(7) . . .
198(7) . . .
176(7) . . .
193(7) . . .
216(8) . . .
223(8) . . .
192(7) . . .
212(8) . . .
195(7) . . .
206(8) . . .
229(8) . . .
201(7) . . .
184(7) . . .
197(8) . . .
197(8) . . .
199(8) . . .
193(7) . . .
215(8) . . .
208(8) . . .
211(8) . . .
209(8) . . .
213(8) . . .
213(8) . . .
193(7) . . .
196(8) . . .
208(8) . . .
193(7) . . .
219(8) . . .
216(8) . . .
201(8) . . .
175(7) . . .
195(7) . . .
175(7) . . .
186(7) . . .
189(7) . . .
204(8) . . .
195(7) . . .
181(7) . . .
203(7) . . .
196(7) . . .
181(7) . . .
193(7) . . .
182(7) . . .
184(7) . . .
197(8) . . .
211(8) . . .
188(7) . . .
181(7) . . .
183(8) . . .
191(8) . . .
217(8) . . .
195(7) . . .
208(8) . . .
198(8) . . .
206(8) . . .
204(7) . . .
205(7) . . .
199(8) . . .
199(8) . . .
209(8) . . .
193(7) . . .
203(7) . . .
204(8) . . .
200(8) . . .
206(8) . . .
178(7) . . .
168(7) . . .
183(7) . . .
181(8) . . .
198(8) . . .
188(7) . . .
205(8) . . .
171(7) . . .
196(8) . . .
190(7) . . .
201(7) . . .
185(7) . . .
207(8) . . .
182(7) . . .
184(7) . . .
192(7) . . .
201(7) . . .
190(7) . . .
160(7) . . .
206(8) . . .
199(7) . . .
192(7) . . .
190(7) . . .
185(7) . . .
211(8) . . .
202(7) . . .
177(7) . . .
198(8) . . .
200(8) . . .
200(7) . . .
179(7) . . .
223(8) . . .
199(7) . . .
211(8) . . .
200(7) . . .
186(7) . . .
181(7) . . .
191(7) . . .
185(7) . . .
174(7) . . .
199(7) . . .
195(8) . . .
164(7) . . .
189(7) . . .
203(8) . . .
189(7) . . .
199(8) . . .
203(8) . . .
203(8) . . .
193(7) . . .
184(7) . . .
197(7) . . .
203(8) . . .
181(7) . . .
188(7) . . .
179(7) . . .
198(8) . . .
193(8) . . .
196(7) . . .
181(7) . . .
199(7) . . .
205(8) . . .
189(7) . . .
193(8) . . .
183(7) . . .
207(8) . . .
208(8) . . .
200(8) . . .
195(8) . . .
197(7) . . .
195(7) . . .
214(8) . . .
200(8) . . .
186(7) . . .
171(7) . . .
185(7) . . .
181(7) . . .
196(8) . . .
207(8) . . .
180(7) . . .
182(7) . . .
197(8) . . .
185(7) . . .
179(7) . . .
180(7) . . .
204(8) . . .
207(8) . . .
197(7) . . .
194(7) . . .
181(7) . . .
178(7) . . .
182(7) . . .
189(8) . . .
208(8) . . .
192(7) . . .
205(8) . . .
196(8) . . .
209(8) . . .
202(7) . . .
207(7) . . .
190(8) . . .
193(8) . . .
192(7) . . .
188(7) . . .
188(7) . . .
200(8) . . .
173(7) . . .
179(7) . . .
179(7) . . .
187(7) . . .
198(7) . . .
192(8) . . .
171(7) . . .
197(7) . . .
200(7) . . .
194(7) . . .
201(8) . . .
185(7) . . .
181(7) . . .
209(8) . . .
188(7) . . .
200(8) . . .
188(7) . . .
200(7) . . .
188(7) . . .
203(8) . . .
211(8) . . .
206(8) . . .
206(7) . . .
195(8) . . .
203(8) . . .
204(8) . . .
202(7) . . .
219(8) . . .
194(8) . . .
207(8) . . .
195(8) . . .
202(7) . . .
204(7) . . .
211(8) . . .
209(8) . . .
211(8) . . .
203(7) . . .
220(8) . . .
223(8) . . .
224(8) . . .
212(8) . . .
225(8) . . .
190(7) . . .
206(8) . . .
198(8) . . .
199(8) . . .
199(7) . . .
212(8) . . .
202(8) . . .
213(8) . . .
212(8) . . .
203(7) . . .
205(7) . . .
200(8) . . .
206(8) . . .
201(8) . . .
202(7) . . .
193(7) . . .
185(7) . . .
202(8) . . .
214(8) . . .
202(7) . . .
184(7) . . .
216(8) . . .
188(7) . . .
181(7) . . .
192(7) . . .
209(8) . . .
194(8) . . .
188(7) . . .
207(8) . . .
194(7) . . .
181(7) . . .
192(8) . . .
191(8) . . .
206(8) . . .
200(7) . . .
194(7) . . .
188(7) . . .
198(8) . . .
201(7) . . .
191(7) . . .
198(7) . . .
217(8) . . .
190(7) . . .
177(7) . . .
193(7) . . .
175(7) . . .
190(8) . . .
202(8) . . .
211(8) . . .
176(7) . . .
178(7) . . .
198(8) . . .
178(7) . . .
193(7) . . .
196(7) . . .
189(7) . . .
181(7) . . .
193(7) . . .
196(7) . . .
180(7) . . .
187(7) . . .
184(7) . . .
184(7) . . .
191(7) . . .
192(7) . . .
194(7) . . .
174(7) . . .
197(8) . . .
181(7) . . .
206(8) . . .
208(8) . . .
200(8) . . .
209(8) . . .
195(7) . . .
186(7) . . .
187(8) . . .
183(7) . . .
174(7) . . .
195(7) . . .
202(8) . . .
196(8) . . .
197(8) . . .
187(7) . . .
191(7) . . .
202(8) . . .
173(7) . . .
193(7) . . .
187(7) . . .
199(7) . . .
184(7) . . .
167(7) . . .
185(7) . . .
190(7) . . .
187(7) . . .
184(7) . . .
167(7) . . .
190(8) . . .
185(7) . . .
191(7) . . .
202(8) . . .
180(7) . . .
193(8) . . .
192(7) . . .
189(7) . . .
193(8) . . .
188(8) . . .
190(7) . . .
171(7) . . .
175(7) . . .
183(7) . . .
193(7) . . .
193(7) . . .
205(7) . . .
190(7) . . .
199(7) . . .
195(8) . . .
191(7) . . .
184(7) . . .
185(7) . . .
196(8) . . .
211(8) . . .
176(7) . . .
191(7) . . .
202(8) . . .
184(7) . . .
174(7) . . .
198(8) . . .
185(7) . . .
201(8) . . .
208(8) . . .
199(8) . . .
188(7) . . .
199(7) . . .
180(7) . . .
177(7) . . .
201(8) . . .
183(7) . . .
179(7) . . .
180(7) . . .
192(8) . . .
180(7) . . .
192(7) . . .
198(7) . . .
183(7) . . .
185(7) . . .
172(7) . . .
182(7) . . .
179(7) . . .
188(7) . . .
192(8) . . .
184(7) . . .
189(7) . . .
158(7) . . .
185(8) . . .
179(8) . . .
196(8) . . .
182(7) . . .
179(7) . . .
178(7) . . .
196(8) . . .
192(7) . . .
194(7) . . .
216(8) . . .
180(7) . . .
194(8) . . .
205(8) . . .
180(7) . . .
184(7) . . .
200(8) . . .
183(7) . . .
190(7) . . .
177(7) . . .
178(7) . . .
182(7) . . .
178(7) . . .
175(7) . . .
189(7) . . .
182(7) . . .
187(7) . . .
185(7) . . .
188(7) . . .
193(7) . . .
196(7) . . .
211(8) . . .
202(8) . . .
202(8) . . .
227(8) . . .
196(8) . . .
199(8) . . .
200(8) . . .
181(7) . . .
174(7) . . .
189(8) . . .
180(7) . . .
199(8) . . .
201(8) . . .
182(7) . . .
191(8) . . .
205(8) . . .
194(8) . . .
182(7) . . .
187(7) . . .
196(7) . . .
192(8) . . .
190(7) . . .
201(7) . . .
213(8) . . .
216(8) . . .
199(8) . . .
192(8) . . .
209(7) . . .
213(8) . . .
211(8) . . .
212(8) . . .
207(8) . . .
186(7) . . .
194(7) . . .
193(7) . . .
207(8) . . .
189(7) . . .
208(7) . . .
188(7) . . .
165(7) . . .
180(7) . . .
181(7) . . .
192(7) . . .
196(7) . . .
195(7) . . .
214(8) . . .
202(8) . . .
193(7) . . .
195(7) . . .
198(8) . . .
192(8) . . .
202(7) . . .
187(7) . . .
184(7) . . .
198(8) . . .
181(7) . . .
158(7) . . .
187(7) . . .
201(8) . . .
191(8) . . .
179(7) . . .
178(7) . . .
193(7) . . .
185(7) . . .
175(7) . . .
160(7) . . .
192(7) . . .
191(7) . . .
188(7) . . .
186(7) . . .
191(8) . . .
202(7) . . .
195(7) . . .
184(7) . . .
178(7) . . .
190(7) . . .
184(7) . . .
167(7) . . .
191(7) . . .
192(8) . . .
186(7) . . .
198(7) . . .
179(7) . . .
194(8) . . .
190(8) . . .
189(7) . . .
174(7) . . .
177(7) . . .
168(7) . . .
180(7) . . .
194(8) . . .
208(7) . . .
174(7) . . .
189(7) . . .
199(8) . . .
180(7) . . .
195(7) . . .
224(8) . . .
181(7) . . .
188(7) . . .
184(7) . . .
179(7) . . .
178(7) . . .
180(7) . . .
177(7) . . .
185(7) . . .
188(7) . . .
198(8) . . .
185(7) . . .
180(7) . . .
178(7) . . .
192(7) . . .
181(7) . . .
212(8) . . .
174(7) . . .
192(7) . . .
184(7) . . .
198(8) . . .
185(8) . . .
197(7) . . .
189(7) . . .
184(7) . . .
198(8) . . .
178(7) . . .
191(7) . . .
198(7) . . .
192(7) . . .
177(7) . . .
170(7) . . .
190(7) . . .
206(7) . . .
203(8) . . .
174(7) . . .
182(7) . . .
192(7) . . .
172(7) . . .
176(7) . . .
202(8) . . .
182(7) . . .
176(7) . . .
166(7) . . .
205(7) . . .
183(7) . . .
181(7) . . .
195(7) . . .
180(7) . . .
195(7) . . .
174(7) . . .
185(7) . . .
208(8) . . .
191(7) . . .
175(7) . . .
178(7) . . .
200(7) . . .
195(7) . . .
210(8) . . .
191(7) . . .
188(8) . . .
195(8) . . .
194(7) . . .
203(7) . . .
184(7) . . .
162(7) . . .
192(7) . . .
225(8) . . .
198(7) . . .
205(8) . . .
212(8) . . .
190(7) . . .
176(7) . . .
207(7) . . .
188(7) . . .
175(7) . . .
187(7) . . .
185(7) . . .
206(7) . . .
180(7) . . .
185(7) . . .
186(7) . . .
192(7) . . .
185(7) . . .
183(7) . . .
190(8) . . .
178(7) . . .
185(7) . . .
200(7) . . .
173(7) . . .
185(7) . . .
178(7) . . .
176(7) . . .
196(7) . . .
202(8) . . .
173(7) . . .
185(7) . . .
194(7) . . .
195(7) . . .
188(7) . . .
171(7) . . .
183(7) . . .
169(7) . . .
192(7) . . .
185(7) . . .
199(8) . . .
186(7) . . .
211(8) . . .
200(8) . . .
189(7) . . .
155(6) . . .
186(7) . . .
189(7) . . .
186(8) . . .
178(7) . . .
186(7) . . .
168(7) . . .
184(7) . . .
198(8) . . .
185(8) . . .
191(7) . . .
187(7) . . .
180(7) . . .
179(7) . . .
183(8) . . .
186(7) . . .
185(7) . . .
180(7) . . .
174(7) . . .
189(8) . . .
192(8) . . .
176(7) . . .
187(7) . . .
180(7) . . .
185(8) . . .
187(7) . . .
196(7) . . .
193(7) . . .
192(7) . . .
195(8) . . .
215(8) . . .
191(7) . . .
192(7) . . .
175(7) . . .
185(8) . . .
185(7) . . .
184(7) . . .
184(7) . . .
207(8) . . .
180(7) . . .
168(7) . . .
184(7) . . .
174(7) . . .
188(8) . . .
174(7) . . .
189(7) . . .
162(7) . . .
169(7) . . .
182(7) . . .
191(7) . . .
173(7) . . .
205(7) . . .
203(8) . . .
193(8) . . .
197(8) . . .
191(7) . . .
186(7) . . .
177(7) . . .
184(8) . . .
175(7) . . .
178(7) . . .
187(7) . . .
188(7) . . .
194(8) . . .
186(7) . . .
198(7) . . .
173(7) . . .
176(7) . . .
191(8) . . .
180(7) . . .
207(7) . . .
189(7) . . .
182(7) . . .
181(8) . . .
182(7) . . .
175(7) . . .
172(7) . . .
189(7) . . .
186(7) . . .
194(8) . . .
181(7) . . .
190(7) . . .
176(7) . . .
193(8) . . .
186(7) . . .
192(7) . . .
198(7) . . .
194(7) . . .
227(8) . . .
190(7) . . .
191(7) . . .
172(7) . . .
179(7) . . .
181(7) . . .
203(8) . . .
194(7) . . .
198(7) . . .
204(8) . . .
208(8) . . .
208(8) . . .
212(8) . . .
187(7) . . .
206(8) . . .
201(7) . . .
189(7) . . .
191(7) . . .
198(8) . . .
209(8) . . .
184(7) . . .
214(8) . . .
180(7) . . .
194(8) . . .
166(7) . . .
184(7) . . .
179(7) . . .
163(7) . . .
191(7) . . .
194(8) . . .
176(7) . . .
164(7) . . .
189(7) . . .
198(7) . . .
195(8) . . .
179(7) . . .
193(7) . . .
193(7) . . .
187(7) . . .
180(7) . . .
190(8) . . .
161(7) . . .
192(7) . . .
207(8) . . .
183(8) . . .
188(7) . . .
192(7) . . .
161(7) . . .
171(7) . . .
192(8) . . .
188(7) . . .
174(7) . . .
197(8) . . .
180(7) . . .
174(7) . . .
195(7) . . .
182(7) . . .
213(8) . . .
188(7) . . .
190(7) . . .
184(7) . . .
192(7) . . .
217(8) . . .
191(8) . . .
205(8) . . .
177(7) . . .
181(7) . . .
208(8) . . .
203(8) . . .
198(8) . . .
203(7) . . .
200(7) . . .
198(8) . . .
204(8) . . .
194(7) . . .
199(7) . . .
209(7) . . .
198(7) . . .
196(8) . . .
195(8) . . .
174(7) . . .
189(7) . . .
195(7) . . .
200(8) . . .
195(7) . . .
198(7) . . .
171(7) . . .
197(8) . . .
187(8) . . .
169(7) . . .
170(7) . . .
188(7) . . .
188(7) . . .
181(7) . . .
168(7) . . .
183(7) . . .
180(7) . . .
183(7) . . .
189(8) . . .
194(7) . . .
193(7) . . .
190(7) . . .
193(7) . . .
185(7) . . .
200(7) . . .
197(7) . . .
183(7) . . .
189(8) . . .
187(7) . . .
188(7) . . .
194(7) . . .
185(7) . . .
194(7) . . .
197(7) . . .
189(7) . . .
190(7) . . .
171(7) . . .
212(8) . . .
184(7) . . .
200(8) . . .
195(7) . . .
167(7) . . .
190(8) . . .
175(7) . . .
186(7) . . .
175(7) . . .
179(7) . . .
198(8) . . .
208(8) . . .
203(7) . . .
198(7) . . .
188(7) . . .
187(8) . . .
178(7) . . .
193(7) . . .
179(7) . . .
192(8) . . .
195(8) . . .
183(7) . . .
190(7) . . .
170(7) . . .
180(7) . . .
183(8) . . .
174(7) . . .
165(7) . . .
180(7) . . .
188(7) . . .
193(8) . . .
185(7) . . .
181(7) . . .
196(7) . . .
180(7) . . .
185(7) . . .
183(7) . . .
186(7) . . .
197(8) . . .
187(7) . . .
168(7) . . .
176(7) . . .
174(7) . . .
188(8) . . .
168(7) . . .
174(7) . . .
184(7) . . .
179(7) . . .
185(7) . . .
183(7) . . .
183(7) . . .
188(7) . . .
187(7) . . .
191(7) . . .
199(8) . . .
196(7) . . .
174(7) . . .
178(7) . . .
197(8) . . .
195(8) . . .
173(7) . . .
206(8) . . .
183(7) . . .
184(7) . . .
191(8) . . .
182(7) . . .
164(7) . . .
156(7) . . .
189(7) . . .
189(8) . . .
186(7) . . .
205(7) . . .
177(7) . . .
169(7) . . .
187(8) . . .
169(7) . . .
162(7) . . .
187(7) . . .
176(7) . . .
188(8) . . .
173(7) . . .
191(7) . . .
203(8) . . .
177(7) . . .
164(7) . . .
176(7) . . .
164(7) . . .
202(8) . . .
169(7) . . .
174(7) . . .
168(7) . . .
170(7) . . .
168(7) . . .
180(7) . . .
178(7) . . .
167(7) . . .
170(7) . . .
194(7) . . .
172(7) . . .
194(8) . . .
182(7) . . .
174(7) . . .
172(7) . . .
167(7) . . .
194(8) . . .
160(7) . . .
186(7) . . .
186(7) . . .
170(7) . . .
172(7) . . .
199(7) . . .
179(7) . . .
190(8) . . .
156(7) . . .
173(7) . . .
200(7) . . .
183(7) . . .
178(7) . . .
174(7) . . .
169(7) . . .
172(7) . . .
172(7) . . .
162(7) . . .
170(7) . . .
183(7) . . .
181(7) . . .
171(7) . . .
186(7) . . .
203(8) . . .
184(7) . . .
173(7) . . .
178(7) . . .
188(7) . . .
180(7) . . .
170(7) . . .
183(7) . . .
198(7) . . .
185(7) . . .
179(7) . . .
180(7) . . .
183(7) . . .
189(7) . . .
179(7) . . .
179(7) . . .
177(7) . . .
155(6) . . .
162(7) . . .
175(7) . . .
188(7) . . .
186(7) . . .
193(7) . . .
161(7) . . .
188(8) . . .
176(7) . . .
183(7) . . .
177(7) . . .
196(7) . . .
209(8) . . .
189(7) . . .
187(7) . . .
170(7) . . .
176(7) . . .
169(7) . . .
178(7) . . .
172(7) . . .
176(7) . . .
176(7) . . .
178(7) . . .
187(7) . . .
193(7) . . .
185(7) . . .
175(7) . . .
190(8) . . .
171(7) . . .
166(7) . . .
173(7) . . .
160(7) . . .
176(7) . . .
205(8) . . .
187(7) . . .
184(7) . . .
182(7) . . .
174(7) . . .
163(7) . . .
177(7) . . .
174(7) . . .
172(7) . . .
188(8) . . .
178(7) . . .
171(7) . . .
159(7) . . .
177(7) . . .
169(7) . . .
182(7) . . .
190(7) . . .
176(7) . . .
189(8) . . .
173(7) . . .
162(7) . . .
182(7) . . .
197(7) . . .
183(7) . . .
175(7) . . .
156(6) . . .
189(7) . . .
185(7) . . .
195(8) . . .
187(7) . . .
167(7) . . .
165(7) . . .
156(7) . . .
182(7) . . .
164(7) . . .
192(7) . . .
174(7) . . .
179(7) . . .
176(7) . . .
190(8) . . .
185(7) . . .
174(7) . . .
180(7) . . .
174(7) . . .
168(7) . . .
184(7) . . .
178(7) . . .
173(7) . . .
182(8) . . .
171(7) . . .
200(7) . . .
202(8) . . .
170(7) . . .
185(8) . . .
178(7) . . .
184(7) . . .
167(7) . . .
156(7) . . .
174(7) . . .
187(7) . . .
170(7) . . .
182(7) . . .
174(7) . . .
178(7) . . .
191(8) . . .
186(7) . . .
182(7) . . .
188(8) . . .
185(7) . . .
189(7) . . .
175(7) . . .
181(7) . . .
181(7) . . .
179(7) . . .
165(7) . . .
179(7) . . .
193(7) . . .
188(7) . . .
164(7) . . .
185(7) . . .
168(7) . . .
177(7) . . .
173(7) . . .
180(7) . . .
192(7) . . .
192(7) . . .
181(7) . . .
165(7) . . .
170(7) . . .
177(7) . . .
178(7) . . .
179(7) . . .
180(7) . . .
177(7) . . .
178(7) . . .
192(7) . . .
189(7) . . .
176(7) . . .
179(7) . . .
170(7) . . .
173(7) . . .
195(8) . . .
206(8) . . .
175(7) . . .
173(7) . . .
167(7) . . .
176(7) . . .
180(7) . . .
172(7) . . .
169(7) . . .
167(7) . . .
187(8) . . .
177(7) . . .
173(7) . . .
166(7) . . .
176(7) . . .
181(7) . . .
180(7) . . .
159(7) . . .
189(7) . . .
174(7) . . .
176(7) . . .
166(7) . . .
165(7) . . .
182(7) . . .
170(7) . . .
176(7) . . .
177(7) . . .
183(7) . . .
174(7) . . .
162(7) . . .
168(7) . . .
162(7) . . .
169(7) . . .
175(7) . . .
186(7) . . .
192(8) . . .
180(7) . . .
170(7) . . .
177(7) . . .
168(7) . . .
161(7) . . .
183(7) . . .
183(7) . . .
166(7) . . .
164(7) . . .
165(7) . . .
179(7) . . .
187(7) . . .
171(7) . . .
183(7) . . .
172(7) . . .
177(7) . . .
178(7) . . .
161(7) . . .
180(7) . . .
161(7) . . .
166(7) . . .
173(7) . . .
158(7) . . .
164(7) . . .
172(7) . . .
169(7) . . .
154(6) . . .
168(7) . . .
174(7) . . .
174(7) . . .
162(7) . . .
181(7) . . .
177(7) . . .
189(7) . . .
154(6) . . .
161(7) . . .
157(7) . . .
176(7) . . .
181(7) . . .
184(7) . . .
174(7) . . .
163(7) . . .
175(7) . . .
148(7) . . .
172(7) . . .
153(6) . . .
163(7) . . .
166(7) . . .
156(7) . . .
166(7) . . .
174(7) . . .
181(7) . . .
185(7) . . .
189(8) . . .
169(7) . . .
158(7) . . .
172(7) . . .
158(7) . . .
162(7) . . .
163(7) . . .
171(7) . . .
157(7) . . .
175(7) . . .
171(7) . . .
167(7) . . .
167(7) . . .
184(7) . . .
164(7) . . .
175(7) . . .
192(7) . . .
167(7) . . .
167(7) . . .
165(7) . . .
171(7) . . .
185(7) . . .
172(7) . . .
178(7) . . .
174(7) . . .
175(7) . . .
164(7) . . .
157(6) . . .
148(6) . . .
155(7) . . .
147(6) . . .
148(6) . . .
175(7) . . .
159(7) . . .
166(7) . . .
166(7) . . .
156(7) . . .
146(6) . . .
172(7) . . .
161(7) . . .
148(6) . . .
172(7) . . .
155(6) . . .
182(7) . . .
158(7) . . .
160(7) . . .
191(7) . . .
171(7) . . .
180(7) . . .
165(7) . . .
169(7) . . .
171(7) . . .
156(7) . . .
163(7) . . .
170(7) . . .
167(7) . . .
169(7) . . .
173(7) . . .
177(7) . . .
176(7) . . .
173(7) . . .
167(7) . . .
179(7) . . .
154(7) . . .
181(7) . . .
148(7) . . .
168(7) . . .
180(7) . . .
181(7) . . .
185(7) . . .
178(7) . . .
183(7) . . .
188(7) . . .
166(7) . . .
168(7) . . .
184(7) . . .
166(7) . . .
178(7) . . .
172(7) . . .
178(7) . . .
156(6) . . .
170(7) . . .
167(7) . . .
184(7) . . .
154(7) . . .
157(7) . . .
156(6) . . .
175(7) . . .
177(8) . . .
156(7) . . .
160(6) . . .
175(7) . . .
170(7) . . .
166(7) . . .
172(7) . . .
163(7) . . .
178(7) . . .
163(7) . . .
147(7) . . .
180(7) . . .
174(7) . . .
178(7) . . .
178(7) . . .
182(7) . . .
171(7) . . .
177(7) . . .
172(7) . . .
173(7) . . .
174(8) . . .
175(7) . . .
167(7) . . .
174(7) . . .
162(7) . . .
150(7) . . .
159(7) . . .
173(7) . . .
154(6) . . .
188(7) . . .
171(7) . . .
184(7) . . .
160(7) . . .
175(7) . . .
175(7) . . .
167(7) . . .
168(7) . . .
155(6) . . .
161(7) . . .
170(7) . . .
161(7) . . .
167(7) . . .
172(7) . . .
181(7) . . .
192(8) . . .
173(7) . . .
151(6) . . .
171(7) . . .
181(7) . . .
154(7) . . .
166(7) . . .
161(7) . . .
178(7) . . .
181(7) . . .
166(7) . . .
176(7) . . .
165(7) . . .
173(7) . . .
159(7) . . .
164(7) . . .
179(7) . . .
190(7) . . .
174(7) . . .
159(7) . . .
167(7) . . .
159(7) . . .
189(7) . . .
193(7) . . .
163(7) . . .
170(7) . . .
169(7) . . .
166(7) . . .
154(6) . . .
168(7) . . .
180(7) . . .
155(7) . . .
143(6) . . .
166(7) . . .
182(7) . . .
145(7) . . .
161(7) . . .
182(7) . . .
189(8) . . .
190(8) . . .
182(7) . . .
162(7) . . .
170(7) . . .
165(7) . . .
180(7) . . .
163(7) . . .
167(7) . . .
188(7) . . .
173(7) . . .
182(7) . . .
174(7) . . .
172(7) . . .
187(7) . . .
167(7) . . .
180(7) . . .
156(7) . . .
172(7) . . .
171(7) . . .
165(7) . . .
164(7) . . .
182(7) . . .
169(7) . . .
166(7) . . .
182(7) . . .
175(7) . . .
177(7) . . .
162(7) . . .
181(7) . . .
176(7) . . .
190(8) . . .
188(7) . . .
167(7) . . .
161(7) . . .
168(7) . . .
180(7) . . .
186(7) . . .
187(7) . . .
156(7) . . .
169(7) . . .
181(7) . . .
182(7) . . .
151(6) . . .
178(7) . . .
172(7) . . .
182(7) . . .
173(7) . . .
178(7) . . .
183(7) . . .
190(8) . . .
179(7) . . .
174(7) . . .
194(7) . . .
177(7) . . .
166(7) . . .
190(7) . . .
200(8) . . .
165(7) . . .
167(7) . . .
183(7) . . .
159(7) . . .
173(7) . . .
168(7) . . .
173(7) . . .
155(7) . . .
166(7) . . .
146(6) . . .
163(7) . . .
171(7) . . .
164(7) . . .
162(7) . . .
161(7) . . .
179(7) . . .
161(7) . . .
174(7) . . .
179(7) . . .
157(7) . . .
161(7) . . .
151(7) . . .
159(7) . . .
170(7) . . .
146(6) . . .
176(7) . . .
170(7) . . .
160(7) . . .
168(7) . . .
158(7) . . .
179(7) . . .
167(7) . . .
173(7) . . .
171(7) . . .
172(7) . . .
173(7) . . .
172(7) . . .
160(7) . . .
167(7) . . .
190(7) . . .
169(7) . . .
164(7) . . .
173(7) . . .
163(7) . . .
193(7) . . .
179(7) . . .
174(7) . . .
184(7) . . .
191(7) . . .
161(7) . . .
173(7) . . .
164(7) . . .
175(7) . . .
155(7) . . .
181(7) . . .
182(7) . . .
171(7) . . .
164(7) . . .
173(7) . . .
158(7) . . .
175(7) . . .
158(7) . . .
152(7) . . .
168(7) . . .
174(7) . . .
190(7) . . .
176(7) . . .
176(7) . . .
178(7) . . .
175(7) . . .
167(7) . . .
156(7) . . .
169(7) . . .
151(6) . . .
161(7) . . .
166(7) . . .
172(7) . . .
189(7) . . .
171(7) . . .
163(7) . . .
174(7) . . .
168(7) . . .
172(7) . . .
167(7) . . .
157(7) . . .
162(7) . . .
163(7) . . .
150(7) . . .
165(7) . . .
166(7) . . .
176(7) . . .
164(7) . . .
165(7) . . .
165(7) . . .
174(7) . . .
167(7) . . .
174(7) . . .
162(7) . . .
176(7) . . .
168(7) . . .
163(7) . . .
184(7) . . .
154(7) . . .
159(7) . . .
159(7) . . .
162(7) . . .
169(7) . . .
170(7) . . .
173(7) . . .
167(7) . . .
172(7) . . .
152(7) . . .
167(7) . . .
159(7) . . .
156(7) . . .
167(7) . . .
168(7) . . .
172(7) . . .
172(7) . . .
168(7) . . .
166(7) . . .
156(7) . . .
159(7) . . .
161(7) . . .
177(7) . . .
169(7) . . .
149(6) . . .
172(7) . . .
167(7) . . .
157(7) . . .
177(7) . . .
158(7) . . .
164(7) . . .
150(6) . . .
159(7) . . .
158(7) . . .
162(7) . . .
164(7) . . .
149(6) . . .
166(7) . . .
169(7) . . .
180(7) . . .
161(7) . . .
168(7) . . .
168(7) . . .
181(7) . . .
175(7) . . .
158(7) . . .
171(7) . . .
168(7) . . .
159(7) . . .
159(7) . . .
176(7) . . .
156(7) . . .
151(7) . . .
167(7) . . .
181(7) . . .
171(7) . . .
169(7) . . .
151(7) . . .
163(7) . . .
173(7) . . .
194(7) . . .
156(7) . . .
145(7) . . .
165(7) . . .
181(7) . . .
151(6) . . .
187(8) . . .
151(7) . . .
155(7) . . .
168(7) . . .
184(7) . . .
156(7) . . .
150(7) . . .
158(7) . . .
173(7) . . .
189(7) . . .
148(7) . . .
155(7) . . .
172(7) . . .
161(7) . . .
160(7) . . .
173(7) . . .
171(7) . . .
160(7) . . .
149(6) . . .
161(7) . . .
185(7) . . .
175(7) . . .
174(7) . . .
166(7) . . .
161(7) . . .
184(8) . . .
171(7) . . .
177(7) . . .
162(7) . . .
156(7) . . .
167(7) . . .
170(7) . . .
168(7) . . .
164(7) . . .
188(7) . . .
189(8) . . .
165(7) . . .
161(7) . . .
171(7) . . .
170(7) . . .
137(6) . . .
184(7) . . .
159(7) . . .
179(7) . . .
172(7) . . .
153(7) . . .
164(7) . . .
167(7) . . .
146(6) . . .
136(6) . . .
164(7) . . .
160(7) . . .
166(7) . . .
166(7) . . .
150(7) . . .
159(7) . . .
159(7) . . .
161(7) . . .
178(7) . . .
173(7) . . .
171(7) . . .
163(7) . . .
171(7) . . .
160(7) . . .
161(7) . . .
172(7) . . .
176(7) . . .
164(7) . . .
173(7) . . .
167(7) . . .
183(8) . . .
159(7) . . .
172(7) . . .
150(6) . . .
161(7) . . .
184(7) . . .
181(7) . . .
167(7) . . .
173(7) . . .
177(7) . . .
154(7) . . .
165(7) . . .
183(7) . . .
161(7) . . .
164(7) . . .
167(7) . . .
154(7) . . .
174(7) . . .
183(7) . . .
165(7) . . .
140(6) . . .
163(7) . . .
175(7) . . .
172(7) . . .
190(8) . . .
163(7) . . .
171(7) . . .
164(7) . . .
180(7) . . .
181(7) . . .
180(7) . . .
169(7) . . .
160(7) . . .
184(7) . . .
175(7) . . .
173(7) . . .
163(7) . . .
173(7) . . .
173(7) . . .
162(7) . . .
166(7) . . .
165(7) . . .
184(7) . . .
158(7) . . .
161(7) . . .
172(7) . . .
162(7) . . .
173(7) . . .
170(7) . . .
172(7) . . .
173(7) . . .
160(7) . . .
159(7) . . .
144(6) . . .
159(7) . . .
158(7) . . .
172(7) . . .
167(7) . . .
179(7) . . .
158(7) . . .
143(6) . . .
174(7) . . .
139(6) . . .
164(7) . . .
164(7) . . .
170(7) . . .
164(7) . . .
163(7) . . .
161(7) . . .
164(7) . . .
151(6) . . .
164(7) . . .
158(7) . . .
166(7) . . .
173(7) . . .
180(7) . . .
171(7) . . .
161(7) . . .
162(7) . . .
160(7) . . .
168(7) . . .
160(7) . . .
166(7) . . .
168(7) . . .
180(7) . . .
162(7) . . .
180(7) . . .
171(7) . . .
155(7) . . .
149(6) . . .
154(6) . . .
153(6) . . .
164(7) . . .
144(7) . . .
151(7) . . .
172(7) . . .
166(7) . . .
160(7) . . .
157(7) . . .
173(7) . . .
169(7) . . .
145(6) . . .
136(6) . . .
152(7) . . .
176(7) . . .
183(7) . . .
176(7) . . .
148(6) . . .
171(7) . . .
155(7) . . .
168(7) . . .
157(7) . . .
150(7) . . .
148(7) . . .
167(7) . . .
153(6) . . .
159(7) . . .
157(7) . . .
160(7) . . .
174(7) . . .
154(6) . . .
153(7) . . .
150(7) . . .
152(7) . . .
165(7) . . .
161(7) . . .
156(7) . . .
154(7) . . .
167(7) . . .
165(7) . . .
174(7) . . .
175(7) . . .
167(7) . . .
161(7) . . .
183(7) . . .
166(7) . . .
171(7) . . .
185(8) . . .
171(7) . . .
161(7) . . .
178(7) . . .
165(7) . . .
160(7) . . .
144(6) . . .
154(6) . . .
154(6) . . .
156(7) . . .
157(7) . . .
158(7) . . .
149(6) . . .
150(6) . . .
175(7) . . .
154(7) . . .
161(7) . . .
159(7) . . .
157(7) . . .
152(7) . . .
160(7) . . .
171(7) . . .
157(7) . . .
159(7) . . .
152(7) . . .
156(7) . . .
157(7) . . .
179(7) . . .
144(6) . . .
144(7) . . .
170(7) . . .
159(7) . . .
185(7) . . .
175(7) . . .
149(7) . . .
153(7) . . .
172(7) . . .
171(7) . . .
168(7) . . .
162(7) . . .
149(7) . . .
168(7) . . .
165(7) . . .
149(7) . . .
150(7) . . .
174(7) . . .
165(7) . . .
168(7) . . .
153(7) . . .
168(7) . . .
197(8) . . .
176(7) . . .
164(7) . . .
153(7) . . .
163(7) . . .
155(7) . . .
161(7) . . .
166(7) . . .
148(6) . . .
168(7) . . .
167(7) . . .
154(6) . . .
144(7) . . .
145(6) . . .
149(7) . . .
158(7) . . .
154(6) . . .
169(7) . . .
167(7) . . .
161(7) . . .
167(7) . . .
167(7) . . .
155(7) . . .
169(7) . . .
160(7) . . .
156(7) . . .
163(7) . . .
163(7) . . .
153(7) . . .
178(7) . . .
181(7) . . .
155(6) . . .
149(7) . . .
165(7) . . .
149(7) . . .
188(7) . . .
154(6) . . .
152(7) . . .
170(7) . . .
155(6) . . .
164(7) . . .
161(7) . . .
155(7) . . .
166(7) . . .
150(6) . . .
167(7) . . .
151(6) . . .
161(7) . . .
142(7) . . .
164(7) . . .
177(7) . . .
167(7) . . .
158(7) . . .
159(7) . . .
172(7) . . .
152(6) . . .
145(6) . . .
164(7) . . .
188(8) . . .
180(7) . . .
159(6) . . .
163(7) . . .
178(7) . . .
191(8) . . .
173(7) . . .
174(7) . . .
148(6) . . .
158(7) . . .
157(7) . . .
171(7) . . .
161(7) . . .
154(7) . . .
151(7) . . .
170(7) . . .
163(7) . . .
173(7) . . .
156(6) . . .
161(7) . . .
156(7) . . .
133(6) . . .
151(6) . . .
175(7) . . .
158(7) . . .
145(7) . . .
163(7) . . .
153(6) . . .
132(6) . . .
153(7) . . .
142(6) . . .
178(7) . . .
158(7) . . .
160(7) . . .
139(6) . . .
145(7) . . .
150(6) . . .
161(7) . . .
165(7) . . .
136(7) . . .
158(7) . . .
152(6) . . .
166(7) . . .
156(7) . . .
153(7) . . .
177(7) . . .
157(6) . . .
167(7) . . .
160(7) . . .
163(7) . . .
167(7) . . .
162(7) . . .
166(7) . . .
160(7) . . .
149(7) . . .
157(7) . . .
146(6) . . .
171(7) . . .
160(7) . . .
160(7) . . .
163(7) . . .
171(7) . . .
161(7) . . .
169(7) . . .
153(7) . . .
142(6) . . .
183(7) . . .
170(7) . . .
152(7) . . .
161(7) . . .
152(7) . . .
167(7) . . .
157(7) . . .
173(7) . . .
185(7) . . .
166(7) . . .
150(6) . . .
162(7) . . .
163(7) . . .
164(7) . . .
153(7) . . .
152(6) . . .
173(7) . . .
156(7) . . .
161(7) . . .
156(6) . . .
154(6) . . .
161(7) . . .
148(7) . . .
173(7) . . .
143(6) . . .
182(7) . . .
154(7) . . .
157(7) . . .
164(7) . . .
159(7) . . .
150(7) . . .
149(7) . . .
168(7) . . .
173(7) . . .
158(7) . . .
175(7) . . .
158(7) . . .
158(7) . . .
176(7) . . .
165(7) . . .
169(7) . . .
174(7) . . .
164(7) . . .
150(7) . . .
170(7) . . .
182(7) . . .
171(7) . . .
173(7) . . .
156(7) . . .
174(7) . . .
172(7) . . .
161(7) . . .
173(7) . . .
164(7) . . .
163(7) . . .
168(7) . . .
166(7) . . .
152(6) . . .
136(6) . . .
168(7) . . .
163(7) . . .
159(7) . . .
167(7) . . .
162(7) . . .
172(7) . . .
158(7) . . .
171(7) . . .
154(7) . . .
168(7) . . .
167(7) . . .
160(7) . . .
133(6) . . .
161(7) . . .
175(7) . . .
170(7) . . .
137(6) . . .
153(7) . . .
163(7) . . .
161(7) . . .
158(6) . . .
179(7) . . .
162(7) . . .
166(7) . . .
161(7) . . .
150(6) . . .
161(7) . . .
154(7) . . .
154(7) . . .
152(6) . . .
155(7) . . .
174(7) . . .
180(7) . . .
165(7) . . .
163(7) . . .
163(7) . . .
154(7) . . .
153(7) . . .
162(7) . . .
152(6) . . .
170(7) . . .
167(7) . . .
173(7) . . .
147(6) . . .
153(6) . . .
171(7) . . .
150(6) . . .
148(7) . . .
144(6) . . .
161(7) . . .
162(7) . . .
139(6) . . .
160(7) . . .
152(7) . . .
152(6) . . .
165(7) . . .
147(7) . . .
163(7) . . .
180(7) . . .
156(7) . . .
149(7) . . .
150(7) . . .
159(7) . . .
156(6) . . .
144(6) . . .
167(7) . . .
169(7) . . .
163(7) . . .
160(7) . . .
179(7) . . .
161(7) . . .
154(7) . . .
152(7) . . .
134(6) . . .
171(7) . . .
165(7) . . .
152(7) . . .
150(7) . . .
165(7) . . .
147(6) . . .
159(7) . . .
154(7) . . .
182(7) . . .
175(7) . . .
156(7) . . .
161(7) . . .
151(7) . . .
162(7) . . .
137(6) . . .
151(6) . . .
161(7) . . .
175(7) . . .
169(7) . . .
166(7) . . .
166(7) . . .
150(7) . . .
165(7) . . .
138(6) . . .
162(7) . . .
156(7) . . .
155(7) . . .
148(6) . . .
157(7) . . .
176(7) . . .
151(7) . . .
139(6) . . .
160(7) . . .
171(7) . . .
154(6) . . .
149(6) . . .
158(7) . . .
138(6) . . .
139(6) . . .
151(6) . . .
158(7) . . .
165(7) . . .
141(6) . . .
145(6) . . .
159(6) . . .
161(7) . . .
149(7) . . .
163(7) . . .
163(7) . . .
141(6) . . .
142(7) . . .
151(7) . . .
153(6) . . .
163(7) . . .
159(7) . . .
162(7) . . .
158(7) . . .
156(7) . . .
169(7) . . .
161(7) . . .
151(7) . . .
150(7) . . .
148(7) . . .
149(6) . . .
142(6) . . .
140(6) . . .
166(7) . . .
153(7) . . .
154(6) . . .
157(7) . . .
144(6) . . .
158(7) . . .
145(6) . . .
160(7) . . .
143(6) . . .
167(7) . . .
148(6) . . .
154(7) . . .
157(7) . . .
151(7) . . .
143(6) . . .
161(7) . . .
138(6) . . .
153(6) . . .
162(7) . . .
161(7) . . .
149(6) . . .
150(6) . . .
158(7) . . .
181(7) . . .
162(7) . . .
154(7) . . .
171(7) . . .
144(6) . . .
167(7) . . .
155(7) . . .
162(7) . . .
163(7) . . .
138(6) . . .
144(7) . . .
157(7) . . .
147(6) . . .
146(6) . . .
159(7) . . .
152(7) . . .
165(7) . . .
163(7) . . .
152(6) . . .
174(7) . . .
163(7) . . .
185(8) . . .
161(7) . . .
169(7) . . .
146(6) . . .
155(7) . . .
137(6) . . .
177(7) . . .
154(6) . . .
154(7) . . .
139(6) . . .
163(7) . . .
157(7) . . .
158(7) . . .
140(6) . . .
161(7) . . .
160(7) . . .
147(6) . . .
152(6) . . .
173(7) . . .
159(7) . . .
166(7) . . .
153(7) . . .
144(6) . . .
161(7) . . .
153(7) . . .
166(7) . . .
156(7) . . .
175(7) . . .
156(7) . . .
143(7) . . .
157(7) . . .
150(6) . . .
161(7) . . .
171(7) . . .
151(7) . . .
151(7) . . .
168(7) . . .
161(7) . . .
149(7) . . .
154(7) . . .
126(6) . . .
167(7) . . .
163(7) . . .
157(7) . . .
165(7) . . .
156(7) . . .
176(7) . . .
184(7) . . .
156(7) . . .
149(7) . . .
159(7) . . .
174(7) . . .
141(6) . . .
163(7) . . .
164(7) . . .
170(7) . . .
143(6) . . .
163(7) . . .
154(7) . . .
158(7) . . .
142(6) . . .
154(6) . . .
159(7) . . .
162(7) . . .
150(7) . . .
171(7) . . .
160(7) . . .
159(7) . . .
147(7) . . .
159(7) . . .
149(6) . . .
160(7) . . .
154(7) . . .
154(7) . . .
143(6) . . .
160(7) . . .
146(6) . . .
155(7) . . .
178(8) . . .
149(7) . . .
142(6) . . .
153(6) . . .
152(7) . . .
157(7) . . .
160(7) . . .
157(6) . . .
142(6) . . .
155(7) . . .
158(7) . . .
150(7) . . .
162(7) . . .
163(7) . . .
143(6) . . .
164(7) . . .
154(7) . . .
161(7) . . .
151(6) . . .
161(7) . . .
163(7) . . .
156(7) . . .
160(7) . . .
164(7) . . .
162(7) . . .
157(7) . . .
156(7) . . .
153(6) . . .
147(6) . . .
151(7) . . .
152(7) . . .
176(7) . . .
179(7) . . .
162(7) . . .
146(7) . . .
148(7) . . .
159(7) . . .
148(6) . . .
167(7) . . .
146(6) . . .
156(7) . . .
151(7) . . .
152(6) . . .
182(7) . . .
161(7) . . .
155(7) . . .
173(7) . . .
171(7) . . .
160(7) . . .
162(7) . . .
164(7) . . .
160(7) . . .
175(7) . . .
175(7) . . .
154(7) . . .
164(7) . . .
171(7) . . .
181(7) . . .
162(7) . . .
156(7) . . .
173(7) . . .
176(7) . . .
173(7) . . .
163(7) . . .
157(7) . . .
167(7) . . .
171(7) . . .
174(7) . . .
145(6) . . .
177(7) . . .
164(7) . . .
145(6) . . .
165(7) . . .
156(7) . . .
154(7) . . .
161(7) . . .
138(6) . . .
155(7) . . .
160(7) . . .
143(6) . . .
140(6) . . .
162(7) . . .
154(7) . . .
151(7) . . .
143(6) . . .
148(6) . . .
159(7) . . .
151(6) . . .
164(7) . . .
188(8) . . .
153(7) . . .
163(7) . . .
156(7) . . .
155(7) . . .
161(7) . . .
153(6) . . .
159(7) . . .
152(7) . . .
149(7) . . .
167(7) . . .
156(7) . . .
161(7) . . .
170(7) . . .
150(7) . . .
167(7) . . .
179(7) . . .
165(7) . . .
159(7) . . .
165(7) . . .
160(7) . . .
187(7) . . .
176(7) . . .
182(7) . . .
190(7) . . .
177(7) . . .
156(7) . . .
193(7) . . .
186(7) . . .
191(8) . . .
190(7) . . .
167(7) . . .
183(7) . . .
207(8) . . .
191(7) . . .
183(7) . . .
176(7) . . .
181(7) . . .
190(7) . . .
181(7) . . .
174(7) . . .
190(7) . . .
164(7) . . .
178(7) . . .
182(7) . . .
185(7) . . .
161(7) . . .
159(7) . . .
173(7) . . .
158(7) . . .
167(7) . . .
152(6) . . .
174(7) . . .
184(7) . . .
172(7) . . .
172(7) . . .
193(7) . . .
176(7) . . .
174(7) . . .
192(7) . . .
181(7) . . .
185(7) . . .
186(7) . . .
186(8) . . .
178(7) . . .
173(7) . . .
176(7) . . .
200(8) . . .
168(7) . . .
158(7) . . .
188(7) . . .
180(7) . . .
167(7) . . .
156(7) . . .
160(7) . . .
158(7) . . .
168(7) . . .
181(7) . . .
166(7) . . .
169(7) . . .
204(7) . . .
171(7) . . .
160(7) . . .
172(7) . . .
157(7) . . .
172(7) . . .
163(7) . . .
173(7) . . .
172(7) . . .
164(7) . . .
174(7) . . .
177(7) . . .
179(7) . . .
185(7) . . .
191(7) . . .
182(7) . . .
176(7) . . .
166(7) . . .
183(7) . . .
186(8) . . .
172(7) . . .
176(7) . . .
177(7) . . .
165(7) . . .
172(7) . . .
168(7) . . .
174(7) . . .
168(7) . . .
166(7) . . .
172(7) . . .
178(7) . . .
173(7) . . .
160(7) . . .
174(7) . . .
177(7) . . .
169(7) . . .
154(7) . . .
162(7) . . .
162(7) . . .
184(7) . . .
171(7) . . .
159(7) . . .
149(7) . . .
177(7) . . .
175(7) . . .
160(7) . . .
146(6) . . .
173(7) . . .
171(7) . . .
140(6) . . .
158(7) . . .
157(7) . . .
164(7) . . .
167(7) . . .
166(7) . . .
143(6) . . .
164(7) . . .
153(7) . . .
144(6) . . .
166(7) . . .
152(6) . . .
165(7) . . .
148(6) . . .
161(7) . . .
159(7) . . .
157(7) . . .
147(7) . . .
162(7) . . .
163(7) . . .
164(7) . . .
161(7) . . .
150(7) . . .
156(7) . . .
154(7) . . .
154(6) . . .
170(7) . . .
175(7) . . .
159(7) . . .
148(6) . . .
158(7) . . .
171(7) . . .
157(7) . . .
157(7) . . .
146(6) . . .
151(6) . . .
165(7) . . .
160(7) . . .
156(7) . . .
171(7) . . .
176(7) . . .
188(8) . . .
160(7) . . .
175(7) . . .
163(7) . . .
162(7) . . .
153(6) . . .
165(7) . . .
164(7) . . .
157(7) . . .
152(6) . . .
145(6) . . .
165(7) . . .
163(7) . . .
152(6) . . .
140(6) . . .
162(7) . . .
165(7) . . .
167(7) . . .
155(7) . . .
156(7) . . .
156(7) . . .
169(7) . . .
181(7) . . .
139(6) . . .
146(6) . . .
176(7) . . .
144(6) . . .
136(6) . . .
171(7) . . .
163(7) . . .
142(6) . . .
156(7) . . .
157(7) . . .
134(6) . . .
138(6) . . .
135(6) . . .
176(7) . . .
158(6) . . .
170(7) . . .
160(7) . . .
149(7) . . .
154(7) . . .
145(6) . . .
140(6) . . .
156(7) . . .
164(7) . . .
179(7) . . .
163(7) . . .
153(6) . . .
186(7) . . .
168(7) . . .
163(7) . . .
166(7) . . .
158(7) . . .
173(7) . . .
151(7) . . .
167(7) . . .
169(7) . . .
154(6) . . .
156(7) . . .
160(7) . . .
163(7) . . .
164(7) . . .
153(7) . . .
156(7) . . .
156(7) . . .
157(7) . . .
175(7) . . .
186(7) . . .
160(7) . . .
174(7) . . .
171(7) . . .
170(7) . . .
133(6) . . .
155(7) . . .
174(8) . . .
162(7) . . .
159(7) . . .
149(6) . . .
154(7) . . .
163(7) . . .
157(7) . . .
144(6) . . .
136(6) . . .
156(7) . . .
178(7) . . .
148(6) . . .
164(7) . . .
178(7) . . .
181(7) . . .
172(7) . . .
152(6) . . .
154(6) . . .
153(7) . . .
160(7) . . .
157(7) . . .
159(7) . . .
166(7) . . .
168(7) . . .
152(7) . . .
157(7) . . .
161(7) . . .
153(6) . . .
147(6) . . .
144(7) . . .
172(7) . . .
157(7) . . .
140(6) . . .
142(6) . . .
148(7) . . .
156(7) . . .
146(6) . . .
155(6) . . .
177(7) . . .
161(7) . . .
156(7) . . .
161(7) . . .
162(7) . . .
170(7) . . .
146(6) . . .
168(7) . . .
170(7) . . .
173(7) . . .
181(7) . . .
160(7) . . .
164(7) . . .
169(7) . . .
183(7) . . .
173(7) . . .
162(7) . . .
160(7) . . .
180(7) . . .
157(7) . . .
173(7) . . .
165(7) . . .
171(7) . . .
165(7) . . .
170(7) . . .
162(7) . . .
157(7) . . .
179(7) . . .
163(7) . . .
153(7) . . .
161(7) . . .
149(6) . . .
159(7) . . .
158(7) . . .
138(6) . . .
167(8) . . .
169(7) . . .
161(7) . . .
156(7) . . .
134(6) . . .
178(8) . . .
153(7) . . .
151(6) . . .
154(6) . . .
159(7) . . .
166(7) . . .
158(7) . . .
159(7) . . .
154(7) . . .
172(7) . . .
169(7) . . .
169(7) . . .
157(6) . . .
166(7) . . .
154(7) . . .
156(7) . . .
165(7) . . .
176(7) . . .
164(7) . . .
161(7) . . .
163(7) . . .
152(7) . . .
164(7) . . .
164(7) . . .
154(7) . . .
169(7) . . .
163(7) . . .
169(7) . . .
164(7) . . .
173(7) . . .
163(7) . . .
148(6) . . .
168(7) . . .
158(7) . . .
153(7) . . .
152(7) . . .
157(7) . . .
154(7) . . .
170(7) . . .
167(7) . . .
159(7) . . .
158(7) . . .
165(7) . . .
142(7) . . .
132(6) . . .
158(7) . . .
162(7) . . .
158(7) . . .
145(6) . . .
177(7) . . .
151(7) . . .
152(6) . . .
141(6) . . .
160(7) . . .
154(7) . . .
148(6) . . .
143(6) . . .
149(6) . . .
167(7) . . .
153(7) . . .
168(7) . . .
151(6) . . .
143(6) . . .
142(7) . . .
159(7) . . .
180(7) . . .
159(7) . . .
151(7) . . .
157(7) . . .
176(7) . . .
150(6) . . .
157(7) . . .
167(7) . . .
164(7) . . .
148(7) . . .
163(7) . . .
137(6) . . .
157(7) . . .
146(7) . . .
149(7) . . .
155(7) . . .
137(6) . . .
164(7) . . .
164(7) . . .
155(6) . . .
163(7) . . .
141(6) . . .
165(7) . . .
159(7) . . .
148(6) . . .
158(7) . . .
152(6) . . .
162(7) . . .
159(7) . . .
177(7) . . .
146(6) . . .
144(6) . . .
160(7) . . .
154(7) . . .
149(7) . . .
148(6) . . .
148(6) . . .
152(7) . . .
155(7) . . .
160(7) . . .
156(7) . . .
155(7) . . .
155(7) . . .
150(7) . . .
155(7) . . .
159(7) . . .
175(7) . . .
169(7) . . .
168(7) . . .
162(7) . . .
148(6) . . .
143(6) . . .
147(7) . . .
172(7) . . .
156(7) . . .
153(6) . . .
162(7) . . .
170(7) . . .
173(7) . . .
156(7) . . .
148(6) . . .
162(7) . . .
172(7) . . .
168(7) . . .
154(7) . . .
158(7) . . .
181(7) . . .
149(7) . . .
138(6) . . .
142(6) . . .
147(6) . . .
148(7) . . .
152(7) . . .
171(7) . . .
165(7) . . .
145(6) . . .
144(6) . . .
152(7) . . .
166(7) . . .
154(6) . . .
132(6) . . .
140(6) . . .
143(7) . . .
155(7) . . .
156(7) . . .
148(6) . . .
145(7) . . .
162(7) . . .
152(7) . . .
138(6) . . .
163(7) . . .
164(7) . . .
146(7) . . .
162(7) . . .
154(6) . . .
159(7) . . .
143(7) . . .
158(7) . . .
158(7) . . .
169(7) . . .
158(7) . . .
146(6) . . .
149(7) . . .
144(7) . . .
148(6) . . .
152(7) . . .
146(6) . . .
145(6) . . .
144(6) . . .
140(6) . . .
140(6) . . .
158(7) . . .
152(7) . . .
141(6) . . .
137(6) . . .
153(7) . . .
148(7) . . .
136(6) . . .
164(7) . . .
147(6) . . .
163(7) . . .
136(6) . . .
151(7) . . .
149(6) . . .
135(6) . . .
153(7) . . .
146(7) . . .
152(7) . . .
149(6) . . .
161(7) . . .
147(6) . . .
167(7) . . .
154(7) . . .
148(6) . . .
157(7) . . .
154(7) . . .
162(7) . . .
169(7) . . .
146(6) . . .
147(6) . . .
154(6) . . .
161(7) . . .
165(7) . . .
148(6) . . .
177(7) . . .
154(7) . . .
155(7) . . .
162(7) . . .
153(6) . . .
142(6) . . .
172(7) . . .
141(6) . . .
172(7) . . .
166(7) . . .
160(7) . . .
162(7) . . .
166(7) . . .
164(7) . . .
166(7) . . .
147(6) . . .
145(7) . . .
146(7) . . .
147(7) . . .
156(6) . . .
153(7) . . .
140(6) . . .
152(7) . . .
164(7) . . .
171(7) . . .
156(7) . . .
151(7) . . .
160(7) . . .
155(7) . . .
157(7) . . .
184(8) . . .
169(7) . . .
152(7) . . .
170(7) . . .
164(7) . . .
164(7) . . .
176(7) . . .
162(7) . . .
170(7) . . .
152(6) . . .
157(7) . . .
162(7) . . .
165(7) . . .
155(7) . . .
146(6) . . .
144(6) . . .
181(7) . . .
159(7) . . .
148(7) . . .
143(6) . . .
133(6) . . .
142(6) . . .
152(7) . . .
146(6) . . .
163(7) . . .
161(7) . . .
155(7) . . .
143(7) . . .
127(6) . . .
150(7) . . .
163(7) . . .
155(7) . . .
159(7) . . .
135(6) . . .
157(7) . . .
151(6) . . .
151(7) . . .
149(6) . . .
159(7) . . .
154(7) . . .
163(7) . . .
130(6) . . .
141(6) . . .
159(7) . . .
144(6) . . .
151(6) . . .
147(7) . . .
142(7) . . .
147(7) . . .
155(7) . . .
159(7) . . .
160(7) . . .
156(7) . . .
153(7) . . .
137(6) . . .
153(6) . . .
134(6) . . .
144(7) . . .
156(7) . . .
151(6) . . .
124(6) . . .
142(6) . . .
146(7) . . .
158(7) . . .
138(6) . . .
139(6) . . .
154(7) . . .
134(6) . . .
140(6) . . .
139(6) . . .
148(6) . . .
130(6) . . .
140(7) . . .
148(7) . . .
149(6) . . .
144(6) . . .
129(6) . . .
147(7) . . .
136(6) . . .
144(6) . . .
144(7) . . .
144(6) . . .
165(7) . . .
159(7) . . .
155(7) . . .
132(6) . . .
154(7) . . .
143(6) . . .
130(6) . . .
151(6) . . .
141(6) . . .
146(7) . . .
153(7) . . .
137(6) . . .
147(6) . . .
162(7) . . .
135(6) . . .
156(7) . . .
145(6) . . .
160(7) . . .
148(6) . . .
163(7) . . .
161(7) . . .
137(6) . . .
139(6) . . .
145(6) . . .
156(7) . . .
139(6) . . .
155(7) . . .
147(6) . . .
138(6) . . .
147(7) . . .
161(7) . . .
138(6) . . .
161(7) . . .
156(7) . . .
151(7) . . .
167(7) . . .
163(7) . . .
138(6) . . .
146(6) . . .
161(7) . . .
160(7) . . .
167(7) . . .
160(7) . . .
156(7) . . .
152(7) . . .
140(6) . . .
143(6) . . .
151(6) . . .
144(6) . . .
157(7) . . .
154(7) . . .
150(6) . . .
137(6) . . .
152(7) . . .
134(6) . . .
155(7) . . .
143(6) . . .
147(7) . . .
151(7) . . .
150(7) . . .
145(6) . . .
140(6) . . .
147(6) . . .
140(6) . . .
139(6) . . .
152(6) . . .
153(6) . . .
146(7) . . .
139(6) . . .
140(6) . . .
142(6) . . .
147(6) . . .
156(7) . . .
159(7) . . .
141(6) . . .
151(6) . . .
151(6) . . .
152(7) . . .
138(6) . . .
163(7) . . .
148(6) . . .
139(6) . . .
150(6) . . .
155(7) . . .
153(7) . . .
148(6) . . .
153(6) . . .
149(6) . . .
148(7) . . .
149(7) . . .
173(7) . . .
165(7) . . .
140(6) . . .
148(7) . . .
145(6) . . .
145(6) . . .
160(7) . . .
151(7) . . .
155(7) . . .
152(7) . . .
155(6) . . .
158(7) . . .
138(6) . . .
142(6) . . .
155(7) . . .
145(6) . . .
142(6) . . .
145(7) . . .
141(6) . . .
150(7) . . .
154(6) . . .
149(6) . . .
135(6) . . .
155(7) . . .
146(6) . . .
133(6) . . .
138(6) . . .
147(7) . . .
147(6) . . .
146(6) . . .
141(6) . . .
144(7) . . .
138(7) . . .
133(6) . . .
154(7) . . .
133(6) . . .
155(7) . . .
148(7) . . .
157(7) . . .
136(6) . . .
136(6) . . .
151(7) . . .
135(6) . . .
139(6) . . .
171(7) . . .
120(6) . . .
148(7) . . .
152(7) . . .
145(7) . . .
155(6) . . .
143(6) . . .
149(7) . . .
140(7) . . .
148(7) . . .
148(6) . . .
147(6) . . .
146(6) . . .
147(7) . . .
155(7) . . .
156(6) . . .
152(7) . . .
156(7) . . .
144(7) . . .
146(6) . . .
140(6) . . .
147(7) . . .
141(6) . . .
138(6) . . .
141(6) . . .
159(7) . . .
154(7) . . .
143(6) . . .
144(7) . . .
138(6) . . .
128(6) . . .
137(6) . . .
150(7) . . .
147(6) . . .
147(6) . . .
154(6) . . .
155(7) . . .
138(6) . . .
151(7) . . .
154(7) . . .
141(6) . . .
150(7) . . .
137(7) . . .
149(7) . . .
145(6) . . .
155(7) . . .
153(7) . . .
142(7) . . .
141(6) . . .
151(6) . . .
152(6) . . .
148(7) . . .
138(7) . . .
139(6) . . .
133(6) . . .
154(6) . . .
154(7) . . .
142(7) . . .
133(6) . . .
138(6) . . .
134(6) . . .
141(7) . . .
141(6) . . .
146(6) . . .
130(6) . . .
136(6) . . .
142(6) . . .
137(6) . . .
153(7) . . .
144(6) . . .
162(7) . . .
153(7) . . .
139(6) . . .
149(7) . . .
162(7) . . .
145(6) . . .
133(6) . . .
142(7) . . .
133(6) . . .
139(6) . . .
134(6) . . .
156(7) . . .
131(6) . . .
131(6) . . .
142(6) . . .
145(7) . . .
138(6) . . .
147(7) . . .
138(6) . . .
153(6) . . .
153(7) . . .
145(7) . . .
141(6) . . .
153(6) . . .
144(6) . . .
145(6) . . .
141(7) . . .
131(6) . . .
142(6) . . .
147(6) . . .
138(6) . . .
143(7) . . .
141(6) . . .
137(6) . . .
148(6) . . .
125(6) . . .
148(7) . . .
143(7) . . .
140(6) . . .
170(7) . . .
148(6) . . .
147(7) . . .
154(7) . . .
153(6) . . .
141(6) . . .
156(7) . . .
146(6) . . .
163(7) . . .
146(6) . . .
141(6) . . .
134(6) . . .
133(6) . . .
172(7) . . .
127(6) . . .
149(7) . . .
142(6) . . .
138(6) . . .
137(6) . . .
148(6) . . .
145(7) . . .
146(7) . . .
135(6) . . .
146(6) . . .
166(7) . . .
158(7) . . .
143(7) . . .
148(7) . . .
128(6) . . .
133(6) . . .
145(6) . . .
135(6) . . .
141(6) . . .
147(6) . . .
130(6) . . .
137(6) . . .
145(7) . . .
150(7) . . .
135(6) . . .
140(6) . . .
143(6) . . .
140(6) . . .
143(7) . . .
137(6) . . .
145(6) . . .
162(7) . . .
147(7) . . .
145(6) . . .
146(6) . . .
127(6) . . .
150(6) . . .
145(7) . . .
143(6) . . .
141(6) . . .
148(6) . . .
148(7) . . .
152(7) . . .
140(6) . . .
127(6) . . .
142(6) . . .
139(6) . . .
144(6) . . .
156(7) . . .
154(6) . . .
143(6) . . .
139(6) . . .
147(7) . . .
139(6) . . .
150(6) . . .
135(6) . . .
148(7) . . .
152(7) . . .
139(6) . . .
157(7) . . .
155(7) . . .
139(6) . . .
152(7) . . .
144(6) . . .
134(6) . . .
150(7) . . .
137(6) . . .
140(7) . . .
153(6) . . .
153(6) . . .
129(6) . . .
155(7) . . .
140(6) . . .
143(6) . . .
139(6) . . .
136(6) . . .
145(7) . . .
136(6) . . .
147(6) . . .
153(6) . . .
141(6) . . .
142(7) . . .
145(6) . . .
147(6) . . .
160(7) . . .
156(7) . . .
144(7) . . .
137(7) . . .
150(6) . . .
142(6) . . .
146(7) . . .
154(7) . . .
145(6) . . .
149(6) . . .
156(7) . . .
150(7) . . .
141(6) . . .
134(6) . . .
160(7) . . .
144(6) . . .
141(6) . . .
152(7) . . .
153(7) . . .
161(7) . . .
134(6) . . .
143(7) . . .
140(6) . . .
141(6) . . .
152(6) . . .
143(6) . . .
143(7) . . .
146(7) . . .
144(6) . . .
151(6) . . .
142(6) . . .
142(6) . . .
152(7) . . .
143(6) . . .
146(6) . . .
153(7) . . .
153(7) . . .
149(7) . . .
149(6) . . .
159(7) . . .
147(7) . . .
142(7) . . .
166(7) . . .
157(6) . . .
159(7) . . .
160(7) . . .
154(7) . . .
147(7) . . .
133(6) . . .
148(6) . . .
140(6) . . .
138(6) . . .
129(6) . . .
146(6) . . .
129(6) . . .
139(6) . . .
140(6) . . .
146(6) . . .
138(6) . . .
153(7) . . .
140(6) . . .
153(7) . . .
149(6) . . .
163(7) . . .
158(7) . . .
162(7) . . .
160(7) . . .
150(6) . . .
141(6) . . .
134(6) . . .
141(6) . . .
156(7) . . .
153(6) . . .
141(6) . . .
147(7) . . .
149(7) . . .
168(7) . . .
159(7) . . .
150(6) . . .
171(7) . . .
157(7) . . .
149(6) . . .
157(7) . . .
146(6) . . .
171(7) . . .
161(7) . . .
148(6) . . .
145(6) . . .
157(6) . . .
147(7) . . .
150(7) . . .
166(7) . . .
166(7) . . .
143(6) . . .
158(7) . . .
165(7) . . .
172(7) . . .
153(6) . . .
171(7) . . .
147(6) . . .
163(7) . . .
144(6) . . .
150(6) . . .
174(7) . . .
142(6) . . .
143(7) . . .
166(7) . . .
141(6) . . .
146(6) . . .
159(7) . . .
144(6) . . .
158(7) . . .
151(6) . . .
141(6) . . .
153(7) . . .
145(6) . . .
162(7) . . .
160(7) . . .
153(7) . . .
161(7) . . .
165(7) . . .
172(7) . . .
154(6) . . .
167(7) . . .
166(7) . . .
155(7) . . .
164(7) . . .
152(6) . . .
145(6) . . .
154(7) . . .
135(6) . . .
146(6) . . .
161(7) . . .
137(6) . . .
146(7) . . .
150(7) . . .
156(6) . . .
163(7) . . .
151(7) . . .
149(7) . . .
172(7) . . .
140(6) . . .
150(6) . . .
147(6) . . .
148(7) . . .
158(7) . . .
154(6) . . .
162(7) . . .
151(7) . . .
170(7) . . .
144(6) . . .
137(6) . . .
148(6) . . .
155(7) . . .
144(7) . . .
156(7) . . .
165(7) . . .
152(6) . . .
157(7) . . .
159(7) . . .
145(7) . . .
145(6) . . .
150(6) . . .
143(6) . . .
135(6) . . .
148(6) . . .
154(6) . . .
146(6) . . .
160(7) . . .
162(7) . . .
144(6) . . .
162(7) . . .
154(7) . . .
142(7) . . .
141(6) . . .
149(6) . . .
155(6) . . .
158(7) . . .
145(6) . . .
152(7) . . .
151(6) . . .
143(6) . . .
137(6) . . .
142(7) . . .
159(7) . . .
158(7) . . .
148(6) . . .
138(6) . . .
152(7) . . .
161(7) . . .
136(6) . . .
143(6) . . .
153(7) . . .
153(7) . . .
147(6) . . .
141(6) . . .
145(6) . . .
146(7) . . .
138(6) . . .
154(7) . . .
156(7) . . .
147(6) . . .
159(7) . . .
167(7) . . .
184(7) . . .
148(6) . . .
168(7) . . .
160(7) . . .
151(7) . . .
147(7) . . .
150(6) . . .
132(6) . . .
140(6) . . .
137(6) . . .
155(7) . . .
149(6) . . .
170(7) . . .
170(7) . . .
164(7) . . .
168(7) . . .
144(6) . . .
159(7) . . .
135(6) . . .
161(7) . . .
159(7) . . .
159(7) . . .
175(7) . . .
170(7) . . .
153(7) . . .
161(7) . . .
159(7) . . .
162(7) . . .
150(7) . . .
149(7) . . .
156(7) . . .
161(7) . . .
161(7) . . .
156(7) . . .
146(6) . . .
154(6) . . .
162(7) . . .
156(7) . . .
155(7) . . .
162(7) . . .
145(6) . . .
156(7) . . .
149(7) . . .
130(6) . . .
155(7) . . .
163(7) . . .
139(6) . . .
155(7) . . .
157(7) . . .
159(7) . . .
145(6) . . .
125(6) . . .
149(7) . . .
163(7) . . .
146(7) . . .
142(6) . . .
161(7) . . .
142(6) . . .
141(7) . . .
150(7) . . .
159(7) . . .
153(7) . . .
146(6) . . .
149(7) . . .
155(7) . . .
150(6) . . .
144(6) . . .
134(6) . . .
140(6) . . .
145(6) . . .
147(6) . . .
159(7) . . .
158(7) . . .
160(7) . . .
151(7) . . .
144(6) . . .
144(7) . . .
170(8) . . .
159(7) . . .
164(7) . . .
160(7) . . .
144(7) . . .
142(7) . . .
142(6) . . .
143(6) . . .
152(6) . . .
152(7) . . .
142(7) . . .
146(7) . . .
155(7) . . .
155(7) . . .
148(7) . . .
150(7) . . .
150(7) . . .
143(6) . . .
150(7) . . .
134(6) . . .
139(6) . . .
156(7) . . .
170(7) . . .
162(7) . . .
141(6) . . .
159(7) . . .
179(7) . . .
163(7) . . .
151(6) . . .
150(7) . . .
142(6) . . .
165(7) . . .
145(6) . . .
148(6) . . .
141(6) . . .
156(7) . . .
152(7) . . .
139(6) . . .
150(7) . . .
130(6) . . .
141(6) . . .
160(7) . . .
152(6) . . .
156(7) . . .
132(6) . . .
151(7) . . .
149(6) . . .
148(6) . . .
125(6) . . .
132(6) . . .
144(7) . . .
153(6) . . .
165(7) . . .
158(7) . . .
150(7) . . .
164(7) . . .
165(7) . . .
161(7) . . .
148(7) . . .
151(7) . . .
154(7) . . .
156(7) . . .
159(7) . . .
176(7) . . .
150(7) . . .
150(6) . . .
157(6) . . .
157(7) . . .
145(6) . . .
158(7) . . .
157(7) . . .
145(6) . . .
156(7) . . .
154(7) . . .
150(7) . . .
135(6) . . .
146(6) . . .
158(7) . . .
153(7) . . .
151(7) . . .
157(7) . . .
158(7) . . .
152(7) . . .
139(6) . . .
150(7) . . .
148(6) . . .
145(6) . . .
152(6) . . .
148(6) . . .
150(7) . . .
164(7) . . .
139(6) . . .
148(6) . . .
134(6) . . .
152(7) . . .
149(6) . . .
145(6) . . .
148(7) . . .
149(7) . . .
137(6) . . .
141(6) . . .
142(6) . . .
148(7) . . .
156(7) . . .
156(7) . . .
161(7) . . .
165(7) . . .
148(7) . . .
137(6) . . .
145(7) . . .
154(6) . . .
148(6) . . .
171(7) . . .
154(7) . . .
160(7) . . .
141(6) . . .
160(7) . . .
169(7) . . .
151(7) . . .
163(7) . . .
162(7) . . .
146(6) . . .
159(7) . . .
144(7) . . .
146(6) . . .
148(6) . . .
150(6) . . .
148(7) . . .
143(7) . . .
154(7) . . .
156(6) . . .
143(6) . . .
153(7) . . .
140(6) . . .
170(7) . . .
156(6) . . .
150(7) . . .
137(6) . . .
146(7) . . .
158(7) . . .
148(6) . . .
139(7) . . .
145(7) . . .
147(6) . . .
151(7) . . .
153(6) . . .
151(7) . . .
149(7) . . .
162(7) . . .
154(7) . . .
141(6) . . .
161(7) . . .
155(7) . . .
153(7) . . .
142(6) . . .
161(7) . . .
149(7) . . .
144(6) . . .
166(7) . . .
148(6) . . .
138(6) . . .
159(7) . . .
148(7) . . .
153(7) . . .
137(6) . . .
166(7) . . .
158(7) . . .
158(7) . . .
134(6) . . .
137(6) . . .
145(6) . . .
155(7) . . .
162(7) . . .
151(7) . . .
142(6) . . .
145(6) . . .
173(7) . . .
163(7) . . .
144(6) . . .
135(6) . . .
159(7) . . .
167(7) . . .
144(7) . . .
160(7) . . .
155(6) . . .
130(6) . . .
149(7) . . .
147(6) . . .
161(7) . . .
179(7) . . .
157(7) . . .
162(7) . . .
156(7) . . .
146(6) . . .
134(6) . . .
147(7) . . .
158(7) . . .
163(7) . . .
152(6) . . .
148(6) . . .
149(7) . . .
148(7) . . .
150(7) . . .
141(6) . . .
149(6) . . .
149(7) . . .
145(7) . . .
155(7) . . .
167(7) . . .
156(7) . . .
145(6) . . .
162(7) . . .
152(7) . . .
139(6) . . .
142(6) . . .
136(6) . . .
142(7) . . .
143(6) . . .
148(6) . . .
139(6) . . .
142(6) . . .
141(7) . . .
156(7) . . .
160(6) . . .
148(6) . . .
132(6) . . .
152(7) . . .
154(7) . . .
137(6) . . .
131(6) . . .
155(7) . . .
129(6) . . .
153(7) . . .
147(6) . . .
146(6) . . .
137(6) . . .
157(7) . . .
144(6) . . .
149(6) . . .
138(6) . . .
140(6) . . .
169(7) . . .
160(7) . . .
162(7) . . .
143(6) . . .
135(6) . . .
145(7) . . .
135(6) . . .
147(6) . . .
171(7) . . .
153(7) . . .
145(6) . . .
144(6) . . .
149(6) . . .
151(6) . . .
158(7) . . .
145(6) . . .
147(6) . . .
146(6) . . .
133(6) . . .
129(6) . . .
135(6) . . .
149(6) . . .
136(6) . . .
133(6) . . .
146(7) . . .
141(6) . . .
154(7) . . .
143(6) . . .
142(6) . . .
151(7) . . .
145(6) . . .
164(7) . . .
161(7) . . .
150(6) . . .
123(6) . . .
137(6) . . .
131(6) . . .
127(6) . . .
151(7) . . .
160(7) . . .
137(6) . . .
141(6) . . .
144(6) . . .
157(7) . . .
136(6) . . .
159(7) . . .
151(6) . . .
161(7) . . .
162(7) . . .
141(6) . . .
135(6) . . .
166(7) . . .
165(7) . . .
148(7) . . .
147(6) . . .
148(6) . . .
165(7) . . .
163(7) . . .
150(7) . . .
165(7) . . .
141(6) . . .
139(6) . . .
134(6) . . .
158(7) . . .
139(6) . . .
147(6) . . .
150(6) . . .
143(6) . . .
155(7) . . .
163(7) . . .
145(6) . . .
146(6) . . .
154(7) . . .
133(6) . . .
141(6) . . .
156(7) . . .
156(7) . . .
138(6) . . .
146(7) . . .
158(7) . . .
140(6) . . .
149(6) . . .
139(6) . . .
136(7) . . .
150(7) . . .
145(6) . . .
145(6) . . .
138(6) . . .
159(7) . . .
154(7) . . .
145(6) . . .
159(7) . . .
149(7) . . .
150(7) . . .
148(7) . . .
152(6) . . .
161(7) . . .
131(6) . . .
149(7) . . .
140(6) . . .
158(7) . . .
151(6) . . .
145(6) . . .
140(6) . . .
159(7) . . .
159(7) . . .
157(7) . . .
145(6) . . .
152(7) . . .
147(6) . . .
144(6) . . .
135(6) . . .
131(6) . . .
145(6) . . .
166(7) . . .
151(6) . . .
140(6) . . .
153(7) . . .
165(7) . . .
143(6) . . .
154(6) . . .
155(7) . . .
139(7) . . .
132(6) . . .
138(6) . . .
145(6) . . .
147(7) . . .
150(7) . . .
166(7) . . .
130(6) . . .
136(6) . . .
149(6) . . .
164(7) . . .
156(7) . . .
137(6) . . .
149(6) . . .
173(7) . . .
150(7) . . .
144(7) . . .
142(6) . . .
164(7) . . .
159(7) . . .
135(6) . . .
168(7) . . .
159(7) . . .
159(7) . . .
149(7) . . .
155(7) . . .
154(6) . . .
156(6) . . .
152(7) . . .
160(7) . . .
143(6) . . .
153(7) . . .
147(6) . . .
135(6) . . .
145(7) . . .
158(7) . . .
155(7) . . .
152(6) . . .
139(6) . . .
157(7) . . .
153(7) . . .
155(7) . . .
137(6) . . .
134(6) . . .
145(7) . . .
157(7) . . .
155(6) . . .
167(7) . . .
161(7) . . .
164(7) . . .
140(6) . . .
176(7) . . .
147(6) . . .
154(7) . . .
162(7) . . .
150(7) . . .
134(6) . . .
155(7) . . .
157(7) . . .
145(7) . . .
157(7) . . .
161(7) . . .
145(6) . . .
159(7) . . .
144(7) . . .
168(7) . . .
150(6) . . .
144(6) . . .
137(6) . . .
142(7) . . .
151(7) . . .
145(6) . . .
164(7) . . .
142(6) . . .
164(7) . . .
148(6) . . .
152(6) . . .
139(6) . . .
140(6) . . .
147(6) . . .
145(6) . . .
139(6) . . .
137(6) . . .
122(6) . . .
141(7) . . .
149(6) . . .
151(6) . . .
142(7) . . .
143(7) . . .
137(6) . . .
160(7) . . .
149(6) . . .
137(7) . . .
140(7) . . .
154(7) . . .
136(6) . . .
146(6) . . .
141(6) . . .
158(7) . . .
176(7) . . .
163(7) . . .
144(6) . . .
157(7) . . .
166(7) . . .
145(7) . . .
146(6) . . .
160(7) . . .
160(7) . . .
154(7) . . .
133(6) . . .
161(7) . . .
157(7) . . .
157(7) . . .
159(7) . . .
162(7) . . .
136(6) . . .
149(6) . . .
159(7) . . .
175(7) . . .
162(7) . . .
141(6) . . .
139(6) . . .
157(7) . . .
165(7) . . .
161(7) . . .
159(7) . . .
150(7) . . .
153(7) . . .
159(7) . . .
156(7) . . .
152(6) . . .
133(6) . . .
163(7) . . .
155(7) . . .
149(6) . . .
131(6) . . .
134(6) . . .
143(7) . . .
165(7) . . .
148(6) . . .
162(7) . . .
148(6) . . .
158(7) . . .
155(7) . . .
142(6) . . .
152(6) . . .
134(6) . . .
135(6) . . .
146(7) . . .
164(7) . . .
136(6) . . .
146(7) . . .
141(7) . . .
142(6) . . .
134(6) . . .
170(7) . . .
143(6) . . .
143(7) . . .
152(7) . . .
158(7) . . .
142(6) . . .
144(6) . . .
146(7) . . .
148(7) . . .
155(6) . . .
147(6) . . .
121(6) . . .
146(7) . . .
139(6) . . .
144(6) . . .
149(6) . . .
153(7) . . .
142(6) . . .
153(6) . . .
165(7) . . .
145(6) . . .
151(7) . . .
131(6) . . .
145(6) . . .
136(6) . . .
151(7) . . .
149(7) . . .
145(6) . . .
147(6) . . .
157(7) . . .
156(7) . . .
147(7) . . .
157(7) . . .
160(7) . . .
145(6) . . .
160(7) . . .
162(7) . . .
157(7) . . .
160(7) . . .
160(7) . . .
143(6) . . .
152(7) . . .
148(6) . . .
149(6) . . .
159(7) . . .
144(7) . . .
155(7) . . .
141(6) . . .
145(6) . . .
148(7) . . .
147(6) . . .
144(6) . . .
177(7) . . .
160(7) . . .
159(7) . . .
155(7) . . .
154(7) . . .
149(6) . . .
162(7) . . .
158(7) . . .
144(6) . . .
161(7) . . .
168(7) . . .
151(6) . . .
152(6) . . .
148(7) . . .
147(6) . . .
154(7) . . .
159(7) . . .
139(6) . . .
149(7) . . .
138(6) . . .
144(6) . . .
160(7) . . .
165(7) . . .
151(7) . . .
149(7) . . .
143(6) . . .
155(6) . . .
135(6) . . .
152(7) . . .
156(7) . . .
152(6) . . .
160(7) . . .
152(7) . . .
149(7) . . .
146(7) . . .
132(6) . . .
133(6) . . .
145(6) . . .
159(7) . . .
139(6) . . .
145(6) . . .
156(6) . . .
156(7) . . .
159(7) . . .
147(7) . . .
138(6) . . .
152(6) . . .
160(7) . . .
161(7) . . .
151(7) . . .
159(7) . . .
138(6) . . .
152(7) . . .
147(7) . . .
157(7) . . .
169(7) . . .
151(7) . . .
137(6) . . .
149(7) . . .
167(7) . . .
146(6) . . .
136(6) . . .
151(7) . . .
166(7) . . .
152(7) . . .
157(7) . . .
153(7) . . .
146(7) . . .
154(7) . . .
151(7) . . .
143(6) . . .
150(6) . . .
150(6) . . .
142(6) . . .
160(7) . . .
142(6) . . .
142(7) . . .
156(7) . . .
149(6) . . .
149(6) . . .
157(7) . . .
138(6) . . .
159(7) . . .
141(6) . . .
141(6) . . .
156(7) . . .
148(7) . . .
133(6) . . .
145(7) . . .
150(6) . . .
149(6) . . .
147(6) . . .
149(7) . . .
141(6) . . .
169(7) . . .
151(6) . . .
131(6) . . .
137(6) . . .
150(6) . . .
163(7) . . .
142(6) . . .
165(7) . . .
157(7) . . .
146(6) . . .
144(6) . . .
148(6) . . .
152(7) . . .
148(7) . . .
160(7) . . .
150(6) . . .
160(7) . . .
152(7) . . .
136(6) . . .
154(7) . . .
137(6) . . .
148(6) . . .
153(7) . . .
156(7) . . .
170(7) . . .
162(7) . . .
154(7) . . .
144(6) . . .
150(7) . . .
144(6) . . .
161(7) . . .
132(6) . . .
136(6) . . .
160(7) . . .
167(7) . . .
138(6) . . .
168(7) . . .
153(7) . . .
139(6) . . .
141(6) . . .
139(6) . . .
153(7) . . .
154(7) . . .
155(7) . . .
145(6) . . .
156(7) . . .
150(7) . . .
154(7) . . .
152(7) . . .
152(7) . . .
133(6) . . .
140(6) . . .
148(7) . . .
146(6) . . .
137(6) . . .
159(7) . . .
161(7) . . .
144(7) . . .
154(7) . . .
144(6) . . .
157(7) . . .
140(6) . . .
151(7) . . .
153(7) . . .
142(6) . . .
136(6) . . .
141(6) . . .
145(7) . . .
139(6) . . .
162(7) . . .
151(7) . . .
146(6) . . .
150(7) . . .
138(6) . . .
147(6) . . .
156(7) . . .
158(7) . . .
161(7) . . .
145(6) . . .
163(7) . . .
170(7) . . .
151(7) . . .
142(7) . . .
151(7) . . .
152(6) . . .
136(6) . . .
149(7) . . .
135(6) . . .
149(6) . . .
153(6) . . .
149(7) . . .
145(7) . . .
128(6) . . .
140(6) . . .
162(7) . . .
139(6) . . .
140(7) . . .
152(7) . . .
163(7) . . .
135(6) . . .
145(6) . . .
143(7) . . .
138(6) . . .
139(6) . . .
134(6) . . .
135(6) . . .
146(7) . . .
151(7) . . .
128(6) . . .
142(6) . . .
153(7) . . .
142(6) . . .
151(7) . . .
130(6) . . .
137(6) . . .
139(6) . . .
154(7) . . .
154(7) . . .
134(6) . . .
133(6) . . .
144(7) . . .
156(7) . . .
152(7) . . .
147(6) . . .
154(7) . . .
157(7) . . .
148(7) . . .
147(6) . . .
154(6) . . .
152(7) . . .
131(6) . . .
158(7) . . .
162(7) . . .
156(6) . . .
145(6) . . .
135(6) . . .
154(7) . . .
144(6) . . .
131(6) . . .
137(6) . . .
134(6) . . .
143(7) . . .
140(6) . . .
142(6) . . .
137(7) . . .
140(7) . . .
149(6) . . .
144(6) . . .
162(7) . . .
140(6) . . .
127(6) . . .
156(7) . . .
157(7) . . .
138(6) . . .
141(6) . . .
134(6) . . .
143(6) . . .
152(6) . . .
154(6) . . .
147(6) . . .
142(6) . . .
143(6) . . .
161(7) . . .
145(6) . . .
148(7) . . .
159(7) . . .
155(7) . . .
162(7) . . .
146(6) . . .
155(7) . . .
159(7) . . .
152(6) . . .
159(7) . . .
151(6) . . .
157(7) . . .
160(7) . . .
144(6) . . .
144(6) . . .
137(6) . . .
157(7) . . .
138(6) . . .
140(6) . . .
136(6) . . .
165(7) . . .
145(6) . . .
139(6) . . .
154(7) . . .
140(6) . . .
153(7) . . .
153(7) . . .
141(6) . . .
144(6) . . .
145(6) . . .
148(7) . . .
157(7) . . .
143(6) . . .
148(6) . . .
145(6) . . .
145(7) . . .
169(7) . . .
157(7) . . .
143(6) . . .
145(6) . . .
146(6) . . .
145(7) . . .
137(6) . . .
140(6) . . .
138(6) . . .
144(6) . . .
147(7) . . .
153(7) . . .
144(6) . . .
137(6) . . .
152(7) . . .
152(7) . . .
147(6) . . .
142(6) . . .
159(7) . . .
154(7) . . .
142(6) . . .
145(7) . . .
149(6) . . .
140(6) . . .
151(7) . . .
148(7) . . .
156(7) . . .
142(6) . . .
155(7) . . .
159(7) . . .
155(7) . . .
147(6) . . .
157(6) . . .
165(7) . . .
140(6) . . .
145(6) . . .
136(6) . . .
152(6) . . .
168(7) . . .
147(7) . . .
142(6) . . .
143(6) . . .
147(6) . . .
149(7) . . .
161(7) . . .
149(6) . . .
151(6) . . .
159(7) . . .
151(7) . . .
140(6) . . .
149(7) . . .
157(6) . . .
153(6) . . .
155(7) . . .
152(7) . . .
139(6) . . .
146(6) . . .
139(6) . . .
132(6) . . .
143(7) . . .
148(6) . . .
140(6) . . .
151(6) . . .
156(7) . . .
146(6) . . .
143(6) . . .
139(6) . . .
142(6) . . .
162(7) . . .
149(7) . . .
136(6) . . .
131(6) . . .
133(6) . . .
131(6) . . .
152(7) . . .
147(7) . . .
143(6) . . .
142(6) . . .
136(6) . . .
137(6) . . .
148(6) . . .
128(6) . . .
122(6) . . .
143(7) . . .
141(6) . . .
137(6) . . .
148(6) . . .
161(7) . . .
139(6) . . .
148(7) . . .
144(6) . . .
135(6) . . .
136(6) . . .
138(6) . . .
142(6) . . .
157(7) . . .
142(6) . . .
139(6) . . .
153(7) . . .
147(7) . . .
153(6) . . .
148(6) . . .
141(6) . . .
144(7) . . .
130(6) . . .
161(7) . . .
139(6) . . .
131(6) . . .
141(7) . . .
159(7) . . .
152(6) . . .
155(7) . . .
136(6) . . .
139(6) . . .
150(6) . . .
145(6) . . .
159(7) . . .
143(6) . . .
138(6) . . .
141(6) . . .
145(6) . . .
149(7) . . .
139(6) . . .
158(7) . . .
142(6) . . .
140(6) . . .
143(6) . . .
141(6) . . .
133(6) . . .
150(7) . . .
152(6) . . .
149(7) . . .
136(6) . . .
147(6) . . .
143(6) . . .
146(6) . . .
139(6) . . .
153(7) . . .
166(7) . . .
156(7) . . .
155(6) . . .
145(6) . . .
151(7) . . .
150(7) . . .
136(6) . . .
151(6) . . .
151(6) . . .
145(7) . . .
140(6) . . .
149(6) . . .
143(6) . . .
163(7) . . .
144(7) . . .
150(7) . . .
140(6) . . .
146(6) . . .
143(6) . . .
145(7) . . .
131(6) . . .
145(6) . . .
146(6) . . .
144(7) . . .
136(7) . . .
134(6) . . .
151(6) . . .
138(6) . . .
131(6) . . .
147(7) . . .
137(6) . . .
138(6) . . .
153(7) . . .
151(7) . . .
142(7) . . .
128(6) . . .
143(6) . . .
148(6) . . .
138(6) . . .
131(6) . . .
150(7) . . .
127(6) . . .
148(7) . . .
138(6) . . .
133(6) . . .
150(7) . . .
142(6) . . .
129(6) . . .
134(6) . . .
147(7) . . .
134(6) . . .
152(6) . . .
156(7) . . .
152(7) . . .
149(7) . . .
160(7) . . .
148(6) . . .
154(7) . . .
153(7) . . .
134(6) . . .
137(6) . . .
130(6) . . .
144(6) . . .
146(7) . . .
166(7) . . .
147(6) . . .
144(6) . . .
124(6) . . .
117(6) . . .
146(7) . . .
168(7) . . .
141(6) . . .
144(6) . . .
154(7) . . .
138(6) . . .
139(6) . . .
147(6) . . .
139(6) . . .
155(7) . . .
138(6) . . .
134(6) . . .
133(6) . . .
143(6) . . .
141(6) . . .
140(6) . . .
140(6) . . .
142(6) . . .
146(7) . . .
145(7) . . .
167(7) . . .
159(7) . . .
140(6) . . .
144(7) . . .
143(6) . . .
159(7) . . .
140(6) . . .
127(6) . . .
153(7) . . .
149(7) . . .
155(7) . . .
139(6) . . .
135(6) . . .
129(6) . . .
151(7) . . .
158(7) . . .
150(6) . . .
130(6) . . .
142(7) . . .
136(6) . . .
143(6) . . .
148(6) . . .
139(6) . . .
140(6) . . .
136(6) . . .
137(6) . . .
128(6) . . .
135(6) . . .
151(7) . . .
141(6) . . .
139(6) . . .
159(7) . . .
158(7) . . .
168(7) . . .
141(6) . . .
148(6) . . .
145(6) . . .
142(6) . . .
142(6) . . .
153(7) . . .
151(6) . . .
153(7) . . .
143(6) . . .
147(7) . . .
135(6) . . .
134(6) . . .
146(6) . . .
126(6) . . .
135(6) . . .
144(7) . . .
140(6) . . .
139(6) . . .
149(7) . . .
151(7) . . .
147(6) . . .
146(6) . . .
141(6) . . .
123(6) . . .
133(6) . . .
129(6) . . .
134(6) . . .
150(7) . . .
146(7) . . .
149(7) . . .
144(6) . . .
155(6) . . .
141(6) . . .
140(6) . . .
153(7) . . .
143(6) . . .
153(6) . . .
155(7) . . .
157(7) . . .
136(6) . . .
149(6) . . .
165(7) . . .
163(7) . . .
158(7) . . .
144(6) . . .
153(6) . . .
148(6) . . .
146(7) . . .
154(7) . . .
156(7) . . .
154(6) . . .
149(6) . . .
142(6) . . .
165(7) . . .
152(6) . . .
157(7) . . .
152(6) . . .
158(7) . . .
166(7) . . .
165(7) . . .
151(6) . . .
153(7) . . .
152(7) . . .
155(7) . . .
145(6) . . .
153(6) . . .
135(6) . . .
136(6) . . .
166(7) . . .
153(7) . . .
151(6) . . .
149(7) . . .
144(6) . . .
162(7) . . .
163(7) . . .
164(7) . . .
125(6) . . .
149(7) . . .
140(6) . . .
143(6) . . .
151(6) . . .
146(6) . . .
162(7) . . .
148(7) . . .
161(7) . . .
138(6) . . .
163(7) . . .
157(7) . . .
155(7) . . .
136(6) . . .
136(6) . . .
140(7) . . .
121(6) . . .
163(7) . . .
150(6) . . .
139(6) . . .
154(7) . . .
145(7) . . .
149(6) . . .
141(6) . . .
146(6) . . .
145(6) . . .
134(6) . . .
149(7) . . .
145(6) . . .
156(6) . . .
134(6) . . .
151(7) . . .
158(7) . . .
147(6) . . .
166(7) . . .
163(7) . . .
148(7) . . .
148(7) . . .
152(6) . . .
138(6) . . .
126(6) . . .
147(7) . . .
128(6) . . .
147(6) . . .
147(6) . . .
141(7) . . .
131(6) . . .
144(6) . . .
131(6) . . .
152(7) . . .
145(6) . . .
141(6) . . .
125(6) . . .
138(6) . . .
138(6) . . .
147(7) . . .
144(7) . . .
143(6) . . .
135(6) . . .
140(7) . . .
144(7) . . .
168(7) . . .
157(6) . . .
155(6) . . .
149(7) . . .
141(7) . . .
123(6) . . .
136(6) . . .
141(6) . . .
133(6) . . .
147(7) . . .
146(6) . . .
157(6) . . .
142(6) . . .
150(7) . . .
130(6) . . .
129(6) . . .
147(6) . . .
147(6) . . .
137(6) . . .
139(7) . . .
147(7) . . .
140(6) . . .
145(6) . . .
128(6) . . .
140(6) . . .
161(7) . . .
149(6) . . .
139(6) . . .
148(7) . . .
150(7) . . .
144(7) . . .
151(6) . . .
158(7) . . .
157(7) . . .
137(6) . . .
149(6) . . .
143(6) . . .
151(7) . . .
143(6) . . .
142(7) . . .
133(6) . . .
147(6) . . .
131(6) . . .
135(6) . . .
146(6) . . .
140(6) . . .
166(7) . . .
156(7) . . .
136(6) . . .
152(7) . . .
146(6) . . .
137(6) . . .
149(7) . . .
148(7) . . .
143(6) . . .
130(6) . . .
147(6) . . .
147(6) . . .
155(7) . . .
146(6) . . .
158(7) . . .
165(7) . . .
145(6) . . .
148(7) . . .
145(7) . . .
146(6) . . .
146(6) . . .
148(6) . . .
148(7) . . .
136(6) . . .
137(6) . . .
136(6) . . .
141(6) . . .
143(7) . . .
143(7) . . .
156(7) . . .
145(6) . . .
148(7) . . .
142(6) . . .
147(7) . . .
132(6) . . .
152(7) . . .
143(7) . . .
136(6) . . .
132(6) . . .
141(6) . . .
140(6) . . .
140(6) . . .
141(6) . . .
129(6) . . .
137(6) . . .
122(6) . . .
156(7) . . .
127(6) . . .
147(6) . . .
144(6) . . .
159(7) . . .
130(6) . . .
142(6) . . .
139(6) . . .
136(6) . . .
141(6) . . .
134(6) . . .
136(6) . . .
119(6) . . .
151(6) . . .
170(7) . . .
151(7) . . .
145(6) . . .
138(6) . . .
154(6) . . .
129(6) . . .
130(6) . . .
139(6) . . .
140(6) . . .
127(6) . . .
147(7) . . .
148(7) . . .
153(7) . . .
144(6) . . .
146(7) . . .
128(6) . . .
127(6) . . .
140(6) . . .
133(6) . . .
135(6) . . .
151(7) . . .
136(6) . . .
145(7) . . .
143(6) . . .
134(6) . . .
148(6) . . .
151(7) . . .
154(7) . . .
134(6) . . .
141(6) . . .
144(6) . . .
150(7) . . .
136(6) . . .
141(6) . . .
144(6) . . .
136(6) . . .
141(6) . . .
136(6) . . .
134(6) . . .
133(6) . . .
126(6) . . .
142(6) . . .
151(6) . . .
139(6) . . .
137(6) . . .
154(7) . . .
154(7) . . .
139(6) . . .
141(6) . . .
152(7) . . .
158(7) . . .
140(6) . . .
144(6) . . .
148(6) . . .
148(7) . . .
144(7) . . .
139(6) . . .
135(6) . . .
138(6) . . .
138(6) . . .
131(6) . . .
143(6) . . .
154(6) . . .
133(6) . . .
131(6) . . .
142(7) . . .
128(6) . . .
140(6) . . .
145(6) . . .
139(6) . . .
147(7) . . .
135(6) . . .
140(6) . . .
162(7) . . .
137(6) . . .
134(6) . . .
143(6) . . .
145(6) . . .
150(6) . . .
146(6) . . .
132(6) . . .
147(6) . . .
143(6) . . .
139(6) . . .
133(6) . . .
134(6) . . .
145(6) . . .
139(6) . . .
138(6) . . .
149(7) . . .
149(6) . . .
140(6) . . .
130(6) . . .
145(6) . . .
148(7) . . .
159(7) . . .
153(6) . . .
149(6) . . .
133(6) . . .
153(7) . . .
147(6) . . .
144(6) . . .
128(6) . . .
123(6) . . .
126(6) . . .
144(7) . . .
137(6) . . .
128(6) . . .
142(6) . . .
122(6) . . .
123(6) . . .
134(6) . . .
121(6) . . .
142(6) . . .
138(6) . . .
137(6) . . .
139(6) . . .
138(6) . . .
140(6) . . .
144(7) . . .
143(6) . . .
133(6) . . .
163(7) . . .
140(6) . . .
134(6) . . .
137(6) . . .
145(6) . . .
128(6) . . .
151(7) . . .
140(6) . . .
137(6) . . .
142(6) . . .
136(6) . . .
131(6) . . .
128(6) . . .
151(7) . . .
129(6) . . .
139(7) . . .
153(7) . . .
151(7) . . .
138(6) . . .
133(6) . . .
134(6) . . .
149(7) . . .
121(6) . . .
123(6) . . .
123(6) . . .
136(6) . . .
142(7) . . .
131(6) . . .
151(7) . . .
143(6) . . .
143(7) . . .
140(7) . . .
122(6) . . .
149(6) . . .
137(6) . . .
127(6) . . .
139(6) . . .
154(7) . . .
147(6) . . .
146(6) . . .
143(6) . . .
121(6) . . .
150(7) . . .
146(6) . . .
124(6) . . .
118(6) . . .
148(7) . . .
143(6) . . .
132(6) . . .
138(6) . . .
135(6) . . .
149(7) . . .
158(7) . . .
148(6) . . .
143(6) . . .
148(7) . . .
148(7) . . .
126(6) . . .
137(6) . . .
133(6) . . .
134(6) . . .
149(7) . . .
124(6) . . .
131(6) . . .
149(6) . . .
153(7) . . .
143(7) . . .
137(6) . . .
134(6) . . .
152(7) . . .
143(6) . . .
136(6) . . .
136(6) . . .
143(6) . . .
150(7) . . .
143(7) . . .
147(6) . . .
136(6) . . .
129(6) . . .
144(6) . . .
138(7) . . .
134(6) . . .
146(6) . . .
144(6) . . .
137(6) . . .
140(7) . . .
134(6) . . .
154(6) . . .
151(6) . . .
144(7) . . .
144(7) . . .
131(6) . . .
147(6) . . .
130(6) . . .
119(6) . . .
149(7) . . .
150(7) . . .
124(6) . . .
127(6) . . .
141(6) . . .
141(6) . . .
136(6) . . .
127(6) . . .
135(6) . . .
135(6) . . .
139(6) . . .
135(6) . . .
129(6) . . .
156(7) . . .
132(6) . . .
140(7) . . .
127(6) . . .
142(6) . . .
142(6) . . .
143(6) . . .
152(7) . . .
152(6) . . .
137(6) . . .
131(6) . . .
140(6) . . .
144(7) . . .
147(6) . . .
132(6) . . .
143(6) . . .
148(7) . . .
136(6) . . .
150(6) . . .
146(6) . . .
148(7) . . .
143(6) . . .
143(6) . . .
127(6) . . .
135(6) . . .
153(7) . . .
134(6) . . .
146(7) . . .
136(6) . . .
145(6) . . .
150(7) . . .
150(7) . . .
138(6) . . .
147(6) . . .
138(6) . . .
145(6) . . .
150(7) . . .
144(6) . . .
132(6) . . .
150(6) . . .
131(6) . . .
141(6) . . .
147(6) . . .
140(6) . . .
138(6) . . .
140(6) . . .
143(7) . . .
139(6) . . .
135(6) . . .
149(7) . . .
142(6) . . .
137(6) . . .
133(6) . . .
142(6) . . .
131(6) . . .
146(7) . . .
132(6) . . .
134(6) . . .
139(6) . . .
140(6) . . .
128(6) . . .
148(7) . . .
147(6) . . .
146(6) . . .
138(6) . . .
128(6) . . .
122(6) . . .
144(6) . . .
138(6) . . .
127(6) . . .
130(6) . . .
148(7) . . .
159(7) . . .
135(6) . . .
148(7) . . .
141(7) . . .
124(6) . . .
139(6) . . .
143(6) . . .
134(6) . . .
128(6) . . .
128(6) . . .
136(6) . . .
130(6) . . .
136(6) . . .
130(6) . . .
128(6) . . .
137(6) . . .
124(6) . . .
140(6) . . .
139(6) . . .
143(6) . . .
149(6) . . .
131(6) . . .
130(6) . . .
132(6) . . .
142(7) . . .
138(6) . . .
133(6) . . .
164(7) . . .
133(6) . . .
134(6) . . .
156(7) . . .
128(6) . . .
134(6) . . .
135(6) . . .
137(6) . . .
134(6) . . .
134(7) . . .
140(7) . . .
140(6) . . .
145(6) . . .
150(6) . . .
155(7) . . .
138(6) . . .
147(7) . . .
128(6) . . .
138(6) . . .
134(6) . . .
140(7) . . .
131(6) . . .
142(6) . . .
143(6) . . .
118(6) . . .
139(7) . . .
132(6) . . .
147(6) . . .
147(6) . . .
133(6) . . .
135(7) . . .
129(6) . . .
139(6) . . .
128(6) . . .
132(6) . . .
151(7) . . .
139(6) . . .
138(6) . . .
156(6) . . .
137(6) . . .
150(7) . . .
128(6) . . .
136(6) . . .
135(6) . . .
131(6) . . .
130(6) . . .
136(6) . . .
142(6) . . .
138(6) . . .
149(7) . . .
122(6) . . .
130(6) . . .
133(6) . . .
140(6) . . .
136(6) . . .
127(6) . . .
136(6) . . .
132(6) . . .
133(6) . . .
140(6) . . .
141(6) . . .
145(6) . . .
131(6) . . .
138(6) . . .
127(6) . . .
137(6) . . .
144(6) . . .
143(6) . . .
145(7) . . .
141(6) . . .
130(6) . . .
124(6) . . .
123(6) . . .
131(6) . . .
130(6) . . .
119(6) . . .
124(6) . . .
131(6) . . .
142(6) . . .
137(6) . . .
128(6) . . .
148(6) . . .
143(6) . . .
127(6) . . .
150(7) . . .
142(6) . . .
139(6) . . .
136(6) . . .
132(6) . . .
129(6) . . .
140(7) . . .
145(6) . . .
146(6) . . .
145(6) . . .
133(6) . . .
157(7) . . .
131(6) . . .
132(6) . . .
129(6) . . .
123(6) . . .
128(6) . . .
137(6) . . .
143(6) . . .
147(7) . . .
136(6) . . .
146(6) . . .
144(6) . . .
129(6) . . .
128(6) . . .
138(6) . . .
145(6) . . .
130(6) . . .
128(6) . . .
141(6) . . .
141(6) . . .
139(6) . . .
133(6) . . .
145(7) . . .
139(7) . . .
136(6) . . .
125(6) . . .
142(6) . . .
118(6) . . .
133(6) . . .
142(6) . . .
136(6) . . .
121(6) . . .
145(6) . . .
143(7) . . .
142(7) . . .
147(6) . . .
151(6) . . .
125(6) . . .
134(7) . . .
144(6) . . .
144(6) . . .
139(6) . . .
154(7) . . .
146(7) . . .
129(6) . . .
138(6) . . .
130(6) . . .
136(6) . . .
124(6) . . .
136(6) . . .
114(5) . . .
129(6) . . .
126(6) . . .
130(6) . . .
142(6) . . .
134(6) . . .
138(6) . . .
120(6) . . .
140(6) . . .
134(6) . . .
138(6) . . .
143(7) . . .
142(7) . . .
138(6) . . .
139(6) . . .
128(6) . . .
130(6) . . .
142(7) . . .
138(6) . . .
138(6) . . .
134(6) . . .
128(6) . . .
126(6) . . .
136(6) . . .
136(6) . . .
145(6) . . .
140(6) . . .
136(6) . . .
136(6) . . .
142(6) . . .
130(6) . . .
131(6) . . .
124(6) . . .
127(6) . . .
123(6) . . .
125(6) . . .
131(6) . . .
141(7) . . .
120(6) . . .
128(6) . . .
121(6) . . .
132(6) . . .
117(6) . . .
122(6) . . .
130(6) . . .
140(6) . . .
135(6) . . .
138(6) . . .
143(6) . . .
130(6) . . .
138(6) . . .
137(6) . . .
145(7) . . .
144(6) . . .
136(6) . . .
140(6) . . .
133(6) . . .
145(7) . . .
146(6) . . .
141(6) . . .
133(6) . . .
132(6) . . .
123(6) . . .
135(6) . . .
127(6) . . .
137(6) . . .
138(6) . . .
143(7) . . .
131(6) . . .
125(6) . . .
147(7) . . .
138(6) . . .
145(6) . . .
128(6) . . .
146(6) . . .
125(6) . . .
126(6) . . .
143(6) . . .
151(6) . . .
142(6) . . .
134(6) . . .
114(6) . . .
120(6) . . .
147(6) . . .
130(6) . . .
125(6) . . .
139(7) . . .
125(6) . . .
147(6) . . .
145(6) . . .
155(7) . . .
127(6) . . .
127(6) . . .
124(6) . . .
128(6) . . .
129(6) . . .
128(6) . . .
146(7) . . .
130(6) . . .
136(6) . . .
121(6) . . .
147(7) . . .
127(6) . . .
150(6) . . .
132(6) . . .
153(7) . . .
135(6) . . .
142(6) . . .
131(6) . . .
142(6) . . .
138(6) . . .
151(7) . . .
136(6) . . .
139(6) . . .
146(7) . . .
138(6) . . .
146(7) . . .
152(6) . . .
134(6) . . .
143(6) . . .
136(7) . . .
131(6) . . .
134(6) . . .
133(6) . . .
130(6) . . .
137(6) . . .
136(6) . . .
130(6) . . .
138(6) . . .
136(6) . . .
140(7) . . .
134(6) . . .
128(6) . . .
126(6) . . .
147(6) . . .
146(7) . . .
129(6) . . .
150(6) . . .
131(6) . . .
139(6) . . .
142(7) . . .
137(6) . . .
137(6) . . .
136(6) . . .
135(6) . . .
155(7) . . .
129(6) . . .
136(6) . . .
158(7) . . .
148(6) . . .
141(6) . . .
140(7) . . .
130(6) . . .
136(6) . . .
138(6) . . .
143(7) . . .
140(6) . . .
142(6) . . .
144(6) . . .
144(6) . . .
149(7) . . .
142(7) . . .
136(6) . . .
128(6) . . .
133(6) . . .
134(6) . . .
155(7) . . .
132(6) . . .
123(6) . . .
127(6) . . .
139(7) . . .
138(6) . . .
128(6) . . .
144(7) . . .
132(6) . . .
119(6) . . .
124(6) . . .
141(6) . . .
123(6) . . .
135(7) . . .
140(6) . . .
141(6) . . .
132(6) . . .
130(6) . . .
135(7) . . .
123(6) . . .
131(6) . . .
134(6) . . .
136(6) . . .
127(6) . . .
137(6) . . .
134(6) . . .
138(6) . . .
141(6) . . .
138(6) . . .
129(6) . . .
145(6) . . .
137(6) . . .
140(6) . . .
116(6) . . .
119(6) . . .
133(6) . . .
126(6) . . .
124(6) . . .
137(6) . . .
137(6) . . .
138(6) . . .
130(6) . . .
147(7) . . .
136(6) . . .
141(6) . . .
138(6) . . .
150(7) . . .
134(6) . . .
144(6) . . .
146(6) . . .
130(6) . . .
141(6) . . .
143(6) . . .
137(6) . . .
144(6) . . .
147(6) . . .
139(6) . . .
125(6) . . .
118(6) . . .
140(6) . . .
124(6) . . .
120(6) . . .
124(6) . . .
137(6) . . .
127(6) . . .
152(6) . . .
136(6) . . .
120(6) . . .
147(6) . . .
138(6) . . .
114(6) . . .
125(6) . . .
134(6) . . .
138(6) . . .
147(6) . . .
138(6) . . .
133(6) . . .
132(6) . . .
139(6) . . .
150(6) . . .
139(6) . . .
126(6) . . .
135(6) . . .
127(6) . . .
132(6) . . .
128(6) . . .
129(6) . . .
131(6) . . .
132(6) . . .
120(6) . . .
137(6) . . .
122(6) . . .
136(6) . . .
138(6) . . .
129(6) . . .
120(6) . . .
115(6) . . .
127(6) . . .
134(6) . . .
123(6) . . .
129(6) . . .
141(7) . . .
119(6) . . .
146(7) . . .
146(6) . . .
116(6) . . .
128(6) . . .
116(6) . . .
125(6) . . .
132(6) . . .
113(6) . . .
115(6) . . .
127(6) . . .
122(6) . . .
122(6) . . .
127(6) . . .
138(7) . . .
131(6) . . .
132(6) . . .
128(6) . . .
139(6) . . .
126(6) . . .
130(6) . . .
144(6) . . .
151(6) . . .
137(6) . . .
149(7) . . .
136(6) . . .
119(6) . . .
133(6) . . .
134(6) . . .
130(6) . . .
132(6) . . .
137(6) . . .
131(6) . . .
133(6) . . .
143(6) . . .
141(6) . . .
145(6) . . .
138(6) . . .
138(6) . . .
138(6) . . .
139(6) . . .
123(6) . . .
115(6) . . .
138(7) . . .
139(6) . . .
148(6) . . .
131(6) . . .
133(6) . . .
146(7) . . .
131(6) . . .
139(6) . . .
142(6) . . .
137(6) . . .
137(6) . . .
118(6) . . .
123(6) . . .
130(6) . . .
139(6) . . .
133(6) . . .
124(6) . . .
116(6) . . .
124(6) . . .
116(6) . . .
113(6) . . .
138(6) . . .
135(6) . . .
138(6) . . .
131(6) . . .
128(6) . . .
126(6) . . .
136(6) . . .
135(6) . . .
118(6) . . .
124(6) . . .
145(7) . . .
135(6) . . .
134(6) . . .
141(6) . . .
145(6) . . .
129(6) . . .
106(5) . . .
132(6) . . .
139(6) . . .
117(6) . . .
117(6) . . .
121(6) . . .
124(6) . . .
131(6) . . .
121(6) . . .
125(6) . . .
115(6) . . .
117(6) . . .
128(6) . . .
129(6) . . .
119(6) . . .
117(6) . . .
137(6) . . .
129(6) . . .
134(6) . . .
119(6) . . .
144(6) . . .
152(7) . . .
131(6) . . .
137(6) . . .
138(6) . . .
136(6) . . .
138(6) . . .
137(6) . . .
127(6) . . .
141(6) . . .
142(6) . . .
129(6) . . .
117(6) . . .
129(6) . . .
128(6) . . .
143(6) . . .
137(6) . . .
134(6) . . .
122(6) . . .
145(6) . . .
122(6) . . .
122(6) . . .
129(6) . . .
141(6) . . .
136(6) . . .
128(6) . . .
128(6) . . .
127(6) . . .
137(6) . . .
121(6) . . .
141(6) . . .
127(6) . . .
120(6) . . .
139(6) . . .
133(6) . . .
152(6) . . .
129(6) . . .
127(6) . . .
132(6) . . .
143(6) . . .
129(6) . . .
136(6) . . .
132(6) . . .
140(6) . . .
142(6) . . .
122(6) . . .
124(6) . . .
136(6) . . .
125(6) . . .
132(6) . . .
135(6) . . .
127(6) . . .
118(6) . . .
131(6) . . .
119(6) . . .
132(6) . . .
137(6) . . .
135(6) . . .
131(6) . . .
127(6) . . .
134(6) . . .
139(7) . . .
135(6) . . .
129(6) . . .
135(6) . . .
138(7) . . .
127(6) . . .
126(6) . . .
127(6) . . .
129(6) . . .
137(6) . . .
123(6) . . .
130(6) . . .
139(6) . . .
132(6) . . .
131(6) . . .
126(6) . . .
130(6) . . .
134(6) . . .
126(6) . . .
129(6) . . .
121(6) . . .
121(6) . . .
121(6) . . .
122(6) . . .
127(6) . . .
134(6) . . .
135(6) . . .
132(6) . . .
126(6) . . .
129(6) . . .
117(6) . . .
135(6) . . .
140(6) . . .
132(6) . . .
126(6) . . .
140(6) . . .
126(6) . . .
136(6) . . .
124(6) . . .
133(6) . . .
138(6) . . .
122(6) . . .
120(6) . . .
129(6) . . .
129(6) . . .
125(6) . . .
129(6) . . .
116(6) . . .
136(6) . . .
115(6) . . .
139(6) . . .
148(6) . . .
125(6) . . .
144(7) . . .
139(7) . . .
137(6) . . .
141(6) . . .
137(6) . . .
122(6) . . .
130(6) . . .
141(6) . . .
121(6) . . .
132(6) . . .
125(6) . . .
139(6) . . .
124(6) . . .
138(6) . . .
139(6) . . .
117(6) . . .
134(6) . . .
124(6) . . .
119(6) . . .
129(6) . . .
126(6) . . .
134(6) . . .
144(6) . . .
123(6) . . .
130(6) . . .
115(6) . . .
124(6) . . .
123(6) . . .
129(6) . . .
135(6) . . .
130(6) . . .
136(6) . . .
140(6) . . .
120(6) . . .
133(6) . . .
138(6) . . .
127(6) . . .
121(6) . . .
126(6) . . .
138(6) . . .
133(6) . . .
128(6) . . .
145(6) . . .
148(6) . . .
121(6) . . .
123(6) . . .
120(6) . . .
131(6) . . .
148(6) . . .
129(6) . . .
133(6) . . .
120(6) . . .
117(6) . . .
125(6) . . .
125(6) . . .
139(6) . . .
122(6) . . .
132(6) . . .
134(6) . . .
112(6) . . .
124(6) . . .
119(6) . . .
122(6) . . .
131(6) . . .
130(6) . . .
137(6) . . .
124(6) . . .
139(6) . . .
130(6) . . .
131(6) . . .
145(7) . . .
124(6) . . .
133(6) . . .
132(6) . . .
121(6) . . .
130(6) . . .
128(6) . . .
131(6) . . .
125(6) . . .
125(6) . . .
130(6) . . .
119(6) . . .
136(6) . . .
122(6) . . .
133(6) . . .
141(6) . . .
125(6) . . .
133(6) . . .
117(6) . . .
138(7) . . .
134(6) . . .
137(6) . . .
129(6) . . .
129(6) . . .
122(6) . . .
136(6) . . .
131(6) . . .
135(6) . . .
139(6) . . .
124(6) . . .
121(6) . . .
135(6) . . .
125(6) . . .
138(6) . . .
141(7) . . .
122(6) . . .
118(6) . . .
137(6) . . .
122(6) . . .
115(6) . . .
114(6) . . .
126(6) . . .
134(6) . . .
126(6) . . .
125(6) . . .
138(6) . . .
132(6) . . .
134(6) . . .
120(6) . . .
133(6) . . .
129(6) . . .
143(6) . . .
137(6) . . .
133(6) . . .
134(6) . . .
126(6) . . .
129(6) . . .
135(6) . . .
120(6) . . .
133(6) . . .
115(6) . . .
116(6) . . .
137(6) . . .
128(6) . . .
125(6) . . .
136(6) . . .
135(6) . . .
126(6) . . .
120(6) . . .
162(7) . . .
144(6) . . .
127(6) . . .
128(6) . . .
135(6) . . .
130(6) . . .
128(6) . . .
161(7) . . .
127(6) . . .
139(7) . . .
132(6) . . .
128(6) . . .
132(6) . . .
136(6) . . .
140(7) . . .
121(6) . . .
125(6) . . .
143(6) . . .
130(6) . . .
119(6) . . .
126(6) . . .
133(6) . . .
135(6) . . .
139(6) . . .
123(6) . . .
129(6) . . .
139(6) . . .
133(6) . . .
138(6) . . .
140(7) . . .
121(6) . . .
117(6) . . .
147(6) . . .
132(6) . . .
119(6) . . .
133(6) . . .
133(6) . . .
126(6) . . .
132(6) . . .
130(6) . . .
139(6) . . .
121(6) . . .
133(6) . . .
141(6) . . .
122(6) . . .
114(6) . . .
135(6) . . .
127(6) . . .
130(6) . . .
125(6) . . .
137(6) . . .
131(6) . . .
128(6) . . .
134(6) . . .
127(6) . . .
128(6) . . .
132(6) . . .
121(6) . . .
130(6) . . .
133(6) . . .
122(6) . . .
134(6) . . .
135(6) . . .
129(6) . . .
122(6) . . .
118(6) . . .
125(6) . . .
130(6) . . .
139(7) . . .
126(6) . . .
134(6) . . .
135(6) . . .
125(6) . . .
122(6) . . .
135(6) . . .
117(6) . . .
130(6) . . .
140(6) . . .
144(7) . . .
142(6) . . .
126(6) . . .
128(6) . . .
140(6) . . .
118(6) . . .
128(6) . . .
132(6) . . .
140(6) . . .
147(7) . . .
131(6) . . .
125(6) . . .
126(6) . . .
126(6) . . .
138(7) . . .
140(7) . . .
125(6) . . .
130(6) . . .
121(6) . . .
130(6) . . .
130(6) . . .
119(6) . . .
124(6) . . .
117(6) . . .
125(6) . . .
135(6) . . .
138(6) . . .
136(6) . . .
116(6) . . .
137(6) . . .
149(6) . . .
150(6) . . .
132(6) . . .
127(6) . . .
140(7) . . .
141(6) . . .
135(6) . . .
129(6) . . .
142(6) . . .
121(6) . . .
129(6) . . .
129(6) . . .
119(6) . . .
122(6) . . .
129(6) . . .
132(6) . . .
125(6) . . .
130(6) . . .
139(6) . . .
138(7) . . .
123(6) . . .
146(6) . . .
132(6) . . .
130(6) . . .
138(6) . . .
127(6) . . .
134(6) . . .
126(6) . . .
130(6) . . .
137(6) . . .
143(6) . . .
122(6) . . .
130(6) . . .
136(7) . . .
114(6) . . .
123(6) . . .
134(6) . . .
127(6) . . .
139(7) . . .
114(6) . . .
109(6) . . .
129(6) . . .
130(6) . . .
128(6) . . .
120(6) . . .
121(6) . . .
118(6) . . .
137(6) . . .
121(6) . . .
132(6) . . .
122(6) . . .
118(6) . . .
133(6) . . .
134(6) . . .
136(6) . . .
126(6) . . .
120(6) . . .
126(6) . . .
128(6) . . .
128(6) . . .
121(6) . . .
139(6) . . .
136(6) . . .
119(6) . . .
131(6) . . .
140(6) . . .
137(6) . . .
134(6) . . .
141(7) . . .
128(6) . . .
138(6) . . .
139(6) . . .
131(6) . . .
130(6) . . .
137(6) . . .
123(6) . . .
118(6) . . .
115(6) . . .
129(6) . . .
134(6) . . .
140(6) . . .
126(6) . . .
144(7) . . .
134(6) . . .
119(6) . . .
122(6) . . .
130(6) . . .
127(6) . . .
136(6) . . .
131(6) . . .
139(6) . . .
116(6) . . .
130(6) . . .
128(6) . . .
128(6) . . .
120(6) . . .
123(6) . . .
123(6) . . .
132(6) . . .
119(6) . . .
127(6) . . .
128(6) . . .
126(6) . . .
135(6) . . .
140(6) . . .
133(6) . . .
122(6) . . .
124(6) . . .
113(6) . . .
118(6) . . .
118(6) . . .
144(7) . . .
135(7) . . .
143(6) . . .
123(6) . . .
111(6) . . .
127(6) . . .
131(7) . . .
115(6) . . .
111(6) . . .
121(6) . . .
134(6) . . .
140(6) . . .
106(5) . . .
113(5) . . .
137(6) . . .
131(6) . . .
139(7) . . .
134(6) . . .
130(6) . . .
129(6) . . .
141(6) . . .
128(6) . . .
126(6) . . .
127(6) . . .
134(6) . . .
129(6) . . .
116(6) . . .
124(6) . . .
137(6) . . .
133(6) . . .
123(6) . . .
110(6) . . .
132(6) . . .
131(6) . . .
139(6) . . .
125(6) . . .
138(6) . . .
137(6) . . .
124(6) . . .
111(6) . . .
109(6) . . .
127(6) . . .
121(6) . . .
124(6) . . .
119(6) . . .
113(6) . . .
126(6) . . .
132(6) . . .
122(6) . . .
123(6) . . .
124(6) . . .
136(6) . . .
133(6) . . .
128(6) . . .
120(6) . . .
126(6) . . .
124(6) . . .
129(6) . . .
128(6) . . .
127(6) . . .
136(7) . . .
116(6) . . .
134(6) . . .
125(6) . . .
137(6) . . .
116(6) . . .
140(6) . . .
123(6) . . .
130(6) . . .
133(6) . . .
122(6) . . .
124(6) . . .
117(6) . . .
123(6) . . .
115(6) . . .
123(6) . . .
140(6) . . .
112(5) . . .
132(6) . . .
120(6) . . .
127(6) . . .
117(6) . . .
128(6) . . .
141(6) . . .
131(6) . . .
129(6) . . .
124(6) . . .
124(6) . . .
121(6) . . .
133(6) . . .
119(6) . . .
121(6) . . .
123(6) . . .
138(6) . . .
139(7) . . .
121(6) . . .
136(6) . . .
129(6) . . .
134(6) . . .
125(6) . . .
125(6) . . .
127(6) . . .
127(6) . . .
124(6) . . .
147(7) . . .
119(6) . . .
115(6) . . .
119(6) . . .
120(6) . . .
129(6) . . .
127(6) . . .
115(6) . . .
119(6) . . .
117(6) . . .
128(6) . . .
120(6) . . .
120(6) . . .
120(6) . . .
113(6) . . .
117(6) . . .
121(6) . . .
121(6) . . .
127(6) . . .
125(6) . . .
122(6) . . .
122(6) . . .
115(6) . . .
134(6) . . .
130(6) . . .
121(6) . . .
116(6) . . .
108(5) . . .
130(6) . . .
123(6) . . .
126(6) . . .
127(6) . . .
129(6) . . .
118(6) . . .
123(6) . . .
109(5) . . .
113(5) . . .
118(6) . . .
123(6) . . .
123(6) . . .
120(6) . . .
130(6) . . .
123(6) . . .
106(6) . . .
115(6) . . .
124(6) . . .
119(6) . . .
117(6) . . .
128(6) . . .
125(6) . . .
125(6) . . .
124(6) . . .
111(6) . . .
128(6) . . .
114(6) . . .
123(6) . . .
135(6) . . .
117(6) . . .
118(6) . . .
112(6) . . .
145(7) . . .
127(6) . . .
133(6) . . .
132(6) . . .
138(7) . . .
118(6) . . .
124(6) . . .
117(6) . . .
134(7) . . .
116(6) . . .
128(6) . . .
118(6) . . .
121(6) . . .
111(6) . . .
130(6) . . .
121(6) . . .
132(6) . . .
137(7) . . .
114(6) . . .
119(6) . . .
122(6) . . .
146(6) . . .
128(6) . . .
131(6) . . .
114(6) . . .
110(6) . . .
109(5) . . .
119(6) . . .
121(6) . . .
123(6) . . .
141(6) . . .
115(6) . . .
105(5) . . .
128(6) . . .
130(6) . . .
131(6) . . .
125(6) . . .
117(6) . . .
132(6) . . .
137(6) . . .
119(6) . . .
118(6) . . .
128(6) . . .
118(6) . . .
127(6) . . .
106(5) . . .
124(6) . . .
117(6) . . .
119(6) . . .
129(6) . . .
127(6) . . .
124(6) . . .
119(6) . . .
129(6) . . .
116(6) . . .
130(6) . . .
122(6) . . .
120(6) . . .
103(5) . . .
115(6) . . .
127(6) . . .
118(6) . . .
121(6) . . .
124(6) . . .
138(6) . . .
139(6) . . .
114(6) . . .
113(6) . . .
113(6) . . .
116(6) . . .
120(6) . . .
123(6) . . .
130(6) . . .
120(6) . . .
114(6) . . .
125(6) . . .
124(6) . . .
130(6) . . .
128(6) . . .
107(5) . . .
120(6) . . .
120(6) . . .
116(6) . . .
128(6) . . .
125(6) . . .
109(5) . . .
125(6) . . .
112(6) . . .
117(6) . . .
117(6) . . .
129(6) . . .
129(6) . . .
127(6) . . .
128(6) . . .
127(6) . . .
118(6) . . .
116(6) . . .
114(6) . . .
128(6) . . .
130(6) . . .
128(6) . . .
138(6) . . .
131(6) . . .
124(6) . . .
127(6) . . .
121(6) . . .
106(6) . . .
119(6) . . .
110(6) . . .
116(6) . . .
115(6) . . .
115(6) . . .
126(6) . . .
117(6) . . .
108(5) . . .
116(6) . . .
139(6) . . .
119(6) . . .
110(5) . . .
141(6) . . .
120(6) . . .
120(6) . . .
122(6) . . .
109(5) . . .
110(5) . . .
114(6) . . .
129(6) . . .
115(6) . . .
107(5) . . .
126(6) . . .
116(6) . . .
120(6) . . .
124(6) . . .
132(6) . . .
117(6) . . .
132(6) . . .
113(6) . . .
133(6) . . .
131(6) . . .
118(6) . . .
130(6) . . .
129(6) . . .
114(6) . . .
123(6) . . .
131(6) . . .
129(6) . . .
137(6) . . .
127(6) . . .
133(6) . . .
123(6) . . .
130(6) . . .
128(6) . . .
117(6) . . .
127(6) . . .
115(6) . . .
117(6) . . .
119(6) . . .
118(6) . . .
127(6) . . .
104(5) . . .
118(6) . . .
129(6) . . .
118(6) . . .
115(6) . . .
112(6) . . .
120(6) . . .
131(6) . . .
116(6) . . .
120(6) . . .
134(6) . . .
129(6) . . .
125(6) . . .
128(6) . . .
118(6) . . .
130(6) . . .
128(6) . . .
119(6) . . .
117(6) . . .
122(6) . . .
111(6) . . .
116(6) . . .
117(6) . . .
125(6) . . .
127(6) . . .
118(6) . . .
125(6) . . .
127(6) . . .
127(6) . . .
120(6) . . .
120(6) . . .
123(6) . . .
115(6) . . .
114(6) . . .
127(6) . . .
127(6) . . .
132(6) . . .
136(6) . . .
114(6) . . .
117(6) . . .
138(6) . . .
115(6) . . .
123(6) . . .
113(6) . . .
121(6) . . .
115(6) . . .
115(6) . . .
121(6) . . .
114(6) . . .
117(6) . . .
123(6) . . .
125(6) . . .
128(6) . . .
142(6) . . .
123(6) . . .
125(6) . . .
113(6) . . .
122(6) . . .
123(6) . . .
115(6) . . .
120(6) . . .
124(6) . . .
115(6) . . .
115(6) . . .
111(6) . . .
126(6) . . .
124(6) . . .
117(6) . . .
114(6) . . .
127(6) . . .
123(6) . . .
114(6) . . .
123(6) . . .
112(5) . . .
115(6) . . .
119(6) . . .
123(6) . . .
129(6) . . .
112(6) . . .
116(6) . . .
117(6) . . .
121(6) . . .
119(6) . . .
124(6) . . .
129(6) . . .
118(6) . . .
116(6) . . .
127(6) . . .
120(6) . . .
132(6) . . .
128(6) . . .
112(6) . . .
111(5) . . .
115(6) . . .
118(6) . . .
126(6) . . .
125(6) . . .
136(6) . . .
123(6) . . .
129(6) . . .
117(6) . . .
112(6) . . .
110(5) . . .
118(6) . . .
116(6) . . .
137(6) . . .
120(6) . . .
116(6) . . .
127(6) . . .
130(6) . . .
103(6) . . .
120(6) . . .
121(6) . . .
132(6) . . .
116(6) . . .
115(6) . . .
131(6) . . .
110(5) . . .
121(6) . . .
115(6) . . .
114(6) . . .
141(6) . . .
129(6) . . .
112(6) . . .
125(6) . . .
131(6) . . .
130(6) . . .
119(6) . . .
126(6) . . .
127(6) . . .
117(6) . . .
120(6) . . .
112(6) . . .
120(6) . . .
124(6) . . .
131(6) . . .
121(6) . . .
124(6) . . .
115(6) . . .
122(6) . . .
114(6) . . .
117(6) . . .
116(6) . . .
119(6) . . .
116(6) . . .
125(6) . . .
131(6) . . .
116(6) . . .
118(6) . . .
121(6) . . .
136(6) . . .
118(6) . . .
106(5) . . .
120(6) . . .
118(6) . . .
129(6) . . .
112(5) . . .
126(6) . . .
124(6) . . .
125(6) . . .
120(6) . . .
114(5) . . .
119(6) . . .
124(6) . . .
115(6) . . .
127(6) . . .
100(5) . . .
112(6) . . .
118(6) . . .
122(6) . . .
115(6) . . .
104(5) . . .
117(6) . . .
105(6) . . .
114(6) . . .
117(6) . . .
127(6) . . .
123(6) . . .
124(6) . . .
130(6) . . .
119(6) . . .
118(6) . . .
105(5) . . .
125(6) . . .
114(6) . . .
114(5) . . .
113(6) . . .
127(6) . . .
122(6) . . .
127(6) . . .
122(6) . . .
118(6) . . .
112(6) . . .
113(6) . . .
138(6) . . .
101(5) . . .
120(6) . . .
110(6) . . .
111(6) . . .
129(6) . . .
120(6) . . .
126(6) . . .
117(6) . . .
114(6) . . .
116(6) . . .
108(5) . . .
118(6) . . .
125(6) . . .
119(6) . . .
107(6) . . .
107(5) . . .
112(6) . . .
121(6) . . .
114(6) . . .
108(6) . . .
131(6) . . .
124(6) . . .
111(6) . . .
117(6) . . .
110(5) . . .
122(6) . . .
134(6) . . .
115(6) . . .
128(6) . . .
113(6) . . .
112(6) . . .
129(6) . . .
122(6) . . .
115(6) . . .
134(6) . . .
128(6) . . .
116(6) . . .
120(6) . . .
128(6) . . .
117(6) . . .
120(6) . . .
111(6) . . .
126(6) . . .
132(6) . . .
112(5) . . .
132(6) . . .
123(6) . . .
128(6) . . .
116(6) . . .
115(6) . . .
117(6) . . .
116(6) . . .
110(6) . . .
119(6) . . .
117(6) . . .
133(6) . . .
114(6) . . .
118(6) . . .
112(6) . . .
113(6) . . .
105(6) . . .
106(6) . . .
123(6) . . .
126(6) . . .
123(6) . . .
127(6) . . .
110(6) . . .
110(6) . . .
105(5) . . .
126(6) . . .
114(6) . . .
123(6) . . .
129(6) . . .
124(6) . . .
121(6) . . .
116(6) . . .
122(6) . . .
112(6) . . .
112(5) . . .
132(6) . . .
125(6) . . .
109(6) . . .
107(6) . . .
111(6) . . .
124(6) . . .
121(6) . . .
107(6) . . .
121(6) . . .
104(5) . . .
121(6) . . .
112(6) . . .
116(6) . . .
117(6) . . .
94(5) . . .
112(6) . . .
104(5) . . .
114(6) . . .
117(6) . . .
99(5) . . .
125(6) . . .
128(6) . . .
109(6) . . .
109(5) . . .
122(6) . . .
115(6) . . .
112(6) . . .
107(6) . . .
118(6) . . .
132(6) . . .
118(6) . . .
120(6) . . .
113(5) . . .
131(6) . . .
126(6) . . .
115(6) . . .
119(6) . . .
121(6) . . .
107(5) . . .
116(6) . . .
131(6) . . .
113(6) . . .
133(6) . . .
119(6) . . .
122(6) . . .
120(6) . . .
104(6) . . .
117(6) . . .
119(6) . . .
129(6) . . .
117(6) . . .
119(6) . . .
111(6) . . .
115(6) . . .
113(5) . . .
117(6) . . .
117(6) . . .
109(6) . . .
114(6) . . .
122(6) . . .
120(6) . . .
124(6) . . .
110(5) . . .
135(6) . . .
123(6) . . .
130(6) . . .
134(6) . . .
130(6) . . .
131(6) . . .
106(5) . . .
128(6) . . .
113(6) . . .
123(6) . . .
121(6) . . .
134(6) . . .
118(6) . . .
121(6) . . .
108(5) . . .
129(6) . . .
108(5) . . .
123(6) . . .
129(6) . . .
122(6) . . .
128(6) . . .
129(6) . . .
134(6) . . .
122(6) . . .
114(6) . . .
126(6) . . .
136(6) . . .
120(6) . . .
125(6) . . .
106(5) . . .
108(5) . . .
129(6) . . .
130(6) . . .
121(6) . . .
107(5) . . .
115(6) . . .
121(6) . . .
117(6) . . .
112(6) . . .
124(6) . . .
118(6) . . .
110(6) . . .
110(6) . . .
119(6) . . .
115(6) . . .
119(6) . . .
112(6) . . .
119(6) . . .
124(6) . . .
119(6) . . .
125(6) . . .
129(6) . . .
136(6) . . .
110(6) . . .
133(6) . . .
123(6) . . .
123(6) . . .
122(6) . . .
117(6) . . .
128(6) . . .
117(6) . . .
131(6) . . .
120(6) . . .
133(6) . . .
127(6) . . .
120(6) . . .
123(6) . . .
123(6) . . .
137(6) . . .
123(6) . . .
121(6) . . .
118(6) . . .
116(6) . . .
119(6) . . .
124(6) . . .
134(6) . . .
116(6) . . .
116(6) . . .
137(6) . . .
136(6) . . .
122(6) . . .
120(6) . . .
122(6) . . .
122(6) . . .
128(6) . . .
125(6) . . .
121(6) . . .
130(6) . . .
133(6) . . .
125(6) . . .
123(6) . . .
130(6) . . .
140(6) . . .
109(5) . . .
109(5) . . .
116(6) . . .
124(6) . . .
137(6) . . .
124(6) . . .
115(6) . . .
120(6) . . .
108(6) . . .
117(6) . . .
101(5) . . .
113(6) . . .
121(6) . . .
108(6) . . .
103(5) . . .
110(5) . . .
125(6) . . .
119(6) . . .
128(6) . . .
106(6) . . .
123(6) . . .
103(5) . . .
117(6) . . .
115(6) . . .
123(6) . . .
120(6) . . .
108(5) . . .
123(6) . . .
127(6) . . .
122(6) . . .
110(5) . . .
119(6) . . .
106(5) . . .
109(6) . . .
122(6) . . .
106(5) . . .
110(6) . . .
113(6) . . .
115(6) . . .
112(6) . . .
116(6) . . .
116(6) . . .
125(6) . . .
122(6) . . .
120(6) . . .
109(5) . . .
123(6) . . .
119(6) . . .
123(6) . . .
107(5) . . .
103(5) . . .
98(5) . . .
118(6) . . .
126(6) . . .
118(6) . . .
112(6) . . .
105(6) . . .
101(6) . . .
119(6) . . .
130(6) . . .
111(5) . . .
102(5) . . .
111(6) . . .
125(6) . . .
119(6) . . .
110(6) . . .
95(5) . . .
113(6) . . .
127(6) . . .
115(6) . . .
139(6) . . .
116(6) . . .
112(6) . . .
115(6) . . .
122(6) . . .
109(6) . . .
124(6) . . .
117(6) . . .
117(6) . . .
119(6) . . .
116(6) . . .
119(6) . . .
113(6) . . .
110(5) . . .
115(6) . . .
97(5) . . .
121(6) . . .
130(6) . . .
116(6) . . .
115(6) . . .
121(6) . . .
119(6) . . .
119(6) . . .
115(6) . . .
131(6) . . .
126(6) . . .
122(6) . . .
109(5) . . .
116(6) . . .
118(6) . . .
113(6) . . .
121(6) . . .
131(6) . . .
119(6) . . .
122(6) . . .
118(6) . . .
111(6) . . .
113(6) . . .
112(6) . . .
113(6) . . .
105(6) . . .
120(6) . . .
116(6) . . .
124(6) . . .
125(6) . . .
130(6) . . .
130(6) . . .
121(6) . . .
104(5) . . .
101(5) . . .
97(5) . . .
110(6) . . .
105(6) . . .
111(5) . . .
120(6) . . .
108(6) . . .
114(6) . . .
104(5) . . .
106(5) . . .
127(6) . . .
116(6) . . .
119(6) . . .
111(6) . . .
107(5) . . .
110(6) . . .
111(6) . . .
114(6) . . .
118(6) . . .
106(5) . . .
112(6) . . .
99(5) . . .
110(6) . . .
115(6) . . .
110(5) . . .
112(6) . . .
130(6) . . .
119(6) . . .
132(6) . . .
105(5) . . .
123(6) . . .
120(6) . . .
110(6) . . .
121(6) . . .
112(6) . . .
102(5) . . .
115(6) . . .
132(6) . . .
121(6) . . .
132(6) . . .
122(6) . . .
112(6) . . .
124(6) . . .
117(6) . . .
118(6) . . .
111(6) . . .
117(6) . . .
115(6) . . .
96(5) . . .
110(6) . . .
120(6) . . .
116(6) . . .
112(6) . . .
117(6) . . .
106(5) . . .
114(6) . . .
120(6) . . .
104(5) . . .
116(6) . . .
121(6) . . .
117(6) . . .
111(6) . . .
105(5) . . .
112(5) . . .
110(6) . . .
112(6) . . .
115(6) . . .
101(5) . . .
117(6) . . .
116(6) . . .
115(6) . . .
114(6) . . .
112(6) . . .
117(6) . . .
116(6) . . .
117(6) . . .
98(5) . . .
107(5) . . .
103(5) . . .
107(5) . . .
114(6) . . .
120(6) . . .
119(6) . . .
127(6) . . .
121(6) . . .
119(6) . . .
118(6) . . .
109(5) . . .
115(6) . . .
102(5) . . .
114(6) . . .
113(6) . . .
123(6) . . .
123(6) . . .
108(6) . . .
112(6) . . .
123(6) . . .
133(6) . . .
112(6) . . .
114(6) . . .
113(6) . . .
113(6) . . .
117(6) . . .
113(6) . . .
111(6) . . .
119(6) . . .
117(6) . . .
111(6) . . .
108(6) . . .
94(5) . . .
94(5) . . .
106(5) . . .
121(6) . . .
110(5) . . .
114(6) . . .
98(5) . . .
116(6) . . .
113(6) . . .
122(6) . . .
107(6) . . .
104(5) . . .
107(5) . . .
113(6) . . .
111(6) . . .
104(5) . . .
105(6) . . .
110(6) . . .
117(6) . . .
114(6) . . .
112(6) . . .
111(6) . . .
112(6) . . .
113(5) . . .
114(6) . . .
125(7) . . .
121(6) . . .
115(6) . . .
115(6) . . .
122(6) . . .
121(6) . . .
124(6) . . .
107(5) . . .
109(6) . . .
109(6) . . .
123(6) . . .
120(6) . . .
105(5) . . .
110(6) . . .
107(6) . . .
110(6) . . .
103(6) . . .
97(5) . . .
107(5) . . .
105(5) . . .
100(5) . . .
115(6) . . .
114(6) . . .
120(6) . . .
119(6) . . .
112(6) . . .
116(6) . . .
111(5) . . .
106(6) . . .
111(6) . . .
106(6) . . .
102(5) . . .
114(6) . . .
116(6) . . .
115(6) . . .
98(5) . . .
129(6) . . .
119(6) . . .
96(5) . . .
111(6) . . .
96(5) . . .
89(5) . . .
126(6) . . .
112(6) . . .
103(5) . . .
111(6) . . .
119(6) . . .
125(6) . . .
113(6) . . .
124(6) . . .
116(6) . . .
102(5) . . .
118(6) . . .
110(6) . . .
113(6) . . .
110(6) . . .
107(5) . . .
110(6) . . .
106(5) . . .
103(6) . . .
102(5) . . .
105(5) . . .
113(5) . . .
117(6) . . .
116(6) . . .
105(6) . . .
122(6) . . .
121(6) . . .
123(6) . . .
108(6) . . .
117(6) . . .
108(5) . . .
115(6) . . .
101(5) . . .
102(5) . . .
108(5) . . .
115(6) . . .
116(6) . . .
119(6) . . .
114(6) . . .
115(6) . . .
102(5) . . .
109(6) . . .
103(5) . . .
117(6) . . .
101(5) . . .
107(5) . . .
118(6) . . .
113(6) . . .
114(6) . . .
115(6) . . .
120(6) . . .
124(6) . . .
106(6) . . .
106(5) . . .
99(5) . . .
107(5) . . .
109(6) . . .
113(6) . . .
111(6) . . .
105(5) . . .
119(6) . . .
118(6) . . .
107(6) . . .
110(5) . . .
105(5) . . .
96(5) . . .
105(5) . . .
113(6) . . .
103(6) . . .
107(5) . . .
110(5) . . .
112(6) . . .
105(6) . . .
119(6) . . .
109(5) . . .
97(5) . . .
118(6) . . .
110(5) . . .
110(6) . . .
107(5) . . .
119(6) . . .
112(6) . . .
104(5) . . .
125(6) . . .
119(6) . . .
115(6) . . .
106(5) . . .
117(6) . . .
119(6) . . .
114(6) . . .
115(6) . . .
108(5) . . .
107(5) . . .
124(6) . . .
105(5) . . .
112(6) . . .
114(6) . . .
109(6) . . .
90(5) . . .
114(6) . . .
107(6) . . .
115(6) . . .
112(6) . . .
105(5) . . .
117(6) . . .
122(6) . . .
112(6) . . .
119(6) . . .
105(5) . . .
103(5) . . .
109(6) . . .
117(6) . . .
112(6) . . .
103(5) . . .
116(6) . . .
122(6) . . .
114(6) . . .
121(6) . . .
118(6) . . .
106(5) . . .
117(6) . . .
130(7) . . .
108(6) . . .
126(6) . . .
117(6) . . .
115(6) . . .
110(6) . . .
97(5) . . .
127(6) . . .
110(5) . . .
117(6) . . .
108(6) . . .
107(6) . . .
109(5) . . .
112(6) . . .
118(6) . . .
114(6) . . .
106(6) . . .
122(6) . . .
110(6) . . .
104(6) . . .
107(6) . . .
114(6) . . .
109(5) . . .
98(5) . . .
108(6) . . .
103(5) . . .
118(6) . . .
113(5) . . .
119(6) . . .
118(6) . . .
109(6) . . .
106(5) . . .
102(5) . . .
116(6) . . .
130(6) . . .
122(6) . . .
109(5) . . .
116(6) . . .
103(5) . . .
104(6) . . .
123(6) . . .
119(6) . . .
118(6) . . .
116(6) . . .
119(6) . . .
120(6) . . .
101(5) . . .
119(6) . . .
125(6) . . .
98(5) . . .
114(6) . . .
97(5) . . .
108(6) . . .
112(6) . . .
106(6) . . .
103(6) . . .
123(6) . . .
118(6) . . .
119(6) . . .
118(6) . . .
113(6) . . .
110(5) . . .
104(5) . . .
120(6) . . .
129(6) . . .
129(6) . . .
96(5) . . .
116(6) . . .
126(6) . . .
107(5) . . .
120(6) . . .
109(5) . . .
113(6) . . .
114(6) . . .
119(6) . . .
114(6) . . .
110(5) . . .
113(6) . . .
111(6) . . .
121(6) . . .
116(6) . . .
129(6) . . .
111(6) . . .
104(6) . . .
116(6) . . .
110(5) . . .
118(6) . . .
112(6) . . .
112(6) . . .
125(6) . . .
131(6) . . .
112(5) . . .
115(6) . . .
102(6) . . .
110(6) . . .
107(5) . . .
119(6) . . .
102(5) . . .
105(6) . . .
105(5) . . .
104(5) . . .
114(6) . . .
117(6) . . .
104(6) . . .
103(6) . . .
105(5) . . .
112(5) . . .
108(6) . . .
115(6) . . .
115(6) . . .
114(6) . . .
107(6) . . .
116(6) . . .
118(6) . . .
111(6) . . .
132(6) . . .
120(6) . . .
119(6) . . .
113(6) . . .
113(6) . . .
121(6) . . .
112(6) . . .
117(6) . . .
115(6) . . .
112(6) . . .
112(5) . . .
111(6) . . .
123(6) . . .
123(6) . . .
113(6) . . .
122(6) . . .
109(5) . . .
113(6) . . .
108(6) . . .
119(6) . . .
110(6) . . .
108(6) . . .
118(6) . . .
132(6) . . .
101(5) . . .
110(5) . . .
112(6) . . .
120(6) . . .
106(6) . . .
106(5) . . .
129(6) . . .
117(6) . . .
115(6) . . .
120(6) . . .
124(6) . . .
121(6) . . .
100(5) . . .
113(6) . . .
102(5) . . .
99(5) . . .
102(5) . . .
110(6) . . .
118(6) . . .
123(6) . . .
109(5) . . .
109(6) . . .
102(5) . . .
90(5) . . .
123(6) . . .
129(6) . . .
117(6) . . .
100(5) . . .
113(6) . . .
103(5) . . .
100(5) . . .
106(6) . . .
101(5) . . .
120(6) . . .
114(6) . . .
105(5) . . .
110(6) . . .
116(6) . . .
101(5) . . .
99(5) . . .
111(6) . . .
118(6) . . .
124(6) . . .
105(5) . . .
117(6) . . .
111(5) . . .
120(6) . . .
93(5) . . .
113(6) . . .
102(5) . . .
97(5) . . .
114(6) . . .
117(6) . . .
102(5) . . .
113(6) . . .
100(5) . . .
111(6) . . .
112(6) . . .
108(6) . . .
108(5) . . .
104(5) . . .
118(6) . . .
103(5) . . .
107(6) . . .
103(5) . . .
127(6) . . .
120(6) . . .
110(6) . . .
124(6) . . .
106(5) . . .
91(5) . . .
114(6) . . .
88(5) . . .
101(5) . . .
116(6) . . .
120(6) . . .
111(6) . . .
103(5) . . .
114(6) . . .
123(6) . . .
107(6) . . .
107(6) . . .
100(5) . . .
119(6) . . .
114(6) . . .
109(6) . . .
105(6) . . .
108(6) . . .
101(5) . . .
111(5) . . .
91(5) . . .
116(6) . . .
110(6) . . .
103(5) . . .
106(5) . . .
105(5) . . .
112(6) . . .
100(5) . . .
115(6) . . .
95(5) . . .
106(5) . . .
116(6) . . .
106(5) . . .
111(5) . . .
104(5) . . .
107(5) . . .
104(6) . . .
108(6) . . .
100(5) . . .
109(5) . . .
118(6) . . .
109(6) . . .
115(6) . . .
109(5) . . .
112(5) . . .
109(6) . . .
113(6) . . .
115(6) . . .
115(6) . . .
114(6) . . .
106(5) . . .
105(5) . . .
109(6) . . .
135(6) . . .
126(6) . . .
96(5) . . .
106(6) . . .
113(6) . . .
104(5) . . .
106(6) . . .
113(6) . . .
108(5) . . .
97(5) . . .
104(5) . . .
111(6) . . .
110(6) . . .
111(6) . . .
107(5) . . .
110(5) . . .
103(6) . . .
99(5) . . .
97(5) . . .
113(6) . . .
107(5) . . .
100(5) . . .
105(6) . . .
108(6) . . .
111(6) . . .
100(5) . . .
107(6) . . .
113(6) . . .
115(6) . . .
115(6) . . .
109(6) . . .
102(5) . . .
107(6) . . .
111(6) . . .
111(5) . . .
113(6) . . .
108(6) . . .
104(6) . . .
122(6) . . .
121(6) . . .
121(6) . . .
123(6) . . .
112(6) . . .
118(6) . . .
110(5) . . .
118(6) . . .
111(5) . . .
109(6) . . .
116(6) . . .
118(6) . . .
114(6) . . .
102(6) . . .
108(6) . . .
98(5) . . .
105(5) . . .
110(6) . . .
116(6) . . .
108(6) . . .
103(5) . . .
116(6) . . .
104(5) . . .
119(6) . . .
103(5) . . .
108(5) . . .
113(6) . . .
100(5) . . .
107(6) . . .
97(5) . . .
106(5) . . .
114(5) . . .
113(6) . . .
107(6) . . .
103(5) . . .
95(5) . . .
113(6) . . .
108(6) . . .
104(6) . . .
115(6) . . .
118(6) . . .
109(5) . . .
111(6) . . .
104(6) . . .
88(5) . . .
120(6) . . .
98(5) . . .
118(6) . . .
112(6) . . .
97(5) . . .
114(6) . . .
106(5) . . .
94(5) . . .
105(6) . . .
98(5) . . .
108(5) . . .
124(6) . . .
127(6) . . .
109(6) . . .
104(6) . . .
100(5) . . .
95(5) . . .
105(6) . . .
95(5) . . .
104(5) . . .
90(5) . . .
98(5) . . .
94(5) . . .
111(6) . . .
103(5) . . .
106(5) . . .
115(6) . . .
118(6) . . .
98(5) . . .
103(5) . . .
111(5) . . .
98(5) . . .
111(6) . . .
98(5) . . .
108(5) . . .
112(5) . . .
112(6) . . .
107(6) . . .
110(6) . . .
102(5) . . .
128(6) . . .
120(6) . . .
93(5) . . .
105(5) . . .
99(5) . . .
127(6) . . .
110(5) . . .
102(6) . . .
105(6) . . .
111(5) . . .
115(6) . . .
95(5) . . .
111(6) . . .
105(6) . . .
107(5) . . .
99(5) . . .
116(6) . . .
91(5) . . .
101(6) . . .
98(5) . . .
110(6) . . .
116(6) . . .
116(6) . . .
106(6) . . .
105(5) . . .
124(6) . . .
111(6) . . .
108(6) . . .
96(5) . . .
92(5) . . .
94(5) . . .
97(5) . . .
102(5) . . .
98(5) . . .
99(5) . . .
116(6) . . .
103(5) . . .
114(6) . . .
103(5) . . .
94(5) . . .
117(6) . . .
106(6) . . .
110(5) . . .
100(5) . . .
105(5) . . .
105(5) . . .
117(6) . . .
113(6) . . .
111(6) . . .
95(5) . . .
112(6) . . .
112(6) . . .
97(5) . . .
105(5) . . .
95(5) . . .
98(5) . . .
105(6) . . .
98(5) . . .
98(5) . . .
115(6) . . .
100(6) . . .
107(6) . . .
119(6) . . .
102(5) . . .
109(6) . . .
109(6) . . .
110(6) . . .
108(5) . . .
105(5) . . .
94(5) . . .
108(6) . . .
108(6) . . .
123(6) . . .
106(5) . . .
99(5) . . .
101(5) . . .
106(6) . . .
111(6) . . .
104(5) . . .
99(5) . . .
95(5) . . .
108(6) . . .
106(5) . . .
117(6) . . .
113(6) . . .
111(6) . . .
96(5) . . .
94(5) . . .
96(5) . . .
116(6) . . .
130(6) . . .
115(6) . . .
96(5) . . .
108(5) . . .
95(5) . . .
99(6) . . .
103(5) . . .
110(5) . . .
105(5) . . .
109(6) . . .
106(6) . . .
103(5) . . .
99(5) . . .
95(5) . . .
102(5) . . .
104(6) . . .
119(6) . . .
107(5) . . .
102(5) . . .
99(5) . . .
102(6) . . .
101(5) . . .
111(5) . . .
103(5) . . .
104(5) . . .
104(6) . . .
114(6) . . .
110(5) . . .
116(6) . . .
105(6) . . .
103(6) . . .
120(6) . . .
105(5) . . .
105(5) . . .
110(6) . . .
109(6) . . .
100(5) . . .
108(5) . . .
117(6) . . .
104(6) . . .
97(5) . . .
122(6) . . .
125(6) . . .
117(6) . . .
98(5) . . .
103(5) . . .
119(6) . . .
108(5) . . .
111(6) . . .
107(6) . . .
111(6) . . .
112(6) . . .
101(5) . . .
112(6) . . .
101(6) . . .
97(5) . . .
111(6) . . .
102(5) . . .
103(6) . . .
114(6) . . .
101(5) . . .
110(6) . . .
103(5) . . .
102(5) . . .
104(6) . . .
124(6) . . .
105(5) . . .
108(5) . . .
124(6) . . .
120(6) . . .
111(6) . . .
99(5) . . .
108(5) . . .
108(6) . . .
99(6) . . .
116(6) . . .
122(6) . . .
124(6) . . .
108(6) . . .
111(6) . . .
101(5) . . .
95(5) . . .
98(5) . . .
108(6) . . .
108(6) . . .
107(6) . . .
98(5) . . .
106(5) . . .
109(6) . . .
106(5) . . .
110(6) . . .
107(5) . . .
116(6) . . .
112(6) . . .
108(6) . . .
115(6) . . .
100(5) . . .
99(5) . . .
103(6) . . .
109(6) . . .
104(5) . . .
92(5) . . .
103(5) . . .
99(5) . . .
109(6) . . .
111(6) . . .
104(5) . . .
96(5) . . .
104(6) . . .
118(6) . . .
121(6) . . .
113(5) . . .
109(6) . . .
104(6) . . .
103(5) . . .
106(5) . . .
105(5) . . .
107(6) . . .
90(5) . . .
112(6) . . .
117(6) . . .
120(6) . . .
91(5) . . .
102(6) . . .
101(5) . . .
95(5) . . .
111(5) . . .
113(6) . . .
108(6) . . .
95(5) . . .
88(5) . . .
99(5) . . .
100(5) . . .
101(5) . . .
105(5) . . .
111(5) . . .
114(6) . . .
106(5) . . .
104(6) . . .
102(5) . . .
100(5) . . .
110(6) . . .
107(6) . . .
102(5) . . .
101(5) . . .
98(5) . . .
104(5) . . .
99(5) . . .
98(5) . . .
102(5) . . .
103(5) . . .
105(5) . . .
102(6) . . .
100(5) . . .
110(6) . . .
104(5) . . .
109(6) . . .
104(5) . . .
105(5) . . .
105(5) . . .
91(5) . . .
106(6) . . .
112(6) . . .
96(5) . . .
112(5) . . .
120(6) . . .
123(6) . . .
115(6) . . .
105(5) . . .
120(6) . . .
111(6) . . .
98(5) . . .
99(6) . . .
99(5) . . .
97(5) . . .
106(5) . . .
95(5) . . .
92(5) . . .
94(5) . . .
98(5) . . .
105(5) . . .
100(5) . . .
109(6) . . .
90(5) . . .
105(5) . . .
111(6) . . .
107(6) . . .
87(5) . . .
108(6) . . .
107(5) . . .
98(5) . . .
105(6) . . .
100(5) . . .
110(6) . . .
97(5) . . .
107(5) . . .
109(6) . . .
98(5) . . .
97(5) . . .
100(5) . . .
107(5) . . .
107(6) . . .
104(6) . . .
105(5) . . .
103(5) . . .
105(6) . . .
111(6) . . .
109(6) . . .
104(6) . . .
102(5) . . .
106(6) . . .
90(5) . . .
92(5) . . .
105(5) . . .
100(5) . . .
117(6) . . .
114(6) . . .
101(6) . . .
102(5) . . .
106(5) . . .
107(6) . . .
87(5) . . .
111(6) . . .
106(5) . . .
101(5) . . .
97(5) . . .
112(6) . . .
108(6) . . .
90(5) . . .
92(5) . . .
91(5) . . .
99(6) . . .
100(5) . . .
111(6) . . .
119(6) . . .
102(5) . . .
88(5) . . .
104(5) . . .
88(5) . . .
94(5) . . .
99(5) . . .
102(6) . . .
99(5) . . .
126(6) . . .
96(5) . . .
106(6) . . .
106(5) . . .
107(5) . . .
104(5) . . .
104(6) . . .
99(5) . . .
103(5) . . .
106(5) . . .
104(5) . . .
93(5) . . .
104(6) . . .
104(6) . . .
95(5) . . .
111(6) . . .
100(5) . . .
104(5) . . .
96(5) . . .
96(5) . . .
96(5) . . .
107(5) . . .
112(6) . . .
107(6) . . .
105(5) . . .
106(5) . . .
108(6) . . .
90(5) . . .
113(6) . . .
105(5) . . .
99(5) . . .
114(6) . . .
118(6) . . .
89(5) . . .
98(5) . . .
105(5) . . .
100(5) . . .
100(6) . . .
90(5) . . .
99(5) . . .
93(5) . . .
90(5) . . .
111(6) . . .
108(6) . . .
120(6) . . .
104(6) . . .
87(5) . . .
85(5) . . .
106(5) . . .
102(5) . . .
109(6) . . .
106(6) . . .
114(6) . . .
94(5) . . .
113(6) . . .
100(5) . . .
103(6) . . .
110(6) . . .
109(6) . . .
114(6) . . .
82(5) . . .
104(6) . . .
87(5) . . .
86(5) . . .
100(5) . . .
104(6) . . .
102(6) . . .
91(5) . . .
97(5) . . .
86(5) . . .
101(5) . . .
105(6) . . .
102(5) . . .
95(5) . . .
104(5) . . .
105(6) . . .
109(6) . . .
108(6) . . .
89(5) . . .
91(5) . . .
104(5) . . .
101(6) . . .
100(5) . . .
95(5) . . .
118(6) . . .
110(6) . . .
107(6) . . .
85(5) . . .
95(5) . . .
105(5) . . .
122(6) . . .
100(5) . . .
104(6) . . .
98(5) . . .
99(5) . . .
107(6) . . .
100(5) . . .
106(6) . . .
95(5) . . .
106(6) . . .
86(5) . . .
113(6) . . .
101(5) . . .
106(5) . . .
93(5) . . .
108(6) . . .
99(5) . . .
100(5) . . .
106(5) . . .
102(5) . . .
98(5) . . .
101(5) . . .
103(5) . . .
109(5) . . .
95(5) . . .
96(5) . . .
95(5) . . .
110(5) . . .
99(5) . . .
119(6) . . .
93(5) . . .
94(5) . . .
103(5) . . .
97(5) . . .
99(5) . . .
103(5) . . .
103(5) . . .
105(5) . . .
100(5) . . .
95(5) . . .
117(6) . . .
95(5) . . .
98(5) . . .
100(5) . . .
109(6) . . .
93(5) . . .
103(6) . . .
110(5) . . .
96(5) . . .
82(5) . . .
101(5) . . .
104(5) . . .
102(5) . . .
112(6) . . .
112(6) . . .
112(6) . . .
105(6) . . .
103(5) . . .
121(6) . . .
102(6) . . .
92(5) . . .
104(5) . . .
103(5) . . .
91(5) . . .
94(5) . . .
92(5) . . .
110(6) . . .
95(5) . . .
101(6) . . .
107(6) . . .
93(5) . . .
92(5) . . .
98(5) . . .
108(6) . . .
105(6) . . .
104(6) . . .
109(5) . . .
95(5) . . .
93(5) . . .
95(5) . . .
103(6) . . .
115(6) . . .
97(5) . . .
100(5) . . .
117(6) . . .
89(5) . . .
104(5) . . .
107(5) . . .
109(5) . . .
119(6) . . .
110(6) . . .
99(5) . . .
115(6) . . .
107(6) . . .
100(6) . . .
121(6) . . .
108(5) . . .
88(5) . . .
91(5) . . .
102(6) . . .
102(5) . . .
115(6) . . .
104(6) . . .
101(5) . . .
103(6) . . .
89(5) . . .
95(5) . . .
103(6) . . .
101(5) . . .
92(5) . . .
107(6) . . .
91(5) . . .
93(5) . . .
86(5) . . .
102(6) . . .
109(5) . . .
105(5) . . .
104(5) . . .
114(6) . . .
102(5) . . .
90(5) . . .
97(5) . . .
97(5) . . .
94(5) . . .
100(5) . . .
89(5) . . .
97(5) . . .
107(6) . . .
97(6) . . .
102(5) . . .
111(6) . . .
102(5) . . .
112(6) . . .
96(5) . . .
100(5) . . .
109(5) . . .
109(5) . . .
93(5) . . .
99(5) . . .
93(5) . . .
98(5) . . .
109(5) . . .
106(5) . . .
104(6) . . .
103(5) . . .
111(5) . . .
103(5) . . .
101(5) . . .
95(5) . . .
102(5) . . .
93(5) . . .
101(5) . . .
103(6) . . .
108(6) . . .
99(5) . . .
118(6) . . .
86(5) . . .
90(5) . . .
101(5) . . .
90(5) . . .
91(5) . . .
91(5) . . .
112(6) . . .
115(6) . . .
107(5) . . .
106(5) . . .
92(5) . . .
101(6) . . .
90(5) . . .
90(5) . . .
97(5) . . .
99(5) . . .
92(5) . . .
97(5) . . .
117(6) . . .
95(5) . . .
99(5) . . .
97(5) . . .
109(6) . . .
96(5) . . .
106(5) . . .
105(5) . . .
88(5) . . .
101(6) . . .
101(5) . . .
98(5) . . .
98(5) . . .
105(6) . . .
96(5) . . .
91(5) . . .
110(5) . . .
115(6) . . .
95(5) . . .
95(5) . . .
104(5) . . .
94(5) . . .
108(6) . . .
106(5) . . .
113(6) . . .
98(5) . . .
72(4) . . .
97(6) . . .
102(5) . . .
101(6) . . .
101(5) . . .
96(5) . . .
98(5) . . .
94(5) . . .
93(5) . . .
108(5) . . .
99(5) . . .
106(6) . . .
104(5) . . .
106(5) . . .
94(5) . . .
98(5) . . .
89(5) . . .
95(5) . . .
97(5) . . .
109(5) . . .
102(6) . . .
109(6) . . .
105(5) . . .
96(5) . . .
102(5) . . .
103(5) . . .
107(6) . . .
104(5) . . .
109(5) . . .
93(5) . . .
105(6) . . .
92(5) . . .
112(6) . . .
90(5) . . .
87(5) . . .
98(5) . . .
96(5) . . .
113(6) . . .
93(5) . . .
88(5) . . .
93(5) . . .
91(6) . . .
118(6) . . .
81(5) . . .
102(5) . . .
101(5) . . .
98(6) . . .
98(5) . . .
90(5) . . .
102(5) . . .
92(5) . . .
102(5) . . .
103(5) . . .
93(5) . . .
93(5) . . .
106(6) . . .
103(5) . . .
98(5) . . .
91(5) . . .
105(5) . . .
94(5) . . .
98(5) . . .
101(5) . . .
101(5) . . .
91(5) . . .
89(5) . . .
101(5) . . .
117(6) . . .
105(5) . . .
95(5) . . .
104(5) . . .
83(5) . . .
101(5) . . .
93(5) . . .
98(5) . . .
100(6) . . .
100(5) . . .
88(5) . . .
97(5) . . .
101(6) . . .
93(5) . . .
97(5) . . .
86(5) . . .
100(5) . . .
94(5) . . .
106(6) . . .
95(5) . . .
85(5) . . .
97(5) . . .
102(6) . . .
95(5) . . .
106(6) . . .
92(5) . . .
101(5) . . .
108(6) . . .
109(6) . . .
101(5) . . .
103(5) . . .
101(5) . . .
104(5) . . .
101(5) . . .
82(5) . . .
84(5) . . .
80(5) . . .
89(5) . . .
105(6) . . .
105(5) . . .
93(5) . . .
106(5) . . .
87(5) . . .
103(6) . . .
101(5) . . .
100(5) . . .
99(5) . . .
88(5) . . .
98(5) . . .
88(5) . . .
91(5) . . .
104(5) . . .
100(6) . . .
95(5) . . .
92(5) . . .
91(5) . . .
92(5) . . .
97(5) . . .
101(5) . . .
99(5) . . .
96(5) . . .
103(5) . . .
95(5) . . .
112(6) . . .
100(5) . . .
116(6) . . .
102(5) . . .
108(6) . . .
97(5) . . .
90(5) . . .
96(5) . . .
97(5) . . .
102(6) . . .
104(5) . . .
95(5) . . .
90(5) . . .
82(5) . . .
89(5) . . .
98(5) . . .
90(5) . . .
89(5) . . .
118(6) . . .
99(5) . . .
110(6) . . .
87(5) . . .
104(5) . . .
103(5) . . .
112(6) . . .
80(5) . . .
97(5) . . .
98(5) . . .
92(5) . . .
98(5) . . .
96(5) . . .
105(5) . . .
107(5) . . .
100(6) . . .
99(5) . . .
109(5) . . .
96(5) . . .
92(5) . . .
111(6) . . .
106(5) . . .
101(5) . . .
102(5) . . .
93(5) . . .
85(5) . . .
102(6) . . .
96(5) . . .
97(5) . . .
106(6) . . .
96(5) . . .
83(5) . . .
99(5) . . .
88(5) . . .
97(5) . . .
99(6) . . .
81(5) . . .
94(5) . . .
103(5) . . .
101(5) . . .
103(6) . . .
88(5) . . .
113(6) . . .
107(5) . . .
91(5) . . .
112(6) . . .
104(5) . . .
97(5) . . .
93(5) . . .
97(5) . . .
108(6) . . .
106(6) . . .
114(6) . . .
104(5) . . .
94(5) . . .
94(5) . . .
108(6) . . .
104(5) . . .
100(5) . . .
91(5) . . .
87(5) . . .
88(5) . . .
87(5) . . .
96(5) . . .
95(5) . . .
96(5) . . .
99(5) . . .
101(5) . . .
94(5) . . .
107(6) . . .
81(5) . . .
98(5) . . .
88(5) . . .
99(5) . . .
92(5) . . .
89(5) . . .
98(5) . . .
102(5) . . .
97(5) . . .
95(6) . . .
91(5) . . .
94(5) . . .
89(5) . . .
97(5) . . .
88(5) . . .
89(5) . . .
101(5) . . .
123(6) . . .
100(5) . . .
111(6) . . .
104(5) . . .
100(5) . . .
109(5) . . .
93(5) . . .
96(5) . . .
106(5) . . .
99(5) . . .
96(5) . . .
94(5) . . .
85(5) . . .
92(5) . . .
91(5) . . .
104(5) . . .
98(5) . . .
98(5) . . .
94(5) . . .
97(5) . . .
113(6) . . .
92(5) . . .
101(6) . . .
98(5) . . .
116(6) . . .
101(5) . . .
95(5) . . .
94(5) . . .
96(5) . . .
92(5) . . .
100(5) . . .
104(5) . . .
110(6) . . .
109(5) . . .
104(5) . . .
102(5) . . .
96(5) . . .
101(6) . . .
98(5) . . .
110(5) . . .
81(5) . . .
99(6) . . .
97(5) . . .
91(5) . . .
96(5) . . .
102(5) . . .
92(5) . . .
92(5) . . .
104(5) . . .
104(5) . . .
100(5) . . .
90(5) . . .
96(5) . . .
109(6) . . .
110(5) . . .
93(5) . . .
90(5) . . .
96(5) . . .
104(5) . . .
93(5) . . .
99(5) . . .
113(6) . . .
94(5) . . .
95(5) . . .
93(5) . . .
99(5) . . .
108(6) . . .
111(6) . . .
106(5) . . .
98(5) . . .
88(5) . . .
99(6) . . .
85(5) . . .
102(5) . . .
88(5) . . .
92(5) . . .
101(5) . . .
99(5) . . .
90(5) . . .
97(5) . . .
97(5) . . .
88(5) . . .
99(5) . . .
97(5) . . .
120(6) . . .
87(5) . . .
94(5) . . .
85(5) . . .
82(5) . . .
87(5) . . .
88(5) . . .
87(5) . . .
87(5) . . .
115(6) . . .
101(5) . . .
90(5) . . .
89(5) . . .
85(5) . . .
95(5) . . .
99(5) . . .
95(5) . . .
89(5) . . .
98(5) . . .
93(5) . . .
89(5) . . .
117(6) . . .
91(5) . . .
87(5) . . .
95(5) . . .
101(6) . . .
87(5) . . .
83(5) . . .
95(5) . . .
100(5) . . .
96(5) . . .
115(6) . . .
107(6) . . .
86(5) . . .
86(5) . . .
85(5) . . .
100(5) . . .
87(5) . . .
106(5) . . .
106(6) . . .
101(5) . . .
89(5) . . .
98(6) . . .
95(5) . . .
104(5) . . .
90(5) . . .
82(5) . . .
98(5) . . .
86(5) . . .
87(5) . . .
101(5) . . .
93(5) . . .
90(5) . . .
88(5) . . .
89(5) . . .
97(5) . . .
98(5) . . .
88(5) . . .
93(5) . . .
101(5) . . .
107(6) . . .
98(5) . . .
90(5) . . .
111(5) . . .
104(5) . . .
94(5) . . .
114(6) . . .
93(5) . . .
99(5) . . .
95(5) . . .
103(6) . . .
104(5) . . .
96(5) . . .
93(5) . . .
95(5) . . .
101(5) . . .
95(5) . . .
106(5) . . .
90(5) . . .
99(5) . . .
91(5) . . .
95(5) . . .
92(5) . . .
101(5) . . .
114(6) . . .
92(5) . . .
98(5) . . .
93(5) . . .
87(5) . . .
98(5) . . .
93(5) . . .
87(5) . . .
96(5) . . .
102(5) . . .
90(5) . . .
88(5) . . .
107(5) . . .
85(5) . . .
92(5) . . .
92(5) . . .
98(5) . . .
94(5) . . .
93(5) . . .
91(5) . . .
98(5) . . .
110(6) . . .
103(5) . . .
88(5) . . .
101(5) . . .
107(6) . . .
92(5) . . .
104(5) . . .
97(5) . . .
91(5) . . .
95(5) . . .
94(5) . . .
94(5) . . .
93(5) . . .
104(5) . . .
95(5) . . .
100(5) . . .
103(5) . . .
97(5) . . .
94(5) . . .
89(5) . . .
96(5) . . .
95(5) . . .
97(5) . . .
93(5) . . .
100(5) . . .
100(5) . . .
91(5) . . .
95(5) . . .
104(6) . . .
90(5) . . .
87(5) . . .
89(5) . . .
104(5) . . .
83(5) . . .
93(5) . . .
85(5) . . .
91(5) . . .
91(5) . . .
97(5) . . .
93(5) . . .
94(5) . . .
95(5) . . .
94(5) . . .
112(6) . . .
111(6) . . .
104(5) . . .
101(5) . . .
108(6) . . .
97(5) . . .
102(5) . . .
94(5) . . .
89(5) . . .
82(5) . . .
88(5) . . .
96(5) . . .
97(5) . . .
97(5) . . .
94(5) . . .
91(5) . . .
104(5) . . .
87(5) . . .
90(5) . . .
111(6) . . .
97(5) . . .
93(5) . . .
92(5) . . .
90(5) . . .
91(5) . . .
93(5) . . .
92(5) . . .
84(5) . . .
91(5) . . .
91(5) . . .
99(6) . . .
95(5) . . .
114(6) . . .
92(5) . . .
102(5) . . .
93(5) . . .
99(5) . . .
94(5) . . .
94(5) . . .
80(5) . . .
92(5) . . .
91(5) . . .
93(5) . . .
97(5) . . .
85(5) . . .
87(5) . . .
93(5) . . .
81(5) . . .
101(5) . . .
102(6) . . .
108(6) . . .
96(5) . . .
97(5) . . .
100(5) . . .
101(6) . . .
103(6) . . .
100(5) . . .
100(5) . . .
88(5) . . .
92(5) . . .
98(5) . . .
102(5) . . .
102(5) . . .
100(5) . . .
107(6) . . .
106(6) . . .
96(5) . . .
99(5) . . .
91(5) . . .
85(5) . . .
98(5) . . .
100(5) . . .
98(5) . . .
92(5) . . .
84(5) . . .
95(5) . . .
100(5) . . .
105(5) . . .
88(5) . . .
91(5) . . .
97(5) . . .
99(5) . . .
100(5) . . .
104(6) . . .
104(6) . . .
87(5) . . .
85(5) . . .
92(5) . . .
97(5) . . .
95(5) . . .
97(5) . . .
97(5) . . .
94(5) . . .
94(5) . . .
101(5) . . .
97(5) . . .
92(5) . . .
89(5) . . .
107(6) . . .
97(6) . . .
83(5) . . .
77(5) . . .
91(5) . . .
100(5) . . .
84(5) . . .
98(5) . . .
100(5) . . .
88(5) . . .
101(5) . . .
102(5) . . .
102(5) . . .
88(5) . . .
91(5) . . .
85(5) . . .
97(5) . . .
85(5) . . .
95(5) . . .
98(5) . . .
97(5) . . .
92(5) . . .
94(5) . . .
104(5) . . .
98(5) . . .
100(6) . . .
106(6) . . .
89(5) . . .
89(5) . . .
84(5) . . .
91(5) . . .
91(5) . . .
101(5) . . .
87(5) . . .
92(5) . . .
89(5) . . .
85(5) . . .
91(5) . . .
97(5) . . .
104(6) . . .
94(5) . . .
94(5) . . .
82(5) . . .
85(5) . . .
90(5) . . .
95(5) . . .
94(5) . . .
95(5) . . .
83(5) . . .
98(5) . . .
110(6) . . .
107(5) . . .
93(5) . . .
96(5) . . .
87(5) . . .
103(6) . . .
87(5) . . .
101(5) . . .
100(5) . . .
103(6) . . .
82(5) . . .
114(6) . . .
87(5) . . .
85(5) . . .
96(5) . . .
105(6) . . .
84(5) . . .
100(5) . . .
104(5) . . .
93(5) . . .
89(5) . . .
98(5) . . .
108(5) . . .
101(5) . . .
87(5) . . .
109(6) . . .
97(5) . . .
93(5) . . .
101(5) . . .
103(6) . . .
98(5) . . .
86(5) . . .
107(5) . . .
102(5) . . .
98(6) . . .
102(5) . . .
89(5) . . .
87(5) . . .
89(5) . . .
116(6) . . .
81(5) . . .
82(5) . . .
84(5) . . .
96(5) . . .
86(5) . . .
96(5) . . .
90(5) . . .
102(5) . . .
96(5) . . .
106(6) . . .
107(6) . . .
98(5) . . .
82(5) . . .
94(5) . . .
93(5) . . .
95(5) . . .
104(5) . . .
97(5) . . .
99(5) . . .
104(5) . . .
97(5) . . .
98(5) . . .
90(5) . . .
94(5) . . .
96(5) . . .
92(5) . . .
98(5) . . .
83(5) . . .
98(6) . . .
99(5) . . .
90(5) . . .
90(5) . . .
97(5) . . .
97(6) . . .
85(5) . . .
88(5) . . .
79(5) . . .
89(5) . . .
85(5) . . .
90(5) . . .
94(5) . . .
100(5) . . .
87(5) . . .
99(6) . . .
96(5) . . .
98(5) . . .
86(5) . . .
92(5) . . .
111(6) . . .
93(5) . . .
103(5) . . .
99(5) . . .
104(5) . . .
98(6) . . .
84(5) . . .
90(5) . . .
91(5) . . .
89(5) . . .
85(5) . . .
90(5) . . .
92(5) . . .
103(5) . . .
95(5) . . .
98(5) . . .
91(5) . . .
101(5) . . .
84(5) . . .
85(5) . . .
88(5) . . .
103(5) . . .
91(5) . . .
94(5) . . .
113(6) . . .
92(5) . . .
104(5) . . .
101(5) . . .
89(5) . . .
107(6) . . .
100(5) . . .
101(5) . . .
90(5) . . .
86(5) . . .
92(5) . . .
99(5) . . .
96(5) . . .
99(5) . . .
112(6) . . .
103(6) . . .
107(6) . . .
93(5) . . .
93(5) . . .
86(5) . . .
92(5) . . .
101(5) . . .
86(5) . . .
81(5) . . .
100(5) . . .
96(5) . . .
98(5) . . .
98(5) . . .
93(5) . . .
82(5) . . .
94(5) . . .
98(5) . . .
108(5) . . .
95(5) . . .
111(6) . . .
93(5) . . .
95(5) . . .
93(5) . . .
95(5) . . .
99(6) . . .
99(5) . . .
105(5) . . .
93(5) . . .
94(5) . . .
94(5) . . .
92(5) . . .
95(5) . . .
108(5) . . .
86(5) . . .
91(5) . . .
88(5) . . .
95(5) . . .
101(5) . . .
114(6) . . .
97(6) . . .
87(5) . . .
112(6) . . .
105(5) . . .
99(5) . . .
107(6) . . .
91(5) . . .
97(5) . . .
103(5) . . .
92(5) . . .
87(5) . . .
102(6) . . .
93(5) . . .
115(6) . . .
105(5) . . .
98(5) . . .
98(5) . . .
100(5) . . .
102(5) . . .
96(5) . . .
91(5) . . .
93(5) . . .
97(5) . . .
95(5) . . .
113(6) . . .
98(5) . . .
90(5) . . .
96(5) . . .
91(5) . . .
99(5) . . .
104(6) . . .
93(5) . . .
110(6) . . .
80(5) . . .
99(6) . . .
95(5) . . .
89(5) . . .
91(5) . . .
83(5) . . .
99(5) . . .
96(5) . . .
82(5) . . .
87(5) . . .
95(5) . . .
97(6) . . .
82(5) . . .
103(5) . . .
95(5) . . .
97(5) . . .
90(5) . . .
105(6) . . .
95(5) . . .
84(5) . . .
95(5) . . .
100(6) . . .
95(5) . . .
83(5) . . .
71(4) . . .
96(5) . . .
95(5) . . .
93(5) . . .
100(5) . . .
87(5) . . .
89(5) . . .
92(5) . . .
75(5) . . .
103(5) . . .
94(5) . . .
83(5) . . .
85(5) . . .
86(5) . . .
90(5) . . .
105(5) . . .
98(5) . . .
91(5) . . .
92(5) . . .
99(5) . . .
99(6) . . .
88(5) . . .
98(5) . . .
80(5) . . .
90(5) . . .
96(5) . . .
93(5) . . .
90(5) . . .
92(5) . . .
96(5) . . .
92(5) . . .
92(5) . . .
90(5) . . .
83(5) . . .
95(5) . . .
92(5) . . .
93(5) . . .
99(5) . . .
91(5) . . .
108(5) . . .
77(5) . . .
78(5) . . .
94(5) . . .
92(5) . . .
95(5) . . .
83(5) . . .
84(5) . . .
97(5) . . .
106(5) . . .
93(5) . . .
99(6) . . .
95(5) . . .
101(6) . . .
96(5) . . .
101(5) . . .
88(5) . . .
97(5) . . .
94(5) . . .
101(5) . . .
90(5) . . .
92(5) . . .
90(5) . . .
87(5) . . .
95(5) . . .
90(5) . . .
86(5) . . .
93(5) . . .
83(5) . . .
88(5) . . .
88(5) . . .
97(5) . . .
88(5) . . .
79(5) . . .
100(5) . . .
92(5) . . .
94(5) . . .
112(6) . . .
93(5) . . .
99(5) . . .
95(5) . . .
92(5) . . .
87(5) . . .
89(5) . . .
97(5) . . .
109(6) . . .
103(5) . . .
87(5) . . .
95(5) . . .
95(5) . . .
94(5) . . .
108(6) . . .
99(5) . . .
99(5) . . .
102(5) . . .
103(6) . . .
87(5) . . .
95(5) . . .
92(5) . . .
99(5) . . .
97(5) . . .
107(6) . . .
112(6) . . .
85(5) . . .
89(5) . . .
80(5) . . .
87(5) . . .
90(5) . . .
95(5) . . .
83(5) . . .
86(5) . . .
88(5) . . .
92(5) . . .
83(5) . . .
100(5) . . .
94(5) . . .
85(5) . . .
83(5) . . .
95(5) . . .
79(5) . . .
93(5) . . .
90(5) . . .
82(5) . . .
88(5) . . .
96(5) . . .
93(5) . . .
99(5) . . .
101(5) . . .
99(5) . . .
96(5) . . .
96(5) . . .
92(5) . . .
79(5) . . .
85(5) . . .
99(5) . . .
87(5) . . .
100(5) . . .
84(5) . . .
89(5) . . .
92(5) . . .
90(5) . . .
83(5) . . .
84(5) . . .
89(5) . . .
84(5) . . .
85(5) . . .
88(5) . . .
95(5) . . .
87(5) . . .
94(5) . . .
102(6) . . .
95(5) . . .
84(5) . . .
90(5) . . .
84(5) . . .
73(5) . . .
102(5) . . .
98(5) . . .
99(5) . . .
98(5) . . .
94(5) . . .
96(5) . . .
79(5) . . .
94(5) . . .
84(5) . . .
79(5) . . .
93(5) . . .
88(5) . . .
92(5) . . .
104(6) . . .
87(5) . . .
91(5) . . .
81(5) . . .
91(5) . . .
92(5) . . .
103(6) . . .
98(5) . . .
80(5) . . .
88(5) . . .
75(5) . . .
87(5) . . .
83(5) . . .
90(5) . . .
75(5) . . .
88(5) . . .
84(5) . . .
109(6) . . .
95(5) . . .
94(5) . . .
88(5) . . .
89(5) . . .
84(5) . . .
100(5) . . .
85(5) . . .
94(5) . . .
90(5) . . .
76(5) . . .
78(5) . . .
94(5) . . .
91(5) . . .
96(5) . . .
71(4) . . .
89(5) . . .
94(5) . . .
95(5) . . .
88(5) . . .
94(5) . . .
85(5) . . .
95(5) . . .
98(5) . . .
95(5) . . .
86(5) . . .
101(5) . . .
86(5) . . .
86(5) . . .
98(5) . . .
86(5) . . .
85(5) . . .
84(5) . . .
87(5) . . .
77(5) . . .
81(5) . . .
79(5) . . .
97(5) . . .
88(5) . . .
88(5) . . .
93(5) . . .
100(5) . . .
91(5) . . .
92(5) . . .
89(5) . . .
91(5) . . .
95(5) . . .
85(5) . . .
94(5) . . .
84(5) . . .
86(5) . . .
95(5) . . .
91(5) . . .
91(5) . . .
88(5) . . .
98(5) . . .
87(5) . . .
91(5) . . .
92(5) . . .
96(5) . . .
84(5) . . .
77(5) . . .
94(6) . . .
101(5) . . .
86(5) . . .
83(5) . . .
90(5) . . .
90(5) . . .
100(5) . . .
90(5) . . .
86(5) . . .
84(5) . . .
86(5) . . .
92(5) . . .
98(5) . . .
88(5) . . .
86(5) . . .
95(6) . . .
90(5) . . .
79(5) . . .
86(5) . . .
83(5) . . .
83(5) . . .
83(5) . . .
89(5) . . .
92(5) . . .
82(5) . . .
95(5) . . .
82(5) . . .
102(5) . . .
95(5) . . .
90(5) . . .
82(5) . . .
90(5) . . .
90(5) . . .
85(5) . . .
88(5) . . .
103(6) . . .
79(5) . . .
90(5) . . .
92(5) . . .
99(5) . . .
98(5) . . .
82(5) . . .
93(5) . . .
93(5) . . .
87(5) . . .
94(5) . . .
74(4) . . .
87(5) . . .
87(5) . . .
81(5) . . .
90(5) . . .
92(5) . . .
95(5) . . .
100(6) . . .
89(5) . . .
86(5) . . .
94(5) . . .
78(5) . . .
98(5) . . .
70(5) . . .
81(5) . . .
95(5) . . .
89(5) . . .
84(5) . . .
80(5) . . .
88(5) . . .
93(5) . . .
88(5) . . .
88(5) . . .
104(6) . . .
94(5) . . .
88(5) . . .
91(5) . . .
81(5) . . .
79(5) . . .
92(5) . . .
92(5) . . .
97(5) . . .
100(5) . . .
89(5) . . .
81(5) . . .
79(5) . . .
95(5) . . .
93(5) . . .
90(5) . . .
86(5) . . .
105(5) . . .
83(5) . . .
84(5) . . .
91(5) . . .
81(5) . . .
86(5) . . .
87(5) . . .
97(5) . . .
93(5) . . .
85(5) . . .
92(5) . . .
84(5) . . .
89(5) . . .
79(5) . . .
75(5) . . .
88(5) . . .
77(5) . . .
102(6) . . .
94(5) . . .
87(5) . . .
97(5) . . .
95(5) . . .
84(5) . . .
78(5) . . .
88(5) . . .
85(5) . . .
95(5) . . .
88(5) . . .
78(5) . . .
92(5) . . .
83(5) . . .
84(5) . . .
87(5) . . .
102(6) . . .
90(5) . . .
95(5) . . .
86(5) . . .
84(5) . . .
89(5) . . .
95(5) . . .
89(5) . . .
100(5) . . .
101(5) . . .
90(5) . . .
87(5) . . .
83(5) . . .
99(5) . . .
80(5) . . .
87(5) . . .
85(5) . . .
78(5) . . .
82(5) . . .
85(5) . . .
73(4) . . .
70(4) . . .
86(5) . . .
85(5) . . .
77(5) . . .
80(5) . . .
82(5) . . .
81(5) . . .
82(5) . . .
91(5) . . .
96(5) . . .
80(5) . . .
93(5) . . .
93(6) . . .
96(5) . . .
82(5) . . .
83(5) . . .
98(5) . . .
86(5) . . .
96(5) . . .
90(5) . . .
75(5) . . .
90(5) . . .
83(5) . . .
84(5) . . .
84(5) . . .
88(5) . . .
85(5) . . .
100(5) . . .
86(5) . . .
94(5) . . .
90(5) . . .
77(5) . . .
77(5) . . .
92(5) . . .
82(5) . . .
83(5) . . .
81(5) . . .
85(5) . . .
92(5) . . .
80(5) . . .
87(5) . . .
83(5) . . .
76(5) . . .
82(5) . . .
90(5) . . .
84(5) . . .
92(5) . . .
110(6) . . .
77(5) . . .
86(5) . . .
89(5) . . .
89(5) . . .
82(5) . . .
77(5) . . .
82(5) . . .
91(5) . . .
91(5) . . .
98(5) . . .
99(5) . . .
89(5) . . .
88(5) . . .
88(5) . . .
84(5) . . .
83(5) . . .
85(5) . . .
83(5) . . .
87(5) . . .
91(5) . . .
87(5) . . .
94(5) . . .
82(5) . . .
91(5) . . .
89(5) . . .
91(5) . . .
84(5) . . .
84(5) . . .
89(5) . . .
87(5) . . .
88(5) . . .
91(5) . . .
94(5) . . .
84(5) . . .
87(5) . . .
104(5) . . .
82(5) . . .
77(5) . . .
82(5) . . .
79(5) . . .
87(5) . . .
92(5) . . .
90(5) . . .
83(5) . . .
88(5) . . .
88(5) . . .
87(5) . . .
88(5) . . .
94(5) . . .
89(5) . . .
78(5) . . .
83(5) . . .
84(5) . . .
85(5) . . .
91(5) . . .
84(5) . . .
87(5) . . .
92(5) . . .
75(5) . . .
64(4) . . .
70(4) . . .
85(5) . . .
92(5) . . .
101(6) . . .
86(5) . . .
78(5) . . .
89(5) . . .
92(5) . . .
86(5) . . .
88(5) . . .
77(5) . . .
87(5) . . .
86(5) . . .
85(5) . . .
83(5) . . .
82(5) . . .
81(5) . . .
92(5) . . .
97(6) . . .
79(5) . . .
91(5) . . .
94(5) . . .
94(5) . . .
97(6) . . .
71(4) . . .
80(5) . . .
89(5) . . .
75(5) . . .
77(5) . . .
87(5) . . .
72(5) . . .
80(5) . . .
88(5) . . .
79(5) . . .
80(5) . . .
94(5) . . .
91(5) . . .
81(5) . . .
85(5) . . .
79(5) . . .
86(5) . . .
84(5) . . .
77(5) . . .
86(5) . . .
86(5) . . .
104(5) . . .
100(5) . . .
93(5) . . .
101(5) . . .
78(5) . . .
82(5) . . .
88(5) . . .
88(5) . . .
93(5) . . .
91(5) . . .
98(5) . . .
102(6) . . .
93(5) . . .
99(5) . . .
84(5) . . .
86(5) . . .
89(5) . . .
99(5) . . .
92(5) . . .
94(5) . . .
92(5) . . .
83(5) . . .
98(5) . . .
96(5) . . .
85(5) . . .
87(5) . . .
82(5) . . .
81(5) . . .
84(5) . . .
85(5) . . .
88(5) . . .
99(6) . . .
79(5) . . .
82(5) . . .
96(5) . . .
90(5) . . .
97(5) . . .
97(5) . . .
88(5) . . .
79(5) . . .
102(5) . . .
88(5) . . .
88(5) . . .
78(5) . . .
88(5) . . .
86(5) . . .
83(5) . . .
92(5) . . .
91(5) . . .
83(5) . . .
85(5) . . .
75(5) . . .
75(5) . . .
86(5) . . .
88(5) . . .
85(5) . . .
102(5) . . .
86(5) . . .
89(5) . . .
93(5) . . .
102(6) . . .
90(5) . . .
73(4) . . .
90(5) . . .
97(5) . . .
99(6) . . .
84(5) . . .
98(5) . . .
78(5) . . .
98(5) . . .
93(5) . . .
85(5) . . .
90(5) . . .
71(4) . . .
81(5) . . .
79(5) . . .
89(5) . . .
85(5) . . .
103(5) . . .
85(5) . . .
97(5) . . .
75(5) . . .
83(5) . . .
93(5) . . .
85(5) . . .
78(5) . . .
85(5) . . .
90(5) . . .
87(5) . . .
90(5) . . .
102(6) . . .
97(5) . . .
88(5) . . .
85(5) . . .
89(5) . . .
95(6) . . .
80(5) . . .
89(5) . . .
72(5) . . .
91(5) . . .
86(5) . . .
87(5) . . .
84(5) . . .
81(5) . . .
91(5) . . .
82(5) . . .
95(5) . . .
81(5) . . .
72(5) . . .
76(5) . . .
84(5) . . .
81(5) . . .
81(5) . . .
87(5) . . .
79(5) . . .
73(4) . . .
80(5) . . .
88(5) . . .
85(5) . . .
75(5) . . .
86(5) . . .
80(5) . . .
87(5) . . .
94(5) . . .
89(5) . . .
88(5) . . .
90(5) . . .
88(5) . . .
93(5) . . .
90(5) . . .
74(5) . . .
71(4) . . .
72(4) . . .
85(5) . . .
89(5) . . .
92(5) . . .
90(5) . . .
85(5) . . .
98(5) . . .
91(5) . . .
94(5) . . .
80(5) . . .
92(5) . . .
92(5) . . .
74(5) . . .
80(5) . . .
86(5) . . .
79(5) . . .
83(5) . . .
85(5) . . .
95(5) . . .
109(5) . . .
85(5) . . .
84(5) . . .
85(5) . . .
94(5) . . .
91(5) . . .
81(5) . . .
81(5) . . .
92(5) . . .
82(5) . . .
87(5) . . .
78(5) . . .
84(5) . . .
75(5) . . .
84(5) . . .
77(5) . . .
86(5) . . .
92(6) . . .
78(5) . . .
65(4) . . .
75(5) . . .
90(5) . . .
96(6) . . .
88(5) . . .
96(5) . . .
86(5) . . .
88(5) . . .
101(6) . . .
83(5) . . .
79(5) . . .
78(5) . . .
89(5) . . .
87(5) . . .
87(5) . . .
80(5) . . .
78(5) . . .
93(5) . . .
83(5) . . .
69(4) . . .
79(5) . . .
77(5) . . .
87(5) . . .
87(5) . . .
81(5) . . .
90(5) . . .
89(5) . . .
76(5) . . .
93(5) . . .
97(5) . . .
92(5) . . .
92(5) . . .
86(5) . . .
77(5) . . .
93(5) . . .
95(5) . . .
100(5) . . .
90(5) . . .
74(5) . . .
74(4) . . .
81(5) . . .
90(5) . . .
81(5) . . .
69(5) . . .
76(5) . . .
83(5) . . .
83(5) . . .
74(5) . . .
83(5) . . .
82(5) . . .
82(5) . . .
84(5) . . .
97(6) . . .
81(5) . . .
81(5) . . .
98(5) . . .
95(5) . . .
74(5) . . .
84(5) . . .
78(5) . . .
90(5) . . .
84(5) . . .
81(5) . . .
82(5) . . .
92(5) . . .
90(5) . . .
92(5) . . .
77(5) . . .
83(5) . . .
90(5) . . .
84(5) . . .
86(5) . . .
81(5) . . .
89(5) . . .
81(5) . . .
85(5) . . .
83(5) . . .
77(5) . . .
79(5) . . .
90(5) . . .
85(5) . . .
92(5) . . .
72(5) . . .
79(5) . . .
90(5) . . .
76(5) . . .
87(5) . . .
78(5) . . .
79(5) . . .
87(5) . . .
71(4) . . .
80(5) . . .
83(5) . . .
74(4) . . .
86(5) . . .
84(5) . . .
79(5) . . .
83(5) . . .
83(5) . . .
75(4) . . .
100(5) . . .
89(5) . . .
89(5) . . .
73(4) . . .
79(5) . . .
77(5) . . .
97(5) . . .
101(5) . . .
77(5) . . .
87(5) . . .
93(5) . . .
89(5) . . .
84(5) . . .
83(5) . . .
72(4) . . .
79(5) . . .
82(5) . . .
106(6) . . .
90(5) . . .
81(5) . . .
80(5) . . .
87(5) . . .
75(5) . . .
96(5) . . .
86(5) . . .
95(5) . . .
82(5) . . .
80(5) . . .
86(5) . . .
76(5) . . .
94(5) . . .
86(5) . . .
86(5) . . .
83(5) . . .
86(5) . . .
80(5) . . .
68(4) . . .
85(5) . . .
90(5) . . .
95(5) . . .
82(5) . . .
77(5) . . .
77(5) . . .
95(5) . . .
75(5) . . .
84(5) . . .
88(5) . . .
81(5) . . .
90(5) . . .
82(5) . . .
78(5) . . .
91(5) . . .
89(5) . . .
100(5) . . .
82(5) . . .
83(5) . . .
82(5) . . .
84(5) . . .
81(5) . . .
93(5) . . .
87(5) . . .
86(5) . . .
78(5) . . .
82(5) . . .
83(5) . . .
80(5) . . .
76(5) . . .
78(5) . . .
86(5) . . .
80(5) . . .
97(6) . . .
76(5) . . .
75(5) . . .
84(5) . . .
69(4) . . .
75(5) . . .
88(5) . . .
86(5) . . .
87(5) . . .
74(5) . . .
74(5) . . .
76(4) . . .
75(5) . . .
71(5) . . .
77(5) . . .
70(4) . . .
70(4) . . .
81(5) . . .
91(5) . . .
83(5) . . .
71(5) . . .
86(5) . . .
88(5) . . .
85(5) . . .
78(5) . . .
84(5) . . .
85(5) . . .
83(5) . . .
75(5) . . .
87(5) . . .
93(5) . . .
86(5) . . .
87(5) . . .
81(5) . . .
87(5) . . .
80(5) . . .
76(5) . . .
80(5) . . .
81(5) . . .
89(5) . . .
81(5) . . .
90(5) . . .
91(5) . . .
86(5) . . .
86(5) . . .
86(5) . . .
88(5) . . .
82(5) . . .
82(5) . . .
76(5) . . .
82(5) . . .
86(5) . . .
82(5) . . .
88(5) . . .
93(5) . . .
81(5) . . .
80(5) . . .
95(5) . . .
84(5) . . .
82(5) . . .
72(4) . . .
85(5) . . .
95(6) . . .
88(5) . . .
79(5) . . .
71(4) . . .
73(4) . . .
85(5) . . .
84(5) . . .
80(5) . . .
104(5) . . .
82(5) . . .
86(5) . . .
85(5) . . .
75(5) . . .
85(5) . . .
81(5) . . .
90(5) . . .
77(5) . . .
84(5) . . .
87(5) . . .
78(5) . . .
76(5) . . .
79(5) . . .
87(5) . . .
82(5) . . .
98(5) . . .
94(5) . . .
86(5) . . .
93(5) . . .
80(5) . . .
90(5) . . .
76(5) . . .
83(5) . . .
86(5) . . .
87(5) . . .
87(5) . . .
75(5) . . .
77(5) . . .
87(5) . . .
86(5) . . .
75(5) . . .
84(5) . . .
74(4) . . .
78(5) . . .
88(5) . . .
81(5) . . .
91(5) . . .
84(5) . . .
80(5) . . .
76(5) . . .
73(5) . . .
85(5) . . .
81(5) . . .
71(4) . . .
87(5) . . .
76(5) . . .
75(5) . . .
77(5) . . .
71(4) . . .
88(5) . . .
83(5) . . .
79(5) . . .
83(5) . . .
85(5) . . .
78(5) . . .
71(4) . . .
79(5) . . .
88(5) . . .
85(5) . . .
76(5) . . .
83(5) . . .
73(5) . . .
78(5) . . .
81(5) . . .
72(4) . . .
86(5) . . .
91(5) . . .
76(5) . . .
88(5) . . .
82(5) . . .
75(5) . . .
71(5) . . .
82(5) . . .
78(5) . . .
86(5) . . .
67(4) . . .
78(5) . . .
83(5) . . .
83(5) . . .
82(5) . . .
88(5) . . .
88(5) . . .
79(5) . . .
74(4) . . .
90(5) . . .
81(5) . . .
84(5) . . .
83(5) . . .
75(5) . . .
69(4) . . .
76(5) . . .
81(5) . . .
85(5) . . .
89(5) . . .
77(5) . . .
86(5) . . .
99(6) . . .
97(5) . . .
88(5) . . .
80(5) . . .
77(5) . . .
73(5) . . .
86(5) . . .
88(5) . . .
84(5) . . .
79(5) . . .
71(4) . . .
81(5) . . .
84(5) . . .
79(5) . . .
82(5) . . .
79(5) . . .
86(5) . . .
87(5) . . .
90(5) . . .
81(5) . . .
75(5) . . .
84(5) . . .
71(4) . . .
81(5) . . .
76(4) . . .
88(5) . . .
81(5) . . .
82(5) . . .
81(5) . . .
76(5) . . .
77(5) . . .
87(5) . . .
91(5) . . .
97(5) . . .
89(5) . . .
84(5) . . .
90(5) . . .
81(5) . . .
81(5) . . .
84(5) . . .
74(5) . . .
82(5) . . .
75(5) . . .
71(4) . . .
88(5) . . .
85(5) . . .
81(5) . . .
84(5) . . .
76(5) . . .
81(5) . . .
80(5) . . .
74(4) . . .
76(5) . . .
79(5) . . .
76(5) . . .
78(5) . . .
80(5) . . .
85(5) . . .
85(5) . . .
88(5) . . .
96(5) . . .
86(5) . . .
80(5) . . .
81(5) . . .
73(4) . . .
86(5) . . .
91(5) . . .
84(5) . . .
76(5) . . .
82(5) . . .
84(5) . . .
75(4) . . .
82(5) . . .
88(5) . . .
83(5) . . .
90(5) . . .
80(5) . . .
83(5) . . .
80(5) . . .
84(5) . . .
88(5) . . .
87(5) . . .
76(5) . . .
94(5) . . .
87(5) . . .
78(5) . . .
92(5) . . .
95(5) . . .
75(4) . . .
81(5) . . .
80(5) . . .
63(4) . . .
86(5) . . .
82(5) . . .
65(4) . . .
74(4) . . .
88(5) . . .
80(5) . . .
95(5) . . .
80(5) . . .
83(5) . . .
69(5) . . .
78(5) . . .
91(5) . . .
74(4) . . .
80(5) . . .
95(5) . . .
76(4) . . .
86(5) . . .
75(5) . . .
83(5) . . .
87(5) . . .
94(5) . . .
73(5) . . .
76(4) . . .
96(5) . . .
85(5) . . .
78(5) . . .
77(5) . . .
83(5) . . .
79(5) . . .
88(5) . . .
77(5) . . .
88(5) . . .
92(5) . . .
88(5) . . .
96(6) . . .
72(5) . . .
76(5) . . .
79(5) . . .
72(5) . . .
75(4) . . .
86(5) . . .
89(5) . . .
87(5) . . .
82(5) . . .
75(5) . . .
77(5) . . .
84(5) . . .
76(5) . . .
86(5) . . .
86(5) . . .
74(5) . . .
82(5) . . .
72(4) . . .
84(5) . . .
89(5) . . .
89(5) . . .
83(5) . . .
70(4) . . .
80(5) . . .
79(5) . . .
80(5) . . .
98(5) . . .
78(5) . . .
74(5) . . .
73(5) . . .
98(6) . . .
85(5) . . .
74(4) . . .
77(5) . . .
84(5) . . .
84(5) . . .
80(5) . . .
78(5) . . .
75(5) . . .
78(5) . . .
81(5) . . .
84(5) . . .
83(5) . . .
77(4) . . .
76(5) . . .
73(5) . . .
84(5) . . .
78(5) . . .
71(5) . . .
74(5) . . .
85(5) . . .
84(5) . . .
76(5) . . .
78(5) . . .
86(5) . . .
90(5) . . .
73(4) . . .
69(4) . . .
75(5) . . .
72(4) . . .
77(5) . . .
83(5) . . .
95(5) . . .
91(5) . . .
79(5) . . .
85(5) . . .
75(5) . . .
81(5) . . .
74(5) . . .
82(5) . . .
86(5) . . .
65(4) . . .
77(5) . . .
81(5) . . .
79(5) . . .
74(4) . . .
68(4) . . .
74(5) . . .
80(5) . . .
80(5) . . .
91(5) . . .
85(5) . . .
78(5) . . .
84(5) . . .
73(4) . . .
79(5) . . .
75(4) . . .
94(5) . . .
83(5) . . .
79(5) . . .
81(5) . . .
72(5) . . .
85(5) . . .
97(6) . . .
73(5) . . .
79(5) . . .
76(5) . . .
82(5) . . .
78(5) . . .
72(4) . . .
83(5) . . .
80(5) . . .
76(5) . . .
84(5) . . .
80(5) . . .
76(5) . . .
89(5) . . .
82(5) . . .
81(5) . . .
81(5) . . .
82(5) . . .
78(5) . . .
78(5) . . .
69(4) . . .
89(5) . . .
83(5) . . .
75(5) . . .
78(5) . . .
78(5) . . .
77(5) . . .
63(4) . . .
73(5) . . .
80(5) . . .
90(5) . . .
69(4) . . .
81(5) . . .
77(5) . . .
78(5) . . .
79(5) . . .
67(4) . . .
74(5) . . .
87(5) . . .
75(5) . . .
77(5) . . .
86(5) . . .
95(5) . . .
80(5) . . .
70(5) . . .
86(5) . . .
81(5) . . .
84(5) . . .
77(5) . . .
80(5) . . .
63(4) . . .
75(4) . . .
98(5) . . .
86(5) . . .
88(5) . . .
75(5) . . .
84(5) . . .
81(5) . . .
76(5) . . .
76(5) . . .
71(5) . . .
65(4) . . .
78(5) . . .
91(5) . . .
88(5) . . .
75(5) . . .
75(4) . . .
75(5) . . .
90(5) . . .
69(4) . . .
74(5) . . .
65(4) . . .
75(5) . . .
80(5) . . .
80(5) . . .
79(5) . . .
69(4) . . .
72(4) . . .
93(5) . . .
75(5) . . .
72(4) . . .
83(5) . . .
82(5) . . .
89(5) . . .
85(5) . . .
73(4) . . .
82(5) . . .
84(5) . . .
82(5) . . .
81(5) . . .
69(4) . . .
65(4) . . .
76(5) . . .
72(5) . . .
77(5) . . .
75(4) . . .
82(5) . . .
80(5) . . .
76(5) . . .
69(4) . . .
80(5) . . .
87(5) . . .
92(5) . . .
82(5) . . .
79(5) . . .
70(4) . . .
73(4) . . .
75(5) . . .
81(5) . . .
75(5) . . .
76(4) . . .
78(5) . . .
79(5) . . .
68(4) . . .
74(5) . . .
91(5) . . .
76(5) . . .
79(5) . . .
87(5) . . .
82(5) . . .
76(4) . . .
91(5) . . .
90(5) . . .
87(5) . . .
62(4) . . .
64(4) . . .
71(4) . . .
87(5) . . .
93(5) . . .
77(5) . . .
92(5) . . .
78(5) . . .
72(5) . . .
78(5) . . .
83(5) . . .
66(4) . . .
74(5) . . .
85(5) . . .
69(4) . . .
80(5) . . .
78(5) . . .
87(5) . . .
76(5) . . .
79(5) . . .
89(5) . . .
88(5) . . .
82(5) . . .
80(5) . . .
76(5) . . .
81(5) . . .
83(5) . . .
68(4) . . .
81(5) . . .
82(5) . . .
96(5) . . .
85(5) . . .
79(5) . . .
83(5) . . .
90(5) . . .
82(5) . . .
86(5) . . .
81(5) . . .
94(5) . . .
88(5) . . .
81(5) . . .
76(5) . . .
91(5) . . .
74(5) . . .
84(5) . . .
91(5) . . .
75(4) . . .
71(5) . . .
64(4) . . .
77(5) . . .
84(5) . . .
82(5) . . .
80(5) . . .
75(5) . . .
77(5) . . .
74(4) . . .
85(5) . . .
76(5) . . .
70(4) . . .
71(5) . . .
96(5) . . .
69(4) . . .
82(5) . . .
80(5) . . .
93(5) . . .
85(5) . . .
80(5) . . .
76(5) . . .
80(5) . . .
79(5) . . .
83(5) . . .
85(5) . . .
94(5) . . .
87(5) . . .
76(5) . . .
92(5) . . .
85(5) . . .
87(5) . . .
77(5) . . .
84(5) . . .
75(5) . . .
71(4) . . .
95(6) . . .
90(5) . . .
80(5) . . .
78(5) . . .
72(5) . . .
83(5) . . .
85(5) . . .
80(5) . . .
74(4) . . .
82(5) . . .
83(5) . . .
78(5) . . .
69(4) . . .
84(5) . . .
69(5) . . .
69(4) . . .
88(5) . . .
81(5) . . .
92(5) . . .
97(5) . . .
71(4) . . .
67(4) . . .
78(5) . . .
90(5) . . .
77(5) . . .
77(5) . . .
89(5) . . .
76(5) . . .
73(5) . . .
80(5) . . .
85(5) . . .
83(5) . . .
81(5) . . .
80(5) . . .
76(5) . . .
81(5) . . .
76(5) . . .
71(4) . . .
72(5) . . .
70(5) . . .
78(5) . . .
81(5) . . .
77(5) . . .
90(5) . . .
77(5) . . .
77(5) . . .
75(5) . . .
73(4) . . .
82(5) . . .
81(5) . . .
76(5) . . .
76(5) . . .
76(5) . . .
84(5) . . .
86(5) . . .
84(5) . . .
83(5) . . .
85(5) . . .
80(5) . . .
85(5) . . .
75(5) . . .
73(4) . . .
79(5) . . .
75(5) . . .
69(5) . . .
72(5) . . .
73(4) . . .
76(5) . . .
67(4) . . .
81(5) . . .
79(5) . . .
80(5) . . .
74(4) . . .
77(5) . . .
80(5) . . .
86(5) . . .
79(5) . . .
76(5) . . .
80(5) . . .
73(4) . . .
81(5) . . .
83(5) . . .
85(5) . . .
81(5) . . .
75(5) . . .
80(5) . . .
77(5) . . .
83(5) . . .
77(5) . . .
77(5) . . .
78(5) . . .
77(5) . . .
72(4) . . .
78(5) . . .
69(4) . . .
71(4) . . .
72(4) . . .
75(5) . . .
86(5) . . .
79(5) . . .
85(5) . . .
84(5) . . .
87(5) . . .
79(5) . . .
66(4) . . .
82(5) . . .
84(5) . . .
79(5) . . .
75(5) . . .
85(5) . . .
82(5) . . .
82(5) . . .
85(5) . . .
79(5) . . .
83(5) . . .
77(5) . . .
79(5) . . .
88(5) . . .
73(4) . . .
84(5) . . .
89(5) . . .
84(5) . . .
83(5) . . .
73(5) . . .
74(5) . . .
81(5) . . .
82(5) . . .
86(5) . . .
90(5) . . .
87(5) . . .
72(4) . . .
91(5) . . .
75(5) . . .
79(5) . . .
87(5) . . .
82(5) . . .
74(5) . . .
75(5) . . .
85(5) . . .
91(5) . . .
84(5) . . .
80(5) . . .
78(5) . . .
85(5) . . .
91(5) . . .
68(4) . . .
79(5) . . .
76(5) . . .
78(5) . . .
78(5) . . .
77(5) . . .
69(4) . . .
71(5) . . .
70(4) . . .
100(5) . . .
85(5) . . .
80(5) . . .
70(4) . . .
76(5) . . .
72(4) . . .
78(5) . . .
70(4) . . .
89(5) . . .
85(5) . . .
89(5) . . .
81(5) . . .
72(5) . . .
75(5) . . .
85(5) . . .
78(5) . . .
77(5) . . .
77(5) . . .
76(5) . . .
76(5) . . .
94(5) . . .
75(5) . . .
77(5) . . .
70(4) . . .
77(5) . . .
78(5) . . .
82(5) . . .
88(5) . . .
97(5) . . .
81(5) . . .
70(4) . . .
77(5) . . .
83(5) . . .
82(5) . . .
69(4) . . .
62(4) . . .
69(4) . . .
79(5) . . .
73(5) . . .
72(4) . . .
79(5) . . .
75(5) . . .
74(5) . . .
74(5) . . .
85(5) . . .
83(5) . . .
85(5) . . .
77(5) . . .
69(4) . . .
70(4) . . .
75(5) . . .
66(4) . . .
79(5) . . .
81(5) . . .
82(5) . . .
77(5) . . .
76(5) . . .
77(5) . . .
77(5) . . .
74(4) . . .
76(5) . . .
75(5) . . .
75(5) . . .
79(5) . . .
77(5) . . .
76(5) . . .
75(5) . . .
86(5) . . .
72(4) . . .
79(5) . . .
76(5) . . .
79(5) . . .
71(5) . . .
84(5) . . .
79(5) . . .
81(5) . . .
74(4) . . .
77(5) . . .
61(4) . . .
78(5) . . .
64(4) . . .
82(5) . . .
83(5) . . .
81(5) . . .
82(5) . . .
76(5) . . .
74(5) . . .
74(5) . . .
65(4) . . .
67(4) . . .
66(4) . . .
70(5) . . .
81(5) . . .
68(4) . . .
83(5) . . .
76(5) . . .
85(5) . . .
77(5) . . .
86(5) . . .
70(4) . . .
75(5) . . .
76(5) . . .
73(5) . . .
86(5) . . .
75(5) . . .
81(5) . . .
75(5) . . .
90(5) . . .
79(5) . . .
62(4) . . .
82(5) . . .
69(5) . . .
66(4) . . .
81(5) . . .
74(5) . . .
71(5) . . .
78(5) . . .
76(5) . . .
81(5) . . .
75(5) . . .
76(5) . . .
82(5) . . .
72(4) . . .
84(5) . . .
83(5) . . .
75(5) . . .
76(5) . . .
86(5) . . .
73(4) . . .
87(5) . . .
62(4) . . .
66(4) . . .
83(5) . . .
81(5) . . .
94(5) . . .
68(4) . . .
78(5) . . .
90(5) . . .
81(5) . . .
68(4) . . .
77(5) . . .
68(4) . . .
79(5) . . .
85(5) . . .
78(5) . . .
73(5) . . .
77(5) . . .
83(5) . . .
72(4) . . .
76(5) . . .
75(5) . . .
85(5) . . .
96(5) . . .
80(5) . . .
85(5) . . .
78(5) . . .
70(5) . . .
75(4) . . .
84(5) . . .
71(4) . . .
94(5) . . .
79(5) . . .
71(4) . . .
74(5) . . .
80(5) . . .
66(4) . . .
69(4) . . .
61(4) . . .
75(5) . . .
80(5) . . .
90(5) . . .
69(4) . . .
81(5) . . .
80(5) . . .
93(5) . . .
73(4) . . .
84(5) . . .
91(5) . . .
71(5) . . .
75(5) . . .
75(5) . . .
78(5) . . .
88(5) . . .
84(5) . . .
80(5) . . .
77(5) . . .
83(5) . . .
89(5) . . .
69(4) . . .
60(4) . . .
77(5) . . .
81(5) . . .
72(4) . . .
85(5) . . .
83(5) . . .
85(5) . . .
86(5) . . .
75(5) . . .
85(5) . . .
77(5) . . .
77(5) . . .
87(5) . . .
78(5) . . .
74(5) . . .
68(4) . . .
65(4) . . .
70(4) . . .
81(5) . . .
84(5) . . .
87(5) . . .
81(5) . . .
76(5) . . .
75(5) . . .
77(5) . . .
73(5) . . .
74(5) . . .
71(4) . . .
76(5) . . .
82(5) . . .
87(5) . . .
90(5) . . .
75(4) . . .
64(4) . . .
82(5) . . .
73(4) . . .
95(5) . . .
86(5) . . .
85(5) . . .
83(5) . . .
74(5) . . .
85(5) . . .
91(5) . . .
82(5) . . .
89(5) . . .
68(4) . . .
79(5) . . .
92(5) . . .
77(5) . . .
74(5) . . .
75(5) . . .
71(4) . . .
81(5) . . .
84(5) . . .
84(5) . . .
81(5) . . .
79(5) . . .
82(5) . . .
71(5) . . .
67(5) . . .
80(5) . . .
74(5) . . .
73(5) . . .
77(5) . . .
81(5) . . .
69(4) . . .
72(4) . . .
72(4) . . .
71(4) . . .
74(5) . . .
77(5) . . .
76(5) . . .
74(5) . . .
76(5) . . .
77(5) . . .
92(5) . . .
77(5) . . .
72(5) . . .
88(5) . . .
82(5) . . .
69(4) . . .
65(4) . . .
70(5) . . .
73(5) . . .
81(5) . . .
74(5) . . .
68(4) . . .
76(5) . . .
77(5) . . .
72(4) . . .
80(5) . . .
83(5) . . .
68(4) . . .
76(5) . . .
79(5) . . .
91(5) . . .
86(5) . . .
75(5) . . .
82(5) . . .
78(5) . . .
93(5) . . .
86(5) . . .
72(5) . . .
71(5) . . .
71(5) . . .
81(5) . . .
80(5) . . .
78(5) . . .
73(5) . . .
84(5) . . .
66(4) . . .
68(4) . . .
69(4) . . .
75(5) . . .
78(5) . . .
73(4) . . .
75(5) . . .
79(5) . . .
80(5) . . .
80(5) . . .
69(4) . . .
69(4) . . .
72(5) . . .
82(5) . . .
82(5) . . .
85(5) . . .
67(4) . . .
79(5) . . .
81(5) . . .
72(5) . . .
73(4) . . .
75(5) . . .
81(5) . . .
77(5) . . .
77(5) . . .
75(4) . . .
87(5) . . .
69(5) . . .
71(4) . . .
79(5) . . .
72(4) . . .
73(5) . . .
69(5) . . .
68(4) . . .
85(5) . . .
67(4) . . .
78(5) . . .
75(5) . . .
71(5) . . .
66(4) . . .
73(5) . . .
83(5) . . .
75(5) . . .
79(5) . . .
91(5) . . .
78(5) . . .
83(5) . . .
83(5) . . .
76(5) . . .
71(4) . . .
78(5) . . .
74(4) . . .
77(5) . . .
72(5) . . .
77(5) . . .
80(5) . . .
83(5) . . .
72(5) . . .
74(5) . . .
78(5) . . .
75(4) . . .
78(5) . . .
75(5) . . .
74(5) . . .
69(4) . . .
70(4) . . .
72(5) . . .
57(4) . . .
66(4) . . .
80(5) . . .
81(5) . . .
85(5) . . .
73(5) . . .
71(4) . . .
73(4) . . .
67(5) . . .
79(5) . . .
71(5) . . .
83(5) . . .
79(5) . . .
82(5) . . .
74(5) . . .
72(5) . . .
74(4) . . .
95(5) . . .
80(5) . . .
78(5) . . .
72(5) . . .
70(4) . . .
82(5) . . .
82(5) . . .
80(5) . . .
76(5) . . .
73(4) . . .
83(5) . . .
81(5) . . .
77(5) . . .
72(5) . . .
73(4) . . .
71(4) . . .
70(4) . . .
78(5) . . .
77(5) . . .
81(5) . . .
75(5) . . .
73(5) . . .
64(4) . . .
72(5) . . .
69(4) . . .
81(5) . . .
69(4) . . .
75(5) . . .
69(4) . . .
72(4) . . .
73(5) . . .
77(5) . . .
80(5) . . .
70(4) . . .
71(4) . . .
78(5) . . .
80(5) . . .
77(5) . . .
82(5) . . .
80(5) . . .
79(5) . . .
69(5) . . .
67(4) . . .
65(4) . . .
80(5) . . .
83(5) . . .
82(5) . . .
71(5) . . .
65(4) . . .
64(4) . . .
74(5) . . .
72(5) . . .
73(5) . . .
76(4) . . .
71(4) . . .
79(5) . . .
77(5) . . .
72(5) . . .
80(5) . . .
78(5) . . .
67(4) . . .
69(5) . . .
70(4) . . .
74(4) . . .
77(5) . . .
82(5) . . .
69(4) . . .
76(5) . . .
64(4) . . .
78(5) . . .
70(4) . . .
67(4) . . .
81(5) . . .
81(5) . . .
78(5) . . .
77(5) . . .
85(5) . . .
77(5) . . .
77(5) . . .
70(4) . . .
70(5) . . .
86(5) . . .
85(5) . . .
68(4) . . .
73(5) . . .
75(5) . . .
71(4) . . .
74(5) . . .
82(5) . . .
74(5) . . .
85(5) . . .
71(4) . . .
65(4) . . .
69(4) . . .
71(5) . . .
72(5) . . .
80(5) . . .
78(5) . . .
78(5) . . .
72(5) . . .
70(5) . . .
73(5) . . .
82(5) . . .
77(5) . . .
74(5) . . .
59(4) . . .
61(4) . . .
64(4) . . .
75(5) . . .
71(4) . . .
90(5) . . .
87(5) . . .
87(5) . . .
76(5) . . .
73(5) . . .
73(5) . . .
71(5) . . .
60(4) . . .
76(5) . . .
92(5) . . .
88(5) . . .
75(5) . . .
67(4) . . .
73(4) . . .
70(4) . . .
82(5) . . .
77(5) . . .
72(4) . . .
75(5) . . .
73(4) . . .
78(5) . . .
67(4) . . .
81(5) . . .
82(5) . . .
75(5) . . .
65(4) . . .
77(5) . . .
76(4) . . .
74(5) . . .
74(5) . . .
71(5) . . .
68(4) . . .
76(5) . . .
81(5) . . .
76(5) . . .
80(5) . . .
75(5) . . .
72(4) . . .
73(4) . . .
84(5) . . .
80(5) . . .
92(5) . . .
70(4) . . .
68(4) . . .
83(5) . . .
69(4) . . .
80(5) . . .
80(5) . . .
68(4) . . .
64(4) . . .
73(5) . . .
76(4) . . .
70(4) . . .
79(5) . . .
86(5) . . .
93(5) . . .
69(4) . . .
67(4) . . .
73(5) . . .
76(5) . . .
83(5) . . .
75(4) . . .
71(4) . . .
68(4) . . .
79(5) . . .
69(4) . . .
64(4) . . .
69(4) . . .
77(5) . . .
76(5) . . .
74(5) . . .
68(4) . . .
68(4) . . .
78(5) . . .
77(5) . . .
81(5) . . .
78(5) . . .
74(5) . . .
89(5) . . .
74(5) . . .
77(5) . . .
74(4) . . .
63(4) . . .
64(5) . . .
76(5) . . .
75(5) . . .
71(4) . . .
59(4) . . .
75(5) . . .
72(4) . . .
77(5) . . .
80(5) . . .
65(4) . . .
75(5) . . .
64(4) . . .
71(4) . . .
75(5) . . .
63(4) . . .
76(5) . . .
77(5) . . .
72(4) . . .
75(4) . . .
85(5) . . .
92(5) . . .
87(5) . . .
71(4) . . .
74(4) . . .
82(5) . . .
69(5) . . .
80(5) . . .
81(5) . . .
89(5) . . .
80(5) . . .
78(5) . . .
82(5) . . .
86(5) . . .
78(5) . . .
83(5) . . .
75(5) . . .
75(5) . . .
82(5) . . .
70(4) . . .
56(4) . . .
66(4) . . .
73(5) . . .
72(4) . . .
75(5) . . .
80(5) . . .
73(5) . . .
71(4) . . .
70(4) . . .
86(5) . . .
70(5) . . .
70(5) . . .
78(5) . . .
69(4) . . .
82(5) . . .
97(5) . . .
69(4) . . .
59(4) . . .
70(4) . . .
69(4) . . .
75(5) . . .
82(5) . . .
74(4) . . .
79(5) . . .
66(4) . . .
70(5) . . .
78(5) . . .
77(5) . . .
75(5) . . .
74(5) . . .
84(5) . . .
74(5) . . .
67(4) . . .
77(5) . . .
88(5) . . .
78(5) . . .
73(5) . . .
83(5) . . .
74(4) . . .
83(5) . . .
76(5) . . .
83(5) . . .
73(4) . . .
64(4) . . .
73(5) . . .
78(5) . . .
77(5) . . .
72(4) . . .
74(5) . . .
81(5) . . .
78(5) . . .
75(5) . . .
77(5) . . .
77(5) . . .
76(5) . . .
75(5) . . .
73(5) . . .
77(5) . . .
77(5) . . .
70(5) . . .
67(4) . . .
81(5) . . .
88(5) . . .
70(4) . . .
80(5) . . .
89(5) . . .
80(5) . . .
70(4) . . .
68(4) . . .
81(5) . . .
82(5) . . .
76(5) . . .
84(5) . . .
68(4) . . .
73(5) . . .
80(5) . . .
59(4) . . .
74(5) . . .
88(5) . . .
96(5) . . .
81(5) . . .
64(4) . . .
73(4) . . .
78(5) . . .
76(5) . . .
78(5) . . .
73(4) . . .
67(4) . . .
69(5) . . .
84(5) . . .
76(5) . . .
70(4) . . .
69(4) . . .
71(5) . . .
70(4) . . .
76(5) . . .
91(5) . . .
84(5) . . .
82(5) . . .
79(5) . . .
65(4) . . .
88(5) . . .
78(5) . . .
75(5) . . .
69(5) . . .
86(5) . . .
77(5) . . .
85(5) . . .
73(5) . . .
81(5) . . .
80(5) . . .
70(4) . . .
77(5) . . .
78(5) . . .
70(4) . . .
63(4) . . .
73(4) . . .
67(5) . . .
63(4) . . .
73(5) . . .
74(5) . . .
83(5) . . .
61(4) . . .
77(5) . . .
64(4) . . .
68(4) . . .
74(5) . . .
59(4) . . .
83(5) . . .
79(5) . . .
74(4) . . .
81(5) . . .
66(4) . . .
69(5) . . .
78(5) . . .
73(5) . . .
73(4) . . .
77(5) . . .
79(5) . . .
74(5) . . .
77(5) . . .
78(5) . . .
72(5) . . .
82(5) . . .
79(5) . . .
60(4) . . .
68(4) . . .
73(5) . . .
65(4) . . .
72(4) . . .
68(4) . . .
60(4) . . .
74(5) . . .
69(5) . . .
80(5) . . .
83(5) . . .
70(4) . . .
70(4) . . .
67(4) . . .
78(5) . . .
69(4) . . .
75(5) . . .
80(5) . . .
83(5) . . .
78(5) . . .
73(4) . . .
69(4) . . .
81(5) . . .
69(4) . . .
77(5) . . .
75(5) . . .
69(4) . . .
77(5) . . .
77(5) . . .
70(4) . . .
85(5) . . .
77(5) . . .
74(5) . . .
80(5) . . .
85(5) . . .
69(4) . . .
68(5) . . .
74(5) . . .
65(5) . . .
68(4) . . .
79(5) . . .
70(4) . . .
69(5) . . .
70(5) . . .
66(4) . . .
73(4) . . .
78(5) . . .
78(5) . . .
75(5) . . .
81(5) . . .
70(4) . . .
76(5) . . .
84(5) . . .
78(5) . . .
69(4) . . .
74(5) . . .
65(4) . . .
72(5) . . .
82(5) . . .
79(5) . . .
85(5) . . .
70(4) . . .
81(5) . . .
86(5) . . .
66(4) . . .
66(4) . . .
86(5) . . .
75(5) . . .
76(5) . . .
70(4) . . .
74(5) . . .
82(5) . . .
58(4) . . .
66(4) . . .
77(5) . . .
77(5) . . .
71(5) . . .
72(4) . . .
72(4) . . .
70(4) . . .
77(5) . . .
74(5) . . .
63(4) . . .
70(4) . . .
70(4) . . .
80(5) . . .
77(5) . . .
64(4) . . .
81(5) . . .
66(4) . . .
61(4) . . .
81(5) . . .
77(5) . . .
70(4) . . .
80(5) . . .
75(5) . . .
60(4) . . .
71(4) . . .
77(5) . . .
76(5) . . .
66(4) . . .
80(5) . . .
67(4) . . .
72(4) . . .
55(4) . . .
76(5) . . .
84(5) . . .
87(5) . . .
69(4) . . .
78(5) . . .
84(5) . . .
80(5) . . .
77(5) . . .
68(4) . . .
75(5) . . .
94(5) . . .
75(4) . . .
73(4) . . .
64(4) . . .
65(4) . . .
83(5) . . .
78(5) . . .
80(5) . . .
65(4) . . .
67(4) . . .
74(5) . . .
68(4) . . .
65(4) . . .
83(5) . . .
70(4) . . .
76(5) . . .
77(5) . . .
83(5) . . .
78(5) . . .
77(5) . . .
66(5) . . .
71(4) . . .
78(5) . . .
70(4) . . .
66(4) . . .
71(5) . . .
69(4) . . .
68(4) . . .
78(5) . . .
73(4) . . .
75(5) . . .
71(5) . . .
75(5) . . .
69(4) . . .
81(5) . . .
67(4) . . .
79(5) . . .
73(4) . . .
65(4) . . .
75(5) . . .
67(5) . . .
66(4) . . .
68(4) . . .
80(5) . . .
76(5) . . .
66(4) . . .
79(5) . . .
73(4) . . .
77(5) . . .
74(5) . . .
70(5) . . .
65(4) . . .
68(4) . . .
67(4) . . .
73(5) . . .
73(5) . . .
82(5) . . .
86(5) . . .
75(5) . . .
74(5) . . .
80(5) . . .
72(4) . . .
86(5) . . .
68(4) . . .
69(4) . . .
70(4) . . .
75(5) . . .
62(4) . . .
78(5) . . .
69(5) . . .
77(5) . . .
74(4) . . .
64(4) . . .
75(5) . . .
76(5) . . .
64(4) . . .
73(5) . . .
64(4) . . .
67(4) . . .
67(5) . . .
67(4) . . .
72(4) . . .
69(4) . . .
83(5) . . .
72(4) . . .
64(4) . . .
69(4) . . .
68(4) . . .
78(5) . . .
74(4) . . .
67(4) . . .
77(5) . . .
74(4) . . .
73(5) . . .
69(5) . . .
68(5) . . .
79(5) . . .
67(4) . . .
78(5) . . .
76(5) . . .
79(5) . . .
74(4) . . .
71(5) . . .
85(5) . . .
85(5) . . .
78(5) . . .
76(5) . . .
74(5) . . .
90(6) . . .
71(5) . . .
65(4) . . .
78(5) . . .
78(5) . . .
77(5) . . .
73(5) . . .
74(4) . . .
83(5) . . .
79(5) . . .
68(5) . . .
69(4) . . .
74(5) . . .
72(4) . . .
73(5) . . .
73(5) . . .
70(4) . . .
82(5) . . .
73(5) . . .
85(5) . . .
73(5) . . .
58(4) . . .
69(4) . . .
70(4) . . .
87(5) . . .
72(5) . . .
69(5) . . .
64(4) . . .
75(5) . . .
81(5) . . .
75(5) . . .
70(4) . . .
73(4) . . .
69(5) . . .
75(5) . . .
74(5) . . .
80(5) . . .
74(4) . . .
71(4) . . .
69(4) . . .
67(4) . . .
66(4) . . .
66(4) . . .
72(5) . . .
69(5) . . .
66(4) . . .
76(5) . . .
78(5) . . .
75(5) . . .
69(5) . . .
73(5) . . .
66(4) . . .
69(4) . . .
78(5) . . .
75(5) . . .
75(5) . . .
82(5) . . .
89(5) . . .
84(5) . . .
72(5) . . .
72(5) . . .
77(5) . . .
78(5) . . .
61(4) . . .
79(5) . . .
77(5) . . .
81(5) . . .
71(4) . . .
66(4) . . .
76(5) . . .
79(5) . . .
74(4) . . .
67(4) . . .
71(5) . . .
73(5) . . .
67(4) . . .
70(4) . . .
77(5) . . .
86(5) . . .
81(5) . . .
66(4) . . .
77(5) . . .
77(5) . . .
76(5) . . .
74(5) . . .
77(5) . . .
70(4) . . .
76(5) . . .
75(5) . . .
71(5) . . .
71(4) . . .
78(5) . . .
87(5) . . .
80(5) . . .
70(4) . . .
81(5) . . .
74(5) . . .
70(4) . . .
75(5) . . .
78(5) . . .
72(4) . . .
91(5) . . .
75(5) . . .
68(5) . . .
58(4) . . .
66(4) . . .
80(5) . . .
70(5) . . .
85(5) . . .
76(5) . . .
74(5) . . .
69(4) . . .
70(5) . . .
68(5) . . .
67(4) . . .
79(5) . . .
73(4) . . .
62(4) . . .
79(5) . . .
67(4) . . .
71(4) . . .
71(4) . . .
85(5) . . .
82(5) . . .
82(5) . . .
81(5) . . .
78(5) . . .
65(4) . . .
80(5) . . .
73(5) . . .
73(4) . . .
71(4) . . .
82(5) . . .
67(4) . . .
70(5) . . .
66(4) . . .
84(5) . . .
85(5) . . .
87(5) . . .
70(4) . . .
88(5) . . .
76(5) . . .
80(5) . . .
64(4) . . .
82(5) . . .
65(4) . . .
80(5) . . .
72(5) . . .
79(5) . . .
73(4) . . .
78(5) . . .
75(5) . . .
72(5) . . .
81(5) . . .
78(5) . . .
66(4) . . .
68(4) . . .
81(5) . . .
79(5) . . .
73(5) . . .
69(4) . . .
82(5) . . .
81(5) . . .
78(5) . . .
58(4) . . .
71(4) . . .
63(4) . . .
72(5) . . .
66(4) . . .
71(4) . . .
68(4) . . .
73(5) . . .
79(5) . . .
69(4) . . .
90(5) . . .
75(5) . . .
61(4) . . .
66(4) . . .
73(5) . . .
62(4) . . .
76(5) . . .
84(5) . . .
66(4) . . .
81(5) . . .
71(4) . . .
68(4) . . .
71(5) . . .
71(5) . . .
76(5) . . .
75(4) . . .
70(4) . . .
74(5) . . .
80(5) . . .
79(5) . . .
68(4) . . .
72(5) . . .
68(4) . . .
68(4) . . .
66(4) . . .
77(5) . . .
76(5) . . .
70(5) . . .
74(5) . . .
74(4) . . .
72(4) . . .
59(4) . . .
66(5) . . .
82(5) . . .
73(4) . . .
77(5) . . .
64(4) . . .
75(5) . . .
84(5) . . .
66(4) . . .
66(4) . . .
77(5) . . .
73(5) . . .
73(5) . . .
68(4) . . .
73(4) . . .
79(5) . . .
70(5) . . .
65(4) . . .
81(5) . . .
70(4) . . .
68(4) . . .
67(4) . . .
62(4) . . .
66(4) . . .
72(4) . . .
72(5) . . .
72(5) . . .
60(4) . . .
72(4) . . .
67(4) . . .
79(5) . . .
70(4) . . .
75(5) . . .
62(4) . . .
73(5) . . .
67(4) . . .
67(4) . . .
69(4) . . .
64(4) . . .
65(4) . . .
69(4) . . .
70(4) . . .
71(4) . . .
77(5) . . .
74(5) . . .
62(4) . . .
69(4) . . .
70(4) . . .
72(4) . . .
67(4) . . .
67(5) . . .
72(5) . . .
71(4) . . .
76(5) . . .
67(4) . . .
68(5) . . .
77(5) . . .
68(4) . . .
71(4) . . .
78(5) . . .
71(5) . . .
73(5) . . .
69(4) . . .
75(5) . . .
66(4) . . .
68(5) . . .
79(5) . . .
63(4) . . .
72(4) . . .
64(4) . . .
77(5) . . .
83(5) . . .
83(5) . . .
68(4) . . .
61(4) . . .
70(5) . . .
81(5) . . .
78(5) . . .
68(4) . . .
70(4) . . .
76(5) . . .
73(5) . . .
73(4) . . .
66(4) . . .
64(4) . . .
63(4) . . .
63(4) . . .
71(4) . . .
76(5) . . .
66(4) . . .
67(4) . . .
78(5) . . .
68(4) . . .
71(5) . . .
75(5) . . .
76(5) . . .
70(4) . . .
71(4) . . .
64(4) . . .
62(4) . . .
70(4) . . .
79(5) . . .
73(5) . . .
81(5) . . .
77(5) . . .
78(5) . . .
67(4) . . .
64(4) . . .
76(5) . . .
63(4) . . .
76(5) . . .
66(4) . . .
63(4) . . .
78(5) . . .
75(5) . . .
71(4) . . .
73(4) . . .
78(5) . . .
67(4) . . .
69(5) . . .
79(5) . . .
70(4) . . .
73(4) . . .
75(5) . . .
68(5) . . .
71(5) . . .
63(4) . . .
74(4) . . .
73(5) . . .
70(5) . . .
72(4) . . .
76(5) . . .
68(4) . . .
67(4) . . .
63(4) . . .
75(5) . . .
61(4) . . .
70(4) . . .
72(5) . . .
68(4) . . .
72(5) . . .
69(4) . . .
70(4) . . .
88(5) . . .
88(5) . . .
68(4) . . .
70(4) . . .
73(5) . . .
70(5) . . .
76(5) . . .
70(4) . . .
71(4) . . .
77(5) . . .
71(5) . . .
71(5) . . .
71(4) . . .
75(5) . . .
64(4) . . .
64(4) . . .
80(5) . . .
57(4) . . .
79(5) . . .
85(5) . . .
65(4) . . .
71(4) . . .
72(4) . . .
62(4) . . .
72(5) . . .
64(4) . . .
73(5) . . .
69(4) . . .
57(4) . . .
78(5) . . .
63(4) . . .
70(5) . . .
81(5) . . .
72(4) . . .
75(4) . . .
72(4) . . .
76(5) . . .
67(4) . . .
75(5) . . .
72(5) . . .
68(5) . . .
74(5) . . .
64(4) . . .
75(5) . . .
70(5) . . .
76(5) . . .
82(5) . . .
81(5) . . .
76(5) . . .
76(5) . . .
73(5) . . .
67(4) . . .
77(5) . . .
73(5) . . .
66(5) . . .
70(5) . . .
79(5) . . .
73(4) . . .
73(5) . . .
70(4) . . .
74(5) . . .
88(5) . . .
65(4) . . .
76(5) . . .
77(5) . . .
61(4) . . .
66(4) . . .
66(4) . . .
79(5) . . .
80(5) . . .
73(5) . . .
72(4) . . .
80(5) . . .
72(4) . . .
81(5) . . .
77(5) . . .
78(5) . . .
65(4) . . .
69(4) . . .
77(5) . . .
62(4) . . .
80(5) . . .
74(4) . . .
81(5) . . .
69(4) . . .
65(5) . . .
75(5) . . .
69(4) . . .
76(5) . . .
67(4) . . .
73(5) . . .
77(5) . . .
76(5) . . .
71(5) . . .
73(5) . . .
78(5) . . .
83(5) . . .
76(5) . . .
73(5) . . .
75(5) . . .
60(4) . . .
76(5) . . .
72(5) . . .
64(4) . . .
83(5) . . .
86(5) . . .
76(5) . . .
72(5) . . .
58(4) . . .
77(5) . . .
69(4) . . .
67(4) . . .
71(5) . . .
67(5) . . .
70(4) . . .
75(5) . . .
75(5) . . .
75(5) . . .
79(5) . . .
79(5) . . .
75(4) . . .
68(4) . . .
71(5) . . .
73(5) . . .
69(4) . . .
76(5) . . .
78(5) . . .
69(4) . . .
75(5) . . .
84(5) . . .
86(5) . . .
78(5) . . .
87(5) . . .
75(5) . . .
78(5) . . .
81(5) . . .
78(5) . . .
67(4) . . .
78(5) . . .
64(4) . . .
74(4) . . .
62(4) . . .
65(4) . . .
70(5) . . .
79(5) . . .
77(5) . . .
71(5) . . .
72(4) . . .
79(5) . . .
69(4) . . .
78(5) . . .
69(5) . . .
69(4) . . .
72(5) . . .
71(4) . . .
83(5) . . .
70(5) . . .
70(5) . . .
79(5) . . .
79(5) . . .
78(5) . . .
79(5) . . .
68(4) . . .
81(5) . . .
79(5) . . .
73(4) . . .
72(5) . . .
73(5) . . .
70(5) . . .
63(4) . . .
62(4) . . .
76(5) . . .
80(5) . . .
68(4) . . .
84(5) . . .
81(5) . . .
72(5) . . .
85(5) . . .
80(5) . . .
72(4) . . .
67(4) . . .
78(5) . . .
79(5) . . .
71(5) . . .
69(4) . . .
78(5) . . .
70(4) . . .
76(5) . . .
70(4) . . .
75(4) . . .
78(5) . . .
76(5) . . .
68(4) . . .
62(4) . . .
69(4) . . .
64(4) . . .
71(5) . . .
69(5) . . .
72(4) . . .
73(5) . . .
67(5) . . .
80(5) . . .
68(4) . . .
74(4) . . .
66(4) . . .
81(5) . . .
73(5) . . .
82(5) . . .
77(5) . . .
67(4) . . .
80(5) . . .
79(5) . . .
73(4) . . .
83(5) . . .
69(4) . . .
78(5) . . .
80(5) . . .
72(5) . . .
74(5) . . .
64(4) . . .
70(5) . . .
78(5) . . .
72(4) . . .
74(4) . . .
66(4) . . .
66(5) . . .
73(5) . . .
62(4) . . .
81(5) . . .
72(5) . . .
70(5) . . .
64(4) . . .
86(5) . . .
66(4) . . .
73(5) . . .
71(4) . . .
69(4) . . .
76(5) . . .
68(4) . . .
71(5) . . .
72(5) . . .
76(5) . . .
81(5) . . .
74(5) . . .
68(4) . . .
68(4) . . .
80(5) . . .
67(4) . . .
74(4) . . .
71(5) . . .
71(5) . . .
67(4) . . .
76(5) . . .
70(4) . . .
70(4) . . .
71(4) . . .
75(5) . . .
75(4) . . .
71(4) . . .
67(4) . . .
64(5) . . .
80(5) . . .
64(4) . . .
73(4) . . .
68(4) . . .
77(5) . . .
73(5) . . .
58(4) . . .
75(5) . . .
83(5) . . .
66(4) . . .
62(4) . . .
70(4) . . .
67(4) . . .
67(4) . . .
71(5) . . .
62(4) . . .
69(4) . . .
69(4) . . .
73(5) . . .
61(4) . . .
80(5) . . .
80(5) . . .
76(5) . . .
77(5) . . .
67(4) . . .
73(5) . . .
77(5) . . .
59(4) . . .
73(5) . . .
61(4) . . .
68(4) . . .
77(5) . . .
76(4) . . .
74(5) . . .
68(4) . . .
65(4) . . .
67(4) . . .
57(4) . . .
67(4) . . .
71(5) . . .
65(4) . . .
74(4) . . .
76(5) . . .
69(5) . . .
72(5) . . .
77(5) . . .
71(4) . . .
75(5) . . .
68(5) . . .
70(4) . . .
59(4) . . .
71(4) . . .
65(4) . . .
70(5) . . .
71(5) . . .
73(5) . . .
66(4) . . .
81(5) . . .
74(5) . . .
81(5) . . .
60(4) . . .
73(4) . . .
76(5) . . .
74(5) . . .
71(4) . . .
79(5) . . .
76(5) . . .
64(4) . . .
77(5) . . .
65(4) . . .
58(4) . . .
74(5) . . .
79(5) . . .
76(5) . . .
69(5) . . .
79(5) . . .
80(5) . . .
65(4) . . .
81(5) . . .
75(5) . . .
70(4) . . .
68(5) . . .
59(4) . . .
56(4) . . .
69(4) . . .
72(4) . . .
71(5) . . .
55(4) . . .
77(5) . . .
67(4) . . .
72(4) . . .
69(5) . . .
74(5) . . .
75(5) . . .
75(5) . . .
71(4) . . .
74(5) . . .
70(4) . . .
66(4) . . .
63(4) . . .
64(4) . . .
77(5) . . .
78(5) . . .
70(4) . . .
74(5) . . .
60(4) . . .
76(5) . . .
71(5) . . .
64(4) . . .
70(4) . . .
66(4) . . .
82(5) . . .
66(5) . . .
72(5) . . .
62(4) . . .
73(4) . . .
72(5) . . .
81(5) . . .
70(5) . . .
70(4) . . .
71(5) . . .
70(4) . . .
67(4) . . .
62(4) . . .
67(4) . . .
85(5) . . .
81(5) . . .
74(5) . . .
66(4) . . .
65(4) . . .
62(4) . . .
65(4) . . .
76(5) . . .
70(4) . . .
76(5) . . .
76(5) . . .
77(5) . . .
75(5) . . .
65(4) . . .
79(5) . . .
77(5) . . .
73(5) . . .
64(4) . . .
67(4) . . .
79(5) . . .
79(5) . . .
66(4) . . .
85(5) . . .
69(4) . . .
68(4) . . .
80(5) . . .
74(5) . . .
68(4) . . .
65(4) . . .
69(4) . . .
72(5) . . .
81(5) . . .
71(4) . . .
75(5) . . .
69(4) . . .
72(5) . . .
61(4) . . .
75(5) . . .
68(4) . . .
78(5) . . .
70(5) . . .
60(4) . . .
70(4) . . .
65(4) . . .
68(4) . . .
78(5) . . .
75(5) . . .
67(4) . . .
78(5) . . .
67(4) . . .
66(4) . . .
78(5) . . .
67(4) . . .
58(4) . . .
65(4) . . .
62(4) . . .
71(5) . . .
65(4) . . .
60(4) . . .
73(4) . . .
70(5) . . .
75(5) . . .
69(4) . . .
74(4) . . .
68(4) . . .
66(4) . . .
68(4) . . .
71(4) . . .
62(4) . . .
61(4) . . .
72(5) . . .
76(5) . . .
62(4) . . .
67(4) . . .
61(4) . . .
63(5) . . .
69(5) . . .
71(4) . . .
77(5) . . .
66(5) . . .
62(5) . . .
66(4) . . .
74(4) . . .
66(4) . . .
67(4) . . .
64(4) . . .
67(4) . . .
65(4) . . .
78(5) . . .
64(4) . . .
68(4) . . .
67(5) . . .
66(4) . . .
64(4) . . .
57(4) . . .
63(4) . . .
61(4) . . .
61(4) . . .
59(4) . . .
65(5) . . .
73(5) . . .
63(4) . . .
73(4) . . .
73(5) . . .
68(4) . . .
71(5) . . .
68(4) . . .
67(4) . . .
63(4) . . .
73(5) . . .
73(5) . . .
76(4) . . .
69(4) . . .
59(4) . . .
64(4) . . .
69(5) . . .
73(5) . . .
77(5) . . .
71(5) . . .
60(4) . . .
63(4) . . .
68(4) . . .
78(5) . . .
75(5) . . .
75(5) . . .
69(5) . . .
57(4) . . .
68(4) . . .
65(4) . . .
78(5) . . .
63(4) . . .
63(4) . . .
72(4) . . .
68(5) . . .
67(5) . . .
67(5) . . .
68(4) . . .
68(4) . . .
75(5) . . .
70(5) . . .
73(5) . . .
79(5) . . .
68(4) . . .
57(4) . . .
62(4) . . .
77(5) . . .
61(4) . . .
75(5) . . .
62(4) . . .
68(5) . . .
72(4) . . .
67(4) . . .
72(4) . . .
67(4) . . .
73(5) . . .
71(5) . . .
73(4) . . .
72(5) . . .
71(4) . . .
78(5) . . .
72(4) . . .
59(4) . . .
68(4) . . .
66(4) . . .
76(5) . . .
68(4) . . .
70(4) . . .
65(4) . . .
61(4) . . .
68(4) . . .
73(5) . . .
66(4) . . .
76(5) . . .
67(5) . . .
66(4) . . .
63(4) . . .
71(4) . . .
62(4) . . .
76(5) . . .
80(5) . . .
72(5) . . .
78(5) . . .
79(5) . . .
71(5) . . .
82(5) . . .
76(4) . . .
75(5) . . .
68(4) . . .
70(5) . . .
74(5) . . .
81(5) . . .
67(4) . . .
67(5) . . .
72(5) . . .
84(5) . . .
64(4) . . .
54(4) . . .
71(5) . . .
73(5) . . .
66(4) . . .
73(4) . . .
63(4) . . .
55(4) . . .
67(4) . . .
75(5) . . .
65(4) . . .
65(4) . . .
74(5) . . .
85(5) . . .
70(4) . . .
68(4) . . .
74(5) . . .
78(5) . . .
76(5) . . .
79(5) . . .
71(4) . . .
65(5) . . .
72(5) . . .
71(5) . . .
79(5) . . .
76(5) . . .
70(4) . . .
66(4) . . .
64(4) . . .
59(4) . . .
53(4) . . .
61(4) . . .
78(5) . . .
75(5) . . .
69(4) . . .
66(4) . . .
72(5) . . .
74(5) . . .
66(4) . . .
67(4) . . .
74(4) . . .
63(4) . . .
89(6) . . .
68(4) . . .
69(4) . . .
67(4) . . .
65(4) . . .
72(5) . . .
65(4) . . .
59(4) . . .
67(4) . . .
61(4) . . .
69(5) . . .
65(4) . . .
85(5) . . .
74(5) . . .
75(5) . . .
70(5) . . .
65(4) . . .
66(4) . . .
74(5) . . .
77(5) . . .
77(5) . . .
76(5) . . .
70(4) . . .
75(5) . . .
73(5) . . .
78(5) . . .
70(4) . . .
64(4) . . .
64(4) . . .
77(5) . . .
74(5) . . .
65(4) . . .
74(5) . . .
62(4) . . .
58(4) . . .
64(4) . . .
65(4) . . .
73(5) . . .
68(4) . . .
59(4) . . .
61(4) . . .
70(4) . . .
78(5) . . .
80(5) . . .
67(4) . . .
67(4) . . .
81(5) . . .
63(4) . . .
62(4) . . .
77(5) . . .
69(4) . . .
65(4) . . .
82(5) . . .
64(4) . . .
70(4) . . .
65(4) . . .
70(4) . . .
66(4) . . .
60(4) . . .
71(4) . . .
79(5) . . .
90(5) . . .
60(4) . . .
78(5) . . .
70(4) . . .
74(5) . . .
79(5) . . .
73(5) . . .
70(4) . . .
65(4) . . .
72(5) . . .
72(5) . . .
62(4) . . .
63(4) . . .
66(4) . . .
69(5) . . .
67(4) . . .
80(5) . . .
73(5) . . .
66(4) . . .
65(4) . . .
74(5) . . .
69(4) . . .
72(4) . . .
77(5) . . .
73(5) . . .
75(5) . . .
73(5) . . .
66(4) . . .
64(4) . . .
76(5) . . .
75(5) . . .
86(5) . . .
67(4) . . .
73(5) . . .
63(4) . . .
62(4) . . .
75(5) . . .
76(5) . . .
69(4) . . .
68(4) . . .
66(5) . . .
64(4) . . .
78(5) . . .
58(4) . . .
63(4) . . .
74(5) . . .
69(4) . . .
61(4) . . .
79(5) . . .
81(5) . . .
77(5) . . .
76(5) . . .
63(4) . . .
77(5) . . .
72(5) . . .
70(4) . . .
65(4) . . .
66(4) . . .
61(4) . . .
67(4) . . .
71(5) . . .
78(5) . . .
70(4) . . .
73(5) . . .
68(4) . . .
76(5) . . .
67(4) . . .
58(4) . . .
69(4) . . .
72(5) . . .
70(4) . . .
63(4) . . .
68(4) . . .
61(4) . . .
67(4) . . .
77(5) . . .
66(4) . . .
69(4) . . .
75(5) . . .
68(4) . . .
79(5) . . .
68(4) . . .
70(5) . . .
76(5) . . .
65(4) . . .
72(5) . . .
66(4) . . .
74(4) . . .
59(4) . . .
63(4) . . .
66(4) . . .
62(4) . . .
72(4) . . .
72(4) . . .
70(5) . . .
68(4) . . .
67(4) . . .
60(4) . . .
79(5) . . .
66(4) . . .
68(4) . . .
70(4) . . .
66(4) . . .
68(4) . . .
63(4) . . .
65(4) . . .
68(4) . . .
70(4) . . .
74(5) . . .
72(5) . . .
69(4) . . .
73(4) . . .
65(4) . . .
82(5) . . .
70(5) . . .
62(4) . . .
65(4) . . .
69(5) . . .
58(4) . . .
57(4) . . .
71(4) . . .
68(4) . . .
67(4) . . .
68(5) . . .
76(5) . . .
75(5) . . .
66(4) . . .
74(5) . . .
65(4) . . .
75(5) . . .
70(4) . . .
54(4) . . .
65(4) . . .
58(4) . . .
70(4) . . .
69(4) . . .
69(4) . . .
72(5) . . .
62(4) . . .
64(4) . . .
64(4) . . .
55(4) . . .
74(5) . . .
70(5) . . .
70(5) . . .
75(5) . . .
66(4) . . .
65(4) . . .
71(5) . . .
75(5) . . .
58(4) . . .
61(4) . . .
66(4) . . .
59(4) . . .
63(4) . . .
58(4) . . .
77(5) . . .
66(5) . . .
71(5) . . .
66(4) . . .
70(4) . . .
67(4) . . .
69(5) . . .
69(4) . . .
66(4) . . .
71(4) . . .
81(5) . . .
66(4) . . .
73(5) . . .
79(5) . . .
71(4) . . .
76(5) . . .
70(4) . . .
73(5) . . .
60(4) . . .
70(4) . . .
73(5) . . .
74(5) . . .
78(5) . . .
67(4) . . .
71(4) . . .
77(5) . . .
82(5) . . .
68(4) . . .
71(4) . . .
62(4) . . .
73(5) . . .
70(5) . . .
77(5) . . .
86(5) . . .
80(5) . . .
58(4) . . .
74(5) . . .
68(4) . . .
63(4) . . .
66(4) . . .
66(4) . . .
56(4) . . .
69(4) . . .
68(4) . . .
81(5) . . .
79(5) . . .
73(5) . . .
74(5) . . .
83(5) . . .
68(4) . . .
85(5) . . .
72(5) . . .
65(4) . . .
80(5) . . .
72(5) . . .
72(5) . . .
73(5) . . .
79(5) . . .
68(4) . . .
68(4) . . .
59(4) . . .
66(4) . . .
73(5) . . .
74(4) . . .
72(5) . . .
70(4) . . .
67(4) . . .
65(4) . . .
65(4) . . .
61(4) . . .
74(5) . . .
72(5) . . .
61(4) . . .
71(4) . . .
72(5) . . .
69(5) . . .
63(4) . . .
65(4) . . .
74(4) . . .
76(5) . . .
61(4) . . .
70(5) . . .
59(4) . . .
66(4) . . .
69(4) . . .
70(5) . . .
70(5) . . .
74(4) . . .
73(4) . . .
70(4) . . .
71(5) . . .
72(5) . . .
56(4) . . .
68(4) . . .
65(4) . . .
64(4) . . .
69(5) . . .
69(4) . . .
68(4) . . .
63(4) . . .
65(4) . . .
75(5) . . .
75(4) . . .
72(5) . . .
69(4) . . .
71(5) . . .
76(5) . . .
68(4) . . .
64(4) . . .
69(5) . . .
63(4) . . .
74(4) . . .
83(5) . . .
71(5) . . .
70(4) . . .
61(4) . . .
69(4) . . .
66(4) . . .
69(5) . . .
69(5) . . .
64(4) . . .
67(4) . . .
69(4) . . .
59(4) . . .
70(5) . . .
63(4) . . .
68(4) . . .
65(4) . . .
68(4) . . .
54(4) . . .
63(4) . . .
63(4) . . .
73(4) . . .
77(5) . . .
68(5) . . .
70(5) . . .
74(4) . . .
73(4) . . .
73(5) . . .
73(5) . . .
67(4) . . .
76(5) . . .
79(5) . . .
65(4) . . .
61(4) . . .
71(5) . . .
62(4) . . .
56(4) . . .
60(4) . . .
64(4) . . .
70(5) . . .
72(4) . . .
62(4) . . .
68(4) . . .
67(4) . . .
59(4) . . .
67(4) . . .
60(4) . . .
72(5) . . .
65(4) . . .
66(4) . . .
67(4) . . .
64(4) . . .
67(5) . . .
68(4) . . .
70(4) . . .
67(4) . . .
63(4) . . .
66(4) . . .
69(5) . . .
65(4) . . .
71(4) . . .
65(4) . . .
69(5) . . .
73(5) . . .
58(4) . . .
67(4) . . .
60(4) . . .
65(5) . . .
67(4) . . .
65(4) . . .
64(4) . . .
73(5) . . .
60(4) . . .
65(4) . . .
63(4) . . .
58(4) . . .
67(5) . . .
70(5) . . .
62(4) . . .
64(4) . . .
71(4) . . .
62(4) . . .
65(5) . . .
63(4) . . .
76(5) . . .
64(4) . . .
59(4) . . .
70(5) . . .
68(4) . . .
66(4) . . .
60(4) . . .
57(4) . . .
62(4) . . .
61(4) . . .
69(4) . . .
79(5) . . .
69(5) . . .
57(4) . . .
73(4) . . .
69(4) . . .
67(5) . . .
55(4) . . .
73(5) . . .
66(4) . . .
68(4) . . .
63(4) . . .
74(5) . . .
62(4) . . .
60(4) . . .
67(4) . . .
66(4) . . .
64(5) . . .
70(5) . . .
59(4) . . .
69(4) . . .
76(5) . . .
70(4) . . .
81(5) . . .
71(4) . . .
78(5) . . .
71(5) . . .
61(4) . . .
70(5) . . .
67(4) . . .
77(5) . . .
73(5) . . .
69(5) . . .
82(5) . . .
77(5) . . .
64(4) . . .
77(5) . . .
67(4) . . .
64(4) . . .
68(4) . . .
67(4) . . .
68(5) . . .
64(4) . . .
66(4) . . .
79(5) . . .
72(4) . . .
67(4) . . .
71(4) . . .
74(4) . . .
75(5) . . .
71(4) . . .
65(4) . . .
72(5) . . .
68(4) . . .
79(5) . . .
67(4) . . .
76(5) . . .
69(4) . . .
66(4) . . .
71(4) . . .
58(4) . . .
67(5) . . .
54(4) . . .
71(4) . . .
73(4) . . .
66(4) . . .
79(5) . . .
65(4) . . .
73(4) . . .
70(4) . . .
76(5) . . .
74(5) . . .
73(5) . . .
84(5) . . .
71(4) . . .
69(4) . . .
69(5) . . .
63(4) . . .
65(4) . . .
66(4) . . .
66(4) . . .
58(4) . . .
71(5) . . .
74(5) . . .
70(4) . . .
73(5) . . .
76(5) . . .
74(5) . . .
72(4) . . .
74(5) . . .
64(4) . . .
75(5) . . .
74(5) . . .
78(5) . . .
71(4) . . .
71(4) . . .
73(5) . . .
69(5) . . .
67(4) . . .
85(5) . . .
72(5) . . .
69(4) . . .
68(4) . . .
69(4) . . .
67(4) . . .
72(5) . . .
69(5) . . .
59(4) . . .
69(4) . . .
70(5) . . .
69(5) . . .
67(5) . . .
58(4) . . .
66(4) . . .
61(4) . . .
58(4) . . .
67(4) . . .
60(4) . . .
63(4) . . .
75(5) . . .
81(5) . . .
82(5) . . .
72(4) . . .
56(4) . . .
65(4) . . .
73(5) . . .
65(4) . . .
65(4) . . .
72(4) . . .
66(4) . . .
68(5) . . .
63(4) . . .
71(4) . . .
72(4) . . .
68(4) . . .
72(5) . . .
70(4) . . .
69(4) . . .
77(5) . . .
64(4) . . .
62(4) . . .
64(4) . . .
64(4) . . .
78(5) . . .
55(4) . . .
68(5) . . .
67(4) . . .
67(4) . . .
56(4) . . .
66(4) . . .
74(5) . . .
74(5) . . .
62(4) . . .
66(4) . . .
62(4) . . .
71(4) . . .
79(5) . . .
72(4) . . .
61(4) . . .
66(4) . . .
71(4) . . .
65(4) . . .
62(4) . . .
72(5) . . .
68(4) . . .
75(5) . . .
63(4) . . .
68(4) . . .
69(5) . . .
78(5) . . .
72(5) . . .
67(4) . . .
65(4) . . .
62(4) . . .
64(4) . . .
63(4) . . .
79(5) . . .
60(4) . . .
65(4) . . .
73(5) . . .
71(5) . . .
72(4) . . .
72(4) . . .
53(4) . . .
64(4) . . .
69(5) . . .
68(4) . . .
61(4) . . .
74(5) . . .
60(4) . . .
65(4) . . .
72(4) . . .
65(4) . . .
66(4) . . .
67(5) . . .
57(4) . . .
81(5) . . .
68(4) . . .
74(5) . . .
68(4) . . .
71(4) . . .
69(4) . . .
76(5) . . .
70(5) . . .
62(4) . . .
65(4) . . .
71(4) . . .
70(5) . . .
76(5) . . .
69(4) . . .
63(4) . . .
65(4) . . .
73(5) . . .
69(5) . . .
75(5) . . .
69(4) . . .
65(4) . . .
65(4) . . .
59(4) . . .
56(4) . . .
63(4) . . .
77(5) . . .
55(4) . . .
73(5) . . .
67(4) . . .
72(4) . . .
56(4) . . .
53(4) . . .
64(5) . . .
73(5) . . .
63(4) . . .
78(5) . . .
75(5) . . .
64(4) . . .
64(4) . . .
64(4) . . .
66(4) . . .
62(4) . . .
72(5) . . .
68(5) . . .
66(4) . . .
69(4) . . .
67(4) . . .
67(5) . . .
64(4) . . .
63(4) . . .
81(5) . . .
64(4) . . .
70(5) . . .
73(5) . . .
71(4) . . .
67(4) . . .
70(5) . . .
65(5) . . .
75(5) . . .
77(5) . . .
70(4) . . .
74(5) . . .
66(4) . . .
61(4) . . .
54(4) . . .
64(4) . . .
66(4) . . .
60(4) . . .
74(5) . . .
66(4) . . .
53(4) . . .
64(4) . . .
57(4) . . .
70(4) . . .
69(4) . . .
68(4) . . .
84(5) . . .
65(4) . . .
53(4) . . .
69(4) . . .
65(4) . . .
58(4) . . .
63(4) . . .
66(4) . . .
72(4) . . .
59(4) . . .
67(5) . . .
72(5) . . .
68(4) . . .
68(4) . . .
74(5) . . .
66(4) . . .
62(4) . . .
60(4) . . .
63(4) . . .
67(4) . . .
58(4) . . .
69(5) . . .
70(4) . . .
73(5) . . .
73(5) . . .
66(4) . . .
55(4) . . .
61(4) . . .
69(5) . . .
63(4) . . .
67(4) . . .
64(4) . . .
72(4) . . .
67(4) . . .
61(4) . . .
64(4) . . .
65(4) . . .
61(4) . . .
65(4) . . .
62(4) . . .
58(4) . . .
65(4) . . .
82(5) . . .
59(4) . . .
60(4) . . .
72(5) . . .
67(4) . . .
74(4) . . .
63(4) . . .
65(4) . . .
68(4) . . .
69(4) . . .
70(4) . . .
64(4) . . .
62(4) . . .
77(5) . . .
72(4) . . .
56(4) . . .
69(5) . . .
64(4) . . .
71(5) . . .
69(4) . . .
59(4) . . .
61(4) . . .
66(5) . . .
66(4) . . .
62(4) . . .
69(4) . . .
67(4) . . .
66(5) . . .
60(4) . . .
74(5) . . .
71(4) . . .
63(4) . . .
63(4) . . .
58(4) . . .
53(4) . . .
62(4) . . .
67(4) . . .
63(4) . . .
56(4) . . .
63(4) . . .
72(5) . . .
64(4) . . .
60(4) . . .
63(4) . . .
60(4) . . .
69(4) . . .
70(4) . . .
63(4) . . .
56(4) . . .
71(4) . . .
69(4) . . .
62(4) . . .
65(4) . . .
61(4) . . .
63(4) . . .
70(5) . . .
65(5) . . .
68(5) . . .
60(4) . . .
66(4) . . .
62(4) . . .
65(5) . . .
64(4) . . .
62(4) . . .
59(4) . . .
53(4) . . .
74(5) . . .
57(4) . . .
80(5) . . .
68(4) . . .
67(4) . . .
53(4) . . .
71(5) . . .
72(4) . . .
58(4) . . .
67(4) . . .
61(4) . . .
71(4) . . .
70(4) . . .
70(4) . . .
59(4) . . .
61(4) . . .
63(4) . . .
80(5) . . .
69(4) . . .
72(5) . . .
75(5) . . .
64(4) . . .
58(4) . . .
68(4) . . .
59(4) . . .
57(4) . . .
63(4) . . .
63(4) . . .
66(4) . . .
58(4) . . .
57(4) . . .
75(5) . . .
61(4) . . .
61(4) . . .
60(4) . . .
65(4) . . .
72(5) . . .
56(4) . . .
68(5) . . .
65(5) . . .
71(5) . . .
70(4) . . .
65(4) . . .
68(4) . . .
70(5) . . .
72(5) . . .
53(4) . . .
67(4) . . .
72(4) . . .
63(4) . . .
61(4) . . .
57(4) . . .
66(4) . . .
63(4) . . .
62(4) . . .
81(5) . . .
65(4) . . .
74(4) . . .
63(4) . . .
71(5) . . .
63(4) . . .
63(4) . . .
72(4) . . .
77(5) . . .
68(5) . . .
60(4) . . .
66(4) . . .
57(4) . . .
54(4) . . .
65(4) . . .
67(4) . . .
56(4) . . .
67(4) . . .
71(5) . . .
64(4) . . .
54(4) . . .
56(4) . . .
68(4) . . .
68(5) . . .
57(4) . . .
71(4) . . .
50(4) . . .
73(4) . . .
65(4) . . .
64(4) . . .
47(4) . . .
68(4) . . .
66(4) . . .
70(5) . . .
59(4) . . .
65(4) . . .
75(5) . . .
65(4) . . .
68(5) . . .
64(4) . . .
59(4) . . .
68(4) . . .
64(4) . . .
67(4) . . .
63(4) . . .
69(4) . . .
63(4) . . .
63(4) . . .
77(5) . . .
58(4) . . .
64(4) . . .
77(5) . . .
71(5) . . .
61(4) . . .
69(4) . . .
53(4) . . .
61(4) . . .
65(4) . . .
67(5) . . .
73(5) . . .
69(4) . . .
56(4) . . .
60(4) . . .
68(4) . . .
75(5) . . .
64(4) . . .
68(5) . . .
64(4) . . .
73(5) . . .
68(4) . . .
76(5) . . .
58(4) . . .
65(4) . . .
66(4) . . .
60(4) . . .
59(4) . . .
73(5) . . .
58(4) . . .
65(4) . . .
70(5) . . .
52(4) . . .
65(4) . . .
75(5) . . .
65(5) . . .
56(4) . . .
67(4) . . .
59(4) . . .
71(5) . . .
71(5) . . .
70(4) . . .
62(4) . . .
66(4) . . .
57(4) . . .
67(4) . . .
72(4) . . .
63(4) . . .
52(4) . . .
64(4) . . .
68(5) . . .
67(4) . . .
62(4) . . .
72(4) . . .
62(4) . . .
60(4) . . .
54(4) . . .
67(4) . . .
58(4) . . .
66(4) . . .
58(4) . . .
63(4) . . .
60(4) . . .
70(5) . . .
64(4) . . .
63(4) . . .
62(4) . . .
62(4) . . .
74(5) . . .
70(5) . . .
57(4) . . .
69(4) . . .
70(4) . . .
63(4) . . .
64(4) . . .
60(4) . . .
69(4) . . .
61(4) . . .
61(4) . . .
58(4) . . .
72(5) . . .
62(4) . . .
73(5) . . .
65(4) . . .
72(5) . . .
68(4) . . .
62(4) . . .
60(4) . . .
67(5) . . .
68(4) . . .
61(4) . . .
70(4) . . .
67(5) . . .
65(4) . . .
68(5) . . .
69(4) . . .
62(4) . . .
68(4) . . .
68(5) . . .
65(4) . . .
58(4) . . .
58(4) . . .
56(4) . . .
64(4) . . .
71(5) . . .
67(4) . . .
59(4) . . .
57(4) . . .
58(4) . . .
55(4) . . .
66(4) . . .
68(4) . . .
63(4) . . .
68(5) . . .
64(4) . . .
67(4) . . .
72(4) . . .
55(4) . . .
60(4) . . .
70(5) . . .
66(4) . . .
63(4) . . .
60(4) . . .
76(5) . . .
65(4) . . .
60(4) . . .
54(4) . . .
61(4) . . .
61(4) . . .
65(4) . . .
65(4) . . .
66(4) . . .
73(5) . . .
61(4) . . .
65(5) . . .
73(4) . . .
67(4) . . .
74(5) . . .
62(4) . . .
56(4) . . .
63(4) . . .
61(4) . . .
56(4) . . .
54(4) . . .
70(4) . . .
60(4) . . .
60(4) . . .
54(4) . . .
69(5) . . .
59(4) . . .
60(4) . . .
76(5) . . .
54(4) . . .
60(4) . . .
61(4) . . .
66(4) . . .
62(4) . . .
59(4) . . .
61(4) . . .
65(4) . . .
63(4) . . .
61(4) . . .
73(5) . . .
66(4) . . .
70(4) . . .
56(4) . . .
69(5) . . .
64(4) . . .
74(5) . . .
64(4) . . .
68(4) . . .
65(4) . . .
71(5) . . .
66(4) . . .
68(4) . . .
56(4) . . .
63(4) . . .
67(5) . . .
64(4) . . .
68(4) . . .
62(4) . . .
73(5) . . .
63(4) . . .
64(4) . . .
59(4) . . .
53(4) . . .
59(4) . . .
64(4) . . .
67(4) . . .
66(4) . . .
72(5) . . .
60(4) . . .
64(4) . . .
66(4) . . .
61(4) . . .
61(4) . . .
53(4) . . .
73(5) . . .
73(4) . . .
63(4) . . .
64(4) . . .
48(4) . . .
65(4) . . .
72(4) . . .
66(4) . . .
71(4) . . .
74(5) . . .
60(4) . . .
58(4) . . .
76(5) . . .
54(4) . . .
65(5) . . .
66(4) . . .
69(4) . . .
71(5) . . .
64(4) . . .
56(4) . . .
67(5) . . .
68(4) . . .
69(4) . . .
68(4) . . .
71(5) . . .
62(4) . . .
65(4) . . .
61(4) . . .
63(4) . . .
61(4) . . .
71(5) . . .
61(4) . . .
66(4) . . .
70(5) . . .
64(4) . . .
59(4) . . .
57(4) . . .
58(4) . . .
71(5) . . .
77(5) . . .
60(4) . . .
52(4) . . .
59(4) . . .
68(5) . . .
67(4) . . .
64(4) . . .
65(4) . . .
66(4) . . .
62(4) . . .
62(4) . . .
61(4) . . .
72(4) . . .
57(4) . . .
53(4) . . .
63(4) . . .
55(4) . . .
60(4) . . .
57(4) . . .
70(5) . . .
69(5) . . .
69(4) . . .
71(4) . . .
62(4) . . .
62(4) . . .
63(4) . . .
64(4) . . .
63(4) . . .
63(4) . . .
68(5) . . .
65(4) . . .
71(4) . . .
60(4) . . .
71(5) . . .
71(5) . . .
58(4) . . .
62(4) . . .
63(4) . . .
66(4) . . .
58(4) . . .
67(4) . . .
67(4) . . .
69(4) . . .
67(4) . . .
66(4) . . .
62(4) . . .
68(4) . . .
60(4) . . .
61(4) . . .
57(4) . . .
65(4) . . .
63(4) . . .
64(4) . . .
48(4) . . .
64(4) . . .
66(4) . . .
57(4) . . .
65(4) . . .
69(5) . . .
55(4) . . .
65(4) . . .
63(4) . . .
67(4) . . .
53(4) . . .
64(4) . . .
61(4) . . .
66(4) . . .
53(4) . . .
69(5) . . .
65(4) . . .
67(4) . . .
70(4) . . .
60(4) . . .
68(5) . . .
63(4) . . .
70(4) . . .
75(5) . . .
68(4) . . .
65(4) . . .
76(5) . . .
57(4) . . .
59(4) . . .
59(4) . . .
55(4) . . .
72(5) . . .
55(4) . . .
57(4) . . .
56(4) . . .
54(4) . . .
62(4) . . .
79(5) . . .
67(4) . . .
61(4) . . .
77(5) . . .
75(4) . . .
74(4) . . .
54(4) . . .
57(4) . . .
58(4) . . .
62(4) . . .
64(4) . . .
64(4) . . .
62(4) . . .
68(4) . . .
62(4) . . .
74(4) . . .
72(5) . . .
59(4) . . .
61(4) . . .
69(4) . . .
62(4) . . .
62(4) . . .
59(4) . . .
66(5) . . .
58(4) . . .
69(4) . . .
55(4) . . .
65(5) . . .
66(4) . . .
52(4) . . .
55(4) . . .
66(4) . . .
61(4) . . .
71(5) . . .
60(4) . . .
58(4) . . .
58(4) . . .
57(4) . . .
66(5) . . .
60(4) . . .
64(4) . . .
56(4) . . .
62(4) . . .
57(4) . . .
64(4) . . .
64(4) . . .
56(4) . . .
72(5) . . .
57(4) . . .
72(4) . . .
71(5) . . .
63(4) . . .
68(4) . . .
69(4) . . .
71(4) . . .
60(4) . . .
63(4) . . .
62(4) . . .
45(4) . . .
57(4) . . .
63(4) . . .
64(4) . . .
56(4) . . .
68(4) . . .
69(4) . . .
70(5) . . .
66(5) . . .
63(4) . . .
59(4) . . .
68(4) . . .
66(5) . . .
59(4) . . .
58(4) . . .
58(4) . . .
60(4) . . .
62(4) . . .
69(5) . . .
65(4) . . .
69(4) . . .
67(4) . . .
70(5) . . .
59(4) . . .
60(4) . . .
56(4) . . .
59(4) . . .
68(5) . . .
71(5) . . .
70(4) . . .
63(4) . . .
66(4) . . .
58(4) . . .
67(4) . . .
54(4) . . .
57(4) . . .
57(4) . . .
75(5) . . .
68(4) . . .
67(4) . . .
67(4) . . .
64(4) . . .
66(5) . . .
67(5) . . .
71(5) . . .
62(4) . . .
64(4) . . .
78(5) . . .
64(4) . . .
63(4) . . .
67(4) . . .
54(4) . . .
67(4) . . .
56(4) . . .
58(4) . . .
56(4) . . .
67(5) . . .
61(4) . . .
49(4) . . .
76(4) . . .
71(4) . . .
78(5) . . .
59(4) . . .
53(4) . . .
50(4) . . .
52(4) . . .
53(4) . . .
64(4) . . .
67(4) . . .
45(4) . . .
48(4) . . .
67(4) . . .
64(4) . . .
80(5) . . .
68(4) . . .
65(4) . . .
60(4) . . .
56(4) . . .
66(4) . . .
63(4) . . .
51(4) . . .
57(4) . . .
63(4) . . .
64(4) . . .
60(4) . . .
70(4) . . .
71(5) . . .
60(4) . . .
73(5) . . .
58(4) . . .
59(4) . . .
65(4) . . .
62(4) . . .
59(4) . . .
69(4) . . .
63(4) . . .
59(4) . . .
65(4) . . .
66(4) . . .
62(4) . . .
72(5) . . .
60(4) . . .
61(4) . . .
58(4) . . .
59(4) . . .
57(4) . . .
57(4) . . .
55(4) . . .
62(4) . . .
65(4) . . .
61(4) . . .
61(4) . . .
62(4) . . .
66(4) . . .
65(4) . . .
60(4) . . .
75(5) . . .
67(4) . . .
62(4) . . .
74(5) . . .
54(4) . . .
69(5) . . .
63(4) . . .
67(4) . . .
55(4) . . .
66(4) . . .
61(4) . . .
48(4) . . .
65(4) . . .
54(4) . . .
68(5) . . .
57(4) . . .
54(4) . . .
56(4) . . .
67(4) . . .
73(5) . . .
58(4) . . .
60(4) . . .
59(4) . . .
50(4) . . .
65(4) . . .
61(4) . . .
64(4) . . .
60(4) . . .
53(4) . . .
56(4) . . .
60(4) . . .
64(4) . . .
56(4) . . .
66(4) . . .
55(4) . . .
67(5) . . .
57(4) . . .
58(4) . . .
58(4) . . .
65(4) . . .
62(4) . . .
53(4) . . .
58(4) . . .
63(4) . . .
55(4) . . .
60(4) . . .
66(4) . . .
60(4) . . .
69(4) . . .
66(5) . . .
61(4) . . .
61(4) . . .
61(4) . . .
64(4) . . .
67(5) . . .
63(4) . . .
63(4) . . .
68(4) . . .
64(4) . . .
60(4) . . .
68(4) . . .
69(4) . . .
60(4) . . .
56(4) . . .
58(4) . . .
57(4) . . .
64(4) . . .
63(4) . . .
61(4) . . .
69(5) . . .
66(4) . . .
58(4) . . .
63(4) . . .
65(4) . . .
69(5) . . .
55(4) . . .
57(4) . . .
62(4) . . .
55(4) . . .
61(4) . . .
66(4) . . .
71(4) . . .
62(4) . . .
55(4) . . .
59(4) . . .
64(4) . . .
54(4) . . .
64(4) . . .
64(4) . . .
66(4) . . .
66(4) . . .
62(4) . . .
76(5) . . .
65(5) . . .
56(4) . . .
57(4) . . .
61(4) . . .
59(4) . . .
67(5) . . .
56(4) . . .
67(4) . . .
64(4) . . .
63(4) . . .
61(4) . . .
66(4) . . .
63(4) . . .
70(4) . . .
52(4) . . .
58(4) . . .
59(4) . . .
62(4) . . .
64(4) . . .
66(4) . . .
57(4) . . .
60(4) . . .
57(4) . . .
54(4) . . .
66(4) . . .
66(4) . . .
68(4) . . .
69(4) . . .
64(4) . . .
50(4) . . .
63(5) . . .
55(4) . . .
70(4) . . .
62(4) . . .
61(4) . . .
67(4) . . .
58(4) . . .
56(4) . . .
58(4) . . .
65(4) . . .
62(4) . . .
64(4) . . .
60(4) . . .
57(4) . . .
60(4) . . .
61(4) . . .
59(4) . . .
61(4) . . .
56(4) . . .
54(4) . . .
64(5) . . .
63(4) . . .
58(4) . . .
49(4) . . .
63(4) . . .
54(4) . . .
64(4) . . .
54(4) . . .
64(5) . . .
63(4) . . .
68(4) . . .
60(4) . . .
60(4) . . .
69(5) . . .
66(5) . . .
54(4) . . .
62(4) . . .
57(4) . . .
71(5) . . .
65(4) . . .
55(4) . . .
59(4) . . .
64(4) . . .
63(5) . . .
56(4) . . .
61(4) . . .
59(4) . . .
55(4) . . .
59(4) . . .
63(4) . . .
56(4) . . .
67(4) . . .
63(4) . . .
64(4) . . .
55(4) . . .
56(4) . . .
67(4) . . .
69(4) . . .
60(4) . . .
61(4) . . .
66(4) . . .
60(4) . . .
64(4) . . .
57(4) . . .
64(4) . . .
57(4) . . .
55(4) . . .
61(4) . . .
59(4) . . .
70(5) . . .
53(4) . . .
55(4) . . .
64(4) . . .
64(4) . . .
58(4) . . .
67(4) . . .
60(4) . . .
62(4) . . .
56(4) . . .
68(5) . . .
50(4) . . .
64(4) . . .
62(4) . . .
54(4) . . .
60(4) . . .
58(4) . . .
62(4) . . .
53(4) . . .
63(5) . . .
55(4) . . .
58(4) . . .
61(4) . . .
60(4) . . .
59(4) . . .
64(4) . . .
56(4) . . .
64(4) . . .
49(4) . . .
68(5) . . .
62(4) . . .
63(4) . . .
78(5) . . .
59(4) . . .
51(4) . . .
69(5) . . .
71(4) . . .
60(4) . . .
55(4) . . .
59(4) . . .
65(4) . . .
69(4) . . .
63(4) . . .
61(4) . . .
60(4) . . .
62(4) . . .
68(4) . . .
69(5) . . .
61(4) . . .
60(4) . . .
61(4) . . .
71(4) . . .
70(5) . . .
59(4) . . .
56(4) . . .
54(4) . . .
59(4) . . .
63(4) . . .
61(4) . . .
81(5) . . .
55(4) . . .
59(4) . . .
58(4) . . .
61(5) . . .
59(4) . . .
61(4) . . .
64(4) . . .
62(4) . . .
60(4) . . .
61(4) . . .
59(4) . . .
59(4) . . .
61(4) . . .
61(4) . . .
68(4) . . .
60(4) . . .
58(4) . . .
65(4) . . .
50(4) . . .
54(4) . . .
63(4) . . .
61(4) . . .
66(4) . . .
60(4) . . .
61(4) . . .
57(4) . . .
57(4) . . .
53(4) . . .
60(4) . . .
74(5) . . .
78(5) . . .
61(4) . . .
80(5) . . .
57(4) . . .
63(4) . . .
53(4) . . .
56(4) . . .
66(4) . . .
63(4) . . .
63(4) . . .
62(4) . . .
60(4) . . .
58(4) . . .
60(4) . . .
46(4) . . .
60(4) . . .
64(4) . . .
61(4) . . .
59(4) . . .
64(4) . . .
49(4) . . .
49(4) . . .
71(5) . . .
63(4) . . .
62(4) . . .
55(4) . . .
68(4) . . .
60(4) . . .
56(4) . . .
60(4) . . .
62(4) . . .
66(4) . . .
71(5) . . .
58(4) . . .
65(4) . . .
58(4) . . .
51(4) . . .
57(4) . . .
57(4) . . .
68(4) . . .
59(4) . . .
62(4) . . .
59(4) . . .
67(4) . . .
57(4) . . .
59(4) . . .
57(4) . . .
50(4) . . .
46(4) . . .
67(4) . . .
72(5) . . .
64(4) . . .
60(4) . . .
54(4) . . .
57(4) . . .
64(4) . . .
52(4) . . .
67(5) . . .
50(4) . . .
58(4) . . .
57(4) . . .
55(4) . . .
61(4) . . .
58(4) . . .
60(4) . . .
75(5) . . .
58(4) . . .
62(4) . . .
66(4) . . .
67(4) . . .
50(4) . . .
57(4) . . .
53(4) . . .
66(4) . . .
62(4) . . .
64(4) . . .
67(5) . . .
53(4) . . .
68(4) . . .
60(4) . . .
59(4) . . .
54(4) . . .
60(4) . . .
63(4) . . .
63(4) . . .
62(4) . . .
55(4) . . .
52(4) . . .
53(4) . . .
60(4) . . .
59(4) . . .
55(4) . . .
60(4) . . .
53(4) . . .
52(4) . . .
56(4) . . .
62(4) . . .
56(4) . . .
60(4) . . .
58(4) . . .
60(4) . . .
59(4) . . .
53(4) . . .
60(4) . . .
67(4) . . .
54(4) . . .
55(4) . . .
52(4) . . .
69(4) . . .
57(4) . . .
57(4) . . .
59(4) . . .
64(4) . . .
61(4) . . .
75(5) . . .
73(5) . . .
54(4) . . .
49(4) . . .
62(4) . . .
62(4) . . .
52(4) . . .
57(4) . . .
58(4) . . .
67(4) . . .
54(4) . . .
68(5) . . .
62(4) . . .
61(4) . . .
47(4) . . .
54(4) . . .
68(5) . . .
62(4) . . .
66(4) . . .
62(4) . . .
57(4) . . .
50(4) . . .
55(4) . . .
64(4) . . .
62(4) . . .
49(4) . . .
69(5) . . .
63(4) . . .
68(4) . . .
55(4) . . .
53(4) . . .
62(4) . . .
65(4) . . .
65(4) . . .
54(4) . . .
65(5) . . .
51(4) . . .
59(4) . . .
62(4) . . .
57(4) . . .
58(4) . . .
56(4) . . .
61(4) . . .
70(4) . . .
67(4) . . .
60(4) . . .
63(4) . . .
62(4) . . .
72(5) . . .
66(4) . . .
78(5) . . .
73(5) . . .
57(4) . . .
62(4) . . .
63(4) . . .
60(4) . . .
73(5) . . .
60(4) . . .
49(4) . . .
49(4) . . .
63(4) . . .
51(4) . . .
62(4) . . .
51(4) . . .
58(4) . . .
53(4) . . .
68(4) . . .
66(4) . . .
68(4) . . .
55(4) . . .
69(5) . . .
56(4) . . .
63(4) . . .
58(4) . . .
44(4) . . .
52(4) . . .
56(4) . . .
58(4) . . .
54(4) . . .
61(4) . . .
70(5) . . .
59(4) . . .
64(4) . . .
70(5) . . .
61(4) . . .
58(4) . . .
53(4) . . .
58(4) . . .
64(4) . . .
56(4) . . .
67(5) . . .
65(4) . . .
60(4) . . .
69(4) . . .
58(4) . . .
57(4) . . .
54(4) . . .
57(4) . . .
57(4) . . .
61(4) . . .
58(4) . . .
56(4) . . .
59(4) . . .
73(5) . . .
58(4) . . .
62(4) . . .
56(4) . . .
76(5) . . .
55(4) . . .
57(4) . . .
62(4) . . .
77(5) . . .
54(4) . . .
62(4) . . .
63(5) . . .
74(5) . . .
58(4) . . .
59(4) . . .
59(4) . . .
53(4) . . .
60(4) . . .
58(4) . . .
47(4) . . .
55(4) . . .
54(4) . . .
65(4) . . .
43.1(35) . . .
55(4) . . .
49(4) . . .
64(4) . . .
69(5) . . .
65(4) . . .
52(4) . . .
63(5) . . .
54(4) . . .
62(4) . . .
64(4) . . .
71(4) . . .
61(4) . . .
61(4) . . .
61(4) . . .
57(4) . . .
69(5) . . .
67(4) . . .
74(5) . . .
55(4) . . .
53(4) . . .
65(4) . . .
61(4) . . .
63(4) . . .
75(5) . . .
62(4) . . .
57(4) . . .
65(5) . . .
48(4) . . .
47(4) . . .
50(4) . . .
66(4) . . .
63(5) . . .
61(4) . . .
51(4) . . .
58(4) . . .
63(4) . . .
54(4) . . .
60(4) . . .
63(4) . . .
65(4) . . .
53(4) . . .
64(4) . . .
62(4) . . .
63(4) . . .
61(4) . . .
69(4) . . .
59(4) . . .
57(4) . . .
61(4) . . .
54(4) . . .
54(4) . . .
62(4) . . .
69(4) . . .
63(4) . . .
61(4) . . .
57(4) . . .
54(4) . . .
57(4) . . .
55(4) . . .
64(4) . . .
62(4) . . .
60(4) . . .
69(4) . . .
65(4) . . .
63(4) . . .
61(4) . . .
59(4) . . .
65(4) . . .
64(4) . . .
51(4) . . .
71(5) . . .
62(4) . . .
78(5) . . .
60(4) . . .
56(4) . . .
63(4) . . .
55(4) . . .
58(4) . . .
54(4) . . .
62(4) . . .
63(4) . . .
63(4) . . .
73(4) . . .
67(4) . . .
59(4) . . .
66(4) . . .
60(4) . . .
63(4) . . .
64(4) . . .
58(4) . . .
60(4) . . .
57(4) . . .
70(4) . . .
55(4) . . .
55(4) . . .
61(4) . . .
56(4) . . .
65(4) . . .
65(4) . . .
54(4) . . .
59(4) . . .
58(4) . . .
62(4) . . .
56(4) . . .
55(4) . . .
70(5) . . .
64(4) . . .
59(4) . . .
66(4) . . .
59(4) . . .
56(4) . . .
60(4) . . .
61(4) . . .
51(4) . . .
63(5) . . .
56(4) . . .
71(4) . . .
69(4) . . .
57(4) . . .
58(4) . . .
53(4) . . .
55(4) . . .
61(4) . . .
65(4) . . .
56(4) . . .
63(4) . . .
50(4) . . .
62(4) . . .
49(4) . . .
55(4) . . .
63(4) . . .
63(4) . . .
64(4) . . .
66(4) . . .
60(4) . . .
62(4) . . .
63(4) . . .
57(4) . . .
52(4) . . .
60(4) . . .
79(5) . . .
65(4) . . .
64(4) . . .
58(4) . . .
61(4) . . .
51(4) . . .
56(4) . . .
61(4) . . .
61(4) . . .
63(4) . . .
59(4) . . .
65(4) . . .
70(5) . . .
58(4) . . .
58(4) . . .
52(4) . . .
66(4) . . .
66(4) . . .
60(4) . . .
59(4) . . .
61(4) . . .
58(4) . . .
64(4) . . .
68(4) . . .
57(4) . . .
60(4) . . .
59(4) . . .
61(4) . . .
61(4) . . .
51(4) . . .
67(4) . . .
57(4) . . .
76(5) . . .
60(4) . . .
63(4) . . .
60(4) . . .
69(4) . . .
62(4) . . .
71(5) . . .
61(4) . . .
56(4) . . .
63(4) . . .
54(4) . . .
62(4) . . .
51(4) . . .
61(4) . . .
74(5) . . .
58(4) . . .
68(5) . . .
51(4) . . .
58(4) . . .
52(4) . . .
59(4) . . .
59(4) . . .
60(4) . . .
65(4) . . .
65(4) . . .
58(4) . . .
60(4) . . .
61(4) . . .
56(4) . . .
60(4) . . .
69(5) . . .
65(4) . . .
58(4) . . .
60(4) . . .
59(4) . . .
55(4) . . .
68(5) . . .
62(4) . . .
71(4) . . .
56(4) . . .
57(4) . . .
60(4) . . .
56(4) . . .
56(4) . . .
64(4) . . .
62(4) . . .
61(4) . . .
55(4) . . .
59(4) . . .
61(4) . . .
60(4) . . .
65(4) . . .
62(4) . . .
53(4) . . .
66(4) . . .
58(4) . . .
53(4) . . .
67(4) . . .
61(4) . . .
59(4) . . .
54(4) . . .
57(4) . . .
59(4) . . .
60(4) . . .
57(4) . . .
51(4) . . .
71(5) . . .
54(4) . . .
56(4) . . .
56(4) . . .
60(4) . . .
67(4) . . .
57(4) . . .
67(4) . . .
71(5) . . .
59(4) . . .
52(4) . . .
62(4) . . .
61(4) . . .
54(4) . . .
62(5) . . .
45(4) . . .
69(4) . . .
59(4) . . .
57(4) . . .
64(4) . . .
64(4) . . .
62(4) . . .
60(4) . . .
53(4) . . .
52(4) . . .
63(4) . . .
66(4) . . .
56(4) . . .
57(4) . . .
65(4) . . .
62(4) . . .
52(4) . . .
57(4) . . .
58(4) . . .
57(4) . . .
60(4) . . .
71(4) . . .
60(4) . . .
60(4) . . .
51(4) . . .
58(4) . . .
60(4) . . .
61(4) . . .
61(4) . . .
61(4) . . .
60(4) . . .
59(4) . . .
63(4) . . .
59(4) . . .
50(4) . . .
48(4) . . .
42.8(35) . . .
55(4) . . .
61(4) . . .
58(4) . . .
66(4) . . .
58(4) . . .
54(4) . . .
59(4) . . .
65(4) . . .
60(4) . . .
69(4) . . .
49(4) . . .
56(4) . . .
54(4) . . .
64(4) . . .
51(4) . . .
51(4) . . .
59(4) . . .
67(4) . . .
80(5) . . .
63(4) . . .
62(4) . . .
60(4) . . .
51(4) . . .
58(4) . . .
54(4) . . .
57(4) . . .
61(4) . . .
64(4) . . .
52(4) . . .
55(4) . . .
54(4) . . .
54(4) . . .
55(4) . . .
60(4) . . .
54(4) . . .
53(4) . . .
66(4) . . .
66(4) . . .
56(4) . . .
53(4) . . .
62(4) . . .
67(4) . . .
66(4) . . .
59(4) . . .
63(4) . . .
56(4) . . .
52(4) . . .
57(4) . . .
62(4) . . .
60(4) . . .
53(4) . . .
63(4) . . .
64(4) . . .
64(4) . . .
53(4) . . .
58(4) . . .
65(4) . . .
62(4) . . .
61(4) . . .
60(4) . . .
56(4) . . .
57(4) . . .
66(4) . . .
58(4) . . .
54(4) . . .
54(4) . . .
52(4) . . .
52(4) . . .
52(4) . . .
53(4) . . .
54(4) . . .
50(4) . . .
56(4) . . .
57(4) . . .
66(5) . . .
59(4) . . .
66(4) . . .
53(4) . . .
59(4) . . .
70(5) . . .
67(4) . . .
59(4) . . .
70(4) . . .
67(4) . . .
74(5) . . .
63(4) . . .
57(4) . . .
52(4) . . .
47(4) . . .
60(4) . . .
66(4) . . .
59(4) . . .
59(4) . . .
57(4) . . .
59(4) . . .
56(4) . . .
58(4) . . .
62(4) . . .
55(4) . . .
58(4) . . .
54(4) . . .
61(4) . . .
58(4) . . .
50(4) . . .
63(4) . . .
62(4) . . .
63(4) . . .
65(4) . . .
63(4) . . .
56(4) . . .
66(4) . . .
67(4) . . .
51(4) . . .
61(4) . . .
65(4) . . .
63(4) . . .
61(4) . . .
49(4) . . .
67(4) . . .
52(4) . . .
61(4) . . .
63(4) . . .
66(4) . . .
65(4) . . .
56(4) . . .
71(4) . . .
64(4) . . .
54(4) . . .
60(4) . . .
55(4) . . .
64(4) . . .
72(4) . . .
74(5) . . .
69(5) . . .
66(4) . . .
58(4) . . .
79(5) . . .
57(4) . . .
45(4) . . .
55(4) . . .
65(4) . . .
66(4) . . .
50(4) . . .
54(4) . . .
63(4) . . .
59(4) . . .
56(4) . . .
68(5) . . .
66(4) . . .
72(5) . . .
54(4) . . .
53(4) . . .
52(4) . . .
59(4) . . .
59(4) . . .
72(4) . . .
65(4) . . .
64(4) . . .
71(5) . . .
64(4) . . .
62(4) . . .
60(4) . . .
63(4) . . .
62(4) . . .
61(4) . . .
51(4) . . .
53(4) . . .
69(5) . . .
65(4) . . .
66(4) . . .
62(4) . . .
59(4) . . .
55(4) . . .
64(4) . . .
54(4) . . .
56(4) . . .
60(4) . . .
61(4) . . .
53(4) . . .
57(4) . . .
67(4) . . .
60(4) . . .
55(4) . . .
57(4) . . .
66(4) . . .
63(4) . . .
59(4) . . .
55(4) . . .
55(4) . . .
58(4) . . .
54(4) . . .
50(4) . . .
62(4) . . .
57(4) . . .
48(4) . . .
62(4) . . .
61(4) . . .
60(4) . . .
60(4) . . .
58(4) . . .
62(4) . . .
63(4) . . .
69(5) . . .
64(4) . . .
62(4) . . .
63(4) . . .
58(4) . . .
52(4) . . .
54(4) . . .
61(4) . . .
60(4) . . .
63(4) . . .
67(4) . . .
60(4) . . .
62(4) . . .
67(4) . . .
66(4) . . .
65(4) . . .
56(4) . . .
56(4) . . .
53(4) . . .
61(4) . . .
65(5) . . .
65(4) . . .
46(4) . . .
53(4) . . .
61(4) . . .
66(4) . . .
55(4) . . .
49(4) . . .
53(4) . . .
61(4) . . .
58(4) . . .
52(4) . . .
57(4) . . .
63(4) . . .
60(4) . . .
62(4) . . .
69(4) . . .
54(4) . . .
63(4) . . .
57(4) . . .
52(4) . . .
60(4) . . .
58(4) . . .
48(4) . . .
59(4) . . .
60(4) . . .
61(4) . . .
64(4) . . .
55(4) . . .
55(4) . . .
53(4) . . .
54(4) . . .
56(4) . . .
57(4) . . .
48(4) . . .
61(4) . . .
66(4) . . .
62(4) . . .
59(4) . . .
53(4) . . .
50(4) . . .
58(4) . . .
53(4) . . .
63(4) . . .
50(4) . . .
52(4) . . .
56(4) . . .
58(4) . . .
59(4) . . .
54(4) . . .
49(4) . . .
57(4) . . .
54(4) . . .
57(4) . . .
55(4) . . .
58(4) . . .
68(4) . . .
65(4) . . .
68(4) . . .
66(5) . . .
54(4) . . .
62(4) . . .
52(4) . . .
60(4) . . .
58(4) . . .
56(4) . . .
57(4) . . .
64(4) . . .
58(4) . . .
71(5) . . .
56(4) . . .
58(4) . . .
62(4) . . .
54(4) . . .
54(4) . . .
60(4) . . .
59(4) . . .
62(4) . . .
65(4) . . .
48(4) . . .
60(4) . . .
51(4) . . .
59(4) . . .
58(4) . . .
59(4) . . .
65(4) . . .
48(4) . . .
62(4) . . .
62(4) . . .
52(4) . . .
53(4) . . .
59(4) . . .
64(4) . . .
56(4) . . .
62(4) . . .
61(4) . . .
49(4) . . .
72(5) . . .
58(4) . . .
64(4) . . .
64(4) . . .
58(4) . . .
55(4) . . .
58(4) . . .
60(4) . . .
56(4) . . .
60(4) . . .
66(4) . . .
56(4) . . .
64(4) . . .
59(4) . . .
63(4) . . .
59(4) . . .
58(4) . . .
60(4) . . .
54(4) . . .
52(4) . . .
58(4) . . .
70(5) . . .
57(4) . . .
65(4) . . .
68(4) . . .
55(4) . . .
63(5) . . .
55(4) . . .
62(4) . . .
57(4) . . .
56(4) . . .
53(4) . . .
69(4) . . .
61(4) . . .
60(4) . . .
56(4) . . .
49(4) . . .
54(4) . . .
61(4) . . .
55(4) . . .
51(4) . . .
44(4) . . .
58(4) . . .
52(4) . . .
61(4) . . .
58(4) . . .
71(5) . . .
57(4) . . .
57(4) . . .
60(4) . . .
57(4) . . .
51(4) . . .
59(4) . . .
57(4) . . .
52(4) . . .
64(4) . . .
51(4) . . .
53(4) . . .
63(4) . . .
62(4) . . .
64(4) . . .
59(4) . . .
55(4) . . .
53(4) . . .
60(4) . . .
60(4) . . .
57(4) . . .
58(4) . . .
60(4) . . .
55(4) . . .
67(4) . . .
63(4) . . .
54(4) . . .
53(4) . . .
57(4) . . .
45(4) . . .
62(4) . . .
62(4) . . .
56(4) . . .
57(4) . . .
59(4) . . .
64(4) . . .
59(4) . . .
68(5) . . .
61(4) . . .
60(4) . . .
69(4) . . .
58(4) . . .
62(4) . . .
55(4) . . .
52(4) . . .
51(4) . . .
50(4) . . .
56(4) . . .
60(4) . . .
64(4) . . .
59(4) . . .
63(4) . . .
54(4) . . .
57(4) . . .
50(4) . . .
56(4) . . .
58(4) . . .
62(4) . . .
50(4) . . .
41.8(34) . . .
53(4) . . .
67(5) . . .
59(4) . . .
54(4) . . .
60(4) . . .
63(4) . . .
53(4) . . .
52(4) . . .
58(4) . . .
66(4) . . .
58(4) . . .
62(4) . . .
59(4) . . .
64(4) . . .
62(4) . . .
62(4) . . .
58(4) . . .
62(4) . . .
66(4) . . .
51(4) . . .
54(4) . . .
50(4) . . .
60(4) . . .
54(4) . . .
63(4) . . .
57(4) . . .
55(4) . . .
65(5) . . .
56(4) . . .
55(4) . . .
64(4) . . .
65(4) . . .
57(4) . . .
52(4) . . .
59(4) . . .
62(4) . . .
68(5) . . .
70(5) . . .
63(4) . . .
55(4) . . .
43.9(35) . . .
59(4) . . .
61(4) . . .
51(4) . . .
57(4) . . .
56(4) . . .
61(4) . . .
67(4) . . .
63(5) . . .
59(4) . . .
49(4) . . .
50(4) . . .
56(4) . . .
68(4) . . .
50(4) . . .
56(4) . . .
50(4) . . .
52(4) . . .
56(4) . . .
55(4) . . .
58(4) . . .
56(4) . . .
50(4) . . .
53(4) . . .
57(4) . . .
62(4) . . .
58(4) . . .
66(4) . . .
64(4) . . .
49(4) . . .
47(4) . . .
63(5) . . .
54(4) . . .
55(4) . . .
46(4) . . .
50(4) . . .
66(5) . . .
55(4) . . .
50(4) . . .
56(4) . . .
54(4) . . .
60(4) . . .
55(4) . . .
64(4) . . .
65(4) . . .
58(4) . . .
56(4) . . .
53(4) . . .
49(4) . . .
58(4) . . .
61(4) . . .
71(5) . . .
60(4) . . .
55(4) . . .
51(4) . . .
55(4) . . .
61(4) . . .
66(4) . . .
69(4) . . .
57(4) . . .
61(4) . . .
61(4) . . .
55(4) . . .
58(4) . . .
55(4) . . .
55(4) . . .
67(5) . . .
61(4) . . .
53(4) . . .
50(4) . . .
69(5) . . .
65(4) . . .
58(4) . . .
58(4) . . .
56(4) . . .
62(4) . . .
65(4) . . .
60(4) . . .
60(4) . . .
54(4) . . .
56(4) . . .
67(4) . . .
60(4) . . .
52(4) . . .
68(5) . . .
60(4) . . .
59(4) . . .
60(4) . . .
59(4) . . .
48(4) . . .
54(4) . . .
55(4) . . .
53(4) . . .
53(4) . . .
67(5) . . .
50(4) . . .
55(4) . . .
55(4) . . .
61(4) . . .
56(4) . . .
59(4) . . .
55(4) . . .
54(4) . . .
56(4) . . .
53(4) . . .
59(4) . . .
55(4) . . .
62(4) . . .
60(4) . . .
60(4) . . .
59(4) . . .
61(4) . . .
56(4) . . .
63(4) . . .
67(4) . . .
55(4) . . .
72(5) . . .
55(4) . . .
59(4) . . .
66(5) . . .
52(4) . . .
57(4) . . .
53(4) . . .
55(4) . . .
55(4) . . .
56(4) . . .
62(4) . . .
44.3(35) . . .
53(4) . . .
65(4) . . .
63(4) . . .
51(4) . . .
51(4) . . .
48(4) . . .
56(4) . . .
55(4) . . .
55(4) . . .
54(4) . . .
65(4) . . .
61(4) . . .
53(4) . . .
59(4) . . .
57(4) . . .
56(4) . . .
53(4) . . .
57(4) . . .
54(4) . . .
66(4) . . .
50(4) . . .
60(4) . . .
62(4) . . .
66(4) . . .
59(4) . . .
59(4) . . .
56(4) . . .
55(4) . . .
47(4) . . .
48(4) . . .
58(4) . . .
60(4) . . .
51(4) . . .
57(4) . . .
60(4) . . .
49(4) . . .
61(4) . . .
56(4) . . .
54(4) . . .
59(4) . . .
66(5) . . .
58(4) . . .
57(4) . . .
59(4) . . .
62(5) . . .
52(4) . . .
47(4) . . .
53(4) . . .
51(4) . . .
49(4) . . .
62(5) . . .
60(4) . . .
61(4) . . .
57(4) . . .
54(4) . . .
58(4) . . .
60(4) . . .
61(4) . . .
63(4) . . .
51(4) . . .
62(4) . . .
56(4) . . .
52(4) . . .
62(4) . . .
63(4) . . .
66(4) . . .
60(4) . . .
60(4) . . .
53(4) . . .
66(4) . . .
50(4) . . .
53(4) . . .
69(4) . . .
64(4) . . .
48(4) . . .
46(4) . . .
64(4) . . .
66(4) . . .
53(4) . . .
49(4) . . .
57(4) . . .
64(4) . . .
58(4) . . .
61(4) . . .
59(4) . . .
59(4) . . .
61(4) . . .
62(4) . . .
56(4) . . .
61(4) . . .
59(4) . . .
50(4) . . .
57(4) . . .
60(4) . . .
61(4) . . .
62(4) . . .
53(4) . . .
64(4) . . .
54(4) . . .
62(4) . . .
68(4) . . .
61(4) . . .
54(4) . . .
58(4) . . .
56(4) . . .
48(4) . . .
50(4) . . .
58(4) . . .
63(5) . . .
55(4) . . .
63(4) . . .
62(4) . . .
49(4) . . .
62(4) . . .
59(4) . . .
57(4) . . .
62(4) . . .
60(4) . . .
61(4) . . .
59(4) . . .
53(4) . . .
57(4) . . .
68(4) . . .
66(4) . . .
50(4) . . .
50(4) . . .
61(4) . . .
52(4) . . .
63(4) . . .
56(4) . . .
58(4) . . .
58(4) . . .
59(4) . . .
53(4) . . .
53(4) . . .
49(4) . . .
60(4) . . .
58(4) . . .
66(5) . . .
60(4) . . .
56(4) . . .
56(4) . . .
53(4) . . .
49(4) . . .
57(4) . . .
63(4) . . .
60(4) . . .
52(4) . . .
48(4) . . .
59(4) . . .
54(4) . . .
63(4) . . .
65(4) . . .
60(4) . . .
55(4) . . .
51(4) . . .
52(4) . . .
68(5) . . .
55(4) . . .
56(4) . . .
55(4) . . .
59(4) . . .
56(4) . . .
57(4) . . .
49(4) . . .
69(4) . . .
54(4) . . .
55(4) . . .
59(4) . . .
51(4) . . .
58(4) . . .
61(4) . . .
63(4) . . .
59(4) . . .
52(4) . . .
63(4) . . .
52(4) . . .
59(4) . . .
58(4) . . .
52(4) . . .
58(4) . . .
63(4) . . .
59(4) . . .
53(4) . . .
55(4) . . .
55(4) . . .
49(4) . . .
63(4) . . .
63(4) . . .
57(4) . . .
64(4) . . .
46(4) . . .
47(4) . . .
51(4) . . .
54(4) . . .
57(4) . . .
54(4) . . .
48(4) . . .
57(4) . . .
56(4) . . .
62(4) . . .
54(4) . . .
64(5) . . .
58(4) . . .
55(4) . . .
60(4) . . .
54(4) . . .
53(4) . . .
60(4) . . .
55(4) . . .
66(4) . . .
65(4) . . .
58(4) . . .
55(4) . . .
73(4) . . .
54(4) . . .
54(4) . . .
61(4) . . .
61(4) . . .
60(4) . . .
53(4) . . .
55(4) . . .
53(4) . . .
54(4) . . .
64(4) . . .
59(4) . . .
52(4) . . .
45(4) . . .
49(4) . . .
54(4) . . .
53(4) . . .
56(4) . . .
62(4) . . .
55(4) . . .
60(4) . . .
61(4) . . .
47(4) . . .
50(4) . . .
54(4) . . .
59(4) . . .
62(5) . . .
56(4) . . .
54(4) . . .
59(4) . . .
54(4) . . .
53(4) . . .
61(4) . . .
57(4) . . .
56(4) . . .
57(4) . . .
54(4) . . .
54(4) . . .
62(4) . . .
58(4) . . .
64(4) . . .
55(4) . . .
58(4) . . .
51(4) . . .
56(4) . . .
48(4) . . .
76(5) . . .
52(4) . . .
51(4) . . .
54(4) . . .
52(4) . . .
60(4) . . .
61(4) . . .
54(4) . . .
57(4) . . .
55(4) . . .
55(4) . . .
62(4) . . .
62(4) . . .
56(4) . . .
59(4) . . .
62(4) . . .
56(4) . . .
67(4) . . .
50(4) . . .
60(4) . . .
54(4) . . .
46(4) . . .
56(4) . . .
68(4) . . .
60(4) . . .
62(4) . . .
70(4) . . .
57(4) . . .
46(4) . . .
60(4) . . .
49(4) . . .
59(4) . . .
66(4) . . .
57(4) . . .
61(4) . . .
54(4) . . .
54(4) . . .
47(4) . . .
63(4) . . .
52(4) . . .
54(4) . . .
59(4) . . .
52(4) . . .
54(4) . . .
49(4) . . .
58(4) . . .
55(4) . . .
57(4) . . .
49(4) . . .
41.2(33) . . .
47(4) . . .
50(4) . . .
57(4) . . .
50(4) . . .
48(4) . . .
55(4) . . .
52(4) . . .
57(4) . . .
51(4) . . .
53(4) . . .
58(4) . . .
60(4) . . .
61(4) . . .
60(4) . . .
65(4) . . .
60(4) . . .
56(4) . . .
60(4) . . .
60(4) . . .
50(4) . . .
58(4) . . .
56(4) . . .
49(4) . . .
48(4) . . .
58(4) . . .
59(4) . . .
43.0(35) . . .
58(4) . . .
51(4) . . .
55(4) . . .
68(4) . . .
56(4) . . .
52(4) . . .
58(4) . . .
57(4) . . .
58(4) . . .
70(4) . . .
62(4) . . .
55(4) . . .
60(4) . . .
63(4) . . .
56(4) . . .
47(4) . . .
54(4) . . .
51(4) . . .
63(4) . . .
55(4) . . .
56(4) . . .
55(4) . . .
67(5) . . .
66(4) . . .
53(4) . . .
59(4) . . .
59(4) . . .
52(4) . . .
70(5) . . .
58(4) . . .
46(4) . . .
58(4) . . .
52(4) . . .
58(4) . . .
57(4) . . .
53(4) . . .
51(4) . . .
45(4) . . .
64(4) . . .
55(4) . . .
61(4) . . .
59(4) . . .
61(4) . . .
52(4) . . .
63(4) . . .
56(4) . . .
51(4) . . .
60(4) . . .
58(4) . . .
55(4) . . .
59(4) . . .
48(4) . . .
55(4) . . .
48(4) . . .
49(4) . . .
64(4) . . .
58(4) . . .
52(4) . . .
53(4) . . .
57(4) . . .
50(4) . . .
68(5) . . .
58(4) . . .
51(4) . . .
60(4) . . .
55(4) . . .
59(4) . . .
58(4) . . .
68(4) . . .
57(4) . . .
46(4) . . .
56(4) . . .
58(4) . . .
65(4) . . .
51(4) . . .
47(4) . . .
66(5) . . .
55(4) . . .
54(4) . . .
59(4) . . .
62(4) . . .
48(4) . . .
61(4) . . .
60(4) . . .
48(4) . . .
68(5) . . .
57(4) . . .
55(4) . . .
58(4) . . .
63(4) . . .
48(4) . . .
49(4) . . .
50(4) . . .
48(4) . . .
48(4) . . .
53(4) . . .
54(4) . . .
66(4) . . .
52(4) . . .
60(4) . . .
57(4) . . .
57(4) . . .
60(4) . . .
48(4) . . .
50(4) . . .
54(4) . . .
50(4) . . .
55(4) . . .
59(4) . . .
60(4) . . .
62(4) . . .
49(4) . . .
52(4) . . .
65(4) . . .
45.7(35) . . .
46(4) . . .
59(4) . . .
52(4) . . .
58(4) . . .
58(4) . . .
59(4) . . .
45.5(35) . . .
56(4) . . .
44.8(35) . . .
67(4) . . .
55(4) . . .
58(4) . . .
49(4) . . .
62(4) . . .
52(4) . . .
52(4) . . .
53(4) . . .
60(4) . . .
57(4) . . .
69(5) . . .
60(4) . . .
70(5) . . .
50(4) . . .
60(4) . . .
49(4) . . .
61(4) . . .
58(4) . . .
57(4) . . .
57(4) . . .
61(4) . . .
60(4) . . .
55(4) . . .
59(4) . . .
57(4) . . .
57(4) . . .
61(4) . . .
62(4) . . .
52(4) . . .
49(4) . . .
58(4) . . .
53(4) . . .
56(4) . . .
61(4) . . .
51(4) . . .
53(4) . . .
54(4) . . .
56(4) . . .
44.3(35) . . .
55(4) . . .
60(4) . . .
63(4) . . .
53(4) . . .
52(4) . . .
50(4) . . .
51(4) . . .
54(4) . . .
52(4) . . .
53(4) . . .
48(4) . . .
50(4) . . .
56(4) . . .
56(4) . . .
54(4) . . .
63(4) . . .
68(5) . . .
53(4) . . .
56(4) . . .
63(4) . . .
54(4) . . .
56(4) . . .
59(4) . . .
62(4) . . .
54(4) . . .
50(4) . . .
63(4) . . .
54(4) . . .
54(4) . . .
64(4) . . .
50(4) . . .
61(4) . . .
50(4) . . .
69(4) . . .
60(4) . . .
59(4) . . .
53(4) . . .
50(4) . . .
56(4) . . .
55(4) . . .
63(5) . . .
52(4) . . .
40.7(35) . . .
49(4) . . .
55(4) . . .
63(4) . . .
60(4) . . .
58(4) . . .
53(4) . . .
52(4) . . .
72(5) . . .
63(4) . . .
60(4) . . .
50(4) . . .
54(4) . . .
56(4) . . .
51(4) . . .
56(4) . . .
52(4) . . .
54(4) . . .
53(4) . . .
58(4) . . .
55(4) . . .
50(4) . . .
67(4) . . .
49(4) . . .
53(4) . . .
59(4) . . .
52(4) . . .
47(4) . . .
43(4) . . .
56(4) . . .
55(4) . . .
56(4) . . .
56(4) . . .
52(4) . . .
52(4) . . .
49(4) . . .
52(4) . . .
59(4) . . .
53(4) . . .
67(4) . . .
57(4) . . .
56(4) . . .
68(4) . . .
50(4) . . .
62(4) . . .
53(4) . . .
49(4) . . .
61(4) . . .
54(4) . . .
63(4) . . .
55(4) . . .
55(4) . . .
56(4) . . .
61(4) . . .
61(4) . . .
54(4) . . .
56(4) . . .
61(4) . . .
63(4) . . .
56(4) . . .
56(4) . . .
70(5) . . .
55(4) . . .
55(4) . . .
56(4) . . .
57(4) . . .
57(4) . . .
56(4) . . .
57(4) . . .
57(4) . . .
60(4) . . .
64(4) . . .
68(5) . . .
62(4) . . .
51(4) . . .
56(4) . . .
38.6(33) . . .
66(5) . . .
60(4) . . .
44.6(34) . . .
54(4) . . .
65(4) . . .
53(4) . . .
54(4) . . .
53(4) . . .
47(4) . . .
58(4) . . .
57(4) . . .
56(4) . . .
56(4) . . .
55(4) . . .
55(4) . . .
57(4) . . .
59(4) . . .
44.3(35) . . .
65(4) . . .
64(4) . . .
58(4) . . .
48(4) . . .
60(4) . . .
64(4) . . .
51(4) . . .
52(4) . . .
58(4) . . .
58(4) . . .
59(4) . . .
54(4) . . .
64(4) . . .
61(4) . . .
67(4) . . .
59(4) . . .
61(4) . . .
71(5) . . .
59(4) . . .
60(4) . . .
55(4) . . .
50(4) . . .
52(4) . . .
63(4) . . .
53(4) . . .
48(4) . . .
57(4) . . .
65(4) . . .
50(4) . . .
56(4) . . .
56(4) . . .
57(4) . . .
53(4) . . .
48(4) . . .
74(5) . . .
54(4) . . .
50(4) . . .
55(4) . . .
52(4) . . .
62(4) . . .
54(4) . . .
50(4) . . .
52(4) . . .
60(4) . . .
54(4) . . .
53(4) . . .
63(4) . . .
57(4) . . .
48(4) . . .
58(4) . . .
55(4) . . .
57(4) . . .
64(4) . . .
54(4) . . .
57(4) . . .
56(4) . . .
56(4) . . .
62(4) . . .
49(4) . . .
60(4) . . .
52(4) . . .
64(4) . . .
61(4) . . .
52(4) . . .
48(4) . . .
52(4) . . .
57(4) . . .
52(4) . . .
54(4) . . .
50(4) . . .
64(4) . . .
50(4) . . .
69(4) . . .
59(4) . . .
60(4) . . .
59(4) . . .
60(4) . . .
55(4) . . .
56(4) . . .
58(4) . . .
57(4) . . .
55(4) . . .
61(4) . . .
66(4) . . .
47(4) . . .
61(4) . . .
55(4) . . .
54(4) . . .
59(4) . . .
54(4) . . .
61(4) . . .
60(4) . . .
47(4) . . .
65(4) . . .
49(4) . . .
44(4) . . .
63(4) . . .
57(4) . . .
53(4) . . .
46(4) . . .
54(4) . . .
61(4) . . .
62(4) . . .
54(4) . . .
56(4) . . .
56(4) . . .
54(4) . . .
62(4) . . .
54(4) . . .
47(4) . . .
57(4) . . .
61(4) . . .
55(4) . . .
54(4) . . .
55(4) . . .
47(4) . . .
55(4) . . .
60(4) . . .
50(4) . . .
51(4) . . .
69(5) . . .
54(4) . . .
65(4) . . .
65(4) . . .
59(4) . . .
54(4) . . .
64(4) . . .
59(4) . . .
60(4) . . .
54(4) . . .
60(4) . . .
51(4) . . .
65(4) . . .
52(4) . . .
61(4) . . .
55(4) . . .
59(4) . . .
71(4) . . .
63(4) . . .
57(4) . . .
58(4) . . .
58(4) . . .
47(4) . . .
52(4) . . .
62(4) . . .
62(4) . . .
59(4) . . .
55(4) . . .
56(4) . . .
59(4) . . .
58(4) . . .
57(4) . . .
53(4) . . .
52(4) . . .
59(4) . . .
57(4) . . .
52(4) . . .
58(4) . . .
61(4) . . .
51(4) . . .
64(4) . . .
59(4) . . .
54(4) . . .
60(4) . . .
67(4) . . .
59(4) . . .
54(4) . . .
52(4) . . .
64(5) . . .
59(4) . . .
47(4) . . .
45(4) . . .
69(4) . . .
61(4) . . .
57(4) . . .
41.0(33) . . .
52(4) . . .
59(4) . . .
57(4) . . .
50(4) . . .
66(4) . . .
62(4) . . .
59(4) . . .
58(4) . . .
52(4) . . .
65(4) . . .
60(4) . . .
64(4) . . .
45(4) . . .
60(4) . . .
50(4) . . .
50(4) . . .
56(4) . . .
60(4) . . .
55(4) . . .
49(4) . . .
58(4) . . .
58(4) . . .
65(4) . . .
56(4) . . .
58(4) . . .
51(4) . . .
50(4) . . .
46(4) . . .
49(4) . . .
58(4) . . .
58(4) . . .
69(5) . . .
56(4) . . .
50(4) . . .
63(4) . . .
57(4) . . .
55(4) . . .
49(4) . . .
43.9(34) . . .
54(4) . . .
66(4) . . .
63(4) . . .
59(4) . . .
54(4) . . .
49(4) . . .
56(4) . . .
74(5) . . .
65(4) . . .
53(4) . . .
60(4) . . .
52(4) . . .
54(4) . . .
63(4) . . .
57(4) . . .
52(4) . . .
52(4) . . .
65(5) . . .
61(4) . . .
67(4) . . .
64(4) . . .
55(4) . . .
59(4) . . .
63(4) . . .
55(4) . . .
57(4) . . .
58(4) . . .
67(5) . . .
55(4) . . .
55(4) . . .
54(4) . . .
38.6(33) . . .
62(5) . . .
50(4) . . .
55(4) . . .
53(4) . . .
50(4) . . .
62(4) . . .
59(4) . . .
61(4) . . .
56(4) . . .
58(4) . . .
56(4) . . .
62(4) . . .
58(4) . . .
65(4) . . .
56(4) . . .
47(4) . . .
63(4) . . .
58(4) . . .
51(4) . . .
56(4) . . .
58(4) . . .
51(4) . . .
65(4) . . .
58(4) . . .
60(4) . . .
64(4) . . .
54(4) . . .
47(4) . . .
63(4) . . .
56(4) . . .
62(4) . . .
61(4) . . .
63(4) . . .
53(4) . . .
56(4) . . .
49(4) . . .
59(4) . . .
57(4) . . .
52(4) . . .
56(4) . . .
58(4) . . .
60(4) . . .
64(4) . . .
60(4) . . .
49(4) . . .
70(5) . . .
62(4) . . .
52(4) . . .
50(4) . . .
66(4) . . .
59(4) . . .
65(4) . . .
45(4) . . .
57(4) . . .
51(4) . . .
64(4) . . .
56(4) . . .
55(4) . . .
59(4) . . .
53(4) . . .
67(4) . . .
62(4) . . .
47(4) . . .
55(4) . . .
57(4) . . .
63(4) . . .
61(4) . . .
58(4) . . .
51(4) . . .
50(4) . . .
52(4) . . .
65(4) . . .
57(4) . . .
43.0(35) . . .
48(4) . . .
66(4) . . .
53(4) . . .
63(4) . . .
67(5) . . .
68(4) . . .
52(4) . . .
55(4) . . .
59(4) . . .
56(4) . . .
56(4) . . .
53(4) . . .
57(4) . . .
51(4) . . .
62(4) . . .
64(4) . . .
66(4) . . .
65(4) . . .
58(4) . . .
51(4) . . .
53(4) . . .
58(4) . . .
53(4) . . .
56(4) . . .
65(5) . . .
58(4) . . .
58(4) . . .
50(4) . . .
54(4) . . .
58(4) . . .
58(4) . . .
66(4) . . .
58(4) . . .
50(4) . . .
64(4) . . .
62(4) . . .
54(4) . . .
53(4) . . .
56(4) . . .
61(4) . . .
61(4) . . .
55(4) . . .
63(5) . . .
53(4) . . .
60(4) . . .
62(4) . . .
63(4) . . .
67(4) . . .
63(5) . . .
55(4) . . .
56(4) . . .
54(4) . . .
61(4) . . .
57(4) . . .
54(4) . . .
44.0(35) . . .
53(4) . . .
60(4) . . .
67(5) . . .
60(4) . . .
57(4) . . .
59(4) . . .
58(4) . . .
59(4) . . .
68(4) . . .
55(4) . . .
53(4) . . .
62(4) . . .
56(4) . . .
54(4) . . .
54(4) . . .
59(4) . . .
56(4) . . .
46(4) . . .
47(4) . . .
47(4) . . .
59(4) . . .
58(4) . . .
55(4) . . .
57(4) . . .
59(4) . . .
61(4) . . .
57(4) . . .
55(4) . . .
58(4) . . .
65(4) . . .
68(4) . . .
58(4) . . .
50(4) . . .
57(4) . . .
53(4) . . .
59(4) . . .
59(4) . . .
46(4) . . .
62(4) . . .
65(4) . . .
60(4) . . .
61(4) . . .
54(4) . . .
53(4) . . .
55(4) . . .
59(4) . . .
50(4) . . .
59(4) . . .
51(4) . . .
58(4) . . .
60(4) . . .
62(4) . . .
52(4) . . .
58(4) . . .
54(4) . . .
54(4) . . .
54(4) . . .
67(4) . . .
61(4) . . .
60(4) . . .
52(4) . . .
60(4) . . .
66(4) . . .
69(4) . . .
61(4) . . .
64(4) . . .
52(4) . . .
60(4) . . .
62(4) . . .
56(4) . . .
56(4) . . .
58(4) . . .
52(4) . . .
53(4) . . .
54(4) . . .
53(4) . . .
55(4) . . .
61(4) . . .
51(4) . . .
60(4) . . .
53(4) . . .
53(4) . . .
54(4) . . .
62(4) . . .
64(4) . . .
53(4) . . .
50(4) . . .
53(4) . . .
60(4) . . .
65(4) . . .
54(4) . . .
56(4) . . .
60(4) . . .
53(4) . . .
55(4) . . .
58(4) . . .
56(4) . . .
44.0(35) . . .
47(4) . . .
61(4) . . .
59(4) . . .
55(4) . . .
54(4) . . .
53(4) . . .
49(4) . . .
64(4) . . .
54(4) . . .
57(4) . . .
54(4) . . .
74(5) . . .
74(5) . . .
59(4) . . .
59(4) . . .
49(4) . . .
49(4) . . .
56(4) . . .
65(4) . . .
51(4) . . .
55(4) . . .
56(4) . . .
57(4) . . .
58(4) . . .
64(4) . . .
68(4) . . .
52(4) . . .
53(4) . . .
53(4) . . .
57(4) . . .
52(4) . . .
54(4) . . .
49(4) . . .
54(4) . . .
48(4) . . .
60(4) . . .
60(4) . . .
67(5) . . .
56(4) . . .
54(4) . . .
70(5) . . .
45(4) . . .
58(4) . . .
62(4) . . .
67(4) . . .
60(4) . . .
49(4) . . .
50(4) . . .
57(4) . . .
54(4) . . .
61(4) . . .
59(4) . . .
66(4) . . .
62(4) . . .
62(4) . . .
52(4) . . .
67(5) . . .
57(4) . . .
57(4) . . .
52(4) . . .
56(4) . . .
47(4) . . .
50(4) . . .
60(4) . . .
53(4) . . .
51(4) . . .
47(4) . . .
49(4) . . .
56(4) . . .
55(4) . . .
50(4) . . .
61(4) . . .
62(4) . . .
42.8(34) . . .
55(4) . . .
51(4) . . .
65(4) . . .
58(4) . . .
48(4) . . .
57(4) . . .
54(4) . . .
50(4) . . .
53(4) . . .
55(4) . . .
57(4) . . .
57(4) . . .
45(4) . . .
64(4) . . .
60(4) . . .
58(4) . . .
57(4) . . .
67(4) . . .
51(4) . . .
58(4) . . .
53(4) . . .
59(4) . . .
48(4) . . .
46(4) . . .
51(4) . . .
51(4) . . .
45(4) . . .
54(4) . . .
56(4) . . .
45(4) . . .
59(4) . . .
68(5) . . .
59(4) . . .
64(4) . . .
49(4) . . .
64(4) . . .
57(4) . . .
57(4) . . .
52(4) . . .
54(4) . . .
53(4) . . .
56(4) . . .
43.1(34) . . .
57(4) . . .
58(4) . . .
66(4) . . .
63(4) . . .
65(4) . . .
55(4) . . .
50(4) . . .
52(4) . . .
54(4) . . .
61(4) . . .
63(4) . . .
57(4) . . .
61(4) . . .
56(4) . . .
62(4) . . .
55(4) . . .
61(4) . . .
48(4) . . .
52(4) . . .
48(4) . . .
53(4) . . .
59(4) . . .
63(4) . . .
61(4) . . .
53(4) . . .
59(4) . . .
56(4) . . .
57(4) . . .
47(4) . . .
50(4) . . .
56(4) . . .
59(4) . . .
57(4) . . .
57(4) . . .
51(4) . . .
49(4) . . .
47(4) . . .
54(4) . . .
48(4) . . .
55(4) . . .
59(4) . . .
53(4) . . .
53(4) . . .
48(4) . . .
60(4) . . .
57(4) . . .
62(4) . . .
60(4) . . .
53(4) . . .
51(4) . . .
52(4) . . .
49(4) . . .
55(4) . . .
53(4) . . .
56(4) . . .
56(4) . . .
45(4) . . .
59(4) . . .
53(4) . . .
53(4) . . .
47(4) . . .
56(4) . . .
55(4) . . .
60(4) . . .
64(4) . . .
51(4) . . .
60(4) . . .
52(4) . . .
62(4) . . .
54(4) . . .
63(4) . . .
48(4) . . .
54(4) . . .
59(4) . . .
58(4) . . .
55(4) . . .
57(4) . . .
58(4) . . .
49(4) . . .
54(4) . . .
61(4) . . .
61(4) . . .
57(4) . . .
55(4) . . .
63(4) . . .
54(4) . . .
52(4) . . .
53(4) . . .
59(4) . . .
57(4) . . .
46(4) . . .
41.9(35) . . .
46(4) . . .
58(4) . . .
54(4) . . .
46(4) . . .
59(4) . . .
55(4) . . .
58(4) . . .
52(4) . . .
51(4) . . .
60(4) . . .
57(4) . . .
53(4) . . .
60(4) . . .
60(4) . . .
56(4) . . .
51(4) . . .
64(4) . . .
71(4) . . .
63(4) . . .
57(4) . . .
73(5) . . .
70(4) . . .
59(4) . . .
53(4) . . .
55(4) . . .
61(4) . . .
59(4) . . .
61(4) . . .
51(4) . . .
56(4) . . .
58(4) . . .
55(4) . . .
58(4) . . .
48(4) . . .
62(4) . . .
49(4) . . .
53(4) . . .
55(4) . . .
56(4) . . .
53(4) . . .
43.3(34) . . .
53(4) . . .
59(4) . . .
47(4) . . .
53(4) . . .
59(4) . . .
50(4) . . .
59(4) . . .
53(4) . . .
42.8(34) . . .
61(4) . . .
61(4) . . .
53(4) . . .
51(4) . . .
61(4) . . .
62(4) . . .
54(4) . . .
57(4) . . .
52(4) . . .
53(4) . . .
56(4) . . .
59(4) . . .
47(4) . . .
54(4) . . .
64(5) . . .
57(4) . . .
56(4) . . .
55(4) . . .
61(4) . . .
53(4) . . .
54(4) . . .
50(4) . . .
71(5) . . .
67(4) . . .
52(4) . . .
62(4) . . .
49(4) . . .
63(4) . . .
61(4) . . .
61(4) . . .
58(4) . . .
53(4) . . .
49(4) . . .
52(4) . . .
47(4) . . .
53(4) . . .
60(4) . . .
59(4) . . .
54(4) . . .
51(4) . . .
64(4) . . .
57(4) . . .
59(4) . . .
59(4) . . .
52(4) . . .
58(4) . . .
60(4) . . .
56(4) . . .
56(4) . . .
62(4) . . .
52(4) . . .
56(4) . . .
53(4) . . .
59(4) . . .
58(4) . . .
59(4) . . .
63(4) . . .
54(4) . . .
53(4) . . .
63(4) . . .
55(4) . . .
55(4) . . .
50(4) . . .
61(4) . . .
49(4) . . .
56(4) . . .
54(4) . . .
55(4) . . .
60(4) . . .
59(4) . . .
55(4) . . .
57(4) . . .
56(4) . . .
47(4) . . .
58(4) . . .
66(4) . . .
55(4) . . .
57(4) . . .
55(4) . . .
54(4) . . .
68(5) . . .
52(4) . . .
51(4) . . .
50(4) . . .
59(4) . . .
54(4) . . .
53(4) . . .
53(4) . . .
51(4) . . .
59(4) . . .
64(4) . . .
66(5) . . .
70(5) . . .
57(4) . . .
53(4) . . .
47(4) . . .
51(4) . . .
51(4) . . .
44(4) . . .
47(4) . . .
48(4) . . .
62(4) . . .
68(4) . . .
64(4) . . .
55(4) . . .
59(4) . . .
54(4) . . .
62(4) . . .
60(4) . . .
59(4) . . .
60(4) . . .
52(4) . . .
59(4) . . .
63(4) . . .
51(4) . . .
69(5) . . .
61(4) . . .
56(4) . . .
54(4) . . .
56(4) . . .
57(4) . . .
57(4) . . .
63(4) . . .
60(4) . . .
46(4) . . .
68(4) . . .
60(4) . . .
53(4) . . .
53(4) . . .
61(4) . . .
57(4) . . .
50(4) . . .
57(4) . . .
53(4) . . .
53(4) . . .
57(4) . . .
54(4) . . .
60(4) . . .
63(4) . . .
52(4) . . .
54(4) . . .
66(4) . . .
61(4) . . .
54(4) . . .
64(4) . . .
55(4) . . .
63(4) . . .
44.2(35) . . .
48(4) . . .
54(4) . . .
58(4) . . .
57(4) . . .
67(4) . . .
61(4) . . .
48(4) . . .
60(4) . . .
52(4) . . .
52(4) . . .
47(4) . . .
61(4) . . .
54(4) . . .
56(4) . . .
43.3(34) . . .
56(4) . . .
53(4) . . .
61(4) . . .
46(4) . . .
52(4) . . .
57(4) . . .
46(4) . . .
52(4) . . .
52(4) . . .
57(4) . . .
58(4) . . .
51(4) . . .
50(4) . . .
52(4) . . .
58(4) . . .
51(4) . . .
61(4) . . .
48(4) . . .
52(4) . . .
64(4) . . .
65(4) . . .
56(4) . . .
55(4) . . .
49(4) . . .
59(4) . . .
62(4) . . .
53(4) . . .
44(4) . . .
46(4) . . .
60(4) . . .
68(4) . . .
54(4) . . .
56(4) . . .
55(4) . . .
63(4) . . .
59(4) . . .
60(4) . . .
60(4) . . .
60(4) . . .
49(4) . . .
55(4) . . .
48(4) . . .
54(4) . . .
60(4) . . .
64(4) . . .
48(4) . . .
54(4) . . .
63(4) . . .
71(4) . . .
57(4) . . .
56(4) . . .
51(4) . . .
66(5) . . .
55(4) . . .
53(4) . . .
54(4) . . .
69(5) . . .
66(4) . . .
57(4) . . .
60(4) . . .
58(4) . . .
50(4) . . .
48(4) . . .
47(4) . . .
53(4) . . .
55(4) . . .
64(4) . . .
51(4) . . .
53(4) . . .
60(4) . . .
49(4) . . .
54(4) . . .
53(4) . . .
62(4) . . .
62(4) . . .
56(4) . . .
46(4) . . .
46(4) . . .
44.0(35) . . .
63(5) . . .
59(4) . . .
59(4) . . .
61(4) . . .
47(4) . . .
64(4) . . .
51(4) . . .
58(4) . . .
58(4) . . .
59(4) . . .
57(4) . . .
66(5) . . .
53(4) . . .
57(4) . . .
54(4) . . .
57(4) . . .
57(4) . . .
64(4) . . .
56(4) . . .
57(4) . . .
61(4) . . .
59(4) . . .
48(4) . . .
51(4) . . .
60(4) . . .
56(4) . . .
54(4) . . .
59(4) . . .
59(4) . . .
61(4) . . .
52(4) . . .
55(4) . . .
65(4) . . .
57(4) . . .
51(4) . . .
58(4) . . .
67(4) . . .
61(4) . . .
59(4) . . .
67(4) . . .
53(4) . . .
60(4) . . .
55(4) . . .
58(4) . . .
47(4) . . .
60(4) . . .
56(4) . . .
43.8(34) . . .
62(4) . . .
58(4) . . .
60(4) . . .
64(5) . . .
51(4) . . .
59(4) . . .
61(4) . . .
66(5) . . .
57(4) . . .
56(4) . . .
54(4) . . .
59(4) . . .
49(4) . . .
56(4) . . .
47(4) . . .
53(4) . . .
60(4) . . .
55(4) . . .
63(4) . . .
49(4) . . .
68(4) . . .
67(4) . . .
55(4) . . .
60(4) . . .
53(4) . . .
50(4) . . .
61(4) . . .
51(4) . . .
57(4) . . .
56(4) . . .
42.3(35) . . .
56(4) . . .
54(4) . . .
65(4) . . .
58(4) . . .
56(4) . . .
48(4) . . .
54(4) . . .
47(4) . . .
61(4) . . .
51(4) . . .
57(4) . . .
56(4) . . .
62(4) . . .
50(4) . . .
48(4) . . .
60(4) . . .
52(4) . . .
58(4) . . .
62(4) . . .
44.0(35) . . .
50(4) . . .
60(4) . . .
56(4) . . .
55(4) . . .
57(4) . . .
52(4) . . .
55(4) . . .
48(4) . . .
54(4) . . .
64(4) . . .
61(4) . . .
58(4) . . .
56(4) . . .
70(4) . . .
52(4) . . .
55(4) . . .
66(4) . . .
50(4) . . .
52(4) . . .
74(5) . . .
57(4) . . .
52(4) . . .
60(4) . . .
54(4) . . .
59(4) . . .
54(4) . . .
58(4) . . .
61(4) . . .
56(4) . . .
52(4) . . .
45.6(35) . . .
60(4) . . .
60(4) . . .
61(4) . . .
58(4) . . .
65(4) . . .
55(4) . . .
65(4) . . .
58(4) . . .
50(4) . . .
49(4) . . .
51(4) . . .
51(4) . . .
56(4) . . .
52(4) . . .
53(4) . . .
67(4) . . .
49(4) . . .
48(4) . . .
64(4) . . .
60(4) . . .
54(4) . . .
60(4) . . .
61(4) . . .
53(4) . . .
45(4) . . .
48(4) . . .
50(4) . . .
56(4) . . .
62(4) . . .
53(4) . . .
71(4) . . .
60(4) . . .
60(4) . . .
55(4) . . .
53(4) . . .
45.3(35) . . .
54(4) . . .
59(4) . . .
70(5) . . .
61(4) . . .
59(4) . . .
59(4) . . .
47(4) . . .
56(4) . . .
62(4) . . .
56(4) . . .
52(4) . . .
51(4) . . .
63(4) . . .
47(4) . . .
63(4) . . .
62(4) . . .
64(4) . . .
44(4) . . .
53(4) . . .
54(4) . . .
56(4) . . .
57(4) . . .
56(4) . . .
63(4) . . .
53(4) . . .
57(4) . . .
63(4) . . .
53(4) . . .
52(4) . . .
52(4) . . .
65(4) . . .
56(4) . . .
51(4) . . .
53(4) . . .
53(4) . . .
58(4) . . .
67(5) . . .
59(4) . . .
65(4) . . .
57(4) . . .
47(4) . . .
51(4) . . .
63(4) . . .
57(4) . . .
58(4) . . .
53(4) . . .
51(4) . . .
48(4) . . .
61(4) . . .
61(4) . . .
50(4) . . .
55(4) . . .
56(4) . . .
61(4) . . .
56(4) . . .
61(4) . . .
58(4) . . .
55(4) . . .
47(4) . . .
55(4) . . .
54(4) . . .
64(4) . . .
64(4) . . .
59(4) . . .
68(4) . . .
57(4) . . .
54(4) . . .
56(4) . . .
59(4) . . .
53(4) . . .
60(4) . . .
55(4) . . .
65(4) . . .
66(4) . . .
53(4) . . .
61(4) . . .
62(4) . . .
65(4) . . .
66(4) . . .
50(4) . . .
53(4) . . .
54(4) . . .
62(4) . . .
51(4) . . .
53(4) . . .
53(4) . . .
55(4) . . .
50(4) . . .
56(4) . . .
54(4) . . .
49(4) . . .
54(4) . . .
61(4) . . .
50(4) . . .
50(4) . . .
67(5) . . .
50(4) . . .
62(4) . . .
58(4) . . .
56(4) . . .
56(4) . . .
56(4) . . .
63(4) . . .
58(4) . . .
64(4) . . .
65(4) . . .
60(4) . . .
61(4) . . .
57(4) . . .
63(4) . . .
64(5) . . .
52(4) . . .
52(4) . . .
54(4) . . .
70(5) . . .
62(4) . . .
46(4) . . .
57(4) . . .
59(4) . . .
61(4) . . .
61(4) . . .
56(4) . . .
52(4) . . .
46(4) . . .
56(4) . . .
59(4) . . .
53(4) . . .
55(4) . . .
58(4) . . .
51(4) . . .
58(4) . . .
65(4) . . .
62(4) . . .
59(4) . . .
53(4) . . .
62(4) . . .
47(4) . . .
61(4) . . .
64(4) . . .
53(4) . . .
66(4) . . .
58(4) . . .
50(4) . . .
55(4) . . .
54(4) . . .
47(4) . . .
51(4) . . .
58(4) . . .
60(4) . . .
62(4) . . .
57(4) . . .
65(4) . . .
56(4) . . .
46(4) . . .
51(4) . . .
49(4) . . .
63(4) . . .
56(4) . . .
60(4) . . .
67(4) . . .
52(4) . . .
50(4) . . .
59(4) . . .
52(4) . . .
53(4) . . .
51(4) . . .
58(4) . . .
55(4) . . .
51(4) . . .
57(4) . . .
53(4) . . .
51(4) . . .
49(4) . . .
57(4) . . .
59(4) . . .
57(4) . . .
54(4) . . .
61(4) . . .
53(4) . . .
63(4) . . .
52(4) . . .
41.5(34) . . .
68(5) . . .
55(4) . . .
62(4) . . .
67(4) . . .
57(4) . . .
65(4) . . .
49(4) . . .
56(4) . . .
52(4) . . .
49(4) . . .
64(4) . . .
56(4) . . .
55(4) . . .
53(4) . . .
60(4) . . .
57(4) . . .
57(4) . . .
57(4) . . .
43.5(34) . . .
51(4) . . .
63(4) . . .
51(4) . . .
57(4) . . .
60(4) . . .
57(4) . . .
62(4) . . .
53(4) . . .
54(4) . . .
52(4) . . .
61(4) . . .
52(4) . . .
55(4) . . .
62(4) . . .
53(4) . . .
53(4) . . .
51(4) . . .
53(4) . . .
49(4) . . .
48(4) . . .
57(4) . . .
51(4) . . .
69(5) . . .
52(4) . . .
62(4) . . .
55(4) . . .
53(4) . . .
51(4) . . .
46.1(35) . . .
53(4) . . .
63(4) . . .
54(4) . . .
59(4) . . .
50(4) . . .
58(4) . . .
53(4) . . .
55(4) . . .
51(4) . . .
57(4) . . .
57(4) . . .
51(4) . . .
54(4) . . .
57(4) . . .
55(4) . . .
56(4) . . .
55(4) . . .
66(5) . . .
60(4) . . .
54(4) . . .
50(4) . . .
56(4) . . .
48(4) . . .
49(4) . . .
59(4) . . .
51(4) . . .
44.4(35) . . .
49(4) . . .
50(4) . . .
58(4) . . .
52(4) . . .
49(4) . . .
51(4) . . .
55(4) . . .
56(4) . . .
52(4) . . .
46.9(35) . . .
54(4) . . .
51(4) . . .
54(4) . . .
50(4) . . .
48(4) . . .
53(4) . . .
59(4) . . .
59(4) . . .
55(4) . . .
59(4) . . .
58(4) . . .
47(4) . . .
39.6(33) . . .
51(4) . . .
55(4) . . .
54(4) . . .
50(4) . . .
52(4) . . .
54(4) . . .
48(4) . . .
56(4) . . .
61(4) . . .
60(4) . . .
60(4) . . .
63(4) . . .
64(4) . . .
60(4) . . .
49(4) . . .
40.9(34) . . .
49(4) . . .
53(4) . . .
59(4) . . .
51(4) . . .
42.8(34) . . .
62(4) . . .
67(4) . . .
57(4) . . .
55(4) . . .
55(4) . . .
55(4) . . .
62(5) . . .
54(4) . . .
54(4) . . .
62(4) . . .
54(4) . . .
56(4) . . .
57(4) . . .
58(4) . . .
51(4) . . .
47(4) . . .
55(4) . . .
63(4) . . .
59(4) . . .
47(4) . . .
49(4) . . .
63(4) . . .
53(4) . . .
53(4) . . .
61(4) . . .
64(4) . . .
49(4) . . .
53(4) . . .
50(4) . . .
52(4) . . .
55(4) . . .
55(4) . . .
53(4) . . .
55(4) . . .
60(4) . . .
51(4) . . .
56(4) . . .
64(4) . . .
54(4) . . .
56(4) . . .
58(4) . . .
60(4) . . .
54(4) . . .
55(4) . . .
54(4) . . .
54(4) . . .
44.0(35) . . .
53(4) . . .
50(4) . . .
54(4) . . .
65(4) . . .
47(4) . . .
53(4) . . .
53(4) . . .
64(4) . . .
55(4) . . .
49(4) . . .
67(5) . . .
74(5) . . .
60(4) . . .
59(4) . . .
54(4) . . .
55(4) . . .
60(4) . . .
58(4) . . .
64(4) . . .
62(4) . . .
49(4) . . .
65(5) . . .
64(4) . . .
59(4) . . .
64(4) . . .
58(4) . . .
63(5) . . .
62(4) . . .
60(4) . . .
65(4) . . .
58(4) . . .
60(4) . . .
58(4) . . .
58(4) . . .
59(4) . . .
49(4) . . .
54(4) . . .
52(4) . . .
66(4) . . .
56(4) . . .
45.8(35) . . .
58(4) . . .
55(4) . . .
69(4) . . .
62(4) . . .
53(4) . . .
61(4) . . .
62(4) . . .
53(4) . . .
45(4) . . .
51(4) . . .
50(4) . . .
62(4) . . .
47(4) . . .
65(4) . . .
62(4) . . .
51(4) . . .
53(4) . . .
54(4) . . .
53(4) . . .
58(4) . . .
50(4) . . .
54(4) . . .
51(4) . . .
62(4) . . .
59(4) . . .
50(4) . . .
58(4) . . .
53(4) . . .
48(4) . . .
47(4) . . .
48(4) . . .
61(4) . . .
63(4) . . .
59(4) . . .
53(4) . . .
53(4) . . .
57(4) . . .
61(4) . . .
59(4) . . .
54(4) . . .
53(4) . . .
53(4) . . .
56(4) . . .
56(4) . . .
55(4) . . .
59(4) . . .
59(4) . . .
61(4) . . .
56(4) . . .
48(4) . . .
50(4) . . .
37.1(31) . . .
49(4) . . .
56(4) . . .
60(4) . . .
58(4) . . .
56(4) . . .
45(4) . . .
65(4) . . .
60(4) . . .
57(4) . . .
55(4) . . .
60(4) . . .
58(4) . . .
60(4) . . .
52(4) . . .
54(4) . . .
65(4) . . .
57(4) . . .
57(4) . . .
47(4) . . .
53(4) . . .
56(4) . . .
53(4) . . .
57(4) . . .
54(4) . . .
53(4) . . .
58(4) . . .
51(4) . . .
67(4) . . .
63(4) . . .
54(4) . . .
53(4) . . .
53(4) . . .
61(4) . . .
60(4) . . .
55(4) . . .
54(4) . . .
52(4) . . .
53(4) . . .
58(4) . . .
58(4) . . .
54(4) . . .
60(4) . . .
50(4) . . .
57(4) . . .
42.3(33) . . .
49(4) . . .
45(4) . . .
52(4) . . .
58(4) . . .
58(4) . . .
58(4) . . .
52(4) . . .
61(4) . . .
55(4) . . .
45(4) . . .
58(4) . . .
54(4) . . .
53(4) . . .
49(4) . . .
54(4) . . .
55(4) . . .
58(4) . . .
66(5) . . .
44.9(35) . . .
49(4) . . .
59(4) . . .
60(4) . . .
49(4) . . .
53(4) . . .
44(4) . . .
53(4) . . .
47(4) . . .
51(4) . . .
65(4) . . .
56(4) . . .
59(4) . . .
57(4) . . .
60(4) . . .
57(4) . . .
61(4) . . .
59(4) . . .
70(5) . . .
57(4) . . .
47(4) . . .
50(4) . . .
41(4) . . .
43.4(35) . . .
62(4) . . .
51(4) . . .
48(4) . . .
60(4) . . .
53(4) . . .
51(4) . . .
47(4) . . .
52(4) . . .
48(4) . . .
51(4) . . .
64(4) . . .
49(4) . . .
64(4) . . .
64(5) . . .
60(4) . . .
58(4) . . .
63(4) . . .
60(4) . . .
58(4) . . .
61(4) . . .
68(4) . . .
53(4) . . .
56(4) . . .
54(4) . . .
52(4) . . .
63(4) . . .
53(4) . . .
47(4) . . .
61(4) . . .
49(4) . . .
47(4) . . .
60(4) . . .
56(4) . . .
51(4) . . .
57(4) . . .
57(4) . . .
61(4) . . .
50(4) . . .
59(4) . . .
56(4) . . .
58(4) . . .
68(4) . . .
62(4) . . .
65(4) . . .
56(4) . . .
57(4) . . .
65(4) . . .
51(4) . . .
51(4) . . .
53(4) . . .
59(4) . . .
60(4) . . .
55(4) . . .
60(4) . . .
54(4) . . .
42.7(34) . . .
49(4) . . .
58(4) . . .
56(4) . . .
71(4) . . .
66(4) . . .
67(5) . . .
70(5) . . .
50(4) . . .
61(4) . . .
56(4) . . .
52(4) . . .
61(5) . . .
44(4) . . .
60(4) . . .
62(4) . . .
58(4) . . .
55(4) . . .
48(4) . . .
54(4) . . .
56(4) . . .
60(4) . . .
49(4) . . .
53(4) . . .
56(4) . . .
52(4) . . .
64(4) . . .
66(4) . . .
57(4) . . .
49(4) . . .
57(4) . . .
61(4) . . .
49(4) . . .
54(4) . . .
48(4) . . .
45.8(35) . . .
55(4) . . .
50(4) . . .
49(4) . . .
53(4) . . .
54(4) . . .
55(4) . . .
55(4) . . .
58(4) . . .
55(4) . . .
60(4) . . .
60(5) . . .
58(4) . . .
51(4) . . .
55(4) . . .
46.3(35) . . .
57(4) . . .
59(4) . . .
61(4) . . .
58(4) . . .
45(4) . . .
49(4) . . .
56(4) . . .
46(4) . . .
61(4) . . .
58(4) . . .
65(5) . . .
68(4) . . .
52(4) . . .
54(4) . . .
54(4) . . .
60(4) . . .
53(4) . . .
51(4) . . .
60(4) . . .
60(4) . . .
50(4) . . .
54(4) . . .
56(4) . . .
48(4) . . .
52(4) . . .
54(4) . . .
57(4) . . .
57(4) . . .
60(4) . . .
58(4) . . .
57(4) . . .
58(4) . . .
62(4) . . .
60(4) . . .
55(4) . . .
48(4) . . .
54(4) . . .
63(4) . . .
68(4) . . .
56(4) . . .
68(4) . . .
60(4) . . .
55(4) . . .
46(4) . . .
57(4) . . .
46(4) . . .
53(4) . . .
48(4) . . .
61(4) . . .
65(4) . . .
50(4) . . .
54(4) . . .
58(4) . . .
53(4) . . .
47(4) . . .
65(4) . . .
54(4) . . .
54(4) . . .
62(4) . . .
49(4) . . .
48(4) . . .
57(4) . . .
65(4) . . .
52(4) . . .
57(4) . . .
65(4) . . .
58(4) . . .
52(4) . . .
60(4) . . .
62(5) . . .
47(4) . . .
44.2(34) . . .
63(4) . . .
53(4) . . .
55(4) . . .
60(4) . . .
52(4) . . .
51(4) . . .
56(4) . . .
55(4) . . .
46(4) . . .
53(4) . . .
60(4) . . .
59(4) . . .
53(4) . . .
57(4) . . .
60(4) . . .
59(4) . . .
62(5) . . .
44.2(34) . . .
55(4) . . .
63(4) . . .
61(4) . . .
63(4) . . .
48(4) . . .
57(4) . . .
60(4) . . .
50(4) . . .
56(4) . . .
54(4) . . .
65(4) . . .
58(4) . . .
53(4) . . .
52(4) . . .
59(4) . . .
69(4) . . .
66(4) . . .
59(4) . . .
56(4) . . .
60(4) . . .
58(4) . . .
56(4) . . .
48(4) . . .
57(4) . . .
69(4) . . .
63(4) . . .
52(4) . . .
48(4) . . .
48(4) . . .
55(4) . . .
58(4) . . .
55(4) . . .
52(4) . . .
61(4) . . .
52(4) . . .
55(4) . . .
50(4) . . .
56(4) . . .
56(4) . . .
51(4) . . .
52(4) . . .
52(4) . . .
47(4) . . .
48(4) . . .
58(4) . . .
60(4) . . .
59(4) . . .
64(4) . . .
55(4) . . .
53(4) . . .
51(4) . . .
64(4) . . .
47(4) . . .
55(4) . . .
58(4) . . .
62(4) . . .
55(4) . . .
67(5) . . .
61(4) . . .
58(4) . . .
48(4) . . .
56(4) . . .
49(4) . . .
56(4) . . .
57(4) . . .
53(4) . . .
58(4) . . .
50(4) . . .
56(4) . . .
60(4) . . .
59(4) . . .
72(5) . . .
61(4) . . .
49(4) . . .
54(4) . . .
59(4) . . .
67(4) . . .
54(4) . . .
57(4) . . .
53(4) . . .
57(4) . . .
69(5) . . .
58(4) . . .
46(4) . . .
57(4) . . .
59(4) . . .
53(4) . . .
64(5) . . .
58(4) . . .
50(4) . . .
63(4) . . .
64(4) . . .
57(4) . . .
53(4) . . .
54(4) . . .
58(4) . . .
55(4) . . .
57(4) . . .
55(4) . . .
63(4) . . .
54(4) . . .
65(4) . . .
56(4) . . .
56(4) . . .
54(4) . . .
59(4) . . .
56(4) . . .
59(4) . . .
59(4) . . .
64(4) . . .
56(4) . . .
67(4) . . .
58(4) . . .
62(4) . . .
48(4) . . .
57(4) . . .
66(5) . . .
57(4) . . .
65(4) . . .
62(4) . . .
58(4) . . .
57(4) . . .
57(4) . . .
54(4) . . .
53(4) . . .
49(4) . . .
59(4) . . .
61(4) . . .
55(4) . . .
54(4) . . .
60(4) . . .
54(4) . . .
59(4) . . .
60(4) . . .
61(4) . . .
54(4) . . .
55(4) . . .
61(4) . . .
60(4) . . .
51(4) . . .
60(4) . . .
58(4) . . .
57(4) . . .
56(4) . . .
59(4) . . .
63(4) . . .
55(4) . . .
55(4) . . .
56(4) . . .
56(4) . . .
58(4) . . .
48(4) . . .
58(4) . . .
57(4) . . .
56(4) . . .
51(4) . . .
64(5) . . .
57(4) . . .
51(4) . . .
62(4) . . .
62(4) . . .
51(4) . . .
58(4) . . .
61(4) . . .
50(4) . . .
48(4) . . .
45(4) . . .
51(4) . . .
45.1(35) . . .
54(4) . . .
53(4) . . .
58(4) . . .
54(4) . . .
58(4) . . .
47.3(35) . . .
54(4) . . .
49(4) . . .
51(4) . . .
44.7(35) . . .
48(4) . . .
48(4) . . .
47(4) . . .
55(4) . . .
57(4) . . .
60(4) . . .
49(4) . . .
58(4) . . .
58(4) . . .
45(4) . . .
44(4) . . .
55(4) . . .
51(4) . . .
55(4) . . .
61(4) . . .
57(4) . . .
55(4) . . .
63(4) . . .
56(4) . . .
48(4) . . .
59(4) . . .
52(4) . . .
58(4) . . .
56(4) . . .
55(4) . . .
54(4) . . .
52(4) . . .
59(4) . . .
54(4) . . .
52(4) . . .
56(4) . . .
49(4) . . .
46(4) . . .
48(4) . . .
55(4) . . .
53(4) . . .
60(4) . . .
52(4) . . .
59(4) . . .
57(4) . . .
68(5) . . .
49(4) . . .
60(4) . . .
53(4) . . .
47(4) . . .
47(4) . . .
55(4) . . .
54(4) . . .
55(4) . . .
54(4) . . .
45(4) . . .
48(4) . . .
50(4) . . .
63(4) . . .
58(4) . . .
53(4) . . .
53(4) . . .
47(4) . . .
52(4) . . .
49(4) . . .
53(4) . . .
39.2(32) . . .
55(4) . . .
55(4) . . .
50(4) . . .
49(4) . . .
56(4) . . .
58(4) . . .
55(4) . . .
51(4) . . .
56(4) . . .
53(4) . . .
53(4) . . .
55(4) . . .
54(4) . . .
62(4) . . .
62(4) . . .
68(4) . . .
62(4) . . .
56(4) . . .
54(4) . . .
52(4) . . .
47(4) . . .
57(4) . . .
59(4) . . .
61(4) . . .
55(4) . . .
61(4) . . .
64(4) . . .
52(4) . . .
56(4) . . .
64(4) . . .
62(4) . . .
54(4) . . .
55(4) . . .
59(4) . . .
62(4) . . .
57(4) . . .
52(4) . . .
54(4) . . .
42.1(34) . . .
56(4) . . .
52(4) . . .
50(4) . . .
56(4) . . .
45(4) . . .
43.6(34) . . .
55(4) . . .
59(4) . . .
59(4) . . .
54(4) . . .
58(4) . . .
52(4) . . .
58(4) . . .
60(4) . . .
55(4) . . .
51(4) . . .
51(4) . . .
58(4) . . .
58(4) . . .
50(4) . . .
57(4) . . .
59(4) . . .
62(4) . . .
51(4) . . .
48(4) . . .
47(4) . . .
54(4) . . .
54(4) . . .
60(4) . . .
54(4) . . .
49(4) . . .
50(4) . . .
50(4) . . .
60(4) . . .
55(4) . . .
62(4) . . .
51(4) . . .
56(4) . . .
52(4) . . .
54(4) . . .
60(4) . . .
54(4) . . .
50(4) . . .
49(4) . . .
54(4) . . .
57(4) . . .
54(4) . . .
57(4) . . .
49(4) . . .
55(4) . . .
58(4) . . .
53(4) . . .
51(4) . . .
59(4) . . .
62(4) . . .
61(4) . . .
59(4) . . .
58(4) . . .
52(4) . . .
49(4) . . .
49(4) . . .
66(5) . . .
44(4) . . .
48(4) . . .
51(4) . . .
59(4) . . .
49(4) . . .
54(4) . . .
55(4) . . .
61(4) . . .
57(4) . . .
59(4) . . .
53(4) . . .
48(4) . . .
66(4) . . .
47(4) . . .
50(4) . . .
61(4) . . .
61(4) . . .
54(4) . . .
60(4) . . .
62(4) . . .
58(4) . . .
51(4) . . .
55(4) . . .
52(4) . . .
58(4) . . .
54(4) . . .
59(4) . . .
48(4) . . .
67(4) . . .
64(4) . . .
53(4) . . .
64(4) . . .
57(4) . . .
55(4) . . .
53(4) . . .
44(4) . . .
58(4) . . .
60(4) . . .
54(4) . . .
58(4) . . .
51(4) . . .
56(4) . . .
60(4) . . .
60(4) . . .
54(4) . . .
53(4) . . .
51(4) . . .
46(4) . . .
57(4) . . .
61(4) . . .
58(4) . . .
53(4) . . .
53(4) . . .
55(4) . . .
60(4) . . .
61(4) . . .
58(4) . . .
60(4) . . .
45(4) . . .
53(4) . . .
54(4) . . .
61(4) . . .
64(4) . . .
53(4) . . .
64(4) . . .
54(4) . . .
65(4) . . .
57(4) . . .
53(4) . . .
55(4) . . .
63(4) . . .
59(4) . . .
68(4) . . .
50(4) . . .
60(4) . . .
60(4) . . .
55(4) . . .
60(4) . . .
46(4) . . .
52(4) . . .
51(4) . . .
56(4) . . .
60(4) . . .
59(4) . . .
57(4) . . .
54(4) . . .
48(4) . . .
55(4) . . .
46(4) . . .
57(4) . . .
73(4) . . .
63(4) . . .
50(4) . . .
50(4) . . .
48(4) . . .
61(4) . . .
62(4) . . .
60(4) . . .
65(5) . . .
51(4) . . .
50(4) . . .
53(4) . . .
57(4) . . .
52(4) . . .
52(4) . . .
63(4) . . .
56(4) . . .
49(4) . . .
53(4) . . .
57(4) . . .
57(4) . . .
60(4) . . .
62(5) . . .
60(4) . . .
43.2(35) . . .
51(4) . . .
54(4) . . .
54(4) . . .
51(4) . . .
67(4) . . .
52(4) . . .
48(4) . . .
63(5) . . .
61(4) . . .
58(4) . . .
50(4) . . .
47(4) . . .
60(4) . . .
55(4) . . .
52(4) . . .
58(4) . . .
67(5) . . .
59(4) . . .
55(4) . . .
55(4) . . .
51(4) . . .
53(4) . . .
58(4) . . .
53(4) . . .
51(4) . . .
61(4) . . .
61(4) . . .
61(4) . . .
55(4) . . .
55(4) . . .
67(5) . . .
57(4) . . .
62(4) . . .
56(4) . . .
66(4) . . .
53(4) . . .
53(4) . . .
45(4) . . .
44(4) . . .
58(4) . . .
53(4) . . .
56(4) . . .
56(4) . . .
62(4) . . .
54(4) . . .
57(4) . . .
58(4) . . .
53(4) . . .
52(4) . . .
56(4) . . .
57(4) . . .
45(4) . . .
63(4) . . .
58(4) . . .
51(4) . . .
66(4) . . .
60(4) . . .
54(4) . . .
54(4) . . .
55(4) . . .
56(4) . . .
59(4) . . .
63(4) . . .
61(4) . . .
53(4) . . .
51(4) . . .
54(4) . . .
49(4) . . .
46(4) . . .
47(4) . . .
50(4) . . .
48(4) . . .
47(4) . . .
54(4) . . .
62(4) . . .
53(4) . . .
55(4) . . .
57(4) . . .
67(4) . . .
57(4) . . .
48(4) . . .
59(4) . . .
59(4) . . .
54(4) . . .
53(4) . . .
63(4) . . .
55(4) . . .
56(4) . . .
62(4) . . .
62(4) . . .
59(4) . . .
63(4) . . .
49(4) . . .
51(4) . . .
42.2(34) . . .
59(4) . . .
62(4) . . .
56(4) . . .
55(4) . . .
55(4) . . .
58(4) . . .
66(4) . . .
53(4) . . .
54(4) . . .
50(4) . . .
52(4) . . .
45(4) . . .
51(4) . . .
60(4) . . .
56(4) . . .
41(4) . . .
53(4) . . .
63(4) . . .
51(4) . . .
49(4) . . .
59(4) . . .
48(4) . . .
56(4) . . .
50(4) . . .
51(4) . . .
55(4) . . .
64(4) . . .
49(4) . . .
51(4) . . .
50(4) . . .
51(4) . . .
60(4) . . .
62(4) . . .
57(4) . . .
61(4) . . .
66(5) . . .
60(4) . . .
53(4) . . .
62(4) . . .
58(4) . . .
51(4) . . .
55(4) . . .
60(4) . . .
60(4) . . .
61(4) . . .
57(4) . . .
63(4) . . .
60(4) . . .
54(4) . . .
56(4) . . .
63(4) . . .
53(4) . . .
48(4) . . .
49(4) . . .
62(5) . . .
57(4) . . .
53(4) . . .
53(4) . . .
49(4) . . .
53(4) . . .
52(4) . . .
53(4) . . .
64(4) . . .
51(4) . . .
58(4) . . .
58(4) . . .
48(4) . . .
57(4) . . .
48(4) . . .
46(4) . . .
60(4) . . .
50(4) . . .
56(4) . . .
56(4) . . .
55(4) . . .
54(4) . . .
55(4) . . .
54(4) . . .
50(4) . . .
52(4) . . .
56(4) . . .
51(4) . . .
49(4) . . .
54(4) . . .
46(4) . . .
50(4) . . .
48(4) . . .
51(4) . . .
52(4) . . .
55(4) . . .
57(4) . . .
62(4) . . .
48(4) . . .
52(4) . . .
59(4) . . .
52(4) . . .
52(4) . . .
59(4) . . .
51(4) . . .
60(4) . . .
50(4) . . .
48(4) . . .
55(4) . . .
54(4) . . .
64(4) . . .
64(4) . . .
54(4) . . .
54(4) . . .
53(4) . . .
71(5) . . .
51(4) . . .
62(4) . . .
55(4) . . .
58(4) . . .
55(4) . . .
62(4) . . .
66(4) . . .
53(4) . . .
58(4) . . .
50(4) . . .
60(4) . . .
65(4) . . .
57(4) . . .
55(4) . . .
65(4) . . .
53(4) . . .
61(4) . . .
47(4) . . .
51(4) . . .
55(4) . . .
48(4) . . .
71(4) . . .
57(4) . . .
54(4) . . .
55(4) . . .
49(4) . . .
54(4) . . .
49(4) . . .
46(4) . . .
54(4) . . .
62(4) . . .
57(4) . . .
54(4) . . .
52(4) . . .
56(4) . . .
57(4) . . .
41.5(33) . . .
49(4) . . .
44(4) . . .
56(4) . . .
50(4) . . .
52(4) . . .
53(4) . . .
55(4) . . .
53(4) . . .
54(4) . . .
51(4) . . .
56(4) . . .
48(4) . . .
64(4) . . .
54(4) . . .
64(4) . . .
62(4) . . .
58(4) . . .
55(4) . . .
56(4) . . .
48(4) . . .
50(4) . . .
46(4) . . .
64(4) . . .
56(4) . . .
58(4) . . .
50(4) . . .
54(4) . . .
52(4) . . .
53(4) . . .
53(4) . . .
55(4) . . .
60(4) . . .
48(4) . . .
50(4) . . .
59(4) . . .
52(4) . . .
50(4) . . .
57(4) . . .
46(4) . . .
48(4) . . .
59(4) . . .
41.2(35) . . .
51(4) . . .
47(4) . . .
60(4) . . .
67(5) . . .
59(4) . . .
49(4) . . .
58(4) . . .
54(4) . . .
51(4) . . .
49(4) . . .
64(4) . . .
65(4) . . .
49(4) . . .
44(4) . . .
53(4) . . .
53(4) . . .
50(4) . . .
44(4) . . .
49(4) . . .
64(4) . . .
54(4) . . .
54(4) . . .
56(4) . . .
58(4) . . .
57(4) . . .
58(4) . . .
62(4) . . .
57(4) . . .
54(4) . . .
55(4) . . .
55(4) . . .
51(4) . . .
54(4) . . .
52(4) . . .
58(4) . . .
52(4) . . .
45(4) . . .
60(5) . . .
49(4) . . .
53(4) . . .
59(4) . . .
55(4) . . .
48(4) . . .
59(4) . . .
47(4) . . .
52(4) . . .
57(4) . . .
66(5) . . .
64(5) . . .
65(4) . . .
51(4) . . .
60(4) . . .
56(4) . . .
50(4) . . .
51(4) . . .
60(4) . . .
53(4) . . .
59(4) . . .
57(4) . . .
51(4) . . .
56(4) . . .
63(4) . . .
54(4) . . .
60(4) . . .
39.0(32) . . .
45(4) . . .
51(4) . . .
52(4) . . .
57(4) . . .
49(4) . . .
46(4) . . .
58(4) . . .
55(4) . . .
49(4) . . .
62(4) . . .
51(4) . . .
52(4) . . .
60(4) . . .
58(4) . . .
49(4) . . .
50(4) . . .
59(4) . . .
60(4) . . .
60(4) . . .
62(4) . . .
51(4) . . .
46(4) . . .
47(4) . . .
63(4) . . .
62(4) . . .
56(4) . . .
53(4) . . .
63(4) . . .
59(4) . . .
46(4) . . .
51(4) . . .
52(4) . . .
55(4) . . .
64(4) . . .
45(4) . . .
50(4) . . .
52(4) . . .
56(4) . . .
49(4) . . .
49(4) . . .
52(4) . . .
55(4) . . .
52(4) . . .
49(4) . . .
56(4) . . .
51(4) . . .
50(4) . . .
48(4) . . .
50(4) . . .
54(4) . . .
67(4) . . .
57(4) . . .
56(4) . . .
47(4) . . .
51(4) . . .
51(4) . . .
53(4) . . .
57(4) . . .
50(4) . . .
63(5) . . .
52(4) . . .
60(4) . . .
47(4) . . .
52(4) . . .
55(4) . . .
55(4) . . .
43.6(34) . . .
61(4) . . .
59(4) . . .
46(4) . . .
48(4) . . .
54(4) . . .
58(4) . . .
62(4) . . .
58(4) . . .
54(4) . . .
55(4) . . .
56(4) . . .
55(4) . . .
53(4) . . .
53(4) . . .
56(4) . . .
44.1(35) . . .
58(4) . . .
57(4) . . .
50(4) . . .
65(4) . . .
49(4) . . .
61(4) . . .
49(4) . . .
62(4) . . .
48(4) . . .
60(4) . . .
55(4) . . .
62(4) . . .
62(4) . . .
59(4) . . .
49(4) . . .
49(4) . . .
60(4) . . .
55(4) . . .
59(4) . . .
68(4) . . .
56(4) . . .
61(4) . . .
53(4) . . .
64(4) . . .
64(4) . . .
57(4) . . .
55(4) . . .
53(4) . . .
68(4) . . .
61(4) . . .
51(4) . . .
50(4) . . .
61(4) . . .
55(4) . . .
52(4) . . .
52(4) . . .
55(4) . . .
56(4) . . .
54(4) . . .
57(4) . . .
59(4) . . .
61(4) . . .
40.3(34) . . .
45(4) . . .
51(4) . . .
55(4) . . .
49(4) . . .
56(4) . . .
57(4) . . .
68(4) . . .
68(4) . . .
41.2(35) . . .
48(4) . . .
47(4) . . .
54(4) . . .
62(4) . . .
61(4) . . .
54(4) . . .
56(4) . . .
60(4) . . .
55(4) . . .
55(4) . . .
49(4) . . .
63(4) . . .
56(4) . . .
59(4) . . .
48(4) . . .
46(4) . . .
43.9(35) . . .
53(4) . . .
58(4) . . .
51(4) . . .
49(4) . . .
48(4) . . .
51(4) . . .
51(4) . . .
63(4) . . .
48(4) . . .
53(4) . . .
53(4) . . .
62(5) . . .
55(4) . . .
59(4) . . .
56(4) . . .
60(4) . . .
53(4) . . .
56(4) . . .
51(4) . . .
60(4) . . .
64(4) . . .
54(4) . . .
67(5) . . .
68(4) . . .
50(4) . . .
60(4) . . .
61(4) . . .
59(4) . . .
57(4) . . .
48(4) . . .
57(4) . . .
56(4) . . .
62(4) . . .
60(4) . . .
46(4) . . .
56(4) . . .
59(4) . . .
57(4) . . .
56(4) . . .
47(4) . . .
57(4) . . .
59(4) . . .
58(4) . . .
54(4) . . .
60(4) . . .
62(4) . . .
56(4) . . .
52(4) . . .
62(4) . . .
52(4) . . .
60(4) . . .
60(4) . . .
44.1(35) . . .
50(4) . . .
53(4) . . .
44(4) . . .
50(4) . . .
52(4) . . .
51(4) . . .
51(4) . . .
58(4) . . .
50(4) . . .
52(4) . . .
59(4) . . .
68(4) . . .
60(4) . . .
53(4) . . .
49(4) . . .
65(4) . . .
56(4) . . .
51(4) . . .
61(4) . . .
55(4) . . .
61(4) . . .
68(4) . . .
65(4) . . .
51(4) . . .
45.4(35) . . .
62(4) . . .
59(4) . . .
58(4) . . .
68(4) . . .
58(4) . . .
54(4) . . .
47(4) . . .
46(4) . . .
53(4) . . .
65(4) . . .
57(4) . . .
59(4) . . .
51(4) . . .
52(4) . . .
58(4) . . .
58(4) . . .
55(4) . . .
58(4) . . .
57(4) . . .
51(4) . . .
50(4) . . .
52(4) . . .
51(4) . . .
62(4) . . .
42.2(34) . . .
58(4) . . .
54(4) . . .
52(4) . . .
57(4) . . .
53(4) . . .
48(4) . . .
54(4) . . .
56(4) . . .
53(4) . . .
55(4) . . .
64(4) . . .
52(4) . . .
52(4) . . .
60(4) . . .
59(4) . . .
54(4) . . .
55(4) . . .
60(4) . . .
60(4) . . .
58(4) . . .
54(4) . . .
64(5) . . .
53(4) . . .
58(4) . . .
58(4) . . .
56(4) . . .
53(4) . . .
56(4) . . .
58(4) . . .
59(4) . . .
49(4) . . .
48(4) . . .
48(4) . . .
59(4) . . .
55(4) . . .
59(4) . . .
61(4) . . .
59(4) . . .
55(4) . . .
54(4) . . .
67(4) . . .
61(4) . . .
53(4) . . .
52(4) . . .
52(4) . . .
66(5) . . .
53(4) . . .
59(4) . . .
55(4) . . .
53(4) . . .
52(4) . . .
56(4) . . .
53(4) . . .
56(4) . . .
51(4) . . .
48(4) . . .
52(4) . . .
53(4) . . .
51(4) . . .
56(4) . . .
60(4) . . .
49(4) . . .
56(4) . . .
53(4) . . .
59(4) . . .
58(4) . . .
57(4) . . .
53(4) . . .
55(4) . . .
52(4) . . .
46(4) . . .
50(4) . . .
56(4) . . .
55(4) . . .
55(4) . . .
58(4) . . .
53(4) . . .
41.4(33) . . .
61(4) . . .
58(4) . . .
55(4) . . .
54(4) . . .
61(4) . . .
55(4) . . .
49(4) . . .
59(4) . . .
53(4) . . .
50(4) . . .
52(4) . . .
49(4) . . .
54(4) . . .
56(4) . . .
54(4) . . .
64(4) . . .
53(4) . . .
54(4) . . .
58(4) . . .
54(4) . . .
50(4) . . .
59(4) . . .
61(4) . . .
50(4) . . .
54(4) . . .
55(4) . . .
56(4) . . .
61(4) . . .
60(4) . . .
58(4) . . .
58(4) . . .
53(4) . . .
53(4) . . .
52(4) . . .
48(4) . . .
57(4) . . .
57(4) . . .
54(4) . . .
59(4) . . .
44(4) . . .
45(4) . . .
51(4) . . .
43.4(35) . . .
53(4) . . .
60(4) . . .
57(4) . . .
60(4) . . .
61(4) . . .
61(4) . . .
55(4) . . .
62(4) . . .
48(4) . . .
62(4) . . .
52(4) . . .
56(4) . . .
47(4) . . .
51(4) . . .
63(4) . . .
59(4) . . .
55(4) . . .
51(4) . . .
53(4) . . .
49(4) . . .
48(4) . . .
43.6(35) . . .
61(4) . . .
56(4) . . .
55(4) . . .
45.9(35) . . .
48(4) . . .
61(5) . . .
46(4) . . .
61(4) . . .
52(4) . . .
55(4) . . .
59(4) . . .
58(4) . . .
51(4) . . .
50(4) . . .
52(4) . . .
52(4) . . .
50(4) . . .
55(4) . . .
57(4) . . .
58(4) . . .
49(4) . . .
51(4) . . .
57(4) . . .
71(4) . . .
57(4) . . .
57(4) . . .
49(4) . . .
56(4) . . .
51(4) . . .
50(4) . . .
51(4) . . .
46(4) . . .
59(4) . . .
51(4) . . .
53(4) . . .
52(4) . . .
49(4) . . .
56(4) . . .
57(4) . . .
50(4) . . .
48(4) . . .
51(4) . . .
37.5(31) . . .
54(4) . . .
51(4) . . .
40.3(33) . . .
48(4) . . .
59(4) . . .
52(4) . . .
55(4) . . .
48(4) . . .
62(4) . . .
59(4) . . .
52(4) . . .
63(4) . . .
69(5) . . .
43.7(34) . . .
51(4) . . .
53(4) . . .
57(4) . . .
53(4) . . .
52(4) . . .
60(4) . . .
54(4) . . .
53(4) . . .
48(4) . . .
48(4) . . .
63(4) . . .
52(4) . . .
51(4) . . .
47(4) . . .
55(4) . . .
55(4) . . .
48(4) . . .
50(4) . . .
44(4) . . .
52(4) . . .
55(4) . . .
56(4) . . .
57(4) . . .
62(4) . . .
57(4) . . .
49(4) . . .
59(4) . . .
62(4) . . .
53(4) . . .
51(4) . . .
51(4) . . .
53(4) . . .
53(4) . . .
50(4) . . .
54(4) . . .
53(4) . . .
51(4) . . .
52(4) . . .
63(4) . . .
62(4) . . .
56(4) . . .
49(4) . . .
48(4) . . .
65(4) . . .
45(4) . . .
50(4) . . .
58(4) . . .
60(4) . . .
53(4) . . .
51(4) . . .
50(4) . . .
52(4) . . .
60(4) . . .
48(4) . . .
52(4) . . .
47(4) . . .
52(4) . . .
61(4) . . .
70(4) . . .
62(4) . . .
47(4) . . .
75(5) . . .
64(4) . . .
58(4) . . .
60(4) . . .
56(4) . . .
56(4) . . .
46(4) . . .
61(4) . . .
59(4) . . .
60(4) . . .
63(5) . . .
50(4) . . .
62(4) . . .
55(4) . . .
51(4) . . .
64(5) . . .
48(4) . . .
48(4) . . .
44.7(35) . . .
56(4) . . .
62(4) . . .
56(4) . . .
60(4) . . .
57(4) . . .
55(4) . . .
56(4) . . .
52(4) . . .
55(4) . . .
56(4) . . .
55(4) . . .
49(4) . . .
56(4) . . .
53(4) . . .
50(4) . . .
50(4) . . .
58(4) . . .
63(4) . . .
61(4) . . .
60(4) . . .
56(4) . . .
52(4) . . .
50(4) . . .
53(4) . . .
51(4) . . .
53(4) . . .
51(4) . . .
51(4) . . .
40.9(34) . . .
47(4) . . .
61(4) . . .
55(4) . . .
52(4) . . .
51(4) . . .
65(4) . . .
49(4) . . .
55(4) . . .
58(4) . . .
53(4) . . .
55(4) . . .
65(5) . . .
45(4) . . .
49(4) . . .
50(4) . . .
47(4) . . .
57(4) . . .
59(4) . . .
55(4) . . .
45(4) . . .
59(4) . . .
54(4) . . .
57(4) . . .
58(4) . . .
51(4) . . .
61(4) . . .
50(4) . . .
40.4(35) . . .
47(4) . . .
64(4) . . .
60(4) . . .
54(4) . . .
55(4) . . .
53(4) . . .
61(4) . . .
56(4) . . .
52(4) . . .
55(4) . . .
54(4) . . .
51(4) . . .
66(4) . . .
64(4) . . .
55(4) . . .
53(4) . . .
51(4) . . .
52(4) . . .
52(4) . . .
53(4) . . .
50(4) . . .
62(4) . . .
51(4) . . .
63(5) . . .
52(4) . . .
55(4) . . .
55(4) . . .
53(4) . . .
54(4) . . .
52(4) . . .
52(4) . . .
56(4) . . .
54(4) . . .
70(5) . . .
55(4) . . .
59(4) . . .
50(4) . . .
59(4) . . .
55(4) . . .
52(4) . . .
52(4) . . .
45(4) . . .
47(4) . . .
49(4) . . .
52(4) . . .
66(4) . . .
54(4) . . .
52(4) . . .
62(4) . . .
59(4) . . .
60(4) . . .
63(4) . . .
50(4) . . .
52(4) . . .
58(4) . . .
50(4) . . .
52(4) . . .
60(4) . . .
58(4) . . .
48(4) . . .
54(4) . . .
55(4) . . .
59(4) . . .
54(4) . . .
56(4) . . .
54(4) . . .
59(4) . . .
59(4) . . .
50(4) . . .
58(4) . . .
53(4) . . .
49(4) . . .
43(4) . . .
49(4) . . .
53(4) . . .
51(4) . . .
59(4) . . .
61(4) . . .
50(4) . . .
62(4) . . .
58(4) . . .
46(4) . . .
57(4) . . .
57(4) . . .
50(4) . . .
57(4) . . .
55(4) . . .
53(4) . . .
56(4) . . .
50(4) . . .
43(4) . . .
59(4) . . .
50(4) . . .
58(4) . . .
56(4) . . .
54(4) . . .
56(4) . . .
51(4) . . .
66(4) . . .
68(4) . . .
55(4) . . .
60(4) . . .
51(4) . . .
58(4) . . .
45(4) . . .
54(4) . . .
50(4) . . .
60(4) . . .
51(4) . . .
46(4) . . .
62(4) . . .
54(4) . . .
53(4) . . .
51(4) . . .
54(4) . . .
36.4(32) . . .
49(4) . . .
55(4) . . .
57(4) . . .
56(4) . . .
50(4) . . .
52(4) . . .
56(4) . . .
48(4) . . .
48(4) . . .
52(4) . . .
52(4) . . .
46(4) . . .
55(4) . . .
57(4) . . .
50(4) . . .
53(4) . . .
59(4) . . .
63(4) . . .
65(4) . . .
59(4) . . .
49(4) . . .
52(4) . . .
61(4) . . .
46(4) . . .
47(4) . . .
51(4) . . .
57(4) . . .
54(4) . . .
53(4) . . .
52(4) . . .
58(4) . . .
57(4) . . .
48(4) . . .
46(4) . . .
48(4) . . .
43(4) . . .
53(4) . . .
55(4) . . .
61(4) . . .
50(4) . . .
56(4) . . .
61(4) . . .
57(4) . . .
50(4) . . .
50(4) . . .
63(4) . . .
51(4) . . .
39.3(35) . . .
53(4) . . .
53(4) . . .
59(4) . . .
55(4) . . .
58(4) . . .
46(4) . . .
47(4) . . .
50(4) . . .
64(4) . . .
57(4) . . .
57(4) . . .
63(4) . . .
52(4) . . .
49(4) . . .
63(4) . . .
50(4) . . .
52(4) . . .
53(4) . . .
60(4) . . .
62(4) . . .
56(4) . . .
57(4) . . .
55(4) . . .
61(4) . . .
44.5(34) . . .
49(4) . . .
46(4) . . .
41.8(33) . . .
54(4) . . .
50(4) . . .
61(4) . . .
52(4) . . .
53(4) . . .
52(4) . . .
67(5) . . .
64(4) . . .
55(4) . . .
60(4) . . .
51(4) . . .
53(4) . . .
61(4) . . .
51(4) . . .
58(4) . . .
51(4) . . .
54(4) . . .
48(4) . . .
48(4) . . .
44.8(35) . . .
60(4) . . .
56(4) . . .
62(4) . . .
53(4) . . .
63(4) . . .
46.0(35) . . .
57(4) . . .
51(4) . . .
68(5) . . .
58(4) . . .
61(4) . . .
56(4) . . .
56(4) . . .
53(4) . . .
47(4) . . .
57(4) . . .
46(4) . . .
60(4) . . .
44.5(35) . . .
51(4) . . .
49(4) . . .
48(4) . . .
46(4) . . .
58(4) . . .
46(4) . . .
52(4) . . .
52(4) . . .
62(4) . . .
58(4) . . .
53(4) . . .
46(4) . . .
47(4) . . .
52(4) . . .
45.7(35) . . .
55(4) . . .
51(4) . . .
49(4) . . .
48(4) . . .
54(4) . . .
61(4) . . .
60(4) . . .
51(4) . . .
59(4) . . .
54(4) . . .
53(4) . . .
57(4) . . .
52(4) . . .
57(4) . . .
51(4) . . .
55(4) . . .
54(4) . . .
53(4) . . .
66(4) . . .
63(4) . . .
64(4) . . .
61(4) . . .
58(4) . . .
52(4) . . .
56(4) . . .
68(5) . . .
58(4) . . .
51(4) . . .
57(4) . . .
59(4) . . .
66(4) . . .
55(4) . . .
49(4) . . .
63(4) . . .
51(4) . . .
47(4) . . .
54(4) . . .
59(4) . . .
57(4) . . .
56(4) . . .
56(4) . . .
52(4) . . .
63(4) . . .
50(4) . . .
58(4) . . .
52(4) . . .
58(4) . . .
59(4) . . .
49(4) . . .
60(4) . . .
60(4) . . .
52(4) . . .
53(4) . . .
54(4) . . .
49(4) . . .
50(4) . . .
43.1(35) . . .
57(4) . . .
51(4) . . .
55(4) . . .
64(4) . . .
60(4) . . .
51(4) . . .
53(4) . . .
57(4) . . .
57(4) . . .
59(4) . . .
55(4) . . .
48(4) . . .
49(4) . . .
51(4) . . .
47(4) . . .
45(4) . . .
54(4) . . .
48(4) . . .
53(4) . . .
56(4) . . .
48(4) . . .
43.0(35) . . .
56(4) . . .
56(4) . . .
60(4) . . .
56(4) . . .
52(4) . . .
41.9(33) . . .
55(4) . . .
56(4) . . .
54(4) . . .
54(4) . . .
57(4) . . .
60(4) . . .
49(4) . . .
62(4) . . .
52(4) . . .
44.3(34) . . .
58(4) . . .
52(4) . . .
57(4) . . .
48(4) . . .
53(4) . . .
52(4) . . .
58(4) . . .
60(4) . . .
49(4) . . .
50(4) . . .
59(4) . . .
59(4) . . .
55(4) . . .
44.0(35) . . .
58(4) . . .
56(4) . . .
52(4) . . .
54(4) . . .
57(4) . . .
62(4) . . .
48(4) . . .
59(4) . . .
51(4) . . .
51(4) . . .
56(4) . . .
52(4) . . .
52(4) . . .
53(4) . . .
55(4) . . .
58(4) . . .
49(4) . . .
64(4) . . .
52(4) . . .
56(4) . . .
54(4) . . .
57(4) . . .
55(4) . . .
47(4) . . .
52(4) . . .
47(4) . . .
54(4) . . .
56(4) . . .
42.7(34) . . .
54(4) . . .
55(4) . . .
49(4) . . .
45.3(35) . . .
50(4) . . .
47(4) . . .
53(4) . . .
57(4) . . .
51(4) . . .
51(4) . . .
62(4) . . .
58(4) . . .
67(4) . . .
54(4) . . .
56(4) . . .
50(4) . . .
54(4) . . .
49(4) . . .
58(4) . . .
49(4) . . .
57(4) . . .
49(4) . . .
45(4) . . .
51(4) . . .
48(4) . . .
55(4) . . .
50(4) . . .
58(4) . . .
66(4) . . .
58(4) . . .
62(4) . . .
53(4) . . .
57(4) . . .
54(4) . . .
53(4) . . .
47(4) . . .
47(4) . . .
47(4) . . .
55(4) . . .
50(4) . . .
48(4) . . .
45(4) . . .
61(4) . . .
61(4) . . .
50(4) . . .
57(4) . . .
54(4) . . .
46(4) . . .
48(4) . . .
55(4) . . .
53(4) . . .
56(4) . . .
49(4) . . .
46(4) . . .
46(4) . . .
54(4) . . .
52(4) . . .
55(4) . . .
56(4) . . .
55(4) . . .
51(4) . . .
49(4) . . .
60(4) . . .
60(4) . . .
59(4) . . .
47(4) . . .
51(4) . . .
55(4) . . .
47(4) . . .
47(4) . . .
55(4) . . .
48(4) . . .
56(4) . . .
49(4) . . .
51(4) . . .
53(4) . . .
56(4) . . .
57(4) . . .
68(5) . . .
58(4) . . .
52(4) . . .
59(4) . . .
68(4) . . .
53(4) . . .
59(4) . . .
57(4) . . .
55(4) . . .
54(4) . . .
55(4) . . .
52(4) . . .
55(4) . . .
66(4) . . .
50(4) . . .
62(4) . . .
66(5) . . .
67(5) . . .
58(4) . . .
42.5(34) . . .
54(4) . . .
49(4) . . .
50(4) . . .
66(4) . . .
40.9(33) . . .
50(4) . . .
53(4) . . .
54(4) . . .
58(4) . . .
47(4) . . .
48(4) . . .
54(4) . . .
55(4) . . .
70(4) . . .
65(4) . . .
43.6(34) . . .
60(4) . . .
57(4) . . .
61(4) . . .
60(4) . . .
52(4) . . .
63(5) . . .
64(4) . . .
57(4) . . .
63(4) . . .
60(4) . . .
51(4) . . .
53(4) . . .
47(4) . . .
51(4) . . .
56(4) . . .
46(4) . . .
65(4) . . .
50(4) . . .
50(4) . . .
49(4) . . .
50(4) . . .
60(4) . . .
54(4) . . .
54(4) . . .
56(4) . . .
53(4) . . .
59(4) . . .
58(4) . . .
56(4) . . .
51(4) . . .
55(4) . . .
65(4) . . .
56(4) . . .
55(4) . . .
46(4) . . .
57(4) . . .
51(4) . . .
57(4) . . .
47(4) . . .
53(4) . . .
57(4) . . .
59(4) . . .
47(4) . . .
47(4) . . .
52(4) . . .
42(4) . . .
51(4) . . .
55(4) . . .
54(4) . . .
49(4) . . .
49(4) . . .
53(4) . . .
56(4) . . .
57(4) . . .
56(4) . . .
57(4) . . .
54(4) . . .
56(4) . . .
50(4) . . .
56(4) . . .
55(4) . . .
53(4) . . .
57(4) . . .
57(4) . . .
49(4) . . .
56(4) . . .
53(4) . . .
61(4) . . .
49(4) . . .
55(4) . . .
60(4) . . .
52(4) . . .
56(4) . . .
68(5) . . .
62(4) . . .
56(4) . . .
54(4) . . .
59(4) . . .
65(5) . . .
51(4) . . .
65(4) . . .
47(4) . . .
56(4) . . .
64(4) . . .
52(4) . . .
48(4) . . .
50(4) . . .
40.9(34) . . .
45(4) . . .
47(4) . . .
51(4) . . .
47(4) . . .
50(4) . . .
54(4) . . .
48(4) . . .
49(4) . . .
50(4) . . .
58(4) . . .
53(4) . . .
63(4) . . .
45(4) . . .
51(4) . . .
50(4) . . .
48(4) . . .
43.6(35) . . .
61(4) . . .
68(4) . . .
56(4) . . .
49(4) . . .
57(4) . . .
52(4) . . .
59(4) . . .
54(4) . . .
65(4) . . .
56(4) . . .
49(4) . . .
49(4) . . .
52(4) . . .
56(4) . . .
58(4) . . .
47(4) . . .
53(4) . . .
53(4) . . .
59(4) . . .
53(4) . . .
49(4) . . .
61(4) . . .
58(4) . . .
64(4) . . .
54(4) . . .
52(4) . . .
53(4) . . .
59(4) . . .
44.5(35) . . .
55(4) . . .
58(4) . . .
60(4) . . .
59(4) . . .
54(4) . . .
59(4) . . .
52(4) . . .
49(4) . . .
58(4) . . .
61(4) . . .
56(4) . . .
51(4) . . .
60(4) . . .
57(4) . . .
56(4) . . .
55(4) . . .
58(4) . . .
50(4) . . .
47(4) . . .
52(4) . . .
53(4) . . .
53(4) . . .
57(4) . . .
66(5) . . .
53(4) . . .
51(4) . . .
50(4) . . .
45(4) . . .
50(4) . . .
52(4) . . .
67(4) . . .
56(4) . . .
49(4) . . .
57(4) . . .
57(4) . . .
58(4) . . .
55(4) . . .
57(4) . . .
58(4) . . .
50(4) . . .
52(4) . . .
38.1(32) . . .
61(4) . . .
59(4) . . .
57(4) . . .
47(4) . . .
48(4) . . .
61(4) . . .
60(4) . . .
63(4) . . .
58(4) . . .
54(4) . . .
56(4) . . .
51(4) . . .
49(4) . . .
51(4) . . .
53(4) . . .
59(4) . . .
54(4) . . .
49(4) . . .
60(4) . . .
57(4) . . .
61(4) . . .
46(4) . . .
52(4) . . .
43.1(34) . . .
48(4) . . .
59(4) . . .
54(4) . . .
67(4) . . .
64(4) . . .
55(4) . . .
51(4) . . .
65(4) . . .
48(4) . . .
49(4) . . .
51(4) . . .
51(4) . . .
54(4) . . .
48(4) . . .
49(4) . . .
48(4) . . .
53(4) . . .
52(4) . . .
48(4) . . .
50(4) . . .
52(4) . . .
56(4) . . .
51(4) . . .
60(4) . . .
46(4) . . .
54(4) . . .
45.2(35) . . .
58(4) . . .
51(4) . . .
56(4) . . .
52(4) . . .
50(4) . . .
52(4) . . .
49(4) . . .
52(4) . . .
55(4) . . .
54(4) . . .
56(4) . . .
44.0(34) . . .
60(4) . . .
52(4) . . .
54(4) . . .
48(4) . . .
61(4) . . .
62(4) . . .
57(4) . . .
62(4) . . .
57(4) . . .
51(4) . . .
54(4) . . .
60(4) . . .
54(4) . . .
57(4) . . .
55(4) . . .
57(4) . . .
53(4) . . .
53(4) . . .
59(4) . . .
43.3(35) . . .
49(4) . . .
44(4) . . .
67(4) . . .
56(4) . . .
56(4) . . .
51(4) . . .
60(4) . . .
46(4) . . .
51(4) . . .
50(4) . . .
49(4) . . .
53(4) . . .
59(4) . . .
57(4) . . .
59(4) . . .
51(4) . . .
57(4) . . .
54(4) . . .
49(4) . . .
47(4) . . .
52(4) . . .
55(4) . . .
44.4(34) . . .
48(4) . . .
52(4) . . .
55(4) . . .
46(4) . . .
49(4) . . .
55(4) . . .
57(4) . . .
53(4) . . .
54(4) . . .
58(4) . . .
49(4) . . .
56(4) . . .
53(4) . . .
50(4) . . .
48(4) . . .
53(4) . . .
58(4) . . .
54(4) . . .
50(4) . . .
58(4) . . .
52(4) . . .
49(4) . . .
54(4) . . .
51(4) . . .
51(4) . . .
55(4) . . .
51(4) . . .
45(4) . . .
55(4) . . .
50(4) . . .
45(4) . . .
52(4) . . .
55(4) . . .
49(4) . . .
51(4) . . .
48(4) . . .
62(4) . . .
52(4) . . .
48(4) . . .
56(4) . . .
61(4) . . .
47(4) . . .
59(4) . . .
64(4) . . .
44.0(34) . . .
52(4) . . .
50(4) . . .
49(4) . . .
50(4) . . .
64(4) . . .
51(4) . . .
51(4) . . .
45(4) . . .
48(4) . . .
50(4) . . .
46(4) . . .
49(4) . . .
56(4) . . .
51(4) . . .
58(4) . . .
48(4) . . .
40(4) . . .
53(4) . . .
54(4) . . .
54(4) . . .
61(4) . . .
56(4) . . .
53(4) . . .
54(4) . . .
56(4) . . .
55(4) . . .
48.2(35) . . .
54(4) . . .
59(4) . . .
62(4) . . .
56(4) . . .
52(4) . . .
57(4) . . .
47(4) . . .
53(4) . . .
51(4) . . .
47(4) . . .
60(4) . . .
44.7(35) . . .
48(4) . . .
55(4) . . .
49(4) . . .
58(4) . . .
47(4) . . .
46(4) . . .
51(4) . . .
57(4) . . .
52(4) . . .
57(4) . . .
47(4) . . .
62(4) . . .
52(4) . . .
42.2(34) . . .
46.4(35) . . .
54(4) . . .
53(4) . . .
53(4) . . .
54(4) . . .
52(4) . . .
46(4) . . .
56(4) . . .
42(4) . . .
47(4) . . .
50(4) . . .
60(4) . . .
62(4) . . .
50(4) . . .
51(4) . . .
52(4) . . .
50(4) . . .
50(4) . . .
48(4) . . .
68(4) . . .
55(4) . . .
56(4) . . .
57(4) . . .
43(4) . . .
56(4) . . .
52(4) . . .
54(4) . . .
42(4) . . .
53(4) . . .
55(4) . . .
47(4) . . .
54(4) . . .
52(4) . . .
60(4) . . .
55(4) . . .
60(4) . . .
50(4) . . .
49(4) . . .
50(4) . . .
51(4) . . .
46(4) . . .
45(4) . . .
46(4) . . .
59(4) . . .
52(4) . . .
55(4) . . .
55(4) . . .
46(4) . . .
45(4) . . .
52(4) . . .
53(4) . . .
53(4) . . .
64(4) . . .
60(4) . . .
54(4) . . .
50(4) . . .
45(4) . . .
45(4) . . .
49(4) . . .
52(4) . . .
49(4) . . .
58(4) . . .
60(4) . . .
49(4) . . .
44.3(34) . . .
49(4) . . .
47(4) . . .
58(4) . . .
55(4) . . .
43.4(34) . . .
48(4) . . .
50(4) . . .
55(4) . . .
48(4) . . .
55(4) . . .
56(4) . . .
49(4) . . .
49(4) . . .
51(4) . . .
44.4(35) . . .
53(4) . . .
61(4) . . .
50(4) . . .
51(4) . . .
49(4) . . .
41.9(35) . . .
52(4) . . .
63(4) . . .
54(4) . . .
39(4) . . .
46(4) . . .
62(4) . . .
59(4) . . .
54(4) . . .
48(4) . . .
52(4) . . .
54(4) . . .
50(4) . . .
47(4) . . .
44(4) . . .
52(4) . . .
53(4) . . .
52(4) . . .
44.4(35) . . .
53(4) . . .
43.9(35) . . .
52(4) . . .
51(4) . . .
52(4) . . .
58(4) . . .
58(4) . . .
52(4) . . .
63(4) . . .
62(4) . . .
53(4) . . .
36.2(32) . . .
51(4) . . .
43.3(34) . . .
42.9(34) . . .
52(4) . . .
56(4) . . .
60(4) . . .
54(4) . . .
53(4) . . .
52(4) . . .
53(4) . . .
56(4) . . .
49(4) . . .
56(4) . . .
59(4) . . .
46(4) . . .
54(4) . . .
57(4) . . .
53(4) . . .
49(4) . . .
45(4) . . .
50(4) . . .
43.6(35) . . .
45(4) . . .
58(4) . . .
50(4) . . .
51(4) . . .
48(4) . . .
43(4) . . .
47(4) . . .
53(4) . . .
51(4) . . .
58(4) . . .
51(4) . . .
51(4) . . .
50(4) . . .
49(4) . . .
50(4) . . .
63(4) . . .
47(4) . . .
51(4) . . .
48(4) . . .
52(4) . . .
54(4) . . .
40.1(33) . . .
50(4) . . .
52(4) . . .
55(4) . . .
54(4) . . .
42.2(35) . . .
51(4) . . .
53(4) . . .
54(4) . . .
46(4) . . .
52(4) . . .
49(4) . . .
62(4) . . .
53(4) . . .
50(4) . . .
50(4) . . .
47(4) . . .
47(4) . . .
59(4) . . .
47(4) . . .
53(4) . . .
52(4) . . .
55(4) . . .
48(4) . . .
49(4) . . .
50(4) . . .
53(4) . . .
54(4) . . .
53(4) . . .
55(4) . . .
50(4) . . .
55(4) . . .
39.6(32) . . .
58(4) . . .
55(4) . . .
59(4) . . .
49(4) . . .
46(4) . . .
51(4) . . .
53(4) . . .
53(4) . . .
58(4) . . .
48(4) . . .
47(4) . . .
50(4) . . .
48(4) . . .
48(4) . . .
56(4) . . .
55(4) . . .
50(4) . . .
46(4) . . .
51(4) . . .
53(4) . . .
52(4) . . .
51(4) . . .
59(4) . . .
53(4) . . .
60(4) . . .
46.3(35) . . .
52(4) . . .
50(4) . . .
49(4) . . .
51(4) . . .
39.6(33) . . .
48(4) . . .
45(4) . . .
51(4) . . .
46(4) . . .
46(4) . . .
59(4) . . .
58(4) . . .
44.0(35) . . .
53(4) . . .
58(4) . . .
54(4) . . .
59(4) . . .
52(4) . . .
48(4) . . .
52(4) . . .
56(4) . . .
59(4) . . .
51(4) . . .
46(4) . . .
47(4) . . .
49(4) . . .
49(4) . . .
44.2(35) . . .
43.4(35) . . .
47(4) . . .
48(4) . . .
58(4) . . .
50(4) . . .
54(4) . . .
53(4) . . .
50(4) . . .
55(4) . . .
57(4) . . .
47(4) . . .
51(4) . . .
55(4) . . .
57(4) . . .
55(4) . . .
52(4) . . .
50(4) . . .
47(4) . . .
50(4) . . .
48(4) . . .
51(4) . . .
52(4) . . .
57(4) . . .
50(4) . . .
46.5(35) . . .
46(4) . . .
48(4) . . .
53(4) . . .
42.6(34) . . .
60(4) . . .
51(4) . . .
47(4) . . .
46(4) . . .
45(4) . . .
50(4) . . .
46(4) . . .
41(4) . . .
52(4) . . .
61(4) . . .
55(4) . . .
52(4) . . .
49(4) . . .
56(4) . . .
56(4) . . .
48(4) . . .
59(4) . . .
54(4) . . .
50(4) . . .
41.8(33) . . .
55(4) . . .
52(4) . . .
54(4) . . .
51(4) . . .
43.2(34) . . .
58(4) . . .
47(4) . . .
54(4) . . .
51(4) . . .
52(4) . . .
49(4) . . .
50(4) . . .
53(4) . . .
55(4) . . .
44.0(35) . . .
45(4) . . .
52(4) . . .
53(4) . . .
55(4) . . .
53(4) . . .
53(4) . . .
54(4) . . .
53(4) . . .
58(4) . . .
49(4) . . .
45(4) . . .
52(4) . . .
48(4) . . .
53(4) . . .
57(4) . . .
61(4) . . .
53(4) . . .
55(4) . . .
47(4) . . .
45(4) . . .
49(4) . . .
50(4) . . .
53(4) . . .
54(4) . . .
60(4) . . .
58(4) . . .
53(4) . . .
55(4) . . .
52(4) . . .
38.0(33) . . .
63(4) . . .
57(4) . . .
51(4) . . .
57(4) . . .
55(4) . . .
50(4) . . .
63(4) . . .
68(4) . . .
56(4) . . .
55(4) . . .
58(4) . . .
50(4) . . .
62(4) . . .
50(4) . . .
47(4) . . .
53(4) . . .
61(4) . . .
51(4) . . .
54(4) . . .
50(4) . . .
44(4) . . .
52(4) . . .
43.9(34) . . .
47(4) . . .
50(4) . . .
52(4) . . .
56(4) . . .
53(4) . . .
63(4) . . .
52(4) . . .
55(4) . . .
58(4) . . .
57(4) . . .
43.3(35) . . .
41(4) . . .
53(4) . . .
40.5(33) . . .
51(4) . . .
60(4) . . .
60(4) . . .
49(4) . . .
54(4) . . .
46(4) . . .
57(4) . . .
54(4) . . .
48(4) . . .
50(4) . . .
45.5(35) . . .
47(4) . . .
54(4) . . .
46(4) . . .
51(4) . . .
48(4) . . .
55(4) . . .
45(4) . . .
37.7(32) . . .
52(4) . . .
51(4) . . .
50(4) . . .
56(4) . . .
52(4) . . .
52(4) . . .
42.1(34) . . .
40.0(35) . . .
53(4) . . .
57(4) . . .
49(4) . . .
53(4) . . .
60(4) . . .
48(4) . . .
48(4) . . .
53(4) . . .
59(4) . . .
51(4) . . .
48(4) . . .
53(4) . . .
50(4) . . .
35.2(32) . . .
54(4) . . .
64(4) . . .
55(4) . . .
51(4) . . .
45.0(35) . . .
54(4) . . .
53(4) . . .
55(4) . . .
52(4) . . .
53(4) . . .
51(4) . . .
52(4) . . .
51(4) . . .
61(4) . . .
43.8(35) . . .
47(4) . . .
47(4) . . .
58(4) . . .
57(4) . . .
44(4) . . .
44(4) . . .
47(4) . . .
49(4) . . .
47(4) . . .
62(4) . . .
56(4) . . .
46(4) . . .
49(4) . . .
66(4) . . .
54(4) . . .
59(4) . . .
46(4) . . .
50(4) . . .
43.8(35) . . .
51(4) . . .
53(4) . . .
42.8(34) . . .
50(4) . . .
40.9(33) . . .
52(4) . . .
52(4) . . .
56(4) . . .
50(4) . . .
49(4) . . .
53(4) . . .
54(4) . . .
48(4) . . .
48(4) . . .
48(4) . . .
47(4) . . .
58(4) . . .
42.9(34) . . .
48(4) . . .
57(4) . . .
53(4) . . .
47(4) . . .
53(4) . . .
51(4) . . .
57(4) . . .
36.7(32) . . .
31.0(29) . . .
49(4) . . .
45.5(35) . . .
53(4) . . .
42.8(34) . . .
56(4) . . .
55(4) . . .
49(4) . . .
57(4) . . .
57(4) . . .
49(4) . . .
59(4) . . .
48(4) . . .
46.1(35) . . .
47(4) . . .
49(4) . . .
55(4) . . .
49(4) . . .
57(4) . . .
55(4) . . .
54(4) . . .
53(4) . . .
55(4) . . .
52(4) . . .
57(4) . . .
52(4) . . .
55(4) . . .
57(4) . . .
50(4) . . .
55(4) . . .
55(4) . . .
49(4) . . .
53(4) . . .
46(4) . . .
48(4) . . .
55(4) . . .
61(4) . . .
50(4) . . .
47(4) . . .
53(4) . . .
46(4) . . .
47(4) . . .
47(4) . . .
50(4) . . .
47(4) . . .
51(4) . . .
53(4) . . .
54(4) . . .
54(4) . . .
46(4) . . .
54(4) . . .
46(4) . . .
60(4) . . .
55(4) . . .
51(4) . . .
46(4) . . .
56(4) . . .
48(4) . . .
42.2(33) . . .
45(4) . . .
47(4) . . .
53(4) . . .
49(4) . . .
45(4) . . .
59(4) . . .
42.1(33) . . .
46(4) . . .
49(4) . . .
43(4) . . .
47(4) . . .
46.7(35) . . .
50(4) . . .
51(4) . . .
48(4) . . .
49(4) . . .
57(4) . . .
58(4) . . .
42.3(35) . . .
50(4) . . .
49(4) . . .
48(4) . . .
57(4) . . .
44.4(35) . . .
50(4) . . .
53(4) . . .
49(4) . . .
52(4) . . .
50(4) . . .
42(4) . . .
44(4) . . .
53(4) . . .
47(4) . . .
48(4) . . .
50(4) . . .
54(4) . . .
46(4) . . .
51(4) . . .
47(4) . . .
43(4) . . .
45(4) . . .
59(4) . . .
53(4) . . .
43.8(35) . . .
57(4) . . .
46(4) . . .
59(4) . . .
52(4) . . .
42(4) . . .
53(4) . . .
46(4) . . .
51(4) . . .
49(4) . . .
52(4) . . .
55(4) . . .
51(4) . . .
50(4) . . .
56(4) . . .
47(4) . . .
45(4) . . .
48(4) . . .
39.2(33) . . .
51(4) . . .
46(4) . . .
50(4) . . .
50(4) . . .
43.9(34) . . .
47(4) . . .
43(4) . . .
39.2(34) . . .
47(4) . . .
48(4) . . .
50(4) . . .
49(4) . . .
54(4) . . .
40.1(33) . . .
57(4) . . .
60(4) . . .
51(4) . . .
55(4) . . .
53(4) . . .
47(4) . . .
48(4) . . .
50(4) . . .
52(4) . . .
67(4) . . .
55(4) . . .
44(4) . . .
53(4) . . .
50(4) . . .
54(4) . . .
54(4) . . .
47(4) . . .
49(4) . . .
40.2(34) . . .
51(4) . . .
52(4) . . .
46(4) . . .
54(4) . . .
51(4) . . .
49(4) . . .
51(4) . . .
46(4) . . .
50(4) . . .
44.8(34) . . .
47(4) . . .
55(4) . . .
56(4) . . .
53(4) . . .
58(4) . . .
44.5(35) . . .
58(4) . . .
54(4) . . .
52(4) . . .
54(4) . . .
47(4) . . .
45(4) . . .
49(4) . . .
52(4) . . .
43.9(35) . . .
45.0(35) . . .
47(4) . . .
52(4) . . .
46(4) . . .
49(4) . . .
49(4) . . .
48(4) . . .
45(4) . . .
57(4) . . .
53(4) . . .
48(4) . . .
45(4) . . .
55(4) . . .
61(4) . . .
46(4) . . .
52(4) . . .
48(4) . . .
46(4) . . .
42(4) . . .
50(4) . . .
41.5(35) . . .
51(4) . . .
50(4) . . .
51(4) . . .
43.9(35) . . .
54(4) . . .
42(4) . . .
51(4) . . .
55(4) . . .
42.9(34) . . .
40.6(34) . . .
51(4) . . .
56(4) . . .
58(4) . . .
52(4) . . .
45(4) . . .
52(4) . . .
58(4) . . .
53(4) . . .
45.7(35) . . .
54(4) . . .
45(4) . . .
44.7(35) . . .
49(4) . . .
53(4) . . .
54(4) . . .
55(4) . . .
62(4) . . .
53(4) . . .
47(4) . . .
46(4) . . .
45(4) . . .
50(4) . . .
42.4(34) . . .
58(4) . . .
52(4) . . .
48(4) . . .
40.1(34) . . .
61(4) . . .
49(4) . . .
44(4) . . .
44(4) . . .
47(4) . . .
43.9(34) . . .
47(4) . . .
44.0(34) . . .
56(4) . . .
53(4) . . .
48(4) . . .
48(4) . . .
53(4) . . .
53(4) . . .
48(4) . . .
48(4) . . .
46(4) . . .
46(4) . . .
55(4) . . .
36.8(33) . . .
53(4) . . .
64(4) . . .
53(4) . . .
56(4) . . .
53(4) . . .
50(4) . . .
52(4) . . .
47(4) . . .
49(4) . . .
49(4) . . .
45.3(35) . . .
48(4) . . .
50(4) . . .
48(4) . . .
48(4) . . .
52(4) . . .
48(4) . . .
40.5(33) . . .
46(4) . . .
57(4) . . .
48(4) . . .
42.0(35) . . .
45(4) . . .
54(4) . . .
45.3(34) . . .
57(4) . . .
42(4) . . .
48(4) . . .
43(4) . . .
49(4) . . .
51(4) . . .
58(4) . . .
54(4) . . .
50(4) . . .
47(4) . . .
48(4) . . .
48(4) . . .
55(4) . . .
44.5(35) . . .
51(4) . . .
53(4) . . .
48(4) . . .
48(4) . . .
60(4) . . .
46(4) . . .
53(4) . . .
52(4) . . .
40.5(32) . . .
56(4) . . .
47(4) . . .
49(4) . . .
48(4) . . .
50(4) . . .
51(4) . . .
49(4) . . .
52(4) . . .
56(4) . . .
54(4) . . .
54(4) . . .
52(4) . . .
52(4) . . .
47(4) . . .
50(4) . . .
42.8(34) . . .
41.1(34) . . .
47(4) . . .
54(4) . . .
51(4) . . .
58(4) . . .
49(4) . . .
49(4) . . .
51(4) . . .
58(4) . . .
57(4) . . .
52(4) . . .
39.5(33) . . .
42(4) . . .
48(4) . . .
54(4) . . .
40.3(33) . . .
48(4) . . .
49(4) . . .
41.5(34) . . .
41.4(33) . . .
53(4) . . .
56(4) . . .
53(4) . . .
38.7(34) . . .
40.2(33) . . .
53(4) . . .
48(4) . . .
53(4) . . .
45(4) . . .
44.5(35) . . .
41.2(34) . . .
38.2(33) . . .
59(4) . . .
51(4) . . .
58(4) . . .
54(4) . . .
39.0(33) . . .
53(4) . . .
55(4) . . .
60(4) . . .
50(4) . . .
46(4) . . .
45(4) . . .
48(4) . . .
42.8(34) . . .
44(4) . . .
54(4) . . .
52(4) . . .
66(4) . . .
52(4) . . .
45(4) . . .
40(4) . . .
55(4) . . .
54(4) . . .
56(4) . . .
62(4) . . .
55(4) . . .
51(4) . . .
53(4) . . .
39.7(33) . . .
62(4) . . .
56(4) . . .
49(4) . . .
44.3(34) . . .
51(4) . . .
54(4) . . .
51(4) . . .
51(4) . . .
55(4) . . .
50(4) . . .
37.3(31) . . .
42(4) . . .
53(4) . . .
54(4) . . .
58(4) . . .
41.1(34) . . .
53(4) . . .
53(4) . . .
43.4(34) . . .
59(4) . . .
57(4) . . .
42.6(35) . . .
47(4) . . .
46.7(35) . . .
34.3(31) . . .
48(4) . . .
52(4) . . .
42.9(35) . . .
51(4) . . .
53(4) . . .
48(4) . . .
64(4) . . .
56(4) . . .
52(4) . . .
52(4) . . .
59(4) . . .
42.0(34) . . .
43.9(34) . . .
45(4) . . .
55(4) . . .
49(4) . . .
51(4) . . .
46.0(35) . . .
40.7(33) . . .
52(4) . . .
50(4) . . .
41.9(35) . . .
53(4) . . .
45(4) . . .
36.8(34) . . .
36.6(35) . . .
43(4) . . .
49(4) . . .
43.5(34) . . .
50(4) . . .
50(4) . . .
54(4) . . .
51(4) . . .
43.7(35) . . .
46(4) . . .
47(4) . . .
57(4) . . .
42.4(34) . . .
48(4) . . .
45.4(35) . . .
50(4) . . .
57(4) . . .
42.1(34) . . .
44.7(35) . . .
55(4) . . .
49(4) . . .
49(4) . . .
47(4) . . .
52(4) . . .
52(4) . . .
52(4) . . .
41.6(33) . . .
53(4) . . .
54(4) . . .
57(4) . . .
49(4) . . .
49(4) . . .
50(4) . . .
56(4) . . .
50(4) . . .
39.5(35) . . .
54(4) . . .
54(4) . . .
54(4) . . .
50(4) . . .
49(4) . . .
47(4) . . .
57(4) . . .
57(4) . . .
53(4) . . .
46(4) . . .
50(4) . . .
45.3(35) . . .
45(4) . . .
48(4) . . .
44(4) . . .
53(4) . . .
47(4) . . .
39.0(32) . . .
60(4) . . .
46.3(34) . . .
43.2(35) . . .
41.8(34) . . .
51(4) . . .
52(4) . . .
53(4) . . .
48(4) . . .
49(4) . . .
44(4) . . .
56(4) . . .
52(4) . . .
37.3(32) . . .
51(4) . . .
50(4) . . .
53(4) . . .
50(4) . . .
52(4) . . .
45(4) . . .
43(4) . . .
54(4) . . .
43.6(35) . . .
48(4) . . .
51(4) . . .
47(4) . . .
48(4) . . .
57(4) . . .
47(4) . . .
47(4) . . .
44(4) . . .
48(4) . . .
49(4) . . .
56(4) . . .
50(4) . . .
49(4) . . .
40.5(33) . . .
47(4) . . .
55(4) . . .
57(4) . . .
41.4(35) . . .
47(4) . . .
48(4) . . .
48(4) . . .
52(4) . . .
53(4) . . .
45(4) . . .
57(4) . . .
56(4) . . .
48(4) . . .
45(4) . . .
55(4) . . .
41.7(34) . . .
38.5(32) . . .
46(4) . . .
49(4) . . .
45.6(35) . . .
57(4) . . .
58(4) . . .
53(4) . . .
43(4) . . .
38.5(34) . . .
46(4) . . .
60(4) . . .
64(4) . . .
50(4) . . .
47(4) . . .
45(4) . . .
61(4) . . .
45(4) . . .
53(4) . . .
55(4) . . .
53(4) . . .
43.2(34) . . .
44(4) . . .
49(4) . . .
43.8(35) . . .
53(4) . . .
49(4) . . .
46(4) . . .
46(4) . . .
49(4) . . .
50(4) . . .
48(4) . . .
38.0(33) . . .
39.2(32) . . .
50(4) . . .
37.5(33) . . .
49(4) . . .
60(4) . . .
43(4) . . .
40.9(34) . . .
43.2(34) . . .
53(4) . . .
56(4) . . .
53(4) . . .
43.7(34) . . .
56(4) . . .
55(4) . . .
46(4) . . .
51(4) . . .
62(4) . . .
54(4) . . .
46(4) . . .
54(4) . . .
52(4) . . .
51(4) . . .
47(4) . . .
58(4) . . .
51(4) . . .
47(4) . . .
45.0(35) . . .
50(4) . . .
40.0(33) . . .
55(4) . . .
52(4) . . .
39.6(32) . . .
39.4(33) . . .
52(4) . . .
51(4) . . .
51(4) . . .
54(4) . . .
47(4) . . .
46(4) . . .
44(4) . . .
51(4) . . .
56(4) . . .
55(4) . . .
54(4) . . .
56(4) . . .
58(4) . . .
42.2(33) . . .
45(4) . . .
53(4) . . .
47(4) . . .
45(4) . . .
48(4) . . .
49(4) . . .
47(4) . . .
43.2(34) . . .
49(4) . . .
52(4) . . .
42.9(34) . . .
51(4) . . .
42(4) . . .
56(4) . . .
46(4) . . .
44.9(35) . . .
54(4) . . .
40.5(33) . . .
48(4) . . .
44.4(35) . . .
51(4) . . .
50(4) . . .
46(4) . . .
44.0(34) . . .
41.6(34) . . .
54(4) . . .
48(4) . . .
38.4(35) . . .
48(4) . . .
50(4) . . .
47(4) . . .
53(4) . . .
61(4) . . .
48(4) . . .
51(4) . . .
44.8(35) . . .
60(4) . . .
49(4) . . .
56(4) . . .
44.3(35) . . .
51(4) . . .
58(4) . . .
53(4) . . .
56(4) . . .
39(4) . . .
36.3(34) . . .
47(4) . . .
51(4) . . .
49(4) . . .
46(4) . . .
52(4) . . .
47(4) . . .
51(4) . . .
48(4) . . .
52(4) . . .
50(4) . . .
40.9(34) . . .
56(4) . . .
42.0(34) . . .
53(4) . . .
55(4) . . .
54(4) . . .
45.5(35) . . .
48(4) . . .
46(4) . . .
52(4) . . .
44(4) . . .
48(4) . . .
54(4) . . .
54(4) . . .
47(4) . . .
49(4) . . .
56(4) . . .
53(4) . . .
49(4) . . .
49(4) . . .
45(4) . . .
63(4) . . .
47(4) . . .
43.5(35) . . .
56(4) . . .
55(4) . . .
51(4) . . .
53(4) . . .
46(4) . . .
55(4) . . .
52(4) . . .
48(4) . . .
56(4) . . .
44(4) . . .
49(4) . . .
40.1(34) . . .
44.0(34) . . .
49(4) . . .
47(4) . . .
61(4) . . .
57(4) . . .
53(4) . . .
47(4) . . .
54(4) . . .
53(4) . . .
56(4) . . .
48(4) . . .
46(4) . . .
46(4) . . .
49(4) . . .
44.0(35) . . .
50(4) . . .
51(4) . . .
45(4) . . .
42(4) . . .
42.2(34) . . .
46(4) . . .
51(4) . . .
52(4) . . .
56(4) . . .
45.0(35) . . .
39.0(33) . . .
51(4) . . .
42(4) . . .
46(4) . . .
48(4) . . .
48(4) . . .
68(5) . . .
47(4) . . .
45(4) . . .
49(4) . . .
39.9(32) . . .
36.4(32) . . .
44(4) . . .
54(4) . . .
47(4) . . .
57(4) . . .
43(4) . . .
41(4) . . .
42.6(35) . . .
55(4) . . .
50(4) . . .
50(4) . . .
53(4) . . .
56(4) . . .
47(4) . . .
46(4) . . .
44(4) . . .
53(4) . . .
53(4) . . .
57(4) . . .
51(4) . . .
51(4) . . .
42.1(34) . . .
53(4) . . .
44.5(35) . . .
53(4) . . .
51(4) . . .
48(4) . . .
40.5(33) . . .
48(4) . . .
49(4) . . .
52(4) . . .
54(4) . . .
51(4) . . .
56(4) . . .
39.0(32) . . .
51(4) . . .
55(4) . . .
39.2(33) . . .
47(4) . . .
53(4) . . .
45(4) . . .
41.4(34) . . .
43.2(34) . . .
53(4) . . .
45(4) . . .
43(4) . . .
54(4) . . .
51(4) . . .
41.4(34) . . .
44(4) . . .
47(4) . . .
57(4) . . .
58(4) . . .
56(4) . . .
53(4) . . .
48(4) . . .
51(4) . . .
49(4) . . .
46.0(35) . . .
46(4) . . .
47(4) . . .
41(4) . . .
50(4) . . .
48(4) . . .
41.3(34) . . .
51(4) . . .
48(4) . . .
49(4) . . .
49(4) . . .
52(4) . . .
46(4) . . .
48(4) . . .
53(4) . . .
45.5(35) . . .
55(4) . . .
52(4) . . .
45.0(35) . . .
47(4) . . .
59(4) . . .
49(4) . . .
42.6(34) . . .
54(4) . . .
50(4) . . .
55(4) . . .
52(4) . . .
52(4) . . .
45.6(35) . . .
46(4) . . .
53(4) . . .
39.8(33) . . .
49(4) . . .
52(4) . . .
47(4) . . .
55(4) . . .
37.5(32) . . .
64(4) . . .
52(4) . . .
45.1(35) . . .
55(4) . . .
45(4) . . .
42.8(34) . . .
52(4) . . .
41.8(34) . . .
46(4) . . .
53(4) . . .
44(4) . . .
51(4) . . .
53(4) . . .
45(4) . . .
44(4) . . .
47(4) . . .
55(4) . . .
48(4) . . .
38.8(35) . . .
41.1(35) . . .
52(4) . . .
46(4) . . .
47(4) . . .
40.9(35) . . .
49(4) . . .
47(4) . . .
43.8(35) . . .
53(4) . . .
45(4) . . .
48(4) . . .
49(4) . . .
37.3(32) . . .
51(4) . . .
42(4) . . .
44(4) . . .
44.9(35) . . .
50(4) . . .
47(4) . . .
45(4) . . .
54(4) . . .
43.1(34) . . .
42.8(34) . . .
43(4) . . .
40.0(35) . . .
58(4) . . .
58(4) . . .
53(4) . . .
43.1(34) . . .
58(4) . . .
51(4) . . .
44.3(35) . . .
51(4) . . .
43.0(34) . . .
47(4) . . .
62(4) . . .
58(4) . . .
51(4) . . .
49(4) . . .
46(4) . . .
43(4) . . .
51(4) . . .
46(4) . . .
55(4) . . .
47(4) . . .
57(4) . . .
44.2(34) . . .
41.6(34) . . .
53(4) . . .
48(4) . . .
46(4) . . .
48(4) . . .
50(4) . . .
50(4) . . .
47(4) . . .
51(4) . . .
52(4) . . .
51(4) . . .
40.1(33) . . .
45(4) . . .
50(4) . . .
47(4) . . .
55(4) . . .
55(4) . . .
53(4) . . .
57(4) . . .
59(4) . . .
42(4) . . .
47(4) . . .
52(4) . . .
49(4) . . .
54(4) . . .
50(4) . . .
48(4) . . .
40(4) . . .
41.3(34) . . .
59(4) . . .
48(4) . . .
54(4) . . .
60(4) . . .
56(4) . . .
53(4) . . .
52(4) . . .
48(4) . . .
45(4) . . .
54(4) . . .
63(4) . . .
50(4) . . .
51(4) . . .
50(4) . . .
48(4) . . .
46(4) . . .
45(4) . . .
54(4) . . .
48(4) . . .
59(4) . . .
57(4) . . .
45(4) . . .
46(4) . . .
48(4) . . .
58(4) . . .
49(4) . . .
50(4) . . .
46(4) . . .
39.3(34) . . .
56(4) . . .
47(4) . . .
50(4) . . .
53(4) . . .
47(4) . . .
53(4) . . .
47(4) . . .
47(4) . . .
46(4) . . .
45(4) . . .
48(4) . . .
52(4) . . .
49(4) . . .
53(4) . . .
59(4) . . .
50(4) . . .
49(4) . . .
45(4) . . .
50(4) . . .
38.8(33) . . .
48(4) . . .
51(4) . . .
46(4) . . .
46(4) . . .
48(4) . . .
53(4) . . .
45(4) . . .
45(4) . . .
43.0(34) . . .
59(4) . . .
55(4) . . .
43(4) . . .
42(4) . . .
46(4) . . .
50(4) . . .
48(4) . . .
46(4) . . .
48(4) . . .
48(4) . . .
52(4) . . .
52(4) . . .
44.8(35) . . .
53(4) . . .
52(4) . . .
49(4) . . .
54(4) . . .
56(4) . . .
47(4) . . .
49(4) . . .
55(4) . . .
54(4) . . .
49(4) . . .
49(4) . . .
43(4) . . .
42.7(34) . . .
51(4) . . .
50(4) . . .
43.8(35) . . .
56(4) . . .
42.5(34) . . .
47(4) . . .
52(4) . . .
56(4) . . .
44.5(35) . . .
51(4) . . .
52(4) . . .
53(4) . . .
49(4) . . .
44.2(34) . . .
47(4) . . .
53(4) . . .
51(4) . . .
44.3(35) . . .
37.4(31) . . .
48(4) . . .
43(4) . . .
45(4) . . .
51(4) . . .
53(4) . . .
49(4) . . .
37.2(32) . . .
60(4) . . .
54(4) . . .
42.0(34) . . .
52(4) . . .
48(4) . . .
53(4) . . .
43(4) . . .
41.3(34) . . .
35.9(32) . . .
46(4) . . .
45(4) . . .
50(4) . . .
46(4) . . .
57(4) . . .
41(4) . . .
46(4) . . .
48(4) . . .
43.7(34) . . .
52(4) . . .
37.8(32) . . .
44(4) . . .
45(4) . . .
50(4) . . .
43.9(34) . . .
43(4) . . .
44(4) . . .
39.2(34) . . .
43.9(34) . . .
47(4) . . .
45(4) . . .
51(4) . . .
42.1(34) . . .
53(4) . . .
55(4) . . .
55(4) . . .
57(4) . . .
42.9(34) . . .
49(4) . . .
42(4) . . .
45(4) . . .
47(4) . . .
47(4) . . .
61(4) . . .
60(4) . . .
49(4) . . .
53(4) . . .
48(4) . . .
44.2(35) . . .
48(4) . . .
41(4) . . .
47(4) . . .
43.3(34) . . .
48(4) . . .
53(4) . . .
48(4) . . .
52(4) . . .
52(4) . . .
58(4) . . .
46(4) . . .
41(4) . . .
41.3(34) . . .
51(4) . . .
42.8(35) . . .
48(4) . . .
65(4) . . .
51(4) . . .
51(4) . . .
48(4) . . .
53(4) . . .
49(4) . . .
49(4) . . .
39.9(33) . . .
47(4) . . .
60(4) . . .
55(4) . . .
55(4) . . .
43.1(34) . . .
54(4) . . .
51(4) . . .
49(4) . . .
44.3(35) . . .
52(4) . . .
45(4) . . .
38.0(34) . . .
40.6(34) . . .
37.0(32) . . .
53(4) . . .
47(4) . . .
48(4) . . .
50(4) . . .
39.8(33) . . .
57(4) . . .
53(4) . . .
51(4) . . .
46(4) . . .
43.1(34) . . .
51(4) . . .
60(4) . . .
54(4) . . .
50(4) . . .
46(4) . . .
46(4) . . .
50(4) . . .
49(4) . . .
44.8(35) . . .
50(4) . . .
52(4) . . .
51(4) . . .
50(4) . . .
44(4) . . .
43.1(35) . . .
51(4) . . .
42.8(34) . . .
60(4) . . .
45(4) . . .
44.0(34) . . .
47(4) . . .
47(4) . . .
39.7(34) . . .
38.9(33) . . .
43.5(34) . . .
45(4) . . .
41(4) . . .
51(4) . . .
55(4) . . .
42.8(34) . . .
49(4) . . .
51(4) . . .
51(4) . . .
56(4) . . .
45(4) . . .
55(4) . . .
54(4) . . .
42(4) . . .
57(4) . . .
46(4) . . .
49(4) . . .
53(4) . . .
53(4) . . .
47(4) . . .
42.7(35) . . .
50(4) . . .
50(4) . . .
37.9(33) . . .
41.3(35) . . .
51(4) . . .
49(4) . . .
55(4) . . .
53(4) . . .
52(4) . . .
48(4) . . .
44.2(35) . . .
51(4) . . .
44.8(34) . . .
48(4) . . .
49(4) . . .
62(4) . . .
59(4) . . .
52(4) . . .
50(4) . . .
47(4) . . .
41.0(33) . . .
55(4) . . .
41.8(34) . . .
53(4) . . .
55(4) . . .
42(4) . . .
48(4) . . .
44.9(35) . . .
47(4) . . .
42.4(35) . . .
51(4) . . .
40.4(33) . . .
50(4) . . .
50(4) . . .
41.9(34) . . .
49(4) . . .
44(4) . . .
48(4) . . .
50(4) . . .
45(4) . . .
47(4) . . .
44(4) . . .
46(4) . . .
46(4) . . .
43(4) . . .
50(4) . . .
47(4) . . .
38.3(32) . . .
37.4(32) . . .
44(4) . . .
37.0(32) . . .
55(4) . . .
40.0(33) . . .
48(4) . . .
53(4) . . .
36.0(31) . . .
40.9(35) . . .
44.2(35) . . .
43.0(34) . . .
49(4) . . .
58(4) . . .
49(4) . . .
59(4) . . .
43.7(34) . . .
47(4) . . .
45(4) . . .
45(4) . . .
44.9(35) . . .
47(4) . . .
51(4) . . .
46(4) . . .
55(4) . . .
44.2(34) . . .
45.2(35) . . .
49(4) . . .
37.9(34) . . .
46(4) . . .
44.1(35) . . .
52(4) . . .
44(4) . . .
39.2(33) . . .
50(4) . . .
50(4) . . .
45(4) . . .
42.9(35) . . .
48(4) . . .
41.2(35) . . .
51(4) . . .
46(4) . . .
46(4) . . .
46(4) . . .
53(4) . . .
52(4) . . .
48(4) . . .
49(4) . . .
40(4) . . .
46(4) . . .
50(4) . . .
51(4) . . .
40(4) . . .
48(4) . . .
50(4) . . .
41.2(33) . . .
51(4) . . .
57(4) . . .
47(4) . . .
52(4) . . .
49(4) . . .
51(4) . . .
45(4) . . .
44(4) . . .
41.8(33) . . .
44.4(35) . . .
46(4) . . .
41(4) . . .
44(4) . . .
49(4) . . .
49(4) . . .
40.6(33) . . .
44(4) . . .
47(4) . . .
52(4) . . .
36.6(31) . . .
36.3(31) . . .
50(4) . . .
55(4) . . .
47(4) . . .
52(4) . . .
46(4) . . .
43(4) . . .
46(4) . . .
48(4) . . .
41.8(35) . . .
44(4) . . .
41.3(34) . . .
51(4) . . .
42.3(34) . . .
56(4) . . .
51(4) . . .
45.7(35) . . .
46(4) . . .
47(4) . . .
47(4) . . .
44(4) . . .
40.9(33) . . .
40.1(33) . . .
58(4) . . .
53(4) . . .
43(4) . . .
42(4) . . .
49(4) . . .
39.4(33) . . .
51(4) . . .
47(4) . . .
45(4) . . .
40.9(33) . . .
46.1(35) . . .
42(4) . . .
47(4) . . .
43.2(35) . . .
42.7(34) . . .
50(4) . . .
44(4) . . .
50(4) . . .
49(4) . . .
49(4) . . .
47(4) . . .
42.1(34) . . .
42.6(35) . . .
45.0(35) . . .
48(4) . . .
36.3(31) . . .
39.2(33) . . .
43(4) . . .
42.3(34) . . .
41.8(34) . . .
42.3(34) . . .
42.4(35) . . .
55(4) . . .
33.6(30) . . .
42.3(33) . . .
52(4) . . .
43(4) . . .
47(4) . . .
39.7(33) . . .
48(4) . . .
48(4) . . .
44.0(35) . . .
54(4) . . .
39.3(32) . . .
47(4) . . .
47(4) . . .
36.8(32) . . .
48(4) . . .
53(4) . . .
52(4) . . .
42.3(35) . . .
36.5(33) . . .
49(4) . . .
47(4) . . .
37.4(32) . . .
39.6(33) . . .
45(4) . . .
37.2(32) . . .
47(4) . . .
46(4) . . .
44.1(35) . . .
54(4) . . .
41.9(35) . . .
50(4) . . .
56(4) . . .
51(4) . . .
49(4) . . .
43(4) . . .
50(4) . . .
47(4) . . .
49(4) . . .
45(4) . . .
44(4) . . .
52(4) . . .
54(4) . . .
47(4) . . .
44(4) . . .
49(4) . . .
42.2(34) . . .
41.0(34) . . .
44(4) . . .
51(4) . . .
51(4) . . .
47(4) . . .
52(4) . . .
50(4) . . .
42.9(34) . . .
42.9(34) . . .
42.1(34) . . .
47(4) . . .
49(4) . . .
54(4) . . .
54(4) . . .
53(4) . . .
39.7(33) . . .
44.2(35) . . .
47(4) . . .
49(4) . . .
47(4) . . .
53(4) . . .
51(4) . . .
43.8(34) . . .
44(4) . . .
44.9(35) . . .
48(4) . . .
48(4) . . .
51(4) . . .
48(4) . . .
51(4) . . .
51(4) . . .
55(4) . . .
49(4) . . .
47(4) . . .
45(4) . . .
45(4) . . .
38.6(34) . . .
45(4) . . .
48(4) . . .
41.1(33) . . .
44(4) . . .
41(4) . . .
48(4) . . .
56(4) . . .
56(4) . . .
41.3(35) . . .
47(4) . . .
52(4) . . .
38.5(32) . . .
43.3(35) . . .
55(4) . . .
51(4) . . .
40.1(34) . . .
48(4) . . .
43.8(35) . . .
51(4) . . .
45(4) . . .
47(4) . . .
50(4) . . .
44(4) . . .
46(4) . . .
42.8(35) . . .
44(4) . . .
50(4) . . .
38.4(34) . . .
52(4) . . .
41.8(35) . . .
41.2(34) . . .
49(4) . . .
48(4) . . .
36.5(31) . . .
52(4) . . .
50(4) . . .
51(4) . . .
41.3(35) . . .
44(4) . . .
41.1(33) . . .
58(4) . . .
49(4) . . .
50(4) . . .
47(4) . . .
55(4) . . .
42.0(34) . . .
55(4) . . .
50(4) . . .
49(4) . . .
48(4) . . .
40.2(33) . . .
48(4) . . .
47(4) . . .
48(4) . . .
38.8(33) . . .
45(4) . . .
40.8(33) . . .
43.6(35) . . .
39.0(34) . . .
44(4) . . .
46(4) . . .
41.2(35) . . .
52(4) . . .
47(4) . . .
49(4) . . .
49(4) . . .
55(4) . . .
40.5(32) . . .
47(4) . . .
55(4) . . .
56(4) . . .
43.6(35) . . .
47(4) . . .
41.8(34) . . .
38.8(32) . . .
54(4) . . .
39.2(33) . . .
40.7(34) . . .
40.1(34) . . .
54(4) . . .
51(4) . . .
46(4) . . .
53(4) . . .
44.0(34) . . .
47(4) . . .
40.1(33) . . .
54(4) . . .
46(4) . . .
49(4) . . .
50(4) . . .
53(4) . . .
47(4) . . .
48(4) . . .
43.0(34) . . .
43.3(34) . . .
50(4) . . .
43.7(35) . . .
52(4) . . .
46(4) . . .
46(4) . . .
52(4) . . .
57(4) . . .
43(4) . . .
48(4) . . .
51(4) . . .
48(4) . . .
36.5(31) . . .
45(4) . . .
55(4) . . .
43.1(35) . . .
51(4) . . .
47(4) . . .
52(4) . . .
51(4) . . .
54(4) . . .
55(4) . . .
51(4) . . .
48(4) . . .
41.2(35) . . .
43.2(34) . . .
48(4) . . .
45.8(35) . . .
44(4) . . .
44(4) . . .
40.2(33) . . .
46(4) . . .
54(4) . . .
44(4) . . .
49(4) . . .
46(4) . . .
49(4) . . .
49(4) . . .
43(4) . . .
40.4(34) . . .
42.8(34) . . .
42.8(35) . . .
48(4) . . .
46(4) . . .
48(4) . . .
44.7(35) . . .
43(4) . . .
53(4) . . .
42.6(35) . . .
46(4) . . .
59(4) . . .
58(4) . . .
46(4) . . .
39.8(34) . . .
52(4) . . .
42.3(34) . . .
42(4) . . .
48(4) . . .
53(4) . . .
44.8(34) . . .
46(4) . . .
35.7(32) . . .
41.8(35) . . .
49(4) . . .
40.3(33) . . .
36.2(32) . . .
39.7(34) . . .
50(4) . . .
47(4) . . .
57(4) . . .
55(4) . . .
50(4) . . .
48(4) . . .
47(4) . . .
54(4) . . .
51(4) . . .
52(4) . . .
46(4) . . .
50(4) . . .
40.8(34) . . .
42.1(35) . . .
40.8(33) . . .
58(4) . . .
51(4) . . .
42.7(34) . . .
50(4) . . .
44(4) . . .
51(4) . . .
49(4) . . .
48(4) . . .
44(4) . . .
49(4) . . .
47(4) . . .
52(4) . . .
53(4) . . .
54(4) . . .
44(4) . . .
44(4) . . .
47(4) . . .
46(4) . . .
42.6(34) . . .
48(4) . . .
38.6(33) . . .
40.5(33) . . .
41.7(33) . . .
41.5(34) . . .
44(4) . . .
45(4) . . .
46(4) . . .
53(4) . . .
43(4) . . .
53(4) . . .
53(4) . . .
48(4) . . .
48(4) . . .
50(4) . . .
54(4) . . .
46(4) . . .
45.8(35) . . .
59(4) . . .
47(4) . . .
42.0(34) . . .
54(4) . . .
41.4(33) . . .
47(4) . . .
48(4) . . .
50(4) . . .
50(4) . . .
46(4) . . .
43.0(35) . . .
49(4) . . .
45(4) . . .
51(4) . . .
50(4) . . .
48(4) . . .
51(4) . . .
48(4) . . .
57(4) . . .
50(4) . . .
48(4) . . .
51(4) . . .
46(4) . . .
46(4) . . .
57(4) . . .
44.1(35) . . .
40.4(35) . . .
43(4) . . .
54(4) . . .
42.0(34) . . .
50(4) . . .
42.1(35) . . .
49(4) . . .
52(4) . . .
48(4) . . .
41.4(34) . . .
42(4) . . .
48(4) . . .
41.9(34) . . .
51(4) . . .
51(4) . . .
47(4) . . .
44(4) . . .
50(4) . . .
53(4) . . .
54(4) . . .
58(4) . . .
50(4) . . .
41.1(34) . . .
52(4) . . .
49(4) . . .
54(4) . . .
50(4) . . .
53(4) . . .
42.3(34) . . .
46(4) . . .
45(4) . . .
51(4) . . .
42.0(34) . . .
38.0(32) . . .
45(4) . . .
48(4) . . .
56(4) . . .
53(4) . . .
49(4) . . .
51(4) . . .
49(4) . . .
42.2(34) . . .
43.5(34) . . .
48(4) . . .
49(4) . . .
48(4) . . .
38.3(32) . . .
43.2(34) . . .
53(4) . . .
53(4) . . .
59(4) . . .
51(4) . . .
49(4) . . .
46(4) . . .
45(4) . . .
49(4) . . .
50(4) . . .
44(4) . . .
42.9(34) . . .
47(4) . . .
47(4) . . .
40.3(33) . . .
47(4) . . .
45(4) . . .
44(4) . . .
41(4) . . .
42.8(34) . . .
45(4) . . .
47(4) . . .
42.6(34) . . .
51(4) . . .
45.3(35) . . .
42.0(35) . . .
48(4) . . .
49(4) . . .
33.7(31) . . .
39.0(33) . . .
53(4) . . .
52(4) . . .
39.5(34) . . .
38.0(33) . . .
48(4) . . .
49(4) . . .
46(4) . . .
45(4) . . .
45.2(35) . . .
46(4) . . .
46(4) . . .
50(4) . . .
45(4) . . .
53(4) . . .
47(4) . . .
47(4) . . .
46(4) . . .
40.9(34) . . .
41.5(33) . . .
54(4) . . .
50(4) . . .
50(4) . . .
39.5(33) . . .
38.8(33) . . .
50(4) . . .
47(4) . . .
52(4) . . .
42.3(34) . . .
47(4) . . .
45(4) . . .
36.5(33) . . .
42(4) . . .
40.3(32) . . .
54(4) . . .
48(4) . . .
43.4(35) . . .
44(4) . . .
47(4) . . .
45.1(34) . . .
41.4(33) . . .
45(4) . . .
45(4) . . .
37.8(32) . . .
45(4) . . .
43.2(34) . . .
39.2(33) . . .
40(4) . . .
43(4) . . .
46.4(35) . . .
36.3(32) . . .
47(4) . . .
39.6(35) . . .
46(4) . . .
40.3(33) . . .
56(4) . . .
49(4) . . .
48(4) . . .
42.3(34) . . .
48(4) . . .
47(4) . . .
47(4) . . .
56(4) . . .
52(4) . . .
47(4) . . .
52(4) . . .
42.0(34) . . .
43.9(35) . . .
43(4) . . .
38.0(32) . . .
48(4) . . .
57(4) . . .
45.4(35) . . .
50(4) . . .
48(4) . . .
47(4) . . .
48(4) . . .
47(4) . . .
46.0(35) . . .
36.1(32) . . .
37.9(32) . . .
54(4) . . .
37.2(31) . . .
39.0(32) . . .
48(4) . . .
45(4) . . .
41.1(34) . . .
53(4) . . .
51(4) . . .
52(4) . . .
48(4) . . .
46(4) . . .
51(4) . . .
45.3(35) . . .
42.6(34) . . .
45(4) . . .
47(4) . . .
50(4) . . .
46(4) . . .
42.4(34) . . .
44(4) . . .
36.2(31) . . .
41(4) . . .
43.4(34) . . .
49(4) . . .
48(4) . . .
49(4) . . .
56(4) . . .
44.3(34) . . .
50(4) . . .
41.9(33) . . .
53(4) . . .
53(4) . . .
52(4) . . .
57(4) . . .
34.2(31) . . .
48(4) . . .
49(4) . . .
53(4) . . .
55(4) . . .
47(4) . . .
56(4) . . .
50(4) . . .
41.7(34) . . .
47(4) . . .
47(4) . . .
49(4) . . .
47(4) . . .
54(4) . . .
52(4) . . .
47(4) . . .
48(4) . . .
46(4) . . .
37.7(32) . . .
36.0(34) . . .
43(4) . . .
50(4) . . .
43.8(34) . . .
40.4(33) . . .
48(4) . . .
54(4) . . .
47(4) . . .
42.5(35) . . .
50(4) . . .
42.6(35) . . .
46(4) . . .
41.7(34) . . .
43.8(34) . . .
49(4) . . .
58(4) . . .
52(4) . . .
62(4) . . .
52(4) . . .
41(4) . . .
40.3(34) . . .
53(4) . . .
52(4) . . .
50(4) . . .
44.4(35) . . .
39.5(32) . . .
52(4) . . .
60(4) . . .
51(4) . . .
54(4) . . .
52(4) . . .
32.2(29) . . .
42.4(34) . . .
55(4) . . .
48(4) . . .
51(4) . . .
33.1(29) . . .
35.8(31) . . .
45(4) . . .
41.2(35) . . .
39.2(35) . . .
41.8(34) . . .
48(4) . . .
44.5(35) . . .
43(4) . . .
49(4) . . .
42.0(34) . . .
41.8(34) . . .
43.0(35) . . .
44(4) . . .
45(4) . . .
43(4) . . .
40.9(33) . . .
57(4) . . .
47(4) . . .
44(4) . . .
39.4(33) . . .
48(4) . . .
48(4) . . .
50(4) . . .
48(4) . . .
40.8(34) . . .
47(4) . . .
48(4) . . .
41.7(34) . . .
50(4) . . .
50(4) . . .
43.0(34) . . .
45(4) . . .
40(4) . . .
47(4) . . .
44(4) . . .
46(4) . . .
33.5(31) . . .
37.0(34) . . .
43(4) . . .
45(4) . . .
47(4) . . .
46(4) . . .
43(4) . . .
44(4) . . .
42(4) . . .
43.5(34) . . .
46(4) . . .
44(4) . . .
39.9(35) . . .
45(4) . . .
48(4) . . .
44(4) . . .
54(4) . . .
48(4) . . .
41.2(33) . . .
35.7(32) . . .
50(4) . . .
53(4) . . .
50(4) . . .
40.0(33) . . .
49(4) . . .
42(4) . . .
46(4) . . .
42(4) . . .
41.4(34) . . .
35.2(31) . . .
50(4) . . .
48(4) . . .
37.9(32) . . .
40.8(33) . . .
48(4) . . .
38.9(34) . . .
40(4) . . .
43(4) . . .
46(4) . . .
41.4(34) . . .
47(4) . . .
45(4) . . .
43(4) . . .
46(4) . . .
40.1(33) . . .
37.8(32) . . .
40.5(33) . . .
42.4(35) . . .
54(4) . . .
45.2(35) . . .
50(4) . . .
49(4) . . .
37.9(32) . . .
42.1(34) . . .
44.5(34) . . .
50(4) . . .
45(4) . . .
48(4) . . .
38.7(32) . . .
45(4) . . .
42(4) . . .
40.0(32) . . .
42.0(34) . . .
46(4) . . .
40.8(34) . . .
50(4) . . .
51(4) . . .
44.5(35) . . .
48(4) . . .
48(4) . . .
45(4) . . .
38.5(32) . . .
42.3(34) . . .
45.2(35) . . .
42(4) . . .
46(4) . . .
36.9(31) . . .
49(4) . . .
47(4) . . .
46(4) . . .
48(4) . . .
42.7(35) . . .
48(4) . . .
42.0(35) . . .
47(4) . . .
43(4) . . .
45(4) . . .
37.2(32) . . .
43.2(34) . . .
49(4) . . .
41(4) . . .
48(4) . . .
59(4) . . .
44.7(34) . . .
47(4) . . .
51(4) . . .
43.3(35) . . .
37.6(32) . . .
42.6(34) . . .
42.1(34) . . .
38.8(32) . . .
49(4) . . .
46(4) . . .
40.5(33) . . .
46(4) . . .
53(4) . . .
30.8(30) . . .
41.9(34) . . .
49(4) . . .
45(4) . . .
45(4) . . .
45(4) . . .
37.3(32) . . .
35.2(32) . . .
42(4) . . .
44(4) . . .
38.3(32) . . .
38.8(32) . . .
46(4) . . .
48(4) . . .
44(4) . . .
43.0(34) . . .
50(4) . . .
48(4) . . .
45(4) . . .
34.9(30) . . .
41.8(34) . . .
47(4) . . .
41(4) . . .
42(4) . . .
53(4) . . .
42.7(35) . . .
42.0(35) . . .
41(4) . . .
51(4) . . .
43(4) . . .
41.9(33) . . .
40.7(34) . . .
41.8(35) . . .
39.3(34) . . .
43(4) . . .
38.6(32) . . .
51(4) . . .
52(4) . . .
39.5(34) . . .
48(4) . . .
42.5(35) . . .
45(4) . . .
47(4) . . .
49(4) . . .
42(4) . . .
39.8(33) . . .
40.0(33) . . .
39.1(35) . . .
42(4) . . .
50(4) . . .
48(4) . . .
43(4) . . .
42(4) . . .
47(4) . . .
48(4) . . .
38.1(32) . . .
42(4) . . .
45(4) . . .
45.8(34) . . .
45.1(35) . . .
46.0(35) . . .
48(4) . . .
42(4) . . .
37.2(32) . . .
40.9(34) . . .
39.5(32) . . .
44(4) . . .
47(4) . . .
39.7(34) . . .
45(4) . . .
37.1(32) . . .
40.5(34) . . .
38.6(34) . . .
51(4) . . .
43.6(34) . . .
53(4) . . .
51(4) . . .
45(4) . . .
50(4) . . .
56(4) . . .
42.1(34) . . .
43(4) . . .
44(4) . . .
51(4) . . .
42.0(34) . . .
33.2(30) . . .
33.9(31) . . .
40(4) . . .
37.7(34) . . .
43.9(34) . . .
44(4) . . .
44(4) . . .
45(4) . . .
41.2(33) . . .
48(4) . . .
38.7(34) . . .
35.1(32) . . .
33.5(30) . . .
41.4(34) . . .
44.2(35) . . .
36.3(31) . . .
40.8(34) . . .
49(4) . . .
51(4) . . .
43(4) . . .
53(4) . . .
44(4) . . .
39.5(33) . . .
43.8(35) . . .
42.8(34) . . .
40.6(33) . . .
50(4) . . .
51(4) . . .
54(4) . . .
43.2(34) . . .
37.0(32) . . .
44(4) . . .
47(4) . . .
39.7(34) . . .
44.9(35) . . .
42.1(35) . . .
46(4) . . .
53(4) . . .
42.9(34) . . .
52(4) . . .
47(4) . . .
39(4) . . .
46(4) . . .
38.6(32) . . .
37.0(32) . . .
39(4) . . .
40.2(34) . . .
47(4) . . .
39.3(32) . . .
57(4) . . .
44.8(35) . . .
46(4) . . .
40.6(33) . . .
45.8(35) . . .
47(4) . . .
43.4(34) . . .
58(4) . . .
53(4) . . .
55(4) . . .
47(4) . . .
46(4) . . .
41.7(33) . . .
52(4) . . .
41.3(34) . . .
35.0(31) . . .
44(4) . . .
47(4) . . .
42.5(35) . . .
41.1(34) . . .
38.8(33) . . .
46(4) . . .
32.5(29) . . .
45(4) . . .
33.4(30) . . .
38.5(34) . . .
46(4) . . .
40.0(32) . . .
39.6(33) . . .
38.2(32) . . .
50(4) . . .
39.8(32) . . .
47(4) . . .
48(4) . . .
42.0(34) . . .
39.7(35) . . .
45(4) . . .
51(4) . . .
55(4) . . .
39.5(32) . . .
49(4) . . .
46(4) . . .
40.5(34) . . .
41.3(34) . . .
40.2(33) . . .
42.3(34) . . .
40.8(34) . . .
40.9(34) . . .
34.1(32) . . .
42.7(34) . . .
39.0(34) . . .
42(4) . . .
44(4) . . .
39.8(33) . . .
36.7(32) . . .
52(4) . . .
44(4) . . .
58(4) . . .
51(4) . . .
47(4) . . .
45(4) . . .
45(4) . . .
44.4(34) . . .
48(4) . . .
49(4) . . .
44(4) . . .
42(4) . . .
43(4) . . .
50(4) . . .
52(4) . . .
51(4) . . .
43.5(35) . . .
48(4) . . .
35.0(31) . . .
45(4) . . .
36.2(33) . . .
39.0(34) . . .
47(4) . . .
42.3(34) . . .
45(4) . . .
44(4) . . .
40(4) . . .
40.0(33) . . .
36.4(31) . . .
35.8(31) . . .
42(4) . . .
44(4) . . .
50(4) . . .
49(4) . . .
51(4) . . .
40(4) . . .
42(4) . . .
43.4(35) . . .
44.1(34) . . .
45(4) . . .
39.0(33) . . .
46(4) . . .
49(4) . . .
49(4) . . .
41.3(35) . . .
40(4) . . .
42(4) . . .
47(4) . . .
44(4) . . .
49(4) . . .
39.5(35) . . .
53(4) . . .
47(4) . . .
41.5(33) . . .
45(4) . . .
45(4) . . .
48(4) . . .
45(4) . . .
47(4) . . .
37.3(32) . . .
35.6(31) . . .
42.3(33) . . .
46(4) . . .
43(4) . . .
48(4) . . .
40.6(34) . . .
36.3(33) . . .
42.6(34) . . .
50(4) . . .
48(4) . . .
45(4) . . .
40.4(34) . . .
44.2(34) . . .
52(4) . . .
40.0(32) . . .
39.7(34) . . .
40.9(33) . . .
38.8(32) . . .
49(4) . . .
44(4) . . .
46(4) . . .
35.7(31) . . .
32.0(30) . . .
36.4(32) . . .
43(4) . . .
41.3(34) . . .
46(4) . . .
46(4) . . .
51(4) . . .
44(4) . . .
47(4) . . .
41.4(33) . . .
38.4(33) . . .
45(4) . . .
43.1(35) . . .
50(4) . . .
44.3(35) . . .
48(4) . . .
53(4) . . .
45(4) . . .
42(4) . . .
39.2(33) . . .
44(4) . . .
41(4) . . .
51(4) . . .
41.3(35) . . .
46(4) . . .
45(4) . . .
55(4) . . .
39.4(33) . . .
46(4) . . .
35.3(31) . . .
50(4) . . .
44.1(35) . . .
43(4) . . .
48(4) . . .
48(4) . . .
42(4) . . .
35.8(33) . . .
44(4) . . .
41.6(33) . . .
41.8(34) . . .
49(4) . . .
50(4) . . .
46(4) . . .
46(4) . . .
43.9(34) . . .
39.3(33) . . .
44(4) . . .
40(4) . . .
46(4) . . .
41.6(33) . . .
52(4) . . .
44(4) . . .
45.5(35) . . .
53(4) . . .
46(4) . . .
35.3(31) . . .
50(4) . . .
39.5(34) . . .
34.4(31) . . .
47(4) . . .
47(4) . . .
41(4) . . .
46(4) . . .
43.9(35) . . .
43.9(35) . . .
35.8(32) . . .
37.0(34) . . .
42.4(35) . . .
46(4) . . .
43.0(34) . . .
50(4) . . .
44(4) . . .
38.0(32) . . .
40.7(33) . . .
39.4(33) . . .
47(4) . . .
43(4) . . .
40.2(34) . . .
45.3(35) . . .
39.1(32) . . .
46(4) . . .
46(4) . . .
41.5(34) . . .
32.7(31) . . .
39.0(35) . . .
42(4) . . .
49(4) . . .
38.7(33) . . .
47(4) . . .
45(4) . . .
34.2(31) . . .
44(4) . . .
43.1(35) . . .
38.6(33) . . .
55(4) . . .
47(4) . . .
44.2(34) . . .
40.9(33) . . .
41.2(33) . . .
45(4) . . .
48(4) . . .
49(4) . . .
50(4) . . .
43.1(35) . . .
52(4) . . .
40.6(34) . . .
40.5(34) . . .
42.3(35) . . .
51(4) . . .
48(4) . . .
52(4) . . .
40.2(33) . . .
37.9(31) . . .
42.8(34) . . .
42(4) . . .
41(4) . . .
57(4) . . .
44.1(34) . . .
57(4) . . .
50(4) . . .
40.0(33) . . .
50(4) . . .
38.4(33) . . .
50(4) . . .
47(4) . . .
46(4) . . .
41(4) . . .
46(4) . . .
42.3(33) . . .
46(4) . . .
39.7(34) . . .
43(4) . . .
47(4) . . .
44(4) . . .
35.0(30) . . .
47(4) . . .
41.4(34) . . .
41.0(33) . . .
39.8(34) . . .
47(4) . . .
55(4) . . .
48(4) . . .
39.7(33) . . .
46(4) . . .
44(4) . . .
38.4(33) . . .
37.3(33) . . .
39.3(33) . . .
44(4) . . .
38.7(34) . . .
40.4(33) . . .
44(4) . . .
45.3(35) . . .
42.1(35) . . .
44(4) . . .
37.2(32) . . .
53(4) . . .
45.2(35) . . .
42.0(33) . . .
48(4) . . .
49(4) . . .
40.3(33) . . .
42.0(34) . . .
41(4) . . .
33.8(31) . . .
40.2(33) . . .
48(4) . . .
42.5(34) . . .
40(4) . . .
47(4) . . .
44(4) . . .
43.7(35) . . .
43(4) . . .
48(4) . . .
50(4) . . .
45(4) . . .
52(4) . . .
38.5(34) . . .
39.8(32) . . .
40.3(33) . . .
54(4) . . .
36.5(33) . . .
46(4) . . .
44(4) . . .
45(4) . . .
45(4) . . .
42.7(34) . . .
50(4) . . .
44.8(34) . . .
51(4) . . .
41.3(34) . . .
43.5(34) . . .
45(4) . . .
41(4) . . .
42.1(35) . . .
40.3(33) . . .
51(4) . . .
37.0(33) . . .
41(4) . . .
40.4(34) . . .
36.9(32) . . .
43.9(34) . . .
52(4) . . .
52(4) . . .
53(4) . . .
44.4(35) . . .
37.8(32) . . .
42.8(35) . . .
41(4) . . .
42(4) . . .
47(4) . . .
45(4) . . .
52(4) . . .
35.4(32) . . .
37.9(32) . . .
49(4) . . .
51(4) . . .
43.0(34) . . .
47(4) . . .
44(4) . . .
46(4) . . .
48(4) . . .
51(4) . . .
47(4) . . .
38.7(33) . . .
26.4(27) . . .
39.8(35) . . .
46(4) . . .
44(4) . . .
38.3(32) . . .
42.2(33) . . .
45(4) . . .
49(4) . . .
41.8(35) . . .
50(4) . . .
51(4) . . .
45(4) . . .
40.7(35) . . .
37.9(33) . . .
36.8(32) . . .
50(4) . . .
37.3(32) . . .
32.0(30) . . .
41.5(35) . . .
48(4) . . .
35.6(31) . . .
34.4(30) . . .
42(4) . . .
45(4) . . .
44.7(35) . . .
41.7(34) . . .
43(4) . . .
42(4) . . .
34.7(32) . . .
37.1(32) . . .
46(4) . . .
46(4) . . .
37.2(33) . . .
48(4) . . .
45.9(35) . . .
47(4) . . .
41.9(34) . . .
41(4) . . .
43(4) . . .
51(4) . . .
37.7(32) . . .
37.9(33) . . .
39.3(34) . . .
51(4) . . .
42.0(34) . . .
44(4) . . .
39.3(33) . . .
42.4(35) . . .
40.7(35) . . .
39.5(33) . . .
43(4) . . .
46(4) . . .
52(4) . . .
50(4) . . .
46(4) . . .
46(4) . . .
49(4) . . .
48(4) . . .
32.4(30) . . .
43.3(34) . . .
49(4) . . .
46(4) . . .
45(4) . . .
43.0(34) . . .
38.6(32) . . .
35.2(32) . . .
48(4) . . .
42(4) . . .
38.7(32) . . .
43.5(34) . . .
40.1(34) . . .
37.5(32) . . .
40.2(34) . . .
37.9(32) . . .
44.0(35) . . .
42(4) . . .
51(4) . . .
54(4) . . .
43.1(34) . . .
33.7(31) . . .
55(4) . . .
46(4) . . .
50(4) . . .
50(4) . . .
45(4) . . .
40.5(33) . . .
36.4(32) . . .
43(4) . . .
43.8(34) . . .
46(4) . . .
54(4) . . .
39.8(34) . . .
39.7(34) . . .
44.3(35) . . .
33.1(30) . . .
46(4) . . .
41(4) . . .
31.6(30) . . .
40.0(33) . . .
38.8(33) . . .
43.7(35) . . .
48(4) . . .
38.8(32) . . .
47(4) . . .
39.0(32) . . .
43.1(35) . . .
47(4) . . .
36.8(32) . . .
35.4(31) . . .
39.9(34) . . .
48(4) . . .
45(4) . . .
45(4) . . .
35.4(31) . . .
41(4) . . .
45(4) . . .
42.2(35) . . .
40.3(34) . . .
44.8(35) . . .
49(4) . . .
47(4) . . .
39.6(33) . . .
41.5(34) . . .
40.3(34) . . .
45(4) . . .
41.3(33) . . .
49(4) . . .
49(4) . . .
49(4) . . .
44.0(35) . . .
45(4) . . .
48(4) . . .
39.5(33) . . .
50(4) . . .
37.2(32) . . .
38.1(35) . . .
34.4(31) . . .
37.5(33) . . .
44(4) . . .
51(4) . . .
44(4) . . .
50(4) . . .
44.8(34) . . .
44(4) . . .
40.0(34) . . .
38.6(34) . . .
32.9(30) . . .
47(4) . . .
48(4) . . .
38.2(32) . . .
44(4) . . .
49(4) . . .
39.4(33) . . .
49(4) . . .
44(4) . . .
49(4) . . .
43.6(34) . . .
34.4(30) . . .
42(4) . . .
41(4) . . .
35.1(32) . . .
40.5(33) . . .
46(4) . . .
42.4(34) . . .
46(4) . . .
50(4) . . .
41.0(34) . . .
39.2(33) . . .
40.2(33) . . .
47(4) . . .
37.4(32) . . .
42.3(35) . . .
46(4) . . .
37.2(33) . . .
42(4) . . .
42(4) . . .
36.2(31) . . .
33.6(30) . . .
38.7(35) . . .
33.3(33) . . .
35.5(33) . . .
40.1(33) . . .
39.4(32) . . .
37.0(32) . . .
39(4) . . .
35.7(32) . . .
38.0(31) . . .
33.3(30) . . .
47(4) . . .
40(4) . . .
41(4) . . .
43.3(34) . . .
39.8(33) . . .
43(4) . . .
45(4) . . .
45(4) . . .
46(4) . . .
48(4) . . .
42.2(35) . . .
48(4) . . .
43.5(34) . . .
40.2(33) . . .
39.2(33) . . .
40.2(35) . . .
44(4) . . .
43.8(35) . . .
32.1(30) . . .
34.4(32) . . .
34.0(32) . . .
37.9(33) . . .
46(4) . . .
53(4) . . .
39.9(34) . . .
35.6(33) . . .
42.7(35) . . .
47(4) . . .
40.1(33) . . .
36.8(32) . . .
47(4) . . .
43(4) . . .
46(4) . . .
47(4) . . .
34.1(31) . . .
44(4) . . .
36.6(32) . . .
37.1(32) . . .
42.2(35) . . .
44(4) . . .
44(4) . . .
46(4) . . .
47(4) . . .
44(4) . . .
37.3(33) . . .
38(4) . . .
47(4) . . .
48(4) . . .
42.1(33) . . .
45(4) . . .
31.6(32) . . .
40.4(34) . . .
48(4) . . .
52(4) . . .
33.1(30) . . .
51(4) . . .
42.3(34) . . .
38.2(33) . . .
43.5(35) . . .
39.7(35) . . .
41(4) . . .
47(4) . . .
36.1(31) . . .
43.8(35) . . .
46(4) . . .
43.9(35) . . .
39.1(32) . . .
39.9(33) . . .
45.3(35) . . .
54(4) . . .
40.6(35) . . .
39.3(33) . . .
43.5(34) . . .
42(4) . . .
41.5(34) . . .
43.5(34) . . .
45(4) . . .
30.4(30) . . .
39(4) . . .
41.2(35) . . .
54(4) . . .
40.8(33) . . .
36.4(31) . . .
41.3(34) . . .
40.7(35) . . .
43(4) . . .
39.8(34) . . .
38.6(33) . . .
44(4) . . .
50(4) . . .
46(4) . . .
52(4) . . .
55(4) . . .
46(4) . . .
43(4) . . .
39.2(33) . . .
44(4) . . .
38.7(32) . . .
36.7(32) . . .
45(4) . . .
33.5(30) . . .
44(4) . . .
38.3(32) . . .
42(4) . . .
49(4) . . .
45(4) . . .
42.7(34) . . .
42.1(34) . . .
49(4) . . .
44(4) . . .
48(4) . . .
36.3(32) . . .
36.4(32) . . .
42(4) . . .
53(4) . . .
38.1(33) . . .
42.6(34) . . .
39.2(34) . . .
55(4) . . .
39.7(34) . . .
36.8(32) . . .
35.7(31) . . .
44(4) . . .
44(4) . . .
35.2(31) . . .
50(4) . . .
38.9(33) . . .
44(4) . . .
44(4) . . .
40.1(34) . . .
32.1(30) . . .
47(4) . . .
57(4) . . .
43(4) . . .
40.3(34) . . .
43.8(34) . . .
43.7(35) . . .
34.7(31) . . .
32.3(31) . . .
37.1(32) . . .
37.7(33) . . .
41.1(33) . . .
37.0(32) . . .
40(4) . . .
34.9(32) . . .
43.8(34) . . .
43.2(35) . . .
38.3(32) . . .
50(4) . . .
43(4) . . .
33.8(30) . . .
33.0(30) . . .
42.1(35) . . .
39.0(34) . . .
47(4) . . .
42.9(34) . . .
48(4) . . .
36.8(33) . . .
29.9(31) . . .
45(4) . . .
39.6(33) . . .
42.1(35) . . .
35.9(31) . . .
39.8(34) . . .
35.9(32) . . .
38.4(33) . . .
37.2(33) . . .
36.5(32) . . .
46(4) . . .
42.1(34) . . .
46(4) . . .
41.5(35) . . .
43(4) . . .
51(4) . . .
50(4) . . .
46(4) . . .
45(4) . . .
47(4) . . .
33.6(31) . . .
30.3(30) . . .
41.4(33) . . .
30.3(31) . . .
47(4) . . .
39.1(34) . . .
50(4) . . .
45.0(35) . . .
45(4) . . .
42(4) . . .
42(4) . . .
34.8(31) . . .
42.5(35) . . .
46(4) . . .
43(4) . . .
39.1(34) . . .
40.0(34) . . .
47(4) . . .
45.8(35) . . .
49(4) . . .
41(4) . . .
37.2(32) . . .
38.8(33) . . .
51(4) . . .
47(4) . . .
38.3(33) . . .
42.4(34) . . .
38.9(34) . . .
42.7(35) . . .
48(4) . . .
36.1(31) . . .
42.3(34) . . .
50(4) . . .
42.1(34) . . .
38.5(33) . . .
44(4) . . .
40.3(33) . . .
33.3(31) . . .
61(4) . . .
54(4) . . .
42.7(34) . . .
45(4) . . .
45(4) . . .
44(4) . . .
41.8(34) . . .
38.6(33) . . .
38.6(32) . . .
47(4) . . .
49(4) . . .
40.6(34) . . .
51(4) . . .
49(4) . . .
44(4) . . .
44(4) . . .
44(4) . . .
36.8(32) . . .
31.8(29) . . .
44(4) . . .
43(4) . . .
40(4) . . .
36.3(32) . . .
38.6(33) . . .
31.6(30) . . .
34.6(31) . . .
47(4) . . .
45.7(35) . . .
35.7(31) . . .
39(4) . . .
53(4) . . .
40.4(33) . . .
42.7(34) . . .
47(4) . . .
36.7(32) . . .
43(4) . . .
44(4) . . .
34.2(30) . . .
31.5(30) . . .
40.8(35) . . .
40(4) . . .
38.1(34) . . .
41.0(33) . . .
42.7(34) . . .
39.3(35) . . .
52(4) . . .
34.9(31) . . .
47(4) . . .
40.5(33) . . .
41.3(34) . . .
54(4) . . .
46(4) . . .
34.6(31) . . .
41(4) . . .
44(4) . . .
42.1(35) . . .
40.7(35) . . .
40.5(33) . . .
41(4) . . .
40(4) . . .
37.4(33) . . .
52(4) . . .
38.4(33) . . .
37.6(32) . . .
35.6(32) . . .
37.0(32) . . .
36.5(33) . . .
36.7(32) . . .
42.3(35) . . .
42.7(34) . . .
48(4) . . .
46.0(35) . . .
42.2(34) . . .
48(4) . . .
38.7(32) . . .
41.8(34) . . .
43.6(34) . . .
47(4) . . .
34.7(31) . . .
40(4) . . .
40.0(34) . . .
40.0(33) . . .
44.6(35) . . .
39.5(34) . . .
36.3(32) . . .
46(4) . . .
36.3(31) . . .
39(4) . . .
38.6(34) . . .
43(4) . . .
41(4) . . .
40.5(33) . . .
44.0(34) . . .
37.1(32) . . .
36.7(32) . . .
46(4) . . .
45.7(35) . . .
43.1(35) . . .
39.6(34) . . .
36.9(34) . . .
44(4) . . .
42.5(34) . . .
38.4(33) . . .
35.9(31) . . .
47(4) . . .
49(4) . . .
35.4(32) . . .
33.8(31) . . .
32.0(32) . . .
43(4) . . .
37.8(32) . . .
38.3(32) . . .
31.4(30) . . .
52(4) . . .
47(4) . . .
38.0(32) . . .
38.1(32) . . .
34.0(32) . . .
49(4) . . .
41.7(35) . . .
43(4) . . .
35.5(30) . . .
39.8(33) . . .
46(4) . . .
39.9(34) . . .
44.1(35) . . .
36.1(31) . . .
37.0(33) . . .
47(4) . . .
39.9(35) . . .
35.5(32) . . .
36.9(32) . . .
32.7(30) . . .
41(4) . . .
40.3(33) . . .
41.0(33) . . .
34.4(30) . . .
40.4(35) . . .
39.8(33) . . .
45(4) . . .
38.4(32) . . .
47(4) . . .
55(4) . . .
37.2(32) . . .
45(4) . . .
36.7(31) . . .
42.6(34) . . .
43(4) . . .
38.9(35) . . .
38.8(33) . . .
39.3(32) . . .
42.1(34) . . .
33.5(30) . . .
39.8(34) . . .
50(4) . . .
47(4) . . .
45(4) . . .
45(4) . . .
44(4) . . .
43.5(35) . . .
47(4) . . .
31.4(29) . . .
36(4) . . .
45(4) . . .
44(4) . . .
37.0(32) . . .
30.5(29) . . .
49(4) . . .
41.9(35) . . .
42.8(35) . . .
47(4) . . .
43(4) . . .
42(4) . . .
46(4) . . .
44(4) . . .
44.6(35) . . .
49(4) . . .
41(4) . . .
36.3(35) . . .
47(4) . . .
34.2(30) . . .
34.8(31) . . .
41(4) . . .
38.3(33) . . .
43(4) . . .
52(4) . . .
39.8(34) . . .
44(4) . . .
56(4) . . .
45(4) . . .
37.3(34) . . .
42(4) . . .
47(4) . . .
44(4) . . .
40.0(33) . . .
39.2(32) . . .
46(4) . . .
43(4) . . .
36.5(32) . . .
41.5(34) . . .
45(4) . . .
38.7(33) . . .
45(4) . . .
41(4) . . .
45(4) . . .
39.3(33) . . .
39.9(34) . . .
37.5(32) . . .
44(4) . . .
38.8(32) . . .
43(4) . . .
39.6(34) . . .
34.4(31) . . .
36.1(31) . . .
38.5(32) . . .
31.8(29) . . .
49(4) . . .
34.8(31) . . .
36.9(31) . . .
45.1(35) . . .
29.6(29) . . .
35.3(32) . . .
39.4(33) . . .
39.5(34) . . .
38.7(32) . . .
50(4) . . .
36.8(34) . . .
37.1(32) . . .
41.7(34) . . .
35.2(31) . . .
39.0(34) . . .
38(4) . . .
31.5(29) . . .
43.5(35) . . .
40.4(33) . . .
41(4) . . .
37.8(33) . . .
53(4) . . .
45.3(35) . . .
47(4) . . .
37.3(32) . . .
38.8(34) . . .
38.5(33) . . .
42.0(34) . . .
40.3(33) . . .
45(4) . . .
42.1(35) . . .
42.6(35) . . .
43.3(34) . . .
41.8(34) . . .
38.5(34) . . .
45(4) . . .
38.0(34) . . .
41.0(34) . . .
46(4) . . .
42(4) . . .
35.3(31) . . .
43.5(35) . . .
33.9(31) . . .
37.1(33) . . .
40.1(35) . . .
42(4) . . .
40.4(34) . . .
38.2(32) . . .
46(4) . . .
45(4) . . .
48(4) . . .
46(4) . . .
46(4) . . .
45(4) . . .
51(4) . . .
54(4) . . .
48(4) . . .
45(4) . . .
37.8(34) . . .
33.1(34) . . .
34.0(32) . . .
45(4) . . .
39.1(34) . . .
42(4) . . .
42(4) . . .
32.8(30) . . .
47(4) . . .
56(4) . . .
40.4(34) . . .
42(4) . . .
40(4) . . .
38.8(33) . . .
38.0(32) . . .
41.4(34) . . .
43(4) . . .
48(4) . . .
42.3(34) . . .
40.2(35) . . .
44(4) . . .
35.2(33) . . .
37.0(34) . . .
45(4) . . .
47(4) . . .
40(4) . . .
44(4) . . .
47(4) . . .
48(4) . . .
41.1(34) . . .
50(4) . . .
43.0(33) . . .
34.9(31) . . .
24.5(26) . . .
33.1(31) . . .
42(4) . . .
40(4) . . .
46(4) . . .
37.2(32) . . .
47(4) . . .
36.3(33) . . .
44(4) . . .
45.1(35) . . .
53(4) . . .
32.8(32) . . .
41(4) . . .
46(4) . . .
36.1(32) . . .
40.0(33) . . .
37.5(32) . . .
46(4) . . .
42(4) . . .
36.1(31) . . .
42.3(35) . . .
36.6(32) . . .
48(4) . . .
43(4) . . .
48(4) . . .
40.6(34) . . .
32.3(30) . . .
46(4) . . .
43.5(34) . . .
49(4) . . .
41.7(34) . . .
37.0(32) . . .
42(4) . . .
39.0(33) . . .
45(4) . . .
45.7(35) . . .
40.2(34) . . .
39(4) . . .
37.0(33) . . .
33.6(30) . . .
31.1(30) . . .
40(4) . . .
41(4) . . .
36.7(32) . . .
40.6(33) . . .
45(4) . . .
49(4) . . .
41.4(34) . . .
37.3(33) . . .
38.4(33) . . .
42.1(34) . . .
38.2(34) . . .
44(4) . . .
42.8(35) . . .
36.4(31) . . .
38.4(33) . . .
39.4(33) . . .
42.1(34) . . .
49(4) . . .
49(4) . . .
46(4) . . .
43(4) . . .
39.5(33) . . .
39.5(34) . . .
33.3(30) . . .
41.7(35) . . .
44(4) . . .
47(4) . . .
43(4) . . .
47(4) . . .
41(4) . . .
39.9(35) . . .
40.9(34) . . .
44.5(35) . . .
38.0(32) . . .
41.2(34) . . .
42(4) . . .
34.9(30) . . .
37.1(32) . . .
29.2(28) . . .
36.2(33) . . .
41(4) . . .
37.2(32) . . .
46(4) . . .
41.3(33) . . .
48(4) . . .
42(4) . . .
43(4) . . .
44.4(34) . . .
45(4) . . .
31.0(30) . . .
42(4) . . .
37.5(33) . . .
49(4) . . .
48(4) . . .
38.9(34) . . .
28.6(27) . . .
35.4(32) . . .
39.9(33) . . .
32.5(31) . . .
36.7(34) . . .
44(4) . . .
50(4) . . .
51(4) . . .
37.0(33) . . .
43(4) . . .
41(4) . . .
33.0(30) . . .
46(4) . . .
39.3(33) . . .
40.0(34) . . .
42.2(35) . . .
38.8(35) . . .
39.4(33) . . .
47(4) . . .
42(4) . . .
40.5(35) . . .
32.5(29) . . .
43.1(34) . . .
37.6(32) . . .
41(4) . . .
39.2(34) . . .
35.5(31) . . .
42.4(34) . . .
43(4) . . .
41(4) . . .
44(4) . . .
41.1(34) . . .
33.8(30) . . .
43(4) . . .
41(4) . . .
47(4) . . .
41.8(33) . . .
43.3(34) . . .
41(4) . . .
38.3(33) . . .
47(4) . . .
32.5(30) . . .
43.5(35) . . .
39.7(33) . . .
41.4(34) . . .
46(4) . . .
40.5(33) . . .
35.6(32) . . .
40(4) . . .
37(4) . . .
39.4(34) . . .
47(4) . . .
46(4) . . .
42.7(35) . . .
41.6(35) . . .
40.4(34) . . .
32.0(30) . . .
32.5(29) . . .
39.2(34) . . .
35.6(31) . . .
42.1(33) . . .
43.3(34) . . .
41(4) . . .
38.2(34) . . .
36.4(32) . . .
38.6(33) . . .
40.0(33) . . .
43(4) . . .
36.8(34) . . .
32.2(33) . . .
32.0(29) . . .
52(4) . . .
45(4) . . .
58(5) . . .
38.2(33) . . .
48(4) . . .
44(4) . . .
42.2(35) . . .
40(4) . . .
40(4) . . .
39.1(32) . . .
46(4) . . .
43(4) . . .
45(4) . . .
40.3(33) . . .
31.9(29) . . .
48(4) . . .
45(4) . . .
32.3(30) . . .
35.3(32) . . .
43.2(35) . . .
39.5(32) . . .
41.0(33) . . .
42(4) . . .
38.5(33) . . .
50(4) . . .
44(4) . . .
38.5(33) . . .
30.7(29) . . .
40.2(34) . . .
46(4) . . .
38.4(32) . . .
46(4) . . .
34.3(31) . . .
37.0(32) . . .
42.7(34) . . .
38.8(33) . . .
46(4) . . .
35.9(31) . . .
41(4) . . .
38.8(33) . . .
33.4(30) . . .
36.3(34) . . .
38.5(33) . . .
38.7(33) . . .
33.9(31) . . .
30.3(28) . . .
48(4) . . .
38.3(34) . . .
42.3(34) . . .
35.3(31) . . .
32.0(32) . . .
38.0(33) . . .
42.4(34) . . .
37.2(33) . . .
47(4) . . .
39.7(34) . . .
48(4) . . .
33.4(30) . . .
39.6(33) . . .
36.0(31) . . .
41.9(34) . . .
48(4) . . .
38.8(33) . . .
37.9(32) . . .
38.3(33) . . .
45(4) . . .
36.9(35) . . .
34.9(33) . . .
34.8(31) . . .
41(4) . . .
43(4) . . .
43(4) . . .
42.2(34) . . .
42.8(34) . . .
44.2(35) . . .
39(4) . . .
34.4(33) . . .
41.2(34) . . .
43.9(34) . . .
41.2(35) . . .
46(4) . . .
41.1(34) . . .
43(4) . . .
39.7(33) . . .
37.5(32) . . .
38.3(33) . . .
48(4) . . .
36.3(32) . . .
35.1(30) . . .
37.9(34) . . .
41.4(35) . . .
42(4) . . .
43.0(35) . . .
38.5(32) . . .
42.3(34) . . .
39.2(35) . . .
50(4) . . .
35.3(31) . . .
49(4) . . .
36.2(33) . . .
35.9(34) . . .
36.5(33) . . .
36.7(31) . . .
43(4) . . .
39.3(35) . . .
35.3(34) . . .
44(4) . . .
40.4(33) . . .
37.0(31) . . .
39.2(34) . . .
40.3(34) . . .
36.7(32) . . .
42.2(34) . . .
34.2(30) . . .
53(4) . . .
52(4) . . .
47(4) . . .
38.0(33) . . .
36.5(32) . . .
37.2(32) . . .
45(4) . . .
37.8(34) . . .
39.4(32) . . .
36.4(33) . . .
50(4) . . .
44(4) . . .
40.0(34) . . .
46(4) . . .
36.5(32) . . .
39.7(34) . . .
36.0(31) . . .
45(4) . . .
42.8(34) . . .
37.4(33) . . .
28.6(28) . . .
48(4) . . .
43.3(35) . . .
40.3(34) . . .
42.1(35) . . .
38.5(33) . . .
40.5(33) . . .
40.7(34) . . .
40.9(33) . . .
41.0(35) . . .
37.7(33) . . .
39.1(34) . . .
37.5(32) . . .
38.3(34) . . .
35.5(32) . . .
39.1(35) . . .
38.7(33) . . .
46(4) . . .
39.8(33) . . .
43(4) . . .
38.4(33) . . .
40(4) . . .
34.8(31) . . .
35.2(31) . . .
36.8(32) . . .
39.5(35) . . .
42.1(34) . . .
37.8(32) . . .
36.8(33) . . .
37(4) . . .
36.8(34) . . .
45(4) . . .
35.7(31) . . .
43.1(34) . . .
48(4) . . .
41(4) . . .
36.3(33) . . .
40.4(33) . . .
39.9(34) . . .
48(4) . . .
43(4) . . .
44(4) . . .
51(4) . . .
49(4) . . .
33.0(30) . . .
40(4) . . .
29.8(28) . . .
36.9(31) . . .
53(4) . . .
47(4) . . .
41.4(34) . . .
45(4) . . .
38.2(32) . . .
38.7(33) . . .
36.0(32) . . .
44(4) . . .
41.3(34) . . .
45(4) . . .
47(4) . . .
37.3(33) . . .
41.3(33) . . .
41.3(34) . . .
42.9(34) . . .
43.5(35) . . .
44(4) . . .
40(4) . . .
41.3(33) . . .
41.7(35) . . .
44(4) . . .
40(4) . . .
39(4) . . .
35.8(31) . . .
50(4) . . .
42(4) . . .
38.5(34) . . .
35.5(31) . . .
45(4) . . .
35.7(31) . . .
40.4(34) . . .
40(4) . . .
37.1(33) . . .
40.1(33) . . .
41.6(33) . . .
35.6(32) . . .
29.3(31) . . .
42(4) . . .
39.9(33) . . .
42(4) . . .
43(4) . . .
39(4) . . .
42(4) . . .
37.7(32) . . .
41(4) . . .
42(4) . . .
40.3(35) . . .
40.0(33) . . .
40.2(33) . . .
38.2(32) . . .
37.4(32) . . .
34.3(31) . . .
33.2(32) . . .
39.0(32) . . .
43(4) . . .
35.1(33) . . .
40.4(34) . . .
46(4) . . .
40.1(33) . . .
38.4(33) . . .
42(4) . . .
49(4) . . .
36.9(32) . . .
36.8(31) . . .
47(4) . . .
46(4) . . .
45(4) . . .
35.8(31) . . .
33.3(30) . . .
45(4) . . .
35.4(34) . . .
38.3(34) . . .
33.7(31) . . .
42.2(33) . . .
37.1(34) . . .
37.8(35) . . .
34.3(31) . . .
46(4) . . .
40.0(33) . . .
42.3(35) . . .
40.5(34) . . .
46(4) . . .
41.9(34) . . .
42.0(33) . . .
41.9(34) . . .
38.4(35) . . .
44(4) . . .
42.7(34) . . .
49(4) . . .
42.7(35) . . .
38.5(34) . . .
46(4) . . .
40.5(34) . . .
48(4) . . .
47(4) . . .
35.5(33) . . .
46(4) . . .
47(4) . . .
40.9(35) . . .
37.7(33) . . .
37.4(31) . . .
36.6(33) . . .
37.1(32) . . .
54(4) . . .
46(4) . . .
38.1(33) . . .
41.2(33) . . .
43.1(35) . . .
46(4) . . .
38.1(32) . . .
34.7(31) . . .
45(4) . . .
44.7(35) . . .
39.4(33) . . .
42(4) . . .
38.1(35) . . .
36.7(32) . . .
30.4(29) . . .
36.2(33) . . .
46(4) . . .
44(4) . . .
36.3(32) . . .
38.7(33) . . .
48(4) . . .
37.3(33) . . .
38.9(33) . . .
33.1(29) . . .
38.9(33) . . .
48(4) . . .
38.2(35) . . .
51(4) . . .
36.4(32) . . .
42.2(35) . . .
35.5(32) . . .
33.5(32) . . .
44(4) . . .
38.3(34) . . .
30.6(29) . . .
38.2(34) . . .
45(4) . . .
42.3(35) . . .
34.1(31) . . .
25.5(26) . . .
39.8(35) . . .
42(4) . . .
36.1(32) . . .
31.3(29) . . .
37.6(33) . . .
42(4) . . .
37.7(33) . . .
40.6(33) . . .
36.2(31) . . .
42(4) . . .
43(4) . . .
45(4) . . .
39.9(34) . . .
26.9(27) . . .
40.5(34) . . .
37.4(33) . . .
41(4) . . .
39.6(34) . . .
42.2(34) . . .
43(4) . . .
44(4) . . .
38.9(34) . . .
35.8(32) . . .
44.9(34) . . .
31.5(30) . . .
40.2(35) . . .
39.5(33) . . .
35.2(31) . . .
37.2(32) . . .
47(4) . . .
48(4) . . .
43.2(35) . . .
40.6(33) . . .
37.6(33) . . .
35.5(31) . . .
38.4(34) . . .
42(4) . . .
32.1(31) . . .
29.2(29) . . .
48(4) . . .
29.9(30) . . .
45(4) . . .
38.3(32) . . .
36.5(31) . . .
35.0(32) . . .
36.3(34) . . .
39.0(34) . . .
40.0(33) . . .
38.3(33) . . .
34.0(31) . . .
37.2(34) . . .
45(4) . . .
47(4) . . .
39.3(33) . . .
40(4) . . .
40(4) . . .
34.6(32) . . .
43.3(34) . . .
40.3(33) . . .
48(4) . . .
43.0(35) . . .
43.3(35) . . .
42.8(34) . . .
35.4(35) . . .
39(4) . . .
31.1(29) . . .
39.9(33) . . .
38.0(32) . . .
37.3(34) . . .
39(4) . . .
37.2(32) . . .
37.4(32) . . .
33.4(30) . . .
39(4) . . .
42(4) . . .
40.7(34) . . .
38.7(32) . . .
36.1(31) . . .
43.5(34) . . .
37.6(34) . . .
33.8(32) . . .
35.1(30) . . .
35.2(31) . . .
41.1(35) . . .
45(4) . . .
44.5(35) . . .
37.4(32) . . .
44.3(35) . . .
42(4) . . .
33.7(32) . . .
43(4) . . .
31.8(29) . . .
37.2(32) . . .
40(4) . . .
41(4) . . .
46(4) . . .
38.1(33) . . .
42.3(34) . . .
37.2(32) . . .
35.6(32) . . .
33.2(30) . . .
39.0(32) . . .
32.6(32) . . .
38.5(34) . . .
39(4) . . .
37.2(33) . . .
28.4(28) . . .
40.4(34) . . .
50(4) . . .
41.2(34) . . .
32.7(30) . . .
43.3(34) . . .
42(4) . . .
36.5(32) . . .
43(4) . . .
39.0(32) . . .
55(4) . . .
43.0(35) . . .
36.3(32) . . .
47(4) . . .
37.2(32) . . .
40.5(33) . . .
37.5(33) . . .
36.3(34) . . .
39.3(34) . . .
39.1(33) . . .
36.6(31) . . .
42(4) . . .
39(4) . . .
43(4) . . .
35.1(31) . . .
33.8(31) . . .
37.9(35) . . .
40.5(34) . . .
41.0(34) . . .
36.6(31) . . .
44.2(34) . . .
37.5(32) . . .
46(4) . . .
35.0(33) . . .
40.7(33) . . .
42.7(35) . . .
36.4(33) . . .
35.0(32) . . .
50(4) . . .
38.0(33) . . .
40.3(34) . . .
40.3(33) . . .
51(4) . . .
47(4) . . .
34.6(30) . . .
41.3(34) . . .
34.0(32) . . .
43.2(35) . . .
52(4) . . .
46(4) . . .
34.3(31) . . .
39.8(35) . . .
43(4) . . .
39.7(33) . . .
34.3(31) . . .
39.2(33) . . .
36.2(32) . . .
44(4) . . .
38.6(33) . . .
37.9(32) . . .
37.7(32) . . .
44(4) . . .
42(4) . . .
40.1(33) . . .
41.5(33) . . .
45(4) . . .
41(4) . . .
45(4) . . .
51(4) . . .
42.2(33) . . .
33.9(31) . . .
39(4) . . .
29.9(29) . . .
39.1(32) . . .
39.8(32) . . .
40(4) . . .
33.9(34) . . .
44(4) . . .
44.4(35) . . .
39.9(33) . . .
45.5(35) . . .
42(4) . . .
51(4) . . .
41.8(34) . . .
33.2(30) . . .
40(4) . . .
45(4) . . .
38.1(32) . . .
48(4) . . .
39.9(33) . . .
35.4(33) . . .
38.9(35) . . .
42.5(35) . . .
37.8(32) . . .
47(4) . . .
42(4) . . .
35.4(31) . . .
42.0(34) . . .
42.9(34) . . .
43.6(35) . . .
40.8(33) . . .
39.5(33) . . .
39.9(34) . . .
40.9(33) . . .
38.3(34) . . .
38.5(33) . . .
35.7(33) . . .
36.0(32) . . .
45.1(35) . . .
42(4) . . .
56(4) . . .
44.7(35) . . .
36.3(31) . . .
41.3(34) . . .
46(4) . . .
41.1(34) . . .
42.2(35) . . .
46(4) . . .
35.1(30) . . .
41(4) . . .
32.7(29) . . .
45(4) . . .
31.9(29) . . .
31.4(29) . . .
39(4) . . .
35.1(33) . . .
43(4) . . .
43(4) . . .
43.3(34) . . .
39.8(34) . . .
39(4) . . .
33.7(30) . . .
38.0(32) . . .
39.8(33) . . .
44(4) . . .
47(4) . . .
32.8(30) . . .
42.8(34) . . .
42.0(34) . . .
34.5(31) . . .
42.1(35) . . .
60(4) . . .
34.1(30) . . .
37.0(32) . . .
36.0(34) . . .
37.9(33) . . .
37.0(34) . . .
41.2(33) . . .
42(4) . . .
39.8(34) . . .
36.1(32) . . .
43.3(35) . . .
29.2(29) . . .
41.8(35) . . .
31.3(28) . . .
36.3(32) . . .
34.5(32) . . .
39.7(32) . . .
38.5(32) . . .
41.0(35) . . .
36.4(32) . . .
35.7(33) . . .
46(4) . . .
36.5(35) . . .
38.7(35) . . .
36.0(34) . . .
40.0(33) . . .
37.4(32) . . .
37.1(32) . . .
41.2(35) . . .
43.7(35) . . .
50(4) . . .
39.8(33) . . .
37.5(34) . . .
32.2(32) . . .
37.3(32) . . .
46(4) . . .
38.4(32) . . .
39.3(33) . . .
40(4) . . .
42.7(34) . . .
42.3(34) . . .
30.4(29) . . .
39.0(33) . . .
44(4) . . .
38.7(33) . . .
41.0(34) . . .
41.1(34) . . .
46(4) . . .
36.3(32) . . .
41.5(34) . . .
42.3(34) . . .
44.5(35) . . .
36.5(34) . . .
33.9(32) . . .
39.3(34) . . .
32.6(29) . . .
35.3(31) . . .
38.0(33) . . .
38.7(33) . . .
44(4) . . .
40.0(33) . . .
42.4(34) . . .
47(4) . . .
42(4) . . .
38.0(32) . . .
40.2(33) . . .
43.6(35) . . .
36.6(31) . . .
42.0(34) . . .
41.1(33) . . .
39.5(32) . . .
37.5(33) . . .
44(4) . . .
38.5(33) . . .
41.3(34) . . .
42.8(34) . . .
40.1(34) . . .
34.8(31) . . .
39.5(33) . . .
34.8(31) . . .
44.4(35) . . .
32.3(30) . . .
33.8(33) . . .
37.2(34) . . .
39.7(33) . . .
40.5(33) . . .
45.2(35) . . .
40(4) . . .
37.5(34) . . .
39.7(32) . . .
44.5(35) . . .
35.4(33) . . .
32.2(31) . . .
43(4) . . .
41.1(34) . . .
39.6(35) . . .
32.6(32) . . .
35.6(32) . . .
37.4(32) . . .
42.2(34) . . .
42.3(34) . . .
43(4) . . .
43(4) . . .
43(4) . . .
46(4) . . .
36.9(32) . . .
36.6(32) . . .
32.8(31) . . .
30.4(31) . . .
46(4) . . .
37.8(32) . . .
38.3(34) . . .
48(4) . . .
36.2(31) . . .
37.3(33) . . .
33.8(33) . . .
33.5(32) . . .
36.3(32) . . .
42.2(34) . . .
43.6(34) . . .
40.1(33) . . .
43(4) . . .
40.3(34) . . .
39.3(33) . . .
32.9(30) . . .
45(4) . . .
38.4(33) . . .
42.6(35) . . .
41.9(35) . . .
30.7(29) . . .
37.5(32) . . .
29.9(29) . . .
39.0(35) . . .
42.0(33) . . .
36.0(31) . . .
35.5(33) . . .
46(4) . . .
44.5(34) . . .
39.2(32) . . .
35.0(31) . . .
32.5(30) . . .
44(4) . . .
44(4) . . .
43.3(34) . . .
37.5(32) . . .
39.0(34) . . .
39.6(35) . . .
42.0(34) . . .
42.0(34) . . .
39.9(33) . . .
38.3(34) . . .
42(4) . . .
45(4) . . .
34.2(30) . . .
41(4) . . .
37.5(33) . . .
49(4) . . .
40.7(34) . . .
47(4) . . .
43.8(35) . . .
48(4) . . .
29.0(29) . . .
43(4) . . .
42.9(33) . . .
43(4) . . .
42(4) . . .
32.2(30) . . .
48(4) . . .
48(4) . . .
42.0(35) . . .
38.4(35) . . .
42(4) . . .
38.2(32) . . .
46(4) . . .
52(4) . . .
37.0(32) . . .
34.8(31) . . .
45(4) . . .
40.9(33) . . .
43(4) . . .
43(4) . . .
42.0(34) . . .
42.6(34) . . .
39.4(33) . . .
35.3(31) . . .
38.8(34) . . .
40.1(33) . . .
37.2(31) . . .
42.1(34) . . .
52(4) . . .
43(4) . . .
43(4) . . .
43(4) . . .
47(4) . . .
33.0(30) . . .
33.8(31) . . .
34.8(31) . . .
41.3(34) . . .
38.3(33) . . .
39.2(33) . . .
40.9(35) . . .
30.2(28) . . .
37.5(32) . . .
35.7(31) . . .
34.5(31) . . .
37.8(34) . . .
38.6(33) . . .
34.7(31) . . .
41.7(34) . . .
46(4) . . .
32.9(29) . . .
39.0(35) . . .
39.5(33) . . .
49(4) . . .
39.2(33) . . .
37.3(34) . . .
32.6(31) . . .
41.6(34) . . .
36.6(33) . . .
37.8(33) . . .
35.0(31) . . .
37.4(32) . . .
39.7(33) . . .
39.3(34) . . .
39.6(35) . . .
38.5(34) . . .
33.7(29) . . .
42.1(35) . . .
44(4) . . .
36.2(33) . . .
43(4) . . .
42.7(34) . . .
39.4(33) . . .
44.6(35) . . .
44.3(34) . . .
43.3(34) . . .
42.8(34) . . .
46(4) . . .
36.4(33) . . .
41(4) . . .
39.1(33) . . .
37.7(32) . . .
38.0(33) . . .
47(4) . . .
46(4) . . .
53(4) . . .
39.0(33) . . .
24.0(25) . . .
39.3(34) . . .
33.3(31) . . .
39.5(34) . . .
38.8(32) . . .
37.6(32) . . .
35.7(31) . . .
46(4) . . .
39.7(33) . . .
44.4(35) . . .
43.0(35) . . .
39.9(33) . . .
36.6(34) . . .
36.3(32) . . .
39.8(33) . . .
38.9(33) . . .
35.8(32) . . .
42(4) . . .
43.2(35) . . .
50(4) . . .
37.5(32) . . .
38.9(34) . . .
36.0(33) . . .
39.3(34) . . .
38.6(32) . . .
43(4) . . .
32.9(30) . . .
36.0(32) . . .
39.0(34) . . .
41.9(34) . . .
37.4(33) . . .
26.8(29) . . .
36(4) . . .
39.2(33) . . .
33.8(32) . . .
31.4(30) . . .
43(4) . . .
41.5(35) . . .
35.7(31) . . .
45(4) . . .
42.5(35) . . .
42(4) . . .
35.8(32) . . .
50(4) . . .
42.7(34) . . .
40.6(34) . . .
41(4) . . .
42(4) . . .
51(4) . . .
27.7(27) . . .
38.1(32) . . .
48(4) . . .
40.2(35) . . .
41.8(34) . . .
40.7(33) . . .
46(4) . . .
40.9(34) . . .
42(4) . . .
32.6(31) . . .
41.0(34) . . .
37.3(33) . . .
38.6(33) . . .
38.3(33) . . .
38.9(33) . . .
35.9(31) . . .
41.1(35) . . .
38.3(35) . . .
45(4) . . .
35.0(31) . . .
41.5(34) . . .
41.0(35) . . .
42.9(35) . . .
38.9(33) . . .
40.7(33) . . .
35.1(31) . . .
54(4) . . .
44(4) . . .
44(4) . . .
47(4) . . .
39.0(33) . . .
34.4(32) . . .
41.5(35) . . .
46(4) . . .
32.0(29) . . .
33.5(31) . . .
39.4(33) . . .
45(4) . . .
44.0(34) . . .
47(4) . . .
48(4) . . .
45(4) . . .
45(4) . . .
40.3(33) . . .
40.5(34) . . .
44(4) . . .
34.2(33) . . .
31.6(29) . . .
44.3(35) . . .
46(4) . . .
43.1(35) . . .
44(4) . . .
38.9(34) . . .
46(4) . . .
38.7(32) . . .
40.2(33) . . .
36.1(31) . . .
43(4) . . .
36.9(32) . . .
40.8(34) . . .
38.4(33) . . .
34.1(32) . . .
46(4) . . .
41.3(34) . . .
41.2(34) . . .
37.2(33) . . .
36.0(33) . . .
51(4) . . .
45.1(35) . . .
41.4(34) . . .
37.3(33) . . .
52(4) . . .
33.0(31) . . .
48(4) . . .
41.1(35) . . .
35.7(32) . . .
48(4) . . .
42.8(34) . . .
41.8(35) . . .
45(4) . . .
39(4) . . .
38(4) . . .
32.3(29) . . .
33.3(30) . . .
34.6(31) . . .
46(4) . . .
40.9(34) . . .
44.0(34) . . .
42.0(33) . . .
45(4) . . .
31.8(30) . . .
30.1(28) . . .
43(4) . . .
41.2(33) . . .
48(4) . . .
45(4) . . .
39.0(34) . . .
32.5(30) . . .
44.5(35) . . .
37.0(33) . . .
40.0(34) . . .
52(4) . . .
46(4) . . .
43.8(35) . . .
51(4) . . .
36.5(31) . . .
47(4) . . .
42.1(34) . . .
37.1(32) . . .
43(4) . . .
41.7(35) . . .
40.4(34) . . .
48(4) . . .
40.5(33) . . .
36.5(31) . . .
37.7(33) . . .
48(4) . . .
40.6(34) . . .
39.2(34) . . .
37.3(33) . . .
36.0(32) . . .
42.5(34) . . .
46(4) . . .
40.2(33) . . .
49(4) . . .
37.0(32) . . .
43(4) . . .
40.4(33) . . .
36.4(34) . . .
45(4) . . .
37.3(33) . . .
46(4) . . .
40.5(33) . . .
40.8(35) . . .
40.4(34) . . .
37.8(32) . . .
41.7(34) . . .
34.5(30) . . .
42(4) . . .
42(4) . . .
40(4) . . .
36.7(31) . . .
39.7(33) . . .
43.0(35) . . .
47(4) . . .
32.0(30) . . .
40.8(34) . . .
39.8(33) . . .
51(4) . . .
47(4) . . .
33.0(32) . . .
35.2(30) . . .
38.0(32) . . .
39(4) . . .
40.1(35) . . .
40.0(33) . . .
42.8(34) . . .
39.7(32) . . .
40.5(34) . . .
39(4) . . .
38.8(33) . . .
43.9(35) . . .
37.6(32) . . .
46(4) . . .
44(4) . . .
35.6(33) . . .
38.7(33) . . .
40.2(35) . . .
42.1(35) . . .
32.3(29) . . .
42.3(35) . . .
34.1(30) . . .
40.3(35) . . .
42(4) . . .
27.9(29) . . .
43.3(35) . . .
40.9(33) . . .
40(4) . . .
44(4) . . .
41.0(34) . . .
44(4) . . .
36.8(32) . . .
39.4(35) . . .
41(4) . . .
40.2(33) . . .
46(4) . . .
43.0(34) . . .
41.5(34) . . .
39.7(33) . . .
33.5(29) . . .
50(4) . . .
42.0(34) . . .
39.5(33) . . .
42(4) . . .
34.3(30) . . .
36.4(31) . . .
31.1(30) . . .
34.6(32) . . .
37.2(33) . . .
33.6(31) . . .
35.8(30) . . .
29.5(29) . . .
36.4(34) . . .
42(4) . . .
46(4) . . .
37.5(33) . . .
41.1(33) . . .
40.3(33) . . .
41(4) . . .
35.0(32) . . .
38.3(32) . . .
36.8(33) . . .
33.5(31) . . .
36.0(34) . . .
37.4(33) . . .
36.3(31) . . .
42.4(34) . . .
36.9(33) . . .
38.3(34) . . .
40(4) . . .
40.0(33) . . .
44(4) . . .
41.3(34) . . .
41(4) . . .
33.1(30) . . .
44.2(34) . . .
39.5(33) . . .
41(4) . . .
39.5(35) . . .
45(4) . . .
48(4) . . .
37.7(32) . . .
43(4) . . .
43(4) . . .
53(4) . . .
49(4) . . .
45(4) . . .
41.1(34) . . .
36.5(31) . . .
26.7(27) . . .
37.1(32) . . .
45(4) . . .
38(4) . . .
36.7(34) . . .
41.3(34) . . .
32.1(29) . . .
36.8(31) . . .
43(4) . . .
41(4) . . .
45.6(35) . . .
43.3(35) . . .
47(4) . . .
39.8(35) . . .
47(4) . . .
37.6(32) . . .
42.0(33) . . .
46(4) . . .
39.5(33) . . .
42.0(34) . . .
44.5(35) . . .
29.6(28) . . .
34.4(33) . . .
34.2(34) . . .
43(4) . . .
48(4) . . .
41.4(34) . . .
39.9(33) . . .
48(4) . . .
44(4) . . .
33.8(31) . . .
33.2(30) . . .
49(4) . . .
47(4) . . .
46(4) . . .
36.5(31) . . .
53(4) . . .
32.4(29) . . .
37.8(32) . . .
45(4) . . .
30.1(29) . . .
39(4) . . .
36.8(33) . . .
46(4) . . .
37.5(32) . . .
34.1(30) . . .
38.5(33) . . .
40.4(34) . . .
38.4(33) . . .
37.4(33) . . .
38.5(32) . . .
34.6(30) . . .
47(4) . . .
46(4) . . .
40.0(33) . . .
46(4) . . .
41.3(35) . . .
35.9(31) . . .
34.0(32) . . .
40.7(33) . . .
32.3(31) . . .
39.7(33) . . .
42(4) . . .
32.3(32) . . .
36.0(33) . . .
37.1(31) . . .
34.7(31) . . .
39.8(35) . . .
38.4(34) . . .
51(4) . . .
38.1(33) . . .
37.4(33) . . .
34.5(33) . . .
30.9(30) . . .
36.2(31) . . .
37.2(33) . . .
42(4) . . .
43(4) . . .
46(4) . . .
35.7(31) . . .
35.8(31) . . .
53(4) . . .
35.4(31) . . .
35.2(31) . . .
33.3(30) . . .
55(4) . . .
42.0(35) . . .
37.7(33) . . .
41.4(35) . . .
31.6(29) . . .
42(4) . . .
43(4) . . .
40.0(34) . . .
36.0(31) . . .
43.1(34) . . .
47(4) . . .
45(4) . . .
33.0(31) . . .
46(4) . . .
34.5(31) . . .
35.0(31) . . .
28.5(28) . . .
36.4(33) . . .
44.8(35) . . .
41.5(33) . . .
37.5(33) . . .
44(4) . . .
48(4) . . .
32.7(30) . . .
32.3(30) . . .
40.6(33) . . .
42(4) . . .
29.4(30) . . .
35.7(31) . . .
41.3(34) . . .
36.9(33) . . .
46(4) . . .
37.8(34) . . .
43.3(34) . . .
32.0(30) . . .
44(4) . . .
43(4) . . .
42(4) . . .
39.9(33) . . .
42(4) . . .
41.4(35) . . .
37.8(33) . . .
47(4) . . .
38.8(33) . . .
33.5(30) . . .
41.4(35) . . .
37.0(33) . . .
38.6(33) . . .
38.7(32) . . .
42(4) . . .
33.9(31) . . .
33.8(32) . . .
25.9(27) . . .
45(4) . . .
32.8(30) . . .
32.2(32) . . .
40(4) . . .
45.0(35) . . .
40.3(34) . . .
37.1(32) . . .
35.8(31) . . .
30.8(30) . . .
34.5(31) . . .
47(4) . . .
48(4) . . .
35.0(31) . . .
38.0(33) . . .
38.8(34) . . .
38.9(32) . . .
39.1(33) . . .
37.4(35) . . .
38.8(32) . . .
39.1(33) . . .
35.0(31) . . .
40.3(34) . . .
34.9(32) . . .
36.4(33) . . .
36.7(32) . . .
45(4) . . .
30.4(28) . . .
35.1(34) . . .
36.6(32) . . .
36.7(32) . . .
36.4(31) . . .
32.5(32) . . .
35.8(34) . . .
35.1(32) . . .
41.8(33) . . .
36.6(32) . . .
43(4) . . .
38(4) . . .
38.8(35) . . .
36.5(31) . . .
38.0(32) . . .
39(4) . . .
30.0(30) . . .
40(4) . . .
32.4(30) . . .
38.8(32) . . .
37.0(32) . . .
42.5(34) . . .
33.6(30) . . .
46(4) . . .
39.5(33) . . .
38.9(33) . . .
45(4) . . .
43(4) . . .
37.1(32) . . .
56(4) . . .
47(4) . . .
45(4) . . .
45(4) . . .
43.8(34) . . .
40.1(34) . . .
42(4) . . .
42.6(34) . . .
44.3(35) . . .
35.1(30) . . .
33.4(31) . . .
33.1(31) . . .
35.4(32) . . .
38.7(33) . . .
46(4) . . .
38.3(33) . . .
37.1(35) . . .
38(4) . . .
35.5(32) . . .
42.1(34) . . .
38.7(34) . . .
36.9(34) . . .
36.4(32) . . .
42.4(33) . . .
35.3(30) . . .
45(4) . . .
40.0(35) . . .
40(4) . . .
44.8(34) . . .
39.5(33) . . .
39.1(32) . . .
46(4) . . .
45(4) . . .
42.0(34) . . .
47(4) . . .
40(4) . . .
45(4) . . .
34.2(31) . . .
42.7(34) . . .
44(4) . . .
48(4) . . .
45(4) . . .
36.6(33) . . .
36.0(32) . . .
37(4) . . .
35.0(31) . . .
43(4) . . .
44(4) . . .
34.0(31) . . .
38.1(35) . . .
43(4) . . .
48(4) . . .
41.6(34) . . .
37.0(32) . . .
36.1(33) . . .
47(4) . . .
43(4) . . .
28.6(27) . . .
32.5(30) . . .
51(4) . . .
35.7(32) . . .
42.7(34) . . .
46.0(35) . . .
39.9(33) . . .
45(4) . . .
42(4) . . .
46(4) . . .
51(4) . . .
43.0(34) . . .
42.0(34) . . .
34.5(32) . . .
41.8(35) . . .
41.5(33) . . .
39.0(33) . . .
35.7(31) . . .
38.3(33) . . .
49(4) . . .
41.8(34) . . .
42.8(34) . . .
40.4(35) . . .
38.6(34) . . .
36.3(32) . . .
52(4) . . .
45(4) . . .
41.3(35) . . .
25.7(25) . . .
42.5(35) . . .
35.6(32) . . .
32.3(30) . . .
33.8(33) . . .
41(4) . . .
41.0(34) . . .
37.3(32) . . .
36.8(32) . . .
47(4) . . .
38(4) . . .
42(4) . . .
44.5(35) . . .
43.1(35) . . .
39.1(34) . . .
38.2(33) . . .
36.0(32) . . .
35.2(31) . . .
34.3(31) . . .
39(4) . . .
30.5(29) . . .
39.8(33) . . .
38.3(32) . . .
39.4(33) . . .
39.0(35) . . .
34.9(31) . . .
33.5(30) . . .
40.1(33) . . .
44(4) . . .
38(4) . . .
48(4) . . .
38.5(33) . . .
48(4) . . .
34.5(32) . . .
37(4) . . .
40.1(34) . . .
43.3(35) . . .
39.1(33) . . .
36.2(34) . . .
41.4(34) . . .
43(4) . . .
37.1(32) . . .
30.7(29) . . .
30.1(29) . . .
44(4) . . .
37.8(34) . . .
42.2(33) . . .
38.4(33) . . .
41(4) . . .
39.0(34) . . .
36.6(34) . . .
43.4(34) . . .
33.3(31) . . .
37.7(34) . . .
43(4) . . .
36.2(32) . . .
39.5(33) . . .
37.6(33) . . .
42(4) . . .
43(4) . . .
34.3(32) . . .
29.4(28) . . .
42(4) . . .
36.0(33) . . .
36.9(32) . . .
43.5(34) . . .
44.1(35) . . .
35.5(32) . . .
40(4) . . .
45(4) . . .
28.0(28) . . .
34.6(31) . . .
32.5(31) . . .
36(4) . . .
40.1(35) . . .
35.9(30) . . .
32.2(30) . . .
44(4) . . .
35.6(33) . . .
36.2(32) . . .
33.8(30) . . .
39.3(32) . . .
43(4) . . .
38.5(34) . . .
34.5(31) . . .
41.7(34) . . .
46(4) . . .
36.8(32) . . .
43(4) . . .
39.6(33) . . .
51(4) . . .
43.8(34) . . .
44(4) . . .
34.7(30) . . .
38.2(33) . . .
29.7(29) . . .
40.7(35) . . .
43(4) . . .
42(4) . . .
31.8(29) . . .
38.8(32) . . .
38.8(34) . . .
39.2(34) . . .
43(4) . . .
33.3(32) . . .
36.6(32) . . .
42(4) . . .
42.0(34) . . .
47(4) . . .
37.7(32) . . .
38.3(33) . . .
36.2(33) . . .
39.4(34) . . .
42(4) . . .
37.4(33) . . .
37.7(31) . . .
41.7(35) . . .
37.9(33) . . .
37.4(33) . . .
44(4) . . .
42.7(34) . . .
36.9(31) . . .
48(4) . . .
40.4(34) . . .
38.4(32) . . .
35.9(31) . . .
39.0(34) . . .
33.9(33) . . .
39.3(34) . . .
38.8(33) . . .
38.3(32) . . .
39.6(32) . . .
49(4) . . .
39(4) . . .
35.0(31) . . .
40.2(34) . . .
46(4) . . .
41.3(35) . . .
47(4) . . .
42.5(34) . . .
45(4) . . .
40.1(34) . . .
43.0(35) . . .
39.8(35) . . .
32.7(30) . . .
44.7(35) . . .
48(4) . . .
42(4) . . .
30.6(30) . . .
35.1(31) . . .
41.3(34) . . .
36.8(31) . . .
42(4) . . .
34.1(31) . . .
46(4) . . .
35.4(31) . . .
37.0(32) . . .
42.3(33) . . .
38.0(32) . . .
43.0(34) . . .
43(4) . . .
38.1(34) . . .
36.7(33) . . .
30.3(29) . . .
33.4(30) . . .
33.0(30) . . .
35.0(31) . . .
39.8(32) . . .
42(4) . . .
38.7(32) . . .
33.7(32) . . .
34.7(32) . . .
35.0(33) . . .
32.3(30) . . .
37.3(32) . . .
43(4) . . .
35.6(34) . . .
34.2(31) . . .
36.2(32) . . .
46(4) . . .
43(4) . . .
32.9(32) . . .
46(4) . . .
42.5(35) . . .
31.3(29) . . .
41(4) . . .
32.4(30) . . .
31.5(29) . . .
33.4(30) . . .
38.1(34) . . .
41.6(34) . . .
43.1(35) . . .
37.2(32) . . .
36.0(31) . . .
35.1(31) . . .
39.7(33) . . .
43.6(34) . . .
38.4(33) . . .
40.0(33) . . .
40.7(33) . . .
39.7(34) . . .
40(4) . . .
38.2(34) . . .
36.9(32) . . .
34.3(30) . . .
36.0(31) . . .
31.2(30) . . .
30.3(29) . . .
32.3(30) . . .
45(4) . . .
41.1(35) . . .
37.5(34) . . .
31.5(29) . . .
44.1(35) . . .
45(4) . . .
43(4) . . .
46(4) . . .
36.8(33) . . .
29.4(29) . . .
30.6(30) . . .
39.3(35) . . .
35.0(30) . . .
42(4) . . .
40.4(33) . . .
38.9(32) . . .
45(4) . . .
41.3(34) . . .
31.9(29) . . .
30.8(29) . . .
28.4(28) . . .
35.7(33) . . .
39.5(34) . . .
37.5(31) . . .
36.0(32) . . .
36.5(33) . . .
38.3(35) . . .
47(4) . . .
35.5(31) . . .
41.6(34) . . .
46(4) . . .
38.0(32) . . .
45.0(35) . . .
36.5(32) . . .
36.6(33) . . .
34.0(31) . . .
32.1(31) . . .
34.2(31) . . .
37.9(32) . . .
35.6(31) . . .
38.8(33) . . .
40.8(35) . . .
25.0(25) . . .
35.2(32) . . .
34.1(31) . . .
37.8(34) . . .
35.1(33) . . .
42(4) . . .
36.1(31) . . .
42.3(35) . . .
34.9(34) . . .
35.8(33) . . .
41(4) . . .
38.5(33) . . .
39.5(34) . . .
32.5(32) . . .
37.8(34) . . .
33.0(30) . . .
39.6(33) . . .
34.5(32) . . .
37(4) . . .
38.0(33) . . .
38.8(32) . . .
37.6(32) . . .
39.7(34) . . .
38.1(34) . . .
37.2(33) . . .
35.1(31) . . .
41.8(35) . . .
38.2(33) . . .
39.7(35) . . .
38.0(33) . . .
34.5(31) . . .
29.2(28) . . .
34.7(32) . . .
38.7(34) . . .
45(4) . . .
39.2(33) . . .
36.3(31) . . .
44(4) . . .
34.3(31) . . .
43(4) . . .
39.1(33) . . .
44(4) . . .
38.2(33) . . .
37.5(33) . . .
48(4) . . .
41.8(34) . . .
36.8(32) . . .
34.8(31) . . .
39.9(35) . . .
37.9(32) . . .
46(4) . . .
38.5(32) . . .
40.4(34) . . .
39.1(34) . . .
31.5(32) . . .
44.4(34) . . .
41.1(34) . . .
45(4) . . .
42.4(34) . . .
38.0(33) . . .
44.2(35) . . .
33.7(31) . . .
36.1(33) . . .
38.5(33) . . .
44(4) . . .
43.1(34) . . .
32.0(29) . . .
42(4) . . .
43.8(34) . . .
38.0(32) . . .
42.5(34) . . .
33.1(29) . . .
43(4) . . .
41.8(34) . . .
33.3(30) . . .
34.4(30) . . .
47(4) . . .
38.7(34) . . .
43.1(35) . . .
38.4(32) . . .
44.0(34) . . .
50(4) . . .
39(4) . . .
26.7(27) . . .
38.8(33) . . .
36.2(33) . . .
44(4) . . .
43.1(35) . . .
46(4) . . .
37.9(33) . . .
42(4) . . .
36(4) . . .
41(4) . . .
47(4) . . .
35.7(31) . . .
35.6(33) . . .
29.9(30) . . .
38.5(34) . . .
42(4) . . .
47(4) . . .
38.1(32) . . .
33.6(30) . . .
36.6(33) . . .
38.4(33) . . .
41.1(34) . . .
37.5(31) . . .
36.6(31) . . .
38.2(34) . . .
39.3(34) . . .
39.2(32) . . .
35.3(32) . . .
48(4) . . .
45(4) . . .
32.4(30) . . .
41.8(34) . . .
41(4) . . .
36.2(34) . . .
41(4) . . .
37.6(32) . . .
42.8(34) . . .
38.5(33) . . .
37.4(35) . . .
37.0(32) . . .
37.1(31) . . .
48(4) . . .
33.3(30) . . .
32.4(31) . . .
38.6(32) . . .
38.2(32) . . .
42.5(34) . . .
37.6(33) . . .
32.1(31) . . .
31.7(29) . . .
37.5(32) . . .
45.5(35) . . .
35.6(32) . . .
35.6(32) . . .
44(4) . . .
49(4) . . .
46(4) . . .
37.3(32) . . .
51(4) . . .
42(4) . . .
33.9(30) . . .
34.6(30) . . .
38.5(32) . . .
42.7(35) . . .
37.4(32) . . .
37.6(32) . . .
50(4) . . .
33.3(30) . . .
36.2(32) . . .
38.4(34) . . .
41.6(34) . . .
44.6(35) . . .
37.1(34) . . .
53(4) . . .
39.5(33) . . .
35.1(31) . . .
36.8(33) . . .
34.4(31) . . .
30.8(29) . . .
35.8(31) . . .
42.2(34) . . .
48(4) . . .
45(4) . . .
39.4(34) . . .
33.8(31) . . .
40.3(33) . . .
46(4) . . .
45(4) . . .
35.9(32) . . .
38.5(32) . . .
39.1(33) . . .
37.3(32) . . .
45(4) . . .
37.6(33) . . .
35.5(31) . . .
42.8(35) . . .
33.9(32) . . .
41(4) . . .
44(4) . . .
32.7(30) . . .
37.9(33) . . .
37.4(32) . . .
37.0(34) . . .
36.6(34) . . .
39.6(35) . . .
41.1(33) . . .
40.2(34) . . .
31.6(32) . . .
45(4) . . .
39.9(33) . . .
33.5(30) . . .
34.3(30) . . .
33.8(32) . . .
36.5(32) . . .
47(4) . . .
38.0(32) . . .
32.2(30) . . .
42(4) . . .
52(4) . . .
41.5(33) . . .
40.2(33) . . .
35.7(32) . . .
41.1(33) . . .
42.6(34) . . .
39.4(32) . . .
44(4) . . .
42.0(34) . . .
45(4) . . .
38.0(34) . . .
41.9(34) . . .
34.0(31) . . .
34.5(31) . . .
40.1(33) . . .
33.7(30) . . .
42.8(35) . . .
41(4) . . .
39.8(34) . . .
36.5(32) . . .
40.8(34) . . .
37.9(32) . . .
33.8(31) . . .
39(4) . . .
35.3(30) . . .
45(4) . . .
35.4(31) . . .
32.6(31) . . .
36.8(34) . . .
30.3(29) . . .
32.0(29) . . .
40.7(34) . . .
39.0(33) . . .
40(4) . . .
34.6(31) . . .
38.0(32) . . .
36.5(32) . . .
38.2(33) . . .
41(4) . . .
42(4) . . .
35.6(32) . . .
38.3(32) . . .
35.7(33) . . .
43(4) . . .
38.6(33) . . .
48(4) . . .
41.7(35) . . .
37.0(32) . . .
32.2(31) . . .
39(4) . . .
44(4) . . .
45(4) . . .
38.8(33) . . .
35.2(33) . . .
45(4) . . .
35.5(32) . . .
35.6(32) . . .
38.6(34) . . .
47(4) . . .
40.6(34) . . .
37.8(32) . . .
34.5(31) . . .
42.2(34) . . .
45(4) . . .
44(4) . . .
47(4) . . .
40.9(34) . . .
38.0(33) . . .
29.3(28) . . .
46(4) . . .
41.9(34) . . .
35.8(32) . . .
38.2(35) . . .
40.2(33) . . .
42.3(34) . . .
44.7(35) . . .
42.0(34) . . .
35.2(33) . . .
38.7(34) . . .
38.9(33) . . .
29.6(28) . . .
43(4) . . .
39.4(35) . . .
39.2(34) . . .
42.4(34) . . .
38.3(33) . . .
32.2(30) . . .
38.7(34) . . .
45(4) . . .
30.7(29) . . .
41.6(33) . . .
43(4) . . .
33.6(31) . . .
45(4) . . .
34.8(32) . . .
38.8(33) . . .
36.7(33) . . .
32.9(29) . . .
37.4(32) . . .
39.6(33) . . .
33.0(32) . . .
30.2(30) . . .
32.3(30) . . .
43(4) . . .
41.8(33) . . .
32.8(30) . . .
34.6(32) . . .
31.3(31) . . .
40.6(33) . . .
45.3(35) . . .
36.9(31) . . .
35.9(32) . . .
35.6(33) . . .
35.8(31) . . .
48(4) . . .
35.2(32) . . .
36.9(34) . . .
38.1(34) . . .
29.7(28) . . .
29.9(29) . . .
31.3(29) . . .
32.0(32) . . .
35.3(34) . . .
39.1(34) . . .
38.6(34) . . .
40(4) . . .
34.0(32) . . .
37.2(33) . . .
34.5(30) . . .
43(4) . . .
36.5(31) . . .
37(4) . . .
32.7(30) . . .
26.8(27) . . .
37.2(32) . . .
32.1(29) . . .
46(4) . . .
35.1(30) . . .
37.7(33) . . .
41.3(35) . . .
42(4) . . .
35.8(33) . . .
40.4(34) . . .
44.1(34) . . .
44(4) . . .
41(4) . . .
32.8(30) . . .
48(4) . . .
37.7(32) . . .
38.5(34) . . .
39.3(35) . . .
35.8(32) . . .
37.9(34) . . .
37.0(31) . . .
34.8(31) . . .
31.9(30) . . .
34.0(33) . . .
41.9(34) . . .
35.7(31) . . .
45(4) . . .
40.1(34) . . .
35.0(32) . . .
36.7(31) . . .
37.4(32) . . .
45(4) . . .
37.3(33) . . .
45(4) . . .
36.1(31) . . .
42.5(35) . . .
40.7(33) . . .
36.5(33) . . .
39.1(35) . . .
38.5(32) . . .
28.8(28) . . .
25.3(27) . . .
42(4) . . .
41.0(34) . . .
35.3(31) . . .
42.6(35) . . .
39.4(35) . . .
38.4(34) . . .
45(4) . . .
29.6(28) . . .
34.5(30) . . .
32.5(29) . . .
40.1(33) . . .
43.2(35) . . .
43.5(34) . . .
27.9(28) . . .
34.0(33) . . .
35.4(33) . . .
46(4) . . .
39.5(34) . . .
30.8(29) . . .
28.7(29) . . .
38.3(34) . . .
36.6(34) . . .
28.3(28) . . .
40.1(35) . . .
32.4(30) . . .
40(4) . . .
43(4) . . .
39.3(33) . . .
36.0(33) . . .
41(4) . . .
41.9(35) . . .
40.5(34) . . .
36.7(32) . . .
40.9(34) . . .
40.6(34) . . .
36.8(32) . . .
35.7(32) . . .
35.3(31) . . .
37.8(32) . . .
42(4) . . .
39(4) . . .
34.0(32) . . .
39.0(32) . . .
42(4) . . .
29.2(29) . . .
32.0(30) . . .
40.7(35) . . .
30.3(30) . . .
41.9(35) . . .
42(4) . . .
38(4) . . .
36.2(31) . . .
41.6(34) . . .
37.0(34) . . .
40(4) . . .
36.8(32) . . .
35.0(31) . . .
39.5(34) . . .
43(4) . . .
38.1(33) . . .
34.6(31) . . .
39.3(33) . . .
39.0(32) . . .
37.3(33) . . .
34.6(34) . . .
28.8(28) . . .
37.8(32) . . .
40.6(34) . . .
36.9(32) . . .
44(4) . . .
38.0(33) . . .
35.0(31) . . .
36.0(32) . . .
38.0(33) . . .
43(4) . . .
45(4) . . .
35.9(31) . . .
35.0(31) . . .
47(4) . . .
42(4) . . .
42(4) . . .
34.2(31) . . .
46(4) . . .
42(4) . . .
37.2(33) . . .
40.0(33) . . .
33.6(30) . . .
33.5(31) . . .
39.5(35) . . .
36.7(33) . . .
39.8(33) . . .
39.0(33) . . .
43(4) . . .
38.4(32) . . .
30.3(28) . . .
42.1(34) . . .
29.7(29) . . .
39.3(33) . . .
35.3(31) . . .
34.1(31) . . .
34.8(31) . . .
36.4(32) . . .
37.3(33) . . .
32.1(30) . . .
43.1(35) . . .
35.1(32) . . .
35.2(31) . . .
42(4) . . .
49(4) . . .
38.0(33) . . .
38.8(32) . . .
34.3(31) . . .
44(4) . . .
44(4) . . .
39.2(33) . . .
48(4) . . .
39.2(32) . . .
41.3(34) . . .
41(4) . . .
39.1(33) . . .
36.0(32) . . .
44(4) . . .
38(4) . . .
35.0(33) . . .
43(4) . . .
37.3(32) . . .
39.5(34) . . .
32.6(31) . . .
38.2(35) . . .
39.2(34) . . .
42.0(34) . . .
38.7(33) . . .
33.5(32) . . .
40(4) . . .
31.2(29) . . .
42.1(35) . . .
51(4) . . .
36.1(33) . . .
36.3(32) . . .
40.8(34) . . .
45.4(35) . . .
39.4(33) . . .
34.5(32) . . .
44(4) . . .
31.1(30) . . .
39.1(33) . . .
38.8(33) . . .
46(4) . . .
31.5(29) . . .
42.3(33) . . .
36.5(32) . . .
40(4) . . .
38.6(34) . . .
28.8(29) . . .
35.9(31) . . .
38.2(33) . . .
39.9(35) . . .
30.1(30) . . .
38(4) . . .
44(4) . . .
31.8(29) . . .
38.1(31) . . .
45(4) . . .
30.8(29) . . .
36.8(32) . . .
37.9(32) . . .
38.6(32) . . .
41.9(35) . . .
35.3(33) . . .
35.8(31) . . .
36.8(32) . . .
41(4) . . .
37.6(35) . . .
37.9(34) . . .
40.4(33) . . .
40.6(33) . . .
40.1(34) . . .
41(4) . . .
38.7(34) . . .
34.6(31) . . .
38.6(33) . . .
38.7(33) . . .
35.3(31) . . .
40.0(35) . . .
36.6(31) . . .
38.7(33) . . .
36.1(31) . . .
51(4) . . .
36.2(32) . . .
33.7(30) . . .
36.1(31) . . .
43(4) . . .
44(4) . . .
44(4) . . .
42.9(34) . . .
43(4) . . .
51(4) . . .
45(4) . . .
38.6(34) . . .
41.0(33) . . .
39.1(34) . . .
41(4) . . .
30.3(30) . . .
33.6(30) . . .
29.4(28) . . .
33.0(30) . . .
38.3(35) . . .
39.8(34) . . .
35.8(33) . . .
44.1(35) . . .
37.0(32) . . .
32.6(32) . . .
39.3(33) . . .
41.7(34) . . .
37.5(31) . . .
37.3(32) . . .
41(4) . . .
29.3(28) . . .
40.5(33) . . .
39.1(33) . . .
39.3(35) . . .
40.9(33) . . .
43(4) . . .
37.3(32) . . .
34.0(31) . . .
42(4) . . .
33.4(32) . . .
33.7(31) . . .
35.1(31) . . .
35.1(33) . . .
45(4) . . .
33.9(31) . . .
41.2(34) . . .
44(4) . . .
39.0(33) . . .
46(4) . . .
40(4) . . .
39.8(33) . . .
34.5(31) . . .
34.8(32) . . .
41.2(34) . . .
37.9(33) . . .
40.9(34) . . .
39.7(33) . . .
37.4(33) . . .
32(4) . . .
29.4(29) . . .
35.1(31) . . .
40.9(33) . . .
44(4) . . .
44(4) . . .
37.8(33) . . .
28.1(28) . . .
42.9(34) . . .
37.7(34) . . .
32.7(32) . . .
39.5(35) . . .
30.3(28) . . .
37.7(32) . . .
32.0(30) . . .
36.2(34) . . .
39.6(34) . . .
33.6(31) . . .
38.1(32) . . .
34.4(32) . . .
32.8(32) . . .
50(4) . . .
41.3(33) . . .
36.0(31) . . .
42(4) . . .
42(4) . . .
35.3(32) . . .
34.8(30) . . .
26.6(27) . . .
31.9(30) . . .
48(4) . . .
44.7(34) . . .
39.9(33) . . .
31.8(29) . . .
42(4) . . .
44(4) . . .
45(4) . . .
31.3(29) . . .
39.9(34) . . .
37.4(33) . . .
41(4) . . .
35.9(31) . . .
41.5(33) . . .
32.6(30) . . .
26.9(27) . . .
44(4) . . .
36.1(32) . . .
32.9(30) . . .
40(4) . . .
31.8(30) . . .
39.0(34) . . .
26.6(27) . . .
33.0(31) . . .
45(4) . . .
41(4) . . .
40.4(34) . . .
42.9(34) . . .
39.1(33) . . .
35.8(32) . . .
40(4) . . .
34.6(33) . . .
20.9(24) . . .
32.9(31) . . .
25.3(28) . . .
33.8(33) . . .
36.8(33) . . .
40.8(33) . . .
39.5(33) . . .
35.2(31) . . .
40(4) . . .
35.5(32) . . .
32.3(30) . . .
40.5(33) . . .
45.2(35) . . .
40.7(34) . . .
34.7(32) . . .
33.5(31) . . .
34.3(31) . . .
36.2(34) . . .
40(4) . . .
34.5(35) . . .
42.6(34) . . .
34.4(31) . . .
31.3(29) . . .
40.5(34) . . .
40.1(34) . . .
33.0(30) . . .
49(4) . . .
38.0(32) . . .
46(4) . . .
37.5(32) . . .
46(4) . . .
43.6(34) . . .
43(4) . . .
40.2(34) . . .
44.0(34) . . .
35.5(31) . . .
35.5(32) . . .
33.3(30) . . .
44(4) . . .
29.3(29) . . .
44.1(35) . . .
45(4) . . .
31.2(32) . . .
32.1(30) . . .
38.0(32) . . .
42.6(34) . . .
35.2(31) . . .
34.0(32) . . .
30.6(30) . . .
31.6(29) . . .
38.0(32) . . .
36.9(34) . . .
34.1(34) . . .
30.6(28) . . .
35.7(31) . . .
39.6(34) . . .
37.1(32) . . .
49(4) . . .
36.3(32) . . .
35.3(31) . . .
40.9(33) . . .
52(4) . . .
42(4) . . .
36.4(32) . . .
41.2(34) . . .
37.5(33) . . .
30.1(29) . . .
45(4) . . .
38.6(34) . . .
41.5(33) . . .
40.2(33) . . .
37.9(34) . . .
33.6(32) . . .
33.8(32) . . .
46(4) . . .
45(4) . . .
40(4) . . .
32.3(30) . . .
39.8(34) . . .
38.7(32) . . .
32.3(30) . . .
30.8(31) . . .
40.2(34) . . .
25.2(26) . . .
33.6(30) . . .
35.8(31) . . .
40(4) . . .
40(4) . . .
32.7(30) . . .
38.7(33) . . .
37.5(33) . . .
40.6(35) . . .
40.8(34) . . .
43(4) . . .
37.5(32) . . .
43.0(35) . . .
40.5(35) . . .
33.7(31) . . .
40.7(33) . . .
40.7(33) . . .
28.5(28) . . .
38.6(34) . . .
37.8(32) . . .
34.8(31) . . .
43.4(35) . . .
36.2(31) . . .
48(4) . . .
39.6(33) . . .
33.0(30) . . .
37.0(32) . . .
32.0(30) . . .
36(4) . . .
35.1(31) . . .
33.9(30) . . .
31.2(29) . . .
37.0(32) . . .
35.9(31) . . .
40.1(35) . . .
29.1(29) . . .
44(4) . . .
29.3(28) . . .
34.4(34) . . .
41(4) . . .
34.0(30) . . .
39.3(33) . . .
36.0(33) . . .
35.9(32) . . .
43(4) . . .
37.3(32) . . .
37.5(33) . . .
30.3(28) . . .
44(4) . . .
41.0(34) . . .
34.2(30) . . .
38.1(35) . . .
39.9(34) . . .
34.3(31) . . .
37.4(33) . . .
37.2(32) . . .
39.2(33) . . .
36.5(33) . . .
26.4(26) . . .
33.4(30) . . .
32.6(30) . . .
38.6(35) . . .
36.5(33) . . .
35.7(32) . . .
37.8(33) . . .
43.1(34) . . .
35.7(31) . . .
44(4) . . .
36.8(33) . . .
32.0(30) . . .
46(4) . . .
43.1(34) . . .
38.4(34) . . .
36.7(33) . . .
46(4) . . .
38.4(33) . . .
31.0(29) . . .
36.7(34) . . .
33.0(30) . . .
42.2(33) . . .
42.8(34) . . .
40.3(32) . . .
38.9(34) . . .
36.5(33) . . .
35.7(32) . . .
40.9(33) . . .
40.4(35) . . .
33.3(31) . . .
36.3(34) . . .
36.7(31) . . .
34.9(33) . . .
37.5(33) . . .
39.9(34) . . .
39.2(35) . . .
41.7(34) . . .
42(4) . . .
42(4) . . .
32.7(31) . . .
32.9(30) . . .
40.6(33) . . .
34.5(34) . . .
32.6(32) . . .
31.3(32) . . .
38.7(33) . . .
35.0(32) . . .
38.0(33) . . .
39.5(35) . . .
47(4) . . .
34.3(31) . . .
33.9(31) . . .
34.0(31) . . .
37.9(33) . . .
37.3(33) . . .
32.8(31) . . .
34.8(32) . . .
34.2(31) . . .
37.1(33) . . .
46(4) . . .
37.3(32) . . .
44.5(35) . . .
43(4) . . .
34.7(32) . . .
45(4) . . .
38.3(33) . . .
31.5(29) . . .
37.6(34) . . .
44(4) . . .
25.7(28) . . .
33.5(31) . . .
42.3(34) . . .
37.8(33) . . .
36.0(35) . . .
36.7(32) . . .
36.2(31) . . .
44(4) . . .
34.2(32) . . .
35.3(32) . . .
34.0(30) . . .
37.4(32) . . .
41.8(34) . . .
31.1(30) . . .
42.8(35) . . .
35.0(31) . . .
40.6(33) . . .
38.7(33) . . .
34.2(32) . . .
39.1(33) . . .
43(4) . . .
40.3(33) . . .
36.5(33) . . .
38.1(32) . . .
33.0(31) . . .
36.7(33) . . .
33.3(30) . . .
37.0(32) . . .
43(4) . . .
38.8(33) . . .
40.4(34) . . .
38.4(32) . . .
39.8(35) . . .
34.7(31) . . .
34.2(31) . . .
37.8(32) . . .
35.3(31) . . .
37.8(33) . . .
37.3(34) . . .
39.7(34) . . .
37.3(32) . . .
32.5(30) . . .
38.2(34) . . .
40(4) . . .
39.0(34) . . .
35.1(31) . . .
33.0(30) . . .
34.5(32) . . .
35.4(34) . . .
40.7(34) . . .
34.7(32) . . .
35.1(31) . . .
38.0(33) . . .
27.6(30) . . .
28.8(29) . . .
33.8(31) . . .
38.3(33) . . .
42(4) . . .
35.5(33) . . .
47(4) . . .
50(4) . . .
35.6(31) . . .
48(4) . . .
39.9(33) . . .
34.1(31) . . .
32.0(30) . . .
37.7(32) . . .
44(4) . . .
39.2(35) . . .
40(4) . . .
33.9(30) . . .
34.0(32) . . .
46(4) . . .
37.5(35) . . .
39.3(33) . . .
41.5(34) . . .
45(4) . . .
33.3(31) . . .
39.9(35) . . .
39.3(33) . . .
41.3(33) . . .
42(4) . . .
34.6(31) . . .
38.3(34) . . .
48(4) . . .
39.0(33) . . .
36.6(34) . . .
32.1(30) . . .
31.9(30) . . .
39.5(34) . . .
35.2(31) . . .
41.3(33) . . .
34.5(32) . . .
30.8(32) . . .
33.7(31) . . .
49(4) . . .
25.9(26) . . .
38(4) . . .
42.8(35) . . .
36.4(32) . . .
32.9(29) . . .
34.4(31) . . .
41(4) . . .
42.8(35) . . .
39.2(34) . . .
33.3(30) . . .
39.3(34) . . .
34.0(31) . . .
40.3(34) . . .
42.4(34) . . .
37.0(32) . . .
30.7(31) . . .
35.8(34) . . .
44(4) . . .
32.0(29) . . .
35.3(32) . . .
35.8(34) . . .
40.3(33) . . .
45(4) . . .
36.3(31) . . .
39.5(33) . . .
42(4) . . .
36.8(32) . . .
36.3(31) . . .
43.6(35) . . .
37.3(33) . . .
36.7(33) . . .
41.6(35) . . .
32.6(30) . . .
33.5(30) . . .
35.5(32) . . .
44(4) . . .
38.4(33) . . .
42.3(34) . . .
36.2(32) . . .
29.7(30) . . .
37.0(34) . . .
46(4) . . .
37.6(32) . . .
37.5(33) . . .
31.6(30) . . .
37(4) . . .
41.0(35) . . .
36.1(31) . . .
33.3(30) . . .
33.8(31) . . .
35.7(32) . . .
39.8(32) . . .
33.1(30) . . .
26.4(27) . . .
33.6(30) . . .
35.3(34) . . .
32.6(30) . . .
35.0(31) . . .
32.3(30) . . .
37.2(33) . . .
31.1(30) . . .
33.1(30) . . .
36.2(32) . . .
47(4) . . .
40.7(34) . . .
41.6(35) . . .
38.6(33) . . .
36.1(32) . . .
41.9(34) . . .
31.5(30) . . .
38(4) . . .
35.5(31) . . .
39.8(33) . . .
32.8(30) . . .
34.4(34) . . .
34.1(31) . . .
31.3(29) . . .
36.5(31) . . .
37.8(33) . . .
32.3(29) . . .
41(4) . . .
36.2(34) . . .
37.5(32) . . .
36.9(32) . . .
36.6(34) . . .
30.6(29) . . .
32.7(30) . . .
35.2(31) . . .
30.8(32) . . .
36.8(34) . . .
34.5(33) . . .
32.7(30) . . .
32.9(30) . . .
32.0(32) . . .
39(4) . . .
35.6(32) . . .
39.1(33) . . .
42.3(34) . . .
39.6(34) . . .
35.0(35) . . .
29.1(28) . . .
36.3(31) . . .
31.5(29) . . .
45(4) . . .
42(4) . . .
38.0(32) . . .
30.3(28) . . .
45(4) . . .
40.8(34) . . .
43(4) . . .
31.8(30) . . .
34.2(31) . . .
33.3(30) . . .
44(4) . . .
34.5(32) . . .
33.0(32) . . .
35.1(32) . . .
32.6(30) . . .
29.8(29) . . .
28.2(30) . . .
36.6(35) . . .
37.8(32) . . .
38.1(32) . . .
39.8(33) . . .
42(4) . . .
40.1(33) . . .
26.2(27) . . .
34.3(31) . . .
37.0(34) . . .
32.5(30) . . .
39.2(33) . . .
37.8(32) . . .
32.2(30) . . .
37.7(34) . . .
37.9(33) . . .
40.5(34) . . .
40.0(33) . . .
33.5(30) . . .
39.2(35) . . .
37.2(34) . . .
33.8(31) . . .
35.4(31) . . .
43(4) . . .
41(4) . . .
26.7(29) . . .
33.2(30) . . .
33.1(31) . . .
37.4(33) . . .
34.6(33) . . .
33.8(30) . . .
38.4(33) . . .
40.4(33) . . .
30.6(29) . . .
44(4) . . .
40.3(33) . . .
34.2(32) . . .
45.8(35) . . .
37.0(31) . . .
42(4) . . .
36.1(32) . . .
38.6(33) . . .
40.9(34) . . .
34.0(33) . . .
46(4) . . .
36.3(32) . . .
42.7(34) . . .
30.7(30) . . .
32.3(31) . . .
35.3(32) . . .
36.7(33) . . .
33.1(30) . . .
40.2(35) . . .
39.7(34) . . .
41.1(33) . . .
35.3(31) . . .
28.7(28) . . .
35.4(32) . . .
29.6(31) . . .
30.3(30) . . .
52(4) . . .
43.8(35) . . .
34.6(31) . . .
38.3(34) . . .
41(4) . . .
41(4) . . .
35.3(32) . . .
37.1(33) . . .
37(4) . . .
30.3(31) . . .
28.3(28) . . .
34.8(31) . . .
42(4) . . .
29.3(30) . . .
43(4) . . .
40(4) . . .
42.2(33) . . .
39.9(35) . . .
38(4) . . .
30.2(31) . . .
39.6(33) . . .
38.0(32) . . .
39(4) . . .
31.6(32) . . .
40.0(34) . . .
37.9(32) . . .
35.5(31) . . .
33.2(31) . . .
40(4) . . .
36.8(33) . . .
36.5(31) . . .
38.1(32) . . .
48(4) . . .
44(4) . . .
36.2(34) . . .
34.5(31) . . .
40.7(34) . . .
42(4) . . .
31.4(32) . . .
34.0(33) . . .
30.6(28) . . .
32.4(31) . . .
43(4) . . .
40.4(34) . . .
33.5(33) . . .
33.1(30) . . .
30.8(30) . . .
35.1(33) . . .
36.1(32) . . .
38.6(33) . . .
31.5(29) . . .
38(4) . . .
31.5(31) . . .
30.5(30) . . .
33.3(31) . . .
26.1(27) . . .
40.4(33) . . .
37.3(34) . . .
33.6(32) . . .
34.9(31) . . .
35.8(32) . . .
44(4) . . .
40.2(33) . . .
35.2(30) . . .
36.2(31) . . .
41.1(33) . . .
40.4(34) . . .
37.6(33) . . .
40.6(34) . . .
36.4(32) . . .
36.7(31) . . .
43.5(35) . . .
42(4) . . .
40.7(35) . . .
44(4) . . .
41.2(34) . . .
28.6(28) . . .
40(4) . . .
35.4(31) . . .
37.2(31) . . .
41.0(34) . . .
44(4) . . .
42(4) . . .
36.1(33) . . .
34.0(30) . . .
38.8(34) . . .
37.0(32) . . .
34.1(32) . . .
34.8(31) . . .
39.3(33) . . .
36.9(33) . . .
39.0(34) . . .
43(4) . . .
34.5(32) . . .
32.5(30) . . .
28.3(27) . . .
38(4) . . .
36.6(35) . . .
34.7(31) . . .
39.5(32) . . .
39.6(34) . . .
36.0(31) . . .
45(4) . . .
33.1(30) . . .
35.7(31) . . .
38.8(32) . . .
48(4) . . .
43(4) . . .
45(4) . . .
36.7(32) . . .
40.1(34) . . .
35.4(35) . . .
36.2(34) . . .
36.8(32) . . .
37.7(32) . . .
40(4) . . .
36.5(34) . . .
35.6(32) . . .
40.5(34) . . .
37.1(32) . . .
34.6(30) . . .
41(4) . . .
41.9(34) . . .
35.4(30) . . .
30.2(29) . . .
39.5(34) . . .
44(4) . . .
42.1(35) . . .
38.6(32) . . .
42.5(34) . . .
39.3(34) . . .
43(4) . . .
32.2(32) . . .
35.6(31) . . .
38.2(32) . . .
40.3(33) . . .
39.0(33) . . .
40(4) . . .
43.4(35) . . .
41.7(33) . . .
39.3(35) . . .
30.3(32) . . .
36.4(31) . . .
40.5(33) . . .
39.6(34) . . .
35.1(32) . . .
40(4) . . .
43(4) . . .
42.8(34) . . .
31.9(29) . . .
33.8(29) . . .
43(4) . . .
42(4) . . .
34.2(30) . . .
31.4(31) . . .
37.7(34) . . .
41.5(35) . . .
40.8(34) . . .
37.4(31) . . .
33.2(32) . . .
30.7(31) . . .
28.8(29) . . .
41.4(35) . . .
30.1(28) . . .
43.3(34) . . .
44(4) . . .
35.9(32) . . .
34.3(30) . . .
39.3(33) . . .
42.9(35) . . .
39.6(35) . . .
34.6(31) . . .
34.5(31) . . .
28.5(28) . . .
33.8(31) . . .
39(4) . . .
34.2(33) . . .
38.6(32) . . .
38.3(32) . . .
36.2(33) . . .
31.1(28) . . .
35.5(31) . . .
42.2(33) . . .
46(4) . . .
42.8(35) . . .
34.8(31) . . .
41.1(35) . . .
42.4(35) . . .
40.8(34) . . .
34.2(30) . . .
41(4) . . .
33.7(32) . . .
24.5(26) . . .
38.9(33) . . .
34.6(31) . . .
34.0(31) . . .
38.9(34) . . .
31.5(29) . . .
37.0(34) . . .
33.5(31) . . .
39.0(33) . . .
31.3(29) . . .
36.5(31) . . .
33.2(31) . . .
42(4) . . .
39.5(33) . . .
36.5(32) . . .
31.8(30) . . .
28.7(29) . . .
39.0(34) . . .
41(4) . . .
36.1(32) . . .
41.4(34) . . .
44(4) . . .
29.3(30) . . .
33.2(32) . . .
29.9(29) . . .
38.5(32) . . .
34.5(30) . . .
37(4) . . .
34.5(33) . . .
38.6(34) . . .
34.3(30) . . .
32.5(30) . . .
37.8(33) . . .
41.7(34) . . .
27.5(28) . . .
26.5(27) . . .
36.0(33) . . .
34(4) . . .
31.1(32) . . .
44.5(34) . . .
34.7(31) . . .
34.6(32) . . .
32.3(32) . . .
37.3(32) . . .
39.1(33) . . .
38.1(32) . . .
37.4(32) . . .
39.3(33) . . .
39.5(35) . . .
40.6(33) . . .
38.5(32) . . .
35.1(31) . . .
45(4) . . .
30.9(29) . . .
41.3(34) . . .
29.1(28) . . .
36.9(33) . . .
35.2(32) . . .
40.7(34) . . .
41.0(34) . . .
31.5(30) . . .
44(4) . . .
35.4(31) . . .
35.6(32) . . .
40.4(33) . . .
34.9(30) . . .
36.6(32) . . .
34.0(32) . . .
37.4(33) . . .
43.0(34) . . .
34.2(30) . . .
35.7(32) . . .
43.3(35) . . .
36.5(32) . . .
30.4(29) . . .
35.7(33) . . .
33.5(31) . . .
37.4(32) . . .
37.7(32) . . .
31.6(29) . . .
38.6(33) . . .
38.4(35) . . .
36.5(34) . . .
37.6(32) . . .
37.7(32) . . .
39.7(34) . . .
40.1(34) . . .
44(4) . . .
28.4(27) . . .
40.9(35) . . .
47(4) . . .
31.5(32) . . .
36.9(32) . . .
34.3(31) . . .
30.7(29) . . .
34.6(30) . . .
33.6(30) . . .
37.7(34) . . .
30.7(29) . . .
36.2(33) . . .
37.2(32) . . .
38.1(34) . . .
36.2(34) . . .
47(4) . . .
39.7(35) . . .
43(4) . . .
40.5(35) . . .
33.1(31) . . .
33.6(31) . . .
50(4) . . .
37.5(35) . . .
38.7(35) . . .
33.3(30) . . .
41.9(33) . . .
44(4) . . .
41.7(34) . . .
41.8(34) . . .
44(4) . . .
33.7(30) . . .
38(4) . . .
44(4) . . .
37.1(32) . . .
38.1(32) . . .
38.3(33) . . .
38.8(34) . . .
38(4) . . .
37.0(33) . . .
35.6(30) . . .
38.7(33) . . .
27.7(28) . . .
29.7(30) . . .
29.6(28) . . .
37.3(32) . . .
38.6(32) . . .
37.3(33) . . .
36.4(34) . . .
32.7(31) . . .
44.4(35) . . .
38.6(34) . . .
33.1(33) . . .
33.9(34) . . .
38.5(33) . . .
32.6(30) . . .
30.0(28) . . .
25.4(27) . . .
34.6(33) . . .
41.9(35) . . .
39.0(32) . . .
39.5(34) . . .
34.0(31) . . .
36.5(32) . . .
35.4(32) . . .
33.8(30) . . .
34.0(31) . . .
39.7(34) . . .
45(4) . . .
39.7(34) . . .
36.3(31) . . .
45(4) . . .
38.2(34) . . .
37.8(34) . . .
32.2(30) . . .
40.7(33) . . .
40.9(35) . . .
41.6(34) . . .
40.8(34) . . .
38.6(33) . . .
45.4(35) . . .
36.6(34) . . .
32.6(32) . . .
31.4(31) . . .
23.9(26) . . .
38.0(32) . . .
35.7(32) . . .
47(4) . . .
42.3(33) . . .
39.8(33) . . .
32.3(29) . . .
41.0(34) . . .
32.2(30) . . .
35.0(33) . . .
30.9(29) . . .
31.1(30) . . .
34.9(31) . . .
33.0(32) . . .
34.1(32) . . .
37.0(32) . . .
34.3(31) . . .
35.7(34) . . .
35.3(34) . . .
30.4(29) . . .
37.7(32) . . .
37.3(32) . . .
36.6(33) . . .
46(4) . . .
38.8(33) . . .
36.2(32) . . .
28.0(29) . . .
41.7(35) . . .
38.5(34) . . .
33.7(31) . . .
46(4) . . .
31.2(31) . . .
31.7(29) . . .
31.6(29) . . .
39.5(35) . . .
45(4) . . .
31.5(30) . . .
29.2(30) . . .
28.7(28) . . .
36.3(33) . . .
34.8(31) . . .
41(4) . . .
30.7(31) . . .
37.2(33) . . .
27.5(28) . . .
34.9(32) . . .
32.5(30) . . .
44(4) . . .
30.2(28) . . .
45(4) . . .
39.0(32) . . .
40.0(34) . . .
37.6(33) . . .
42.7(35) . . .
33.8(30) . . .
30.6(30) . . .
30.6(30) . . .
24.6(26) . . .
31.8(30) . . .
36.7(32) . . .
37.2(32) . . .
37.3(35) . . .
39(4) . . .
35.2(33) . . .
39.9(33) . . .
43.2(34) . . .
32.2(30) . . .
32.0(33) . . .
35.9(31) . . .
39.4(33) . . .
39.8(33) . . .
34.8(31) . . .
30.5(30) . . .
45(4) . . .
37.4(32) . . .
34.9(31) . . .
41(4) . . .
33.8(32) . . .
46(4) . . .
37.3(32) . . .
40.1(34) . . .
34.9(32) . . .
31.2(30) . . .
45(4) . . .
35.5(31) . . .
35.0(32) . . .
39.0(35) . . .
38.0(34) . . .
35.6(32) . . .
34.6(30) . . .
42.1(34) . . .
36.3(35) . . .
37.0(34) . . .
29.6(29) . . .
37.8(32) . . .
33.2(30) . . .
36.2(32) . . .
43(4) . . .
35.3(32) . . .
34.3(30) . . .
42(4) . . .
38.8(32) . . .
45(4) . . .
34.8(31) . . .
35.5(31) . . .
31.6(30) . . .
38.4(35) . . .
39.3(34) . . .
35.7(30) . . .
31.8(30) . . .
37.9(33) . . .
36.7(34) . . .
39.2(35) . . .
42.8(34) . . .
31.0(29) . . .
31.3(31) . . .
36.8(34) . . .
38.1(32) . . .
47(4) . . .
38.1(32) . . .
37.4(33) . . .
32.4(31) . . .
36.1(32) . . .
31.9(29) . . .
37.8(32) . . .
37.8(32) . . .
36.1(33) . . .
32.4(30) . . .
33.7(30) . . .
32.1(30) . . .
37.9(34) . . .
42(4) . . .
32.3(31) . . .
46(4) . . .
37.3(31) . . .
34.7(32) . . .
31.0(30) . . .
43(4) . . .
29.9(28) . . .
24.3(27) . . .
35.4(34) . . .
38.9(33) . . .
35.9(32) . . .
32.0(29) . . .
37.5(34) . . .
37.1(34) . . .
33.4(32) . . .
33.7(30) . . .
36.9(32) . . .
37.7(31) . . .
39.9(32) . . .
42.3(34) . . .
36.0(31) . . .
38.0(33) . . .
39.2(34) . . .
42(4) . . .
40.5(33) . . .
36.9(32) . . .
40.2(33) . . .
40(4) . . .
31.2(31) . . .
30.8(29) . . .
34.8(31) . . .
36.0(31) . . .
41.2(34) . . .
44(4) . . .
39.0(33) . . .
39.3(32) . . .
36.7(31) . . .
39.7(34) . . .
32.6(32) . . .
35.8(33) . . .
35.2(31) . . .
30.6(29) . . .
37.6(34) . . .
30.5(30) . . .
30.9(29) . . .
37.5(32) . . .
33.7(31) . . .
38.7(33) . . .
33.0(30) . . .
32.2(30) . . .
37.6(32) . . .
32.5(30) . . .
40(4) . . .
41(4) . . .
46(4) . . .
37.3(33) . . .
36.4(33) . . .
39.0(34) . . .
34.5(32) . . .
36.8(34) . . .
34.9(31) . . .
39.1(33) . . .
37.3(32) . . .
42(4) . . .
36.8(32) . . .
42.3(34) . . .
44(4) . . .
39.0(34) . . .
33.6(30) . . .
40.2(34) . . .
34.3(31) . . .
32.8(30) . . .
35.3(34) . . .
35.5(31) . . .
33.7(30) . . .
31.5(29) . . .
40.5(34) . . .
43(4) . . .
35.1(31) . . .
33.7(30) . . .
34.3(32) . . .
35.7(31) . . .
33.4(31) . . .
33.5(32) . . .
48(4) . . .
42.5(34) . . .
44.4(34) . . .
50(4) . . .
48(4) . . .
42.5(34) . . .
36.8(31) . . .
34.9(31) . . .
34.6(33) . . .
30.1(28) . . .
27.8(27) . . .
37.8(32) . . .
36.3(33) . . .
35.4(33) . . .
33.4(32) . . .
35.0(31) . . .
42(4) . . .
36.8(32) . . .
34.0(32) . . .
31.1(29) . . .
34.8(31) . . .
44(4) . . .
40.3(33) . . .
37.6(33) . . .
30.4(29) . . .
28.6(28) . . .
38.3(33) . . .
31.3(28) . . .
43(4) . . .
33.4(30) . . .
43.4(34) . . .
42(4) . . .
39.9(35) . . .
40.2(34) . . .
40.1(33) . . .
36.2(32) . . .
40(4) . . .
29.8(29) . . .
31.3(31) . . .
31.1(28) . . .
34.1(32) . . .
38.2(34) . . .
44(4) . . .
40.2(33) . . .
36.8(32) . . .
29.2(28) . . .
28.3(29) . . .
35.8(35) . . .
32.6(32) . . .
31.0(29) . . .
32.2(30) . . .
26.9(29) . . .
33.8(33) . . .
36.7(32) . . .
31.4(29) . . .
33.4(30) . . .
37.2(32) . . .
43(4) . . .
43.2(34) . . .
34.6(30) . . .
35.4(32) . . .
27.2(27) . . .
34.9(31) . . .
40(4) . . .
38.0(32) . . .
43(4) . . .
38.3(33) . . .
38.5(34) . . .
41(4) . . .
37.3(32) . . .
32.4(30) . . .
32.3(30) . . .
38.7(34) . . .
37.2(34) . . .
39.9(33) . . .
38.7(34) . . .
38.4(35) . . .
37.9(33) . . .
36.5(34) . . .
30.1(29) . . .
30.7(30) . . .
30.9(31) . . .
41(4) . . .
51(4) . . .
48(4) . . .
34.9(32) . . .
32.3(30) . . .
38.6(34) . . .
39.0(32) . . .
40.7(33) . . .
31.8(31) . . .
36.5(33) . . .
42(4) . . .
35.2(31) . . .
34.9(30) . . .
39.9(34) . . .
33.9(34) . . .
33.0(31) . . .
29.7(29) . . .
33.3(30) . . .
35.0(31) . . .
38.0(34) . . .
37.5(34) . . .
30.2(29) . . .
37.4(33) . . .
32.6(31) . . .
35.9(34) . . .
42(4) . . .
37.5(32) . . .
30.1(29) . . .
34.3(32) . . .
31.8(31) . . .
37.2(34) . . .
27.9(28) . . .
35.4(31) . . .
39.8(34) . . .
33.1(31) . . .
35.7(33) . . .
41.5(34) . . .
38.1(33) . . .
34.1(30) . . .
35.0(33) . . .
32.6(31) . . .
35.4(31) . . .
37.1(31) . . .
40.0(33) . . .
43(4) . . .
34.7(32) . . .
33.2(31) . . .
36.7(33) . . .
43(4) . . .
34.2(33) . . .
35.8(32) . . .
34.5(31) . . .
40(4) . . .
36.1(33) . . .
27.5(27) . . .
36.1(33) . . .
36.8(32) . . .
38.2(34) . . .
38.1(34) . . .
38.9(33) . . .
29.4(28) . . .
32.2(30) . . .
31.1(30) . . .
38(4) . . .
35.3(33) . . .
41.5(34) . . .
32.7(30) . . .
35.3(31) . . .
34.4(32) . . .
40.6(34) . . .
39.6(33) . . .
42.5(35) . . .
29.8(30) . . .
38(4) . . .
38.7(34) . . .
29.0(28) . . .
33.9(31) . . .
32.3(31) . . .
37.9(34) . . .
38.1(34) . . .
39.5(33) . . .
34.1(30) . . .
38.2(33) . . .
38(4) . . .
30.7(30) . . .
41.7(34) . . .
43(4) . . .
36.4(33) . . .
40.3(35) . . .
33.3(31) . . .
38.4(33) . . .
40.6(34) . . .
28.3(29) . . .
34.3(35) . . .
31.1(29) . . .
35.0(31) . . .
43(4) . . .
29.7(29) . . .
37(4) . . .
32.3(30) . . .
30.8(29) . . .
34.8(30) . . .
39.8(34) . . .
41.5(35) . . .
36.0(32) . . .
43.0(34) . . .
38.4(34) . . .
32.1(31) . . .
31.2(30) . . .
33.2(30) . . .
34.7(31) . . .
35.4(33) . . .
34.3(31) . . .
38.1(33) . . .
34.1(31) . . .
33.8(31) . . .
35.7(32) . . .
40(4) . . .
33.2(31) . . .
47(4) . . .
30.4(28) . . .
33.0(32) . . .
32.5(30) . . .
36.2(32) . . .
40.4(33) . . .
33.9(31) . . .
40.8(35) . . .
39.5(35) . . .
39.4(33) . . .
35.9(31) . . .
36.6(32) . . .
46(4) . . .
45(4) . . .
41(4) . . .
30.3(29) . . .
36.8(31) . . .
38.6(34) . . .
38.7(34) . . .
37.1(35) . . .
32.0(30) . . .
34.4(31) . . .
43(4) . . .
32.3(30) . . .
40.9(34) . . .
35.2(31) . . .
32.0(30) . . .
37(4) . . .
35.5(32) . . .
37.4(32) . . .
42.7(34) . . .
43.1(35) . . .
35.3(31) . . .
43(4) . . .
33.3(31) . . .
31.9(29) . . .
42(4) . . .
33.5(33) . . .
32.5(31) . . .
29.4(28) . . .
39.2(33) . . .
36.3(32) . . .
34.5(32) . . .
37.5(34) . . .
36.9(32) . . .
29.4(29) . . .
41.2(34) . . .
31.3(31) . . .
45(4) . . .
39.8(34) . . .
35.3(31) . . .
31.1(29) . . .
32.5(34) . . .
28.1(28) . . .
29.3(28) . . .
31.0(30) . . .
36.5(34) . . .
40.3(34) . . .
45(4) . . .
31.9(30) . . .
34.3(31) . . .
33.3(31) . . .
42(4) . . .
27.3(27) . . .
33.2(30) . . .
29.7(30) . . .
39(4) . . .
31.5(30) . . .
36.1(33) . . .
37.0(32) . . .
34.8(30) . . .
38.1(33) . . .
38.1(34) . . .
32.6(30) . . .
36.5(31) . . .
39.9(35) . . .
35.9(32) . . .
39.2(33) . . .
38.1(32) . . .
32.0(30) . . .
41.8(35) . . .
41(4) . . .
37.8(32) . . .
29.1(29) . . .
36.3(31) . . .
34.1(32) . . .
36.0(32) . . .
46(4) . . .
33.5(30) . . .
37.9(32) . . .
37.5(32) . . .
40(4) . . .
28.9(28) . . .
34.3(31) . . .
40.4(33) . . .
31.8(29) . . .
27.5(27) . . .
34.0(31) . . .
36.0(32) . . .
36.6(31) . . .
43(4) . . .
35.7(34) . . .
29.6(28) . . .
40.6(33) . . .
36.1(32) . . .
32.2(31) . . .
29.8(30) . . .
38.4(35) . . .
40.2(33) . . .
40.0(33) . . .
35.7(32) . . .
28.2(28) . . .
40.3(34) . . .
39.2(33) . . .
34.6(31) . . .
43.5(35) . . .
42.6(34) . . .
36.3(31) . . .
41.4(34) . . .
36.3(32) . . .
34.4(31) . . .
41.4(34) . . .
37.8(32) . . .
36.6(32) . . .
36.3(33) . . .
28.1(31) . . .
34.6(32) . . .
34.2(31) . . .
36.1(32) . . .
31.8(31) . . .
38.8(34) . . .
35.1(32) . . .
37.8(34) . . .
31.7(29) . . .
31.8(30) . . .
39.0(33) . . .
26.4(27) . . .
40.2(33) . . .
41.7(34) . . .
49(4) . . .
34.7(33) . . .
36.3(34) . . .
32.6(31) . . .
36.8(31) . . .
36.3(35) . . .
33.1(35) . . .
32.4(29) . . .
37.2(32) . . .
35.5(31) . . .
49(4) . . .
43(4) . . .
39.8(34) . . .
34.9(31) . . .
29.6(29) . . .
38.8(33) . . .
32.7(29) . . .
31.8(30) . . .
32.9(30) . . .
34.4(30) . . .
44(4) . . .
43(4) . . .
29.5(29) . . .
37.8(32) . . .
36.8(32) . . .
38.5(34) . . .
30.9(30) . . .
38.5(34) . . .
32.9(30) . . .
35.2(32) . . .
38.8(34) . . .
39.5(34) . . .
29.9(28) . . .
39.5(33) . . .
39.5(34) . . .
37.7(33) . . .
32.5(31) . . .
32.9(33) . . .
34.7(31) . . .
51(4) . . .
34.8(31) . . .
37.3(33) . . .
40.8(33) . . .
32.2(30) . . .
35.2(33) . . .
39(4) . . .
31.0(30) . . .
39.6(33) . . .
48(4) . . .
39.7(34) . . .
35.8(33) . . .
32.7(31) . . .
31.7(29) . . .
40.2(33) . . .
33.8(31) . . .
33.9(32) . . .
30.7(28) . . .
45.7(35) . . .
39.1(32) . . .
38.1(32) . . .
38.2(33) . . .
33.4(32) . . .
27.8(28) . . .
34.1(30) . . .
29.9(29) . . .
34.3(34) . . .
42(4) . . .
41.3(34) . . .
36.5(31) . . .
41.2(34) . . .
35.5(32) . . .
38.6(33) . . .
47(4) . . .
36.7(33) . . .
44(4) . . .
35.9(33) . . .
34.3(33) . . .
29.1(28) . . .
40.3(34) . . .
45(4) . . .
28.0(27) . . .
31.7(30) . . .
29.6(28) . . .
35.6(32) . . .
35.3(31) . . .
40.5(34) . . .
29.1(27) . . .
42.0(34) . . .
37.5(33) . . .
34.0(31) . . .
46(4) . . .
34.9(31) . . .
38.9(33) . . .
36.2(33) . . .
32.6(31) . . .
39(4) . . .
28.5(27) . . .
36.1(32) . . .
27.5(28) . . .
36.4(34) . . .
30.9(29) . . .
33.0(30) . . .
40.3(33) . . .
35.6(31) . . .
37.5(34) . . .
36.9(33) . . .
33.8(30) . . .
35.7(31) . . .
36.6(33) . . .
34.3(33) . . .
38.2(33) . . .
41.5(34) . . .
27.9(27) . . .
38.6(34) . . .
39.0(35) . . .
30.3(30) . . .
40.0(33) . . .
39(4) . . .
28.0(28) . . .
37.4(33) . . .
43(4) . . .
35.2(31) . . .
32.8(31) . . .
36.0(31) . . .
42(4) . . .
26.8(26) . . .
31.2(29) . . .
34.6(31) . . .
33.0(30) . . .
33.6(31) . . .
29.1(29) . . .
36.2(31) . . .
35.6(33) . . .
36.9(32) . . .
34.4(31) . . .
36.3(33) . . .
26.6(27) . . .
33.1(32) . . .
30.8(29) . . .
36.8(33) . . .
25.5(26) . . .
34.7(31) . . .
36.4(33) . . .
35.3(35) . . .
37.8(34) . . .
38.2(32) . . .
35.5(31) . . .
37.1(32) . . .
39(4) . . .
42(4) . . .
31.2(29) . . .
34.9(30) . . .
41(4) . . .
34.0(32) . . .
40.1(34) . . .
34.7(30) . . .
40.8(33) . . .
40.2(33) . . .
34.8(33) . . .
37.8(34) . . .
37.1(31) . . .
36.1(31) . . .
39.6(33) . . .
33.7(32) . . .
35.4(31) . . .
32.1(30) . . .
41.3(34) . . .
33.8(30) . . .
34.0(32) . . .
38.8(33) . . .
35.5(31) . . .
39.8(33) . . .
37.1(34) . . .
26.0(28) . . .
32.5(30) . . .
39.5(33) . . .
32.9(31) . . .
30.5(29) . . .
32.8(31) . . .
40.7(34) . . .
33.7(31) . . .
27.6(27) . . .
46(4) . . .
42(4) . . .
32.3(31) . . .
32.5(29) . . .
37.7(33) . . .
38.1(33) . . .
30.7(30) . . .
35.7(31) . . .
37.7(32) . . .
37.0(32) . . .
33.5(31) . . .
30.7(29) . . .
35.3(31) . . .
40.7(33) . . .
38.3(33) . . .
42(4) . . .
31.9(30) . . .
31.0(29) . . .
30.6(29) . . .
35.5(31) . . .
37.3(33) . . .
32.6(30) . . .
42.6(34) . . .
41.5(34) . . .
28.8(29) . . .
36(4) . . .
35.4(31) . . .
38.7(33) . . .
38.0(32) . . .
39.0(33) . . .
30.2(29) . . .
36.3(33) . . .
33.8(30) . . .
35.0(33) . . .
30.9(30) . . .
24.0(27) . . .
32.8(33) . . .
37.2(31) . . .
46(4) . . .
33.2(30) . . .
29.5(31) . . .
40.0(34) . . .
36.2(32) . . .
36.6(31) . . .
35.2(32) . . .
42(4) . . .
36.9(34) . . .
36.9(32) . . .
34.9(31) . . .
39(4) . . .
31.5(30) . . .
34.8(31) . . .
34.3(31) . . .
33.5(33) . . .
29.1(29) . . .
36.8(33) . . .
31.6(30) . . .
33.2(30) . . .
36.1(32) . . .
35.5(32) . . .
40(4) . . .
38.0(33) . . .
42.1(34) . . .
34.9(31) . . .
31.9(29) . . .
29.5(28) . . .
41(4) . . .
38.9(33) . . .
38.0(32) . . .
35.6(31) . . .
42.4(33) . . .
38.9(33) . . .
30.5(29) . . .
36.0(32) . . .
25.9(26) . . .
31.3(28) . . .
38.6(32) . . .
47(4) . . .
38.3(34) . . .
33.1(32) . . .
31.1(29) . . .
36.4(31) . . .
35.6(31) . . .
32.0(30) . . .
33.3(32) . . .
37.3(34) . . .
32.5(29) . . .
32.6(31) . . .
35.9(32) . . .
44(4) . . .
35.6(33) . . .
32.9(30) . . .
43.2(35) . . .
30.6(30) . . .
34.7(33) . . .
32.4(30) . . .
37.9(32) . . .
39.8(33) . . .
35.6(31) . . .
43(4) . . .
31.0(30) . . .
36.4(31) . . .
33.8(32) . . .
34.6(31) . . .
36.7(31) . . .
34.1(30) . . .
28.9(28) . . .
32.0(29) . . .
45(4) . . .
34.1(34) . . .
26.5(30) . . .
33.6(30) . . .
36.0(35) . . .
36.6(33) . . .
34.0(31) . . .
44.3(35) . . .
36.5(32) . . .
30.2(29) . . .
41.0(34) . . .
41.2(33) . . .
41.2(33) . . .
38.7(32) . . .
31.4(30) . . .
31.6(30) . . .
40.7(34) . . .
32.5(30) . . .
40.1(32) . . .
39.7(35) . . .
34.9(34) . . .
31.4(30) . . .
35.0(31) . . .
36.8(32) . . .
40.1(33) . . .
43(4) . . .
34.9(33) . . .
30.7(29) . . .
38.4(34) . . .
36.5(33) . . .
33.7(31) . . .
37.9(32) . . .
40.3(33) . . .
35.4(31) . . .
34.0(33) . . .
32.8(31) . . .
33.2(30) . . .
34.1(30) . . .
31.0(29) . . .
38.3(34) . . .
42(4) . . .
35.5(31) . . .
35.9(32) . . .
40.8(35) . . .
30.3(30) . . .
34.2(32) . . .
31.7(30) . . .
43.1(34) . . .
40.2(34) . . .
30.1(29) . . .
35.7(32) . . .
41.8(35) . . .
32.3(29) . . .
32.2(31) . . .
35.9(34) . . .
37.8(33) . . .
30.5(29) . . .
39.1(33) . . .
36.8(32) . . .
40(4) . . .
40.3(35) . . .
44(4) . . .
38.6(32) . . .
47(4) . . .
34.9(31) . . .
39.3(33) . . .
39.4(33) . . .
34.5(30) . . .
34.6(31) . . .
34.8(34) . . .
32.3(30) . . .
44.4(34) . . .
36.1(31) . . .
41(4) . . .
34.0(32) . . .
40(4) . . .
34.7(30) . . .
32.2(31) . . .
42(4) . . .
29.6(27) . . .
37.9(34) . . .
41.4(34) . . .
34.5(31) . . .
34.2(33) . . .
28.1(29) . . .
35.5(33) . . .
38.0(32) . . .
35.1(31) . . .
37.3(33) . . .
35.4(32) . . .
46(4) . . .
32.3(30) . . .
44(4) . . .
31.5(30) . . .
31.2(30) . . .
28.7(30) . . .
35.9(31) . . .
37.5(32) . . .
45(4) . . .
31.5(30) . . .
31.9(30) . . .
31.6(30) . . .
39.7(33) . . .
36.9(32) . . .
32.5(31) . . .
34.7(31) . . .
35.7(31) . . .
38.7(33) . . .
32.5(32) . . .
25.5(26) . . .
28.7(28) . . .
34.7(31) . . .
41(4) . . .
41(4) . . .
38.2(34) . . .
28.8(28) . . .
30.2(29) . . .
30.3(29) . . .
40(4) . . .
41.1(34) . . .
38.5(33) . . .
37.0(32) . . .
46(4) . . .
41(4) . . .
26.8(27) . . .
39.1(32) . . .
45.9(35) . . .
42(4) . . .
41(4) . . .
38.7(35) . . .
34.4(31) . . .
34.2(31) . . .
32.3(31) . . .
38(4) . . .
30.0(29) . . .
33.7(30) . . .
31.3(31) . . .
41(4) . . .
29.6(30) . . .
33.3(31) . . .
31.6(29) . . .
30.2(30) . . .
33.2(31) . . .
32.0(31) . . .
37.8(33) . . .
36.9(32) . . .
37.6(32) . . .
32.9(31) . . .
33.1(30) . . .
42.1(35) . . .
39.8(33) . . .
38.0(33) . . .
46(4) . . .
32.3(31) . . .
41(4) . . .
35.5(31) . . .
33.7(32) . . .
31.8(33) . . .
31.9(30) . . .
36.6(32) . . .
35.5(31) . . .
32.8(31) . . .
40(4) . . .
42(4) . . .
31.3(30) . . .
27.6(27) . . .
31.6(31) . . .
26.9(29) . . .
39.1(35) . . .
35.0(31) . . .
36.5(32) . . .
34.0(31) . . .
34.6(32) . . .
36.0(31) . . .
29.3(29) . . .
30.5(30) . . .
28.0(27) . . .
42(4) . . .
30.2(29) . . .
36.6(31) . . .
32.0(30) . . .
32.4(29) . . .
42(4) . . .
38.9(33) . . .
34.4(31) . . .
31.9(29) . . .
36.4(32) . . .
37.1(33) . . .
27.9(27) . . .
39.3(33) . . .
34.2(32) . . .
22.3(26) . . .
36(4) . . .
30.5(29) . . .
38.9(33) . . .
37.7(34) . . .
30.8(32) . . .
31.0(31) . . .
43.2(35) . . .
31.8(30) . . .
37.5(33) . . .
31.4(29) . . .
33.0(30) . . .
41.2(33) . . .
37.9(32) . . .
33.8(31) . . .
39.6(33) . . .
41.5(34) . . .
45(4) . . .
39.5(33) . . .
40(4) . . .
36.5(32) . . .
36.7(32) . . .
27.4(27) . . .
30.4(29) . . .
40.0(34) . . .
34.6(33) . . .
34.7(32) . . .
43(4) . . .
40.5(33) . . .
28.6(30) . . .
31.6(32) . . .
30.3(29) . . .
31.3(29) . . .
31.4(30) . . .
37.9(33) . . .
40(4) . . .
31.9(30) . . .
32.4(29) . . .
35.1(32) . . .
31.8(31) . . .
39(4) . . .
37.4(34) . . .
39.8(33) . . .
39.9(33) . . .
31.6(29) . . .
41(4) . . .
30.9(30) . . .
44(4) . . .
35.7(31) . . .
32.0(29) . . .
35.9(32) . . .
39.5(33) . . .
37.4(32) . . .
45(4) . . .
34.2(31) . . .
35.1(33) . . .
33.6(32) . . .
38.7(32) . . .
35.9(32) . . .
35.5(32) . . .
34.5(32) . . .
38.7(33) . . .
38.2(32) . . .
34.2(31) . . .
34.0(32) . . .
35.5(32) . . .
34.0(30) . . .
45.3(35) . . .
44(4) . . .
36.5(33) . . .
34.3(32) . . .
40.3(33) . . .
32.2(29) . . .
31.6(31) . . .
33.2(31) . . .
30.0(28) . . .
30.3(29) . . .
27.2(27) . . .
30.0(32) . . .
34.9(32) . . .
37.0(32) . . .
28.1(27) . . .
29.9(29) . . .
33.8(31) . . .
36.8(33) . . .
43.2(35) . . .
42.4(35) . . .
27.5(27) . . .
29.9(33) . . .
41(4) . . .
46(4) . . .
32.6(29) . . .
30.5(29) . . .
29.4(28) . . .
35.7(33) . . .
29.2(29) . . .
31.1(29) . . .
39.8(35) . . .
46(4) . . .
37.4(33) . . .
35.2(31) . . .
39.0(32) . . .
40.1(33) . . .
32.7(30) . . .
36.2(33) . . .
39.4(34) . . .
44.0(35) . . .
47(4) . . .
35.7(33) . . .
33.0(31) . . .
30.6(30) . . .
30.8(29) . . .
27.1(28) . . .
39(4) . . .
30.0(30) . . .
34.8(31) . . .
35.9(31) . . .
37.7(34) . . .
30.1(31) . . .
36.3(34) . . .
35.5(31) . . .
38.0(32) . . .
42.6(35) . . .
38.3(34) . . .
33.8(32) . . .
35.0(31) . . .
34.7(32) . . .
33.8(31) . . .
31.9(30) . . .
32.7(31) . . .
40.9(33) . . .
31.8(29) . . .
34.2(31) . . .
38(4) . . .
28.7(29) . . .
34.0(30) . . .
41.2(33) . . .
39.4(34) . . .
35.8(33) . . .
34.2(30) . . .
41.0(33) . . .
46(4) . . .
30.0(30) . . .
29.6(31) . . .
31.6(31) . . .
36.4(32) . . .
35.5(31) . . .
35.2(32) . . .
29.0(29) . . .
34.0(31) . . .
32.1(30) . . .
34.5(30) . . .
43(4) . . .
31.0(29) . . .
36.7(32) . . .
42.2(34) . . .
34.9(32) . . .
30.0(30) . . .
36.8(34) . . .
33.8(30) . . .
32.9(30) . . .
29.4(28) . . .
28.5(29) . . .
31.1(31) . . .
27.6(28) . . .
41.8(33) . . .
38.3(34) . . .
36.6(31) . . .
37.0(33) . . .
45.1(35) . . .
39.7(33) . . .
36.8(34) . . .
30.7(31) . . .
28.8(27) . . .
34.0(30) . . .
39.2(33) . . .
34.5(32) . . .
32.9(33) . . .
25.6(27) . . .
31.0(28) . . .
32.2(30) . . .
30.4(29) . . .
35.0(32) . . .
44(4) . . .
37.1(31) . . .
40.4(33) . . .
35.4(33) . . .
32.2(32) . . .
34.2(32) . . .
38.9(32) . . .
39.5(33) . . .
35.3(31) . . .
29.8(31) . . .
32.7(33) . . .
29.5(28) . . .
31.9(31) . . .
37.4(33) . . .
41(4) . . .
38.4(34) . . .
33.7(30) . . .
43.1(34) . . .
37.2(32) . . .
38.7(35) . . .
36.1(31) . . .
38.7(32) . . .
35.0(31) . . .
37.5(31) . . .
43.5(35) . . .
46(4) . . .
33.5(31) . . .
49(4) . . .
40.1(32) . . .
35.6(32) . . .
32.2(30) . . .
42.4(34) . . .
28.9(30) . . .
28.2(29) . . .
37.7(33) . . .
38.7(32) . . .
33.3(30) . . .
30.3(28) . . .
32.3(31) . . .
31.3(30) . . .
32.8(31) . . .
35.0(31) . . .
29.9(31) . . .
25.0(27) . . .
33.6(33) . . .
27.4(27) . . .
36.8(32) . . .
32.2(31) . . .
29.6(31) . . .
37.7(33) . . .
36.9(33) . . .
37.2(32) . . .
35.8(33) . . .
41(4) . . .
43(4) . . .
35.5(31) . . .
35.8(31) . . .
34.3(32) . . .
33.9(34) . . .
33.9(31) . . .
39.0(33) . . .
30.6(30) . . .
29.2(28) . . .
36.4(32) . . .
38.9(33) . . .
39.2(33) . . .
39.9(33) . . .
22.1(27) . . .
38.3(33) . . .
40.4(35) . . .
44.9(34) . . .
43(4) . . .
37.4(33) . . .
38.2(34) . . .
36.6(32) . . .
33.2(30) . . .
37.5(33) . . .
32.0(29) . . .
38.3(34) . . .
33.7(30) . . .
25.0(26) . . .
25.8(27) . . .
31.1(30) . . .
28.6(27) . . .
31.5(29) . . .
40.3(33) . . .
46(4) . . .
38.0(34) . . .
34.4(31) . . .
32.6(31) . . .
29.0(28) . . .
32.8(30) . . .
38.5(34) . . .
32.0(31) . . .
31.1(29) . . .
38.9(33) . . .
42(4) . . .
35.5(33) . . .
35.8(33) . . .
39.0(32) . . .
28.8(29) . . .
23.7(26) . . .
31.7(32) . . .
36.9(32) . . .
41.7(34) . . .
42.2(34) . . .
32.2(30) . . .
28.1(28) . . .
29.5(29) . . .
34.4(31) . . .
39.6(34) . . .
34.0(32) . . .
34.9(33) . . .
35.9(34) . . .
24.7(26) . . .
26.5(28) . . .
36.0(34) . . .
34.3(32) . . .
30.8(30) . . .
31.1(29) . . .
38.4(35) . . .
40(4) . . .
38.7(34) . . .
34.3(31) . . .
36.2(32) . . .
34.2(31) . . .
47(4) . . .
35.0(32) . . .
39.7(34) . . .
44.5(34) . . .
41(4) . . .
46(4) . . .
39.1(33) . . .
40.4(33) . . .
38.4(33) . . .
38.1(35) . . .
32.0(32) . . .
31.2(32) . . .
37.7(32) . . .
41.1(34) . . .
43(4) . . .
33.2(29) . . .
35.3(31) . . .
28.0(28) . . .
39.9(33) . . .
38.1(33) . . .
39.5(33) . . .
41.5(34) . . .
38.7(32) . . .
30.9(28) . . .
33.0(31) . . .
39(4) . . .
32.3(32) . . .
34.5(31) . . .
30.4(29) . . .
30.1(29) . . .
33.4(33) . . .
36.3(35) . . .
28.9(28) . . .
35.4(30) . . .
30.6(29) . . .
34.8(32) . . .
47(4) . . .
32.7(30) . . .
36.5(31) . . .
43.0(35) . . .
35.9(32) . . .
35.2(33) . . .
33.8(30) . . .
30.4(29) . . .
37.9(34) . . .
38.5(35) . . .
29.5(29) . . .
32.6(30) . . .
42.3(34) . . .
31.8(31) . . .
38(4) . . .
32.1(30) . . .
47(4) . . .
45(4) . . .
35.2(33) . . .
38.8(34) . . .
43.8(35) . . .
38.8(32) . . .
50(4) . . .
42(4) . . .
32.2(32) . . .
38.2(32) . . .
41.0(33) . . .
31.7(30) . . .
37.9(35) . . .
35.3(31) . . .
41.5(34) . . .
41.6(33) . . .
35.2(32) . . .
35.8(35) . . .
35.3(32) . . .
47(4) . . .
36.7(32) . . .
33.5(32) . . .
27.7(30) . . .
38.3(35) . . .
32.6(30) . . .
39.2(32) . . .
40.8(34) . . .
35.3(33) . . .
29.5(30) . . .
29.8(29) . . .
38.7(32) . . .
32.2(29) . . .
43(4) . . .
41(4) . . .
38.8(33) . . .
38.1(33) . . .
31.5(31) . . .
31.8(31) . . .
39.0(34) . . .
36.3(32) . . .
28.1(28) . . .
29.6(28) . . .
44(4) . . .
42.0(35) . . .
37.2(32) . . .
38.6(32) . . .
44(4) . . .
42(4) . . .
32.5(30) . . .
42.4(34) . . .
38.5(34) . . .
30.0(30) . . .
38(4) . . .
43(4) . . .
38.8(33) . . .
38(4) . . .
32.5(31) . . .
42(4) . . .
36.5(31) . . .
41.3(34) . . .
43(4) . . .
29.0(29) . . .
30.2(30) . . .
32.7(30) . . .
32.7(30) . . .
28.0(29) . . .
31.9(33) . . .
45(4) . . .
37.8(32) . . .
39.9(35) . . .
33.6(32) . . .
38(4) . . .
36.3(32) . . .
32.3(30) . . .
37.5(34) . . .
42.4(35) . . .
38(4) . . .
32.1(31) . . .
27.9(28) . . .
32.8(30) . . .
35.5(34) . . .
28.7(29) . . .
39(4) . . .
36.8(31) . . .
39.9(35) . . .
41.3(33) . . .
36.9(32) . . .
29.5(28) . . .
30.2(30) . . .
32.1(30) . . .
32.6(30) . . .
39.5(34) . . .
33.2(32) . . .
35.9(32) . . .
29.2(27) . . .
32.5(29) . . .
38.7(34) . . .
33.0(32) . . .
30.6(29) . . .
37.7(34) . . .
31.2(32) . . .
37.2(33) . . .
43.4(35) . . .
30.6(29) . . .
33.1(30) . . .
36.1(32) . . .
43(4) . . .
36.8(32) . . .
38.6(33) . . .
39.3(34) . . .
37.7(32) . . .
35.2(33) . . .
29.3(28) . . .
37.5(32) . . .
35.5(31) . . .
39.1(35) . . .
34.3(31) . . .
32.9(30) . . .
38.2(32) . . .
31.4(29) . . .
38.7(35) . . .
44(4) . . .
34.5(31) . . .
40.7(33) . . .
36.4(33) . . .
31.9(29) . . .
43.1(34) . . .
27.9(27) . . .
30.4(29) . . .
33.4(32) . . .
47(4) . . .
31.1(29) . . .
35.1(31) . . .
35.6(31) . . .
38.4(34) . . .
33.9(33) . . .
32.0(31) . . .
34.6(31) . . .
30.4(30) . . .
32.0(32) . . .
34.5(32) . . .
38.7(33) . . .
37.8(32) . . .
45(4) . . .
34.6(30) . . .
36.4(33) . . .
27.3(27) . . .
33.6(31) . . .
27.2(28) . . .
33.5(33) . . .
33.0(30) . . .
45(4) . . .
39.1(33) . . .
31.0(29) . . .
37.8(32) . . .
36.0(30) . . .
32.8(30) . . .
41.7(33) . . .
35.5(32) . . .
29.2(28) . . .
29.7(30) . . .
36.3(32) . . .
30.8(29) . . .
30.0(30) . . .
32.7(32) . . .
41.0(34) . . .
37.2(31) . . .
33.6(30) . . .
33.7(32) . . .
28.4(30) . . .
34.3(32) . . .
28.9(29) . . .
42.4(34) . . .
44(4) . . .
40(4) . . .
26.4(27) . . .
27.9(28) . . .
27.3(28) . . .
35.3(32) . . .
42(4) . . .
38.3(33) . . .
38.7(32) . . .
39.7(35) . . .
37.1(33) . . .
32.6(30) . . .
34.0(31) . . .
32.9(30) . . .
32.5(30) . . .
35.2(32) . . .
39(4) . . .
29.4(30) . . .
27.0(27) . . .
38.5(33) . . .
34.8(31) . . .
33.2(29) . . .
49(4) . . .
37.8(32) . . .
29.9(30) . . .
38.4(34) . . .
31.7(32) . . .
20.5(26) . . .
30.6(29) . . .
33.3(30) . . .
35.6(33) . . .
38.0(33) . . .
31.4(30) . . .
35.9(31) . . .
35.0(31) . . .
42(4) . . .
35.5(30) . . .
33.4(31) . . .
32.4(30) . . .
37.0(32) . . .
34.1(31) . . .
24.0(26) . . .
29.2(30) . . .
31.5(30) . . .
31.1(31) . . .
36.7(33) . . .
33.9(31) . . .
31.4(29) . . .
36.9(31) . . .
29.0(28) . . .
37.8(34) . . .
35.6(31) . . .
41.1(33) . . .
30.7(28) . . .
33.6(31) . . .
34.6(34) . . .
29.8(30) . . .
33.2(30) . . .
42.9(34) . . .
40.5(33) . . .
44(4) . . .
30.6(31) . . .
33.0(30) . . .
31.2(30) . . .
32.8(30) . . .
36.3(32) . . .
36.0(32) . . .
38.5(32) . . .
47(4) . . .
43(4) . . .
41(4) . . .
40.8(34) . . .
36.1(31) . . .
35.3(31) . . .
42(4) . . .
31.7(29) . . .
45(4) . . .
38.2(32) . . .
42(4) . . .
31.0(31) . . .
32.5(33) . . .
42.3(34) . . .
35.9(31) . . .
35.0(32) . . .
36.5(33) . . .
33.2(30) . . .
31.9(30) . . .
35.4(31) . . .
44(4) . . .
41(4) . . .
37.2(34) . . .
43.4(35) . . .
42.8(34) . . .
37.9(35) . . .
33.6(33) . . .
31.0(30) . . .
35.8(31) . . .
36.1(31) . . .
36.8(33) . . .
32.8(32) . . .
32.5(29) . . .
37.1(32) . . .
36.6(31) . . .
29.8(29) . . .
45(4) . . .
40.6(35) . . .
40.2(33) . . .
38.4(33) . . .
36.2(32) . . .
32.2(31) . . .
34.7(32) . . .
37.0(33) . . .
29.7(28) . . .
44.3(35) . . .
48(4) . . .
54(4) . . .
32.9(30) . . .
31.4(30) . . .
44(4) . . .
39.5(34) . . .
37.4(35) . . .
33.6(30) . . .
33.4(30) . . .
43(4) . . .
36.2(34) . . .
36.2(34) . . .
35.4(31) . . .
31.4(29) . . .
35.5(32) . . .
38.5(35) . . .
28.8(28) . . .
38.3(33) . . .
34.4(31) . . .
38.5(34) . . .
35.6(31) . . .
31.4(29) . . .
32.5(30) . . .
33.2(32) . . .
32.0(30) . . .
35.7(32) . . .
35.3(32) . . .
39.1(32) . . .
42.3(34) . . .
33.7(31) . . .
38.3(34) . . .
31.7(30) . . .
33.2(30) . . .
34.1(31) . . .
36.0(33) . . .
33.4(31) . . .
31.4(29) . . .
41.9(34) . . .
35.3(32) . . .
29.0(30) . . .
26.7(27) . . .
29.6(30) . . .
38.6(33) . . .
41.3(33) . . .
38.9(32) . . .
36.1(32) . . .
38.5(33) . . .
32.2(30) . . .
36.5(34) . . .
34.9(33) . . .
40.1(35) . . .
26.5(27) . . .
32.6(30) . . .
44(4) . . .
33.7(34) . . .
29.9(30) . . .
43.3(34) . . .
35.8(32) . . .
42(4) . . .
37.5(33) . . .
40(4) . . .
36.8(32) . . .
39(4) . . .
34.1(33) . . .
28.9(30) . . .
30.9(29) . . .
40.3(33) . . .
30.3(30) . . .
32.2(30) . . .
38(4) . . .
35.0(34) . . .
33.8(30) . . .
32.5(32) . . .
33.3(31) . . .
37.2(33) . . .
38.2(32) . . .
39.7(33) . . .
35.1(33) . . .
31.4(32) . . .
27.6(28) . . .
30.9(29) . . .
31.5(30) . . .
44(4) . . .
41(4) . . .
34.8(33) . . .
29.5(28) . . .
36.6(31) . . .
32.8(30) . . .
38(4) . . .
45(4) . . .
41.4(33) . . .
31.4(30) . . .
29.6(31) . . .
37.7(35) . . .
36.6(31) . . .
35.1(31) . . .
33.9(30) . . .
46(4) . . .
33.4(30) . . .
35.3(33) . . .
31.1(29) . . .
35.5(31) . . .
33.5(29) . . .
35.6(33) . . .
42(4) . . .
35.6(31) . . .
37.6(33) . . .
32.6(29) . . .
36.0(32) . . .
39.8(33) . . .
29.3(28) . . .
36.7(32) . . .
33.5(31) . . .
35.5(34) . . .
42(4) . . .
41.0(34) . . .
33.1(30) . . .
40(4) . . .
28.4(31) . . .
27.2(28) . . .
40.1(33) . . .
34.3(33) . . .
38.7(34) . . .
36.0(31) . . .
32.0(31) . . .
38.7(32) . . .
33.6(31) . . .
32.8(32) . . .
36.2(32) . . .
32.6(29) . . .
31.1(29) . . .
36.2(32) . . .
39(4) . . .
24.1(27) . . .
32.7(31) . . .
35.4(31) . . .
36.7(33) . . .
29.8(30) . . .
32.4(30) . . .
36.3(32) . . .
40.4(33) . . .
36.3(33) . . .
29.5(30) . . .
36.5(33) . . .
34.6(31) . . .
34.5(30) . . .
32.9(30) . . .
32.8(31) . . .
33.0(30) . . .
36.3(31) . . .
30.5(29) . . .
34.6(31) . . .
37.8(33) . . .
37.2(33) . . .
29.8(29) . . .
37.4(33) . . .
28.8(28) . . .
34.0(30) . . .
43.4(35) . . .
36.9(32) . . .
35.7(31) . . .
33.3(29) . . .
36.6(34) . . .
32.1(30) . . .
37.8(32) . . .
40.8(34) . . .
39.0(34) . . .
36.1(32) . . .
37.3(32) . . .
39.1(32) . . .
38.8(34) . . .
35.6(32) . . .
37.2(33) . . .
41(4) . . .
31.9(29) . . .
30.5(30) . . .
36.1(34) . . .
34.4(33) . . .
26.0(26) . . .
34.1(30) . . .
37.7(33) . . .
36.8(32) . . .
40.0(32) . . .
35.1(31) . . .
32.0(29) . . .
36.7(32) . . .
34.6(33) . . .
41(4) . . .
35.7(31) . . .
28.1(27) . . .
33.2(33) . . .
38.6(35) . . .
43(4) . . .
30.0(28) . . .
39.4(33) . . .
34.8(32) . . .
41.0(35) . . .
42.7(34) . . .
37.6(32) . . .
33.2(31) . . .
31.4(33) . . .
37(4) . . .
35.4(33) . . .
35.2(31) . . .
31.3(30) . . .
34.0(33) . . .
32.5(32) . . .
39.1(34) . . .
36.6(32) . . .
36.1(33) . . .
43(4) . . .
38.7(34) . . .
31.0(30) . . .
27.7(28) . . .
48(4) . . .
31.4(28) . . .
35.7(33) . . .
28.8(28) . . .
27.7(27) . . .
21.6(24) . . .
29.5(31) . . .
32.0(31) . . .
32.8(29) . . .
32.2(30) . . .
29.8(28) . . .
45(4) . . .
36.5(32) . . .
30.4(28) . . .
37.6(32) . . .
35.2(31) . . .
30.1(29) . . .
39(4) . . .
29.4(28) . . .
37.0(31) . . .
39.4(34) . . .
38.9(35) . . .
25.9(29) . . .
29.2(28) . . .
38.9(33) . . .
35.1(32) . . .
31.1(30) . . .
40.8(34) . . .
38.1(32) . . .
39.1(34) . . .
29.0(30) . . .
33.0(31) . . .
33.6(31) . . .
34.2(30) . . .
43(4) . . .
38.8(33) . . .
41(4) . . .
33.9(30) . . .
40.6(34) . . .
34.6(30) . . .
37(4) . . .
38.1(34) . . .
29.5(28) . . .
30.3(29) . . .
42(4) . . .
42(4) . . .
27.5(30) . . .
35.4(32) . . .
37.9(32) . . .
31.6(32) . . .
41(4) . . .
37.1(32) . . .
41.6(34) . . .
44.0(35) . . .
42(4) . . .
31.1(31) . . .
35.4(34) . . .
43(4) . . .
38.3(32) . . .
32.4(30) . . .
29.8(29) . . .
30.8(30) . . .
37.8(33) . . .
40.3(33) . . .
39.0(34) . . .
46(4) . . .
37.8(33) . . .
30.4(28) . . .
35.0(31) . . .
37.2(32) . . .
32.1(32) . . .
36.4(34) . . .
38.8(32) . . .
36.3(32) . . .
48(4) . . .
39(4) . . .
40.2(33) . . .
48(4) . . .
43.5(34) . . .
37.4(33) . . .
40(4) . . .
32.9(29) . . .
34.9(30) . . .
27.0(29) . . .
39.0(34) . . .
35.6(33) . . .
47(4) . . .
40.3(33) . . .
45.6(35) . . .
39(4) . . .
32.2(30) . . .
37.6(32) . . .
42.4(34) . . .
32.1(31) . . .
37.3(33) . . .
33.3(32) . . .
25.5(29) . . .
31.0(30) . . .
38.4(34) . . .
38.5(35) . . .
36.5(34) . . .
36.2(32) . . .
34.7(31) . . .
34.8(31) . . .
40.3(34) . . .
37.3(32) . . .
33.1(31) . . .
27.5(27) . . .
38.2(33) . . .
42.3(35) . . .
39.5(33) . . .
42.0(34) . . .
33.8(30) . . .
32.2(32) . . .
36.5(34) . . .
25.2(27) . . .
33.2(31) . . .
36.2(31) . . .
38(4) . . .
43(4) . . .
44(4) . . .
31.9(30) . . .
37.7(32) . . .
34.8(34) . . .
32.1(32) . . .
39.2(33) . . .
32.0(29) . . .
41.4(34) . . .
38.1(33) . . .
37.5(34) . . .
46(4) . . .
37.1(31) . . .
30.2(29) . . .
33.7(30) . . .
41(4) . . .
38.1(34) . . .
33.1(30) . . .
35.4(31) . . .
25.9(27) . . .
25.1(27) . . .
36.1(32) . . .
37.8(32) . . .
37.1(33) . . .
33.8(32) . . .
43(4) . . .
31.8(29) . . .
36.8(32) . . .
34.3(30) . . .
39.1(34) . . .
36.5(35) . . .
48(4) . . .
36.5(32) . . .
36.7(33) . . .
38.3(33) . . .
39(4) . . .
25.4(27) . . .
36.0(31) . . .
34.6(34) . . .
38.3(34) . . .
39.3(34) . . .
36.8(33) . . .
41.6(34) . . .
39.3(33) . . .
27.6(26) . . .
35.6(33) . . .
31.8(31) . . .
30.7(29) . . .
41.0(35) . . .
35.6(31) . . .
41.2(34) . . .
30.3(29) . . .
32.6(29) . . .
39.3(33) . . .
33.9(34) . . .
36.4(35) . . .
37.7(32) . . .
28.1(29) . . .
44(4) . . .
42(4) . . .
29.3(28) . . .
44.0(34) . . .
30.2(29) . . .
35.2(32) . . .
37.0(33) . . .
34.5(30) . . .
37.7(32) . . .
38.4(34) . . .
38(4) . . .
39(4) . . .
31.6(30) . . .
33.5(30) . . .
43.9(35) . . .
38.4(32) . . .
37.9(33) . . .
33.5(33) . . .
29.2(28) . . .
34.5(32) . . .
34.2(32) . . .
31.7(32) . . .
32.8(32) . . .
36.1(31) . . .
30.6(31) . . .
33.5(31) . . .
35.8(32) . . .
35.5(32) . . .
40.5(34) . . .
39.2(33) . . .
45(4) . . .
40.2(35) . . .
41.6(33) . . .
47(4) . . .
48(4) . . .
34.7(31) . . .
42(4) . . .
36.9(32) . . .
31.2(29) . . .
34.5(32) . . .
38.0(34) . . .
39.8(35) . . .
30.0(29) . . .
33.7(30) . . .
35.5(32) . . .
38.6(35) . . .
39(4) . . .
33.0(30) . . .
36.2(31) . . .
37.8(34) . . .
29.2(31) . . .
27.1(30) . . .
27.4(27) . . .
29.8(28) . . .
30.6(30) . . .
37.7(33) . . .
39.6(33) . . .
37.4(32) . . .
30.3(28) . . .
29.1(28) . . .
32.3(29) . . .
39.1(34) . . .
41.8(34) . . .
44(4) . . .
37.8(34) . . .
35.3(33) . . .
35.1(34) . . .
33.5(31) . . .
37.4(33) . . .
38.4(33) . . .
28.5(30) . . .
26.3(27) . . .
38.4(33) . . .
29.1(28) . . .
27.5(31) . . .
33.2(32) . . .
38.5(32) . . .
31.2(29) . . .
33.9(30) . . .
32.4(30) . . .
37.4(34) . . .
34.9(31) . . .
34.0(31) . . .
35.6(31) . . .
38.1(34) . . .
44(4) . . .
34.8(31) . . .
40.0(33) . . .
30.8(33) . . .
34.2(32) . . .
35.4(30) . . .
34.4(30) . . .
34.6(31) . . .
45(4) . . .
31.3(30) . . .
32.1(30) . . .
34.3(32) . . .
38.9(32) . . .
39.4(33) . . .
40(4) . . .
35.4(33) . . .
36.5(31) . . .
34.2(32) . . .
35.2(32) . . .
29.4(29) . . .
29.2(29) . . .
31.5(30) . . .
33.8(30) . . .
32.5(30) . . .
31.5(29) . . .
40.4(34) . . .
33.9(31) . . .
34.8(31) . . .
35.0(32) . . .
38.7(33) . . .
36.7(32) . . .
32.3(29) . . .
36.2(33) . . .
33.6(32) . . .
31.9(30) . . .
38(4) . . .
35.3(31) . . .
30.9(28) . . .
33.1(32) . . .
34.9(33) . . .
27.8(28) . . .
28.9(29) . . .
31.0(30) . . .
29.2(30) . . .
37.5(34) . . .
32.3(30) . . .
44.8(35) . . .
36.7(33) . . .
33.4(32) . . .
28.5(30) . . .
31.5(30) . . .
22.9(25) . . .
28.9(28) . . .
34.4(33) . . .
36.1(34) . . .
32.4(30) . . .
33.7(30) . . .
33.0(30) . . .
35.5(33) . . .
31.0(30) . . .
29.3(29) . . .
37.8(32) . . .
31.8(30) . . .
38(4) . . .
34.3(30) . . .
38.7(33) . . .
28.9(28) . . .
28.7(28) . . .
34.0(33) . . .
41.0(34) . . .
30.7(30) . . .
25.4(26) . . .
30.0(29) . . .
36.3(34) . . .
43.9(35) . . .
34.1(31) . . .
30.3(29) . . .
26.7(28) . . .
38(4) . . .
32.3(31) . . .
29.8(28) . . .
46(4) . . .
33.3(31) . . .
26.2(28) . . .
35.0(32) . . .
47(4) . . .
34.7(31) . . .
36.8(33) . . .
37.7(34) . . .
36.3(33) . . .
28.2(28) . . .
26.5(26) . . .
33.9(30) . . .
30.7(29) . . .
29.7(28) . . .
40.2(34) . . .
30.0(29) . . .
39(4) . . .
33.3(32) . . .
32.7(30) . . .
33.6(31) . . .
29.9(30) . . .
27.0(29) . . .
40(4) . . .
27.9(27) . . .
31.2(29) . . .
38.3(33) . . .
34.1(33) . . .
34.2(32) . . .
28.7(27) . . .
31.6(30) . . .
33.4(31) . . .
37(4) . . .
31.6(30) . . .
27.6(27) . . .
32.0(29) . . .
33.7(34) . . .
34.5(34) . . .
30.7(29) . . .
31.5(30) . . .
33.7(31) . . .
37.0(35) . . .
43(4) . . .
40.3(33) . . .
29.8(29) . . .
34.3(31) . . .
33.9(32) . . .
34.6(32) . . .
34.6(31) . . .
36.4(32) . . .
32.7(30) . . .
34.7(32) . . .
41(4) . . .
34.1(31) . . .
26.8(27) . . .
38.1(33) . . .
39.6(33) . . .
34.8(32) . . .
29.4(29) . . .
31.0(29) . . .
38.9(33) . . .
35.5(31) . . .
44(4) . . .
31.1(29) . . .
39.1(32) . . .
28.4(29) . . .
36.3(34) . . .
34.9(31) . . .
40.0(33) . . .
38.7(32) . . .
40.4(34) . . .
31.4(30) . . .
26.4(27) . . .
42.7(34) . . .
39.2(33) . . .
43(4) . . .
46(4) . . .
35.0(33) . . .
33.5(30) . . .
29.9(29) . . .
34.8(32) . . .
35.4(33) . . .
30.9(29) . . .
34.3(30) . . .
31.5(29) . . .
38.7(33) . . .
35.1(34) . . .
25.3(29) . . .
37.6(32) . . .
34.5(30) . . .
29.0(29) . . .
43(4) . . .
41.5(35) . . .
34.8(31) . . .
35.7(32) . . .
39.1(34) . . .
42(4) . . .
39.6(34) . . .
27.4(27) . . .
30.1(29) . . .
33.1(29) . . .
33.7(32) . . .
39(4) . . .
30.9(29) . . .
40.7(34) . . .
39.5(32) . . .
27.5(29) . . .
30.4(31) . . .
33.0(30) . . .
41.3(35) . . .
36.3(32) . . .
40.9(35) . . .
32.2(29) . . .
36.6(32) . . .
40.8(34) . . .
32.8(31) . . .
31.2(31) . . .
40.1(34) . . .
27.4(27) . . .
32.0(32) . . .
36.5(35) . . .
39.2(35) . . .
31.6(31) . . .
36.2(32) . . .
26.1(29) . . .
34.1(34) . . .
46(4) . . .
38.0(33) . . .
41.4(33) . . .
32.6(31) . . .
37.7(35) . . .
32.2(33) . . .
35.3(30) . . .
29.8(29) . . .
30.7(31) . . .
24.7(29) . . .
28.8(29) . . .
42.5(33) . . .
40.2(34) . . .
30.5(29) . . .
38.9(35) . . .
41.3(34) . . .
35.7(31) . . .
34.2(30) . . .
35.7(33) . . .
43(4) . . .
27.8(28) . . .
37.4(33) . . .
41.5(33) . . .
37.7(32) . . .
42(4) . . .
34.4(31) . . .
32.2(29) . . .
33.3(31) . . .
34.5(31) . . .
42(4) . . .
44(4) . . .
30.6(30) . . .
31.2(29) . . .
37.5(33) . . .
33.1(31) . . .
36.8(33) . . .
36.5(32) . . .
31.1(30) . . .
33.9(32) . . .
36.6(33) . . .
40.0(34) . . .
37.8(32) . . .
41.7(34) . . .
37.5(33) . . .
36.6(32) . . .
37.5(33) . . .
33.3(31) . . .
37.7(35) . . .
36.2(33) . . .
38.8(33) . . .
31.0(30) . . .
34.9(31) . . .
34.8(32) . . .
31.0(30) . . .
44(4) . . .
35.9(32) . . .
28.2(28) . . .
30.0(30) . . .
41(4) . . .
37.5(33) . . .
34.1(31) . . .
41.6(34) . . .
36.9(33) . . .
33.9(33) . . .
33.1(31) . . .
33.5(32) . . .
34.7(31) . . .
29.8(30) . . .
38.6(35) . . .
31.1(29) . . .
34.1(30) . . .
32.2(30) . . .
32.9(31) . . .
32.7(31) . . .
31.0(30) . . .
35.8(31) . . .
35.1(31) . . .
43(4) . . .
30.0(29) . . .
35.2(33) . . .
39.1(32) . . .
41.7(34) . . .
37.1(33) . . .
30.7(31) . . .
31.0(31) . . .
31.1(29) . . .
39.8(34) . . .
35.3(31) . . .
36.5(34) . . .
41.8(34) . . .
36.1(32) . . .
26.6(27) . . .
42(4) . . .
28.5(28) . . .
33.1(30) . . .
33.2(30) . . .
29.1(29) . . .
38(4) . . .
32.0(31) . . .
30.1(28) . . .
31.5(29) . . .
37.1(33) . . .
32.9(31) . . .
31.1(28) . . .
35.2(31) . . .
34.8(31) . . .
42.1(35) . . .
40.5(34) . . .
31.3(30) . . .
35.8(31) . . .
39.1(32) . . .
41.3(35) . . .
31.2(32) . . .
28.9(27) . . .
36.0(31) . . .
36.5(31) . . .
37.3(33) . . .
32.0(32) . . .
32.9(31) . . .
35.5(31) . . .
41.8(35) . . .
32.6(31) . . .
32.3(33) . . .
38.0(34) . . .
32.4(30) . . .
28.1(27) . . .
34.5(30) . . .
37.3(33) . . .
32.8(29) . . .
30.4(29) . . .
28.3(28) . . .
30.8(30) . . .
37.8(33) . . .
35.2(31) . . .
32.7(30) . . .
38.1(33) . . .
36.5(33) . . .
30.3(29) . . .
28.9(29) . . .
27.0(27) . . .
35.3(32) . . .
30.5(30) . . .
32.1(31) . . .
43.1(34) . . .
48(4) . . .
33.4(31) . . .
36.6(34) . . .
34.9(31) . . .
38.5(32) . . .
32.7(30) . . .
30.6(30) . . .
31.8(32) . . .
32.4(31) . . .
28.1(28) . . .
30.5(28) . . .
34.2(31) . . .
39(4) . . .
34.6(32) . . .
28.9(28) . . .
35.7(31) . . .
41.1(34) . . .
34.3(33) . . .
40.0(34) . . .
42.6(35) . . .
27.0(27) . . .
35.6(33) . . .
35.2(32) . . .
36.6(33) . . .
30.4(29) . . .
31.5(28) . . .
35.9(34) . . .
31.9(33) . . .
26.6(30) . . .
38.3(32) . . .
30.1(28) . . .
37.0(33) . . .
29.8(29) . . .
32.7(30) . . .
36.4(32) . . .
37.5(32) . . .
35.5(33) . . .
35.0(31) . . .
38.7(32) . . .
39.9(33) . . .
41.4(33) . . .
34.6(31) . . .
26.0(27) . . .
41.2(34) . . .
28.4(28) . . .
33.2(30) . . .
41(4) . . .
32.9(31) . . .
40.4(34) . . .
35.2(31) . . .
36.2(34) . . .
34.1(32) . . .
37.4(33) . . .
36.0(32) . . .
28.6(28) . . .
40.9(35) . . .
41(4) . . .
35.5(33) . . .
37.7(32) . . .
30.5(29) . . .
33.8(32) . . .
35(4) . . .
33.4(30) . . .
43.5(34) . . .
40.0(34) . . .
35.8(32) . . .
42.6(35) . . .
39.4(33) . . .
37.5(33) . . .
25.5(26) . . .
30.7(31) . . .
38.2(35) . . .
37.5(33) . . .
31.1(30) . . .
35.5(31) . . .
34.3(32) . . .
27.2(28) . . .
28.2(28) . . .
35.1(31) . . .
30.2(29) . . .
36.8(33) . . .
39(4) . . .
27.1(28) . . .
36.3(32) . . .
33.6(32) . . .
30.9(32) . . .
32.1(32) . . .
30.2(31) . . .
28.2(29) . . .
31.0(29) . . .
36.4(33) . . .
38.3(34) . . .
39.1(33) . . .
31.6(29) . . .
31.1(29) . . .
38.6(34) . . .
46(4) . . .
42.5(34) . . .
26.0(27) . . .
33.8(31) . . .
34.7(32) . . .
33.8(31) . . .
41(4) . . .
40.5(33) . . .
39.6(34) . . .
33.5(32) . . .
34.5(32) . . .
41.1(33) . . .
42.7(34) . . .
46(4) . . .
30.0(30) . . .
31.6(30) . . .
33.0(30) . . .
38.0(33) . . .
36.9(33) . . .
39.6(34) . . .
36.1(31) . . .
34.3(30) . . .
31.4(29) . . .
28.0(30) . . .
28.3(31) . . .
30.9(28) . . .
43.2(34) . . .
31.3(29) . . .
30.8(30) . . .
29.3(31) . . .
36.4(33) . . .
30.7(29) . . .
36.4(32) . . .
40.0(33) . . .
35.0(33) . . .
37.6(35) . . .
29.3(28) . . .
31.4(30) . . .
31.6(30) . . .
33.3(31) . . .
33.0(30) . . .
35.8(31) . . .
32.2(30) . . .
38.5(33) . . .
41.8(35) . . .
42.5(35) . . .
40.1(33) . . .
42.1(34) . . .
40.2(34) . . .
39.4(35) . . .
29.5(29) . . .
30.8(29) . . .
36.0(31) . . .
41(4) . . .
34.2(33) . . .
42.4(34) . . .
26.6(27) . . .
29.0(31) . . .
33.4(31) . . .
38.7(34) . . .
36.5(34) . . .
28.9(28) . . .
30.3(29) . . .
32.5(32) . . .
31.8(29) . . .
44(4) . . .
28.5(29) . . .
30.3(30) . . .
29.6(31) . . .
29.3(29) . . .
33.4(31) . . .
36.1(31) . . .
33.2(33) . . .
28.0(31) . . .
33.9(33) . . .
39.2(33) . . .
32.9(30) . . .
38.1(32) . . .
33.2(31) . . .
36.5(32) . . .
38.6(32) . . .
46(4) . . .
38.8(33) . . .
37.1(33) . . .
32.7(31) . . .
28.2(28) . . .
40.6(34) . . .
29.3(29) . . .
33.5(33) . . .
30.2(32) . . .
41.8(34) . . .
43(4) . . .
43(4) . . .
35.5(33) . . .
36.1(33) . . .
45(4) . . .
30.0(29) . . .
31.5(31) . . .
27.4(28) . . .
31.9(30) . . .
27.0(27) . . .
28.5(28) . . .
38.2(35) . . .
34.6(31) . . .
32.0(31) . . .
26.5(27) . . .
30.5(29) . . .
33.6(31) . . .
33.9(31) . . .
31.8(30) . . .
36.2(31) . . .
32.3(29) . . .
42(4) . . .
40.7(34) . . .
34.7(31) . . .
31.1(29) . . .
39(4) . . .
29.1(31) . . .
30.8(30) . . .
43.7(35) . . .
38.2(32) . . .
37.4(32) . . .
34.5(33) . . .
35.3(32) . . .
40.3(33) . . .
36.6(31) . . .
41(4) . . .
33.7(33) . . .
27.5(27) . . .
31.2(29) . . .
33.8(32) . . .
28.0(30) . . .
38(4) . . .
33.0(30) . . .
36.8(31) . . .
36.7(32) . . .
44(4) . . .
37.2(33) . . .
36.2(33) . . .
40.4(33) . . .
30.1(29) . . .
32.4(30) . . .
28.0(27) . . .
34.8(31) . . .
33.5(30) . . .
30.2(29) . . .
27.9(28) . . .
35.0(33) . . .
25.6(26) . . .
29.4(29) . . .
27.4(29) . . .
30.8(31) . . .
31.1(29) . . .
33.1(31) . . .
29.4(28) . . .
30.9(30) . . .
32.2(30) . . .
42(4) . . .
37.1(32) . . .
35.1(31) . . .
36.1(32) . . .
37.1(32) . . .
38.1(33) . . .
43.7(35) . . .
38.7(32) . . .
38.3(34) . . .
35.1(33) . . .
32.7(30) . . .
37.6(32) . . .
38.6(33) . . .
35.4(34) . . .
31.0(30) . . .
32.3(31) . . .
41.3(33) . . .
37.7(32) . . .
40(4) . . .
32.4(34) . . .
36(4) . . .
33.0(31) . . .
41.9(34) . . .
33.6(33) . . .
42(4) . . .
29.4(31) . . .
30.6(29) . . .
31.3(29) . . .
36.7(33) . . .
39(4) . . .
33.0(30) . . .
46.1(35) . . .
31.9(31) . . .
32.9(32) . . .
33.7(33) . . .
32.1(30) . . .
33.1(30) . . .
24.4(26) . . .
35.4(33) . . .
41(4) . . .
33.2(32) . . .
30.0(29) . . .
37.5(32) . . .
26.0(27) . . .
38.4(34) . . .
33.6(30) . . .
35.7(31) . . .
38.7(34) . . .
30.8(31) . . .
34.0(33) . . .
28.4(28) . . .
32.8(30) . . .
32.0(30) . . .
38.9(34) . . .
45(4) . . .
41.1(34) . . .
31.4(30) . . .
33.5(31) . . .
30.7(30) . . .
40.6(35) . . .
29.7(28) . . .
43.3(35) . . .
33.6(31) . . .
34.7(32) . . .
33.7(32) . . .
41.3(33) . . .
39.0(32) . . .
33.8(31) . . .
31.1(31) . . .
35.6(33) . . .
32.1(29) . . .
33.6(30) . . .
41.3(35) . . .
46(4) . . .
36.1(32) . . .
33.3(30) . . .
30.5(29) . . .
28.7(29) . . .
32.3(31) . . .
34.2(31) . . .
34.4(31) . . .
35.5(31) . . .
37.4(33) . . .
35.1(32) . . .
32.8(30) . . .
36.6(32) . . .
34.2(31) . . .
43(4) . . .
31.7(30) . . .
28.9(29) . . .
36.9(31) . . .
35.0(33) . . .
35.3(33) . . .
33.7(32) . . .
40.2(34) . . .
34.1(31) . . .
36.1(33) . . .
34.2(32) . . .
27.7(27) . . .
31.5(30) . . .
43.3(34) . . .
29.6(31) . . .
27.8(29) . . .
30.6(28) . . .
44(4) . . .
38.6(32) . . .
39(4) . . .
32.0(32) . . .
26.1(27) . . .
27.1(28) . . .
26.8(27) . . .
37.5(33) . . .
34.7(33) . . .
32.2(30) . . .
33.3(30) . . .
38.8(33) . . .
35.7(30) . . .
39.3(34) . . .
34.0(30) . . .
33.8(30) . . .
42.6(34) . . .
45(4) . . .
37.4(35) . . .
43(4) . . .
35.8(32) . . .
35.8(32) . . .
33.5(32) . . .
33.5(30) . . .
39.9(35) . . .
35.4(31) . . .
31.1(29) . . .
37(4) . . .
30.3(31) . . .
28.5(29) . . .
34.7(31) . . .
37.4(33) . . .
30.5(30) . . .
37.1(34) . . .
33.7(30) . . .
33.5(30) . . .
37.4(32) . . .
27.8(28) . . .
28.1(30) . . .
30.8(29) . . .
37.5(32) . . .
29.5(30) . . .
35(4) . . .
32.0(31) . . .
33.3(30) . . .
30.1(29) . . .
41(4) . . .
38.9(35) . . .
39.1(35) . . .
32.3(29) . . .
34.1(30) . . .
30.5(28) . . .
33.7(32) . . .
33.8(30) . . .
31.0(29) . . .
38.1(32) . . .
30.3(29) . . .
31.6(30) . . .
35.2(32) . . .
32.0(29) . . .
35.9(31) . . .
29.9(31) . . .
33.3(33) . . .
35.7(32) . . .
32.0(30) . . .
37.8(32) . . .
46(4) . . .
33.4(31) . . .
36.4(34) . . .
48(4) . . .
35.0(31) . . .
34.9(31) . . .
40.1(34) . . .
36.9(31) . . .
34.2(30) . . .
29.0(28) . . .
40.6(33) . . .
34.9(32) . . .
45(4) . . .
39.4(34) . . .
27.6(27) . . .
35.2(34) . . .
23.2(26) . . .
35.0(32) . . .
30.4(29) . . .
32.2(31) . . .
42(4) . . .
32.8(30) . . .
28.6(29) . . .
35.1(31) . . .
36.4(32) . . .
37.1(33) . . .
34.2(31) . . .
30.0(28) . . .
41.3(34) . . .
35.8(31) . . .
34.0(31) . . .
31.2(31) . . .
30.2(30) . . .
29.7(29) . . .
40.3(34) . . .
36.7(33) . . .
35.7(31) . . .
37.3(32) . . .
42.0(33) . . .
33.6(31) . . .
36(4) . . .
32.0(30) . . .
42.0(34) . . .
31.9(30) . . .
36.6(32) . . .
25.8(28) . . .
30.0(29) . . .
32.9(30) . . .
28.6(28) . . .
27.7(28) . . .
28.6(31) . . .
34.5(33) . . .
28.7(28) . . .
35.0(31) . . .
44(4) . . .
28.0(30) . . .
29.0(30) . . .
37.4(32) . . .
44.0(34) . . .
28.7(29) . . .
33.7(33) . . .
33.1(31) . . .
39.4(32) . . .
38.8(32) . . .
32.0(30) . . .
34.2(33) . . .
34.5(32) . . .
29.6(28) . . .
34.5(32) . . .
30.6(28) . . .
33.7(30) . . .
38.5(34) . . .
36.5(32) . . .
38.1(33) . . .
26.1(27) . . .
36.4(32) . . .
34.5(31) . . .
28.8(28) . . .
32.0(30) . . .
39.6(35) . . .
33.8(34) . . .
32.5(31) . . .
40.7(33) . . .
33.3(31) . . .
28.1(28) . . .
38(4) . . .
37.7(32) . . .
30.9(29) . . .
36.8(33) . . .
31.2(31) . . .
31.7(29) . . .
39.5(33) . . .
33.1(30) . . .
33.2(30) . . .
35.7(32) . . .
33.9(32) . . .
30.7(30) . . .
32.8(31) . . .
27.6(29) . . .
34.0(33) . . .
23.9(25) . . .
32.8(30) . . .
32.2(30) . . .
36.8(35) . . .
34.6(32) . . .
43(4) . . .
45(4) . . .
23.5(25) . . .
30.8(30) . . .
29.4(29) . . .
30.4(29) . . .
37.1(32) . . .
39.5(34) . . .
24.8(25) . . .
45(4) . . .
28.7(28) . . .
29.9(28) . . .
28.2(29) . . .
34.6(30) . . .
44(4) . . .
35.2(32) . . .
35.4(31) . . .
34.4(30) . . .
33.3(33) . . .
34.0(33) . . .
27.8(27) . . .
34.4(30) . . .
25.9(26) . . .
32.0(29) . . .
34.2(31) . . .
45(4) . . .
37.3(31) . . .
34.3(33) . . .
32.5(34) . . .
21.0(24) . . .
34.7(31) . . .
42.4(34) . . .
32.3(29) . . .
44(4) . . .
36.1(32) . . .
37.4(32) . . .
36.3(31) . . .
45(4) . . .
39.8(35) . . .
35.8(33) . . .
32.1(29) . . .
39.3(32) . . .
34.3(31) . . .
37.3(34) . . .
33.2(30) . . .
29.0(29) . . .
29.0(28) . . .
26.6(27) . . .
27.1(28) . . .
31.5(29) . . .
39.5(34) . . .
38.3(32) . . .
39.2(33) . . .
30.1(28) . . .
27.4(27) . . .
40.5(33) . . .
33.8(30) . . .
35.6(32) . . .
30.1(31) . . .
37(4) . . .
34.3(31) . . .
30.8(32) . . .
25.9(28) . . .
32.3(32) . . .
28.1(28) . . .
36.3(32) . . .
30.2(29) . . .
37.1(35) . . .
44(4) . . .
35.0(31) . . .
39.6(33) . . .
27.5(27) . . .
39.2(34) . . .
32.2(29) . . .
40.2(33) . . .
34.7(31) . . .
28.6(30) . . .
25.2(27) . . .
37.1(33) . . .
30.9(30) . . .
33.0(30) . . .
39.4(34) . . .
32.6(31) . . .
37.8(33) . . .
37.5(32) . . .
33.8(31) . . .
32.3(31) . . .
28.9(30) . . .
34.8(32) . . .
30.4(29) . . .
32.3(30) . . .
26.9(28) . . .
29.1(32) . . .
31.0(31) . . .
30.6(30) . . .
31.8(29) . . .
35.0(33) . . .
37.2(35) . . .
38.3(34) . . .
40.4(34) . . .
40.9(34) . . .
34.4(32) . . .
28.1(29) . . .
35.1(32) . . .
28.0(28) . . .
28.1(28) . . .
32.4(31) . . .
31.5(31) . . .
40(4) . . .
45.0(34) . . .
34.2(31) . . .
38.7(34) . . .
41(4) . . .
32.8(31) . . .
32.3(30) . . .
31.2(29) . . .
32.4(30) . . .
31.5(31) . . .
31.9(31) . . .
35.7(31) . . .
30.5(29) . . .
31.5(30) . . .
29.9(29) . . .
37.5(33) . . .
36.9(31) . . .
32.8(31) . . .
38.2(35) . . .
32.3(31) . . .
31.0(30) . . .
36.8(31) . . .
35.2(33) . . .
42(4) . . .
33.8(30) . . .
32.9(29) . . .
35.1(31) . . .
36.9(32) . . .
36.0(32) . . .
39.3(34) . . .
37.7(33) . . .
39.2(33) . . .
43.0(34) . . .
39.8(35) . . .
32.9(32) . . .
38.4(32) . . .
36.4(32) . . .
36.2(33) . . .
27.4(32) . . .
31.9(30) . . .
39.6(33) . . .
33.8(31) . . .
31.1(29) . . .
29.8(30) . . .
31.3(32) . . .
30.9(29) . . .
28.5(28) . . .
26.3(30) . . .
27.7(30) . . .
30.5(30) . . .
27.1(27) . . .
37.2(34) . . .
25.6(27) . . .
27.7(29) . . .
37.8(34) . . .
33.3(31) . . .
34.4(30) . . .
40(4) . . .
36.2(35) . . .
29.7(29) . . .
39.2(33) . . .
35.4(31) . . .
35.4(32) . . .
31.7(29) . . .
33.2(30) . . .
36.5(31) . . .
42.5(34) . . .
31.0(30) . . .
31.8(32) . . .
28.9(28) . . .
36.0(32) . . .
24.9(26) . . .
29.2(28) . . .
40.5(34) . . .
33.0(30) . . .
38.7(33) . . .
34.9(32) . . .
34.5(34) . . .
36.5(32) . . .
26.9(27) . . .
28.5(28) . . .
28.4(29) . . .
28.7(30) . . .
35.2(34) . . .
35.2(31) . . .
36.9(31) . . .
34.6(31) . . .
34.3(32) . . .
39.9(33) . . .
36.2(32) . . .
32.5(30) . . .
43(4) . . .
27.3(29) . . .
30.7(30) . . .
23.8(26) . . .
29.9(28) . . .
42.9(35) . . .
29.6(27) . . .
35.8(32) . . .
35.7(31) . . .
42.0(34) . . .
35.6(31) . . .
34.8(32) . . .
28.5(29) . . .
38.8(33) . . .
33.0(30) . . .
32.6(31) . . .
38.3(35) . . .
37.0(31) . . .
32.2(30) . . .
43(4) . . .
27.5(27) . . .
40(4) . . .
32.2(29) . . .
36.0(31) . . .
33.0(32) . . .
32.5(31) . . .
36.4(34) . . .
29.7(29) . . .
37.8(32) . . .
31.0(30) . . .
31.1(30) . . .
31.7(29) . . .
31.2(29) . . .
38.6(32) . . .
41.5(35) . . .
29.5(29) . . .
36.0(32) . . .
41.1(34) . . .
29.3(28) . . .
33.7(31) . . .
36.4(35) . . .
26.2(29) . . .
33.4(30) . . .
34.0(31) . . .
39.0(33) . . .
26.9(27) . . .
30.5(29) . . .
28.2(28) . . .
42.3(34) . . .
32.0(30) . . .
33.3(34) . . .
34.0(32) . . .
42.8(34) . . .
34.4(31) . . .
33.2(31) . . .
31.1(30) . . .
34.5(32) . . .
27.5(27) . . .
29.6(28) . . .
33.1(32) . . .
28.8(31) . . .
30.4(30) . . .
27.4(27) . . .
33.8(31) . . .
24.4(27) . . .
33.4(32) . . .
30.4(30) . . .
29.7(28) . . .
36.6(32) . . .
39.3(34) . . .
29.0(27) . . .
36.7(32) . . .
33.0(29) . . .
37.2(33) . . .
35.2(31) . . .
37.0(32) . . .
42(4) . . .
33.3(30) . . .
32.7(31) . . .
31.7(29) . . .
32.3(33) . . .
31.1(29) . . .
35.4(32) . . .
49(4) . . .
39(4) . . .
29.0(29) . . .
30.9(29) . . .
35.8(31) . . .
38.6(34) . . .
35.1(33) . . .
28.0(29) . . .
25.3(27) . . .
35.7(32) . . .
31.4(30) . . .
34.5(33) . . .
36.3(32) . . .
37.7(33) . . .
33.6(31) . . .
44(4) . . .
34.3(31) . . .
38.2(34) . . .
41.8(33) . . .
40.5(34) . . .
28.5(28) . . .
34.3(32) . . .
41.6(34) . . .
39.5(33) . . .
29.4(28) . . .
41(4) . . .
30.9(31) . . .
33.9(33) . . .
35.8(32) . . .
44(4) . . .
23.9(24) . . .
35.2(34) . . .
32.8(31) . . .
26.5(27) . . .
38.5(33) . . .
40.6(34) . . .
31.0(30) . . .
35.3(31) . . .
34.4(30) . . .
28.6(28) . . .
39(4) . . .
35.3(32) . . .
36.6(33) . . .
42.5(34) . . .
35.5(32) . . .
36.2(33) . . .
32.8(31) . . .
27.1(27) . . .
37.9(32) . . .
34.9(33) . . .
31.6(32) . . .
35.0(33) . . .
38.9(33) . . .
31.9(29) . . .
36.9(32) . . .
28.7(29) . . .
33(4) . . .
34.5(31) . . .
38.9(34) . . .
33.8(32) . . .
38.3(34) . . .
33.9(31) . . .
35.5(31) . . .
34.3(31) . . .
32.9(30) . . .
39(4) . . .
31.4(31) . . .
30.1(28) . . .
29.3(29) . . .
42(4) . . .
35.6(31) . . .
36.9(32) . . .
26.9(27) . . .
37.6(32) . . .
36.8(31) . . .
33.6(30) . . .
31.4(30) . . .
34.0(30) . . .
34.9(33) . . .
29.4(29) . . .
29.1(29) . . .
37.4(32) . . .
38.7(33) . . .
39.3(35) . . .
32.1(28) . . .
35.3(31) . . .
33.5(31) . . .
32.5(30) . . .
39.3(35) . . .
27.8(26) . . .
34.5(32) . . .
40.2(34) . . .
42.7(34) . . .
38.5(35) . . .
44(4) . . .
27.6(27) . . .
31.7(31) . . .
30.4(29) . . .
43(4) . . .
35.6(33) . . .
41.3(35) . . .
25.4(27) . . .
33.5(30) . . .
26.5(27) . . .
28.7(31) . . .
31.9(30) . . .
28.4(28) . . .
30.9(29) . . .
27.6(27) . . .
38.5(32) . . .
38.3(33) . . .
40.6(33) . . .
30.6(29) . . .
35.5(35) . . .
40(4) . . .
37.1(32) . . .
31.3(29) . . .
41.3(34) . . .
37.7(34) . . .
40(4) . . .
34.9(33) . . .
32.5(30) . . .
41.7(33) . . .
38.7(35) . . .
36.8(33) . . .
33.2(33) . . .
29.3(29) . . .
38.7(34) . . .
34.3(31) . . .
41.7(35) . . .
40(4) . . .
37.1(31) . . .
36.6(33) . . .
31.1(30) . . .
30.8(31) . . .
38.3(33) . . .
33.8(30) . . .
35.3(32) . . .
32.3(31) . . .
33.3(31) . . .
39.7(35) . . .
39.1(33) . . .
34.4(30) . . .
40.6(35) . . .
35.7(32) . . .
25.8(27) . . .
36.3(31) . . .
31.2(29) . . .
39.7(34) . . .
32.9(30) . . .
37.8(32) . . .
36.2(32) . . .
36.6(31) . . .
27.5(28) . . .
35.4(32) . . .
29.4(28) . . .
31.5(29) . . .
41(4) . . .
39(4) . . .
39(4) . . .
31.8(30) . . .
34.0(30) . . .
37.3(33) . . .
32.4(31) . . .
33.8(32) . . .
36.9(31) . . .
39.9(34) . . .
42(4) . . .
31.9(31) . . .
33.3(31) . . .
37.5(32) . . .
37.6(32) . . .
30.6(29) . . .
31.5(31) . . .
28.9(28) . . .
32.6(29) . . .
33.6(30) . . .
26.9(27) . . .
43(4) . . .
37(4) . . .
37.5(32) . . .
38.1(33) . . .
34.1(29) . . .
37.8(34) . . .
37.3(33) . . .
31.8(29) . . .
37.3(34) . . .
33.9(31) . . .
32.6(30) . . .
31.4(29) . . .
35.0(31) . . .
24.4(26) . . .
33.7(33) . . .
33.8(32) . . .
36.3(32) . . .
38.8(33) . . .
36.7(33) . . .
38.9(35) . . .
37.0(33) . . .
29.6(28) . . .
35.5(32) . . .
41(4) . . .
38.2(34) . . .
31.5(30) . . .
35.0(31) . . .
42.2(34) . . .
40.4(34) . . .
35.8(32) . . .
41(4) . . .
38.9(34) . . .
36.5(31) . . .
30.5(29) . . .
38.3(34) . . .
29.2(29) . . .
25.4(26) . . .
36.6(32) . . .
32.3(30) . . .
35.4(33) . . .
44(4) . . .
31.8(30) . . .
35.9(31) . . .
27.6(28) . . .
35.4(35) . . .
38.3(34) . . .
38.6(33) . . .
33.0(30) . . .
40(4) . . .
35.1(33) . . .
34.5(31) . . .
26.3(27) . . .
35.5(33) . . .
28.9(30) . . .
36.1(32) . . .
36.7(32) . . .
29.4(29) . . .
33.1(33) . . .
37.9(33) . . .
36.6(32) . . .
32.4(32) . . .
24.8(26) . . .
33.0(30) . . .
34.0(32) . . .
29.0(30) . . .
31.7(29) . . .
29.4(28) . . .
34.5(32) . . .
29.9(29) . . .
34.0(33) . . .
26.2(27) . . .
23.5(25) . . .
33.7(31) . . .
34.9(34) . . .
32.6(34) . . .
36.0(32) . . .
36.0(31) . . .
28.2(29) . . .
41(4) . . .
31.2(29) . . .
40.4(33) . . .
36.9(31) . . .
32.7(30) . . .
45(4) . . .
39.1(34) . . .
41.4(34) . . .
38.6(33) . . .
36.5(33) . . .
35.3(35) . . .
34.2(31) . . .
34.0(30) . . .
35.5(31) . . .
32.4(30) . . .
42(4) . . .
33.6(30) . . .
42.1(33) . . .
36.8(33) . . .
33.6(30) . . .
35.7(32) . . .
37.9(33) . . .
38.0(32) . . .
41.6(35) . . .
29.2(29) . . .
31.4(31) . . .
35.9(31) . . .
35.7(31) . . .
34.0(31) . . .
35.5(32) . . .
39(4) . . .
38(4) . . .
36.5(32) . . .
35.0(31) . . .
37(4) . . .
31.2(32) . . .
32.2(31) . . .
37.3(32) . . .
33.6(31) . . .
45(4) . . .
33.8(33) . . .
32.8(31) . . .
30.7(29) . . .
30.4(29) . . .
32.5(30) . . .
32.0(30) . . .
30.7(29) . . .
27.7(28) . . .
38.9(34) . . .
36.1(35) . . .
35.5(31) . . .
36.3(32) . . .
35.7(32) . . .
43(4) . . .
35.1(34) . . .
30.8(30) . . .
33.0(31) . . .
34.4(30) . . .
32.5(31) . . .
39(4) . . .
32.4(29) . . .
39.1(32) . . .
29.6(29) . . .
34.3(31) . . .
41.0(34) . . .
34.0(31) . . .
34.6(30) . . .
28.8(28) . . .
31.5(30) . . .
34.2(33) . . .
36.1(31) . . .
44.3(35) . . .
30.2(29) . . .
34.9(33) . . .
30.8(31) . . .
29.8(28) . . .
32.6(30) . . .
31.3(30) . . .
41(4) . . .
34.9(32) . . .
40(4) . . .
39.0(32) . . .
31.7(30) . . .
36.3(33) . . .
32.3(31) . . .
34.1(32) . . .
34.0(31) . . .
33.9(31) . . .
31.0(29) . . .
37.5(33) . . .
45(4) . . .
34.8(31) . . .
29.6(30) . . .
31.7(30) . . .
38.0(33) . . .
35.0(33) . . .
33.6(31) . . .
35.7(34) . . .
38(4) . . .
33.4(30) . . .
33.7(31) . . .
40.3(34) . . .
36.1(31) . . .
33.8(33) . . .
27.2(27) . . .
43.2(34) . . .
33.4(30) . . .
28.9(28) . . .
32.6(31) . . .
38.0(34) . . .
32.1(31) . . .
36.2(31) . . .
36.9(33) . . .
36.4(33) . . .
30.0(29) . . .
23.3(26) . . .
36.1(31) . . .
42.2(34) . . .
34.5(31) . . .
30.1(29) . . .
37.3(32) . . .
24.1(25) . . .
40.2(35) . . .
31.5(30) . . .
33.5(32) . . .
29.2(28) . . .
47(4) . . .
30.5(32) . . .
31.4(33) . . .
34.8(31) . . .
37.6(32) . . .
37.8(33) . . .
30.2(29) . . .
30.2(29) . . .
38.8(33) . . .
30.8(29) . . .
35.3(32) . . .
36.7(34) . . .
27.1(27) . . .
36.0(32) . . .
33.0(30) . . .
30.5(30) . . .
31.3(31) . . .
30.9(29) . . .
32.4(29) . . .
33.7(31) . . .
37(4) . . .
39.7(34) . . .
37.0(33) . . .
29.8(29) . . .
32.6(31) . . .
35.5(32) . . .
37.7(31) . . .
39.5(32) . . .
36.9(31) . . .
36.1(32) . . .
32.9(31) . . .
29.9(29) . . .
35(4) . . .
28.9(29) . . .
30.3(29) . . .
46(4) . . .
31.8(30) . . .
34.0(32) . . .
42.5(33) . . .
34.5(31) . . .
28.7(30) . . .
32.3(32) . . .
27.6(28) . . .
34.0(30) . . .
32.9(31) . . .
42.4(35) . . .
33.9(30) . . .
30.1(29) . . .
31.9(30) . . .
35.3(31) . . .
35.2(32) . . .
34.7(30) . . .
38.1(33) . . .
30.7(29) . . .
33.7(32) . . .
35.7(33) . . .
35.9(32) . . .
32.5(30) . . .
25.9(26) . . .
36.0(32) . . .
27.6(27) . . .
44(4) . . .
30.2(28) . . .
35.8(31) . . .
43(4) . . .
41.0(34) . . .
30.8(29) . . .
40.8(34) . . .
37.2(32) . . .
26.9(26) . . .
33.7(32) . . .
28.1(27) . . .
35.4(32) . . .
34.0(30) . . .
36.3(32) . . .
33.7(31) . . .
30.4(28) . . .
33.8(33) . . .
33.3(30) . . .
28.8(28) . . .
29.5(31) . . .
31.9(31) . . .
32.4(30) . . .
43.9(34) . . .
35.9(31) . . .
26.8(28) . . .
41.7(34) . . .
26.3(27) . . .
32.0(30) . . .
32.6(31) . . .
31.4(31) . . .
27.1(27) . . .
29.0(28) . . .
27.0(28) . . .
27.3(28) . . .
32.5(34) . . .
34.2(34) . . .
37.5(32) . . .
29.7(28) . . .
33.1(34) . . .
32.6(32) . . .
31.9(29) . . .
32.5(29) . . .
32.7(30) . . .
33.4(31) . . .
36.0(33) . . .
35.7(33) . . .
33.2(31) . . .
35.8(33) . . .
34.9(35) . . .
36.4(33) . . .
31.6(29) . . .
35.1(32) . . .
30.5(30) . . .
29.6(30) . . .
28.8(29) . . .
36.8(34) . . .
32.0(29) . . .
35.0(32) . . .
33.2(32) . . .
36.6(34) . . .
32.1(29) . . .
29.9(28) . . .
29.0(29) . . .
27.8(29) . . .
35.4(33) . . .
36.6(32) . . .
30.7(29) . . .
42(4) . . .
39.1(35) . . .
36.0(33) . . .
33.1(30) . . .
32.1(30) . . .
35.8(32) . . .
33.2(34) . . .
27.5(28) . . .
41.3(35) . . .
36.3(32) . . .
34.9(31) . . .
36.7(34) . . .
36.3(32) . . .
40.2(33) . . .
36.2(32) . . .
33.5(31) . . .
30.5(30) . . .
28.4(29) . . .
33.5(30) . . .
33.7(32) . . .
32.4(31) . . .
28.9(29) . . .
37.5(35) . . .
41.8(33) . . .
37.2(33) . . .
33.8(33) . . .
35.1(32) . . .
33.1(32) . . .
40.3(33) . . .
33.2(30) . . .
37.4(34) . . .
31.5(30) . . .
29.6(30) . . .
33.4(30) . . .
32.2(30) . . .
27.0(26) . . .
33.6(32) . . .
28.1(27) . . .
33.0(30) . . .
31.8(31) . . .
34.9(31) . . .
42(4) . . .
32.0(30) . . .
35.9(31) . . .
41(4) . . .
28.7(28) . . .
36.5(34) . . .
33.5(30) . . .
33.6(30) . . .
35.1(32) . . .
37.4(34) . . .
40.5(35) . . .
34.1(30) . . .
34.0(32) . . .
34.6(31) . . .
35(4) . . .
34.5(32) . . .
28.0(28) . . .
33.1(30) . . .
38.2(34) . . .
34.9(33) . . .
29.5(30) . . .
32.4(29) . . .
26.2(27) . . .
33.4(31) . . .
34.2(33) . . .
32.2(31) . . .
34.3(31) . . .
33.2(30) . . .
36.8(34) . . .
33.0(31) . . .
44(4) . . .
37.8(33) . . .
35.4(31) . . .
28.6(29) . . .
28.4(29) . . .
27.3(27) . . .
32.3(30) . . .
39.1(35) . . .
34.5(33) . . .
27.6(27) . . .
36.1(34) . . .
35.9(32) . . .
36.6(32) . . .
25.7(28) . . .
29.6(32) . . .
34.7(32) . . .
36.9(32) . . .
33.9(31) . . .
31.2(31) . . .
28.7(30) . . .
30.1(30) . . .
24.0(25) . . .
27.3(30) . . .
34.0(32) . . .
33.6(31) . . .
29.6(30) . . .
34.4(31) . . .
39.1(34) . . .
33.7(32) . . .
33.1(30) . . .
43.3(34) . . .
35.7(32) . . .
29.5(28) . . .
30.9(32) . . .
31.7(30) . . .
31.9(30) . . .
32.6(30) . . .
32.3(30) . . .
30.1(29) . . .
35.3(32) . . .
34.0(30) . . .
34.3(30) . . .
34.6(32) . . .
36.1(32) . . .
39.8(33) . . .
34.7(31) . . .
35.7(31) . . .
38.6(34) . . .
24.7(28) . . .
32.3(32) . . .
35.7(31) . . .
30.8(31) . . .
30.0(30) . . .
36.1(33) . . .
35.7(33) . . .
26.8(28) . . .
26.1(27) . . .
38.4(33) . . .
35.2(31) . . .
38.1(32) . . .
29.0(29) . . .
38.1(33) . . .
31.2(30) . . .
28.9(29) . . .
36.4(32) . . .
40.8(33) . . .
34.8(33) . . .
36.7(33) . . .
35.1(32) . . .
32.7(30) . . .
28.6(28) . . .
34.1(31) . . .
38.3(34) . . .
38.0(32) . . .
36.6(31) . . .
34.2(30) . . .
38.3(33) . . .
28.9(30) . . .
33.6(31) . . .
33.7(30) . . .
37.7(33) . . .
30.5(31) . . .
25.9(28) . . .
39.7(33) . . .
41.1(34) . . .
38.4(32) . . .
39.2(33) . . .
33.5(33) . . .
33.5(32) . . .
27.0(27) . . .
34.1(31) . . .
37.7(32) . . .
36.8(32) . . .
39.9(33) . . .
34.7(31) . . .
38.9(33) . . .
32.2(31) . . .
38(4) . . .
35.7(32) . . .
40.9(33) . . .
36.6(31) . . .
34.6(32) . . .
35.3(34) . . .
38.8(34) . . .
28.4(28) . . .
27.5(27) . . .
28.3(28) . . .
26.9(29) . . .
31.3(29) . . .
26.8(27) . . .
36.4(33) . . .
32.7(31) . . .
26.2(28) . . .
27.5(27) . . .
29.5(28) . . .
34.6(33) . . .
34.2(33) . . .
37.3(34) . . .
32.3(30) . . .
30.3(29) . . .
34.0(31) . . .
38.1(34) . . .
32.0(29) . . .
32.2(29) . . .
27.5(27) . . .
41(4) . . .
32.3(31) . . .
40(4) . . .
37.9(32) . . .
36.9(32) . . .
32.9(34) . . .
32.2(32) . . .
28.2(29) . . .
38.6(33) . . .
28.6(28) . . .
26.2(27) . . .
36.6(35) . . .
39.7(34) . . .
33.1(30) . . .
36.0(32) . . .
35.3(31) . . .
35.8(32) . . .
41.2(33) . . .
37.1(32) . . .
36.4(32) . . .
36.5(33) . . .
30.1(30) . . .
31.9(30) . . .
33.3(30) . . .
34.2(30) . . .
37.4(34) . . .
36.5(34) . . .
36.0(32) . . .
30.5(29) . . .
29.6(29) . . .
25.6(26) . . .
44(4) . . .
31.3(30) . . .
35.9(31) . . .
29.0(28) . . .
33.0(31) . . .
43(4) . . .
34.3(32) . . .
32.2(30) . . .
37.5(34) . . .
32.6(31) . . .
32.7(30) . . .
31.0(30) . . .
28.0(27) . . .
24.9(26) . . .
38(4) . . .
38.3(33) . . .
39.7(33) . . .
34.6(31) . . .
38.9(34) . . .
38(4) . . .
35.1(32) . . .
34.2(30) . . .
35.0(30) . . .
33(4) . . .
42(4) . . .
38.9(34) . . .
24.8(26) . . .
34.1(30) . . .
33.1(31) . . .
33.3(35) . . .
34.3(33) . . .
36.6(32) . . .
31.1(29) . . .
29.3(29) . . .
28.5(29) . . .
30.3(29) . . .
36.1(31) . . .
35.0(32) . . .
40(4) . . .
41(4) . . .
32.8(32) . . .
34.1(31) . . .
24.5(25) . . .
31.6(30) . . .
37(4) . . .
28.4(30) . . .
39.3(33) . . .
32.3(30) . . .
26.1(27) . . .
38.1(35) . . .
32.3(31) . . .
26.0(26) . . .
32.0(30) . . .
39.5(35) . . .
27.9(28) . . .
35.6(32) . . .
35.8(31) . . .
26.5(27) . . .
30.9(31) . . .
41.6(35) . . .
31.9(30) . . .
48(4) . . .
39.3(34) . . .
41.0(35) . . .
30.4(29) . . .
40.2(33) . . .
35.7(32) . . .
37.7(32) . . .
32.9(30) . . .
31.5(29) . . .
44(4) . . .
27.5(27) . . .
35.9(33) . . .
39.6(34) . . .
33.9(31) . . .
34.5(32) . . .
32.0(29) . . .
32.0(30) . . .
36.4(35) . . .
38.1(35) . . .
32.6(31) . . .
31.7(29) . . .
35.2(31) . . .
39(4) . . .
37.0(33) . . .
40.2(33) . . .
27.2(27) . . .
32.2(32) . . .
34.0(34) . . .
26.5(28) . . .
29.0(28) . . .
30.6(29) . . .
29.4(30) . . .
37(4) . . .
37.1(32) . . .
31.5(29) . . .
38.3(32) . . .
44(4) . . .
28.3(30) . . .
29.1(30) . . .
33.5(30) . . .
36.5(32) . . .
41(4) . . .
34.7(31) . . .
38.8(33) . . .
41.2(33) . . .
41(4) . . .
31.8(31) . . .
24.9(26) . . .
33.3(32) . . .
31.9(29) . . .
37.1(32) . . .
34.7(31) . . .
42.1(35) . . .
35.8(32) . . .
35.6(31) . . .
37.2(34) . . .
36.7(34) . . .
28.4(28) . . .
36.3(32) . . .
42.2(34) . . .
34.6(31) . . .
31.3(31) . . .
28.5(28) . . .
30.0(28) . . .
38.8(33) . . .
32.0(30) . . .
31.4(30) . . .
31.4(29) . . .
37.4(33) . . .
33.5(30) . . .
31.2(30) . . .
29.5(30) . . .
38.5(34) . . .
30.8(28) . . .
34.8(31) . . .
32.2(29) . . .
35.8(34) . . .
37.1(33) . . .
29.9(28) . . .
34.9(32) . . .
35.9(33) . . .
39(4) . . .
33.4(31) . . .
47(4) . . .
35.7(31) . . .
39(4) . . .
29.6(32) . . .
37.2(33) . . .
34.8(31) . . .
25.8(28) . . .
43(4) . . .
33.7(32) . . .
34.2(31) . . .
37.7(32) . . .
28.2(28) . . .
32.8(33) . . .
34.7(35) . . .
35.8(34) . . .
37.2(31) . . .
33.4(31) . . .
35.1(33) . . .
30.4(30) . . .
27.7(28) . . .
33.8(31) . . .
41.0(35) . . .
32.3(31) . . .
33.2(31) . . .
34.8(31) . . .
31.4(30) . . .
35.1(31) . . .
38.9(35) . . .
43.5(35) . . .
37.5(31) . . .
35.8(32) . . .
29.0(28) . . .
35.4(32) . . .
43(4) . . .
22.2(24) . . .
28.8(28) . . .
31.5(31) . . .
30.5(31) . . .
40.1(34) . . .
36.0(32) . . .
39.9(34) . . .
35.2(31) . . .
31.6(32) . . .
35.8(33) . . .
30.0(29) . . .
39.9(33) . . .
29.9(28) . . .
37.2(33) . . .
37.0(32) . . .
39.8(33) . . .
36.6(31) . . .
32.1(29) . . .
38.1(35) . . .
26.4(27) . . .
32.4(30) . . .
38.4(32) . . .
37.1(34) . . .
28.8(29) . . .
28.4(29) . . .
31.2(29) . . .
28.8(29) . . .
26.0(27) . . .
43(4) . . .
39.2(34) . . .
32.0(30) . . .
31.7(29) . . .
36.8(33) . . .
34.3(33) . . .
33.5(31) . . .
31.5(29) . . .
34.0(32) . . .
37(4) . . .
34.8(33) . . .
31.5(31) . . .
36.8(32) . . .
37.7(33) . . .
32.2(32) . . .
37.0(33) . . .
38.5(33) . . .
35.3(31) . . .
29.6(31) . . .
36(4) . . .
30.7(31) . . .
28.3(27) . . .
37.3(32) . . .
43(4) . . .
34.6(33) . . .
33.1(31) . . .
31.5(29) . . .
32.7(29) . . .
29.2(28) . . .
28.3(29) . . .
33.8(31) . . .
35.6(31) . . .
32.5(30) . . .
36(4) . . .
38(4) . . .
30.8(30) . . .
36.2(32) . . .
39.3(32) . . .
47(4) . . .
31.9(33) . . .
29.8(32) . . .
28.0(28) . . .
31.6(29) . . .
42.0(35) . . .
34.7(31) . . .
35.9(31) . . .
40.7(33) . . .
27.7(27) . . .
29.3(28) . . .
35.8(34) . . .
33.3(30) . . .
41.8(34) . . .
32.9(30) . . .
39.7(34) . . .
35.6(32) . . .
27.3(27) . . .
38.2(33) . . .
31.6(31) . . .
33.0(32) . . .
41.1(34) . . .
45(4) . . .
29.4(30) . . .
31.1(30) . . .
31.9(33) . . .
36.1(33) . . .
37.8(32) . . .
37.3(33) . . .
41.6(35) . . .
31.9(31) . . .
40.1(34) . . .
33.2(30) . . .
30.1(29) . . .
30.6(29) . . .
40(4) . . .
33.8(32) . . .
32.8(30) . . .
31.7(30) . . .
31.1(29) . . .
36.6(35) . . .
31.6(29) . . .
36.8(32) . . .
32.7(30) . . .
32.6(30) . . .
31.7(30) . . .
28.6(29) . . .
32.6(30) . . .
35.0(31) . . .
31.0(29) . . .
35.9(32) . . .
30.7(30) . . .
33.4(30) . . .
32.8(30) . . .
38.6(34) . . .
38.4(35) . . .
34.9(31) . . .
30.5(29) . . .
30.5(30) . . .
32.9(30) . . .
36.8(35) . . .
33.1(30) . . .
37.6(33) . . .
36.2(32) . . .
31.8(31) . . .
44(4) . . .
32.7(30) . . .
35.1(31) . . .
38.5(33) . . .
34.2(31) . . .
25.6(28) . . .
34.7(31) . . .
37.5(33) . . .
24.2(26) . . .
35.3(35) . . .
30.8(29) . . .
29.2(30) . . .
36.9(31) . . .
34.0(32) . . .
35.6(34) . . .
25.0(27) . . .
27.7(28) . . .
30.1(29) . . .
35.6(32) . . .
39(4) . . .
33.5(30) . . .
36.8(33) . . .
33.6(30) . . .
41(4) . . .
32.3(32) . . .
35.0(31) . . .
36.9(31) . . .
26.6(26) . . .
32.1(29) . . .
38.3(34) . . .
33.0(31) . . .
32.7(30) . . .
33.5(31) . . .
26.7(29) . . .
32.1(31) . . .
23.6(25) . . .
37.2(31) . . .
29.3(29) . . .
35.3(32) . . .
35.2(31) . . .
29.8(29) . . .
38.4(32) . . .
36.0(32) . . .
37.2(33) . . .
34.2(32) . . .
30.0(29) . . .
36.5(32) . . .
38.6(33) . . .
36.9(31) . . .
36.0(31) . . .
39.3(33) . . .
36.8(32) . . .
32.0(29) . . .
33.0(32) . . .
34.1(32) . . .
38.2(33) . . .
29.1(28) . . .
33.8(31) . . .
31.5(30) . . .
29.4(28) . . .
31.2(30) . . .
32.2(29) . . .
34.8(32) . . .
32.0(30) . . .
36.6(33) . . .
33.1(29) . . .
39.7(33) . . .
48(4) . . .
46(4) . . .
37.3(34) . . .
29.1(29) . . .
36.1(31) . . .
38.7(35) . . .
27.4(30) . . .
29.0(30) . . .
25.7(26) . . .
25.9(27) . . .
29.8(29) . . .
39.0(34) . . .
32.0(33) . . .
34.0(31) . . .
24.0(26) . . .
34.4(32) . . .
38.0(34) . . .
31.1(29) . . .
33.9(31) . . .
32.3(30) . . .
34.7(34) . . .
31.6(31) . . .
32.7(31) . . .
30.5(29) . . .
32.3(30) . . .
29.8(28) . . .
33.4(31) . . .
36.5(34) . . .
27.4(27) . . .
29.8(28) . . .
30.5(29) . . .
34.5(33) . . .
32.5(29) . . .
40.9(33) . . .
32.3(31) . . .
28.1(31) . . .
31.1(33) . . .
28.5(28) . . .
39.2(33) . . .
40.8(33) . . .
32.1(30) . . .
28.9(29) . . .
37.3(32) . . .
29.5(29) . . .
27.8(27) . . .
36.5(33) . . .
41.8(35) . . .
39.1(33) . . .
35.3(31) . . .
28.4(28) . . .
35.2(35) . . .
29.6(32) . . .
33.3(30) . . .
32.6(30) . . .
33.1(30) . . .
28.1(27) . . .
28.0(28) . . .
27.8(28) . . .
32.5(29) . . .
37.8(32) . . .
34.0(33) . . .
34.2(31) . . .
23.3(25) . . .
29.2(29) . . .
31.0(29) . . .
34.0(32) . . .
30.3(30) . . .
27.4(28) . . .
39.6(34) . . .
33.2(31) . . .
34.8(32) . . .
35.9(33) . . .
33.1(30) . . .
34.2(31) . . .
36.9(33) . . .
38.1(33) . . .
39.9(33) . . .
34.5(31) . . .
35.2(31) . . .
34.5(32) . . .
28.5(28) . . .
30.7(29) . . .
27.7(29) . . .
37.6(34) . . .
34.0(31) . . .
34.5(32) . . .
29.2(29) . . .
36.5(31) . . .
32.5(30) . . .
37.5(33) . . .
34.2(31) . . .
32.8(30) . . .
39.4(33) . . .
37.3(34) . . .
32.4(30) . . .
32.1(32) . . .
35.7(32) . . .
38.9(33) . . .
32.7(30) . . .
25.4(29) . . .
29.3(31) . . .
27.4(28) . . .
38.8(33) . . .
31.5(30) . . .
31.9(30) . . .
40(4) . . .
38.3(33) . . .
36.3(31) . . .
37.2(33) . . .
39(4) . . .
28.8(30) . . .
33.7(31) . . .
46(4) . . .
43(4) . . .
30.2(31) . . .
32.4(30) . . .
33.1(30) . . .
29.5(28) . . .
35.5(31) . . .
31.9(30) . . .
33.9(32) . . .
36.6(32) . . .
34.4(31) . . .
31.1(29) . . .
32.0(30) . . .
42.2(35) . . .
35.8(32) . . .
37.0(32) . . .
39(4) . . .
28.3(27) . . .
34.2(30) . . .
28.4(29) . . .
38.9(32) . . .
35.5(31) . . .
35.7(34) . . .
30.2(30) . . .
28.7(28) . . .
31.3(30) . . .
29.5(31) . . .
36.0(33) . . .
28.9(28) . . .
34.8(31) . . .
30.9(31) . . .
37.1(34) . . .
45(4) . . .
36.0(32) . . .
36.0(31) . . .
37.0(32) . . .
39.1(33) . . .
36.8(31) . . .
33.8(30) . . .
39.0(33) . . .
32.8(31) . . .
25.2(28) . . .
31.7(32) . . .
35.5(31) . . .
37.6(32) . . .
39.4(34) . . .
34.9(31) . . .
29.7(28) . . .
26.1(26) . . .
34.9(32) . . .
29.3(29) . . .
31.8(33) . . .
26.4(27) . . .
38.2(33) . . .
35.2(30) . . .
31.6(30) . . .
34.0(35) . . .
34.7(33) . . .
38.7(32) . . .
38.1(34) . . .
36.9(32) . . .
31.3(30) . . .
43(4) . . .
37.7(32) . . .
32.9(31) . . .
41(4) . . .
37.7(34) . . .
34.0(31) . . .
34.5(30) . . .
33.5(32) . . .
32.9(31) . . .
29.9(29) . . .
40.5(33) . . .
32.1(30) . . .
30.7(31) . . .
31.2(31) . . .
33.8(31) . . .
37.8(32) . . .
39.5(33) . . .
27.5(28) . . .
36.5(34) . . .
39.0(33) . . .
39.3(33) . . .
31.8(29) . . .
33.0(33) . . .
34.8(34) . . .
36.0(32) . . .
41.6(33) . . .
36.1(31) . . .
34.9(31) . . .
42(4) . . .
31.9(31) . . .
35.0(31) . . .
21.0(24) . . .
30.9(30) . . .
24.9(26) . . .
42.5(35) . . .
36.4(31) . . .
31.2(29) . . .
36.3(32) . . .
39(4) . . .
30.9(29) . . .
29.4(28) . . .
27.2(28) . . .
35.8(34) . . .
35.5(33) . . .
40.2(34) . . .
34.3(31) . . .
38.3(32) . . .
37.9(33) . . .
31.2(29) . . .
36.1(33) . . .
40.2(33) . . .
33.5(31) . . .
29.3(30) . . .
33.2(31) . . .
36.6(33) . . .
32.3(30) . . .
29.0(29) . . .
45(4) . . .
33.7(32) . . .
39.5(34) . . .
35.9(31) . . .
42.4(35) . . .
34.5(33) . . .
31.5(31) . . .
42(4) . . .
35.9(31) . . .
37.1(32) . . .
43.2(35) . . .
36.2(32) . . .
31.9(32) . . .
43.5(35) . . .
29.5(28) . . .
27.5(28) . . .
27.9(28) . . .
34.4(31) . . .
32.6(30) . . .
39.7(34) . . .
30.6(31) . . .
28.0(28) . . .
34.2(30) . . .
31.5(30) . . .
29.7(29) . . .
31.9(32) . . .
37.1(32) . . .
35.9(31) . . .
40.1(33) . . .
32.7(30) . . .
33.7(33) . . .
36.7(33) . . .
42.6(35) . . .
34.8(30) . . .
29.3(29) . . .
36.0(33) . . .
33.3(32) . . .
32.2(30) . . .
25.6(26) . . .
27.6(29) . . .
33.5(32) . . .
32.2(30) . . .
24.4(27) . . .
30.2(29) . . .
30.6(30) . . .
40(4) . . .
34.8(31) . . .
32.2(30) . . .
26.9(27) . . .
32.3(30) . . .
35.4(31) . . .
31.4(29) . . .
36.6(32) . . .
36.2(32) . . .
31.5(31) . . .
36.9(33) . . .
35.4(33) . . .
38.2(32) . . .
37.4(33) . . .
38.1(35) . . .
37.3(34) . . .
33.7(31) . . .
34.2(30) . . .
34.2(31) . . .
40(4) . . .
36.3(33) . . .
33.4(31) . . .
37.5(32) . . .
34.5(30) . . .
35.6(32) . . .
34.8(31) . . .
30.4(29) . . .
33.6(30) . . .
30.1(30) . . .
31.6(32) . . .
31.1(30) . . .
38.7(32) . . .
34.3(31) . . .
27.4(27) . . .
32.8(32) . . .
30.0(29) . . .
35.4(31) . . .
39.7(33) . . .
31.5(29) . . .
34.0(33) . . .
34.3(33) . . .
39.4(33) . . .
36.8(32) . . .
32.0(30) . . .
34.5(33) . . .
40(4) . . .
32.1(30) . . .
29.0(29) . . .
37.0(33) . . .
32.4(31) . . .
30.0(30) . . .
30.8(30) . . .
36.9(31) . . .
35.6(31) . . .
29.0(29) . . .
26.8(30) . . .
35.4(32) . . .
34.1(30) . . .
39.9(35) . . .
34.5(31) . . .
35.8(33) . . .
36.2(31) . . .
35.6(32) . . .
30.6(29) . . .
36.9(32) . . .
37.3(31) . . .
36.5(32) . . .
40(4) . . .
34.5(33) . . .
35.9(33) . . .
31.6(29) . . .
39.6(33) . . .
26.8(27) . . .
33.4(34) . . .
36.1(32) . . .
34.7(30) . . .
36.6(31) . . .
41.9(35) . . .
35.2(33) . . .
33.6(32) . . .
34.5(31) . . .
30.0(29) . . .
30.3(30) . . .
26.5(30) . . .
32.3(31) . . .
38.0(33) . . .
40.2(33) . . .
37.2(32) . . .
37.3(34) . . .
36.2(32) . . .
34.7(31) . . .
24.7(26) . . .
30.3(30) . . .
34.3(32) . . .
39.1(34) . . .
36.8(32) . . .
26.3(27) . . .
29.7(29) . . .
29.5(30) . . .
35.8(33) . . .
46(4) . . .
30.5(30) . . .
29.4(28) . . .
39.2(34) . . .
34.0(30) . . .
31.0(29) . . .
35.1(31) . . .
36.3(33) . . .
28.8(29) . . .
25.6(30) . . .
33.6(30) . . .
38.8(34) . . .
34.7(32) . . .
34.5(32) . . .
34.1(31) . . .
35.6(31) . . .
48(4) . . .
38.4(33) . . .
32.8(31) . . .
31.2(30) . . .
36.5(32) . . .
37.4(34) . . .
42(4) . . .
27.9(28) . . .
40.9(35) . . .
39.1(32) . . .
29.4(29) . . .
32.4(32) . . .
36.0(33) . . .
33.4(30) . . .
34.8(30) . . .
35.9(32) . . .
32.9(32) . . .
33.1(30) . . .
39.3(33) . . .
31.0(29) . . .
37.0(34) . . .
31.4(32) . . .
35.7(32) . . .
32.4(30) . . .
32.7(30) . . .
33.0(33) . . .
31.2(30) . . .
33.6(32) . . .
34.4(30) . . .
29.4(28) . . .
32.2(31) . . .
31.4(30) . . .
27.9(27) . . .
31.1(29) . . .
26.9(28) . . .
37.0(32) . . .
38.2(35) . . .
34.8(33) . . .
29.5(28) . . .
30.1(29) . . .
40.2(34) . . .
40(4) . . .
36.2(33) . . .
47(4) . . .
35.3(32) . . .
25.9(28) . . .
34.4(33) . . .
35.0(33) . . .
46(4) . . .
35.5(33) . . .
47(4) . . .
41.2(33) . . .
36.7(34) . . .
34.3(31) . . .
32.5(32) . . .
39(4) . . .
30.9(32) . . .
34.2(30) . . .
31.0(30) . . .
35.2(34) . . .
28.3(31) . . .
28.9(29) . . .
29.0(28) . . .
35.4(30) . . .
28.0(28) . . .
35.7(34) . . .
37.5(35) . . .
33.3(30) . . .
25.3(26) . . .
33.9(33) . . .
36(4) . . .
40(4) . . .
33.0(30) . . .
38.8(32) . . .
34.8(32) . . .
31.8(32) . . .
27.7(27) . . .
28.9(29) . . .
30.9(29) . . .
31.8(29) . . .
40.0(34) . . .
38.5(33) . . .
33.0(30) . . .
32.7(30) . . .
35.1(32) . . .
27.0(29) . . .
26.4(29) . . .
25.9(27) . . .
30.2(30) . . .
31.5(32) . . .
37.8(35) . . .
31.6(30) . . .
32.5(30) . . .
26.8(27) . . .
30.8(29) . . .
34.8(32) . . .
31.6(30) . . .
32.4(30) . . .
29.1(28) . . .
42.3(35) . . .
37.9(32) . . .
40.1(35) . . .
31.3(30) . . .
34.7(31) . . .
39.1(34) . . .
30.6(29) . . .
39(4) . . .
40.5(33) . . .
39.1(33) . . .
25.9(27) . . .
34.6(32) . . .
32.1(29) . . .
30.7(29) . . .
36.9(33) . . .
37.7(34) . . .
32.8(32) . . .
49(4) . . .
27.8(28) . . .
30.6(33) . . .
32.5(31) . . .
35.3(31) . . .
30.9(29) . . .
36.6(31) . . .
37.9(35) . . .
31.2(32) . . .
42(4) . . .
49(4) . . .
37.4(32) . . .
36.0(34) . . .
31.9(32) . . .
32.0(31) . . .
37.2(32) . . .
30.8(29) . . .
29.6(29) . . .
33.5(32) . . .
30.5(30) . . .
38.4(32) . . .
33.1(31) . . .
33.3(33) . . .
29.8(30) . . .
37(4) . . .
33.0(30) . . .
30.8(29) . . .
32.3(29) . . .
33.8(31) . . .
38.0(33) . . .
38.2(32) . . .
41.1(34) . . .
33.5(31) . . .
28.2(28) . . .
31.6(29) . . .
39.3(33) . . .
39.8(34) . . .
39(4) . . .
35.0(32) . . .
31.5(29) . . .
31.6(30) . . .
37.5(34) . . .
38(4) . . .
33.5(31) . . .
30.4(30) . . .
36.7(32) . . .
41.5(35) . . .
30.8(30) . . .
40(4) . . .
40.4(33) . . .
30.2(30) . . .
34.3(31) . . .
36.1(34) . . .
33.8(31) . . .
27.1(27) . . .
31.8(30) . . .
35.3(34) . . .
31.6(31) . . .
36.3(33) . . .
36.9(32) . . .
37.0(31) . . .
34.4(31) . . .
37.0(35) . . .
33.2(31) . . .
35.3(31) . . .
39.4(34) . . .
47(4) . . .
36.5(35) . . .
37.1(34) . . .
26.0(27) . . .
30.7(29) . . .
42(4) . . .
25.3(27) . . .
32.7(30) . . .
32.2(29) . . .
37.4(34) . . .
39.1(35) . . .
37.0(34) . . .
32.6(31) . . .
33.6(30) . . .
30.9(30) . . .
40(4) . . .
28.6(28) . . .
32.3(31) . . .
31.5(29) . . .
30.0(29) . . .
35.3(32) . . .
35.2(31) . . .
32.6(32) . . .
36.5(31) . . .
31.5(29) . . .
35.7(33) . . .
35.7(32) . . .
35.8(32) . . .
35.8(31) . . .
30.2(28) . . .
35(4) . . .
30.6(32) . . .
26.5(28) . . .
27.9(29) . . .
29.4(29) . . .
33.5(32) . . .
38.8(34) . . .
35.0(31) . . .
43(4) . . .
39.4(35) . . .
34.1(30) . . .
36.3(33) . . .
31.7(30) . . .
33.3(30) . . .
36.1(34) . . .
33.3(34) . . .
25.5(27) . . .
28.9(28) . . .
33.3(30) . . .
39.2(34) . . .
35.6(33) . . .
31.9(31) . . .
37.7(32) . . .
35.7(31) . . .
34.3(32) . . .
27.0(32) . . .
27.3(28) . . .
33.3(30) . . .
28.8(28) . . .
35.1(32) . . .
36.3(31) . . .
38.7(33) . . .
39.8(32) . . .
37.6(34) . . .
35.4(32) . . .
39.9(35) . . .
33.3(30) . . .
31.1(29) . . .
28.2(30) . . .
32.9(31) . . .
31.9(29) . . .
29.3(29) . . .
34.0(31) . . .
28.9(28) . . .
33.9(31) . . .
31.8(29) . . .
40.9(34) . . .
34.9(31) . . .
37.1(32) . . .
28.7(29) . . .
30.2(30) . . .
28.7(28) . . .
40.2(33) . . .
36.8(32) . . .
29.2(29) . . .
33.5(31) . . .
35.1(31) . . .
26.5(27) . . .
38.4(32) . . .
35.1(32) . . .
30.3(29) . . .
27.5(28) . . .
35.1(31) . . .
36.9(33) . . .
42(4) . . .
33.5(30) . . .
37.0(32) . . .
32.2(29) . . .
27.2(31) . . .
35.3(35) . . .
28.6(29) . . .
35.3(31) . . .
28.8(28) . . .
28.7(29) . . .
22.9(26) . . .
31.9(30) . . .
29.2(28) . . .
38.7(34) . . .
30.8(33) . . .
24.0(27) . . .
30.0(30) . . .
33.0(30) . . .
36.5(32) . . .
29.4(28) . . .
29.1(32) . . .
26.5(27) . . .
35.5(31) . . .
38.6(33) . . .
35.0(31) . . .
36.5(32) . . .
35.4(30) . . .
35.1(32) . . .
31.1(30) . . .
35.4(32) . . .
36.4(32) . . .
36.4(32) . . .
35.4(30) . . .
32.2(29) . . .
33.7(31) . . .
32.7(30) . . .
31.5(29) . . .
42.7(34) . . .
41.0(33) . . .
30.7(30) . . .
37.2(33) . . .
30.6(29) . . .
31.4(30) . . .
33.5(31) . . .
31.7(31) . . .
33.0(31) . . .
34.1(31) . . .
31.2(29) . . .
32.4(30) . . .
42.2(34) . . .
40.4(34) . . .
43.4(35) . . .
34.7(32) . . .
28.4(28) . . .
38.2(35) . . .
43(4) . . .
45(4) . . .
32.3(29) . . .
36.3(32) . . .
36.0(31) . . .
35.9(32) . . .
30.2(29) . . .
37.8(32) . . .
31.8(31) . . .
34.0(33) . . .
36.4(33) . . .
31.9(30) . . .
29.2(28) . . .
31.5(28) . . .
36.3(31) . . .
42.8(35) . . .
36.0(31) . . .
40(4) . . .
31.5(30) . . .
34.9(33) . . .
36.8(31) . . .
41.8(34) . . .
40.0(34) . . .
32.2(30) . . .
35.6(34) . . .
33.0(30) . . .
34.1(31) . . .
33.9(33) . . .
25.5(27) . . .
41(4) . . .
32.4(31) . . .
27.3(27) . . .
36.7(35) . . .
30.3(34) . . .
34.6(33) . . .
28.6(29) . . .
32.6(30) . . .
37.1(32) . . .
31.2(30) . . .
30.1(29) . . .
39.1(32) . . .
30.7(31) . . .
32.2(31) . . .
41(4) . . .
46(4) . . .
33.9(30) . . .
37.6(34) . . .
36.5(34) . . .
30.1(31) . . .
27.3(27) . . .
31.5(29) . . .
38.1(33) . . .
40.2(34) . . .
35.2(33) . . .
34.1(31) . . .
30.5(29) . . .
21.5(25) . . .
37.1(34) . . .
34.1(31) . . .
43(4) . . .
35.2(30) . . .
35.7(32) . . .
30.2(29) . . .
30.3(29) . . .
27.9(27) . . .
33.0(30) . . .
26.8(27) . . .
30.9(31) . . .
31.1(31) . . .
38(4) . . .
33.3(30) . . .
38.3(34) . . .
30.5(28) . . .
38.2(34) . . .
32.7(31) . . .
31.3(29) . . .
35.1(33) . . .
31.5(30) . . .
35.1(31) . . .
33.8(31) . . .
33.0(30) . . .
30.9(31) . . .
34.4(34) . . .
38.1(35) . . .
27.8(27) . . .
30.7(29) . . .
30.6(30) . . .
31.5(30) . . .
38.6(34) . . .
30.6(29) . . .
38.0(32) . . .
37.9(32) . . .
38.6(35) . . .
32.4(32) . . .
38.4(33) . . .
26.6(28) . . .
31.7(31) . . .
25.6(27) . . .
43(4) . . .
37.8(33) . . .
33.5(30) . . .
29.7(29) . . .
32.2(30) . . .
40.0(34) . . .
39.1(33) . . .
31.1(29) . . .
36.8(34) . . .
43(4) . . .
42.5(35) . . .
34.8(31) . . .
36.4(32) . . .
28.7(29) . . .
32.1(29) . . .
42.2(34) . . .
34.8(31) . . .
34.5(33) . . .
42.2(34) . . .
39.0(34) . . .
33.5(30) . . .
34.8(31) . . .
29.0(31) . . .
35.9(34) . . .
23.4(25) . . .
33.8(30) . . .
32.0(29) . . .
34.7(31) . . .
28.5(30) . . .
31.6(33) . . .
32.0(30) . . .
24.8(26) . . .
37.7(35) . . .
37.1(33) . . .
34.9(30) . . .
29.4(28) . . .
34.9(31) . . .
36.5(32) . . .
39(4) . . .
44(4) . . .
33.8(30) . . .
35.2(31) . . .
30.3(28) . . .
33.9(32) . . .
33.0(30) . . .
35.9(32) . . .
36.5(31) . . .
35.2(32) . . .
26.5(28) . . .
30.6(30) . . .
33.5(30) . . .
40.5(33) . . .
37.9(33) . . .
33.6(33) . . .
24.4(26) . . .
29.7(28) . . .
31.6(30) . . .
34.6(33) . . .
33.3(31) . . .
34.9(31) . . .
33.0(30) . . .
32.7(30) . . .
40(4) . . .
36.3(34) . . .
29.8(30) . . .
27.0(27) . . .
31.4(30) . . .
30.6(29) . . .
36.4(32) . . .
33.9(31) . . .
35.5(32) . . .
41(4) . . .
31.5(31) . . .
33.1(30) . . .
34.8(30) . . .
32.7(30) . . .
35(4) . . .
31.1(32) . . .
31.3(30) . . .
37.4(33) . . .
30.5(29) . . .
42(4) . . .
31.4(31) . . .
39.7(35) . . .
41.6(34) . . .
30.3(29) . . .
32.7(31) . . .
37(4) . . .
28.3(29) . . .
28.0(28) . . .
40.5(32) . . .
27.9(27) . . .
32.7(34) . . .
loop_
_refln_index_h
_refln_index_k
_refln_index_l
_refln_observed_status
_refln_F_squared_meas
_refln_F_squared_calc
_refln_phase_calc
_refln_d_spacing
_gsas_i100_meas
0 2 0 o 1365.050 1358.251 180.00 8.36692 5.58
0 0 2 o 339.833 20.027 180.00 6.41268 0.82
1 0 1 o 13831.076 14093.402 0.00 5.88883 56.01
0 2 2 o 30513.652 30751.596 0.00 5.08972 92.35
0 3 1 o 1188.341 1263.947 180.00 5.11512 3.63
1 2 1 o 1768.123 1753.641 0.00 4.81565 9.58
1 1 2 o 4298.080 4159.817 0.00 4.44353 19.84
0 1 3 o 274.670 20.933 0.00 4.14208 0.55
0 4 0 o 3641.681 777.755 0.00 4.18346 3.73
1 0 3 o 680.014 207.685 180.00 3.59276 1.03
1 3 2 o 3739.315 3648.566 0.00 3.55301 11.05
0 0 4 o 356.217 131.399 180.00 3.20634 0.21
0 3 3 o 11792.776 11429.209 0.00 3.39314 15.90
0 4 2 o 0.201 0.521 0.00 3.50379 0.00
1 4 1 o 939.505 939.844 180.00 3.41047 2.56
1 2 3 o 1170.532 1194.926 0.00 3.30128 2.99
0 5 1 o 109.244 69.055 180.00 3.23833 0.13
2 0 0 o 2051.549 2092.807 180.00 3.31445 1.32
0 2 4 o 2029.884 1879.686 0.00 2.99402 2.13
2 1 1 o 1026.994 988.705 180.00 3.15160 2.39
2 2 0 o 243.423 216.669 0.00 3.08148 0.27
1 1 4 o 98.584 29.864 0.00 2.84441 0.19
2 0 2 o 380.186 422.893 0.00 2.94441 0.39
0 6 0 o 1079.537 1259.521 0.00 2.78897 0.49
2 3 1 o 823.154 904.564 0.00 2.78156 1.50
2 2 2 o 2171.972 2234.905 180.00 2.77745 3.93
0 1 5 o 1787.889 1863.352 180.00 2.53546 1.35
1 4 3 o 5037.993 5103.031 0.00 2.72559 8.79
1 5 2 o 3103.089 2845.368 180.00 2.70811 5.35
1 3 4 o 42.550 82.224 0.00 2.56353 0.07
2 1 3 o 1372.207 1335.494 0.00 2.58791 2.16
2 4 0 o 1641.604 1741.968 180.00 2.59791 1.30
0 5 3 o 671.076 607.393 180.00 2.63529 0.55
0 4 4 o 9649.818 11499.063 0.00 2.54486 7.35
0 6 2 o 65.968 124.714 0.00 2.55756 0.05
1 0 5 o 597.758 285.561 180.00 2.39222 0.40
1 6 1 o 706.776 671.039 0.00 2.52058 1.06
0 3 5 o 30.286 171.817 0.00 2.33047 0.02
1 2 5 o 444.066 471.391 0.00 2.30005 0.55
0 7 1 o 105.947 240.591 0.00 2.35007 0.07
2 0 4 o 2142.152 2209.866 180.00 2.30450 1.34
2 3 3 o 73.201 136.439 180.00 2.37100 0.10
2 4 2 o 105.569 51.079 180.00 2.40783 0.14
2 5 1 o 1.273 1.698 180.00 2.31629 0.00
0 0 6 o 3145.831 3748.197 0.00 2.13756 0.85
2 2 4 o 37.269 39.390 0.00 2.22176 0.04
0 2 6 o 111.681 115.910 180.00 2.07104 0.06
1 5 4 o 5069.136 5347.306 0.00 2.18579 5.71
1 6 3 o 4734.756 4614.205 180.00 2.20308 5.42
1 1 6 o 791.159 749.068 180.00 2.01953 0.76
0 8 0 o 15.229 12.222 180.00 2.09173 0.00
2 6 0 o 1237.747 1326.484 180.00 2.13400 0.67
1 7 2 o 2439.045 2347.222 0.00 2.12209 2.59
1 4 5 o 11.026 12.320 180.00 2.07667 0.01
3 0 1 o 2943.066 2671.073 180.00 2.17755 1.65
2 1 5 o 376.697 334.147 180.00 2.01380 0.36
0 6 4 o 9242.372 7519.301 180.00 2.10430 4.83
0 5 5 o 19423.346 20364.770 0.00 2.03589 9.51
0 7 3 o 6391.232 5524.930 0.00 2.08650 3.28
3 2 1 o 52.959 58.238 0.00 2.10735 0.06
3 1 2 o 2850.688 2963.665 180.00 2.07300 2.89
2 4 4 o 1333.539 1320.751 180.00 2.01850 1.28
2 6 2 o 513.583 474.223 180.00 2.02482 0.50
0 8 2 o 3213.951 2558.500 180.00 1.98861 1.50
2 5 3 o 338.112 344.262 0.00 2.06275 0.34
1 3 6 o 640.748 588.013 0.00 1.91125 0.55
1 8 1 o 693.542 735.613 180.00 1.97108 0.64
0 4 6 o 1957.616 1661.711 180.00 1.90348 0.84
3 0 3 o 2485.618 2737.182 0.00 1.96294 1.13
0 1 7 o 412.025 541.992 0.00 1.82131 0.16
2 3 5 o 1167.336 943.268 0.00 1.90639 1.00
2 7 1 o 279.762 294.911 180.00 1.91708 0.24
3 3 2 o 1164.525 699.769 0.00 1.95638 1.05
3 2 3 o 4749.183 4137.849 180.00 1.91105 4.11
3 4 1 o 877.625 439.529 180.00 1.93155 0.77
1 0 7 o 1265.892 1144.284 0.00 1.76598 0.47
0 9 1 o 2944.711 3057.682 0.00 1.84008 1.18
2 0 6 o 1.301 1.413 180.00 1.79638 0.00
0 3 7 o 1396.004 1396.672 0.00 1.74069 0.50
1 2 7 o 640.754 612.440 180.00 1.72791 0.45
2 2 6 o 1555.338 1395.376 180.00 1.75636 1.14
3 1 4 o 3229.583 3055.098 0.00 1.80877 2.51
1 6 5 o 284.056 383.063 0.00 1.81577 0.22
1 7 4 o 454.258 464.308 180.00 1.84110 0.36
1 8 3 o 118.581 106.699 0.00 1.80768 0.09
1 5 6 o 1185.997 1263.138 0.00 1.73842 0.85
2 8 0 o 58.547 48.519 0.00 1.76892 0.02
2 5 5 o 2272.245 2544.086 180.00 1.73476 1.62
0 0 8 o 84.290 114.896 0.00 1.60317 0.01
3 4 3 o 334.106 292.086 180.00 1.77705 0.25
2 6 4 o 1566.204 1361.359 0.00 1.77650 1.17
2 7 3 o 1608.573 1520.766 180.00 1.76576 1.19
3 5 2 o 515.035 443.193 0.00 1.77217 0.38
1 9 2 o 6.235 5.482 0.00 1.72430 0.00
0 7 5 o 1881.499 1455.265 180.00 1.74882 0.68
3 3 4 o 231.386 237.608 180.00 1.72974 0.16
0 6 6 o 4901.850 6119.809 0.00 1.69657 1.68
0 8 4 o 1047.857 817.957 0.00 1.75190 0.38
0 10 0 o 10543.198 10680.946 180.00 1.67338 1.76
2 8 2 o 9.023 10.080 0.00 1.70523 0.01
0 9 3 o 157.999 177.806 180.00 1.70504 0.05
3 6 1 o 1944.960 1492.182 180.00 1.71636 1.36
1 4 7 o 194.520 263.719 180.00 1.62696 0.12
3 0 5 o 2478.094 2482.770 180.00 1.67413 0.83
2 4 6 o 1888.063 1825.395 0.00 1.65064 1.22
2 1 7 o 315.114 357.840 0.00 1.59619 0.19
0 2 8 o 588.581 504.335 180.00 1.57453 0.17
3 2 5 o 32.614 48.835 0.00 1.64159 0.02
0 5 7 o 0.403 0.673 0.00 1.60712 0.00
1 1 8 o 912.484 786.381 0.00 1.55153 0.52
1 10 1 o 204.669 495.096 180.00 1.60966 0.13
0 10 2 o 108.545 468.733 0.00 1.61916 0.03
2 9 1 o 30.683 56.977 180.00 1.60878 0.02
4 0 0 o 1555.526 1829.360 0.00 1.65723 0.25
2 3 7 o 1991.404 1953.332 180.00 1.54109 1.13
1 3 8 o 164.476 157.435 0.00 1.50078 0.09
4 1 1 o 1074.061 770.243 0.00 1.63569 0.68
4 2 0 o 451.609 227.130 180.00 1.62565 0.14
3 1 6 o 5.352 5.836 180.00 1.52990 0.00
0 4 8 o 1.521 1.407 0.00 1.49701 0.00
3 5 4 o 294.041 478.483 180.00 1.59849 0.18
3 6 3 o 497.302 716.314 0.00 1.60522 0.31
4 0 2 o 116.529 142.810 180.00 1.60451 0.04
3 4 5 o 54.601 40.734 180.00 1.55429 0.03
3 7 2 o 2022.489 1958.740 180.00 1.57306 1.19
1 7 6 o 301.402 296.005 0.00 1.54931 0.17
4 3 1 o 800.912 770.148 180.00 1.57655 0.47
4 2 2 o 1373.569 1505.553 0.00 1.57580 0.81
1 8 5 o 443.822 494.269 180.00 1.57466 0.26
0 11 1 o 4186.985 5010.220 180.00 1.51067 1.14
1 9 4 o 153.440 207.651 0.00 1.56309 0.09
1 6 7 o 777.783 703.841 0.00 1.49202 0.41
2 0 8 o 1255.393 1077.722 180.00 1.44321 0.31
2 7 5 o 1990.618 1995.146 0.00 1.54672 1.14
2 6 6 o 2429.858 2928.240 180.00 1.51022 1.33
2 10 0 o 341.785 311.362 0.00 1.49380 0.09
0 1 9 o 2131.171 2173.036 0.00 1.41990 0.52
1 10 3 o 17.852 21.160 180.00 1.51692 0.01
2 8 4 o 2058.736 2190.020 180.00 1.54885 1.18
4 1 3 o 535.155 541.393 180.00 1.53865 0.30
3 8 1 o 100.272 122.233 0.00 1.50851 0.05
2 9 3 o 195.355 234.186 0.00 1.51618 0.11
4 4 0 o 1397.819 1583.467 0.00 1.54074 0.40
3 3 6 o 1.218 1.783 180.00 1.48118 0.00
2 2 8 o 715.987 708.119 0.00 1.42221 0.35
1 0 9 o 382.085 431.746 180.00 1.39321 0.09
0 8 6 o 1456.969 1343.247 180.00 1.49502 0.39
2 5 7 o 2429.357 2021.936 0.00 1.44609 1.22
0 7 7 o 3910.323 4313.759 0.00 1.45420 0.99
1 5 8 o 105.642 105.801 180.00 1.41263 0.05
0 10 4 o 189.610 212.335 180.00 1.48350 0.05
0 3 9 o 17.407 31.783 0.00 1.38069 0.00
1 11 2 o 224.170 183.735 180.00 1.44460 0.11
1 2 9 o 19.820 26.441 180.00 1.37429 0.01
2 10 2 o 217.195 245.855 180.00 1.45485 0.11
4 4 2 o 1665.778 1311.888 180.00 1.49811 0.89
4 3 3 o 2168.687 1894.645 0.00 1.48911 1.15
4 0 4 o 781.704 1144.857 0.00 1.47221 0.20
0 9 5 o 641.683 753.212 0.00 1.50542 0.17
3 0 7 o 1247.051 1224.418 180.00 1.41040 0.30
4 5 1 o 2227.555 2447.794 0.00 1.47527 1.16
0 11 3 o 469.504 410.721 0.00 1.43322 0.12
4 2 4 o 937.584 751.286 180.00 1.44993 0.47
3 2 7 o 29.652 34.971 0.00 1.39078 0.01
0 6 8 o 6.698 8.082 180.00 1.38990 0.00
0 12 0 o 2540.965 2690.223 0.00 1.39449 0.30
2 4 8 o 1989.612 1856.589 180.00 1.36431 0.89
3 6 5 o 21.332 17.200 180.00 1.43538 0.01
3 7 4 o 91.145 67.298 0.00 1.44780 0.05
3 8 3 o 591.510 590.010 180.00 1.43138 0.29
4 6 0 o 4287.150 3874.343 180.00 1.42469 1.04
3 5 6 o 311.114 336.912 180.00 1.39625 0.15
2 11 1 o 341.854 496.753 0.00 1.37462 0.16
0 12 2 o 4446.943 4038.144 180.00 1.36264 0.99
1 4 9 o 47.944 50.334 0.00 1.32184 0.02
3 9 2 o 11.063 13.297 180.00 1.38890 0.01
1 12 1 o 16.004 12.641 180.00 1.35696 0.01
2 1 9 o 824.006 1272.742 180.00 1.30518 0.34
4 1 5 o 959.208 1293.637 0.00 1.38719 0.44
0 5 9 o 24.702 34.927 0.00 1.31113 0.01
0 0 10 o 5039.227 4859.150 180.00 1.28254 0.50
4 5 3 o 514.342 423.335 180.00 1.40289 0.24
4 4 4 o 570.024 679.088 0.00 1.38873 0.26
4 6 2 o 910.344 1149.758 0.00 1.39078 0.42
3 4 7 o 123.269 91.954 0.00 1.33649 0.05
0 2 10 o 477.359 385.019 0.00 1.26773 0.09
1 8 7 o 56.613 54.663 0.00 1.34938 0.02
2 8 6 o 2624.260 2339.223 0.00 1.36280 1.17
2 3 9 o 797.732 732.521 0.00 1.27453 0.31
4 3 5 o 194.281 151.018 180.00 1.35056 0.09
2 7 7 o 2715.139 2763.470 180.00 1.33167 1.16
1 9 6 o 223.946 204.369 180.00 1.37247 0.10
1 1 10 o 90.829 56.013 0.00 1.25563 0.03
1 11 4 o 18.810 15.666 180.00 1.34579 0.01
2 10 4 o 1029.563 789.429 0.00 1.35406 0.45
3 1 8 o 1009.490 1303.908 180.00 1.29373 0.41
1 10 5 o 111.021 99.083 0.00 1.37120 0.05
4 7 1 o 3203.560 2451.289 180.00 1.35435 1.41
2 9 5 o 2866.732 2813.133 180.00 1.37066 1.30
3 10 1 o 169.478 191.481 0.00 1.32685 0.07
1 7 8 o 411.713 736.976 0.00 1.30541 0.17
4 0 6 o 745.831 1277.759 180.00 1.30971 0.15
2 11 3 o 959.995 763.069 180.00 1.31550 0.40
2 6 8 o 1827.577 1698.934 0.00 1.28176 0.73
0 13 1 o 2846.869 2630.868 0.00 1.28078 0.56
1 12 3 o 97.549 111.489 180.00 1.30000 0.04
1 3 10 o 0.053 0.047 180.00 1.22828 0.00
2 12 0 o 546.253 578.214 180.00 1.28536 0.11
3 3 8 o 15.354 11.953 180.00 1.26386 0.01
0 4 10 o 1.907 1.716 180.00 1.22621 0.00
4 2 6 o 347.898 462.599 0.00 1.29396 0.14
0 9 7 o 11.899 25.176 180.00 1.30504 0.00
0 8 8 o 799.844 787.808 0.00 1.27243 0.16
0 11 5 o 119.458 249.455 0.00 1.30845 0.02
1 6 9 o 474.127 162.729 180.00 1.24635 0.18
4 8 0 o 1591.454 1706.105 0.00 1.29896 0.32
5 0 1 o 2020.177 1687.522 0.00 1.31875 0.42
0 10 6 o 28.920 21.366 180.00 1.31765 0.01
0 12 4 o 146.244 134.043 180.00 1.27878 0.03
3 7 6 o 56.244 87.668 0.00 1.29244 0.02
3 8 5 o 20.175 39.413 180.00 1.30705 0.01
3 9 4 o 57.867 62.648 180.00 1.30040 0.02
4 7 3 o 456.579 556.110 0.00 1.29770 0.19
4 5 5 o 255.814 271.063 0.00 1.28525 0.10
2 12 2 o 1305.658 1079.908 0.00 1.26029 0.50
4 6 4 o 117.656 136.002 180.00 1.30195 0.05
2 5 9 o 1291.538 1319.043 180.00 1.21920 0.47
3 6 7 o 890.275 731.262 180.00 1.25862 0.34
3 10 3 o 242.602 247.259 180.00 1.27345 0.10
5 2 1 o 330.588 412.572 0.00 1.30267 0.14
0 7 9 o 420.854 392.566 0.00 1.22405 0.08
5 1 2 o 326.833 351.765 0.00 1.29443 0.13
4 8 2 o 1492.496 1601.019 180.00 1.27310 0.59
1 13 2 o 43.893 15.521 180.00 1.23978 0.02
4 4 6 o 70.187 31.370 180.00 1.24989 0.03
4 1 7 o 535.218 484.101 180.00 1.22575 0.20
0 13 3 o 1052.024 753.166 180.00 1.23256 0.19
5 0 3 o 13.808 13.680 0.00 1.26629 0.00
3 5 8 o 200.768 322.053 0.00 1.20986 0.07
5 3 2 o 422.400 436.665 0.00 1.26452 0.16
3 11 2 o 600.129 657.963 0.00 1.22976 0.22
5 4 1 o 13.608 14.997 180.00 1.25774 0.01
5 2 3 o 430.740 294.926 0.00 1.25203 0.16
4 9 1 o 1429.974 1231.692 0.00 1.23142 0.53
2 9 7 o 77.230 116.996 0.00 1.21430 0.03
5 1 4 o 16.061 12.643 0.00 1.22191 0.01
2 11 5 o 10.471 23.223 180.00 1.21705 0.00
2 10 6 o 218.791 233.903 180.00 1.22444 0.08
1 10 7 o 61.107 100.213 180.00 1.21468 0.02
1 11 6 o 45.986 53.097 0.00 1.21831 0.02
5 4 3 o 889.609 924.232 0.00 1.21198 0.32
5 5 2 o 232.125 274.313 180.00 1.21043 0.08
